100092
  -OEChem-03292013323D

 37 38  0     1  0  0  0  0  0999 V2000
    2.6709   -3.4577    0.4525 Br  0  0  0  0  0  0  0  0  0  0  0  0
    0.6586    0.7868    0.5786 O   0  0  0  0  0  0  0  0  0  0  0  0
    1.5028    3.5844   -0.1325 O   0  0  0  0  0  0  0  0  0  0  0  0
   -3.2333    2.0905    1.0191 O   0  0  0  0  0  0  0  0  0  0  0  0
   -4.6443   -2.1233   -0.1646 O   0  0  0  0  0  0  0  0  0  0  0  0
    4.4345   -0.9119   -1.0716 O   0  0  0  0  0  0  0  0  0  0  0  0
   -1.6425    0.6006    0.1815 N   0  0  0  0  0  0  0  0  0  0  0  0
    3.3439   -0.1235    0.8225 N   0  0  0  0  0  0  0  0  0  0  0  0
   -3.9233   -0.0146    0.4255 N   0  0  0  0  0  0  0  0  0  0  0  0
    1.6699    1.1601   -0.3764 C   0  0  1  0  0  0  0  0  0  0  0  0
    1.2069    2.4804   -0.9790 C   0  0  1  0  0  0  0  0  0  0  0  0
   -0.2916    2.2845   -1.0110 C   0  0  0  0  0  0  0  0  0  0  0  0
   -0.5418    1.5147    0.2783 C   0  0  2  0  0  0  0  0  0  0  0  0
    3.0220    1.1862    0.3117 C   0  0  0  0  0  0  0  0  0  0  0  0
   -1.4052   -0.6786   -0.3108 C   0  0  0  0  0  0  0  0  0  0  0  0
   -2.9472    0.9770    0.5744 C   0  0  0  0  0  0  0  0  0  0  0  0
   -2.3415   -1.6250   -0.4522 C   0  0  0  0  0  0  0  0  0  0  0  0
   -3.7386   -1.3006   -0.0593 C   0  0  0  0  0  0  0  0  0  0  0  0
    4.0302   -1.0710    0.0788 C   0  0  0  0  0  0  0  0  0  0  0  0
   -2.0607   -2.9935   -0.9843 C   0  0  0  0  0  0  0  0  0  0  0  0
    4.2302   -2.3658    0.8187 C   0  0  0  0  0  0  0  0  0  0  0  0
    1.6595    0.3859   -1.1550 H   0  0  0  0  0  0  0  0  0  0  0  0
    1.6467    2.6699   -1.9623 H   0  0  0  0  0  0  0  0  0  0  0  0
   -0.8672    3.2150   -1.0413 H   0  0  0  0  0  0  0  0  0  0  0  0
   -0.5664    1.6855   -1.8880 H   0  0  0  0  0  0  0  0  0  0  0  0
   -0.7138    2.2123    1.1067 H   0  0  0  0  0  0  0  0  0  0  0  0
    3.0121    1.8555    1.1782 H   0  0  0  0  0  0  0  0  0  0  0  0
    3.8049    1.5126   -0.3806 H   0  0  0  0  0  0  0  0  0  0  0  0
    1.1315    4.3803   -0.5501 H   0  0  0  0  0  0  0  0  0  0  0  0
   -0.3893   -0.9051   -0.6152 H   0  0  0  0  0  0  0  0  0  0  0  0
    3.0318   -0.3567    1.7607 H   0  0  0  0  0  0  0  0  0  0  0  0
   -4.8685    0.2359    0.7022 H   0  0  0  0  0  0  0  0  0  0  0  0
   -2.3191   -3.7536   -0.2399 H   0  0  0  0  0  0  0  0  0  0  0  0
   -1.0038   -3.1247   -1.2399 H   0  0  0  0  0  0  0  0  0  0  0  0
   -2.6471   -3.1795   -1.8899 H   0  0  0  0  0  0  0  0  0  0  0  0
    4.3012   -2.2235    1.8991 H   0  0  0  0  0  0  0  0  0  0  0  0
    5.1123   -2.8915    0.4473 H   0  0  0  0  0  0  0  0  0  0  0  0
  1 21  1  0  0  0  0
  2 10  1  0  0  0  0
  2 13  1  0  0  0  0
  3 11  1  0  0  0  0
  3 29  1  0  0  0  0
  4 16  2  0  0  0  0
  5 18  2  0  0  0  0
  6 19  2  0  0  0  0
  7 13  1  0  0  0  0
  7 15  1  0  0  0  0
  7 16  1  0  0  0  0
  8 14  1  0  0  0  0
  8 19  1  0  0  0  0
  8 31  1  0  0  0  0
  9 16  1  0  0  0  0
  9 18  1  0  0  0  0
  9 32  1  0  0  0  0
 10 11  1  0  0  0  0
 10 14  1  0  0  0  0
 10 22  1  0  0  0  0
 11 12  1  0  0  0  0
 11 23  1  0  0  0  0
 12 13  1  0  0  0  0
 12 24  1  0  0  0  0
 12 25  1  0  0  0  0
 13 26  1  0  0  0  0
 14 27  1  0  0  0  0
 14 28  1  0  0  0  0
 15 17  2  0  0  0  0
 15 30  1  0  0  0  0
 17 18  1  0  0  0  0
 17 20  1  0  0  0  0
 19 21  1  0  0  0  0
 20 33  1  0  0  0  0
 20 34  1  0  0  0  0
 20 35  1  0  0  0  0
 21 36  1  0  0  0  0
 21 37  1  0  0  0  0
M  END
> <PUBCHEM_COMPOUND_CID>
100092

> <PUBCHEM_CONFORMER_RMSD>
0.8

> <PUBCHEM_CONFORMER_DIVERSEORDER>
1
286
148
88
25
91
96
192
242
320
178
295
186
197
204
138
61
314
131
143
141
218
145
51
228
193
52
257
208
26
240
171
27
251
256
109
5
292
277
315
16
83
283
41
252
318
278
213
123
179
48
176
37
136
317
215
262
62
170
63
101
199
221
200
304
303
224
195
7
198
42
274
12
152
92
32
294
300
124
219
222
97
144
24
30
151
235
202
305
122
134
220
163
196
216
9
275
13
47
247
77
310
39
125
161
103
265
263
65
298
230
35
58
223
322
132
321
78
229
21
15
246
119
308
34
236
55
183
187
20
319
104
260
128
79
162
45
146
296
38
116
231
309
50
49
188
214
40
95
160
239
166
174
323
28
54
306
211
276
66
33
241
8
264
81
248
18
156
100
126
268
69
60
111
114
273
90
243
3
29
205
135
290
155
157
19
312
280
86
130
324
169
56
154
112
147
272
184
291
115
137
64
316
113
44
89
110
67
301
288
271
269
120
84
261
302
233
118
244
194
93
85
71
281
140
255
108
226
297
212
177
180
225
191
217
94
254
249
142
150
75
149
203
82
53
68
313
98
173
267
72
74
168
99
6
102
158
22
57
80
282
234
11
189
129
293
299
4
207
209
107
59
289
76
237
232
259
250
17
181
14
270
139
23
311
175
279
172
133
43
238
121
105
73
258
206
153
210
167
70
245
36
307
266
190
285
201
165
2
159
284
325
87
127
46
287
227
185
31
253
10
117
164
106
182

> <PUBCHEM_MMFF94_PARTIAL_CHARGES>
24
1 -0.23
10 0.28
11 0.28
13 0.58
14 0.3
15 -0.04
16 0.69
17 -0.12
18 0.62
19 0.57
2 -0.56
20 0.14
21 0.29
29 0.4
3 -0.68
30 0.15
31 0.37
32 0.37
4 -0.57
5 -0.57
6 -0.57
7 -0.47
8 -0.73
9 -0.49

> <PUBCHEM_EFFECTIVE_ROTOR_COUNT>
6

> <PUBCHEM_PHARMACOPHORE_FEATURES>
11
1 1 hydrophobe
1 2 acceptor
1 3 acceptor
1 3 donor
1 4 acceptor
1 5 acceptor
1 6 acceptor
1 8 donor
1 9 donor
5 2 10 11 12 13 rings
6 7 9 15 16 17 18 rings

> <PUBCHEM_HEAVY_ATOM_COUNT>
21

> <PUBCHEM_ATOM_DEF_STEREO_COUNT>
0

> <PUBCHEM_ATOM_UDEF_STEREO_COUNT>
3

> <PUBCHEM_BOND_DEF_STEREO_COUNT>
0

> <PUBCHEM_BOND_UDEF_STEREO_COUNT>
0

> <PUBCHEM_ISOTOPIC_ATOM_COUNT>
0

> <PUBCHEM_COMPONENT_COUNT>
1

> <PUBCHEM_CACTVS_TAUTO_COUNT>
6

> <PUBCHEM_CONFORMER_ID>
000186FC00000001

> <PUBCHEM_MMFF94_ENERGY>
41.2988

> <PUBCHEM_FEATURE_SELFOVERLAP>
55.824

> <PUBCHEM_SHAPE_FINGERPRINT>
10616163 171 18053668254526516742
12403259 327 17203602705168608819
12553582 1 18336260159431957494
12633257 1 18057886840487809778
13533116 47 18269555112588803667
13583140 156 17488445516102644456
14178342 30 18341036519447032296
15099037 8 18339923843581112809
15342816 4 18409174294639656534
15420108 30 17622446044039440601
15442244 35 18411421734529123769
15537594 2 18262817159257678442
17492 89 18266178512079742939
17804303 29 18273218594631961353
17818456 19 18201729422757978289
1813 80 17676491627026033324
19141452 34 18267303131859218337
20281475 54 18408604730209999020
20291156 8 18409164390165600698
20645477 70 18043523030877614303
21421861 104 18269010836989973283
21673915 165 18412821404578899906
2255824 54 18116998999368992548
235170 7 14635157789380829674
23559900 14 18272364334200757272
23598291 2 18335712666612342421
314173 41 18410580599855053670
4283 87 18410847798170957950
463206 1 18261679190377001682
56633871 153 18124317108081946307
6992083 37 18339092483931218833
7064713 232 17986104115535068746
7097593 13 18412826918878960388
7364860 26 18194965364573390400
9709674 26 18264209290827427755
9981440 41 17399795393922049273

> <PUBCHEM_SHAPE_MULTIPOLES>
393.82
8.56
4.23
0.97
1.25
0.5
0.09
6.08
-1.1
1.19
0.53
0.1
-0.05
-1.35

> <PUBCHEM_SHAPE_SELFOVERLAP>
803.154

> <PUBCHEM_SHAPE_VOLUME>
232

> <PUBCHEM_COORDINATE_TYPE>
2
5
10

$$$$
