100059
  -OEChem-03292013323D

 62 64  0     1  0  0  0  0  0999 V2000
   -4.3109   -2.9557   -2.0243 Cl  0  0  0  0  0  0  0  0  0  0  0  0
   -6.0947   -3.3487    0.6471 Cl  0  0  0  0  0  0  0  0  0  0  0  0
   -2.4848    3.9260   -2.5492 O   0  0  0  0  0  0  0  0  0  0  0  0
    2.2858    1.5707    0.2164 O   0  0  0  0  0  0  0  0  0  0  0  0
    0.7134   -1.0733    0.1709 O   0  0  0  0  0  0  0  0  0  0  0  0
    4.0727    2.8474    0.8889 O   0  0  0  0  0  0  0  0  0  0  0  0
    1.5992   -2.5783    1.6626 O   0  0  0  0  0  0  0  0  0  0  0  0
   -2.1486    2.1463   -0.0322 N   0  0  0  0  0  0  0  0  0  0  0  0
    4.3634    0.8036   -0.1697 N   0  0  0  0  0  0  0  0  0  0  0  0
    1.8925   -2.8154   -0.6266 N   0  0  0  0  0  0  0  0  0  0  0  0
   -1.0268    2.9184    0.0204 C   0  0  0  0  0  0  0  0  0  0  0  0
   -2.6789    4.1165   -1.1479 C   0  0  2  0  0  0  0  0  0  0  0  0
   -1.3033    4.2928   -0.4513 C   0  0  0  0  0  0  0  0  0  0  0  0
   -3.3151    2.8516   -0.5372 C   0  0  0  0  0  0  0  0  0  0  0  0
   -0.0051    2.1433    0.5003 C   0  0  0  0  0  0  0  0  0  0  0  0
   -1.9104    0.8874    0.3872 C   0  0  0  0  0  0  0  0  0  0  0  0
   -0.5684    0.8493    0.7338 C   0  0  0  0  0  0  0  0  0  0  0  0
    1.3913    2.5609    0.7249 C   0  0  0  0  0  0  0  0  0  0  0  0
   -2.9205   -0.1431    0.4351 C   0  0  0  0  0  0  0  0  0  0  0  0
    0.1631   -0.3268    1.2545 C   0  0  0  0  0  0  0  0  0  0  0  0
   -3.1258   -0.9688   -0.6694 C   0  0  0  0  0  0  0  0  0  0  0  0
   -3.6892   -0.3111    1.5860 C   0  0  0  0  0  0  0  0  0  0  0  0
   -4.1016   -1.9645   -0.6229 C   0  0  0  0  0  0  0  0  0  0  0  0
   -4.6652   -1.3066    1.6325 C   0  0  0  0  0  0  0  0  0  0  0  0
   -4.8713   -2.1335    0.5281 C   0  0  0  0  0  0  0  0  0  0  0  0
    3.6201    1.8364    0.3618 C   0  0  0  0  0  0  0  0  0  0  0  0
    1.4207   -2.1951    0.5111 C   0  0  0  0  0  0  0  0  0  0  0  0
    5.8079    0.7756   -0.1760 C   0  0  0  0  0  0  0  0  0  0  0  0
    2.6783   -4.0277   -0.6117 C   0  0  0  0  0  0  0  0  0  0  0  0
    6.3177    0.0327   -1.4041 C   0  0  0  0  0  0  0  0  0  0  0  0
    6.3361    0.1478    1.1078 C   0  0  0  0  0  0  0  0  0  0  0  0
    4.1602   -3.6966   -0.4911 C   0  0  0  0  0  0  0  0  0  0  0  0
    2.3983   -4.8615   -1.8558 C   0  0  0  0  0  0  0  0  0  0  0  0
   -3.3114    5.0012   -1.0253 H   0  0  0  0  0  0  0  0  0  0  0  0
   -1.3890    4.9656    0.4082 H   0  0  0  0  0  0  0  0  0  0  0  0
   -0.5331    4.6560   -1.1372 H   0  0  0  0  0  0  0  0  0  0  0  0
   -3.9439    3.0817    0.3280 H   0  0  0  0  0  0  0  0  0  0  0  0
   -3.8311    2.2186   -1.2630 H   0  0  0  0  0  0  0  0  0  0  0  0
    1.5929    3.5145    0.2226 H   0  0  0  0  0  0  0  0  0  0  0  0
    1.5636    2.6869    1.8007 H   0  0  0  0  0  0  0  0  0  0  0  0
   -0.5127   -0.9725    1.8285 H   0  0  0  0  0  0  0  0  0  0  0  0
    0.9672   -0.0129    1.9307 H   0  0  0  0  0  0  0  0  0  0  0  0
   -3.3614    3.7900   -2.9476 H   0  0  0  0  0  0  0  0  0  0  0  0
   -2.5241   -0.8354   -1.5666 H   0  0  0  0  0  0  0  0  0  0  0  0
   -3.5405    0.3253    2.4551 H   0  0  0  0  0  0  0  0  0  0  0  0
   -5.2559   -1.4242    2.5376 H   0  0  0  0  0  0  0  0  0  0  0  0
    3.8614   -0.0010   -0.5341 H   0  0  0  0  0  0  0  0  0  0  0  0
    1.7123   -2.3655   -1.5193 H   0  0  0  0  0  0  0  0  0  0  0  0
    6.1658    1.8112   -0.2238 H   0  0  0  0  0  0  0  0  0  0  0  0
    2.3842   -4.6103    0.2697 H   0  0  0  0  0  0  0  0  0  0  0  0
    7.4120    0.0403   -1.4400 H   0  0  0  0  0  0  0  0  0  0  0  0
    5.9841   -1.0107   -1.4059 H   0  0  0  0  0  0  0  0  0  0  0  0
    5.9450    0.4992   -2.3225 H   0  0  0  0  0  0  0  0  0  0  0  0
    5.9926    0.7048    1.9864 H   0  0  0  0  0  0  0  0  0  0  0  0
    7.4309    0.1412    1.1192 H   0  0  0  0  0  0  0  0  0  0  0  0
    5.9867   -0.8851    1.2168 H   0  0  0  0  0  0  0  0  0  0  0  0
    4.3608   -3.1158    0.4159 H   0  0  0  0  0  0  0  0  0  0  0  0
    4.5028   -3.1013   -1.3447 H   0  0  0  0  0  0  0  0  0  0  0  0
    4.7632   -4.6094   -0.4479 H   0  0  0  0  0  0  0  0  0  0  0  0
    2.6695   -4.3189   -2.7683 H   0  0  0  0  0  0  0  0  0  0  0  0
    2.9644   -5.7986   -1.8349 H   0  0  0  0  0  0  0  0  0  0  0  0
    1.3336   -5.1098   -1.9244 H   0  0  0  0  0  0  0  0  0  0  0  0
  1 23  1  0  0  0  0
  2 25  1  0  0  0  0
  3 12  1  0  0  0  0
  3 43  1  0  0  0  0
  4 18  1  0  0  0  0
  4 26  1  0  0  0  0
  5 20  1  0  0  0  0
  5 27  1  0  0  0  0
  6 26  2  0  0  0  0
  7 27  2  0  0  0  0
  8 11  1  0  0  0  0
  8 14  1  0  0  0  0
  8 16  1  0  0  0  0
  9 26  1  0  0  0  0
  9 28  1  0  0  0  0
  9 47  1  0  0  0  0
 10 27  1  0  0  0  0
 10 29  1  0  0  0  0
 10 48  1  0  0  0  0
 11 13  1  0  0  0  0
 11 15  2  0  0  0  0
 12 13  1  0  0  0  0
 12 14  1  0  0  0  0
 12 34  1  0  0  0  0
 13 35  1  0  0  0  0
 13 36  1  0  0  0  0
 14 37  1  0  0  0  0
 14 38  1  0  0  0  0
 15 17  1  0  0  0  0
 15 18  1  0  0  0  0
 16 17  2  0  0  0  0
 16 19  1  0  0  0  0
 17 20  1  0  0  0  0
 18 39  1  0  0  0  0
 18 40  1  0  0  0  0
 19 21  2  0  0  0  0
 19 22  1  0  0  0  0
 20 41  1  0  0  0  0
 20 42  1  0  0  0  0
 21 23  1  0  0  0  0
 21 44  1  0  0  0  0
 22 24  2  0  0  0  0
 22 45  1  0  0  0  0
 23 25  2  0  0  0  0
 24 25  1  0  0  0  0
 24 46  1  0  0  0  0
 28 30  1  0  0  0  0
 28 31  1  0  0  0  0
 28 49  1  0  0  0  0
 29 32  1  0  0  0  0
 29 33  1  0  0  0  0
 29 50  1  0  0  0  0
 30 51  1  0  0  0  0
 30 52  1  0  0  0  0
 30 53  1  0  0  0  0
 31 54  1  0  0  0  0
 31 55  1  0  0  0  0
 31 56  1  0  0  0  0
 32 57  1  0  0  0  0
 32 58  1  0  0  0  0
 32 59  1  0  0  0  0
 33 60  1  0  0  0  0
 33 61  1  0  0  0  0
 33 62  1  0  0  0  0
M  END
> <PUBCHEM_COMPOUND_CID>
100059

> <PUBCHEM_CONFORMER_RMSD>
1.2

> <PUBCHEM_CONFORMER_DIVERSEORDER>
1
59
73
129
125
123
136
43
140
103
8
70
121
106
89
21
138
128
68
108
93
116
10
12
57
28
82
77
141
105
92
64
58
137
5
84
52
126
132
100
87
72
90
117
18
48
107
74
95
76
131
9
96
88
39
124
99
130
30
50
42
104
66
120
44
41
109
114
62
139
34
31
75
36
56
91
102
133
35
45
27
19
54
80
60
127
78
119
55
67
86
135
49
134
122
118
38
40
47
79
61
63
23
98
113
81
17
110
26
69
71
111
14
112
101
20
37
115
97
85
65
83
29
94
13
7
25
53
24
22
33
46
32
51
11
6
16
2
15
4
3

> <PUBCHEM_MMFF94_PARTIAL_CHARGES>
35
1 -0.18
10 -0.73
11 -0.33
12 0.28
13 0.18
14 0.26
15 -0.18
16 -0.2
17 -0.18
18 0.46
19 0.05
2 -0.18
20 0.46
21 -0.15
22 -0.15
23 0.18
24 -0.15
25 0.18
26 0.78
27 0.78
28 0.3
29 0.3
3 -0.68
4 -0.43
43 0.4
44 0.15
45 0.15
46 0.15
47 0.37
48 0.37
5 -0.43
6 -0.57
7 -0.57
8 0.05
9 -0.73

> <PUBCHEM_EFFECTIVE_ROTOR_COUNT>
11.6

> <PUBCHEM_PHARMACOPHORE_FEATURES>
12
1 10 donor
1 3 acceptor
1 3 donor
1 6 acceptor
1 7 acceptor
1 8 cation
1 9 donor
3 28 30 31 hydrophobe
3 29 32 33 hydrophobe
5 8 11 12 13 14 rings
5 8 11 15 16 17 rings
6 19 21 22 23 24 25 rings

> <PUBCHEM_HEAVY_ATOM_COUNT>
33

> <PUBCHEM_ATOM_DEF_STEREO_COUNT>
0

> <PUBCHEM_ATOM_UDEF_STEREO_COUNT>
1

> <PUBCHEM_BOND_DEF_STEREO_COUNT>
0

> <PUBCHEM_BOND_UDEF_STEREO_COUNT>
0

> <PUBCHEM_ISOTOPIC_ATOM_COUNT>
0

> <PUBCHEM_COMPONENT_COUNT>
1

> <PUBCHEM_CACTVS_TAUTO_COUNT>
4

> <PUBCHEM_CONFORMER_ID>
000186DB00000001

> <PUBCHEM_MMFF94_ENERGY>
56.0642

> <PUBCHEM_FEATURE_SELFOVERLAP>
61.154

> <PUBCHEM_SHAPE_FINGERPRINT>
10190108 129 18269570479845106643
11227688 84 18343292652529492925
11578080 2 17169537524226487199
12422481 6 17702956949026024477
13149001 5 17904752289646624809
1361 2 18125724732294512114
13911987 19 17606975154683627493
14289585 56 18119790642385789319
14347332 77 18334292085036806280
14918310 93 18059588996315461223
14955137 171 18046070629758385201
15064986 96 17631193951992424415
1813 80 18193852659038248413
19301676 85 17546445574754003134
19319366 153 16668542705999834723
20028762 73 18059015119901889198
20775438 99 17834926734061108511
21033648 29 12396302603710322164
23559900 14 17836922305291303122
3298306 158 18338798902084999380
3737641 26 18341902895754800579
5265222 85 18337966692290186644
5309563 4 18263643034265899859
57307002 85 17895206544310608066
59755656 215 18408886239140025796

> <PUBCHEM_SHAPE_MULTIPOLES>
638.57
12.96
6.85
1.61
9.55
0.93
0.5
7.5
-0.13
-1.06
3.59
-0.89
0.31
2.39

> <PUBCHEM_SHAPE_SELFOVERLAP>
1325.854

> <PUBCHEM_SHAPE_VOLUME>
368.7

> <PUBCHEM_COORDINATE_TYPE>
2
5
10

$$$$
