100084
  -OEChem-03292013323D

 48 47  0     1  0  0  0  0  0999 V2000
   -0.2334   -0.2510    1.0137 O   0  0  0  0  0  0  0  0  0  0  0  0
   -3.0635   -0.1141   -1.7932 O   0  0  0  0  0  0  0  0  0  0  0  0
    3.9782    1.2116   -1.0799 O   0  0  0  0  0  0  0  0  0  0  0  0
   -6.5077    0.5002    1.3756 O   0  0  0  0  0  0  0  0  0  0  0  0
   -7.5732   -1.2381    0.3973 O   0  0  0  0  0  0  0  0  0  0  0  0
    5.7531   -2.1791    0.1053 O   0  0  0  0  0  0  0  0  0  0  0  0
   -0.9452    1.2118   -0.6412 N   0  0  0  0  0  0  0  0  0  0  0  0
    2.3514    0.0833    0.1306 N   0  0  0  0  0  0  0  0  0  0  0  0
   -4.1969    0.0247    0.2271 N   0  0  0  0  0  0  0  0  0  0  0  0
    5.8906    0.1017    0.5544 N   0  0  0  0  0  0  0  0  0  0  0  0
    1.2731    0.2708   -0.8117 C   0  0  2  0  0  0  0  0  0  0  0  0
   -2.2695    1.4407   -0.1122 C   0  0  2  0  0  0  0  0  0  0  0  0
   -0.0267    0.3737   -0.0247 C   0  0  0  0  0  0  0  0  0  0  0  0
    4.5633    0.2827    1.0808 C   0  0  2  0  0  0  0  0  0  0  0  0
   -3.1905    0.3620   -0.6670 C   0  0  0  0  0  0  0  0  0  0  0  0
    1.2115   -0.8694   -1.8161 C   0  0  0  0  0  0  0  0  0  0  0  0
    3.6303    0.5765   -0.0865 C   0  0  0  0  0  0  0  0  0  0  0  0
   -2.7775    2.8278   -0.4735 C   0  0  0  0  0  0  0  0  0  0  0  0
   -5.2224   -0.9441   -0.0828 C   0  0  1  0  0  0  0  0  0  0  0  0
    4.5228    1.4061    2.1051 C   0  0  0  0  0  0  0  0  0  0  0  0
   -4.7802   -2.3408    0.3271 C   0  0  0  0  0  0  0  0  0  0  0  0
   -6.5456   -0.5933    0.5771 C   0  0  0  0  0  0  0  0  0  0  0  0
    6.3750   -1.1199    0.1092 C   0  0  0  0  0  0  0  0  0  0  0  0
    7.7829   -1.0237   -0.4142 C   0  0  0  0  0  0  0  0  0  0  0  0
    1.4481    1.2114   -1.3476 H   0  0  0  0  0  0  0  0  0  0  0  0
   -2.2196    1.3488    0.9794 H   0  0  0  0  0  0  0  0  0  0  0  0
   -0.7152    1.6204   -1.5427 H   0  0  0  0  0  0  0  0  0  0  0  0
    4.2588   -0.6551    1.5609 H   0  0  0  0  0  0  0  0  0  0  0  0
    2.1593   -0.4397    0.9805 H   0  0  0  0  0  0  0  0  0  0  0  0
    1.0460   -1.8299   -1.3148 H   0  0  0  0  0  0  0  0  0  0  0  0
    2.1461   -0.9464   -2.3817 H   0  0  0  0  0  0  0  0  0  0  0  0
    0.3916   -0.7221   -2.5271 H   0  0  0  0  0  0  0  0  0  0  0  0
   -2.1050    3.6020   -0.0893 H   0  0  0  0  0  0  0  0  0  0  0  0
   -3.7752    3.0008   -0.0564 H   0  0  0  0  0  0  0  0  0  0  0  0
   -2.8468    2.9554   -1.5599 H   0  0  0  0  0  0  0  0  0  0  0  0
   -5.3945   -0.9155   -1.1654 H   0  0  0  0  0  0  0  0  0  0  0  0
   -4.2214    0.4689    1.1405 H   0  0  0  0  0  0  0  0  0  0  0  0
    5.2074    1.2025    2.9353 H   0  0  0  0  0  0  0  0  0  0  0  0
    3.5139    1.5279    2.5135 H   0  0  0  0  0  0  0  0  0  0  0  0
    4.8159    2.3629    1.6580 H   0  0  0  0  0  0  0  0  0  0  0  0
    6.4721    0.9271    0.4384 H   0  0  0  0  0  0  0  0  0  0  0  0
   -4.6115   -2.3994    1.4085 H   0  0  0  0  0  0  0  0  0  0  0  0
   -3.8459   -2.6210   -0.1710 H   0  0  0  0  0  0  0  0  0  0  0  0
   -5.5393   -3.0872    0.0697 H   0  0  0  0  0  0  0  0  0  0  0  0
    8.2157   -2.0250   -0.4910 H   0  0  0  0  0  0  0  0  0  0  0  0
    7.7710   -0.5581   -1.4033 H   0  0  0  0  0  0  0  0  0  0  0  0
    8.4023   -0.4273    0.2618 H   0  0  0  0  0  0  0  0  0  0  0  0
   -7.3824    0.6927    1.7758 H   0  0  0  0  0  0  0  0  0  0  0  0
  1 13  2  0  0  0  0
  2 15  2  0  0  0  0
  3 17  2  0  0  0  0
  4 22  1  0  0  0  0
  4 48  1  0  0  0  0
  5 22  2  0  0  0  0
  6 23  2  0  0  0  0
  7 12  1  0  0  0  0
  7 13  1  0  0  0  0
  7 27  1  0  0  0  0
  8 11  1  0  0  0  0
  8 17  1  0  0  0  0
  8 29  1  0  0  0  0
  9 15  1  0  0  0  0
  9 19  1  0  0  0  0
  9 37  1  0  0  0  0
 10 14  1  0  0  0  0
 10 23  1  0  0  0  0
 10 41  1  0  0  0  0
 11 13  1  0  0  0  0
 11 16  1  0  0  0  0
 11 25  1  0  0  0  0
 12 15  1  0  0  0  0
 12 18  1  0  0  0  0
 12 26  1  0  0  0  0
 14 17  1  0  0  0  0
 14 20  1  0  0  0  0
 14 28  1  0  0  0  0
 16 30  1  0  0  0  0
 16 31  1  0  0  0  0
 16 32  1  0  0  0  0
 18 33  1  0  0  0  0
 18 34  1  0  0  0  0
 18 35  1  0  0  0  0
 19 21  1  0  0  0  0
 19 22  1  0  0  0  0
 19 36  1  0  0  0  0
 20 38  1  0  0  0  0
 20 39  1  0  0  0  0
 20 40  1  0  0  0  0
 21 42  1  0  0  0  0
 21 43  1  0  0  0  0
 21 44  1  0  0  0  0
 23 24  1  0  0  0  0
 24 45  1  0  0  0  0
 24 46  1  0  0  0  0
 24 47  1  0  0  0  0
M  END
> <PUBCHEM_COMPOUND_CID>
100084

> <PUBCHEM_CONFORMER_RMSD>
1.2

> <PUBCHEM_CONFORMER_DIVERSEORDER>
1
315
82
242
156
126
295
151
269
133
180
325
122
86
250
20
218
232
194
158
343
239
282
340
189
255
169
164
313
161
68
202
94
199
298
38
74
192
272
97
28
273
249
208
80
235
105
137
302
22
287
333
311
336
167
154
58
69
3
100
339
366
203
361
106
175
24
237
110
141
136
234
90
11
93
216
187
138
268
228
283
346
266
261
201
44
16
4
132
263
351
174
323
6
288
267
191
308
360
284
159
157
99
160
27
252
334
248
95
182
206
369
66
309
233
89
300
26
48
275
128
350
178
81
60
176
184
121
134
244
47
173
19
259
108
316
337
348
143
345
331
51
96
214
181
179
301
286
221
35
292
344
223
190
78
219
365
118
230
240
274
265
238
13
62
222
91
247
54
135
363
131
34
257
59
195
213
220
52
117
276
109
32
120
177
330
50
200
129
314
357
12
324
241
236
281
10
39
150
289
215
264
21
319
297
37
185
53
31
278
170
43
231
144
127
2
307
207
341
251
162
139
217
171
243
57
149
102
155
229
279
147
142
328
280
45
163
73
196
67
55
258
326
9
271
270
17
299
224
362
64
262
75
124
116
353
332
367
321
29
186
245
77
152
291
146
98
320
130
5
56
318
41
359
293
329
342
197
211
356
312
65
25
153
14
246
358
227
87
294
104
114
92
304
72
188
209
112
113
355
148
125
310
30
140
107
306
49
103
349
165
256
210
335
15
85
42
285
225
303
40
145
63
23
253
277
33
204
18
101
322
368
71
205
172
212
61
168
79
111
8
338
198
260
84
46
115
347
352
183
290
254
7
166
119
317
83
305
364
76
193
354
123
36
296
327
70
226
88

> <PUBCHEM_MMFF94_PARTIAL_CHARGES>
25
1 -0.57
10 -0.73
11 0.36
12 0.36
13 0.57
14 0.36
15 0.57
17 0.57
19 0.36
2 -0.57
22 0.66
23 0.57
24 0.06
27 0.37
29 0.37
3 -0.57
37 0.37
4 -0.65
41 0.37
48 0.5
5 -0.57
6 -0.57
7 -0.73
8 -0.73
9 -0.73

> <PUBCHEM_EFFECTIVE_ROTOR_COUNT>
12

> <PUBCHEM_PHARMACOPHORE_FEATURES>
11
1 1 acceptor
1 10 donor
1 2 acceptor
1 3 acceptor
1 4 acceptor
1 5 acceptor
1 6 acceptor
1 7 donor
1 8 donor
1 9 donor
3 4 5 22 anion

> <PUBCHEM_HEAVY_ATOM_COUNT>
24

> <PUBCHEM_ATOM_DEF_STEREO_COUNT>
0

> <PUBCHEM_ATOM_UDEF_STEREO_COUNT>
4

> <PUBCHEM_BOND_DEF_STEREO_COUNT>
0

> <PUBCHEM_BOND_UDEF_STEREO_COUNT>
0

> <PUBCHEM_ISOTOPIC_ATOM_COUNT>
0

> <PUBCHEM_COMPONENT_COUNT>
1

> <PUBCHEM_CACTVS_TAUTO_COUNT>
16

> <PUBCHEM_CONFORMER_ID>
000186F400000001

> <PUBCHEM_MMFF94_ENERGY>
44.1889

> <PUBCHEM_FEATURE_SELFOVERLAP>
55.887

> <PUBCHEM_SHAPE_FINGERPRINT>
10 15 17060620026996370865
10066227 112 9079112263068796598
11089746 13 11312052149607874075
11524674 6 17275103946761206487
12166972 35 17095526209721992628
12616971 3 16630517453995266008
13533116 47 18259985998552305124
13668630 136 17603586318160432074
1420 363 18409446990270658102
15048467 5 10519984863868758414
15183329 4 13479125796575273637
15348495 7 17845649373371617411
15716309 27 18343301483024178143
16079462 125 10665230367399759598
17349148 13 17167860863509905856
18222031 100 17022617577089572980
19433438 28 18343294856211777088
21150785 3 14923947851416091494
21267235 1 18334297556824647572
2215653 11 12540691513850669912
22224240 67 17418091048997217119
23035841 295 18333452053984357323
23081809 10 15984526914892939956
23198884 109 9223238451109402137
23402539 116 18261106396484579661
23559900 14 11170206375175207863
25122255 55 18333739009091911562
300161 21 10231753392585139604
3004659 81 17385442145814892373
3178227 256 17703789215805873042
4325135 7 18113900463890253583
465052 167 18343581816410097726
5104073 3 17916312632299702307
59755656 215 17675924283215852763

> <PUBCHEM_SHAPE_MULTIPOLES>
438.77
20.85
1.96
1.36
2.29
0.23
0.03
-9.73
5.77
-0.86
-0.01
0.48
0.24
1.25

> <PUBCHEM_SHAPE_SELFOVERLAP>
859.746

> <PUBCHEM_SHAPE_VOLUME>
262.5

> <PUBCHEM_COORDINATE_TYPE>
2
5
10

$$$$
