100036
  -OEChem-03292013323D

 40 43  0     1  0  0  0  0  0999 V2000
   -3.9141   -0.4755    0.9640 O   0  0  0  0  0  0  0  0  0  0  0  0
   -0.6698    2.0995    0.6361 O   0  0  0  0  0  0  0  0  0  0  0  0
    1.8515    2.2980    0.5520 O   0  0  0  0  0  0  0  0  0  0  0  0
    2.4081   -2.8819   -0.6376 O   0  0  0  0  0  0  0  0  0  0  0  0
   -4.7362   -2.5747    0.9852 O   0  0  0  0  0  0  0  0  0  0  0  0
    4.3846    2.6765    0.4749 O   0  0  0  0  0  0  0  0  0  0  0  0
   -5.5696    1.6729    0.3468 O   0  0  0  0  0  0  0  0  0  0  0  0
   -5.4528    2.1068   -1.9085 N   0  0  0  0  0  0  0  0  0  0  0  0
   -1.6157   -0.0407    0.2425 C   0  0  0  0  0  0  0  0  0  0  0  0
   -3.0023    0.5100    0.4141 C   0  0  1  0  0  0  0  0  0  0  0  0
   -1.4706   -1.3959   -0.0605 C   0  0  0  0  0  0  0  0  0  0  0  0
    0.7930    0.2380    0.1583 C   0  0  0  0  0  0  0  0  0  0  0  0
   -0.4842    0.7768    0.3513 C   0  0  0  0  0  0  0  0  0  0  0  0
    0.9382   -1.1146   -0.1523 C   0  0  0  0  0  0  0  0  0  0  0  0
   -2.7016   -2.2355   -0.2204 C   0  0  0  0  0  0  0  0  0  0  0  0
   -0.1938   -1.9303   -0.2685 C   0  0  0  0  0  0  0  0  0  0  0  0
   -3.5806    1.0508   -0.8893 C   0  0  0  0  0  0  0  0  0  0  0  0
    1.9788    1.1108    0.2788 C   0  0  0  0  0  0  0  0  0  0  0  0
    2.2800   -1.6944   -0.3662 C   0  0  0  0  0  0  0  0  0  0  0  0
   -3.8606   -1.7888    0.6310 C   0  0  0  0  0  0  0  0  0  0  0  0
    3.3206    0.5315    0.0647 C   0  0  0  0  0  0  0  0  0  0  0  0
    3.4659   -0.8219   -0.2466 C   0  0  0  0  0  0  0  0  0  0  0  0
   -4.9561    1.6268   -0.7155 C   0  0  0  0  0  0  0  0  0  0  0  0
    4.4524    1.3480    0.1753 C   0  0  0  0  0  0  0  0  0  0  0  0
    4.7431   -1.3590   -0.4475 C   0  0  0  0  0  0  0  0  0  0  0  0
    5.7234    0.8088   -0.0257 C   0  0  0  0  0  0  0  0  0  0  0  0
    5.8684   -0.5418   -0.3365 C   0  0  0  0  0  0  0  0  0  0  0  0
   -2.9827    1.3061    1.1681 H   0  0  0  0  0  0  0  0  0  0  0  0
   -3.0188   -2.2283   -1.2686 H   0  0  0  0  0  0  0  0  0  0  0  0
   -2.4692   -3.2669    0.0709 H   0  0  0  0  0  0  0  0  0  0  0  0
   -0.0959   -2.9833   -0.5217 H   0  0  0  0  0  0  0  0  0  0  0  0
   -3.6550    0.2498   -1.6362 H   0  0  0  0  0  0  0  0  0  0  0  0
   -2.9270    1.8282   -1.3040 H   0  0  0  0  0  0  0  0  0  0  0  0
    4.8829   -2.4089   -0.6908 H   0  0  0  0  0  0  0  0  0  0  0  0
    0.1532    2.5981    0.5285 H   0  0  0  0  0  0  0  0  0  0  0  0
    6.6131    1.4280    0.0558 H   0  0  0  0  0  0  0  0  0  0  0  0
    6.8589   -0.9594   -0.4925 H   0  0  0  0  0  0  0  0  0  0  0  0
   -4.9279    2.0592   -2.7761 H   0  0  0  0  0  0  0  0  0  0  0  0
   -6.3742    2.5290   -1.9568 H   0  0  0  0  0  0  0  0  0  0  0  0
    5.2812    3.0519    0.5019 H   0  0  0  0  0  0  0  0  0  0  0  0
  1 10  1  0  0  0  0
  1 20  1  0  0  0  0
  2 13  1  0  0  0  0
  2 35  1  0  0  0  0
  3 18  2  0  0  0  0
  4 19  2  0  0  0  0
  5 20  2  0  0  0  0
  6 24  1  0  0  0  0
  6 40  1  0  0  0  0
  7 23  2  0  0  0  0
  8 23  1  0  0  0  0
  8 38  1  0  0  0  0
  8 39  1  0  0  0  0
  9 10  1  0  0  0  0
  9 11  1  0  0  0  0
  9 13  2  0  0  0  0
 10 17  1  0  0  0  0
 10 28  1  0  0  0  0
 11 15  1  0  0  0  0
 11 16  2  0  0  0  0
 12 13  1  0  0  0  0
 12 14  2  0  0  0  0
 12 18  1  0  0  0  0
 14 16  1  0  0  0  0
 14 19  1  0  0  0  0
 15 20  1  0  0  0  0
 15 29  1  0  0  0  0
 15 30  1  0  0  0  0
 16 31  1  0  0  0  0
 17 23  1  0  0  0  0
 17 32  1  0  0  0  0
 17 33  1  0  0  0  0
 18 21  1  0  0  0  0
 19 22  1  0  0  0  0
 21 22  2  0  0  0  0
 21 24  1  0  0  0  0
 22 25  1  0  0  0  0
 24 26  2  0  0  0  0
 25 27  2  0  0  0  0
 25 34  1  0  0  0  0
 26 27  1  0  0  0  0
 26 36  1  0  0  0  0
 27 37  1  0  0  0  0
M  END
> <PUBCHEM_COMPOUND_CID>
100036

> <PUBCHEM_CONFORMER_RMSD>
0.6

> <PUBCHEM_CONFORMER_DIVERSEORDER>
1
7
4
10
13
16
6
3
9
8
5
12
14
15
11
2

> <PUBCHEM_MMFF94_PARTIAL_CHARGES>
35
1 -0.43
10 0.42
11 -0.14
12 0.09
13 0.08
14 0.09
15 0.2
16 -0.15
17 0.06
18 0.4
19 0.4
2 -0.53
20 0.66
21 0.09
22 0.09
23 0.57
24 0.08
25 -0.15
26 -0.15
27 -0.15
3 -0.57
31 0.15
34 0.15
35 0.45
36 0.15
37 0.15
38 0.37
39 0.37
4 -0.57
40 0.45
5 -0.57
6 -0.53
7 -0.57
8 -0.8
9 -0.14

> <PUBCHEM_EFFECTIVE_ROTOR_COUNT>
2.6

> <PUBCHEM_PHARMACOPHORE_FEATURES>
11
1 2 donor
1 3 acceptor
1 4 acceptor
1 5 acceptor
1 6 donor
1 7 acceptor
1 8 donor
6 1 9 10 11 15 20 rings
6 12 14 18 19 21 22 rings
6 21 22 24 25 26 27 rings
6 9 11 12 13 14 16 rings

> <PUBCHEM_HEAVY_ATOM_COUNT>
27

> <PUBCHEM_ATOM_DEF_STEREO_COUNT>
0

> <PUBCHEM_ATOM_UDEF_STEREO_COUNT>
1

> <PUBCHEM_BOND_DEF_STEREO_COUNT>
0

> <PUBCHEM_BOND_UDEF_STEREO_COUNT>
0

> <PUBCHEM_ISOTOPIC_ATOM_COUNT>
0

> <PUBCHEM_COMPONENT_COUNT>
1

> <PUBCHEM_CACTVS_TAUTO_COUNT>
152

> <PUBCHEM_CONFORMER_ID>
000186C400000001

> <PUBCHEM_MMFF94_ENERGY>
81.2362

> <PUBCHEM_FEATURE_SELFOVERLAP>
55.888

> <PUBCHEM_SHAPE_FINGERPRINT>
105312 117 17895183347877745685
10835480 77 18340762723930518472
10906281 52 18058742277793274601
11578080 2 17314216766342434582
11595378 159 16298657292200722284
12011746 2 18342459197441349500
12236239 1 13623821500678121005
12403259 415 18341894151338373712
12788726 201 17915172412972408465
12838862 33 18270382938029700720
13140716 1 18410858720346430627
13402501 40 18409445856378589485
13583140 156 18342736351533273823
13944108 23 16820221387994417221
14790565 3 17907020926180828064
15196674 1 18412547638968024754
15238133 3 15213589923009128485
1601671 61 18410856555867126724
17844677 252 18335427918981036016
1813 80 17531527693493734508
18608769 82 18408886270270589203
19591789 44 18198344146541111946
200 152 17560797706262977041
20645477 56 18187645765585581813
20715895 44 18263356989096411309
21033648 144 18337669720554013773
21033648 29 18341040917187672840
21236236 1 18410574011728577879
21267235 1 18342189898892484758
21279426 13 18411985732828956070
21421861 104 17896028846328564842
21709351 56 18410009970120097820
21859007 373 18117256117855608748
22182313 1 18271259273691324319
22393880 68 18334572442931382946
23559900 14 18342173358698894144
23569914 152 16764234281065177684
3004659 81 18335422357726219008
335352 9 18341050736073560214
34934 24 18411696556554007158
350125 39 18339930428082345835
3545911 37 18409732842014313145
4073 2 18113905991566125994
4214541 1 18410577300897858787
5104073 3 18410856572836117130
5283173 99 18334290942422284213
59755656 215 18338517430986388516
9995097 60 18411702092687314699

> <PUBCHEM_SHAPE_MULTIPOLES>
509.58
13.06
2.92
0.91
0
0.32
0.18
-3.72
1.49
-1.15
0.05
-1.01
-0.19
2.07

> <PUBCHEM_SHAPE_SELFOVERLAP>
1152.997

> <PUBCHEM_SHAPE_VOLUME>
262.7

> <PUBCHEM_COORDINATE_TYPE>
2
5
10

$$$$
