100083
  -OEChem-03292013323D

 38 38  0     1  0  0  0  0  0999 V2000
   -2.2486   -0.0708    1.8182 O   0  0  0  0  0  0  0  0  0  0  0  0
   -1.0512    1.9930   -1.3594 O   0  0  0  0  0  0  0  0  0  0  0  0
    5.9246   -0.6046   -1.1617 O   0  0  0  0  0  0  0  0  0  0  0  0
   -3.9985   -0.3681   -1.3125 O   0  0  0  0  0  0  0  0  0  0  0  0
   -5.6603   -1.7495   -0.6212 O   0  0  0  0  0  0  0  0  0  0  0  0
   -0.1810    1.3232    0.6877 N   0  0  0  0  0  0  0  0  0  0  0  0
   -2.1126   -1.5632    0.0439 N   0  0  0  0  0  0  0  0  0  0  0  0
   -1.3924    4.5372   -0.3842 N   0  0  0  0  0  0  0  0  0  0  0  0
   -0.2377   -0.0997    0.4654 C   0  0  1  0  0  0  0  0  0  0  0  0
    0.8350   -0.8531    1.2603 C   0  0  0  0  0  0  0  0  0  0  0  0
    2.1963   -0.7865    0.6121 C   0  0  0  0  0  0  0  0  0  0  0  0
   -1.6290   -0.5657    0.8792 C   0  0  0  0  0  0  0  0  0  0  0  0
    2.5632   -1.7630   -0.3002 C   0  0  0  0  0  0  0  0  0  0  0  0
    3.0553    0.2500    0.9418 C   0  0  0  0  0  0  0  0  0  0  0  0
   -0.5955    2.2613   -0.2499 C   0  0  0  0  0  0  0  0  0  0  0  0
    3.8218   -1.7015   -0.8985 C   0  0  0  0  0  0  0  0  0  0  0  0
    4.3139    0.3115    0.3434 C   0  0  0  0  0  0  0  0  0  0  0  0
   -3.4270   -2.1476    0.1841 C   0  0  0  0  0  0  0  0  0  0  0  0
    4.6972   -0.6643   -0.5767 C   0  0  0  0  0  0  0  0  0  0  0  0
   -0.3930    3.6810    0.2385 C   0  0  0  0  0  0  0  0  0  0  0  0
   -4.4805   -1.4198   -0.6105 C   0  0  0  0  0  0  0  0  0  0  0  0
   -0.1120   -0.2763   -0.6105 H   0  0  0  0  0  0  0  0  0  0  0  0
    0.5529   -1.9099    1.3643 H   0  0  0  0  0  0  0  0  0  0  0  0
    0.8957   -0.4747    2.2899 H   0  0  0  0  0  0  0  0  0  0  0  0
    0.1318    1.6472    1.5985 H   0  0  0  0  0  0  0  0  0  0  0  0
    1.8874   -2.5731   -0.5592 H   0  0  0  0  0  0  0  0  0  0  0  0
    2.7669    1.0145    1.6574 H   0  0  0  0  0  0  0  0  0  0  0  0
   -1.5304   -1.9015   -0.7166 H   0  0  0  0  0  0  0  0  0  0  0  0
    4.1143   -2.4640   -1.6152 H   0  0  0  0  0  0  0  0  0  0  0  0
    4.9864    1.1248    0.6024 H   0  0  0  0  0  0  0  0  0  0  0  0
   -3.3644   -3.1774   -0.1782 H   0  0  0  0  0  0  0  0  0  0  0  0
   -3.7152   -2.1337    1.2394 H   0  0  0  0  0  0  0  0  0  0  0  0
    0.6145    4.0071   -0.0370 H   0  0  0  0  0  0  0  0  0  0  0  0
   -0.4924    3.7385    1.3266 H   0  0  0  0  0  0  0  0  0  0  0  0
   -2.3274    4.2072   -0.1483 H   0  0  0  0  0  0  0  0  0  0  0  0
   -1.3134    4.4820   -1.3988 H   0  0  0  0  0  0  0  0  0  0  0  0
    6.3967    0.1761   -0.8242 H   0  0  0  0  0  0  0  0  0  0  0  0
   -4.7026    0.0882   -1.8208 H   0  0  0  0  0  0  0  0  0  0  0  0
  1 12  2  0  0  0  0
  2 15  2  0  0  0  0
  3 19  1  0  0  0  0
  3 37  1  0  0  0  0
  4 21  1  0  0  0  0
  4 38  1  0  0  0  0
  5 21  2  0  0  0  0
  6  9  1  0  0  0  0
  6 15  1  0  0  0  0
  6 25  1  0  0  0  0
  7 12  1  0  0  0  0
  7 18  1  0  0  0  0
  7 28  1  0  0  0  0
  8 20  1  0  0  0  0
  8 35  1  0  0  0  0
  8 36  1  0  0  0  0
  9 10  1  0  0  0  0
  9 12  1  0  0  0  0
  9 22  1  0  0  0  0
 10 11  1  0  0  0  0
 10 23  1  0  0  0  0
 10 24  1  0  0  0  0
 11 13  2  0  0  0  0
 11 14  1  0  0  0  0
 13 16  1  0  0  0  0
 13 26  1  0  0  0  0
 14 17  2  0  0  0  0
 14 27  1  0  0  0  0
 15 20  1  0  0  0  0
 16 19  2  0  0  0  0
 16 29  1  0  0  0  0
 17 19  1  0  0  0  0
 17 30  1  0  0  0  0
 18 21  1  0  0  0  0
 18 31  1  0  0  0  0
 18 32  1  0  0  0  0
 20 33  1  0  0  0  0
 20 34  1  0  0  0  0
M  END
> <PUBCHEM_COMPOUND_CID>
100083

> <PUBCHEM_CONFORMER_RMSD>
0.8

> <PUBCHEM_CONFORMER_DIVERSEORDER>
1
35
176
105
183
45
85
118
172
66
81
184
152
24
6
36
155
137
156
48
40
129
115
142
54
125
80
120
161
182
171
12
138
11
134
65
9
164
162
114
121
119
30
49
82
58
132
93
22
167
32
44
130
102
106
74
113
50
17
43
3
170
181
86
57
25
91
10
178
169
39
123
52
96
26
168
173
20
37
159
51
154
103
89
165
148
15
67
133
78
83
122
160
88
75
100
135
73
76
131
163
53
185
28
139
42
8
151
56
150
94
5
128
177
87
19
72
64
140
158
99
147
13
179
145
174
141
21
124
98
109
46
34
90
157
63
127
4
71
14
112
68
33
55
110
153
117
69
101
27
41
107
79
116
126
92
62
16
59
175
136
108
47
61
18
84
166
180
7
111
29
144
38
60
146
97
23
95
2
149
143
104
70
31
77

> <PUBCHEM_MMFF94_PARTIAL_CHARGES>
31
1 -0.57
10 0.14
11 -0.14
12 0.57
13 -0.15
14 -0.15
15 0.57
16 -0.15
17 -0.15
18 0.36
19 0.08
2 -0.57
20 0.33
21 0.66
25 0.37
26 0.15
27 0.15
28 0.37
29 0.15
3 -0.53
30 0.15
35 0.36
36 0.36
37 0.45
38 0.5
4 -0.65
5 -0.57
6 -0.73
7 -0.73
8 -0.99
9 0.36

> <PUBCHEM_EFFECTIVE_ROTOR_COUNT>
9

> <PUBCHEM_PHARMACOPHORE_FEATURES>
11
1 1 acceptor
1 2 acceptor
1 3 donor
1 4 acceptor
1 5 acceptor
1 6 donor
1 7 donor
1 8 cation
1 8 donor
3 4 5 21 anion
6 11 13 14 16 17 19 rings

> <PUBCHEM_HEAVY_ATOM_COUNT>
21

> <PUBCHEM_ATOM_DEF_STEREO_COUNT>
0

> <PUBCHEM_ATOM_UDEF_STEREO_COUNT>
1

> <PUBCHEM_BOND_DEF_STEREO_COUNT>
0

> <PUBCHEM_BOND_UDEF_STEREO_COUNT>
0

> <PUBCHEM_ISOTOPIC_ATOM_COUNT>
0

> <PUBCHEM_COMPONENT_COUNT>
1

> <PUBCHEM_CACTVS_TAUTO_COUNT>
8

> <PUBCHEM_CONFORMER_ID>
000186F300000001

> <PUBCHEM_MMFF94_ENERGY>
41.4238

> <PUBCHEM_FEATURE_SELFOVERLAP>
55.881

> <PUBCHEM_SHAPE_FINGERPRINT>
10366900 7 18335991921755599522
10498660 4 18335134259224239638
11045515 52 18410853283054645921
11386260 185 18121193615666414253
12403260 363 18260829259889100410
12788726 201 18261385607565145467
13149001 5 17752207446505076683
13583140 156 14692287275172158562
14178000 29 18271240650760451991
14251757 5 18263634079454799581
14508225 48 18411699897996423933
14790565 3 17834672704443532973
15849732 13 18269571481120729985
17357779 13 18410844477965461829
1813 80 18200607976563163087
18222031 100 18341890839633888322
20671657 53 18341896346177295227
20871999 31 18335420153733048819
21285901 2 18201722833887938022
21524375 3 17250617564695618400
22620623 9 18270125582465639836
23402539 116 18261119560654566626
23557571 272 18409730642853875262
23558518 356 17755853122188779627
23559900 14 17844801675692418891
266924 1 17750785554821837154
266924 87 18264768770463474678
2871803 45 18413107260433094162
314173 85 18411138064697284403
46194498 28 17905299060943591639
465052 167 14620513501516577431
5283173 99 18114733854859602525
532947 4 17905895034557913000
57262259 84 18341895143212107245
621550 34 18129929191982203552
6443956 14 18264485276952303177
68521 5 18408600344752899745
6913067 236 18129080347430653034
7164475 11 18190451671772634282
7364860 26 18049434048665434193
7399639 24 18201706389164517056
81228 2 18187647946833109825

> <PUBCHEM_SHAPE_MULTIPOLES>
387.88
10.13
3.64
1.23
2.09
6
0.1
-7.95
-3.97
-3.21
-0.74
-0.08
-0.08
0.42

> <PUBCHEM_SHAPE_SELFOVERLAP>
793.333

> <PUBCHEM_SHAPE_VOLUME>
222.2

> <PUBCHEM_COORDINATE_TYPE>
2
5
10

$$$$
