100050
  -OEChem-03292013323D

 55 56  0     1  0  0  0  0  0999 V2000
   -1.3078   -1.4975    1.6654 O   0  0  0  0  0  0  0  0  0  0  0  0
   -5.2857   -0.2240    0.7774 O   0  0  0  0  0  0  0  0  0  0  0  0
   -6.0273   -2.3052    1.2374 O   0  0  0  0  0  0  0  0  0  0  0  0
    2.4974   -0.4653   -0.1018 O   0  0  0  0  0  0  0  0  0  0  0  0
    0.8050   -0.7603   -1.6262 O   0  0  0  0  0  0  0  0  0  0  0  0
   -2.8892   -0.9846    0.0436 N   0  0  0  0  0  0  0  0  0  0  0  0
    0.4287    0.2280    0.4392 N   0  0  0  0  0  0  0  0  0  0  0  0
   -3.9017   -2.9777   -0.9448 C   0  0  0  0  0  0  0  0  0  0  0  0
   -3.7950   -2.0797    0.3064 C   0  0  2  0  0  0  0  0  0  0  0  0
   -0.9837    0.4779    0.2986 C   0  0  2  0  0  0  0  0  0  0  0  0
   -1.4438    1.6841    1.1253 C   0  0  0  0  0  0  0  0  0  0  0  0
   -1.7118   -0.7830    0.7504 C   0  0  0  0  0  0  0  0  0  0  0  0
   -2.5408   -3.5277   -1.3807 C   0  0  0  0  0  0  0  0  0  0  0  0
   -4.5972   -2.2900   -2.1236 C   0  0  0  0  0  0  0  0  0  0  0  0
   -5.1330   -1.5700    0.8344 C   0  0  0  0  0  0  0  0  0  0  0  0
   -1.1250    3.0019    0.4623 C   0  0  0  0  0  0  0  0  0  0  0  0
    0.0880    3.6192    0.7248 C   0  0  0  0  0  0  0  0  0  0  0  0
   -2.0511    3.5720   -0.3973 C   0  0  0  0  0  0  0  0  0  0  0  0
    1.2046   -0.3697   -0.5342 C   0  0  0  0  0  0  0  0  0  0  0  0
    0.3824    4.8373    0.1122 C   0  0  0  0  0  0  0  0  0  0  0  0
   -1.7565    4.7900   -1.0101 C   0  0  0  0  0  0  0  0  0  0  0  0
   -0.5398    5.4226   -0.7554 C   0  0  0  0  0  0  0  0  0  0  0  0
    3.4188   -1.0695   -1.0167 C   0  0  0  0  0  0  0  0  0  0  0  0
    4.7827   -1.0963   -0.3920 C   0  0  0  0  0  0  0  0  0  0  0  0
    5.6479   -0.0244   -0.5809 C   0  0  0  0  0  0  0  0  0  0  0  0
    5.1695   -2.1932    0.3701 C   0  0  0  0  0  0  0  0  0  0  0  0
    6.9160   -0.0497   -0.0003 C   0  0  0  0  0  0  0  0  0  0  0  0
    6.4375   -2.2184    0.9509 C   0  0  0  0  0  0  0  0  0  0  0  0
    7.3108   -1.1466    0.7657 C   0  0  0  0  0  0  0  0  0  0  0  0
   -4.5277   -3.8384   -0.6717 H   0  0  0  0  0  0  0  0  0  0  0  0
   -3.3733   -2.6747    1.1265 H   0  0  0  0  0  0  0  0  0  0  0  0
   -1.1931    0.6378   -0.7671 H   0  0  0  0  0  0  0  0  0  0  0  0
   -3.1699   -0.2972   -0.6497 H   0  0  0  0  0  0  0  0  0  0  0  0
   -1.0017    1.6588    2.1307 H   0  0  0  0  0  0  0  0  0  0  0  0
   -2.5285    1.6353    1.2932 H   0  0  0  0  0  0  0  0  0  0  0  0
   -2.6637   -4.2651   -2.1813 H   0  0  0  0  0  0  0  0  0  0  0  0
   -2.0364   -4.0252   -0.5457 H   0  0  0  0  0  0  0  0  0  0  0  0
   -1.8825   -2.7379   -1.7575 H   0  0  0  0  0  0  0  0  0  0  0  0
   -4.0259   -1.4287   -2.4843 H   0  0  0  0  0  0  0  0  0  0  0  0
   -4.7097   -2.9870   -2.9613 H   0  0  0  0  0  0  0  0  0  0  0  0
   -5.5989   -1.9447   -1.8493 H   0  0  0  0  0  0  0  0  0  0  0  0
    0.8767    0.4579    1.3215 H   0  0  0  0  0  0  0  0  0  0  0  0
    0.8130    3.1722    1.3989 H   0  0  0  0  0  0  0  0  0  0  0  0
   -3.0001    3.0856   -0.6039 H   0  0  0  0  0  0  0  0  0  0  0  0
    1.3298    5.3300    0.3104 H   0  0  0  0  0  0  0  0  0  0  0  0
   -2.4743    5.2453   -1.6861 H   0  0  0  0  0  0  0  0  0  0  0  0
   -6.1667    0.0590    1.1030 H   0  0  0  0  0  0  0  0  0  0  0  0
   -0.3104    6.3708   -1.2327 H   0  0  0  0  0  0  0  0  0  0  0  0
    3.0899   -2.0891   -1.2535 H   0  0  0  0  0  0  0  0  0  0  0  0
    3.4411   -0.4961   -1.9518 H   0  0  0  0  0  0  0  0  0  0  0  0
    5.3500    0.8360   -1.1736 H   0  0  0  0  0  0  0  0  0  0  0  0
    4.4966   -3.0325    0.5225 H   0  0  0  0  0  0  0  0  0  0  0  0
    7.5958    0.7850   -0.1440 H   0  0  0  0  0  0  0  0  0  0  0  0
    6.7447   -3.0721    1.5477 H   0  0  0  0  0  0  0  0  0  0  0  0
    8.2979   -1.1660    1.2181 H   0  0  0  0  0  0  0  0  0  0  0  0
  1 12  2  0  0  0  0
  2 15  1  0  0  0  0
  2 47  1  0  0  0  0
  3 15  2  0  0  0  0
  4 19  1  0  0  0  0
  4 23  1  0  0  0  0
  5 19  2  0  0  0  0
  6  9  1  0  0  0  0
  6 12  1  0  0  0  0
  6 33  1  0  0  0  0
  7 10  1  0  0  0  0
  7 19  1  0  0  0  0
  7 42  1  0  0  0  0
  8  9  1  0  0  0  0
  8 13  1  0  0  0  0
  8 14  1  0  0  0  0
  8 30  1  0  0  0  0
  9 15  1  0  0  0  0
  9 31  1  0  0  0  0
 10 11  1  0  0  0  0
 10 12  1  0  0  0  0
 10 32  1  0  0  0  0
 11 16  1  0  0  0  0
 11 34  1  0  0  0  0
 11 35  1  0  0  0  0
 13 36  1  0  0  0  0
 13 37  1  0  0  0  0
 13 38  1  0  0  0  0
 14 39  1  0  0  0  0
 14 40  1  0  0  0  0
 14 41  1  0  0  0  0
 16 17  2  0  0  0  0
 16 18  1  0  0  0  0
 17 20  1  0  0  0  0
 17 43  1  0  0  0  0
 18 21  2  0  0  0  0
 18 44  1  0  0  0  0
 20 22  2  0  0  0  0
 20 45  1  0  0  0  0
 21 22  1  0  0  0  0
 21 46  1  0  0  0  0
 22 48  1  0  0  0  0
 23 24  1  0  0  0  0
 23 49  1  0  0  0  0
 23 50  1  0  0  0  0
 24 25  2  0  0  0  0
 24 26  1  0  0  0  0
 25 27  1  0  0  0  0
 25 51  1  0  0  0  0
 26 28  2  0  0  0  0
 26 52  1  0  0  0  0
 27 29  2  0  0  0  0
 27 53  1  0  0  0  0
 28 29  1  0  0  0  0
 28 54  1  0  0  0  0
 29 55  1  0  0  0  0
M  END
> <PUBCHEM_COMPOUND_CID>
100050

> <PUBCHEM_CONFORMER_RMSD>
1

> <PUBCHEM_CONFORMER_DIVERSEORDER>
1
201
384
189
171
27
150
278
316
369
274
344
113
83
97
347
353
160
300
118
98
356
307
266
26
350
390
232
164
399
13
273
7
50
257
338
387
127
49
400
267
397
115
312
202
15
181
221
332
290
162
254
106
293
92
388
336
42
157
231
159
31
371
292
142
39
66
253
131
43
235
206
35
208
324
378
395
101
389
310
331
6
72
233
147
173
215
167
153
132
22
269
204
396
213
205
229
370
386
180
249
120
138
52
365
143
46
410
373
241
265
285
277
30
121
108
165
155
68
140
239
303
114
93
135
304
409
55
330
20
287
64
308
63
16
382
299
363
248
12
111
210
166
263
87
298
116
383
125
256
100
327
223
318
134
244
186
234
394
107
9
183
177
38
288
133
406
393
129
291
53
340
268
297
240
264
321
354
212
313
51
326
44
214
345
255
337
217
286
190
309
11
37
220
170
261
339
124
364
296
70
335
149
99
252
295
191
146
144
348
152
403
376
203
5
158
319
334
408
175
10
375
259
48
381
91
407
251
284
230
154
294
279
385
18
317
24
117
260
141
176
401
192
411
315
333
349
17
282
226
211
34
199
275
305
148
247
139
151
197
357
314
341
238
184
243
270
103
56
320
112
281
65
4
76
88
195
168
367
23
187
47
272
126
85
219
172
57
237
271
105
36
258
96
41
128
67
301
216
193
343
178
224
359
61
95
80
207
405
228
355
32
130
412
29
188
163
21
362
110
19
361
109
391
137
377
2
73
323
194
75
351
169
25
71
40
45
209
225
90
81
289
306
62
218
28
86
77
283
242
328
245
311
368
342
198
200
185
14
222
156
69
136
280
89
122
262
60
59
74
325
227
322
352
33
372
366
54
8
119
3
302
346
196
276
84
404
179
392
102
402
58
94
358
174
161
398
78
123
236
329
182
250
82
145
79
360
413
380
379
246
374
104

> <PUBCHEM_MMFF94_PARTIAL_CHARGES>
39
1 -0.57
10 0.36
11 0.14
12 0.57
15 0.66
16 -0.14
17 -0.15
18 -0.15
19 0.78
2 -0.65
20 -0.15
21 -0.15
22 -0.15
23 0.42
24 -0.14
25 -0.15
26 -0.15
27 -0.15
28 -0.15
29 -0.15
3 -0.57
33 0.37
4 -0.43
42 0.37
43 0.15
44 0.15
45 0.15
46 0.15
47 0.5
48 0.15
5 -0.57
51 0.15
52 0.15
53 0.15
54 0.15
55 0.15
6 -0.73
7 -0.73
9 0.36

> <PUBCHEM_EFFECTIVE_ROTOR_COUNT>
12

> <PUBCHEM_PHARMACOPHORE_FEATURES>
10
1 1 acceptor
1 2 acceptor
1 3 acceptor
1 5 acceptor
1 6 donor
1 7 donor
3 2 3 15 anion
3 8 13 14 hydrophobe
6 16 17 18 20 21 22 rings
6 24 25 26 27 28 29 rings

> <PUBCHEM_HEAVY_ATOM_COUNT>
29

> <PUBCHEM_ATOM_DEF_STEREO_COUNT>
0

> <PUBCHEM_ATOM_UDEF_STEREO_COUNT>
2

> <PUBCHEM_BOND_DEF_STEREO_COUNT>
0

> <PUBCHEM_BOND_UDEF_STEREO_COUNT>
0

> <PUBCHEM_ISOTOPIC_ATOM_COUNT>
0

> <PUBCHEM_COMPONENT_COUNT>
1

> <PUBCHEM_CACTVS_TAUTO_COUNT>
4

> <PUBCHEM_CONFORMER_ID>
000186D200000001

> <PUBCHEM_MMFF94_ENERGY>
63.6401

> <PUBCHEM_FEATURE_SELFOVERLAP>
50.808

> <PUBCHEM_SHAPE_FINGERPRINT>
10411042 1 18408608093042551193
10940486 97 17986956439258256583
11045515 52 18410292544645632021
12166972 35 17749395901046868652
12788726 201 18261385594596016747
13004483 165 18411422825318649406
14347332 77 18408321069237041440
14394314 77 18411140242504653483
14508225 48 18339913909379708141
14844126 61 18337391534947069963
15021287 119 18341061817200395419
15183329 4 10881394332062352698
15439362 3 17905889528726188313
16087824 20 18264773152538489689
16992727 255 18043519535181015981
21304303 282 17904184950278825813
2132832 1 18114190739503166628
23366157 5 17906455785508469935
23929065 36 18266157479956924904
255183 313 18126865802153003985
3504750 166 18339633426878630942
4015057 19 18117840125342189674
4280585 95 18341604949662516087
4409770 3 18265044739856315757
5080951 261 18270668754152483995
5969126 39 18412538804104142044
6700243 42 17914366561496847412
9981440 41 17470174656648707360

> <PUBCHEM_SHAPE_MULTIPOLES>
557.5
15.15
6.79
1.39
25.75
12.17
-0.26
-17.58
2.31
-7.66
-1.83
-1.22
-0.72
-0.69

> <PUBCHEM_SHAPE_SELFOVERLAP>
1156.933

> <PUBCHEM_SHAPE_VOLUME>
315.8

> <PUBCHEM_COORDINATE_TYPE>
2
5
10

$$$$
