100022
  -OEChem-03292013323D

 46 49  0     1  0  0  0  0  0999 V2000
   -2.2573   -1.0613   -1.1189 O   0  0  0  0  0  0  0  0  0  0  0  0
   -4.6802   -1.3403    1.0582 O   0  0  0  0  0  0  0  0  0  0  0  0
   -1.1460   -1.5945    1.6392 O   0  0  0  0  0  0  0  0  0  0  0  0
   -2.9651   -4.5428   -0.3242 O   0  0  0  0  0  0  0  0  0  0  0  0
    5.6169   -2.0230   -0.1244 O   0  0  0  0  0  0  0  0  0  0  0  0
   -2.4932    1.1293   -0.2497 N   0  0  0  0  0  0  0  0  0  0  0  0
   -2.3391    3.3509   -0.1264 N   0  0  0  0  0  0  0  0  0  0  0  0
   -0.1356    0.5459   -0.1963 N   0  0  0  0  0  0  0  0  0  0  0  0
    1.2678    2.5364   -0.0399 N   0  0  0  0  0  0  0  0  0  0  0  0
    0.3567    4.7475    0.0457 N   0  0  0  0  0  0  0  0  0  0  0  0
   -3.3411   -0.8563    1.0163 C   0  0  2  0  0  0  0  0  0  0  0  0
   -3.1055   -0.1980   -0.3428 C   0  0  2  0  0  0  0  0  0  0  0  0
   -2.3685   -2.0186    1.0413 C   0  0  1  0  0  0  0  0  0  0  0  0
   -2.1025   -2.3124   -0.4288 C   0  0  1  0  0  0  0  0  0  0  0  0
   -3.0769   -3.3177   -1.0300 C   0  0  0  0  0  0  0  0  0  0  0  0
   -1.1582    1.4141   -0.1866 C   0  0  0  0  0  0  0  0  0  0  0  0
   -3.1607    2.3256   -0.2109 C   0  0  0  0  0  0  0  0  0  0  0  0
   -1.0842    2.7958   -0.1103 C   0  0  0  0  0  0  0  0  0  0  0  0
    0.1877    3.3544   -0.0347 C   0  0  0  0  0  0  0  0  0  0  0  0
    1.0424    1.2027   -0.1192 C   0  0  0  0  0  0  0  0  0  0  0  0
    2.2206    0.3723   -0.1216 C   0  0  0  0  0  0  0  0  0  0  0  0
    2.2152   -0.8536   -0.7925 C   0  0  0  0  0  0  0  0  0  0  0  0
    3.3746    0.7884    0.5480 C   0  0  0  0  0  0  0  0  0  0  0  0
    3.3553   -1.6574   -0.7937 C   0  0  0  0  0  0  0  0  0  0  0  0
    4.5145   -0.0154    0.5466 C   0  0  0  0  0  0  0  0  0  0  0  0
    4.5050   -1.2383   -0.1242 C   0  0  0  0  0  0  0  0  0  0  0  0
    6.7573   -1.5336    0.5799 C   0  0  0  0  0  0  0  0  0  0  0  0
   -3.2070   -0.1710    1.8602 H   0  0  0  0  0  0  0  0  0  0  0  0
   -4.0363   -0.0655   -0.9074 H   0  0  0  0  0  0  0  0  0  0  0  0
   -2.7304   -2.8825    1.6051 H   0  0  0  0  0  0  0  0  0  0  0  0
   -1.0753   -2.6637   -0.5817 H   0  0  0  0  0  0  0  0  0  0  0  0
   -2.8399   -3.4886   -2.0858 H   0  0  0  0  0  0  0  0  0  0  0  0
   -4.1126   -2.9665   -0.9829 H   0  0  0  0  0  0  0  0  0  0  0  0
   -5.2702   -0.5686    1.0113 H   0  0  0  0  0  0  0  0  0  0  0  0
   -0.7588   -0.8937    1.0910 H   0  0  0  0  0  0  0  0  0  0  0  0
   -4.2399    2.3863   -0.2455 H   0  0  0  0  0  0  0  0  0  0  0  0
   -3.5878   -5.1667   -0.7344 H   0  0  0  0  0  0  0  0  0  0  0  0
    1.2914    5.1288    0.1003 H   0  0  0  0  0  0  0  0  0  0  0  0
   -0.4475    5.3603    0.0503 H   0  0  0  0  0  0  0  0  0  0  0  0
    1.3388   -1.2054   -1.3317 H   0  0  0  0  0  0  0  0  0  0  0  0
    3.4112    1.7309    1.0896 H   0  0  0  0  0  0  0  0  0  0  0  0
    3.3425   -2.6083   -1.3194 H   0  0  0  0  0  0  0  0  0  0  0  0
    5.3719    0.3692    1.0884 H   0  0  0  0  0  0  0  0  0  0  0  0
    6.5550   -1.4312    1.6515 H   0  0  0  0  0  0  0  0  0  0  0  0
    7.5485   -2.2832    0.4742 H   0  0  0  0  0  0  0  0  0  0  0  0
    7.1353   -0.6054    0.1381 H   0  0  0  0  0  0  0  0  0  0  0  0
  1 12  1  0  0  0  0
  1 14  1  0  0  0  0
  2 11  1  0  0  0  0
  2 34  1  0  0  0  0
  3 13  1  0  0  0  0
  3 35  1  0  0  0  0
  4 15  1  0  0  0  0
  4 37  1  0  0  0  0
  5 26  1  0  0  0  0
  5 27  1  0  0  0  0
  6 12  1  0  0  0  0
  6 16  1  0  0  0  0
  6 17  1  0  0  0  0
  7 17  2  0  0  0  0
  7 18  1  0  0  0  0
  8 16  2  0  0  0  0
  8 20  1  0  0  0  0
  9 19  1  0  0  0  0
  9 20  2  0  0  0  0
 10 19  1  0  0  0  0
 10 38  1  0  0  0  0
 10 39  1  0  0  0  0
 11 12  1  0  0  0  0
 11 13  1  0  0  0  0
 11 28  1  0  0  0  0
 12 29  1  0  0  0  0
 13 14  1  0  0  0  0
 13 30  1  0  0  0  0
 14 15  1  0  0  0  0
 14 31  1  0  0  0  0
 15 32  1  0  0  0  0
 15 33  1  0  0  0  0
 16 18  1  0  0  0  0
 17 36  1  0  0  0  0
 18 19  2  0  0  0  0
 20 21  1  0  0  0  0
 21 22  2  0  0  0  0
 21 23  1  0  0  0  0
 22 24  1  0  0  0  0
 22 40  1  0  0  0  0
 23 25  2  0  0  0  0
 23 41  1  0  0  0  0
 24 26  2  0  0  0  0
 24 42  1  0  0  0  0
 25 26  1  0  0  0  0
 25 43  1  0  0  0  0
 27 44  1  0  0  0  0
 27 45  1  0  0  0  0
 27 46  1  0  0  0  0
M  END
> <PUBCHEM_COMPOUND_CID>
100022

> <PUBCHEM_CONFORMER_RMSD>
0.8

> <PUBCHEM_CONFORMER_DIVERSEORDER>
49
85
86
66
40
47
58
19
91
70
74
35
37
13
88
33
28
17
4
25
21
30
93
42
48
8
15
22
34
60
92
84
65
76
54
3
9
61
82
31
14
11
55
29
10
12
27
23
26
81
18
20
32
78
2
57
39
73
71
89
62
51
59
24
45
52
63
83
6
44
7
68
53
64
5
90
50
38
16
41
56
43
1
72
36
69
79
75
46
77
67
87
80

> <PUBCHEM_MMFF94_PARTIAL_CHARGES>
36
1 -0.56
10 -0.9
11 0.28
12 0.54
13 0.28
14 0.28
15 0.28
16 0.11
17 0.04
18 0.23
19 0.41
2 -0.68
20 0.62
22 -0.15
23 -0.15
24 -0.15
25 -0.15
26 0.08
27 0.28
3 -0.68
34 0.4
35 0.4
36 0.15
37 0.4
38 0.4
39 0.4
4 -0.68
40 0.15
41 0.15
42 0.15
43 0.15
5 -0.36
6 0.05
7 -0.57
8 -0.57
9 -0.62

> <PUBCHEM_EFFECTIVE_ROTOR_COUNT>
5

> <PUBCHEM_PHARMACOPHORE_FEATURES>
17
1 1 acceptor
1 10 cation
1 10 donor
1 2 acceptor
1 2 donor
1 3 acceptor
1 3 donor
1 4 acceptor
1 4 donor
1 5 acceptor
3 6 7 17 cation
3 6 8 16 cation
3 8 9 20 cation
5 1 11 12 13 14 rings
5 6 7 16 17 18 rings
6 21 22 23 24 25 26 rings
6 8 9 16 18 19 20 rings

> <PUBCHEM_HEAVY_ATOM_COUNT>
27

> <PUBCHEM_ATOM_DEF_STEREO_COUNT>
0

> <PUBCHEM_ATOM_UDEF_STEREO_COUNT>
4

> <PUBCHEM_BOND_DEF_STEREO_COUNT>
0

> <PUBCHEM_BOND_UDEF_STEREO_COUNT>
0

> <PUBCHEM_ISOTOPIC_ATOM_COUNT>
0

> <PUBCHEM_COMPONENT_COUNT>
1

> <PUBCHEM_CACTVS_TAUTO_COUNT>
3

> <PUBCHEM_CONFORMER_ID>
000186B600000031

> <PUBCHEM_MMFF94_ENERGY>
80.7728

> <PUBCHEM_FEATURE_SELFOVERLAP>
86.88

> <PUBCHEM_SHAPE_FINGERPRINT>
10319926 262 18124295135983906098
10411042 1 18338234967945809271
10483366 6 18268408197892461223
10616163 171 18337955567665110446
10675989 125 16680340393253008612
1100329 8 18336832991952750369
11014199 57 18268432523580085015
11578080 2 17345456258309288097
12035758 1 18268730324439306897
12107183 9 18269290100638788915
12422481 6 18052012206095929507
12553582 1 18339652259697502007
12788726 201 18262540120834114726
12990986 174 18410572894657448222
13140716 1 18197219367831353433
13402501 40 18199185096810617908
138480 1 15817345746344601333
13911987 19 16821362174109818309
14659021 117 18336534010789152554
14790565 3 17979081483129499041
14844126 61 18336543815930230178
14863182 85 17182782606588897621
14866123 147 18411420575568065859
15042514 8 18337394829261247856
15927050 60 17548697379616977541
16110190 28 18341902900102151608
17492 89 17979074117629546187
18927931 339 18411140195628972950
19141452 34 18271531978645438235
19930381 70 17761771067515974679
20028762 73 18201442438044991485
20775438 99 17335009876065401039
21133410 171 17472919286859386262
21133410 52 16759422269359768222
21133410 58 17836346521913461375
21403212 168 18196946478990653617
21796203 349 17903678298824818082
22122407 14 15769766953607174560
23559900 14 18339630252312158856
23728640 28 18338237046762539771
283562 15 17838329684122313505
3178227 256 18264785281367800377
3383291 50 18411413978387919043
3882209 13 17478289456542274894
4073 2 18339358540829612762
4409770 3 18263354803010435093
463206 1 18335143149659700442
5104073 3 18341607071988531072
5364581 5 18270098207383657336
56633871 153 18341902939026603739
70251023 43 18192705872446878491
9709674 26 18198905808299386678

> <PUBCHEM_SHAPE_MULTIPOLES>
501.4
10.1
5.12
0.98
16.03
1.93
0.16
-8.57
1.46
-4.57
-0.59
-0.43
-0.58
0.22

> <PUBCHEM_SHAPE_SELFOVERLAP>
1104.188

> <PUBCHEM_SHAPE_VOLUME>
267

> <PUBCHEM_COORDINATE_TYPE>
2
5
10

$$$$
