100097
  -OEChem-03292013323D

 34 34  0     1  0  0  0  0  0999 V2000
   -3.3004   -2.3444    0.8339 O   0  0  0  0  0  0  0  0  0  0  0  0
   -4.5883   -1.0336   -0.4825 O   0  0  0  0  0  0  0  0  0  0  0  0
    0.1162   -1.4072   -1.5265 O   0  0  0  0  0  0  0  0  0  0  0  0
    2.8554    0.2133    0.9125 O   0  0  0  0  0  0  0  0  0  0  0  0
   -1.0975   -0.9987    0.4110 N   0  0  0  0  0  0  0  0  0  0  0  0
   -0.7325    2.5625    1.0737 N   0  0  0  0  0  0  0  0  0  0  0  0
    2.3575   -1.8572   -0.0144 N   0  0  0  0  0  0  0  0  0  0  0  0
    0.3174    3.1431   -0.7951 N   0  0  0  0  0  0  0  0  0  0  0  0
    5.4663   -0.0564    0.1057 N   0  0  0  0  0  0  0  0  0  0  0  0
   -2.2644   -0.4176   -0.2135 C   0  0  2  0  0  0  0  0  0  0  0  0
   -2.5165    1.0073    0.2981 C   0  0  0  0  0  0  0  0  0  0  0  0
   -1.3400    1.9247    0.0576 C   0  0  0  0  0  0  0  0  0  0  0  0
   -3.4966   -1.2797    0.0197 C   0  0  0  0  0  0  0  0  0  0  0  0
    0.0035   -1.4483   -0.3033 C   0  0  0  0  0  0  0  0  0  0  0  0
    1.0637   -2.0374    0.6044 C   0  0  0  0  0  0  0  0  0  0  0  0
   -0.7063    2.2744   -1.0795 C   0  0  0  0  0  0  0  0  0  0  0  0
    0.2740    3.2960    0.5098 C   0  0  0  0  0  0  0  0  0  0  0  0
    3.1511   -0.7384    0.1931 C   0  0  0  0  0  0  0  0  0  0  0  0
    4.4374   -0.8022   -0.6047 C   0  0  0  0  0  0  0  0  0  0  0  0
   -2.1050   -0.4044   -1.2986 H   0  0  0  0  0  0  0  0  0  0  0  0
   -3.3965    1.4351   -0.1992 H   0  0  0  0  0  0  0  0  0  0  0  0
   -2.7523    0.9796    1.3707 H   0  0  0  0  0  0  0  0  0  0  0  0
   -1.1169   -1.1212    1.4195 H   0  0  0  0  0  0  0  0  0  0  0  0
    1.0575   -1.5531    1.5857 H   0  0  0  0  0  0  0  0  0  0  0  0
    0.8809   -3.1093    0.7200 H   0  0  0  0  0  0  0  0  0  0  0  0
   -0.9621    2.5174    2.0583 H   0  0  0  0  0  0  0  0  0  0  0  0
   -0.9107    1.9630   -2.0934 H   0  0  0  0  0  0  0  0  0  0  0  0
    2.6752   -2.5802   -0.6533 H   0  0  0  0  0  0  0  0  0  0  0  0
    0.9347    3.9142    1.1008 H   0  0  0  0  0  0  0  0  0  0  0  0
   -4.1206   -2.8680    0.9572 H   0  0  0  0  0  0  0  0  0  0  0  0
    4.2610   -0.3640   -1.5916 H   0  0  0  0  0  0  0  0  0  0  0  0
    4.7649   -1.8379   -0.7367 H   0  0  0  0  0  0  0  0  0  0  0  0
    5.1647    0.9076    0.2419 H   0  0  0  0  0  0  0  0  0  0  0  0
    5.6018   -0.4515    1.0353 H   0  0  0  0  0  0  0  0  0  0  0  0
  1 13  1  0  0  0  0
  1 30  1  0  0  0  0
  2 13  2  0  0  0  0
  3 14  2  0  0  0  0
  4 18  2  0  0  0  0
  5 10  1  0  0  0  0
  5 14  1  0  0  0  0
  5 23  1  0  0  0  0
  6 12  1  0  0  0  0
  6 17  1  0  0  0  0
  6 26  1  0  0  0  0
  7 15  1  0  0  0  0
  7 18  1  0  0  0  0
  7 28  1  0  0  0  0
  8 16  1  0  0  0  0
  8 17  2  0  0  0  0
  9 19  1  0  0  0  0
  9 33  1  0  0  0  0
  9 34  1  0  0  0  0
 10 11  1  0  0  0  0
 10 13  1  0  0  0  0
 10 20  1  0  0  0  0
 11 12  1  0  0  0  0
 11 21  1  0  0  0  0
 11 22  1  0  0  0  0
 12 16  2  0  0  0  0
 14 15  1  0  0  0  0
 15 24  1  0  0  0  0
 15 25  1  0  0  0  0
 16 27  1  0  0  0  0
 17 29  1  0  0  0  0
 18 19  1  0  0  0  0
 19 31  1  0  0  0  0
 19 32  1  0  0  0  0
M  END
> <PUBCHEM_COMPOUND_CID>
100097

> <PUBCHEM_CONFORMER_RMSD>
0.8

> <PUBCHEM_CONFORMER_DIVERSEORDER>
1
86
191
122
156
23
11
85
41
153
98
169
186
147
167
16
128
205
182
178
52
194
130
45
174
146
180
63
135
154
46
74
133
107
56
165
179
155
160
142
184
126
209
100
124
36
199
105
118
44
101
97
119
104
19
9
148
204
5
138
17
123
159
140
115
26
53
175
197
196
83
125
208
21
144
117
151
68
121
187
134
33
171
207
57
84
42
67
136
93
106
7
76
181
120
190
149
38
127
71
15
50
95
163
210
113
141
198
51
168
185
47
139
3
158
183
18
143
176
89
70
201
32
94
58
25
88
30
157
73
62
65
202
66
77
72
192
39
170
132
80
55
78
31
87
81
161
91
20
99
206
12
75
10
35
43
59
64
22
8
61
92
131
54
24
193
162
14
4
29
34
150
164
110
200
145
189
177
79
2
48
116
40
129
102
203
188
6
166
37
28
49
195
111
112
103
114
172
60
27
90
13
96
152
108
137
109
69
173
82

> <PUBCHEM_MMFF94_PARTIAL_CHARGES>
27
1 -0.65
10 0.36
11 0.18
12 -0.33
13 0.66
14 0.57
15 0.36
16 0.08
17 0.04
18 0.57
19 0.33
2 -0.57
23 0.37
26 0.27
27 0.15
28 0.37
29 0.15
3 -0.57
30 0.5
33 0.36
34 0.36
4 -0.57
5 -0.73
6 0.03
7 -0.73
8 -0.57
9 -0.99

> <PUBCHEM_EFFECTIVE_ROTOR_COUNT>
9

> <PUBCHEM_PHARMACOPHORE_FEATURES>
12
1 1 acceptor
1 2 acceptor
1 3 acceptor
1 4 acceptor
1 5 donor
1 6 donor
1 7 donor
1 9 cation
1 9 donor
3 1 2 13 anion
3 6 8 17 cation
5 6 8 12 16 17 rings

> <PUBCHEM_HEAVY_ATOM_COUNT>
19

> <PUBCHEM_ATOM_DEF_STEREO_COUNT>
0

> <PUBCHEM_ATOM_UDEF_STEREO_COUNT>
1

> <PUBCHEM_BOND_DEF_STEREO_COUNT>
0

> <PUBCHEM_BOND_UDEF_STEREO_COUNT>
0

> <PUBCHEM_ISOTOPIC_ATOM_COUNT>
0

> <PUBCHEM_COMPONENT_COUNT>
1

> <PUBCHEM_CACTVS_TAUTO_COUNT>
8

> <PUBCHEM_CONFORMER_ID>
0001870100000001

> <PUBCHEM_MMFF94_ENERGY>
24.2164

> <PUBCHEM_FEATURE_SELFOVERLAP>
60.958

> <PUBCHEM_SHAPE_FINGERPRINT>
10498660 4 18336825278180118804
10670039 82 18263380148498432116
10989021 7 18339360872242259377
11595378 159 18190435256976919480
11680986 33 18048315845107767099
12596602 18 17603849119378768536
14787075 74 18042409195476364570
15375462 6 18341331080846793390
167882 2 18048032166834263925
17357779 13 18341315756408158477
20510252 161 18336546006242341858
21339142 51 18335135406265656223
21524375 3 16965211791408698899
21623110 236 18411708716039270392
23402539 116 18341887502386517495
23419403 2 18117252926419945757
23557571 272 18270125612572706550
3524813 1 18059563711779068634
81228 2 18051151211013390819
9925002 15 17414137329089115487

> <PUBCHEM_SHAPE_MULTIPOLES>
342.63
7.41
3.69
0.98
6.78
3.12
-0.13
-4.27
-0.04
-1.53
0.2
-0.01
0.15
0.17

> <PUBCHEM_SHAPE_SELFOVERLAP>
696.326

> <PUBCHEM_SHAPE_VOLUME>
199.1

> <PUBCHEM_COORDINATE_TYPE>
2
5
10

$$$$
