100016
  -OEChem-03292013323D

 28 29  0     1  0  0  0  0  0999 V2000
   -1.1120   -0.4902    1.0163 O   0  0  0  0  0  0  0  0  0  0  0  0
   -0.6940    2.4146   -1.0444 O   0  0  0  0  0  0  0  0  0  0  0  0
   -2.9009    1.8496    0.4552 O   0  0  0  0  0  0  0  0  0  0  0  0
   -2.3951   -2.8655    0.2556 O   0  0  0  0  0  0  0  0  0  0  0  0
    2.1344    1.9929    0.6639 O   0  0  0  0  0  0  0  0  0  0  0  0
    1.0204    0.0190    0.2049 N   0  0  0  0  0  0  0  0  0  0  0  0
    3.4229    0.2279    0.0387 N   0  0  0  0  0  0  0  0  0  0  0  0
   -0.9791    1.0577   -0.7729 C   0  0  2  0  0  0  0  0  0  0  0  0
   -2.4375    0.8334   -0.4336 C   0  0  1  0  0  0  0  0  0  0  0  0
   -0.2830    0.5535    0.4795 C   0  0  1  0  0  0  0  0  0  0  0  0
   -2.3874   -0.4780    0.3384 C   0  0  1  0  0  0  0  0  0  0  0  0
   -2.4601   -1.7072   -0.5576 C   0  0  0  0  0  0  0  0  0  0  0  0
    1.1257   -1.3117   -0.1848 C   0  0  0  0  0  0  0  0  0  0  0  0
    2.1967    0.8111    0.3204 C   0  0  0  0  0  0  0  0  0  0  0  0
    2.2920   -1.8940   -0.4608 C   0  0  0  0  0  0  0  0  0  0  0  0
    3.4570   -1.0130   -0.3188 C   0  0  0  0  0  0  0  0  0  0  0  0
   -0.7092    0.4642   -1.6547 H   0  0  0  0  0  0  0  0  0  0  0  0
   -3.0984    0.8257   -1.3043 H   0  0  0  0  0  0  0  0  0  0  0  0
   -0.1939    1.3436    1.2345 H   0  0  0  0  0  0  0  0  0  0  0  0
   -3.1584   -0.5352    1.1152 H   0  0  0  0  0  0  0  0  0  0  0  0
   -1.6504   -1.7484   -1.2899 H   0  0  0  0  0  0  0  0  0  0  0  0
   -3.4121   -1.7226   -1.0985 H   0  0  0  0  0  0  0  0  0  0  0  0
    0.2676    2.4921   -1.1653 H   0  0  0  0  0  0  0  0  0  0  0  0
   -2.3935    1.8027    1.2826 H   0  0  0  0  0  0  0  0  0  0  0  0
    0.2274   -1.9031   -0.2651 H   0  0  0  0  0  0  0  0  0  0  0  0
   -2.4568   -3.6349   -0.3358 H   0  0  0  0  0  0  0  0  0  0  0  0
    2.4051   -2.9243   -0.7638 H   0  0  0  0  0  0  0  0  0  0  0  0
    4.4302   -1.4783   -0.5431 H   0  0  0  0  0  0  0  0  0  0  0  0
  1 10  1  0  0  0  0
  1 11  1  0  0  0  0
  2  8  1  0  0  0  0
  2 23  1  0  0  0  0
  3  9  1  0  0  0  0
  3 24  1  0  0  0  0
  4 12  1  0  0  0  0
  4 26  1  0  0  0  0
  5 14  2  0  0  0  0
  6 10  1  0  0  0  0
  6 13  1  0  0  0  0
  6 14  1  0  0  0  0
  7 14  1  0  0  0  0
  7 16  2  0  0  0  0
  8  9  1  0  0  0  0
  8 10  1  0  0  0  0
  8 17  1  0  0  0  0
  9 11  1  0  0  0  0
  9 18  1  0  0  0  0
 10 19  1  0  0  0  0
 11 12  1  0  0  0  0
 11 20  1  0  0  0  0
 12 21  1  0  0  0  0
 12 22  1  0  0  0  0
 13 15  2  0  0  0  0
 13 25  1  0  0  0  0
 15 16  1  0  0  0  0
 15 27  1  0  0  0  0
 16 28  1  0  0  0  0
M  END
> <PUBCHEM_COMPOUND_CID>
100016

> <PUBCHEM_CONFORMER_RMSD>
0.6

> <PUBCHEM_CONFORMER_DIVERSEORDER>
1
10
8
9
12
13
4
3
14
6
7
5
11
2

> <PUBCHEM_MMFF94_PARTIAL_CHARGES>
22
1 -0.56
10 0.58
11 0.28
12 0.28
13 -0.04
14 0.84
15 -0.14
16 0.38
2 -0.68
23 0.4
24 0.4
25 0.15
26 0.4
27 0.15
28 0.06
3 -0.68
4 -0.68
5 -0.57
6 -0.47
7 -0.66
8 0.28
9 0.28

> <PUBCHEM_EFFECTIVE_ROTOR_COUNT>
3

> <PUBCHEM_PHARMACOPHORE_FEATURES>
12
1 1 acceptor
1 2 acceptor
1 2 donor
1 3 acceptor
1 3 donor
1 4 acceptor
1 4 donor
1 5 acceptor
1 7 acceptor
1 7 donor
5 1 8 9 10 11 rings
6 6 7 13 14 15 16 rings

> <PUBCHEM_HEAVY_ATOM_COUNT>
16

> <PUBCHEM_ATOM_DEF_STEREO_COUNT>
4

> <PUBCHEM_ATOM_UDEF_STEREO_COUNT>
0

> <PUBCHEM_BOND_DEF_STEREO_COUNT>
0

> <PUBCHEM_BOND_UDEF_STEREO_COUNT>
0

> <PUBCHEM_ISOTOPIC_ATOM_COUNT>
0

> <PUBCHEM_COMPONENT_COUNT>
1

> <PUBCHEM_CACTVS_TAUTO_COUNT>
1

> <PUBCHEM_CONFORMER_ID>
000186B000000001

> <PUBCHEM_MMFF94_ENERGY>
46.7451

> <PUBCHEM_FEATURE_SELFOVERLAP>
60.974

> <PUBCHEM_SHAPE_FINGERPRINT>
10608611 8 18412258424291649544
10967382 1 18195809565837753094
12138202 97 18115012001141472807
12500047 106 18338514140629950429
12524768 44 18334572413045855837
12932764 1 17968373446864992914
13380535 21 18340214011333935380
15219456 202 18411980252123469664
15375462 6 18267301113456359902
15775835 57 18190467068918978370
16945 1 18264476296011689224
17844478 74 18042421135421968713
19868273 325 18261110798361879757
20201158 50 18340204073006563174
21501502 16 18410009935923811378
221490 88 18340775935365673070
22721475 48 18412830170295674134
22802520 49 18409729543067830305
2334 1 18337952419047692658
23388829 49 17978510067973657813
23402539 116 17676202460110710574
2748010 2 18338512053238830334
2871803 45 18338508763431635887
45790113 53 17903639579478534883
6333449 129 18335980878945866037
69090 78 18339077078146700261
74978 22 18342458097433868912
81228 2 18259984911761893217
8809292 202 18338239258670963410
93112 12 18413106134723725580
9709674 26 18343584031753762751

> <PUBCHEM_SHAPE_MULTIPOLES>
289.96
5.28
2.54
0.85
2
0.49
0.04
0.88
0.08
-1.05
0.2
-0.18
-0.15
0.51

> <PUBCHEM_SHAPE_SELFOVERLAP>
610.868

> <PUBCHEM_SHAPE_VOLUME>
162.5

> <PUBCHEM_COORDINATE_TYPE>
2
5
10

$$$$
