10018390
  -OEChem-03292013303D

 35 37  0     0  0  0  0  0  0999 V2000
    1.3931    1.4155    0.9614 O   0  0  0  0  0  0  0  0  0  0  0  0
    0.9142    3.7003   -0.4097 O   0  0  0  0  0  0  0  0  0  0  0  0
    4.4641   -2.8570   -0.7112 O   0  0  0  0  0  0  0  0  0  0  0  0
    5.3154   -0.2424   -1.1111 O   0  0  0  0  0  0  0  0  0  0  0  0
   -4.9213   -2.6584   -1.3921 O   0  0  0  0  0  0  0  0  0  0  0  0
   -5.5992   -1.6499    0.5387 O   0  0  0  0  0  0  0  0  0  0  0  0
   -0.9008    0.6625    0.6102 C   0  0  0  0  0  0  0  0  0  0  0  0
    0.1369    1.5865    0.4252 C   0  0  0  0  0  0  0  0  0  0  0  0
    1.6438   -1.0000    0.7271 C   0  0  0  0  0  0  0  0  0  0  0  0
    2.0859    0.3130    0.5145 C   0  0  0  0  0  0  0  0  0  0  0  0
   -2.1701    0.9719    0.0985 C   0  0  0  0  0  0  0  0  0  0  0  0
   -0.7346   -0.5868    1.3619 C   0  0  0  0  0  0  0  0  0  0  0  0
    0.3868   -1.3193    1.4135 C   0  0  0  0  0  0  0  0  0  0  0  0
   -0.0892    2.7922   -0.2479 C   0  0  0  0  0  0  0  0  0  0  0  0
   -2.3912    2.1664   -0.5912 C   0  0  0  0  0  0  0  0  0  0  0  0
    2.4667   -2.0577    0.3112 C   0  0  0  0  0  0  0  0  0  0  0  0
    3.3218    0.5633   -0.0921 C   0  0  0  0  0  0  0  0  0  0  0  0
   -1.3512    3.0759   -0.7640 C   0  0  0  0  0  0  0  0  0  0  0  0
    3.6914   -1.8081   -0.3125 C   0  0  0  0  0  0  0  0  0  0  0  0
    4.1185   -0.4982   -0.5139 C   0  0  0  0  0  0  0  0  0  0  0  0
   -3.3207    0.0787    0.2241 C   0  0  0  0  0  0  0  0  0  0  0  0
   -3.6366   -0.9027   -0.6431 C   0  0  0  0  0  0  0  0  0  0  0  0
   -4.8238   -1.7457   -0.3974 C   0  0  0  0  0  0  0  0  0  0  0  0
   -1.5934   -0.9507    1.9205 H   0  0  0  0  0  0  0  0  0  0  0  0
    0.3751   -2.2424    1.9884 H   0  0  0  0  0  0  0  0  0  0  0  0
   -3.3712    2.4073   -0.9972 H   0  0  0  0  0  0  0  0  0  0  0  0
    2.1490   -3.0865    0.4729 H   0  0  0  0  0  0  0  0  0  0  0  0
    3.6617    1.5866   -0.2333 H   0  0  0  0  0  0  0  0  0  0  0  0
   -1.5399    4.0044   -1.2960 H   0  0  0  0  0  0  0  0  0  0  0  0
   -3.9370    0.2614    1.1015 H   0  0  0  0  0  0  0  0  0  0  0  0
    0.5718    4.4686   -0.8979 H   0  0  0  0  0  0  0  0  0  0  0  0
   -3.0318   -1.0973   -1.5227 H   0  0  0  0  0  0  0  0  0  0  0  0
    4.0105   -3.6883   -0.4896 H   0  0  0  0  0  0  0  0  0  0  0  0
    5.7335   -1.0921   -1.3348 H   0  0  0  0  0  0  0  0  0  0  0  0
   -5.6981   -3.2464   -1.2763 H   0  0  0  0  0  0  0  0  0  0  0  0
  1  8  1  0  0  0  0
  1 10  1  0  0  0  0
  2 14  1  0  0  0  0
  2 31  1  0  0  0  0
  3 19  1  0  0  0  0
  3 33  1  0  0  0  0
  4 20  1  0  0  0  0
  4 34  1  0  0  0  0
  5 23  1  0  0  0  0
  5 35  1  0  0  0  0
  6 23  2  0  0  0  0
  7  8  1  0  0  0  0
  7 11  2  0  0  0  0
  7 12  1  0  0  0  0
  8 14  2  0  0  0  0
  9 10  1  0  0  0  0
  9 13  1  0  0  0  0
  9 16  2  0  0  0  0
 10 17  2  0  0  0  0
 11 15  1  0  0  0  0
 11 21  1  0  0  0  0
 12 13  2  0  0  0  0
 12 24  1  0  0  0  0
 13 25  1  0  0  0  0
 14 18  1  0  0  0  0
 15 18  2  0  0  0  0
 15 26  1  0  0  0  0
 16 19  1  0  0  0  0
 16 27  1  0  0  0  0
 17 20  1  0  0  0  0
 17 28  1  0  0  0  0
 18 29  1  0  0  0  0
 19 20  2  0  0  0  0
 21 22  2  0  0  0  0
 21 30  1  0  0  0  0
 22 23  1  0  0  0  0
 22 32  1  0  0  0  0
M  END
> <PUBCHEM_COMPOUND_CID>
10018390

> <PUBCHEM_CONFORMER_RMSD>
0.6

> <PUBCHEM_CONFORMER_DIVERSEORDER>
1
3
2
4

> <PUBCHEM_MMFF94_PARTIAL_CHARGES>
35
1 -0.17
10 0.08
11 0.03
12 -0.18
13 -0.18
14 0.08
15 -0.15
16 -0.15
17 -0.15
18 -0.15
19 0.08
2 -0.53
20 0.08
21 -0.18
22 -0.14
23 0.71
24 0.15
25 0.15
26 0.15
27 0.15
28 0.15
29 0.15
3 -0.53
30 0.15
31 0.45
32 0.15
33 0.45
34 0.45
35 0.5
4 -0.53
5 -0.65
6 -0.57
7 0.03
8 0.08
9 0.03

> <PUBCHEM_EFFECTIVE_ROTOR_COUNT>
2.2

> <PUBCHEM_PHARMACOPHORE_FEATURES>
10
1 1 acceptor
1 2 donor
1 3 donor
1 4 donor
1 5 acceptor
1 6 acceptor
3 5 6 23 anion
6 7 8 11 14 15 18 rings
6 9 10 16 17 19 20 rings
7 1 7 8 9 10 12 13 rings

> <PUBCHEM_HEAVY_ATOM_COUNT>
23

> <PUBCHEM_ATOM_DEF_STEREO_COUNT>
0

> <PUBCHEM_ATOM_UDEF_STEREO_COUNT>
0

> <PUBCHEM_BOND_DEF_STEREO_COUNT>
1

> <PUBCHEM_BOND_UDEF_STEREO_COUNT>
0

> <PUBCHEM_ISOTOPIC_ATOM_COUNT>
0

> <PUBCHEM_COMPONENT_COUNT>
1

> <PUBCHEM_CACTVS_TAUTO_COUNT>
54

> <PUBCHEM_CONFORMER_ID>
0098DE5600000001

> <PUBCHEM_MMFF94_ENERGY>
83.0308

> <PUBCHEM_FEATURE_SELFOVERLAP>
50.829

> <PUBCHEM_SHAPE_FINGERPRINT>
10042902 136 17774154755437028447
11135609 187 18119818155382752253
12403259 327 15482386577538311855
12403260 363 18187082798705375458
12553582 1 18335973229984041747
12633257 1 14836118914245055511
12670546 177 18337957766609024070
13009979 54 17987528164220045899
14576447 43 18412542136920038538
14767858 380 18189347908374921652
14790565 3 17617659860907074329
17349148 13 17677609770659666042
17357779 13 18186525431703030457
17492 54 17823429368988252356
17492 89 18266178319017535966
19141452 34 18271529685269967849
20388580 30 18341610486070532869
20645477 70 17973989937639624623
20775438 99 17907280406065754231
20871999 31 18261671485210433829
21033648 29 12036027827722804886
22182313 1 18267276846923312137
22393880 68 18116992191819298654
22950370 63 18412549812348219955
23379529 103 18129104416143050046
23402539 116 18187927223303171856
23559900 14 17907007388707168362
2838139 119 13767920256246318367
2871803 45 18334005103832452523
4280585 95 18336812186830118011
46194498 28 17605265384475300871
463206 1 18267586986416921271
6669772 16 17835248122539036372
7970288 3 18341607153140053671
9709674 26 18262530186896700850

> <PUBCHEM_SHAPE_MULTIPOLES>
438.11
9.63
3.64
1.1
2.25
1.95
-0.08
-9.32
3.73
1.33
1
0.06
-0.34
-0.08

> <PUBCHEM_SHAPE_SELFOVERLAP>
973.326

> <PUBCHEM_SHAPE_VOLUME>
231.9

> <PUBCHEM_COORDINATE_TYPE>
2
5
10

$$$$
