10015554
  -OEChem-03292013303D

 33 34  0     1  0  0  0  0  0999 V2000
   -1.0910   -1.4695    1.8782 O   0  0  0  0  0  0  0  0  0  0  0  0
   -1.6963   -2.4165   -0.0911 O   0  0  0  0  0  0  0  0  0  0  0  0
   -5.7431    0.9669    0.9174 O   0  0  0  0  0  0  0  0  0  0  0  0
   -4.9459    1.1658   -1.2010 O   0  0  0  0  0  0  0  0  0  0  0  0
   -2.4717    0.3975   -0.5365 N   0  0  0  0  0  0  0  0  0  0  0  0
    2.9999   -1.7286   -0.3109 N   0  0  0  0  0  0  0  0  0  0  0  0
   -0.1276   -0.0569   -1.1808 C   0  0  0  0  0  0  0  0  0  0  0  0
    1.2283   -0.4713   -0.7669 C   0  0  0  0  0  0  0  0  0  0  0  0
   -1.1653   -0.0363   -0.0345 C   0  0  2  0  0  0  0  0  0  0  0  0
    2.2720    0.3802   -0.3081 C   0  0  0  0  0  0  0  0  0  0  0  0
    3.3721   -0.4335   -0.0289 C   0  0  0  0  0  0  0  0  0  0  0  0
    1.7061   -1.7615   -0.7577 C   0  0  0  0  0  0  0  0  0  0  0  0
    2.3867    1.7695   -0.1028 C   0  0  0  0  0  0  0  0  0  0  0  0
   -1.3604   -1.4266    0.5470 C   0  0  0  0  0  0  0  0  0  0  0  0
    4.5859    0.0747    0.4472 C   0  0  0  0  0  0  0  0  0  0  0  0
   -3.4505    0.4237    0.5378 C   0  0  0  0  0  0  0  0  0  0  0  0
    3.5948    2.2920    0.3730 C   0  0  0  0  0  0  0  0  0  0  0  0
    4.6762    1.4557    0.6431 C   0  0  0  0  0  0  0  0  0  0  0  0
   -4.7702    0.8749   -0.0245 C   0  0  0  0  0  0  0  0  0  0  0  0
   -0.4748   -0.7297   -1.9780 H   0  0  0  0  0  0  0  0  0  0  0  0
   -0.0781    0.9400   -1.6389 H   0  0  0  0  0  0  0  0  0  0  0  0
   -0.8161    0.6454    0.7521 H   0  0  0  0  0  0  0  0  0  0  0  0
    1.2448   -2.7009   -1.0292 H   0  0  0  0  0  0  0  0  0  0  0  0
   -2.3814    1.3286   -0.9432 H   0  0  0  0  0  0  0  0  0  0  0  0
    3.5962   -2.5376   -0.2037 H   0  0  0  0  0  0  0  0  0  0  0  0
    1.5531    2.4356   -0.3067 H   0  0  0  0  0  0  0  0  0  0  0  0
    5.4283   -0.5756    0.6579 H   0  0  0  0  0  0  0  0  0  0  0  0
   -3.1533    1.1301    1.3205 H   0  0  0  0  0  0  0  0  0  0  0  0
   -3.6286   -0.5655    0.9709 H   0  0  0  0  0  0  0  0  0  0  0  0
    3.6888    3.3627    0.5337 H   0  0  0  0  0  0  0  0  0  0  0  0
    5.6053    1.8827    1.0121 H   0  0  0  0  0  0  0  0  0  0  0  0
   -1.2063   -2.3719    2.2451 H   0  0  0  0  0  0  0  0  0  0  0  0
   -6.5916    1.2799    0.5376 H   0  0  0  0  0  0  0  0  0  0  0  0
  1 14  1  0  0  0  0
  1 32  1  0  0  0  0
  2 14  2  0  0  0  0
  3 19  1  0  0  0  0
  3 33  1  0  0  0  0
  4 19  2  0  0  0  0
  5  9  1  0  0  0  0
  5 16  1  0  0  0  0
  5 24  1  0  0  0  0
  6 11  1  0  0  0  0
  6 12  1  0  0  0  0
  6 25  1  0  0  0  0
  7  8  1  0  0  0  0
  7  9  1  0  0  0  0
  7 20  1  0  0  0  0
  7 21  1  0  0  0  0
  8 10  1  0  0  0  0
  8 12  2  0  0  0  0
  9 14  1  0  0  0  0
  9 22  1  0  0  0  0
 10 11  1  0  0  0  0
 10 13  2  0  0  0  0
 11 15  2  0  0  0  0
 12 23  1  0  0  0  0
 13 17  1  0  0  0  0
 13 26  1  0  0  0  0
 15 18  1  0  0  0  0
 15 27  1  0  0  0  0
 16 19  1  0  0  0  0
 16 28  1  0  0  0  0
 16 29  1  0  0  0  0
 17 18  2  0  0  0  0
 17 30  1  0  0  0  0
 18 31  1  0  0  0  0
M  END
> <PUBCHEM_COMPOUND_CID>
10015554

> <PUBCHEM_CONFORMER_RMSD>
0.8

> <PUBCHEM_CONFORMER_DIVERSEORDER>
1
31
26
8
4
20
29
38
10
12
43
15
11
32
14
2
28
17
23
13
6
3
48
25
18
21
19
16
39
42
5
45
36
27
41
44
35
30
47
9
46
34
37
49
22
7
40
33
24

> <PUBCHEM_MMFF94_PARTIAL_CHARGES>
27
1 -0.65
11 -0.15
12 -0.3
13 -0.15
14 0.66
15 -0.15
16 0.33
17 -0.15
18 -0.15
19 0.66
2 -0.57
23 0.15
24 0.36
25 0.27
26 0.15
27 0.15
3 -0.65
30 0.15
31 0.15
32 0.5
33 0.5
4 -0.57
5 -0.9
6 0.03
7 0.18
8 -0.18
9 0.33

> <PUBCHEM_EFFECTIVE_ROTOR_COUNT>
6

> <PUBCHEM_PHARMACOPHORE_FEATURES>
12
1 1 acceptor
1 2 acceptor
1 3 acceptor
1 4 acceptor
1 5 cation
1 5 donor
1 6 cation
1 6 donor
3 1 2 14 anion
3 3 4 19 anion
5 6 8 10 11 12 rings
6 10 11 13 15 17 18 rings

> <PUBCHEM_HEAVY_ATOM_COUNT>
19

> <PUBCHEM_ATOM_DEF_STEREO_COUNT>
1

> <PUBCHEM_ATOM_UDEF_STEREO_COUNT>
0

> <PUBCHEM_BOND_DEF_STEREO_COUNT>
0

> <PUBCHEM_BOND_UDEF_STEREO_COUNT>
0

> <PUBCHEM_ISOTOPIC_ATOM_COUNT>
0

> <PUBCHEM_COMPONENT_COUNT>
1

> <PUBCHEM_CACTVS_TAUTO_COUNT>
1

> <PUBCHEM_CONFORMER_ID>
0098D34200000001

> <PUBCHEM_MMFF94_ENERGY>
28.3578

> <PUBCHEM_FEATURE_SELFOVERLAP>
61.104

> <PUBCHEM_SHAPE_FINGERPRINT>
10498660 4 13901922067539338890
11089746 13 17561077025683238800
12236239 1 17060333011643769164
12251169 10 18261109690587339012
12403259 118 18122052363674440352
12403259 415 18187930521843681213
12507560 40 18338242668743023682
12596602 18 15068629292054069933
12633257 1 17968361442774584560
13675066 3 17967821535272973247
14178342 30 17459475618067328042
14576447 43 8142095273309253600
15375358 24 18410856572672404028
17980427 23 17897163731042902404
18186145 218 18339932511083254375
20157964 124 18343299232941350149
20645477 56 18333448746558813749
20832881 197 17974009440216223410
20871999 31 12391525186536505107
21033648 29 18041547075455241741
21618674 25 18411980269261166770
21713013 43 10447387418269504272
22956985 138 15069729783213322307
23402539 116 18410565193796605717
23559900 14 18272090470354403350
2838139 119 18059849567195841433
2916195 48 18408882932622181193
335352 9 18341612603879852326
351380 180 18410854335189946437
3545911 37 18412830195954688684
4047638 21 18411984641585236370
4325135 7 18131347553608286783
465052 167 12107797293574089081
474 4 18342455945655415825
495365 180 18272645749332313970
5104073 3 18408882970670148162
633830 44 18059020458767193005
69090 78 18410009927545191871
8272917 22 18131073693023224390
83771 10 10737282450324610279

> <PUBCHEM_SHAPE_MULTIPOLES>
357.57
10.66
2.13
1.07
9.07
0.3
0.15
-6.3
1.43
-0.98
0.14
0.56
0.16
0.74

> <PUBCHEM_SHAPE_SELFOVERLAP>
762.375

> <PUBCHEM_SHAPE_VOLUME>
198.5

> <PUBCHEM_COORDINATE_TYPE>
2
5
10

$$$$
