10015450
  -OEChem-03292013303D

 27 29  0     0  0  0  0  0  0999 V2000
    0.0000   -1.0535    0.0005 O   0  0  0  0  0  0  0  0  0  0  0  0
    0.0001    3.0384   -0.0006 O   0  0  0  0  0  0  0  0  0  0  0  0
   -2.2980   -2.4655    0.0002 O   0  0  0  0  0  0  0  0  0  0  0  0
    2.2981   -2.4655   -0.0001 O   0  0  0  0  0  0  0  0  0  0  0  0
   -4.7483   -1.1861   -0.0008 O   0  0  0  0  0  0  0  0  0  0  0  0
    4.7483   -1.1859   -0.0007 O   0  0  0  0  0  0  0  0  0  0  0  0
   -1.2516    1.0435    0.0003 C   0  0  0  0  0  0  0  0  0  0  0  0
    1.2516    1.0434    0.0002 C   0  0  0  0  0  0  0  0  0  0  0  0
   -1.1788   -0.3492    0.0002 C   0  0  0  0  0  0  0  0  0  0  0  0
    1.1787   -0.3493    0.0002 C   0  0  0  0  0  0  0  0  0  0  0  0
    0.0000    1.8162    0.0005 C   0  0  0  0  0  0  0  0  0  0  0  0
   -2.3545   -1.1025    0.0002 C   0  0  0  0  0  0  0  0  0  0  0  0
    2.3544   -1.1026    0.0002 C   0  0  0  0  0  0  0  0  0  0  0  0
   -2.4904    1.6897    0.0001 C   0  0  0  0  0  0  0  0  0  0  0  0
    2.4905    1.6896    0.0000 C   0  0  0  0  0  0  0  0  0  0  0  0
   -3.5941   -0.4618   -0.0001 C   0  0  0  0  0  0  0  0  0  0  0  0
    3.5940   -0.4619    0.0000 C   0  0  0  0  0  0  0  0  0  0  0  0
   -3.6615    0.9316   -0.0001 C   0  0  0  0  0  0  0  0  0  0  0  0
    3.6615    0.9315   -0.0001 C   0  0  0  0  0  0  0  0  0  0  0  0
   -2.5624    2.7735    0.0000 H   0  0  0  0  0  0  0  0  0  0  0  0
    2.5624    2.7735   -0.0001 H   0  0  0  0  0  0  0  0  0  0  0  0
   -4.6218    1.4407   -0.0004 H   0  0  0  0  0  0  0  0  0  0  0  0
    4.6218    1.4407   -0.0003 H   0  0  0  0  0  0  0  0  0  0  0  0
   -3.2076   -2.8110    0.0001 H   0  0  0  0  0  0  0  0  0  0  0  0
    1.3627   -2.7335   -0.0002 H   0  0  0  0  0  0  0  0  0  0  0  0
   -5.5056   -0.5758   -0.0011 H   0  0  0  0  0  0  0  0  0  0  0  0
    5.5055   -0.5755   -0.0008 H   0  0  0  0  0  0  0  0  0  0  0  0
  1  9  1  0  0  0  0
  1 10  1  0  0  0  0
  2 11  2  0  0  0  0
  3 12  1  0  0  0  0
  3 24  1  0  0  0  0
  4 13  1  0  0  0  0
  4 25  1  0  0  0  0
  5 16  1  0  0  0  0
  5 26  1  0  0  0  0
  6 17  1  0  0  0  0
  6 27  1  0  0  0  0
  7  9  2  0  0  0  0
  7 11  1  0  0  0  0
  7 14  1  0  0  0  0
  8 10  2  0  0  0  0
  8 11  1  0  0  0  0
  8 15  1  0  0  0  0
  9 12  1  0  0  0  0
 10 13  1  0  0  0  0
 12 16  2  0  0  0  0
 13 17  2  0  0  0  0
 14 18  2  0  0  0  0
 14 20  1  0  0  0  0
 15 19  2  0  0  0  0
 15 21  1  0  0  0  0
 16 18  1  0  0  0  0
 17 19  1  0  0  0  0
 18 22  1  0  0  0  0
 19 23  1  0  0  0  0
M  END
> <PUBCHEM_COMPOUND_CID>
10015450

> <PUBCHEM_CONFORMER_RMSD>
0.4

> <PUBCHEM_CONFORMER_DIVERSEORDER>
1

> <PUBCHEM_MMFF94_PARTIAL_CHARGES>
27
1 -0.17
10 0.08
11 0.4
12 0.08
13 0.08
14 -0.15
15 -0.15
16 0.08
17 0.08
18 -0.15
19 -0.15
2 -0.57
20 0.15
21 0.15
22 0.15
23 0.15
24 0.45
25 0.45
26 0.45
27 0.45
3 -0.53
4 -0.53
5 -0.53
6 -0.53
7 0.09
8 0.09
9 0.08

> <PUBCHEM_EFFECTIVE_ROTOR_COUNT>
0

> <PUBCHEM_PHARMACOPHORE_FEATURES>
9
1 1 acceptor
1 2 acceptor
1 3 donor
1 4 donor
1 5 donor
1 6 donor
6 1 7 8 9 10 11 rings
6 7 9 12 14 16 18 rings
6 8 10 13 15 17 19 rings

> <PUBCHEM_HEAVY_ATOM_COUNT>
19

> <PUBCHEM_ATOM_DEF_STEREO_COUNT>
0

> <PUBCHEM_ATOM_UDEF_STEREO_COUNT>
0

> <PUBCHEM_BOND_DEF_STEREO_COUNT>
0

> <PUBCHEM_BOND_UDEF_STEREO_COUNT>
0

> <PUBCHEM_ISOTOPIC_ATOM_COUNT>
0

> <PUBCHEM_COMPONENT_COUNT>
1

> <PUBCHEM_CACTVS_TAUTO_COUNT>
100

> <PUBCHEM_CONFORMER_ID>
0098D2DA00000001

> <PUBCHEM_MMFF94_ENERGY>
55.0602

> <PUBCHEM_FEATURE_SELFOVERLAP>
45.738

> <PUBCHEM_SHAPE_FINGERPRINT>
10608611 8 18410570690911924864
10616163 171 18412266150769172454
10967382 1 18410855498782886951
11132069 177 18410004451229709432
11471102 20 18410289250426548684
11806522 49 18337389447830360045
12032990 46 18410857663446553537
12553582 1 18410846668335738927
13140716 1 18411699902570661080
13288520 33 18340489967726115670
13583140 156 14261059927391882383
138480 1 14951809046187995169
14115302 16 17822299040848535175
14144814 61 18411138030558922889
15196674 1 18410573985151710981
15442244 35 18194683666120743226
15536298 74 18342457062663417440
16945 1 18410575084663429700
17804303 29 18413673499851071917
1813 80 17458345221814509876
18186145 218 17748821916863501517
19591789 44 18410575088958494435
200 152 18202560678906520827
20510252 161 18199467653966489801
20645477 70 18412825789281573302
21029758 11 18341887502955963001
21267235 1 18410865355733175555
21421861 104 17898005733669676994
21501502 16 18410858754378861192
221490 88 18191311674279915474
2334 1 18410575119038667524
23402539 116 18271517620390036535
23463225 33 18410012139131485372
23557571 272 18200883893973375486
23559900 14 18412538795957637336
2748010 2 18411698794163104420
2871803 45 18334852826965132391
335352 9 18266741285680672309
34934 24 18410847763546780354
4214541 1 18410575058977742625
5104073 3 18411700984575301208
69090 78 18412822491184318735
7364860 26 18268991075449994016
8809292 202 18333735740405203290
9709674 26 18411986844729977174

> <PUBCHEM_SHAPE_MULTIPOLES>
355.8
7.63
2.55
0.59
0
0.26
0
-2.48
0
0
0
0
0.03
0

> <PUBCHEM_SHAPE_SELFOVERLAP>
808.782

> <PUBCHEM_SHAPE_VOLUME>
184.6

> <PUBCHEM_COORDINATE_TYPE>
2
5
10

$$$$
