100111
  -OEChem-03292013323D

 53 55  0     1  0  0  0  0  0999 V2000
    3.8680   -0.4880   -0.9515 S   0  0  0  0  0  0  0  0  0  0  0  0
   -0.6246    0.5177    1.0884 O   0  0  0  0  0  0  0  0  0  0  0  0
    0.9601    1.1529    2.6246 O   0  0  0  0  0  0  0  0  0  0  0  0
    2.0547    2.7348   -1.6559 O   0  0  0  0  0  0  0  0  0  0  0  0
    4.1127    3.2615   -0.8636 O   0  0  0  0  0  0  0  0  0  0  0  0
    1.3904    1.2160    0.3457 N   0  0  0  0  0  0  0  0  0  0  0  0
   -2.8382   -0.2648    1.5298 C   0  0  0  0  0  0  0  0  0  0  0  0
   -3.4162    0.7042    0.5082 C   0  0  0  0  0  0  0  0  0  0  0  0
   -2.6541   -1.5203    0.6894 C   0  0  0  0  0  0  0  0  0  0  0  0
   -3.5567    0.0707   -0.7472 C   0  0  0  0  0  0  0  0  0  0  0  0
   -3.0891   -1.2942   -0.6361 C   0  0  0  0  0  0  0  0  0  0  0  0
   -1.5325    0.2320    2.1375 C   0  0  0  0  0  0  0  0  0  0  0  0
   -3.7968    2.0233    0.6943 C   0  0  0  0  0  0  0  0  0  0  0  0
   -2.1602   -2.7534    1.0834 C   0  0  0  0  0  0  0  0  0  0  0  0
   -4.0732    0.7611   -1.8317 C   0  0  0  0  0  0  0  0  0  0  0  0
   -3.0227   -2.3043   -1.5820 C   0  0  0  0  0  0  0  0  0  0  0  0
    5.1366   -1.6292   -0.3590 C   0  0  0  0  0  0  0  0  0  0  0  0
   -4.3169    2.7186   -0.3988 C   0  0  0  0  0  0  0  0  0  0  0  0
   -2.0934   -3.7708    0.1299 C   0  0  0  0  0  0  0  0  0  0  0  0
   -4.4531    2.0940   -1.6497 C   0  0  0  0  0  0  0  0  0  0  0  0
   -2.5196   -3.5482   -1.1901 C   0  0  0  0  0  0  0  0  0  0  0  0
    2.7473    1.7089    0.4032 C   0  0  1  0  0  0  0  0  0  0  0  0
    3.7647    0.5722    0.5286 C   0  0  0  0  0  0  0  0  0  0  0  0
    6.4065   -0.8326   -0.0471 C   0  0  0  0  0  0  0  0  0  0  0  0
    5.4116   -2.6585   -1.4590 C   0  0  0  0  0  0  0  0  0  0  0  0
    4.6196   -2.3255    0.9031 C   0  0  0  0  0  0  0  0  0  0  0  0
    0.6137    0.9805    1.4606 C   0  0  0  0  0  0  0  0  0  0  0  0
    3.0617    2.6414   -0.7549 C   0  0  0  0  0  0  0  0  0  0  0  0
   -3.5878   -0.4615    2.3055 H   0  0  0  0  0  0  0  0  0  0  0  0
   -1.1031   -0.5289    2.8003 H   0  0  0  0  0  0  0  0  0  0  0  0
   -1.7110    1.1435    2.7209 H   0  0  0  0  0  0  0  0  0  0  0  0
   -3.6975    2.5080    1.6592 H   0  0  0  0  0  0  0  0  0  0  0  0
   -1.8342   -2.9311    2.1022 H   0  0  0  0  0  0  0  0  0  0  0  0
   -4.1864    0.2919   -2.8033 H   0  0  0  0  0  0  0  0  0  0  0  0
   -3.3499   -2.1484   -2.6046 H   0  0  0  0  0  0  0  0  0  0  0  0
   -4.6220    3.7552   -0.2819 H   0  0  0  0  0  0  0  0  0  0  0  0
   -1.7087   -4.7476    0.4106 H   0  0  0  0  0  0  0  0  0  0  0  0
   -4.8610    2.6556   -2.4862 H   0  0  0  0  0  0  0  0  0  0  0  0
   -2.4584   -4.3557   -1.9151 H   0  0  0  0  0  0  0  0  0  0  0  0
    2.8140    2.3306    1.3060 H   0  0  0  0  0  0  0  0  0  0  0  0
    4.7365    1.0361    0.7110 H   0  0  0  0  0  0  0  0  0  0  0  0
    3.4853   -0.0220    1.4011 H   0  0  0  0  0  0  0  0  0  0  0  0
    6.3417   -0.2444    0.8729 H   0  0  0  0  0  0  0  0  0  0  0  0
    7.2470   -1.5209    0.1108 H   0  0  0  0  0  0  0  0  0  0  0  0
    6.6963   -0.1703   -0.8712 H   0  0  0  0  0  0  0  0  0  0  0  0
    5.7757   -2.1840   -2.3782 H   0  0  0  0  0  0  0  0  0  0  0  0
    4.5145   -3.2382   -1.7071 H   0  0  0  0  0  0  0  0  0  0  0  0
    6.1790   -3.3739   -1.1404 H   0  0  0  0  0  0  0  0  0  0  0  0
    4.6230   -1.6866    1.7909 H   0  0  0  0  0  0  0  0  0  0  0  0
    5.2740   -3.1700    1.1553 H   0  0  0  0  0  0  0  0  0  0  0  0
    3.6136   -2.7400    0.7687 H   0  0  0  0  0  0  0  0  0  0  0  0
    0.9863    1.0169   -0.5647 H   0  0  0  0  0  0  0  0  0  0  0  0
    2.2754    3.3460   -2.3907 H   0  0  0  0  0  0  0  0  0  0  0  0
  1 17  1  0  0  0  0
  1 23  1  0  0  0  0
  2 12  1  0  0  0  0
  2 27  1  0  0  0  0
  3 27  2  0  0  0  0
  4 28  1  0  0  0  0
  4 53  1  0  0  0  0
  5 28  2  0  0  0  0
  6 22  1  0  0  0  0
  6 27  1  0  0  0  0
  6 52  1  0  0  0  0
  7  8  1  0  0  0  0
  7  9  1  0  0  0  0
  7 12  1  0  0  0  0
  7 29  1  0  0  0  0
  8 10  1  0  0  0  0
  8 13  2  0  0  0  0
  9 11  1  0  0  0  0
  9 14  2  0  0  0  0
 10 11  1  0  0  0  0
 10 15  2  0  0  0  0
 11 16  2  0  0  0  0
 12 30  1  0  0  0  0
 12 31  1  0  0  0  0
 13 18  1  0  0  0  0
 13 32  1  0  0  0  0
 14 19  1  0  0  0  0
 14 33  1  0  0  0  0
 15 20  1  0  0  0  0
 15 34  1  0  0  0  0
 16 21  1  0  0  0  0
 16 35  1  0  0  0  0
 17 24  1  0  0  0  0
 17 25  1  0  0  0  0
 17 26  1  0  0  0  0
 18 20  2  0  0  0  0
 18 36  1  0  0  0  0
 19 21  2  0  0  0  0
 19 37  1  0  0  0  0
 20 38  1  0  0  0  0
 21 39  1  0  0  0  0
 22 23  1  0  0  0  0
 22 28  1  0  0  0  0
 22 40  1  0  0  0  0
 23 41  1  0  0  0  0
 23 42  1  0  0  0  0
 24 43  1  0  0  0  0
 24 44  1  0  0  0  0
 24 45  1  0  0  0  0
 25 46  1  0  0  0  0
 25 47  1  0  0  0  0
 25 48  1  0  0  0  0
 26 49  1  0  0  0  0
 26 50  1  0  0  0  0
 26 51  1  0  0  0  0
M  END
> <PUBCHEM_COMPOUND_CID>
100111

> <PUBCHEM_CONFORMER_RMSD>
1

> <PUBCHEM_CONFORMER_DIVERSEORDER>
1
118
11
93
190
151
10
111
120
14
182
27
63
55
117
47
137
183
78
45
121
168
52
69
105
149
126
57
25
131
172
133
13
165
4
36
82
104
95
129
61
53
139
141
88
43
80
113
192
24
145
67
100
154
15
185
62
102
180
42
159
64
112
186
156
103
160
79
16
110
140
170
39
54
161
184
92
22
99
147
73
175
77
65
109
132
189
75
157
164
191
153
8
115
143
127
134
6
144
188
187
7
86
38
98
174
171
123
155
74
31
135
166
26
81
124
90
152
76
17
44
66
176
101
96
114
136
34
148
56
35
2
41
97
89
46
29
59
179
130
163
20
49
85
94
106
173
83
51
87
150
72
37
21
70
158
3
12
125
33
91
18
19
107
128
138
108
48
84
116
142
23
5
28
68
167
40
178
162
122
177
50
60
71
32
119
169
181
58
146
193
9
30

> <PUBCHEM_MMFF94_PARTIAL_CHARGES>
33
1 -0.46
12 0.28
13 -0.15
14 -0.15
15 -0.15
16 -0.15
17 0.23
18 -0.15
19 -0.15
2 -0.43
20 -0.15
21 -0.15
22 0.36
23 0.23
27 0.78
28 0.66
3 -0.57
32 0.15
33 0.15
34 0.15
35 0.15
36 0.15
37 0.15
38 0.15
39 0.15
4 -0.65
5 -0.57
52 0.37
53 0.5
6 -0.73
7 0.29
8 -0.14
9 -0.14

> <PUBCHEM_EFFECTIVE_ROTOR_COUNT>
9.2

> <PUBCHEM_PHARMACOPHORE_FEATURES>
9
1 3 acceptor
1 4 acceptor
1 5 acceptor
1 6 donor
3 4 5 28 anion
4 17 24 25 26 hydrophobe
5 7 8 9 10 11 rings
6 8 10 13 15 18 20 rings
6 9 11 14 16 19 21 rings

> <PUBCHEM_HEAVY_ATOM_COUNT>
28

> <PUBCHEM_ATOM_DEF_STEREO_COUNT>
0

> <PUBCHEM_ATOM_UDEF_STEREO_COUNT>
1

> <PUBCHEM_BOND_DEF_STEREO_COUNT>
0

> <PUBCHEM_BOND_UDEF_STEREO_COUNT>
0

> <PUBCHEM_ISOTOPIC_ATOM_COUNT>
0

> <PUBCHEM_COMPONENT_COUNT>
1

> <PUBCHEM_CACTVS_TAUTO_COUNT>
2

> <PUBCHEM_CONFORMER_ID>
0001870F00000001

> <PUBCHEM_MMFF94_ENERGY>
81.3725

> <PUBCHEM_FEATURE_SELFOVERLAP>
45.891

> <PUBCHEM_SHAPE_FINGERPRINT>
10369192 42 14852188182148436914
107951 10 17822580395877755715
10842051 180 10734716190417463968
10928967 22 17486502782388890822
11315621 136 18269282429769091094
12160290 23 16197657227862704864
12596602 18 12247381390163954114
12977781 61 17057206077857931595
13583140 156 17844801680214381960
14117953 113 17907291062280334254
14279260 333 16734387093806161920
14347332 77 18340199812573579191
14910302 57 18269826674596274923
15003188 33 18410289241799905300
15183329 4 18188769431771904792
17349148 13 17561367253433793128
17809404 112 17416946491272522730
20775530 9 16696102429181190895
21781051 124 18410284819028160331
22907989 373 18194672890532970917
23559900 14 18272364270403573440
23572383 38 17917422112837209642
312425 83 18261390100259556316
32027 91 18271527473567792026
339767 52 18201714021284965682
340366 18 18335145271367652884
3729539 64 18199181789981744671
4015057 19 17489011717261542776
4169191 19 16227449806274422556
4280585 95 18336540531008346242
4394409 98 18267019445159194126
44062 13 18411139138434119023
633830 44 17313103085628078544

> <PUBCHEM_SHAPE_MULTIPOLES>
551.62
12.92
4.44
1.95
15.95
1.66
-0.36
1.11
4.42
-0.56
1.44
-0.9
-0.27
0.2

> <PUBCHEM_SHAPE_SELFOVERLAP>
1162.197

> <PUBCHEM_SHAPE_VOLUME>
313

> <PUBCHEM_COORDINATE_TYPE>
2
5
10

$$$$
