100131
  -OEChem-03292013323D

 39 38  0     1  0  0  0  0  0999 V2000
    3.1357    1.3916   -1.0930 O   0  0  0  0  0  0  0  0  0  0  0  0
   -0.6784    1.0769    1.6626 O   0  0  0  0  0  0  0  0  0  0  0  0
    4.3233    0.7478    0.7200 O   0  0  0  0  0  0  0  0  0  0  0  0
   -2.7271   -1.2336   -0.8788 O   0  0  0  0  0  0  0  0  0  0  0  0
    0.7938    0.6631   -0.0836 N   0  0  0  0  0  0  0  0  0  0  0  0
   -2.7612    0.9651   -0.1289 N   0  0  0  0  0  0  0  0  0  0  0  0
   -4.9058   -1.8073    0.6909 N   0  0  0  0  0  0  0  0  0  0  0  0
    1.9703   -1.1489    1.1172 C   0  0  0  0  0  0  0  0  0  0  0  0
    2.2268   -2.1815   -0.0040 C   0  0  0  0  0  0  0  0  0  0  0  0
    1.9388    0.3363    0.7262 C   0  0  1  0  0  0  0  0  0  0  0  0
    1.1361   -2.0469   -1.0733 C   0  0  0  0  0  0  0  0  0  0  0  0
    3.5996   -2.0521   -0.6602 C   0  0  0  0  0  0  0  0  0  0  0  0
   -1.4634    1.3555   -0.6134 C   0  0  2  0  0  0  0  0  0  0  0  0
   -0.4380    1.0114    0.4589 C   0  0  0  0  0  0  0  0  0  0  0  0
    3.2509    0.8200    0.1294 C   0  0  0  0  0  0  0  0  0  0  0  0
   -1.4213    2.8380   -0.9499 C   0  0  0  0  0  0  0  0  0  0  0  0
   -3.2935   -0.3080   -0.3016 C   0  0  0  0  0  0  0  0  0  0  0  0
   -4.6866   -0.4275    0.2815 C   0  0  0  0  0  0  0  0  0  0  0  0
    1.0230   -1.4051    1.6107 H   0  0  0  0  0  0  0  0  0  0  0  0
    2.7502   -1.2884    1.8780 H   0  0  0  0  0  0  0  0  0  0  0  0
    2.1532   -3.1785    0.4484 H   0  0  0  0  0  0  0  0  0  0  0  0
    1.8301    0.9161    1.6530 H   0  0  0  0  0  0  0  0  0  0  0  0
    0.9191    0.7216   -1.0895 H   0  0  0  0  0  0  0  0  0  0  0  0
    0.1379   -1.9713   -0.6309 H   0  0  0  0  0  0  0  0  0  0  0  0
    1.3055   -1.2087   -1.7537 H   0  0  0  0  0  0  0  0  0  0  0  0
    1.1359   -2.9466   -1.7007 H   0  0  0  0  0  0  0  0  0  0  0  0
    3.6694   -1.2096   -1.3516 H   0  0  0  0  0  0  0  0  0  0  0  0
    4.3919   -1.9708    0.0904 H   0  0  0  0  0  0  0  0  0  0  0  0
    3.8076   -2.9511   -1.2525 H   0  0  0  0  0  0  0  0  0  0  0  0
   -1.2490    0.7730   -1.5175 H   0  0  0  0  0  0  0  0  0  0  0  0
   -1.6240    3.4527   -0.0653 H   0  0  0  0  0  0  0  0  0  0  0  0
   -0.4362    3.1251   -1.3326 H   0  0  0  0  0  0  0  0  0  0  0  0
   -2.1710    3.0877   -1.7082 H   0  0  0  0  0  0  0  0  0  0  0  0
   -3.2878    1.6463    0.4107 H   0  0  0  0  0  0  0  0  0  0  0  0
    3.9996    1.7097   -1.4319 H   0  0  0  0  0  0  0  0  0  0  0  0
   -4.8064    0.2317    1.1466 H   0  0  0  0  0  0  0  0  0  0  0  0
   -5.4137   -0.1357   -0.4823 H   0  0  0  0  0  0  0  0  0  0  0  0
   -4.7862   -2.4295   -0.1074 H   0  0  0  0  0  0  0  0  0  0  0  0
   -4.2050   -2.0806    1.3786 H   0  0  0  0  0  0  0  0  0  0  0  0
  1 15  1  0  0  0  0
  1 35  1  0  0  0  0
  2 14  2  0  0  0  0
  3 15  2  0  0  0  0
  4 17  2  0  0  0  0
  5 10  1  0  0  0  0
  5 14  1  0  0  0  0
  5 23  1  0  0  0  0
  6 13  1  0  0  0  0
  6 17  1  0  0  0  0
  6 34  1  0  0  0  0
  7 18  1  0  0  0  0
  7 38  1  0  0  0  0
  7 39  1  0  0  0  0
  8  9  1  0  0  0  0
  8 10  1  0  0  0  0
  8 19  1  0  0  0  0
  8 20  1  0  0  0  0
  9 11  1  0  0  0  0
  9 12  1  0  0  0  0
  9 21  1  0  0  0  0
 10 15  1  0  0  0  0
 10 22  1  0  0  0  0
 11 24  1  0  0  0  0
 11 25  1  0  0  0  0
 11 26  1  0  0  0  0
 12 27  1  0  0  0  0
 12 28  1  0  0  0  0
 12 29  1  0  0  0  0
 13 14  1  0  0  0  0
 13 16  1  0  0  0  0
 13 30  1  0  0  0  0
 16 31  1  0  0  0  0
 16 32  1  0  0  0  0
 16 33  1  0  0  0  0
 17 18  1  0  0  0  0
 18 36  1  0  0  0  0
 18 37  1  0  0  0  0
M  END
> <PUBCHEM_COMPOUND_CID>
100131

> <PUBCHEM_CONFORMER_RMSD>
0.8

> <PUBCHEM_CONFORMER_DIVERSEORDER>
1
67
184
51
212
27
39
118
128
201
187
200
98
66
216
29
196
57
146
181
204
123
176
42
183
33
202
194
104
111
52
153
13
178
72
185
144
124
89
31
213
11
133
102
170
134
107
155
96
112
40
36
77
100
203
7
145
162
85
99
180
150
80
129
20
206
215
53
92
197
188
189
95
131
211
208
19
192
158
191
74
58
125
156
126
81
172
147
161
4
64
38
198
16
195
93
167
117
177
139
209
179
159
35
61
140
114
44
3
142
108
75
25
160
22
148
32
137
46
49
8
141
199
87
119
152
71
116
43
174
78
169
60
63
105
106
88
59
73
12
9
163
41
17
122
14
34
94
173
21
84
205
132
101
214
47
182
164
91
115
149
171
130
76
45
62
82
54
83
28
143
175
110
2
154
165
79
151
190
166
113
127
207
55
5
120
68
10
168
56
186
70
157
103
24
15
37
138
135
121
97
90
193
6
69
109
136
26
23
50
210
30
48
65
86
18

> <PUBCHEM_MMFF94_PARTIAL_CHARGES>
18
1 -0.65
10 0.36
13 0.36
14 0.57
15 0.66
17 0.57
18 0.33
2 -0.57
23 0.37
3 -0.57
34 0.37
35 0.5
38 0.36
39 0.36
4 -0.57
5 -0.73
6 -0.73
7 -0.99

> <PUBCHEM_EFFECTIVE_ROTOR_COUNT>
9

> <PUBCHEM_PHARMACOPHORE_FEATURES>
10
1 1 acceptor
1 2 acceptor
1 3 acceptor
1 4 acceptor
1 5 donor
1 6 donor
1 7 cation
1 7 donor
3 1 3 15 anion
3 9 11 12 hydrophobe

> <PUBCHEM_HEAVY_ATOM_COUNT>
18

> <PUBCHEM_ATOM_DEF_STEREO_COUNT>
0

> <PUBCHEM_ATOM_UDEF_STEREO_COUNT>
2

> <PUBCHEM_BOND_DEF_STEREO_COUNT>
0

> <PUBCHEM_BOND_UDEF_STEREO_COUNT>
0

> <PUBCHEM_ISOTOPIC_ATOM_COUNT>
0

> <PUBCHEM_COMPONENT_COUNT>
1

> <PUBCHEM_CACTVS_TAUTO_COUNT>
4

> <PUBCHEM_CONFORMER_ID>
0001872300000001

> <PUBCHEM_MMFF94_ENERGY>
32.8949

> <PUBCHEM_FEATURE_SELFOVERLAP>
50.807

> <PUBCHEM_SHAPE_FINGERPRINT>
10618630 7 18409166593594573807
11759241 127 18040996254431065404
12553582 1 18339631360798057109
12596602 18 16773241820229093195
12616999 72 18336270123444594498
13464513 79 18267022945757811667
13911882 115 18340495555173061026
14178342 30 17768523889987047034
14251705 54 18341047419636185814
14252887 29 18410016563232481211
15375462 189 18059852904638014315
15664445 248 18266761214413841829
17834074 16 18341327799559597397
1813 80 17749117686208960853
18522851 268 18263637373161757436
20281475 54 18272365386994589621
20645477 70 18199735977964089951
20871998 22 18408608067594630493
221490 88 18340207367473644366
23402539 116 17676756634845059553
23557571 272 18114174207778469973
23559900 14 18265043639890682292
2871803 45 18335133164018317095
5104073 3 18341609257203465385
58051976 100 18194121811363019853
58051976 378 18336255795418026836
74978 22 17979068280599581760
9709674 26 18333452027792573531

> <PUBCHEM_SHAPE_MULTIPOLES>
332.01
8.35
2.65
1.15
4.96
0.02
0.11
3.25
0.52
-0.14
-0.72
-0.21
-0.06
0.75

> <PUBCHEM_SHAPE_SELFOVERLAP>
641.339

> <PUBCHEM_SHAPE_VOLUME>
200.6

> <PUBCHEM_COORDINATE_TYPE>
2
5
10

$$$$
