10017261
  -OEChem-03292013303D

 32 34  0     1  0  0  0  0  0999 V2000
    2.2386   -0.2147   -0.9972 O   0  0  0  0  0  0  0  0  0  0  0  0
    1.7346    0.3705    1.9346 O   0  0  0  0  0  0  0  0  0  0  0  0
    4.7170    1.3109    0.1499 O   0  0  0  0  0  0  0  0  0  0  0  0
    2.8104   -2.9330   -0.7925 O   0  0  0  0  0  0  0  0  0  0  0  0
    0.3812    1.1569   -0.4182 N   0  0  0  0  0  0  0  0  0  0  0  0
   -1.6339    2.1154   -0.5486 N   0  0  0  0  0  0  0  0  0  0  0  0
   -0.2872   -1.1560   -0.0863 N   0  0  0  0  0  0  0  0  0  0  0  0
   -2.7166   -1.3855   -0.0469 N   0  0  0  0  0  0  0  0  0  0  0  0
   -4.1674    0.4866   -0.3111 N   0  0  0  0  0  0  0  0  0  0  0  0
   -5.0154   -0.1459    0.3634 N   0  3  0  0  0  0  0  0  0  0  0  0
   -5.7854   -0.7226    0.9775 N   0  5  0  0  0  0  0  0  0  0  0  0
    2.4892    1.0951    0.9718 C   0  0  2  0  0  0  0  0  0  0  0  0
    1.8341    1.0317   -0.4047 C   0  0  1  0  0  0  0  0  0  0  0  0
    3.7990    0.3776    0.7155 C   0  0  1  0  0  0  0  0  0  0  0  0
    3.4355   -0.6731   -0.3357 C   0  0  1  0  0  0  0  0  0  0  0  0
    3.1444   -2.0439    0.2589 C   0  0  0  0  0  0  0  0  0  0  0  0
   -0.5349    0.1494   -0.2719 C   0  0  0  0  0  0  0  0  0  0  0  0
   -0.3333    2.3186   -0.5809 C   0  0  0  0  0  0  0  0  0  0  0  0
   -1.7741    0.7639   -0.3563 C   0  0  0  0  0  0  0  0  0  0  0  0
   -2.8920   -0.0556   -0.2365 C   0  0  0  0  0  0  0  0  0  0  0  0
   -1.4438   -1.8463    0.0154 C   0  0  0  0  0  0  0  0  0  0  0  0
    2.5985    2.1282    1.3169 H   0  0  0  0  0  0  0  0  0  0  0  0
    2.2279    1.8242   -1.0537 H   0  0  0  0  0  0  0  0  0  0  0  0
    4.2545   -0.0519    1.6131 H   0  0  0  0  0  0  0  0  0  0  0  0
    4.2062   -0.7638   -1.1099 H   0  0  0  0  0  0  0  0  0  0  0  0
    2.2966   -2.0149    0.9491 H   0  0  0  0  0  0  0  0  0  0  0  0
    4.0216   -2.4349    0.7836 H   0  0  0  0  0  0  0  0  0  0  0  0
    2.2296    0.3949    2.7711 H   0  0  0  0  0  0  0  0  0  0  0  0
    5.5368    0.8272   -0.0492 H   0  0  0  0  0  0  0  0  0  0  0  0
    0.1500    3.2766   -0.7167 H   0  0  0  0  0  0  0  0  0  0  0  0
    2.6328   -3.7999   -0.3896 H   0  0  0  0  0  0  0  0  0  0  0  0
   -1.3406   -2.9153    0.1680 H   0  0  0  0  0  0  0  0  0  0  0  0
  1 13  1  0  0  0  0
  1 15  1  0  0  0  0
  2 12  1  0  0  0  0
  2 28  1  0  0  0  0
  3 14  1  0  0  0  0
  3 29  1  0  0  0  0
  4 16  1  0  0  0  0
  4 31  1  0  0  0  0
  5 13  1  0  0  0  0
  5 17  1  0  0  0  0
  5 18  1  0  0  0  0
  6 18  2  0  0  0  0
  6 19  1  0  0  0  0
  7 17  2  0  0  0  0
  7 21  1  0  0  0  0
  8 20  1  0  0  0  0
  8 21  2  0  0  0  0
  9 10  2  0  0  0  0
  9 20  1  0  0  0  0
 10 11  2  0  0  0  0
 12 13  1  0  0  0  0
 12 14  1  0  0  0  0
 12 22  1  0  0  0  0
 13 23  1  0  0  0  0
 14 15  1  0  0  0  0
 14 24  1  0  0  0  0
 15 16  1  0  0  0  0
 15 25  1  0  0  0  0
 16 26  1  0  0  0  0
 16 27  1  0  0  0  0
 17 19  1  0  0  0  0
 18 30  1  0  0  0  0
 19 20  2  0  0  0  0
 21 32  1  0  0  0  0
M  CHG  2  10   1  11  -1
M  END
> <PUBCHEM_COMPOUND_CID>
10017261

> <PUBCHEM_CONFORMER_RMSD>
0.6

> <PUBCHEM_CONFORMER_DIVERSEORDER>
4
39
62
21
56
5
64
22
2
49
59
24
41
3
17
25
36
47
54
7
52
18
55
42
28
60
32
44
43
48
10
33
61
46
38
57
16
19
53
8
45
50
13
20
65
30
51
26
34
63
58
11
6
31
23
40
29
9
14
1
27
12
15
35
37

> <PUBCHEM_MMFF94_PARTIAL_CHARGES>
26
1 -0.56
10 0.69
11 -0.37
12 0.28
13 0.54
14 0.28
15 0.28
16 0.28
17 0.11
18 0.04
19 0.23
2 -0.68
20 0.49
21 0.47
28 0.4
29 0.4
3 -0.68
30 0.15
31 0.4
32 0.15
4 -0.68
5 0.05
6 -0.57
7 -0.57
8 -0.62
9 -0.5

> <PUBCHEM_EFFECTIVE_ROTOR_COUNT>
4

> <PUBCHEM_PHARMACOPHORE_FEATURES>
13
1 1 acceptor
1 2 acceptor
1 2 donor
1 3 acceptor
1 3 donor
1 4 acceptor
1 4 donor
3 5 6 18 cation
3 5 7 17 cation
3 7 8 21 cation
5 1 12 13 14 15 rings
5 5 6 17 18 19 rings
6 7 8 17 19 20 21 rings

> <PUBCHEM_HEAVY_ATOM_COUNT>
21

> <PUBCHEM_ATOM_DEF_STEREO_COUNT>
4

> <PUBCHEM_ATOM_UDEF_STEREO_COUNT>
0

> <PUBCHEM_BOND_DEF_STEREO_COUNT>
0

> <PUBCHEM_BOND_UDEF_STEREO_COUNT>
1

> <PUBCHEM_ISOTOPIC_ATOM_COUNT>
0

> <PUBCHEM_COMPONENT_COUNT>
1

> <PUBCHEM_CACTVS_TAUTO_COUNT>
1

> <PUBCHEM_CONFORMER_ID>
0098D9ED00000004

> <PUBCHEM_MMFF94_ENERGY>
46.2686

> <PUBCHEM_FEATURE_SELFOVERLAP>
66.58

> <PUBCHEM_SHAPE_FINGERPRINT>
10366900 7 18059563737253778088
10616163 171 18337952415080032950
10618630 7 18334855008993057276
10906281 52 18115884055891962956
11796584 16 16950564411437143211
12032990 46 18334017168590707373
12236239 1 17168140131258665188
12553582 1 18335692883992743220
12633257 1 18058148661599137914
13140716 1 18121217842279353921
13533116 47 17989208118712558939
13675066 3 18334574655372101837
13862211 1 18335134315502095071
14022347 108 18040442074589534203
14115302 16 16225769644177169984
14178342 30 17981872339908355946
14252887 29 18335141998523309121
14617045 38 18411708685757838142
14866123 147 17119174222412662098
15196674 1 18336827494356843733
15375462 189 17676753366417035249
15536298 74 18341048532080337638
15885798 251 18260831505661305853
16752209 62 18042669646820062261
16945 1 18409443713036765556
17804303 29 18196092149211360582
1813 80 17385447617835349621
19049666 15 18127964227016578472
19141452 34 18271525390165580287
19591789 44 18265333911277309447
19784866 170 18339357582403046040
20028762 73 18196940088016565055
20510252 161 18340763745784445409
20645477 70 18202283576428466830
21267235 1 18336553729036606222
21279426 13 18192427473083191173
21421861 104 18187918435705574658
22182313 1 18262790762304041269
23184049 59 18342179972948451903
23402539 116 18342166791904875861
23559900 14 18411131399551612556
2748010 2 18192138309402825085
31174 14 18201711843293175128
34934 24 18410568526358963358
350125 39 18267026046418003940
465052 167 17822301231756538507
474 4 14188425223304984346
5104073 3 18338795594200520449
69090 78 18201430398328410335
7364860 26 18264208191669747540
8272917 22 15841285782436252869
9709674 26 18410573955530201206

> <PUBCHEM_SHAPE_MULTIPOLES>
373.83
8.95
2.3
0.98
7.13
0.66
0.3
1.73
1.99
-1.14
-0.46
-0.37
-0.06
0.84

> <PUBCHEM_SHAPE_SELFOVERLAP>
814.509

> <PUBCHEM_SHAPE_VOLUME>
199.4

> <PUBCHEM_COORDINATE_TYPE>
2
5
10

$$$$
