10014835
  -OEChem-03292013303D

 26 26  0     1  0  0  0  0  0999 V2000
   -2.7139   -0.4956    0.3021 P   0  0  0  0  0  0  0  0  0  0  0  0
   -0.8444   -0.8159   -1.4133 O   0  0  0  0  0  0  0  0  0  0  0  0
   -2.7351   -2.1121    0.3486 O   0  0  0  0  0  0  0  0  0  0  0  0
   -3.5993   -0.1515   -1.0069 O   0  0  0  0  0  0  0  0  0  0  0  0
   -3.1638    0.1770    1.5655 O   0  0  0  0  0  0  0  0  0  0  0  0
   -1.0740    2.1547    0.6581 O   0  0  0  0  0  0  0  0  0  0  0  0
   -0.5818    1.8903   -1.5402 O   0  0  0  0  0  0  0  0  0  0  0  0
    3.4335   -1.2430   -0.5484 N   0  0  0  0  0  0  0  0  0  0  0  0
   -1.0189   -0.0921   -0.2063 C   0  0  2  0  0  0  0  0  0  0  0  0
   -0.0060   -0.5867    0.8442 C   0  0  0  0  0  0  0  0  0  0  0  0
    1.4478   -0.3858    0.4872 C   0  0  0  0  0  0  0  0  0  0  0  0
   -0.8579    1.4037   -0.4506 C   0  0  0  0  0  0  0  0  0  0  0  0
    2.0954    0.7777    0.8447 C   0  0  0  0  0  0  0  0  0  0  0  0
    2.1333   -1.3601   -0.1971 C   0  0  0  0  0  0  0  0  0  0  0  0
    3.4336    0.9350    0.5012 C   0  0  0  0  0  0  0  0  0  0  0  0
    4.0516   -0.0955   -0.1889 C   0  0  0  0  0  0  0  0  0  0  0  0
   -0.1636   -1.6596    1.0194 H   0  0  0  0  0  0  0  0  0  0  0  0
   -0.2059   -0.1103    1.8133 H   0  0  0  0  0  0  0  0  0  0  0  0
   -1.5474   -0.5446   -2.0279 H   0  0  0  0  0  0  0  0  0  0  0  0
    1.5884    1.5659    1.3921 H   0  0  0  0  0  0  0  0  0  0  0  0
    1.6631   -2.2901   -0.4994 H   0  0  0  0  0  0  0  0  0  0  0  0
   -3.5532   -2.5676    0.6407 H   0  0  0  0  0  0  0  0  0  0  0  0
   -4.5738   -0.2528   -0.9605 H   0  0  0  0  0  0  0  0  0  0  0  0
    3.9763    1.8350    0.7668 H   0  0  0  0  0  0  0  0  0  0  0  0
   -0.9731    3.1133    0.4763 H   0  0  0  0  0  0  0  0  0  0  0  0
    5.0943   -0.0222   -0.4797 H   0  0  0  0  0  0  0  0  0  0  0  0
  1  3  1  0  0  0  0
  1  4  1  0  0  0  0
  1  5  2  0  0  0  0
  1  9  1  0  0  0  0
  2  9  1  0  0  0  0
  2 19  1  0  0  0  0
  3 22  1  0  0  0  0
  4 23  1  0  0  0  0
  6 12  1  0  0  0  0
  6 25  1  0  0  0  0
  7 12  2  0  0  0  0
  8 14  1  0  0  0  0
  8 16  2  0  0  0  0
  9 10  1  0  0  0  0
  9 12  1  0  0  0  0
 10 11  1  0  0  0  0
 10 17  1  0  0  0  0
 10 18  1  0  0  0  0
 11 13  1  0  0  0  0
 11 14  2  0  0  0  0
 13 15  2  0  0  0  0
 13 20  1  0  0  0  0
 14 21  1  0  0  0  0
 15 16  1  0  0  0  0
 15 24  1  0  0  0  0
 16 26  1  0  0  0  0
M  END
> <PUBCHEM_COMPOUND_CID>
10014835

> <PUBCHEM_CONFORMER_RMSD>
0.6

> <PUBCHEM_CONFORMER_DIVERSEORDER>
1
20
15
8
6
19
16
5
7
2
21
13
17
11
9
18
14
4
12
10
3

> <PUBCHEM_MMFF94_PARTIAL_CHARGES>
24
1 1.24
10 0.14
11 -0.14
12 0.66
13 -0.15
14 0.16
15 -0.15
16 0.16
19 0.4
2 -0.68
20 0.15
21 0.15
22 0.5
23 0.5
24 0.15
25 0.5
26 0.15
3 -0.77
4 -0.77
5 -0.7
6 -0.65
7 -0.57
8 -0.62
9 0.34

> <PUBCHEM_EFFECTIVE_ROTOR_COUNT>
4

> <PUBCHEM_PHARMACOPHORE_FEATURES>
11
1 2 acceptor
1 2 donor
1 3 acceptor
1 4 acceptor
1 5 acceptor
1 6 acceptor
1 7 acceptor
1 8 acceptor
3 6 7 12 anion
4 1 3 4 5 anion
6 8 11 13 14 15 16 rings

> <PUBCHEM_HEAVY_ATOM_COUNT>
16

> <PUBCHEM_ATOM_DEF_STEREO_COUNT>
0

> <PUBCHEM_ATOM_UDEF_STEREO_COUNT>
1

> <PUBCHEM_BOND_DEF_STEREO_COUNT>
0

> <PUBCHEM_BOND_UDEF_STEREO_COUNT>
0

> <PUBCHEM_ISOTOPIC_ATOM_COUNT>
0

> <PUBCHEM_COMPONENT_COUNT>
1

> <PUBCHEM_CACTVS_TAUTO_COUNT>
1

> <PUBCHEM_CONFORMER_ID>
0098D07300000001

> <PUBCHEM_MMFF94_ENERGY>
-1.1229

> <PUBCHEM_FEATURE_SELFOVERLAP>
55.932

> <PUBCHEM_SHAPE_FINGERPRINT>
11132069 177 18335414711951274304
12932764 1 18201146685974386010
13214271 11 18336818813932539318
13296908 3 18187364350269051219
13380536 127 17676477303410171864
13581323 91 11167933684376876178
13764800 53 17895469207288370013
14993402 34 18058999683788888215
15309172 13 17775566429139511943
15775835 57 17989207088057122678
16945 1 18411420609141840105
17844478 74 18409170995688067536
18175812 5 18342459261312133135
18186145 218 18410859854249295746
19422 9 17489590073399654642
200 152 18060126635509082926
20711983 171 16917075442653298929
20871999 31 18041273361653018847
21501502 16 18194398892572284442
22802520 49 18266173925349504788
23402539 116 18041268955079571218
23557571 272 18334581264984054478
23559900 14 18260822684014738258
2748010 2 18047186637933649242
296302 2 14418137318066381260
465052 167 15122936461004702431
81228 2 17822570487003113925

> <PUBCHEM_SHAPE_MULTIPOLES>
292.93
6.32
1.76
1.18
1.95
0.35
-0.1
-1.26
0.25
-0.41
-0.16
-0.59
0.2
0.43

> <PUBCHEM_SHAPE_SELFOVERLAP>
593.051

> <PUBCHEM_SHAPE_VOLUME>
171.4

> <PUBCHEM_COORDINATE_TYPE>
2
5
10

$$$$
