10014883
  -OEChem-03292013303D

 30 31  0     1  0  0  0  0  0999 V2000
    0.7233   -2.3276   -0.5479 O   0  0  0  0  0  0  0  0  0  0  0  0
   -2.5565   -1.9800    0.5524 O   0  0  0  0  0  0  0  0  0  0  0  0
   -3.0843    0.2916   -1.4410 O   0  0  0  0  0  0  0  0  0  0  0  0
   -4.0928    1.5005    0.1926 O   0  0  0  0  0  0  0  0  0  0  0  0
   -0.5849   -2.8211   -0.3658 N   0  0  0  0  0  0  0  0  0  0  0  0
   -1.7366    2.8554    0.5854 N   0  0  0  0  0  0  0  0  0  0  0  0
   -1.0648    0.5457    1.0946 C   0  0  0  0  0  0  0  0  0  0  0  0
   -0.5415   -0.6988    0.4881 C   0  0  0  0  0  0  0  0  0  0  0  0
   -1.6570    1.4981    0.0480 C   0  0  1  0  0  0  0  0  0  0  0  0
    0.6511   -1.0535    0.0012 C   0  0  0  0  0  0  0  0  0  0  0  0
   -1.3790   -1.8843    0.2490 C   0  0  0  0  0  0  0  0  0  0  0  0
    1.8842   -0.2631   -0.0405 C   0  0  0  0  0  0  0  0  0  0  0  0
   -3.0705    1.1187   -0.3617 C   0  0  0  0  0  0  0  0  0  0  0  0
    2.7939   -0.3131    1.0222 C   0  0  0  0  0  0  0  0  0  0  0  0
    2.1654    0.5488   -1.1454 C   0  0  0  0  0  0  0  0  0  0  0  0
    3.9684    0.4381    0.9803 C   0  0  0  0  0  0  0  0  0  0  0  0
    3.3400    1.3001   -1.1872 C   0  0  0  0  0  0  0  0  0  0  0  0
    4.2415    1.2447   -0.1244 C   0  0  0  0  0  0  0  0  0  0  0  0
   -1.8067    0.3047    1.8666 H   0  0  0  0  0  0  0  0  0  0  0  0
   -0.2375    1.0411    1.6205 H   0  0  0  0  0  0  0  0  0  0  0  0
   -1.0304    1.5410   -0.8512 H   0  0  0  0  0  0  0  0  0  0  0  0
   -0.8143   -3.7548   -0.6808 H   0  0  0  0  0  0  0  0  0  0  0  0
   -2.0467    3.4963   -0.1445 H   0  0  0  0  0  0  0  0  0  0  0  0
   -0.8069    3.1706    0.8600 H   0  0  0  0  0  0  0  0  0  0  0  0
    2.5963   -0.9372    1.8907 H   0  0  0  0  0  0  0  0  0  0  0  0
    1.4732    0.6033   -1.9826 H   0  0  0  0  0  0  0  0  0  0  0  0
    4.6704    0.3951    1.8079 H   0  0  0  0  0  0  0  0  0  0  0  0
    3.5525    1.9282   -2.0473 H   0  0  0  0  0  0  0  0  0  0  0  0
    5.1561    1.8297   -0.1569 H   0  0  0  0  0  0  0  0  0  0  0  0
   -3.9978    0.0486   -1.7030 H   0  0  0  0  0  0  0  0  0  0  0  0
  1  5  1  0  0  0  0
  1 10  1  0  0  0  0
  2 11  2  0  0  0  0
  3 13  1  0  0  0  0
  3 30  1  0  0  0  0
  4 13  2  0  0  0  0
  5 11  1  0  0  0  0
  5 22  1  0  0  0  0
  6  9  1  0  0  0  0
  6 23  1  0  0  0  0
  6 24  1  0  0  0  0
  7  8  1  0  0  0  0
  7  9  1  0  0  0  0
  7 19  1  0  0  0  0
  7 20  1  0  0  0  0
  8 10  2  0  0  0  0
  8 11  1  0  0  0  0
  9 13  1  0  0  0  0
  9 21  1  0  0  0  0
 10 12  1  0  0  0  0
 12 14  2  0  0  0  0
 12 15  1  0  0  0  0
 14 16  1  0  0  0  0
 14 25  1  0  0  0  0
 15 17  2  0  0  0  0
 15 26  1  0  0  0  0
 16 18  2  0  0  0  0
 16 27  1  0  0  0  0
 17 18  1  0  0  0  0
 17 28  1  0  0  0  0
 18 29  1  0  0  0  0
M  END
> <PUBCHEM_COMPOUND_CID>
10014883

> <PUBCHEM_CONFORMER_RMSD>
0.6

> <PUBCHEM_CONFORMER_DIVERSEORDER>
1
11
29
42
21
36
50
48
27
24
44
38
31
37
25
33
2
49
7
34
10
39
22
47
40
16
32
17
23
43
19
41
46
26
5
45
14
35
4
18
6
28
20
13
15
12
3
8
30
9

> <PUBCHEM_MMFF94_PARTIAL_CHARGES>
27
1 -0.11
10 0.05
11 0.62
12 0.03
13 0.66
14 -0.15
15 -0.15
16 -0.15
17 -0.15
18 -0.15
2 -0.57
22 0.37
23 0.36
24 0.36
25 0.15
26 0.15
27 0.15
28 0.15
29 0.15
3 -0.65
30 0.5
4 -0.57
5 -0.39
6 -0.99
7 0.14
8 -0.12
9 0.33

> <PUBCHEM_EFFECTIVE_ROTOR_COUNT>
4

> <PUBCHEM_PHARMACOPHORE_FEATURES>
9
1 2 acceptor
1 3 acceptor
1 4 acceptor
1 5 donor
1 6 cation
1 6 donor
3 3 4 13 anion
5 1 5 8 10 11 rings
6 12 14 15 16 17 18 rings

> <PUBCHEM_HEAVY_ATOM_COUNT>
18

> <PUBCHEM_ATOM_DEF_STEREO_COUNT>
0

> <PUBCHEM_ATOM_UDEF_STEREO_COUNT>
1

> <PUBCHEM_BOND_DEF_STEREO_COUNT>
0

> <PUBCHEM_BOND_UDEF_STEREO_COUNT>
0

> <PUBCHEM_ISOTOPIC_ATOM_COUNT>
0

> <PUBCHEM_COMPONENT_COUNT>
1

> <PUBCHEM_CACTVS_TAUTO_COUNT>
2

> <PUBCHEM_CONFORMER_ID>
0098D0A300000001

> <PUBCHEM_MMFF94_ENERGY>
35.7629

> <PUBCHEM_FEATURE_SELFOVERLAP>
45.729

> <PUBCHEM_SHAPE_FINGERPRINT>
10498660 4 18410864295219235836
10759866 29 18114186367141672864
11640471 11 17968098663716530188
12173636 292 18411983542052776133
13296909 8 18337663239384897768
13380535 76 18410571743215731803
13538477 17 18333728052872477856
13583140 156 16805319989948061769
13764800 53 18410301319210706545
14614273 12 18341906228443680946
15490181 8 18194686968824142731
15775835 57 18186523219758280748
16752209 62 18339355396038027442
16945 1 18413394245377455363
1741750 31 18411703183667036776
17492 54 18260819441077085965
18186145 218 18267867177076584557
18981168 100 18266203680455865118
192875 21 18336813217743627220
20510252 161 18341058530938133330
20671657 1 18120099390035836494
20715895 44 17681254578649809573
21524375 3 18335701590017838384
23402539 116 18272076202193211468
23419403 2 16842461655895632931
23557571 272 18199758105693464854
23559900 14 18273217508965168784
2748010 2 18268733665259393422
350125 39 18196674933102585386
474 4 18191308174082243545
6333272 397 18336267846927460873
7364860 26 17839740365913575311
81228 2 18055366987259607074
84936 182 17912923881412525024

> <PUBCHEM_SHAPE_MULTIPOLES>
336.99
6.86
2.62
1.11
2.49
0.72
0.1
-3.81
0.18
-1.97
0.06
0.37
-0.18
-0.34

> <PUBCHEM_SHAPE_SELFOVERLAP>
720.17

> <PUBCHEM_SHAPE_VOLUME>
186.7

> <PUBCHEM_COORDINATE_TYPE>
2
5
10

$$$$
