100100
  -OEChem-03292013323D

 33 32  0     1  0  0  0  0  0999 V2000
    0.1484   -0.4576    1.3160 O   0  0  0  0  0  0  0  0  0  0  0  0
    4.7919    1.1851   -1.0890 O   0  0  0  0  0  0  0  0  0  0  0  0
    5.6994    0.1947    0.7376 O   0  0  0  0  0  0  0  0  0  0  0  0
   -2.4104    1.1396   -1.3986 O   0  0  0  0  0  0  0  0  0  0  0  0
   -3.7124   -1.7140    0.3707 O   0  0  0  0  0  0  0  0  0  0  0  0
   -5.7389   -1.8260   -0.6437 O   0  0  0  0  0  0  0  0  0  0  0  0
   -0.1689    1.5455    0.1835 N   0  0  0  0  0  0  0  0  0  0  0  0
    4.7156   -2.2274   -0.1357 N   0  0  0  0  0  0  0  0  0  0  0  0
   -3.6713    0.8928    0.5382 N   0  0  0  0  0  0  0  0  0  0  0  0
    2.6846   -0.9036    0.2082 C   0  0  0  0  0  0  0  0  0  0  0  0
    1.8866    0.3473   -0.1652 C   0  0  0  0  0  0  0  0  0  0  0  0
    4.0140   -1.0091   -0.5474 C   0  0  1  0  0  0  0  0  0  0  0  0
    0.5392    0.4052    0.5344 C   0  0  0  0  0  0  0  0  0  0  0  0
   -1.4777    1.8488    0.7141 C   0  0  0  0  0  0  0  0  0  0  0  0
    4.9310    0.1542   -0.2152 C   0  0  0  0  0  0  0  0  0  0  0  0
   -2.5397    1.2479   -0.1819 C   0  0  0  0  0  0  0  0  0  0  0  0
   -4.8590    0.3407   -0.0728 C   0  0  0  0  0  0  0  0  0  0  0  0
   -4.8325   -1.1640   -0.1529 C   0  0  0  0  0  0  0  0  0  0  0  0
    2.0760   -1.7941    0.0014 H   0  0  0  0  0  0  0  0  0  0  0  0
    2.8660   -0.8956    1.2918 H   0  0  0  0  0  0  0  0  0  0  0  0
    1.7125    0.3714   -1.2475 H   0  0  0  0  0  0  0  0  0  0  0  0
    2.4371    1.2526    0.1136 H   0  0  0  0  0  0  0  0  0  0  0  0
    3.8505   -1.0470   -1.6301 H   0  0  0  0  0  0  0  0  0  0  0  0
    0.2340    2.1949   -0.4862 H   0  0  0  0  0  0  0  0  0  0  0  0
   -1.5528    1.4623    1.7352 H   0  0  0  0  0  0  0  0  0  0  0  0
   -1.5994    2.9358    0.7276 H   0  0  0  0  0  0  0  0  0  0  0  0
    5.5595   -2.3412   -0.6964 H   0  0  0  0  0  0  0  0  0  0  0  0
    4.1330   -3.0401   -0.3340 H   0  0  0  0  0  0  0  0  0  0  0  0
   -3.6808    1.0188    1.5460 H   0  0  0  0  0  0  0  0  0  0  0  0
   -4.9610    0.7416   -1.0856 H   0  0  0  0  0  0  0  0  0  0  0  0
   -5.7110    0.6436    0.5422 H   0  0  0  0  0  0  0  0  0  0  0  0
    5.3769    1.9388   -0.8612 H   0  0  0  0  0  0  0  0  0  0  0  0
   -3.7194   -2.6929    0.3069 H   0  0  0  0  0  0  0  0  0  0  0  0
  1 13  2  0  0  0  0
  2 15  1  0  0  0  0
  2 32  1  0  0  0  0
  3 15  2  0  0  0  0
  4 16  2  0  0  0  0
  5 18  1  0  0  0  0
  5 33  1  0  0  0  0
  6 18  2  0  0  0  0
  7 13  1  0  0  0  0
  7 14  1  0  0  0  0
  7 24  1  0  0  0  0
  8 12  1  0  0  0  0
  8 27  1  0  0  0  0
  8 28  1  0  0  0  0
  9 16  1  0  0  0  0
  9 17  1  0  0  0  0
  9 29  1  0  0  0  0
 10 11  1  0  0  0  0
 10 12  1  0  0  0  0
 10 19  1  0  0  0  0
 10 20  1  0  0  0  0
 11 13  1  0  0  0  0
 11 21  1  0  0  0  0
 11 22  1  0  0  0  0
 12 15  1  0  0  0  0
 12 23  1  0  0  0  0
 14 16  1  0  0  0  0
 14 25  1  0  0  0  0
 14 26  1  0  0  0  0
 17 18  1  0  0  0  0
 17 30  1  0  0  0  0
 17 31  1  0  0  0  0
M  END
> <PUBCHEM_COMPOUND_CID>
100100

> <PUBCHEM_CONFORMER_RMSD>
0.8

> <PUBCHEM_CONFORMER_DIVERSEORDER>
2
12
184
142
17
145
240
306
190
51
131
335
315
162
18
374
135
123
346
44
226
277
34
353
97
66
299
15
81
339
236
217
64
358
20
187
309
107
115
84
65
198
108
268
25
96
179
288
362
206
166
276
359
77
27
302
4
260
287
329
292
321
146
354
342
279
56
171
155
149
47
274
224
167
134
160
175
101
225
23
263
319
355
114
60
289
99
95
90
333
203
233
109
164
243
380
334
207
156
80
121
282
300
19
11
94
313
176
21
371
367
297
256
227
120
140
295
91
269
57
234
86
237
343
49
204
199
382
220
67
188
349
270
375
215
352
133
111
126
258
201
159
30
172
98
212
323
345
337
113
76
247
360
182
385
185
148
192
221
100
92
31
122
40
245
249
331
298
124
1
104
78
62
58
325
193
106
36
281
262
151
320
350
271
200
364
144
223
340
110
361
63
93
88
250
261
308
213
312
218
230
137
202
242
368
3
246
59
177
132
37
386
69
285
71
197
232
265
191
307
127
332
35
344
257
216
79
259
372
147
138
296
163
356
255
42
239
336
347
231
16
22
369
290
28
128
330
363
178
38
54
384
139
52
70
327
254
50
45
209
383
378
373
29
194
348
55
305
238
136
154
150
161
89
46
278
103
5
180
105
75
130
48
264
181
303
10
280
129
273
125
112
310
165
102
228
183
41
119
318
141
379
235
39
301
43
222
365
157
13
189
168
85
6
326
294
152
376
87
322
143
153
32
7
338
248
186
72
275
328
272
83
317
26
118
366
357
311
284
214
205
252
117
74
211
341
291
210
283
370
68
316
53
381
33
267
241
73
24
286
196
219
173
229
351
8
251
314
158
82
266
377
293
14
9
253
116
170
195
169
61
174
304
244
208
324

> <PUBCHEM_MMFF94_PARTIAL_CHARGES>
23
1 -0.57
11 0.06
12 0.33
13 0.57
14 0.36
15 0.66
16 0.57
17 0.36
18 0.66
2 -0.65
24 0.37
27 0.36
28 0.36
29 0.37
3 -0.57
32 0.5
33 0.5
4 -0.57
5 -0.65
6 -0.57
7 -0.73
8 -0.99
9 -0.73

> <PUBCHEM_EFFECTIVE_ROTOR_COUNT>
10

> <PUBCHEM_PHARMACOPHORE_FEATURES>
12
1 1 acceptor
1 2 acceptor
1 3 acceptor
1 4 acceptor
1 5 acceptor
1 6 acceptor
1 7 donor
1 8 cation
1 8 donor
1 9 donor
3 2 3 15 anion
3 5 6 18 anion

> <PUBCHEM_HEAVY_ATOM_COUNT>
18

> <PUBCHEM_ATOM_DEF_STEREO_COUNT>
0

> <PUBCHEM_ATOM_UDEF_STEREO_COUNT>
1

> <PUBCHEM_BOND_DEF_STEREO_COUNT>
0

> <PUBCHEM_BOND_UDEF_STEREO_COUNT>
0

> <PUBCHEM_ISOTOPIC_ATOM_COUNT>
0

> <PUBCHEM_COMPONENT_COUNT>
1

> <PUBCHEM_CACTVS_TAUTO_COUNT>
4

> <PUBCHEM_CONFORMER_ID>
0001870400000002

> <PUBCHEM_MMFF94_ENERGY>
20.1092

> <PUBCHEM_FEATURE_SELFOVERLAP>
61.017

> <PUBCHEM_SHAPE_FINGERPRINT>
11045515 52 18260832561802001797
11089746 13 7925628873855291128
11287383 113 18341892991770998248
12119455 92 13767927922720217408
12596602 18 13110956531359323959
12633257 1 14692566667595749201
12670546 177 18186805781108288988
13167823 11 18338798914394849302
13675066 3 10663804291869942164
13740256 8 18272650181838790193
13911882 115 17704082776166596510
14251718 22 18410573998410977480
14251732 16 18272366520718425264
14251732 17 8286207158027420057
14251764 18 18131357406410995601
14251764 30 16917359129617308046
17834072 33 18408606972003534084
18785283 64 17701801397187671624
200 152 18409733958500120977
20281389 69 9727632800175797783
20645477 70 18339084762212958150
20681677 155 18337111155910083113
20871999 31 18187639190038254261
21054139 6 18259980475071667874
22950370 63 18272655636283771329
23402539 116 16732702727274848909
23559900 14 18342165701073275641
23622692 88 14333406766329627841
2838139 119 8142095226022538947
3268164 11 16660360342582232021
329604 57 18410858793112538766
351380 180 11314030179563508079
4259306 186 18411695500413837959
4325135 7 18408044030734869732
5104073 3 17916864600222286370
5312625 73 18272087257792686672
6913067 236 17385715898809799916
7062679 117 18410298016407223011
7495541 125 18131066043855255760

> <PUBCHEM_SHAPE_MULTIPOLES>
320.27
14.15
1.94
0.94
2.15
0.49
0.06
5.74
1.94
-1
0.07
0.08
-0.15
-0.34

> <PUBCHEM_SHAPE_SELFOVERLAP>
624.336

> <PUBCHEM_SHAPE_VOLUME>
190.5

> <PUBCHEM_COORDINATE_TYPE>
2
5
10

$$$$
