100156
  -OEChem-03292013323D

 42 43  0     1  0  0  0  0  0999 V2000
    0.0482   -2.0231    2.8687 O   0  0  0  0  0  0  0  0  0  0  0  0
   -0.0556   -1.7825   -2.9680 O   0  0  0  0  0  0  0  0  0  0  0  0
   -1.7590   -0.8885    0.5238 O   0  0  0  0  0  0  0  0  0  0  0  0
    1.7522   -0.8499   -0.5602 O   0  0  0  0  0  0  0  0  0  0  0  0
   -1.6894    1.4153    0.6020 O   0  0  0  0  0  0  0  0  0  0  0  0
    1.6900    1.4541   -0.4784 O   0  0  0  0  0  0  0  0  0  0  0  0
   -6.6439    2.5907   -0.1356 O   0  0  0  0  0  0  0  0  0  0  0  0
    6.6582    2.5726    0.2550 O   0  0  0  0  0  0  0  0  0  0  0  0
   -6.5492    0.3215   -0.0730 O   0  0  0  0  0  0  0  0  0  0  0  0
    6.5584    0.3131    0.0382 O   0  0  0  0  0  0  0  0  0  0  0  0
   -0.3374   -0.9376    0.6832 C   0  0  2  0  0  0  0  0  0  0  0  0
    0.3325   -0.8868   -0.6984 C   0  0  2  0  0  0  0  0  0  0  0  0
    0.0340   -2.1783    1.4439 C   0  0  1  0  0  0  0  0  0  0  0  0
   -0.0475   -2.0563   -1.5610 C   0  0  1  0  0  0  0  0  0  0  0  0
    1.3103   -2.2551    2.2302 C   0  0  0  0  0  0  0  0  0  0  0  0
   -1.3219   -2.0554   -2.3541 C   0  0  0  0  0  0  0  0  0  0  0  0
   -2.3057    0.3638    0.5001 C   0  0  0  0  0  0  0  0  0  0  0  0
    2.3060    0.3977   -0.4593 C   0  0  0  0  0  0  0  0  0  0  0  0
   -3.8044    0.2378    0.3292 C   0  0  0  0  0  0  0  0  0  0  0  0
    3.8071    0.2592   -0.3227 C   0  0  0  0  0  0  0  0  0  0  0  0
   -4.5076    1.5839    0.2035 C   0  0  0  0  0  0  0  0  0  0  0  0
    4.5147    1.5930   -0.1166 C   0  0  0  0  0  0  0  0  0  0  0  0
   -5.9894    1.4089   -0.0203 C   0  0  0  0  0  0  0  0  0  0  0  0
    5.9996    1.4019    0.0698 C   0  0  0  0  0  0  0  0  0  0  0  0
    0.0076   -0.0800    1.2769 H   0  0  0  0  0  0  0  0  0  0  0  0
   -0.0163    0.0147   -1.2208 H   0  0  0  0  0  0  0  0  0  0  0  0
   -0.3929   -3.0905    1.0499 H   0  0  0  0  0  0  0  0  0  0  0  0
    0.3703   -3.0019   -1.2435 H   0  0  0  0  0  0  0  0  0  0  0  0
    1.7672   -3.2269    2.3646 H   0  0  0  0  0  0  0  0  0  0  0  0
    2.0067   -1.4280    2.1954 H   0  0  0  0  0  0  0  0  0  0  0  0
   -1.7869   -3.0085   -2.5704 H   0  0  0  0  0  0  0  0  0  0  0  0
   -2.0110   -1.2276   -2.2549 H   0  0  0  0  0  0  0  0  0  0  0  0
   -3.9907   -0.3595   -0.5714 H   0  0  0  0  0  0  0  0  0  0  0  0
   -4.1989   -0.3085    1.1942 H   0  0  0  0  0  0  0  0  0  0  0  0
    4.0067   -0.3988    0.5318 H   0  0  0  0  0  0  0  0  0  0  0  0
    4.1859   -0.2270   -1.2293 H   0  0  0  0  0  0  0  0  0  0  0  0
   -4.0953    2.1448   -0.6426 H   0  0  0  0  0  0  0  0  0  0  0  0
   -4.3608    2.1701    1.1174 H   0  0  0  0  0  0  0  0  0  0  0  0
    4.1176    2.0947    0.7728 H   0  0  0  0  0  0  0  0  0  0  0  0
    4.3538    2.2407   -0.9855 H   0  0  0  0  0  0  0  0  0  0  0  0
   -7.6072    2.4642   -0.2706 H   0  0  0  0  0  0  0  0  0  0  0  0
    7.6233    2.4366    0.3648 H   0  0  0  0  0  0  0  0  0  0  0  0
  1 13  1  0  0  0  0
  1 15  1  0  0  0  0
  2 14  1  0  0  0  0
  2 16  1  0  0  0  0
  3 11  1  0  0  0  0
  3 17  1  0  0  0  0
  4 12  1  0  0  0  0
  4 18  1  0  0  0  0
  5 17  2  0  0  0  0
  6 18  2  0  0  0  0
  7 23  1  0  0  0  0
  7 41  1  0  0  0  0
  8 24  1  0  0  0  0
  8 42  1  0  0  0  0
  9 23  2  0  0  0  0
 10 24  2  0  0  0  0
 11 12  1  0  0  0  0
 11 13  1  0  0  0  0
 11 25  1  0  0  0  0
 12 14  1  0  0  0  0
 12 26  1  0  0  0  0
 13 15  1  0  0  0  0
 13 27  1  0  0  0  0
 14 16  1  0  0  0  0
 14 28  1  0  0  0  0
 15 29  1  0  0  0  0
 15 30  1  0  0  0  0
 16 31  1  0  0  0  0
 16 32  1  0  0  0  0
 17 19  1  0  0  0  0
 18 20  1  0  0  0  0
 19 21  1  0  0  0  0
 19 33  1  0  0  0  0
 19 34  1  0  0  0  0
 20 22  1  0  0  0  0
 20 35  1  0  0  0  0
 20 36  1  0  0  0  0
 21 23  1  0  0  0  0
 21 37  1  0  0  0  0
 21 38  1  0  0  0  0
 22 24  1  0  0  0  0
 22 39  1  0  0  0  0
 22 40  1  0  0  0  0
M  END
> <PUBCHEM_COMPOUND_CID>
100156

> <PUBCHEM_CONFORMER_RMSD>
1.2

> <PUBCHEM_CONFORMER_DIVERSEORDER>
1
12
35
78
66
3
26
45
55
84
86
38
68
34
30
22
16
42
32
36
71
29
8
46
24
2
11
79
56
40
65
27
48
63
75
77
31
39
52
6
62
21
18
28
14
64
20
9
83
37
57
44
49
19
58
13
41
25
33
73
80
54
47
76
53
70
23
17
59
85
61
67
81
50
43
4
51
74
15
10
60
69
5
82
7
72

> <PUBCHEM_MMFF94_PARTIAL_CHARGES>
32
1 -0.3
10 -0.57
11 0.38
12 0.38
13 -0.05
14 -0.05
15 -0.05
16 -0.05
17 0.66
18 0.66
19 0.06
2 -0.3
20 0.06
21 0.06
22 0.06
23 0.66
24 0.66
27 0.1
28 0.1
29 0.1
3 -0.43
30 0.1
31 0.1
32 0.1
4 -0.43
41 0.5
42 0.5
5 -0.57
6 -0.57
7 -0.65
8 -0.65
9 -0.57

> <PUBCHEM_EFFECTIVE_ROTOR_COUNT>
14.2

> <PUBCHEM_PHARMACOPHORE_FEATURES>
10
1 1 acceptor
1 10 acceptor
1 2 acceptor
1 5 acceptor
1 6 acceptor
1 7 acceptor
1 8 acceptor
1 9 acceptor
3 7 9 23 anion
3 8 10 24 anion

> <PUBCHEM_HEAVY_ATOM_COUNT>
24

> <PUBCHEM_ATOM_DEF_STEREO_COUNT>
0

> <PUBCHEM_ATOM_UDEF_STEREO_COUNT>
4

> <PUBCHEM_BOND_DEF_STEREO_COUNT>
0

> <PUBCHEM_BOND_UDEF_STEREO_COUNT>
0

> <PUBCHEM_ISOTOPIC_ATOM_COUNT>
0

> <PUBCHEM_COMPONENT_COUNT>
1

> <PUBCHEM_CACTVS_TAUTO_COUNT>
1

> <PUBCHEM_CONFORMER_ID>
0001873C00000001

> <PUBCHEM_MMFF94_ENERGY>
29.3507

> <PUBCHEM_FEATURE_SELFOVERLAP>
50.871

> <PUBCHEM_SHAPE_FINGERPRINT>
10006869 2 18191293901721542980
11961588 58 17989201559954437539
12633257 1 17168430475437463182
12895836 83 17917424358529696237
13149001 5 15482376664141758842
14251764 30 9079115540065799688
15238133 3 17968670410063907764
17492 54 16845576408906681955
18006028 8 12324239485921762901
18681886 176 17917701440398714353
20567600 254 18186518800184211729
21403212 168 18040427777007383448
21756936 100 18335414733695058282
22224240 67 17822009826409341769
2838139 119 18413668028179028453
298252 57 18130793364634119154
34934 24 18411697686035044707
3633792 109 16987732207881294678
4340502 62 17894354362632511867
5104073 3 17460043890598189137
5385378 56 17749669584710220458
56616090 13 18411417349404113256
59755656 520 18187358861327421982
6327066 14 18202564003443934044

> <PUBCHEM_SHAPE_MULTIPOLES>
435.22
14.24
2.85
1.98
0.18
0.18
0.2
-17.3
-0.31
0.04
-0.2
-0.05
2.58
-0.57

> <PUBCHEM_SHAPE_SELFOVERLAP>
875.568

> <PUBCHEM_SHAPE_VOLUME>
251.2

> <PUBCHEM_COORDINATE_TYPE>
2
5
10

$$$$
