100114
  -OEChem-03292013323D

 47 49  0     1  0  0  0  0  0999 V2000
    0.3840   -0.4745    1.0997 O   0  0  0  0  0  0  0  0  0  0  0  0
   -1.2281   -1.0263    2.6397 O   0  0  0  0  0  0  0  0  0  0  0  0
   -2.5181   -2.4677   -1.6794 O   0  0  0  0  0  0  0  0  0  0  0  0
   -4.6004   -2.7746   -0.8505 O   0  0  0  0  0  0  0  0  0  0  0  0
   -5.6484    1.9907    0.5811 O   0  0  0  0  0  0  0  0  0  0  0  0
   -1.6827   -1.0116    0.3647 N   0  0  0  0  0  0  0  0  0  0  0  0
   -5.1217    2.6789   -1.5513 N   0  0  0  0  0  0  0  0  0  0  0  0
    2.6519    0.1382    1.5331 C   0  0  0  0  0  0  0  0  0  0  0  0
    2.5508    1.4208    0.7198 C   0  0  0  0  0  0  0  0  0  0  0  0
    3.1496   -0.8483    0.4864 C   0  0  0  0  0  0  0  0  0  0  0  0
    2.9563    1.1914   -0.6145 C   0  0  0  0  0  0  0  0  0  0  0  0
    3.3236   -0.2009   -0.7577 C   0  0  0  0  0  0  0  0  0  0  0  0
    1.3195   -0.2762    2.1446 C   0  0  0  0  0  0  0  0  0  0  0  0
    2.1502    2.6776    1.1433 C   0  0  0  0  0  0  0  0  0  0  0  0
    3.4361   -2.1948    0.6421 C   0  0  0  0  0  0  0  0  0  0  0  0
    2.9538    2.2229   -1.5394 C   0  0  0  0  0  0  0  0  0  0  0  0
    3.7793   -0.9040   -1.8610 C   0  0  0  0  0  0  0  0  0  0  0  0
    2.1478    3.7166    0.2110 C   0  0  0  0  0  0  0  0  0  0  0  0
    3.8950   -2.9031   -0.4699 C   0  0  0  0  0  0  0  0  0  0  0  0
    2.5448    3.4913   -1.1176 C   0  0  0  0  0  0  0  0  0  0  0  0
    4.0642   -2.2641   -1.7096 C   0  0  0  0  0  0  0  0  0  0  0  0
   -3.0708   -1.4073    0.4268 C   0  0  1  0  0  0  0  0  0  0  0  0
   -3.9936   -0.1914    0.5746 C   0  0  0  0  0  0  0  0  0  0  0  0
   -0.8809   -0.8552    1.4757 C   0  0  0  0  0  0  0  0  0  0  0  0
   -4.0498    0.6994   -0.6698 C   0  0  0  0  0  0  0  0  0  0  0  0
   -3.4882   -2.2664   -0.7559 C   0  0  0  0  0  0  0  0  0  0  0  0
   -5.0241    1.8386   -0.4659 C   0  0  0  0  0  0  0  0  0  0  0  0
    3.4207    0.2648    2.3047 H   0  0  0  0  0  0  0  0  0  0  0  0
    0.9520    0.4996    2.8269 H   0  0  0  0  0  0  0  0  0  0  0  0
    1.4375   -1.2099    2.7078 H   0  0  0  0  0  0  0  0  0  0  0  0
    1.8472    2.8571    2.1689 H   0  0  0  0  0  0  0  0  0  0  0  0
    3.3111   -2.6909    1.5982 H   0  0  0  0  0  0  0  0  0  0  0  0
    3.2596    2.0651   -2.5683 H   0  0  0  0  0  0  0  0  0  0  0  0
    3.9171   -0.4241   -2.8242 H   0  0  0  0  0  0  0  0  0  0  0  0
    1.8368    4.7125    0.5153 H   0  0  0  0  0  0  0  0  0  0  0  0
    4.1260   -3.9610   -0.3769 H   0  0  0  0  0  0  0  0  0  0  0  0
    2.5350    4.3159   -1.8257 H   0  0  0  0  0  0  0  0  0  0  0  0
    4.4232   -2.8361   -2.5613 H   0  0  0  0  0  0  0  0  0  0  0  0
   -3.1804   -2.0412    1.3158 H   0  0  0  0  0  0  0  0  0  0  0  0
   -3.6774    0.4064    1.4395 H   0  0  0  0  0  0  0  0  0  0  0  0
   -5.0076   -0.5479    0.8001 H   0  0  0  0  0  0  0  0  0  0  0  0
   -1.2730   -0.8263   -0.5460 H   0  0  0  0  0  0  0  0  0  0  0  0
   -3.0620    1.1224   -0.8845 H   0  0  0  0  0  0  0  0  0  0  0  0
   -4.3777    0.1312   -1.5470 H   0  0  0  0  0  0  0  0  0  0  0  0
   -2.8236   -3.0429   -2.4129 H   0  0  0  0  0  0  0  0  0  0  0  0
   -4.5882    2.5290   -2.4017 H   0  0  0  0  0  0  0  0  0  0  0  0
   -5.7394    3.4837   -1.5354 H   0  0  0  0  0  0  0  0  0  0  0  0
  1 13  1  0  0  0  0
  1 24  1  0  0  0  0
  2 24  2  0  0  0  0
  3 26  1  0  0  0  0
  3 45  1  0  0  0  0
  4 26  2  0  0  0  0
  5 27  2  0  0  0  0
  6 22  1  0  0  0  0
  6 24  1  0  0  0  0
  6 42  1  0  0  0  0
  7 27  1  0  0  0  0
  7 46  1  0  0  0  0
  7 47  1  0  0  0  0
  8  9  1  0  0  0  0
  8 10  1  0  0  0  0
  8 13  1  0  0  0  0
  8 28  1  0  0  0  0
  9 11  1  0  0  0  0
  9 14  2  0  0  0  0
 10 12  1  0  0  0  0
 10 15  2  0  0  0  0
 11 12  1  0  0  0  0
 11 16  2  0  0  0  0
 12 17  2  0  0  0  0
 13 29  1  0  0  0  0
 13 30  1  0  0  0  0
 14 18  1  0  0  0  0
 14 31  1  0  0  0  0
 15 19  1  0  0  0  0
 15 32  1  0  0  0  0
 16 20  1  0  0  0  0
 16 33  1  0  0  0  0
 17 21  1  0  0  0  0
 17 34  1  0  0  0  0
 18 20  2  0  0  0  0
 18 35  1  0  0  0  0
 19 21  2  0  0  0  0
 19 36  1  0  0  0  0
 20 37  1  0  0  0  0
 21 38  1  0  0  0  0
 22 23  1  0  0  0  0
 22 26  1  0  0  0  0
 22 39  1  0  0  0  0
 23 25  1  0  0  0  0
 23 40  1  0  0  0  0
 23 41  1  0  0  0  0
 25 27  1  0  0  0  0
 25 43  1  0  0  0  0
 25 44  1  0  0  0  0
M  END
> <PUBCHEM_COMPOUND_CID>
100114

> <PUBCHEM_CONFORMER_RMSD>
1

> <PUBCHEM_CONFORMER_DIVERSEORDER>
1
55
86
108
48
170
85
171
74
73
51
162
175
174
169
83
148
38
122
110
67
26
69
160
186
166
150
62
146
61
179
163
178
39
64
167
95
147
128
159
177
92
49
140
82
68
126
4
99
116
77
13
149
102
101
181
80
173
164
6
23
90
182
19
94
56
161
91
88
117
121
33
53
154
71
145
40
120
127
155
189
50
60
47
157
138
79
104
93
172
66
118
87
9
135
5
109
27
183
106
57
15
29
11
20
180
78
35
59
28
129
22
52
103
76
188
65
25
36
156
139
70
54
152
187
112
114
30
158
24
41
124
12
136
165
42
43
31
100
18
32
144
21
14
168
46
142
10
133
96
153
16
130
98
3
143
115
63
141
7
111
134
75
119
72
176
125
89
105
45
81
137
8
131
113
123
17
58
107
37
34
97
132
84
184
151
185
2
44

> <PUBCHEM_MMFF94_PARTIAL_CHARGES>
36
1 -0.43
10 -0.14
13 0.28
14 -0.15
15 -0.15
16 -0.15
17 -0.15
18 -0.15
19 -0.15
2 -0.57
20 -0.15
21 -0.15
22 0.36
24 0.78
25 0.06
26 0.66
27 0.57
3 -0.65
31 0.15
32 0.15
33 0.15
34 0.15
35 0.15
36 0.15
37 0.15
38 0.15
4 -0.57
42 0.37
45 0.5
46 0.37
47 0.37
5 -0.57
6 -0.73
7 -0.8
8 0.29
9 -0.14

> <PUBCHEM_EFFECTIVE_ROTOR_COUNT>
9.2

> <PUBCHEM_PHARMACOPHORE_FEATURES>
10
1 2 acceptor
1 3 acceptor
1 4 acceptor
1 5 acceptor
1 6 donor
1 7 donor
3 3 4 26 anion
5 8 9 10 11 12 rings
6 10 12 15 17 19 21 rings
6 9 11 14 16 18 20 rings

> <PUBCHEM_HEAVY_ATOM_COUNT>
27

> <PUBCHEM_ATOM_DEF_STEREO_COUNT>
0

> <PUBCHEM_ATOM_UDEF_STEREO_COUNT>
1

> <PUBCHEM_BOND_DEF_STEREO_COUNT>
0

> <PUBCHEM_BOND_UDEF_STEREO_COUNT>
0

> <PUBCHEM_ISOTOPIC_ATOM_COUNT>
0

> <PUBCHEM_COMPONENT_COUNT>
1

> <PUBCHEM_CACTVS_TAUTO_COUNT>
4

> <PUBCHEM_CONFORMER_ID>
0001871200000001

> <PUBCHEM_MMFF94_ENERGY>
68.4816

> <PUBCHEM_FEATURE_SELFOVERLAP>
50.969

> <PUBCHEM_SHAPE_FINGERPRINT>
10074138 170 14364324638250270523
11513181 2 18337393850082161957
11720765 8 18338237042874040124
13965767 371 12757976005864080134
14537116 161 18190181187970954581
14950920 106 8502111650920047807
15210252 30 17386301917222791084
16708801 149 13914257446248853335
17349148 13 13398620663175006639
17844677 252 18335985354645082771
17921350 177 18337944589332803892
20775530 9 16267745532441115126
21458453 9 17241634796354678489
21864079 5 18040710398772257497
22393880 68 18129671940236082700
23559900 14 18202561756874993811
238 59 18123485027298980730
312425 83 18410579530080870151
340366 18 18342455898574448935
46194498 28 18339652255365786590
5281201 14 18411421738881925115
633830 44 17967811661064266243
6442390 28 9150589324100304544
7399639 24 17762342817614247403

> <PUBCHEM_SHAPE_MULTIPOLES>
516.34
11.42
4.3
1.99
16.04
2.2
-0.4
0.27
4.44
-1.26
1.56
-0.67
-0.34
0.53

> <PUBCHEM_SHAPE_SELFOVERLAP>
1112.549

> <PUBCHEM_SHAPE_VOLUME>
283.7

> <PUBCHEM_COORDINATE_TYPE>
2
5
10

$$$$
