10018576
  -OEChem-03292013303D

 40 42  0     0  0  0  0  0  0999 V2000
   -3.1353   -0.2024    0.1998 O   0  0  0  0  0  0  0  0  0  0  0  0
    3.5859   -2.0965    0.5550 O   0  0  0  0  0  0  0  0  0  0  0  0
   -4.8374    1.9271   -0.4278 O   0  0  0  0  0  0  0  0  0  0  0  0
    1.5583   -0.8729    0.7822 N   0  0  0  0  0  0  0  0  0  0  0  0
    1.5088   -2.8869   -0.2573 N   0  0  0  0  0  0  0  0  0  0  0  0
   -0.8539   -0.3692    0.5652 N   0  0  0  0  0  0  0  0  0  0  0  0
   -2.0965   -2.1278   -0.5792 N   0  0  0  0  0  0  0  0  0  0  0  0
   -0.9872   -4.0932   -1.3661 N   0  0  0  0  0  0  0  0  0  0  0  0
    0.2322   -1.1292    0.3904 C   0  0  0  0  0  0  0  0  0  0  0  0
    2.0107    0.3056    1.4738 C   0  0  0  0  0  0  0  0  0  0  0  0
    0.2235   -2.3576   -0.2396 C   0  0  0  0  0  0  0  0  0  0  0  0
    2.3819   -1.9640    0.3862 C   0  0  0  0  0  0  0  0  0  0  0  0
    2.4274    1.3900    0.5227 C   0  0  0  0  0  0  0  0  0  0  0  0
   -0.9581   -2.8405   -0.7192 C   0  0  0  0  0  0  0  0  0  0  0  0
   -1.9756   -0.9301    0.0572 C   0  0  0  0  0  0  0  0  0  0  0  0
    1.4905    2.3198    0.0868 C   0  0  0  0  0  0  0  0  0  0  0  0
    3.7457    1.4534    0.0871 C   0  0  0  0  0  0  0  0  0  0  0  0
    1.8775    3.3270   -0.7972 C   0  0  0  0  0  0  0  0  0  0  0  0
    4.1328    2.4607   -0.7967 C   0  0  0  0  0  0  0  0  0  0  0  0
   -3.0212    1.0488    0.8612 C   0  0  0  0  0  0  0  0  0  0  0  0
    3.1986    3.3974   -1.2389 C   0  0  0  0  0  0  0  0  0  0  0  0
   -4.3843    1.7122    0.9034 C   0  0  0  0  0  0  0  0  0  0  0  0
   -6.1244    2.5284   -0.4490 C   0  0  0  0  0  0  0  0  0  0  0  0
    2.8618    0.0288    2.1084 H   0  0  0  0  0  0  0  0  0  0  0  0
    1.2230    0.6578    2.1511 H   0  0  0  0  0  0  0  0  0  0  0  0
    1.7685   -3.7776   -0.6625 H   0  0  0  0  0  0  0  0  0  0  0  0
    0.4594    2.2779    0.4259 H   0  0  0  0  0  0  0  0  0  0  0  0
    4.4828    0.7301    0.4243 H   0  0  0  0  0  0  0  0  0  0  0  0
    1.1502    4.0568   -1.1410 H   0  0  0  0  0  0  0  0  0  0  0  0
    5.1615    2.5157   -1.1407 H   0  0  0  0  0  0  0  0  0  0  0  0
   -1.8839   -4.4204   -1.7034 H   0  0  0  0  0  0  0  0  0  0  0  0
   -0.2879   -4.7819   -1.1177 H   0  0  0  0  0  0  0  0  0  0  0  0
   -2.6581    0.9068    1.8861 H   0  0  0  0  0  0  0  0  0  0  0  0
   -2.3295    1.6944    0.3055 H   0  0  0  0  0  0  0  0  0  0  0  0
    3.5000    4.1818   -1.9270 H   0  0  0  0  0  0  0  0  0  0  0  0
   -4.3187    2.6693    1.4324 H   0  0  0  0  0  0  0  0  0  0  0  0
   -5.0978    1.0597    1.4201 H   0  0  0  0  0  0  0  0  0  0  0  0
   -6.8600    1.8781    0.0341 H   0  0  0  0  0  0  0  0  0  0  0  0
   -6.4193    2.6736   -1.4918 H   0  0  0  0  0  0  0  0  0  0  0  0
   -6.1005    3.5040    0.0461 H   0  0  0  0  0  0  0  0  0  0  0  0
  1 15  1  0  0  0  0
  1 20  1  0  0  0  0
  2 12  2  0  0  0  0
  3 22  1  0  0  0  0
  3 23  1  0  0  0  0
  4  9  1  0  0  0  0
  4 10  1  0  0  0  0
  4 12  1  0  0  0  0
  5 11  1  0  0  0  0
  5 12  1  0  0  0  0
  5 26  1  0  0  0  0
  6  9  2  0  0  0  0
  6 15  1  0  0  0  0
  7 14  1  0  0  0  0
  7 15  2  0  0  0  0
  8 14  1  0  0  0  0
  8 31  1  0  0  0  0
  8 32  1  0  0  0  0
  9 11  1  0  0  0  0
 10 13  1  0  0  0  0
 10 24  1  0  0  0  0
 10 25  1  0  0  0  0
 11 14  2  0  0  0  0
 13 16  2  0  0  0  0
 13 17  1  0  0  0  0
 16 18  1  0  0  0  0
 16 27  1  0  0  0  0
 17 19  2  0  0  0  0
 17 28  1  0  0  0  0
 18 21  2  0  0  0  0
 18 29  1  0  0  0  0
 19 21  1  0  0  0  0
 19 30  1  0  0  0  0
 20 22  1  0  0  0  0
 20 33  1  0  0  0  0
 20 34  1  0  0  0  0
 21 35  1  0  0  0  0
 22 36  1  0  0  0  0
 22 37  1  0  0  0  0
 23 38  1  0  0  0  0
 23 39  1  0  0  0  0
 23 40  1  0  0  0  0
M  END
> <PUBCHEM_COMPOUND_CID>
10018576

> <PUBCHEM_CONFORMER_RMSD>
0.8

> <PUBCHEM_CONFORMER_DIVERSEORDER>
1
39
16
30
40
66
14
2
78
23
75
63
76
15
61
67
3
29
71
55
51
49
69
48
43
37
34
53
5
42
64
35
32
11
10
26
7
21
47
73
72
27
77
33
20
68
50
22
54
52
9
65
36
12
58
25
38
17
41
46
45
13
57
44
70
56
28
60
74
59
8
19
24
18
62
31
4
6

> <PUBCHEM_MMFF94_PARTIAL_CHARGES>
31
1 -0.36
10 0.44
11 0.12
12 0.69
13 -0.14
14 0.41
15 0.7
16 -0.15
17 -0.15
18 -0.15
19 -0.15
2 -0.57
20 0.28
21 -0.15
22 0.28
23 0.28
26 0.37
27 0.15
28 0.15
29 0.15
3 -0.56
30 0.15
31 0.4
32 0.4
35 0.15
4 -0.48
5 -0.55
6 -0.62
7 -0.62
8 -0.9
9 0.43

> <PUBCHEM_EFFECTIVE_ROTOR_COUNT>
6

> <PUBCHEM_PHARMACOPHORE_FEATURES>
9
1 2 acceptor
1 3 acceptor
1 5 donor
1 8 cation
1 8 donor
3 6 7 15 cation
5 4 5 9 11 12 rings
6 13 16 17 18 19 21 rings
6 6 7 9 11 14 15 rings

> <PUBCHEM_HEAVY_ATOM_COUNT>
23

> <PUBCHEM_ATOM_DEF_STEREO_COUNT>
0

> <PUBCHEM_ATOM_UDEF_STEREO_COUNT>
0

> <PUBCHEM_BOND_DEF_STEREO_COUNT>
0

> <PUBCHEM_BOND_UDEF_STEREO_COUNT>
0

> <PUBCHEM_ISOTOPIC_ATOM_COUNT>
0

> <PUBCHEM_COMPONENT_COUNT>
1

> <PUBCHEM_CACTVS_TAUTO_COUNT>
6

> <PUBCHEM_CONFORMER_ID>
0098DF1000000001

> <PUBCHEM_MMFF94_ENERGY>
76.0061

> <PUBCHEM_FEATURE_SELFOVERLAP>
45.786

> <PUBCHEM_SHAPE_FINGERPRINT>
10483366 6 18195266429285705436
10498660 4 17691396834137666598
10871710 139 17831870418491359517
10937287 8 18264775543579583580
12173636 292 17907295812276143668
12403259 327 17386006101123062195
12422481 6 18191841506526690016
12788726 201 17690559006219168486
13583140 156 17749379318405407907
13965767 371 18191840462327722216
14251751 93 18122915484143349044
15342168 16 18409164399051161949
16752209 62 18055066820489849825
17134986 127 18411145744183159820
17980427 26 17531234059005920138
18785283 64 18266192651391026267
20739085 24 17766860328646406066
21285901 2 17554613890129795198
21475661 188 18115022983932374849
21860390 5 18127130767095710341
22149856 69 18202286867538980185
23558518 356 18337380647332497475
3060560 45 18056756529402062895
397830 11 18042989618575675921
474 4 18340764820089998857
5048184 11 18338802333062541193
5283173 99 17837782484457460432
7832392 63 18410855499252346464

> <PUBCHEM_SHAPE_MULTIPOLES>
430.82
8.93
5.2
1.1
10.69
1.37
0
-11.02
-0.7
-0.47
-2.27
-0.2
-0.04
-1.64

> <PUBCHEM_SHAPE_SELFOVERLAP>
924.825

> <PUBCHEM_SHAPE_VOLUME>
235.2

> <PUBCHEM_COORDINATE_TYPE>
2
5
10

$$$$
