10013538
  -OEChem-03292013303D

 27 27  0     1  0  0  0  0  0999 V2000
   -2.2148    2.4000   -0.3620 O   0  0  0  0  0  0  0  0  0  0  0  0
    0.1651    1.8084    1.2438 O   0  0  0  0  0  0  0  0  0  0  0  0
   -3.9680    0.1351   -0.4225 O   0  0  0  0  0  0  0  0  0  0  0  0
    2.3533   -0.0435   -0.3799 O   0  0  0  0  0  0  0  0  0  0  0  0
   -2.8617   -2.3017   -0.0757 O   0  0  0  0  0  0  0  0  0  0  0  0
    4.3093   -0.6624    0.6823 O   0  0  0  0  0  0  0  0  0  0  0  0
   -1.8858    1.1321    0.2121 C   0  0  2  0  0  0  0  0  0  0  0  0
   -0.3595    0.9936    0.1922 C   0  0  2  0  0  0  0  0  0  0  0  0
   -2.5632    0.0345   -0.5947 C   0  0  1  0  0  0  0  0  0  0  0  0
    0.1232   -0.4270    0.3732 C   0  0  0  0  0  0  0  0  0  0  0  0
   -2.1092   -1.3304   -0.1175 C   0  0  0  0  0  0  0  0  0  0  0  0
   -0.6833   -1.4935    0.2560 C   0  0  0  0  0  0  0  0  0  0  0  0
    1.5877   -0.6109    0.6647 C   0  0  0  0  0  0  0  0  0  0  0  0
    3.7148   -0.1369   -0.2491 C   0  0  0  0  0  0  0  0  0  0  0  0
    4.3920    0.5028   -1.4230 C   0  0  0  0  0  0  0  0  0  0  0  0
   -2.2650    1.1528    1.2414 H   0  0  0  0  0  0  0  0  0  0  0  0
    0.0374    1.3927   -0.7500 H   0  0  0  0  0  0  0  0  0  0  0  0
   -2.3478    0.1315   -1.6650 H   0  0  0  0  0  0  0  0  0  0  0  0
   -0.3254   -2.5068    0.4026 H   0  0  0  0  0  0  0  0  0  0  0  0
    1.8370   -1.6763    0.7498 H   0  0  0  0  0  0  0  0  0  0  0  0
    1.8411   -0.1353    1.6197 H   0  0  0  0  0  0  0  0  0  0  0  0
   -1.9278    2.3949   -1.2911 H   0  0  0  0  0  0  0  0  0  0  0  0
    1.0978    1.9922    1.0386 H   0  0  0  0  0  0  0  0  0  0  0  0
   -4.3828   -0.5151   -1.0151 H   0  0  0  0  0  0  0  0  0  0  0  0
    4.1218    1.5605   -1.4746 H   0  0  0  0  0  0  0  0  0  0  0  0
    4.1047   -0.0135   -2.3423 H   0  0  0  0  0  0  0  0  0  0  0  0
    5.4765    0.4253   -1.3032 H   0  0  0  0  0  0  0  0  0  0  0  0
  1  7  1  0  0  0  0
  1 22  1  0  0  0  0
  2  8  1  0  0  0  0
  2 23  1  0  0  0  0
  3  9  1  0  0  0  0
  3 24  1  0  0  0  0
  4 13  1  0  0  0  0
  4 14  1  0  0  0  0
  5 11  2  0  0  0  0
  6 14  2  0  0  0  0
  7  8  1  0  0  0  0
  7  9  1  0  0  0  0
  7 16  1  0  0  0  0
  8 10  1  0  0  0  0
  8 17  1  0  0  0  0
  9 11  1  0  0  0  0
  9 18  1  0  0  0  0
 10 12  2  0  0  0  0
 10 13  1  0  0  0  0
 11 12  1  0  0  0  0
 12 19  1  0  0  0  0
 13 20  1  0  0  0  0
 13 21  1  0  0  0  0
 14 15  1  0  0  0  0
 15 25  1  0  0  0  0
 15 26  1  0  0  0  0
 15 27  1  0  0  0  0
M  END
> <PUBCHEM_COMPOUND_CID>
10013538

> <PUBCHEM_CONFORMER_RMSD>
0.6

> <PUBCHEM_CONFORMER_DIVERSEORDER>
1
15
16
37
31
18
10
33
24
5
6
30
7
17
21
34
36
35
32
23
19
9
12
4
14
26
28
11
22
25
20
3
2
27
29
8
13

> <PUBCHEM_MMFF94_PARTIAL_CHARGES>
19
1 -0.68
10 -0.28
11 0.49
12 -0.14
13 0.42
14 0.66
15 0.06
19 0.15
2 -0.68
22 0.4
23 0.4
24 0.4
3 -0.68
4 -0.43
5 -0.57
6 -0.57
7 0.28
8 0.42
9 0.34

> <PUBCHEM_EFFECTIVE_ROTOR_COUNT>
3.6

> <PUBCHEM_PHARMACOPHORE_FEATURES>
9
1 1 acceptor
1 1 donor
1 2 acceptor
1 2 donor
1 3 acceptor
1 3 donor
1 5 acceptor
1 6 acceptor
6 7 8 9 10 11 12 rings

> <PUBCHEM_HEAVY_ATOM_COUNT>
15

> <PUBCHEM_ATOM_DEF_STEREO_COUNT>
3

> <PUBCHEM_ATOM_UDEF_STEREO_COUNT>
0

> <PUBCHEM_BOND_DEF_STEREO_COUNT>
0

> <PUBCHEM_BOND_UDEF_STEREO_COUNT>
0

> <PUBCHEM_ISOTOPIC_ATOM_COUNT>
0

> <PUBCHEM_COMPONENT_COUNT>
1

> <PUBCHEM_CACTVS_TAUTO_COUNT>
31

> <PUBCHEM_CONFORMER_ID>
0098CB6200000001

> <PUBCHEM_MMFF94_ENERGY>
18.585

> <PUBCHEM_FEATURE_SELFOVERLAP>
45.688

> <PUBCHEM_SHAPE_FINGERPRINT>
10465860 71 18342465871657133484
11206711 2 18340474608796529645
13024252 1 17458348546071743323
13296908 3 17346599668987394438
14911166 2 18340757196449182455
15669948 3 18410287017064952462
15775835 57 17967820418507649492
16945 1 18339062836035140363
20279233 1 17489585658674531822
20645476 183 17894906334934594707
20645477 70 16486978341598558070
20871999 31 18343299228340784949
21061003 4 17131842000750245770
23402539 116 18341038653628982014
23557571 272 17988368083365532532
23559900 14 18201152145289269554
2748010 2 18051393348326433243
528716 315 18411423924935785270
53812653 8 18335978654295205547
573450 72 18261379023939540930
77492 1 17894625933815454010

> <PUBCHEM_SHAPE_MULTIPOLES>
273.48
7.25
1.91
0.95
7.03
0.25
-0.04
-0.48
-2.2
-1.87
0.14
0.65
0.19
-0.36

> <PUBCHEM_SHAPE_SELFOVERLAP>
556.71

> <PUBCHEM_SHAPE_VOLUME>
156.8

> <PUBCHEM_COORDINATE_TYPE>
2
5
10

$$$$
