10019503
  -OEChem-03292013303D

 34 35  0     0  0  0  0  0  0999 V2000
    1.4329    1.6861    1.4508 O   0  0  0  0  0  0  0  0  0  0  0  0
   -3.2723    0.7376    2.4339 O   0  0  0  0  0  0  0  0  0  0  0  0
    5.5433    0.1462    0.9558 O   0  0  0  0  0  0  0  0  0  0  0  0
    1.6362    2.3376   -0.7174 O   0  0  0  0  0  0  0  0  0  0  0  0
   -4.5915    1.3679   -1.7816 O   0  0  0  0  0  0  0  0  0  0  0  0
   -3.8631   -1.4285    2.0799 O   0  0  0  0  0  0  0  0  0  0  0  0
    4.4360    1.9041    0.0335 O   0  0  0  0  0  0  0  0  0  0  0  0
   -5.2858   -0.0541   -0.1499 O   0  0  0  0  0  0  0  0  0  0  0  0
    1.1528   -0.8899   -0.4208 C   0  0  0  0  0  0  0  0  0  0  0  0
   -0.2520   -0.5562   -0.5126 C   0  0  0  0  0  0  0  0  0  0  0  0
    2.1129    0.0743   -0.1055 C   0  0  0  0  0  0  0  0  0  0  0  0
   -1.0663   -0.6425    0.6166 C   0  0  0  0  0  0  0  0  0  0  0  0
   -0.7917   -0.1473   -1.7321 C   0  0  0  0  0  0  0  0  0  0  0  0
   -2.4204   -0.3198    0.5265 C   0  0  0  0  0  0  0  0  0  0  0  0
    3.4597   -0.2794   -0.0239 C   0  0  0  0  0  0  0  0  0  0  0  0
    1.5465   -2.2093   -0.6541 C   0  0  0  0  0  0  0  0  0  0  0  0
   -2.9602    0.0891   -0.6930 C   0  0  0  0  0  0  0  0  0  0  0  0
   -2.1460    0.1752   -1.8222 C   0  0  0  0  0  0  0  0  0  0  0  0
    3.8500   -1.5981   -0.2577 C   0  0  0  0  0  0  0  0  0  0  0  0
    2.8934   -2.5630   -0.5729 C   0  0  0  0  0  0  0  0  0  0  0  0
    1.7154    1.4592    0.1416 C   0  0  0  0  0  0  0  0  0  0  0  0
   -3.2461   -0.4217    1.7229 C   0  0  0  0  0  0  0  0  0  0  0  0
    4.4874    0.7015    0.3028 C   0  0  0  0  0  0  0  0  0  0  0  0
   -4.3711    0.4308   -0.8208 C   0  0  0  0  0  0  0  0  0  0  0  0
   -0.6493   -0.9611    1.5702 H   0  0  0  0  0  0  0  0  0  0  0  0
   -0.1712   -0.0768   -2.6225 H   0  0  0  0  0  0  0  0  0  0  0  0
    0.8157   -2.9761   -0.9016 H   0  0  0  0  0  0  0  0  0  0  0  0
   -2.5381    0.4771   -2.7898 H   0  0  0  0  0  0  0  0  0  0  0  0
    4.8921   -1.9042   -0.2162 H   0  0  0  0  0  0  0  0  0  0  0  0
    3.1972   -3.5892   -0.7582 H   0  0  0  0  0  0  0  0  0  0  0  0
    1.1646    2.6159    1.6111 H   0  0  0  0  0  0  0  0  0  0  0  0
   -3.8299    0.6605    3.2374 H   0  0  0  0  0  0  0  0  0  0  0  0
    6.2301    0.8124    1.1723 H   0  0  0  0  0  0  0  0  0  0  0  0
   -5.5432    1.5926   -1.8611 H   0  0  0  0  0  0  0  0  0  0  0  0
  1 21  1  0  0  0  0
  1 31  1  0  0  0  0
  2 22  1  0  0  0  0
  2 32  1  0  0  0  0
  3 23  1  0  0  0  0
  3 33  1  0  0  0  0
  4 21  2  0  0  0  0
  5 24  1  0  0  0  0
  5 34  1  0  0  0  0
  6 22  2  0  0  0  0
  7 23  2  0  0  0  0
  8 24  2  0  0  0  0
  9 10  1  0  0  0  0
  9 11  2  0  0  0  0
  9 16  1  0  0  0  0
 10 12  2  0  0  0  0
 10 13  1  0  0  0  0
 11 15  1  0  0  0  0
 11 21  1  0  0  0  0
 12 14  1  0  0  0  0
 12 25  1  0  0  0  0
 13 18  2  0  0  0  0
 13 26  1  0  0  0  0
 14 17  2  0  0  0  0
 14 22  1  0  0  0  0
 15 19  2  0  0  0  0
 15 23  1  0  0  0  0
 16 20  2  0  0  0  0
 16 27  1  0  0  0  0
 17 18  1  0  0  0  0
 17 24  1  0  0  0  0
 18 28  1  0  0  0  0
 19 20  1  0  0  0  0
 19 29  1  0  0  0  0
 20 30  1  0  0  0  0
M  END
> <PUBCHEM_COMPOUND_CID>
10019503

> <PUBCHEM_CONFORMER_RMSD>
0.8

> <PUBCHEM_CONFORMER_DIVERSEORDER>
1
3
7
6
8
5
4
2

> <PUBCHEM_MMFF94_PARTIAL_CHARGES>
32
1 -0.65
11 0.09
12 -0.15
13 -0.15
14 0.09
15 0.09
16 -0.15
17 0.09
18 -0.15
19 -0.15
2 -0.65
20 -0.15
21 0.63
22 0.63
23 0.63
24 0.63
25 0.15
26 0.15
27 0.15
28 0.15
29 0.15
3 -0.65
30 0.15
31 0.5
32 0.5
33 0.5
34 0.5
4 -0.57
5 -0.65
6 -0.57
7 -0.57
8 -0.57

> <PUBCHEM_EFFECTIVE_ROTOR_COUNT>
5

> <PUBCHEM_PHARMACOPHORE_FEATURES>
14
1 1 acceptor
1 2 acceptor
1 3 acceptor
1 4 acceptor
1 5 acceptor
1 6 acceptor
1 7 acceptor
1 8 acceptor
3 1 4 21 anion
3 2 6 22 anion
3 3 7 23 anion
3 5 8 24 anion
6 10 12 13 14 17 18 rings
6 9 11 15 16 19 20 rings

> <PUBCHEM_HEAVY_ATOM_COUNT>
24

> <PUBCHEM_ATOM_DEF_STEREO_COUNT>
0

> <PUBCHEM_ATOM_UDEF_STEREO_COUNT>
0

> <PUBCHEM_BOND_DEF_STEREO_COUNT>
0

> <PUBCHEM_BOND_UDEF_STEREO_COUNT>
0

> <PUBCHEM_ISOTOPIC_ATOM_COUNT>
0

> <PUBCHEM_COMPONENT_COUNT>
1

> <PUBCHEM_CACTVS_TAUTO_COUNT>
1

> <PUBCHEM_CONFORMER_ID>
0098E2AF00000001

> <PUBCHEM_MMFF94_ENERGY>
94.3382

> <PUBCHEM_FEATURE_SELFOVERLAP>
71.288

> <PUBCHEM_SHAPE_FINGERPRINT>
11640471 11 17346325907328894218
11796584 16 17023465227582790954
12236239 1 17274818043271922622
12293681 4 18040431053835990629
12507557 5 18201437017004752193
12633257 1 18115322179353019858
12670546 56 17275100609439091824
13134695 92 18201434749072394976
13140716 1 18125434457124977736
13583140 156 18271806882279883927
14386348 63 18040716943832859478
15375358 24 18114176415206725455
16752209 62 15554440782667351135
17349148 13 16630519622932242679
1813 80 17414449294798640694
18219364 16 18409448111093754446
18785283 64 18043540618985469828
200 152 17917423225196354967
20511986 3 17417796310644395200
20600515 1 16805324370819699957
20645477 70 18341608166540780286
20739085 24 18198924542994178206
21033648 29 18334284375617813713
23557571 272 17530692004131475839
23559900 14 17313671417281289678
3268164 11 14476953459570168433
350125 39 17980760768444715126
4409770 3 15035455583098101495
474 4 18201997768035151082
602551 16 16732988638884055258
633830 44 17702403795835184222
7495541 125 17385728032229567844
77492 1 17346876724036920134
8272917 22 18272088262366426934

> <PUBCHEM_SHAPE_MULTIPOLES>
446.95
10.25
1.98
1.71
0.99
0.18
0.46
-1.49
1.18
-2.47
-0.08
2.68
-0.2
0.78

> <PUBCHEM_SHAPE_SELFOVERLAP>
989.158

> <PUBCHEM_SHAPE_VOLUME>
238.6

> <PUBCHEM_COORDINATE_TYPE>
2
5
10

$$$$
