10017108
  -OEChem-03292013303D

 29 31  0     1  0  0  0  0  0999 V2000
   -0.8923    2.9983    0.0239 S   0  0  0  0  0  0  0  0  0  0  0  0
    5.6989   -0.6284   -0.1343 S   0  0  0  0  0  0  0  0  0  0  0  0
    1.3332   -0.0545    2.1522 O   0  0  0  0  0  0  0  0  0  0  0  0
   -0.0811   -1.9869   -0.2462 O   0  0  0  0  0  0  0  0  0  0  0  0
   -0.0999    0.3691   -0.1293 N   0  0  0  0  0  0  0  0  0  0  0  0
    3.2889   -0.2792    0.9629 N   0  0  0  0  0  0  0  0  0  0  0  0
    1.3118    0.6515   -0.1610 C   0  0  2  0  0  0  0  0  0  0  0  0
    1.9543    0.0962   -1.4241 C   0  0  0  0  0  0  0  0  0  0  0  0
    3.4457    0.3884   -1.4068 C   0  0  0  0  0  0  0  0  0  0  0  0
    1.9415    0.0553    1.0877 C   0  0  0  0  0  0  0  0  0  0  0  0
   -1.0827    1.3438   -0.0502 C   0  0  0  0  0  0  0  0  0  0  0  0
   -0.6327   -0.9039   -0.1743 C   0  0  0  0  0  0  0  0  0  0  0  0
   -2.3623    0.6229   -0.0438 C   0  0  0  0  0  0  0  0  0  0  0  0
   -2.0820   -0.7348   -0.1187 C   0  0  0  0  0  0  0  0  0  0  0  0
    4.0856   -0.1839   -0.1639 C   0  0  0  0  0  0  0  0  0  0  0  0
   -3.6685    1.0761    0.0208 C   0  0  0  0  0  0  0  0  0  0  0  0
   -3.0731   -1.6970   -0.1335 C   0  0  0  0  0  0  0  0  0  0  0  0
   -4.6901    0.1204    0.0076 C   0  0  0  0  0  0  0  0  0  0  0  0
   -4.3950   -1.2534   -0.0691 C   0  0  0  0  0  0  0  0  0  0  0  0
    1.5081    1.7266   -0.1117 H   0  0  0  0  0  0  0  0  0  0  0  0
    1.4981    0.5489   -2.3126 H   0  0  0  0  0  0  0  0  0  0  0  0
    1.8126   -0.9874   -1.5099 H   0  0  0  0  0  0  0  0  0  0  0  0
    3.6232    1.4711   -1.4168 H   0  0  0  0  0  0  0  0  0  0  0  0
    3.9115   -0.0296   -2.3066 H   0  0  0  0  0  0  0  0  0  0  0  0
    3.7343   -0.6525    1.7967 H   0  0  0  0  0  0  0  0  0  0  0  0
   -3.9138    2.1302    0.0801 H   0  0  0  0  0  0  0  0  0  0  0  0
   -2.8439   -2.7546   -0.1925 H   0  0  0  0  0  0  0  0  0  0  0  0
   -5.7272    0.4419    0.0570 H   0  0  0  0  0  0  0  0  0  0  0  0
   -5.2072   -1.9754   -0.0780 H   0  0  0  0  0  0  0  0  0  0  0  0
  1 11  2  0  0  0  0
  2 15  2  0  0  0  0
  3 10  2  0  0  0  0
  4 12  2  0  0  0  0
  5  7  1  0  0  0  0
  5 11  1  0  0  0  0
  5 12  1  0  0  0  0
  6 10  1  0  0  0  0
  6 15  1  0  0  0  0
  6 25  1  0  0  0  0
  7  8  1  0  0  0  0
  7 10  1  0  0  0  0
  7 20  1  0  0  0  0
  8  9  1  0  0  0  0
  8 21  1  0  0  0  0
  8 22  1  0  0  0  0
  9 15  1  0  0  0  0
  9 23  1  0  0  0  0
  9 24  1  0  0  0  0
 11 13  1  0  0  0  0
 12 14  1  0  0  0  0
 13 14  1  0  0  0  0
 13 16  2  0  0  0  0
 14 17  2  0  0  0  0
 16 18  1  0  0  0  0
 16 26  1  0  0  0  0
 17 19  1  0  0  0  0
 17 27  1  0  0  0  0
 18 19  2  0  0  0  0
 18 28  1  0  0  0  0
 19 29  1  0  0  0  0
M  END
> <PUBCHEM_COMPOUND_CID>
10017108

> <PUBCHEM_CONFORMER_RMSD>
0.6

> <PUBCHEM_CONFORMER_DIVERSEORDER>
1
6
5
4
3
2

> <PUBCHEM_MMFF94_PARTIAL_CHARGES>
23
1 -0.38
10 0.57
11 0.35
12 0.54
13 0.09
14 0.09
15 0.38
16 -0.15
17 -0.15
18 -0.15
19 -0.15
2 -0.38
25 0.37
26 0.15
27 0.15
28 0.15
29 0.15
3 -0.57
4 -0.57
5 -0.42
6 -0.49
7 0.36
9 0.06

> <PUBCHEM_EFFECTIVE_ROTOR_COUNT>
2

> <PUBCHEM_PHARMACOPHORE_FEATURES>
8
1 1 acceptor
1 2 acceptor
1 3 acceptor
1 4 acceptor
1 6 donor
5 5 11 12 13 14 rings
6 13 14 16 17 18 19 rings
6 6 7 8 9 10 15 rings

> <PUBCHEM_HEAVY_ATOM_COUNT>
19

> <PUBCHEM_ATOM_DEF_STEREO_COUNT>
0

> <PUBCHEM_ATOM_UDEF_STEREO_COUNT>
1

> <PUBCHEM_BOND_DEF_STEREO_COUNT>
0

> <PUBCHEM_BOND_UDEF_STEREO_COUNT>
0

> <PUBCHEM_ISOTOPIC_ATOM_COUNT>
0

> <PUBCHEM_COMPONENT_COUNT>
1

> <PUBCHEM_CACTVS_TAUTO_COUNT>
3

> <PUBCHEM_CONFORMER_ID>
0098D95400000001

> <PUBCHEM_MMFF94_ENERGY>
54.7668

> <PUBCHEM_FEATURE_SELFOVERLAP>
40.687

> <PUBCHEM_SHAPE_FINGERPRINT>
10062212 137 18334013917290070719
12236239 1 17894351072966988276
12553582 1 18335411400942874195
13140716 1 18340210799331881681
13288520 33 18411702075734357430
13581323 91 18410851053892603828
13760787 19 17385720309952268019
13862211 1 18340205288941594863
14115302 16 17821734978493237822
14386348 63 17489591156000367326
15375462 189 17967529077943704241
16752209 62 18262223457274880317
16945 1 18411979179030381661
17804303 29 18271806856451856633
18186145 218 16588024658080748638
18222031 100 18269544083165522151
18785283 64 16915927660241810400
19141452 34 17561083648496455431
19422 9 17967814967846081978
19862831 5 17821730550149762684
200 152 17168143433719140220
20028762 73 17914898871302064175
20279233 1 17489593363233794950
20510252 161 18270963444691304208
20600515 1 18271536354832374349
20645477 70 14707199977782218440
21029758 27 18261116313648611341
21267235 1 18408892862544300019
2297311 6 18342465824475783780
23175994 123 16917072157140681976
23402539 116 18412822482198674236
23557571 272 18201441329247323932
23559900 14 18343301483667847260
26918003 58 16200434684344188175
2748010 2 18268418217602950829
3286 77 16845569859176339009
335352 9 18411136944628666005
350125 39 17691416213325706545
4340502 62 14764630837091444975
465052 167 18190755326351137291
474 4 17170123783601004900
5104073 3 18340492265111723952
59755656 215 18338800000689532647
67856867 119 18189339133936610020
69090 78 16988839505852339695
7364860 26 17911240834322265193
7495541 125 18059573624648210736
77492 1 17821729429237274780
8272917 22 16733537218024610179

> <PUBCHEM_SHAPE_MULTIPOLES>
377.01
9.48
1.91
1.12
4.98
1.04
0.24
-2.71
-0.62
-1.67
-0.07
1.07
0.02
-0.23

> <PUBCHEM_SHAPE_SELFOVERLAP>
807.977

> <PUBCHEM_SHAPE_VOLUME>
212

> <PUBCHEM_COORDINATE_TYPE>
2
5
10

$$$$
