10018499
  -OEChem-03292013303D

 37 39  0     1  0  0  0  0  0999 V2000
    0.5318    0.5913   -0.0757 O   0  0  0  0  0  0  0  0  0  0  0  0
    1.2217   -0.7072    1.7637 O   0  0  0  0  0  0  0  0  0  0  0  0
   -0.7064   -3.3028   -0.3891 O   0  0  0  0  0  0  0  0  0  0  0  0
   -3.1643   -2.5428   -0.1917 O   0  0  0  0  0  0  0  0  0  0  0  0
   -3.9471    2.1411    0.1138 O   0  0  0  0  0  0  0  0  0  0  0  0
   -1.9535    3.6899    0.1445 O   0  0  0  0  0  0  0  0  0  0  0  0
    1.4109   -0.4605    0.3614 C   0  0  1  0  0  0  0  0  0  0  0  0
    1.1290   -1.7584   -0.4078 C   0  0  0  0  0  0  0  0  0  0  0  0
   -1.2828   -1.0313   -0.1437 C   0  0  0  0  0  0  0  0  0  0  0  0
   -0.7987    0.2744   -0.0619 C   0  0  0  0  0  0  0  0  0  0  0  0
   -0.3255   -2.1415   -0.2984 C   0  0  0  0  0  0  0  0  0  0  0  0
    2.8613   -0.0415    0.1033 C   0  0  0  0  0  0  0  0  0  0  0  0
   -2.6580   -1.2784   -0.1203 C   0  0  0  0  0  0  0  0  0  0  0  0
   -1.6951    1.3419    0.0109 C   0  0  0  0  0  0  0  0  0  0  0  0
   -3.5489   -0.2088   -0.0280 C   0  0  0  0  0  0  0  0  0  0  0  0
   -3.0688    1.0993    0.0326 C   0  0  0  0  0  0  0  0  0  0  0  0
    3.1632    0.7935   -0.9711 C   0  0  0  0  0  0  0  0  0  0  0  0
    3.8766   -0.4956    0.9437 C   0  0  0  0  0  0  0  0  0  0  0  0
   -5.0234   -0.4618   -0.0019 C   0  0  0  0  0  0  0  0  0  0  0  0
   -1.2043    2.7153    0.0797 C   0  0  0  0  0  0  0  0  0  0  0  0
    4.4840    1.1754   -1.2063 C   0  0  0  0  0  0  0  0  0  0  0  0
    5.1973   -0.1135    0.7087 C   0  0  0  0  0  0  0  0  0  0  0  0
    5.5010    0.7220   -0.3664 C   0  0  0  0  0  0  0  0  0  0  0  0
    1.7245   -2.5835    0.0018 H   0  0  0  0  0  0  0  0  0  0  0  0
    1.3528   -1.6528   -1.4763 H   0  0  0  0  0  0  0  0  0  0  0  0
    0.5560   -1.4026    1.8877 H   0  0  0  0  0  0  0  0  0  0  0  0
    2.3905    1.1505   -1.6462 H   0  0  0  0  0  0  0  0  0  0  0  0
    3.6680   -1.1563    1.7803 H   0  0  0  0  0  0  0  0  0  0  0  0
   -5.4662   -0.0507    0.9121 H   0  0  0  0  0  0  0  0  0  0  0  0
   -5.5031   -0.0100   -0.8771 H   0  0  0  0  0  0  0  0  0  0  0  0
   -5.2810   -1.5252   -0.0165 H   0  0  0  0  0  0  0  0  0  0  0  0
   -0.1136    2.8726    0.0710 H   0  0  0  0  0  0  0  0  0  0  0  0
    4.7211    1.8236   -2.0449 H   0  0  0  0  0  0  0  0  0  0  0  0
    5.9900   -0.4688    1.3606 H   0  0  0  0  0  0  0  0  0  0  0  0
    6.5296    1.0182   -0.5502 H   0  0  0  0  0  0  0  0  0  0  0  0
   -2.4545   -3.2006   -0.1412 H   0  0  0  0  0  0  0  0  0  0  0  0
   -4.8673    1.8397    0.0768 H   0  0  0  0  0  0  0  0  0  0  0  0
  1  7  1  0  0  0  0
  1 10  1  0  0  0  0
  2  7  1  0  0  0  0
  2 26  1  0  0  0  0
  3 11  2  0  0  0  0
  4 13  1  0  0  0  0
  4 36  1  0  0  0  0
  5 16  1  0  0  0  0
  5 37  1  0  0  0  0
  6 20  2  0  0  0  0
  7  8  1  0  0  0  0
  7 12  1  0  0  0  0
  8 11  1  0  0  0  0
  8 24  1  0  0  0  0
  8 25  1  0  0  0  0
  9 10  1  0  0  0  0
  9 11  1  0  0  0  0
  9 13  2  0  0  0  0
 10 14  2  0  0  0  0
 12 17  2  0  0  0  0
 12 18  1  0  0  0  0
 13 15  1  0  0  0  0
 14 16  1  0  0  0  0
 14 20  1  0  0  0  0
 15 16  2  0  0  0  0
 15 19  1  0  0  0  0
 17 21  1  0  0  0  0
 17 27  1  0  0  0  0
 18 22  2  0  0  0  0
 18 28  1  0  0  0  0
 19 29  1  0  0  0  0
 19 30  1  0  0  0  0
 19 31  1  0  0  0  0
 20 32  1  0  0  0  0
 21 23  2  0  0  0  0
 21 33  1  0  0  0  0
 22 23  1  0  0  0  0
 22 34  1  0  0  0  0
 23 35  1  0  0  0  0
M  END
> <PUBCHEM_COMPOUND_CID>
10018499

> <PUBCHEM_CONFORMER_RMSD>
0.6

> <PUBCHEM_CONFORMER_DIVERSEORDER>
1
7
5
6
2
3
4

> <PUBCHEM_MMFF94_PARTIAL_CHARGES>
32
1 -0.36
10 0.08
11 0.42
12 -0.14
13 0.08
14 0.09
15 -0.14
16 0.08
17 -0.15
18 -0.15
19 0.14
2 -0.68
20 0.42
21 -0.15
22 -0.15
23 -0.15
26 0.4
27 0.15
28 0.15
3 -0.57
32 0.06
33 0.15
34 0.15
35 0.15
36 0.45
37 0.45
4 -0.53
5 -0.53
6 -0.57
7 0.7
8 0.06
9 0.09

> <PUBCHEM_EFFECTIVE_ROTOR_COUNT>
2.6

> <PUBCHEM_PHARMACOPHORE_FEATURES>
10
1 1 acceptor
1 2 acceptor
1 2 donor
1 3 acceptor
1 4 donor
1 5 donor
1 6 acceptor
6 1 7 8 9 10 11 rings
6 12 17 18 21 22 23 rings
6 9 10 13 14 15 16 rings

> <PUBCHEM_HEAVY_ATOM_COUNT>
23

> <PUBCHEM_ATOM_DEF_STEREO_COUNT>
0

> <PUBCHEM_ATOM_UDEF_STEREO_COUNT>
1

> <PUBCHEM_BOND_DEF_STEREO_COUNT>
0

> <PUBCHEM_BOND_UDEF_STEREO_COUNT>
0

> <PUBCHEM_ISOTOPIC_ATOM_COUNT>
0

> <PUBCHEM_COMPONENT_COUNT>
1

> <PUBCHEM_CACTVS_TAUTO_COUNT>
27

> <PUBCHEM_CONFORMER_ID>
0098DEC300000001

> <PUBCHEM_MMFF94_ENERGY>
73.8101

> <PUBCHEM_FEATURE_SELFOVERLAP>
50.816

> <PUBCHEM_SHAPE_FINGERPRINT>
10319926 262 18199445776431362450
10369192 42 16481322715810536696
10411042 1 17979353389245751655
10498660 4 18411137996094079357
10670039 82 18336839602223332988
10730089 173 18410298038541663500
10759866 29 18260547801554286250
10906281 52 18337123285024021825
10967382 1 18411981360631252847
1100329 8 18266181819504682457
12011746 2 18342170086118300967
12107183 9 17685484356920783938
12173636 292 18340199700714103364
12236239 1 17967530190144957254
12390115 104 18058463023225238977
12403814 3 17675919902464754981
12553582 1 18267578181881423499
12788726 201 18410299116040521184
12916748 109 18411705383091160348
13140716 1 18339926047131282089
13965767 371 17609501523119671484
14739800 52 18194672886623963712
14787075 74 17750520765677104651
14790565 3 18340498793990209489
15042514 8 18338237179775222171
15183329 4 18338812122252786942
15196674 1 18339361864079167359
15256400 18 18267019462760887142
16087824 20 18413384338481138815
16752209 62 18340473543296662291
17492 89 18262798463059850122
17818456 19 18266170648537352018
19591789 44 18267304420586484929
20510252 161 18271807878316677473
20715895 44 17610607627902269605
21033650 10 18193865711744261940
21267235 1 18336272318051738883
21524375 3 18260832549348791384
2297311 6 18343312478388447332
23175994 123 16702026412878313968
23366157 5 17973166119087658554
23402539 116 18342733065498475934
23557571 272 18202294597224728028
23558518 356 18046911476806731651
23559900 14 18200599082182051158
2748010 2 17906737995225203543
335352 9 18339641239829551623
350125 39 18195813968337643038
469060 322 18340506512061726273
474 4 17458632250305292180
474229 33 18410856564214624087
5104073 3 18338235955582287090
5486654 2 18412547613240341197
58051976 378 18341331106600084508
59755656 215 18341898425026161734
7064713 232 18337952290505070724
7097593 13 17826776058986946082
7808743 9 18411418371743960472
9981440 41 18335703793473607979

> <PUBCHEM_SHAPE_MULTIPOLES>
438.11
9.86
2.95
0.91
7.31
0.7
0.11
2
-0.27
-3.05
-0.23
0.88
-0.04
-0.84

> <PUBCHEM_SHAPE_SELFOVERLAP>
974.961

> <PUBCHEM_SHAPE_VOLUME>
231.1

> <PUBCHEM_COORDINATE_TYPE>
2
5
10

$$$$
