100187
  -OEChem-03292013323D

 19 20  0     0  0  0  0  0  0999 V2000
   -1.8860   -1.4224   -0.0004 S   0  0  0  0  0  0  0  0  0  0  0  0
   -1.9507   -2.1016    1.2749 O   0  0  0  0  0  0  0  0  0  0  0  0
   -1.9486   -2.1044   -1.2743 O   0  0  0  0  0  0  0  0  0  0  0  0
   -2.8080    2.2999    0.0039 O   0  0  0  0  0  0  0  0  0  0  0  0
    4.0832    0.6268    0.0002 O   0  5  0  0  0  0  0  0  0  0  0  0
    3.4730   -1.4821    0.0021 O   0  0  0  0  0  0  0  0  0  0  0  0
   -2.9263   -0.0613   -0.0019 N   0  0  0  0  0  0  0  0  0  0  0  0
    3.1946   -0.2588    0.0005 N   0  3  0  0  0  0  0  0  0  0  0  0
   -0.4774   -0.3950    0.0003 C   0  0  0  0  0  0  0  0  0  0  0  0
   -0.8167    0.9583   -0.0014 C   0  0  0  0  0  0  0  0  0  0  0  0
   -2.2711    1.2081   -0.0003 C   0  0  0  0  0  0  0  0  0  0  0  0
    0.8293   -0.8369    0.0007 C   0  0  0  0  0  0  0  0  0  0  0  0
    0.1705    1.9279   -0.0022 C   0  0  0  0  0  0  0  0  0  0  0  0
    1.8300    0.1360   -0.0004 C   0  0  0  0  0  0  0  0  0  0  0  0
    1.5043    1.5055   -0.0016 C   0  0  0  0  0  0  0  0  0  0  0  0
   -3.9477   -0.1556    0.0103 H   0  0  0  0  0  0  0  0  0  0  0  0
    1.0418   -1.9005    0.0016 H   0  0  0  0  0  0  0  0  0  0  0  0
   -0.0699    2.9856   -0.0030 H   0  0  0  0  0  0  0  0  0  0  0  0
    2.2746    2.2736   -0.0022 H   0  0  0  0  0  0  0  0  0  0  0  0
  1  2  2  0  0  0  0
  1  3  2  0  0  0  0
  1  7  1  0  0  0  0
  1  9  1  0  0  0  0
  4 11  2  0  0  0  0
  5  8  1  0  0  0  0
  6  8  2  0  0  0  0
  7 11  1  0  0  0  0
  7 16  1  0  0  0  0
  8 14  1  0  0  0  0
  9 10  2  0  0  0  0
  9 12  1  0  0  0  0
 10 11  1  0  0  0  0
 10 13  1  0  0  0  0
 12 14  2  0  0  0  0
 12 17  1  0  0  0  0
 13 15  2  0  0  0  0
 13 18  1  0  0  0  0
 14 15  1  0  0  0  0
 15 19  1  0  0  0  0
M  CHG  2   5  -1   8   1
M  END
> <PUBCHEM_COMPOUND_CID>
100187

> <PUBCHEM_CONFORMER_RMSD>
0.6

> <PUBCHEM_CONFORMER_DIVERSEORDER>
1

> <PUBCHEM_MMFF94_PARTIAL_CHARGES>
19
1 1.45
10 0.09
11 0.72
12 -0.15
13 -0.15
14 0.13
15 -0.15
16 0.42
17 0.15
18 0.15
19 0.15
2 -0.65
3 -0.65
4 -0.57
5 -0.52
6 -0.52
7 -0.79
8 0.91
9 -0.01

> <PUBCHEM_EFFECTIVE_ROTOR_COUNT>
1.2

> <PUBCHEM_PHARMACOPHORE_FEATURES>
9
1 2 acceptor
1 3 acceptor
1 4 acceptor
1 5 acceptor
1 5 anion
1 6 acceptor
1 7 donor
5 1 7 9 10 11 rings
6 9 10 12 13 14 15 rings

> <PUBCHEM_HEAVY_ATOM_COUNT>
15

> <PUBCHEM_ATOM_DEF_STEREO_COUNT>
0

> <PUBCHEM_ATOM_UDEF_STEREO_COUNT>
0

> <PUBCHEM_BOND_DEF_STEREO_COUNT>
0

> <PUBCHEM_BOND_UDEF_STEREO_COUNT>
0

> <PUBCHEM_ISOTOPIC_ATOM_COUNT>
0

> <PUBCHEM_COMPONENT_COUNT>
1

> <PUBCHEM_CACTVS_TAUTO_COUNT>
2

> <PUBCHEM_CONFORMER_ID>
0001875B00000001

> <PUBCHEM_MMFF94_ENERGY>
32.9431

> <PUBCHEM_FEATURE_SELFOVERLAP>
45.837

> <PUBCHEM_SHAPE_FINGERPRINT>
10608611 8 18412822499690182168
10967382 1 18122344575436024228
11132069 177 18339635655781372248
12932764 1 17988365987241884130
13024252 1 17822008731324510995
13380535 76 18268147561284491727
14325111 11 18410855421806083808
15669948 3 18411976953694139806
16945 1 17834394896882634980
193761 8 18266740375205913221
20510252 161 18272090448594646201
20645476 183 17678486102363840942
20871998 184 18343308075941486879
21501502 16 18338801237697966860
21524375 3 18194118521755733077
2334 1 18266459995566993952
23402539 116 18272641338770192413
23419403 2 16538405965956974521
23463225 33 18408886200875625852
23552423 10 18190179177218923068
23559900 14 18269834234440426690
2748010 2 18339919445381659876
3312278 4 18410016537536569256
54173680 148 18409171021357715963
6333449 129 18341610386933052005
69090 78 18343015567394109797
7364860 26 18125158492238555448
81228 2 18263913496909923521
8809292 202 18334581251940851682
9709674 26 18341334401220230790

> <PUBCHEM_SHAPE_MULTIPOLES>
273.23
5.28
2.36
0.75
4.2
0.08
0
-0.52
0
-1.44
0
-0.36
-0.35
0

> <PUBCHEM_SHAPE_SELFOVERLAP>
585.044

> <PUBCHEM_SHAPE_VOLUME>
152.5

> <PUBCHEM_COORDINATE_TYPE>
2
5
10

$$$$
