10014039
  -OEChem-03292013303D

 26 26  0     1  0  0  0  0  0999 V2000
    0.5714   -0.3226    0.9745 S   0  0  0  0  0  0  0  0  0  0  0  0
   -1.1384   -2.6109   -0.1231 O   0  0  0  0  0  0  0  0  0  0  0  0
    4.2461   -0.6984    1.0868 O   0  0  0  0  0  0  0  0  0  0  0  0
   -3.7972    2.2150    0.0946 O   0  0  0  0  0  0  0  0  0  0  0  0
    3.5803   -0.9768   -1.0639 O   0  0  0  0  0  0  0  0  0  0  0  0
    3.4475    1.9553   -0.8388 N   0  0  0  0  0  0  0  0  0  0  0  0
    2.8558    1.0098    0.1099 C   0  0  1  0  0  0  0  0  0  0  0  0
    1.3566    0.8672   -0.1591 C   0  0  0  0  0  0  0  0  0  0  0  0
   -1.1275   -0.2649    0.4189 C   0  0  0  0  0  0  0  0  0  0  0  0
   -1.7723   -1.4051   -0.0588 C   0  0  0  0  0  0  0  0  0  0  0  0
   -1.8068    0.9518    0.4707 C   0  0  0  0  0  0  0  0  0  0  0  0
    3.5941   -0.3075   -0.0372 C   0  0  0  0  0  0  0  0  0  0  0  0
   -3.1328    1.0281    0.0443 C   0  0  0  0  0  0  0  0  0  0  0  0
   -3.0982   -1.3288   -0.4852 C   0  0  0  0  0  0  0  0  0  0  0  0
   -3.7785   -0.1122   -0.4336 C   0  0  0  0  0  0  0  0  0  0  0  0
    3.0138    1.3964    1.1242 H   0  0  0  0  0  0  0  0  0  0  0  0
    0.8730    1.8438   -0.0487 H   0  0  0  0  0  0  0  0  0  0  0  0
    1.1805    0.5202   -1.1844 H   0  0  0  0  0  0  0  0  0  0  0  0
   -1.3197    1.8460    0.8527 H   0  0  0  0  0  0  0  0  0  0  0  0
    4.4216    2.1244   -0.5898 H   0  0  0  0  0  0  0  0  0  0  0  0
    2.9756    2.8557   -0.7635 H   0  0  0  0  0  0  0  0  0  0  0  0
   -3.6077   -2.2130   -0.8587 H   0  0  0  0  0  0  0  0  0  0  0  0
   -4.8113   -0.0590   -0.7671 H   0  0  0  0  0  0  0  0  0  0  0  0
   -0.2298   -2.4944    0.2047 H   0  0  0  0  0  0  0  0  0  0  0  0
    4.6996   -1.5598    0.9661 H   0  0  0  0  0  0  0  0  0  0  0  0
   -3.2007    2.8964    0.4495 H   0  0  0  0  0  0  0  0  0  0  0  0
  1  8  1  0  0  0  0
  1  9  1  0  0  0  0
  2 10  1  0  0  0  0
  2 24  1  0  0  0  0
  3 12  1  0  0  0  0
  3 25  1  0  0  0  0
  4 13  1  0  0  0  0
  4 26  1  0  0  0  0
  5 12  2  0  0  0  0
  6  7  1  0  0  0  0
  6 20  1  0  0  0  0
  6 21  1  0  0  0  0
  7  8  1  0  0  0  0
  7 12  1  0  0  0  0
  7 16  1  0  0  0  0
  8 17  1  0  0  0  0
  8 18  1  0  0  0  0
  9 10  2  0  0  0  0
  9 11  1  0  0  0  0
 10 14  1  0  0  0  0
 11 13  2  0  0  0  0
 11 19  1  0  0  0  0
 13 15  1  0  0  0  0
 14 15  2  0  0  0  0
 14 22  1  0  0  0  0
 15 23  1  0  0  0  0
M  END
> <PUBCHEM_COMPOUND_CID>
10014039

> <PUBCHEM_CONFORMER_RMSD>
0.6

> <PUBCHEM_CONFORMER_DIVERSEORDER>
2
53
106
84
90
105
108
95
69
45
96
66
100
110
22
109
25
77
92
49
16
76
98
87
21
107
104
79
71
10
34
43
91
26
99
97
80
7
12
15
94
9
37
3
56
40
101
31
111
70
88
57
89
39
29
50
19
48
14
78
27
102
46
44
64
35
62
20
55
86
75
52
63
82
33
24
58
13
41
72
103
23
4
47
17
93
83
32
11
38
54
67
59
36
68
28
74
51
60
8
42
73
61
1
65
81
18
85
6
5
30

> <PUBCHEM_MMFF94_PARTIAL_CHARGES>
23
1 -0.33
10 0.08
11 -0.15
12 0.66
13 0.08
14 -0.15
15 -0.15
19 0.15
2 -0.53
20 0.36
21 0.36
22 0.15
23 0.15
24 0.45
25 0.5
26 0.45
3 -0.65
4 -0.53
5 -0.57
6 -0.99
7 0.33
8 0.23
9 0.1

> <PUBCHEM_EFFECTIVE_ROTOR_COUNT>
4

> <PUBCHEM_PHARMACOPHORE_FEATURES>
8
1 2 donor
1 3 acceptor
1 4 donor
1 5 acceptor
1 6 cation
1 6 donor
3 3 5 12 anion
6 9 10 11 13 14 15 rings

> <PUBCHEM_HEAVY_ATOM_COUNT>
15

> <PUBCHEM_ATOM_DEF_STEREO_COUNT>
0

> <PUBCHEM_ATOM_UDEF_STEREO_COUNT>
1

> <PUBCHEM_BOND_DEF_STEREO_COUNT>
0

> <PUBCHEM_BOND_UDEF_STEREO_COUNT>
0

> <PUBCHEM_ISOTOPIC_ATOM_COUNT>
0

> <PUBCHEM_COMPONENT_COUNT>
1

> <PUBCHEM_CACTVS_TAUTO_COUNT>
7

> <PUBCHEM_CONFORMER_ID>
0098CD5700000002

> <PUBCHEM_MMFF94_ENERGY>
30.0685

> <PUBCHEM_FEATURE_SELFOVERLAP>
40.654

> <PUBCHEM_SHAPE_FINGERPRINT>
10062212 137 18411127018215628115
12173636 292 18411974789130758677
12500047 106 18343579664008840568
12592029 89 18336553711709180931
15442244 35 18407757032504283440
17834072 14 17846491526606700784
18186145 218 17748826332406438392
20279233 1 17132113559027297394
20645476 183 18335132073260355819
20645477 56 18412543253622085281
20645477 70 18409731776973421030
21524375 3 18335699395637716209
21665056 4 18408602573994335979
22169311 21 17704351069941130234
23402539 116 18200865201943731533
23402655 69 18334581256784568532
23557571 272 18201994469532072752
23559900 14 17988641849060420346
2838139 119 16807542056241169589
3082319 5 18338521944880913292
474 4 17386852901244396524
559249 180 18337946780061991114
573450 72 18337658759317380994
58051976 100 18334296456912281455
633830 44 17821733827315421432
6430166 295 18336542711954836153
69090 78 18412260640457578143
74978 22 18335142033194075816
93112 12 18410858793312979372
9709674 26 18271811262930508134
9981440 41 17323517861788539848

> <PUBCHEM_SHAPE_MULTIPOLES>
284.08
8.33
2.04
0.89
4.26
0.09
-0.05
-1.3
1
-1
0.25
0.52
0.06
-0.57

> <PUBCHEM_SHAPE_SELFOVERLAP>
570.755

> <PUBCHEM_SHAPE_VOLUME>
167.4

> <PUBCHEM_COORDINATE_TYPE>
2
5
10

$$$$
