10026535
  -OEChem-03292013303D

 56 61  0     1  0  0  0  0  0999 V2000
   -2.0016    1.4531    1.1707 O   0  0  0  0  0  0  0  0  0  0  0  0
   -6.0887   -0.4720   -1.1607 O   0  0  0  0  0  0  0  0  0  0  0  0
   -0.4420    1.2249    2.7833 O   0  0  0  0  0  0  0  0  0  0  0  0
    1.7838   -1.9996   -0.2721 O   0  0  0  0  0  0  0  0  0  0  0  0
   -3.7995   -0.2630   -0.6848 N   0  0  0  0  0  0  0  0  0  0  0  0
   -3.4314    1.8825   -1.2842 N   0  0  0  0  0  0  0  0  0  0  0  0
    2.0789    0.2218    0.4016 N   0  0  0  0  0  0  0  0  0  0  0  0
    1.5003    2.2563    2.1402 N   0  0  0  0  0  0  0  0  0  0  0  0
    4.1586    1.3076    0.0157 N   0  0  0  0  0  0  0  0  0  0  0  0
   -1.7238    0.4991    0.1497 C   0  0  1  0  0  0  0  0  0  0  0  0
   -2.7297    0.6367   -1.0161 C   0  0  1  0  0  0  0  0  0  0  0  0
   -0.2788    0.6360   -0.2921 C   0  0  0  0  0  0  0  0  0  0  0  0
   -2.1130   -0.8702    0.6823 C   0  0  0  0  0  0  0  0  0  0  0  0
   -3.3817   -1.2378    0.2017 C   0  0  0  0  0  0  0  0  0  0  0  0
    0.6850    0.3369    0.8511 C   0  0  2  0  0  0  0  0  0  0  0  0
   -4.7635    1.4818   -1.8121 C   0  0  2  0  0  0  0  0  0  0  0  0
   -5.0170    0.1080   -1.1962 C   0  0  0  0  0  0  0  0  0  0  0  0
   -1.4590   -1.6725    1.6006 C   0  0  0  0  0  0  0  0  0  0  0  0
    0.5283    1.2883    2.0286 C   0  0  0  0  0  0  0  0  0  0  0  0
   -4.0436   -2.3676    0.6374 C   0  0  0  0  0  0  0  0  0  0  0  0
   -4.7910    1.4117   -3.3317 C   0  0  0  0  0  0  0  0  0  0  0  0
    2.9385    1.3127    0.4544 C   0  0  0  0  0  0  0  0  0  0  0  0
    2.4042    2.5920    1.0650 C   0  0  1  0  0  0  0  0  0  0  0  0
   -2.0976   -2.8408    2.0290 C   0  0  0  0  0  0  0  0  0  0  0  0
   -3.3790   -3.1812    1.5566 C   0  0  0  0  0  0  0  0  0  0  0  0
    2.4876   -1.0000   -0.1564 C   0  0  0  0  0  0  0  0  0  0  0  0
    1.8085    3.5592    0.0559 C   0  0  0  0  0  0  0  0  0  0  0  0
    3.8827   -1.0354   -0.6433 C   0  0  0  0  0  0  0  0  0  0  0  0
    4.6581    0.1226   -0.5401 C   0  0  0  0  0  0  0  0  0  0  0  0
    4.4112   -2.2041   -1.2026 C   0  0  0  0  0  0  0  0  0  0  0  0
    5.9776    0.0959   -1.0057 C   0  0  0  0  0  0  0  0  0  0  0  0
    5.7275   -2.2158   -1.6619 C   0  0  0  0  0  0  0  0  0  0  0  0
    6.5103   -1.0672   -1.5638 C   0  0  0  0  0  0  0  0  0  0  0  0
   -2.2909    0.2513   -1.9486 H   0  0  0  0  0  0  0  0  0  0  0  0
   -0.1159    1.6353   -0.6959 H   0  0  0  0  0  0  0  0  0  0  0  0
   -0.0785   -0.0583   -1.1190 H   0  0  0  0  0  0  0  0  0  0  0  0
   -2.9227    2.4494   -1.9601 H   0  0  0  0  0  0  0  0  0  0  0  0
    0.5672   -0.6538    1.2315 H   0  0  0  0  0  0  0  0  0  0  0  0
   -5.5165    2.1850   -1.4426 H   0  0  0  0  0  0  0  0  0  0  0  0
   -2.8991    1.2950    1.5104 H   0  0  0  0  0  0  0  0  0  0  0  0
   -0.5995   -1.4249    2.1965 H   0  0  0  0  0  0  0  0  0  0  0  0
   -5.0315   -2.6314    0.2790 H   0  0  0  0  0  0  0  0  0  0  0  0
   -5.7825    1.1045   -3.6822 H   0  0  0  0  0  0  0  0  0  0  0  0
   -4.5629    2.3871   -3.7738 H   0  0  0  0  0  0  0  0  0  0  0  0
   -4.0713    0.6826   -3.7205 H   0  0  0  0  0  0  0  0  0  0  0  0
    3.2572    3.0929    1.5415 H   0  0  0  0  0  0  0  0  0  0  0  0
    1.4307    2.9044    2.9189 H   0  0  0  0  0  0  0  0  0  0  0  0
   -1.6255   -3.4691    2.7804 H   0  0  0  0  0  0  0  0  0  0  0  0
   -3.8612   -4.0834    1.9239 H   0  0  0  0  0  0  0  0  0  0  0  0
    2.3852    3.5758   -0.8745 H   0  0  0  0  0  0  0  0  0  0  0  0
    0.7680    3.3460   -0.1855 H   0  0  0  0  0  0  0  0  0  0  0  0
    1.8143    4.5740    0.4711 H   0  0  0  0  0  0  0  0  0  0  0  0
    3.8167   -3.1093   -1.2886 H   0  0  0  0  0  0  0  0  0  0  0  0
    6.6008    0.9843   -0.9357 H   0  0  0  0  0  0  0  0  0  0  0  0
    6.1429   -3.1203   -2.0966 H   0  0  0  0  0  0  0  0  0  0  0  0
    7.5356   -1.0766   -1.9219 H   0  0  0  0  0  0  0  0  0  0  0  0
  1 10  1  0  0  0  0
  1 40  1  0  0  0  0
  2 17  2  0  0  0  0
  3 19  2  0  0  0  0
  4 26  2  0  0  0  0
  5 11  1  0  0  0  0
  5 14  1  0  0  0  0
  5 17  1  0  0  0  0
  6 11  1  0  0  0  0
  6 16  1  0  0  0  0
  6 37  1  0  0  0  0
  7 15  1  0  0  0  0
  7 22  1  0  0  0  0
  7 26  1  0  0  0  0
  8 19  1  0  0  0  0
  8 23  1  0  0  0  0
  8 47  1  0  0  0  0
  9 22  2  0  0  0  0
  9 29  1  0  0  0  0
 10 11  1  0  0  0  0
 10 12  1  0  0  0  0
 10 13  1  0  0  0  0
 11 34  1  0  0  0  0
 12 15  1  0  0  0  0
 12 35  1  0  0  0  0
 12 36  1  0  0  0  0
 13 14  1  0  0  0  0
 13 18  2  0  0  0  0
 14 20  2  0  0  0  0
 15 19  1  0  0  0  0
 15 38  1  0  0  0  0
 16 17  1  0  0  0  0
 16 21  1  0  0  0  0
 16 39  1  0  0  0  0
 18 24  1  0  0  0  0
 18 41  1  0  0  0  0
 20 25  1  0  0  0  0
 20 42  1  0  0  0  0
 21 43  1  0  0  0  0
 21 44  1  0  0  0  0
 21 45  1  0  0  0  0
 22 23  1  0  0  0  0
 23 27  1  0  0  0  0
 23 46  1  0  0  0  0
 24 25  2  0  0  0  0
 24 48  1  0  0  0  0
 25 49  1  0  0  0  0
 26 28  1  0  0  0  0
 27 50  1  0  0  0  0
 27 51  1  0  0  0  0
 27 52  1  0  0  0  0
 28 29  1  0  0  0  0
 28 30  2  0  0  0  0
 29 31  2  0  0  0  0
 30 32  1  0  0  0  0
 30 53  1  0  0  0  0
 31 33  1  0  0  0  0
 31 54  1  0  0  0  0
 32 33  2  0  0  0  0
 32 55  1  0  0  0  0
 33 56  1  0  0  0  0
M  END
> <PUBCHEM_COMPOUND_CID>
10026535

> <PUBCHEM_CONFORMER_RMSD>
0.8

> <PUBCHEM_CONFORMER_DIVERSEORDER>
3
4
2
1

> <PUBCHEM_MMFF94_PARTIAL_CHARGES>
41
1 -0.68
10 0.42
11 0.57
13 -0.14
14 0.12
15 0.36
16 0.33
17 0.57
18 -0.15
19 0.57
2 -0.57
20 -0.15
22 0.45
23 0.36
24 -0.15
25 -0.15
26 0.54
28 0.09
29 0.18
3 -0.57
30 -0.15
31 -0.15
32 -0.15
33 -0.15
37 0.36
4 -0.57
40 0.4
41 0.15
42 0.15
47 0.37
48 0.15
49 0.15
5 -0.48
53 0.15
54 0.15
55 0.15
56 0.15
6 -0.9
7 -0.42
8 -0.73
9 -0.63

> <PUBCHEM_EFFECTIVE_ROTOR_COUNT>
3.2

> <PUBCHEM_PHARMACOPHORE_FEATURES>
14
1 1 acceptor
1 1 donor
1 2 acceptor
1 3 acceptor
1 4 acceptor
1 6 cation
1 6 donor
1 8 donor
5 5 10 11 13 14 rings
5 5 6 11 16 17 rings
6 13 14 18 20 24 25 rings
6 28 29 30 31 32 33 rings
6 7 8 15 19 22 23 rings
6 7 9 22 26 28 29 rings

> <PUBCHEM_HEAVY_ATOM_COUNT>
33

> <PUBCHEM_ATOM_DEF_STEREO_COUNT>
4

> <PUBCHEM_ATOM_UDEF_STEREO_COUNT>
1

> <PUBCHEM_BOND_DEF_STEREO_COUNT>
0

> <PUBCHEM_BOND_UDEF_STEREO_COUNT>
0

> <PUBCHEM_ISOTOPIC_ATOM_COUNT>
0

> <PUBCHEM_COMPONENT_COUNT>
1

> <PUBCHEM_CACTVS_TAUTO_COUNT>
2

> <PUBCHEM_CONFORMER_ID>
0098FE2700000003

> <PUBCHEM_MMFF94_ENERGY>
145.1713

> <PUBCHEM_FEATURE_SELFOVERLAP>
71.541

> <PUBCHEM_SHAPE_FINGERPRINT>
10165383 225 18114754711843160289
107951 10 17894631440001197827
11115154 58 17703215214664930665
11135926 11 18338812100472358558
1200032 147 17097774556841108717
12166972 35 16343407479943929079
12236239 1 15841554102096817091
12342043 65 18192728957727354859
12596602 18 14692562209335793742
12788726 201 17485374369830663264
12895836 83 17386003927953915085
12895837 130 16660944230517078518
13540713 4 18264767834133815001
13544653 18 17918000460152967512
13617811 41 17530954805560977567
13690498 29 18188782771803825591
13782708 43 18267026235629440395
13911987 19 18130238124605950254
13947920 75 17022901267778895470
14040221 97 18050011292734831444
14068700 675 15195271028503399487
15064986 266 18269010729399402696
15183329 4 18263078833917969180
15188451 53 14045727228123220101
15324884 4 18123176059788131313
15361156 5 18336834203222367591
17349148 13 15697996370658522349
1813 80 16630259055935807128
18608769 82 17894922858117089419
19315092 285 15554148329612105730
20511986 3 15213008349887477967
20775438 99 16911674757518111911
21033650 10 17313106362450540745
21344244 181 18199167642834596351
21344244 78 9365636339962903303
21792961 116 18337121094622752390
221357 26 18343017774611817188
22182313 1 18267300018282151128
22393880 68 18260266360916377282
23559900 14 18337106860209375297
244849 19 18129370665470453545
25025965 108 17343214126948015558
314194 84 17632580448754550262
3729539 64 18117555115929342555
38570 142 15285643136248829570
4015057 19 18273212023490267225
46194498 28 18190183584108758236
484985 159 18200330861163452651
508706 21 18114178696093186087
57527295 17 18129367221291868447
6034566 193 14056998330409356115
613672 6 18201716237503596554
6523845 18 18187087209758614357
6608658 132 16370996396065288047
6669772 16 17697612344260171148
6823239 73 18188768465298988952
70251023 43 17632286895955250337
7471813 234 17203886362289704360
9709674 26 18264202676873112851

> <PUBCHEM_SHAPE_MULTIPOLES>
630.74
13.41
3.32
2.35
7.17
0.4
0.09
3.52
10.99
-0.75
-1.03
-1.48
-0.7
4.69

> <PUBCHEM_SHAPE_SELFOVERLAP>
1421.835

> <PUBCHEM_SHAPE_VOLUME>
329.4

> <PUBCHEM_COORDINATE_TYPE>
2
5
10

$$$$
