10021283
  -OEChem-03292013303D

 33 34  0     1  0  0  0  0  0999 V2000
    3.9542    2.0401    0.4280 S   0  0  0  0  0  0  0  0  0  0  0  0
    4.0382   -3.1809   -0.2887 S   0  0  0  0  0  0  0  0  0  0  0  0
   -3.5354   -1.5592    0.1686 P   0  0  0  0  0  0  0  0  0  0  0  0
    0.9733   -2.9437   -0.2962 F   0  0  0  0  0  0  0  0  0  0  0  0
   -0.4725    1.3552    1.0150 O   0  0  0  0  0  0  0  0  0  0  0  0
   -0.9930    4.1590   -0.0985 O   0  0  0  0  0  0  0  0  0  0  0  0
   -2.7622   -0.2135    0.6272 O   0  0  0  0  0  0  0  0  0  0  0  0
   -2.5198   -2.2451   -0.8864 O   0  0  0  0  0  0  0  0  0  0  0  0
   -4.7211   -0.9904   -0.7725 O   0  0  0  0  0  0  0  0  0  0  0  0
   -3.9878   -2.4450    1.2925 O   0  0  0  0  0  0  0  0  0  0  0  0
    1.5904    0.6161    0.1946 N   0  0  0  0  0  0  0  0  0  0  0  0
    3.6745   -0.5628    0.0636 N   0  0  0  0  0  0  0  0  0  0  0  0
   -1.0709    2.8716   -0.7065 C   0  0  2  0  0  0  0  0  0  0  0  0
   -1.6127    1.8588    0.2925 C   0  0  1  0  0  0  0  0  0  0  0  0
    0.3215    2.3586   -0.9928 C   0  0  0  0  0  0  0  0  0  0  0  0
    0.7295    1.7532    0.3404 C   0  0  1  0  0  0  0  0  0  0  0  0
   -2.3024    0.6769   -0.3766 C   0  0  0  0  0  0  0  0  0  0  0  0
    3.0137    0.6608    0.2221 C   0  0  0  0  0  0  0  0  0  0  0  0
    0.9674   -0.6245    0.0184 C   0  0  0  0  0  0  0  0  0  0  0  0
    1.6216   -1.7753   -0.1295 C   0  0  0  0  0  0  0  0  0  0  0  0
    3.0936   -1.8098   -0.1150 C   0  0  0  0  0  0  0  0  0  0  0  0
   -1.6908    2.9674   -1.6029 H   0  0  0  0  0  0  0  0  0  0  0  0
   -2.2808    2.3177    1.0298 H   0  0  0  0  0  0  0  0  0  0  0  0
    0.2785    1.5938   -1.7778 H   0  0  0  0  0  0  0  0  0  0  0  0
    1.0239    3.1327   -1.3169 H   0  0  0  0  0  0  0  0  0  0  0  0
    1.1988    2.5141    0.9721 H   0  0  0  0  0  0  0  0  0  0  0  0
   -1.6507    0.1522   -1.0783 H   0  0  0  0  0  0  0  0  0  0  0  0
   -3.1669    1.0430   -0.9409 H   0  0  0  0  0  0  0  0  0  0  0  0
   -0.5895    4.7623   -0.7458 H   0  0  0  0  0  0  0  0  0  0  0  0
   -0.1073   -0.6695    0.0102 H   0  0  0  0  0  0  0  0  0  0  0  0
    4.6901   -0.5335    0.0823 H   0  0  0  0  0  0  0  0  0  0  0  0
   -2.7439   -3.1249   -1.2578 H   0  0  0  0  0  0  0  0  0  0  0  0
   -5.3995   -1.6134   -1.1097 H   0  0  0  0  0  0  0  0  0  0  0  0
  1 18  2  0  0  0  0
  2 21  2  0  0  0  0
  3  7  1  0  0  0  0
  3  8  1  0  0  0  0
  3  9  1  0  0  0  0
  3 10  2  0  0  0  0
  4 20  1  0  0  0  0
  5 14  1  0  0  0  0
  5 16  1  0  0  0  0
  6 13  1  0  0  0  0
  6 29  1  0  0  0  0
  7 17  1  0  0  0  0
  8 32  1  0  0  0  0
  9 33  1  0  0  0  0
 11 16  1  0  0  0  0
 11 18  1  0  0  0  0
 11 19  1  0  0  0  0
 12 18  1  0  0  0  0
 12 21  1  0  0  0  0
 12 31  1  0  0  0  0
 13 14  1  0  0  0  0
 13 15  1  0  0  0  0
 13 22  1  0  0  0  0
 14 17  1  0  0  0  0
 14 23  1  0  0  0  0
 15 16  1  0  0  0  0
 15 24  1  0  0  0  0
 15 25  1  0  0  0  0
 16 26  1  0  0  0  0
 17 27  1  0  0  0  0
 17 28  1  0  0  0  0
 19 20  2  0  0  0  0
 19 30  1  0  0  0  0
 20 21  1  0  0  0  0
M  END
> <PUBCHEM_COMPOUND_CID>
10021283

> <PUBCHEM_CONFORMER_RMSD>
0.8

> <PUBCHEM_CONFORMER_DIVERSEORDER>
1
24
17
18
10
8
19
12
26
11
16
7
6
4
22
13
23
3
20
5
15
14
25
21
2
9

> <PUBCHEM_MMFF94_PARTIAL_CHARGES>
25
1 -0.38
10 -0.7
11 -0.47
12 -0.49
13 0.28
14 0.28
16 0.58
17 0.28
18 0.5
19 -0.04
2 -0.38
20 0.16
21 0.43
29 0.4
3 1.51
30 0.15
31 0.37
32 0.5
33 0.5
4 -0.15
5 -0.56
6 -0.68
7 -0.55
8 -0.77
9 -0.77

> <PUBCHEM_EFFECTIVE_ROTOR_COUNT>
5

> <PUBCHEM_PHARMACOPHORE_FEATURES>
12
1 1 acceptor
1 10 acceptor
1 12 donor
1 2 acceptor
1 5 acceptor
1 6 acceptor
1 6 donor
1 8 acceptor
1 9 acceptor
4 3 8 9 10 anion
5 5 13 14 15 16 rings
6 11 12 18 19 20 21 rings

> <PUBCHEM_HEAVY_ATOM_COUNT>
21

> <PUBCHEM_ATOM_DEF_STEREO_COUNT>
3

> <PUBCHEM_ATOM_UDEF_STEREO_COUNT>
0

> <PUBCHEM_BOND_DEF_STEREO_COUNT>
0

> <PUBCHEM_BOND_UDEF_STEREO_COUNT>
0

> <PUBCHEM_ISOTOPIC_ATOM_COUNT>
0

> <PUBCHEM_COMPONENT_COUNT>
1

> <PUBCHEM_CACTVS_TAUTO_COUNT>
3

> <PUBCHEM_CONFORMER_ID>
0098E9A300000001

> <PUBCHEM_MMFF94_ENERGY>
19.0396

> <PUBCHEM_FEATURE_SELFOVERLAP>
60.937

> <PUBCHEM_SHAPE_FINGERPRINT>
10616163 171 18411420566276524062
10967382 1 18267020755208088816
116883 192 18336824200111945261
12403259 226 18338514124088280736
12500047 106 17759803637518339964
12506688 2 18341894103787771753
12553582 1 18336842973434776713
12633257 1 17986402074516743745
12839892 36 18268126799977020848
13004483 165 18339069411535202755
13140716 1 18339648836561185226
138480 1 14951527571442574679
14178342 30 18195231227491387864
14223421 5 18340482271039258564
14251705 54 18336550507462870651
14251757 5 17115811920245823910
14790565 3 17761777660222455748
14863182 85 18192160510394538164
15422964 175 18337105760845492533
17357779 13 18338783559913010431
19591789 44 18123468551693682772
20645477 70 17829879181943787311
21665056 4 17759803641713086805
221490 88 18339645538680559226
23419403 2 13850311112191662537
23557571 272 18260817185818464728
23558518 356 18188215282380780248
23559900 14 18267573612204947840
2748010 2 18339353068503187772
2871803 45 18408880720101931655
350125 39 18412543207068171016
46194498 28 17605264267894710237
474229 33 18266455589426407632
6443956 14 18337107973138804429
81228 2 18187932716303203713
8809292 202 18121503449236097410
9709674 26 18267860580080748756

> <PUBCHEM_SHAPE_MULTIPOLES>
391.27
7.69
4.59
0.88
0.89
0.86
-0.02
-6
-0.3
-0.07
0.42
0.43
-0.01
0.91

> <PUBCHEM_SHAPE_SELFOVERLAP>
777.502

> <PUBCHEM_SHAPE_VOLUME>
235.6

> <PUBCHEM_COORDINATE_TYPE>
2
5
10

$$$$
