10022985
  -OEChem-03292013303D

 55 58  0     0  0  0  0  0  0999 V2000
    1.3448    3.3614    0.1712 O   0  0  0  0  0  0  0  0  0  0  0  0
   -0.1719   -2.3202   -0.7214 O   0  0  0  0  0  0  0  0  0  0  0  0
    6.6441    0.8857    0.5635 O   0  0  0  0  0  0  0  0  0  0  0  0
   -3.7057    0.7872    0.0674 N   0  0  0  0  0  0  0  0  0  0  0  0
   -4.6968    1.6664   -0.1352 N   0  0  0  0  0  0  0  0  0  0  0  0
   -5.5351   -0.3598    0.2677 N   0  0  0  0  0  0  0  0  0  0  0  0
   -5.8134    0.9591   -0.0119 N   0  0  0  0  0  0  0  0  0  0  0  0
    4.8045   -0.4507    0.8893 N   0  0  0  0  0  0  0  0  0  0  0  0
   -2.2988    1.2049    0.0084 C   0  0  0  0  0  0  0  0  0  0  0  0
   -2.0664    2.3259   -1.0187 C   0  0  0  0  0  0  0  0  0  0  0  0
   -1.7437    1.5799    1.3930 C   0  0  0  0  0  0  0  0  0  0  0  0
   -0.5936    2.7203   -1.0833 C   0  0  0  0  0  0  0  0  0  0  0  0
   -0.2735    1.9814    1.3104 C   0  0  0  0  0  0  0  0  0  0  0  0
   -0.0490    3.0985    0.2923 C   0  0  0  0  0  0  0  0  0  0  0  0
   -4.2456   -0.4145    0.3052 C   0  0  0  0  0  0  0  0  0  0  0  0
   -3.4057   -1.6378    0.5738 C   0  0  0  0  0  0  0  0  0  0  0  0
   -3.0645   -2.3800   -0.7212 C   0  0  0  0  0  0  0  0  0  0  0  0
   -2.1842   -3.5975   -0.4471 C   0  0  0  0  0  0  0  0  0  0  0  0
   -0.8520   -3.1996    0.1727 C   0  0  0  0  0  0  0  0  0  0  0  0
    3.0128   -0.5092   -0.7536 C   0  0  0  0  0  0  0  0  0  0  0  0
    3.8403    0.3546   -1.6612 C   0  0  0  0  0  0  0  0  0  0  0  0
    3.5424   -0.9153    0.4777 C   0  0  0  0  0  0  0  0  0  0  0  0
    4.7503    1.2707   -0.8568 C   0  0  0  0  0  0  0  0  0  0  0  0
    1.0546   -1.8722   -0.3361 C   0  0  0  0  0  0  0  0  0  0  0  0
    1.7665   -0.9984   -1.1590 C   0  0  0  0  0  0  0  0  0  0  0  0
    5.5094    0.5404    0.2337 C   0  0  0  0  0  0  0  0  0  0  0  0
    2.8390   -1.8050    1.2930 C   0  0  0  0  0  0  0  0  0  0  0  0
    1.5911   -2.2764    0.8863 C   0  0  0  0  0  0  0  0  0  0  0  0
   -1.7492    0.3262   -0.3525 H   0  0  0  0  0  0  0  0  0  0  0  0
   -2.6557    3.2142   -0.7571 H   0  0  0  0  0  0  0  0  0  0  0  0
   -2.4024    2.0047   -2.0122 H   0  0  0  0  0  0  0  0  0  0  0  0
   -1.8525    0.7420    2.0913 H   0  0  0  0  0  0  0  0  0  0  0  0
   -2.3262    2.4102    1.8126 H   0  0  0  0  0  0  0  0  0  0  0  0
   -0.0068    1.8928   -1.5032 H   0  0  0  0  0  0  0  0  0  0  0  0
   -0.4594    3.5586   -1.7776 H   0  0  0  0  0  0  0  0  0  0  0  0
    0.0844    2.3033    2.2957 H   0  0  0  0  0  0  0  0  0  0  0  0
    0.3355    1.1075    1.0466 H   0  0  0  0  0  0  0  0  0  0  0  0
   -0.5295    4.0196    0.6410 H   0  0  0  0  0  0  0  0  0  0  0  0
   -3.9716   -2.3042    1.2369 H   0  0  0  0  0  0  0  0  0  0  0  0
   -2.5142   -1.3373    1.1284 H   0  0  0  0  0  0  0  0  0  0  0  0
    1.7793    2.5444   -0.1277 H   0  0  0  0  0  0  0  0  0  0  0  0
   -2.5749   -1.7072   -1.4354 H   0  0  0  0  0  0  0  0  0  0  0  0
   -3.9910   -2.7148   -1.2051 H   0  0  0  0  0  0  0  0  0  0  0  0
   -2.0032   -4.1081   -1.4007 H   0  0  0  0  0  0  0  0  0  0  0  0
   -2.7048   -4.3025    0.2108 H   0  0  0  0  0  0  0  0  0  0  0  0
   -0.2697   -4.1225    0.2941 H   0  0  0  0  0  0  0  0  0  0  0  0
   -1.0043   -2.7425    1.1552 H   0  0  0  0  0  0  0  0  0  0  0  0
    4.4406   -0.2992   -2.3056 H   0  0  0  0  0  0  0  0  0  0  0  0
    3.1964    0.9637   -2.3061 H   0  0  0  0  0  0  0  0  0  0  0  0
    4.1634    2.0582   -0.3685 H   0  0  0  0  0  0  0  0  0  0  0  0
    5.4692    1.7558   -1.5261 H   0  0  0  0  0  0  0  0  0  0  0  0
    1.3497   -0.7019   -2.1184 H   0  0  0  0  0  0  0  0  0  0  0  0
    5.2196   -0.8739    1.7145 H   0  0  0  0  0  0  0  0  0  0  0  0
    3.2493   -2.1302    2.2455 H   0  0  0  0  0  0  0  0  0  0  0  0
    1.0980   -2.9581    1.5705 H   0  0  0  0  0  0  0  0  0  0  0  0
  1 14  1  0  0  0  0
  1 41  1  0  0  0  0
  2 19  1  0  0  0  0
  2 24  1  0  0  0  0
  3 26  2  0  0  0  0
  4  5  1  0  0  0  0
  4  9  1  0  0  0  0
  4 15  1  0  0  0  0
  5  7  2  0  0  0  0
  6  7  1  0  0  0  0
  6 15  2  0  0  0  0
  8 22  1  0  0  0  0
  8 26  1  0  0  0  0
  8 53  1  0  0  0  0
  9 10  1  0  0  0  0
  9 11  1  0  0  0  0
  9 29  1  0  0  0  0
 10 12  1  0  0  0  0
 10 30  1  0  0  0  0
 10 31  1  0  0  0  0
 11 13  1  0  0  0  0
 11 32  1  0  0  0  0
 11 33  1  0  0  0  0
 12 14  1  0  0  0  0
 12 34  1  0  0  0  0
 12 35  1  0  0  0  0
 13 14  1  0  0  0  0
 13 36  1  0  0  0  0
 13 37  1  0  0  0  0
 14 38  1  0  0  0  0
 15 16  1  0  0  0  0
 16 17  1  0  0  0  0
 16 39  1  0  0  0  0
 16 40  1  0  0  0  0
 17 18  1  0  0  0  0
 17 42  1  0  0  0  0
 17 43  1  0  0  0  0
 18 19  1  0  0  0  0
 18 44  1  0  0  0  0
 18 45  1  0  0  0  0
 19 46  1  0  0  0  0
 19 47  1  0  0  0  0
 20 21  1  0  0  0  0
 20 22  2  0  0  0  0
 20 25  1  0  0  0  0
 21 23  1  0  0  0  0
 21 48  1  0  0  0  0
 21 49  1  0  0  0  0
 22 27  1  0  0  0  0
 23 26  1  0  0  0  0
 23 50  1  0  0  0  0
 23 51  1  0  0  0  0
 24 25  2  0  0  0  0
 24 28  1  0  0  0  0
 25 52  1  0  0  0  0
 27 28  2  0  0  0  0
 27 54  1  0  0  0  0
 28 55  1  0  0  0  0
M  END
> <PUBCHEM_COMPOUND_CID>
10022985

> <PUBCHEM_CONFORMER_RMSD>
1

> <PUBCHEM_CONFORMER_DIVERSEORDER>
1
101
86
65
26
55
246
43
276
140
270
280
107
74
353
273
250
149
344
211
84
27
79
110
247
228
90
384
49
382
14
324
222
58
73
210
334
173
105
305
347
2
343
274
15
375
159
201
44
76
20
137
150
118
218
310
89
281
202
374
302
278
11
321
100
75
229
205
80
325
91
349
172
50
87
114
231
82
189
122
24
120
163
191
48
275
285
237
52
180
279
51
194
143
195
94
178
303
4
312
226
294
64
31
106
13
317
88
41
370
379
341
17
249
6
372
139
124
54
258
320
39
37
148
81
318
364
200
123
360
142
236
103
282
297
3
166
182
78
332
265
70
287
187
316
306
57
19
319
71
53
348
12
134
331
181
129
7
314
293
144
329
95
5
354
132
151
240
25
125
383
156
351
299
168
16
62
30
126
380
315
158
233
22
83
212
63
350
376
216
34
199
235
289
112
102
117
188
292
352
369
263
155
217
167
99
337
251
18
77
264
10
357
338
69
267
170
196
342
136
198
186
242
35
277
68
46
378
192
311
322
260
295
153
61
358
164
371
385
116
368
223
239
127
248
298
333
97
366
262
214
175
32
288
243
219
323
252
9
171
98
165
133
184
328
40
42
225
253
128
174
113
227
283
85
245
301
96
8
339
345
146
193
160
131
28
138
206
154
145
257
377
241
355
33
363
269
362
367
290
207
109
255
197
176
346
291
147
56
326
203
327
307
304
300
361
183
108
29
208
23
259
313
111
234
256
47
36
72
261
254
230
93
271
204
244
141
365
356
179
162
115
308
66
157
38
152
59
359
45
67
238
185
296
21
169
266
215
309
330
135
224
92
220
121
373
335
213
221
336
130
161
119
190
340
209
381
268
232
104
60
286
284
272
177

> <PUBCHEM_MMFF94_PARTIAL_CHARGES>
26
1 -0.68
14 0.28
15 0.01
16 0.18
19 0.28
2 -0.36
20 -0.14
21 0.14
22 0.12
23 0.06
24 0.08
25 -0.15
26 0.57
27 -0.15
28 -0.15
3 -0.57
4 0.31
41 0.4
5 -0.42
52 0.15
53 0.37
54 0.15
55 0.15
6 -0.34
8 -0.55
9 0.26

> <PUBCHEM_EFFECTIVE_ROTOR_COUNT>
8.8

> <PUBCHEM_PHARMACOPHORE_FEATURES>
10
1 1 acceptor
1 1 donor
1 2 acceptor
1 3 acceptor
1 8 donor
3 4 6 15 cation
5 4 5 6 7 15 rings
6 20 22 24 25 27 28 rings
6 8 20 21 22 23 26 rings
6 9 10 11 12 13 14 rings

> <PUBCHEM_HEAVY_ATOM_COUNT>
28

> <PUBCHEM_ATOM_DEF_STEREO_COUNT>
0

> <PUBCHEM_ATOM_UDEF_STEREO_COUNT>
0

> <PUBCHEM_BOND_DEF_STEREO_COUNT>
0

> <PUBCHEM_BOND_UDEF_STEREO_COUNT>
0

> <PUBCHEM_ISOTOPIC_ATOM_COUNT>
0

> <PUBCHEM_COMPONENT_COUNT>
1

> <PUBCHEM_CACTVS_TAUTO_COUNT>
2

> <PUBCHEM_CONFORMER_ID>
0098F04900000001

> <PUBCHEM_MMFF94_ENERGY>
53.686

> <PUBCHEM_FEATURE_SELFOVERLAP>
50.772

> <PUBCHEM_SHAPE_FINGERPRINT>
10498660 4 18342747294719982322
10675989 125 17399510131332802813
10759866 29 18260554389844512930
10864689 126 18341053999959022404
1100329 8 18339363083797157845
11112241 14 16772367720805307209
11135609 187 18266733577217286613
11513181 2 17699292375955802574
12422481 6 17912059940731171344
12467345 10 18113334189663910842
12788726 201 17916587531713495673
12838862 33 18339344319607339557
13402501 40 18413670214227269473
14117953 113 18193838128736111789
14765038 42 18200891599092197745
14790565 3 18268999683139552761
14840074 17 18261972772808152853
15297060 5 18131078125456016578
17492 54 18334870419225081745
18336668 15 18261110841274701149
18769570 83 18337389447973044882
19319366 153 17894907412882021339
20511986 3 17968365780148026417
20642791 178 18261971720984329117
20715895 44 17465933870871191325
20764821 26 18265327494173955341
20905425 154 17694512837506608063
23559900 14 17690556390853331623
3052486 1 18337383954883641496
338550 245 18191025814310861916
3680242 22 18336272240657724003
392239 28 18412829105465830728
463206 1 18264213671715493205
469060 322 18114753718940700410
5171179 24 17627784541615129824
5486654 2 18411705374327451500
59567204 34 18340207509386783204
59755656 215 18341903944333541278
7808743 9 18411979186877206347

> <PUBCHEM_SHAPE_MULTIPOLES>
533.71
11.69
4.22
1.23
4.27
0.36
0.03
-1.96
-0.61
-2.27
0.16
0.72
-0.15
-0.57

> <PUBCHEM_SHAPE_SELFOVERLAP>
1128.728

> <PUBCHEM_SHAPE_VOLUME>
298.1

> <PUBCHEM_COORDINATE_TYPE>
2
5
10

$$$$
