10028785
  -OEChem-03292013303D

 68 72  0     1  0  0  0  0  0999 V2000
   -1.2365    2.6337   -1.7353 O   0  0  0  0  0  0  0  0  0  0  0  0
    0.0838    3.7272   -0.0644 O   0  0  0  0  0  0  0  0  0  0  0  0
    0.6167    2.1451   -3.1140 O   0  0  0  0  0  0  0  0  0  0  0  0
   -1.6670    3.6752    1.5204 O   0  0  0  0  0  0  0  0  0  0  0  0
    1.0630   -1.4371   -1.1098 O   0  0  0  0  0  0  0  0  0  0  0  0
   -0.1991    0.0038    2.8175 O   0  0  0  0  0  0  0  0  0  0  0  0
   -2.0861   -1.5974    2.4169 O   0  0  0  0  0  0  0  0  0  0  0  0
    3.8322    0.5860    1.2488 O   0  0  0  0  0  0  0  0  0  0  0  0
   -1.7393    2.1931   -0.4461 C   0  0  2  0  0  0  0  0  0  0  0  0
    0.9495    2.7644   -0.7221 C   0  0  2  0  0  0  0  0  0  0  0  0
    0.0798    2.0279   -1.8045 C   0  0  1  0  0  0  0  0  0  0  0  0
   -0.8596    2.8911    0.6536 C   0  0  1  0  0  0  0  0  0  0  0  0
   -0.2789    0.5410   -1.4990 C   0  0  2  0  0  0  0  0  0  0  0  0
    0.1232    1.9650    1.4339 C   0  0  2  0  0  0  0  0  0  0  0  0
   -1.5152    0.6722   -0.5463 C   0  0  1  0  0  0  0  0  0  0  0  0
    1.3504    1.8688    0.4656 C   0  0  1  0  0  0  0  0  0  0  0  0
   -1.4390    0.0206    0.7989 C   0  0  0  0  0  0  0  0  0  0  0  0
    1.7945    0.5090    0.0256 C   0  0  0  0  0  0  0  0  0  0  0  0
    0.8933   -0.2378   -0.8936 C   0  0  0  0  0  0  0  0  0  0  0  0
   -0.4970    0.6097    1.7889 C   0  0  0  0  0  0  0  0  0  0  0  0
   -3.2221    2.5566   -0.3769 C   0  0  0  0  0  0  0  0  0  0  0  0
    2.1497    3.5281   -1.2832 C   0  0  0  0  0  0  0  0  0  0  0  0
   -0.7259   -0.1991   -2.7839 C   0  0  0  0  0  0  0  0  0  0  0  0
    0.5978    2.6323    2.7495 C   0  0  0  0  0  0  0  0  0  0  0  0
   -2.1768   -1.0391    1.1564 C   0  0  0  0  0  0  0  0  0  0  0  0
    2.9518   -0.0542    0.3982 C   0  0  0  0  0  0  0  0  0  0  0  0
   -3.1185   -1.6729    0.2520 C   0  0  0  0  0  0  0  0  0  0  0  0
    3.3614   -1.3684   -0.0614 C   0  0  0  0  0  0  0  0  0  0  0  0
   -3.8869   -2.7346    0.5449 C   0  0  0  0  0  0  0  0  0  0  0  0
    4.5044   -1.9897    0.2721 C   0  0  0  0  0  0  0  0  0  0  0  0
   -4.8099   -3.3217   -0.4022 C   0  0  0  0  0  0  0  0  0  0  0  0
    4.8564   -3.3043   -0.2196 C   0  0  0  0  0  0  0  0  0  0  0  0
   -5.5799   -4.3818   -0.1159 C   0  0  0  0  0  0  0  0  0  0  0  0
    5.9961   -3.9300    0.1096 C   0  0  0  0  0  0  0  0  0  0  0  0
   -6.5366   -4.9962   -1.0842 C   0  0  0  0  0  0  0  0  0  0  0  0
    6.3703   -5.2866   -0.3903 C   0  0  0  0  0  0  0  0  0  0  0  0
   -2.3732    0.3195   -1.1190 H   0  0  0  0  0  0  0  0  0  0  0  0
    2.1779    2.3985    0.9500 H   0  0  0  0  0  0  0  0  0  0  0  0
   -3.3776    3.6305   -0.5271 H   0  0  0  0  0  0  0  0  0  0  0  0
   -3.7811    2.0726   -1.1868 H   0  0  0  0  0  0  0  0  0  0  0  0
   -3.6725    2.2537    0.5733 H   0  0  0  0  0  0  0  0  0  0  0  0
    2.6483    4.1126   -0.5014 H   0  0  0  0  0  0  0  0  0  0  0  0
    2.8836    2.8530   -1.7341 H   0  0  0  0  0  0  0  0  0  0  0  0
    1.8269    4.2533   -2.0386 H   0  0  0  0  0  0  0  0  0  0  0  0
   -1.4903    0.3643   -3.3306 H   0  0  0  0  0  0  0  0  0  0  0  0
    0.1149   -0.3766   -3.4640 H   0  0  0  0  0  0  0  0  0  0  0  0
   -1.1490   -1.1818   -2.5430 H   0  0  0  0  0  0  0  0  0  0  0  0
    0.9733    3.6468    2.5747 H   0  0  0  0  0  0  0  0  0  0  0  0
   -0.2186    2.6975    3.4779 H   0  0  0  0  0  0  0  0  0  0  0  0
    1.4032    2.0546    3.2182 H   0  0  0  0  0  0  0  0  0  0  0  0
    1.3235    1.4843   -3.2080 H   0  0  0  0  0  0  0  0  0  0  0  0
   -2.1324    4.3362    0.9827 H   0  0  0  0  0  0  0  0  0  0  0  0
   -3.2131   -1.3051   -0.7617 H   0  0  0  0  0  0  0  0  0  0  0  0
    2.8716   -1.9225   -0.8391 H   0  0  0  0  0  0  0  0  0  0  0  0
   -2.1884   -2.5603    2.3511 H   0  0  0  0  0  0  0  0  0  0  0  0
    3.3664    1.2502    1.7783 H   0  0  0  0  0  0  0  0  0  0  0  0
   -3.8733   -3.1929    1.5293 H   0  0  0  0  0  0  0  0  0  0  0  0
    5.1906   -1.5368    0.9834 H   0  0  0  0  0  0  0  0  0  0  0  0
   -4.8690   -2.8705   -1.3896 H   0  0  0  0  0  0  0  0  0  0  0  0
    4.1552   -3.7973   -0.8884 H   0  0  0  0  0  0  0  0  0  0  0  0
   -5.5295   -4.8428    0.8677 H   0  0  0  0  0  0  0  0  0  0  0  0
    6.7083   -3.4499    0.7766 H   0  0  0  0  0  0  0  0  0  0  0  0
   -6.5363   -4.4831   -2.0511 H   0  0  0  0  0  0  0  0  0  0  0  0
   -7.5523   -4.9587   -0.6787 H   0  0  0  0  0  0  0  0  0  0  0  0
   -6.2725   -6.0443   -1.2543 H   0  0  0  0  0  0  0  0  0  0  0  0
    5.6098   -5.7095   -1.0542 H   0  0  0  0  0  0  0  0  0  0  0  0
    6.5045   -5.9703    0.4535 H   0  0  0  0  0  0  0  0  0  0  0  0
    7.3133   -5.2327   -0.9427 H   0  0  0  0  0  0  0  0  0  0  0  0
  1  9  1  0  0  0  0
  1 11  1  0  0  0  0
  2 10  1  0  0  0  0
  2 12  1  0  0  0  0
  3 11  1  0  0  0  0
  3 51  1  0  0  0  0
  4 12  1  0  0  0  0
  4 52  1  0  0  0  0
  5 19  2  0  0  0  0
  6 20  2  0  0  0  0
  7 25  1  0  0  0  0
  7 55  1  0  0  0  0
  8 26  1  0  0  0  0
  8 56  1  0  0  0  0
  9 12  1  0  0  0  0
  9 15  1  0  0  0  0
  9 21  1  0  0  0  0
 10 11  1  0  0  0  0
 10 16  1  0  0  0  0
 10 22  1  0  0  0  0
 11 13  1  0  0  0  0
 12 14  1  0  0  0  0
 13 15  1  0  0  0  0
 13 19  1  0  0  0  0
 13 23  1  0  0  0  0
 14 16  1  0  0  0  0
 14 20  1  0  0  0  0
 14 24  1  0  0  0  0
 15 17  1  0  0  0  0
 15 37  1  0  0  0  0
 16 18  1  0  0  0  0
 16 38  1  0  0  0  0
 17 20  1  0  0  0  0
 17 25  2  0  0  0  0
 18 19  1  0  0  0  0
 18 26  2  0  0  0  0
 21 39  1  0  0  0  0
 21 40  1  0  0  0  0
 21 41  1  0  0  0  0
 22 42  1  0  0  0  0
 22 43  1  0  0  0  0
 22 44  1  0  0  0  0
 23 45  1  0  0  0  0
 23 46  1  0  0  0  0
 23 47  1  0  0  0  0
 24 48  1  0  0  0  0
 24 49  1  0  0  0  0
 24 50  1  0  0  0  0
 25 27  1  0  0  0  0
 26 28  1  0  0  0  0
 27 29  2  0  0  0  0
 27 53  1  0  0  0  0
 28 30  2  0  0  0  0
 28 54  1  0  0  0  0
 29 31  1  0  0  0  0
 29 57  1  0  0  0  0
 30 32  1  0  0  0  0
 30 58  1  0  0  0  0
 31 33  2  0  0  0  0
 31 59  1  0  0  0  0
 32 34  2  0  0  0  0
 32 60  1  0  0  0  0
 33 35  1  0  0  0  0
 33 61  1  0  0  0  0
 34 36  1  0  0  0  0
 34 62  1  0  0  0  0
 35 63  1  0  0  0  0
 35 64  1  0  0  0  0
 35 65  1  0  0  0  0
 36 66  1  0  0  0  0
 36 67  1  0  0  0  0
 36 68  1  0  0  0  0
M  END
> <PUBCHEM_COMPOUND_CID>
10028785

> <PUBCHEM_CONFORMER_RMSD>
0.8

> <PUBCHEM_CONFORMER_DIVERSEORDER>
1
3
2

> <PUBCHEM_MMFF94_PARTIAL_CHARGES>
44
1 -0.56
10 0.28
11 0.56
12 0.56
13 0.06
14 0.06
15 0.14
16 0.14
17 -0.12
18 -0.12
19 0.49
2 -0.56
20 0.49
25 0.08
26 0.08
27 -0.15
28 -0.15
29 -0.15
3 -0.68
30 -0.15
31 -0.15
32 -0.15
33 -0.29
34 -0.29
35 0.14
36 0.14
4 -0.68
5 -0.57
51 0.4
52 0.4
53 0.15
54 0.15
55 0.45
56 0.45
57 0.15
58 0.15
59 0.15
6 -0.57
60 0.15
61 0.15
62 0.15
7 -0.53
8 -0.53
9 0.28

> <PUBCHEM_EFFECTIVE_ROTOR_COUNT>
4.4

> <PUBCHEM_PHARMACOPHORE_FEATURES>
15
1 1 acceptor
1 2 acceptor
1 3 acceptor
1 3 donor
1 35 hydrophobe
1 36 hydrophobe
1 4 acceptor
1 4 donor
1 5 acceptor
1 6 acceptor
1 7 donor
1 8 donor
10 1 2 9 10 11 12 13 14 15 16 rings
6 10 11 13 16 18 19 rings
6 9 12 14 15 17 20 rings

> <PUBCHEM_HEAVY_ATOM_COUNT>
36

> <PUBCHEM_ATOM_DEF_STEREO_COUNT>
8

> <PUBCHEM_ATOM_UDEF_STEREO_COUNT>
0

> <PUBCHEM_BOND_DEF_STEREO_COUNT>
6

> <PUBCHEM_BOND_UDEF_STEREO_COUNT>
0

> <PUBCHEM_ISOTOPIC_ATOM_COUNT>
0

> <PUBCHEM_COMPONENT_COUNT>
1

> <PUBCHEM_CACTVS_TAUTO_COUNT>
6

> <PUBCHEM_CONFORMER_ID>
009906F100000001

> <PUBCHEM_MMFF94_ENERGY>
175.93

> <PUBCHEM_FEATURE_SELFOVERLAP>
78.804

> <PUBCHEM_SHAPE_FINGERPRINT>
10863032 1 17197127457828735205
11135609 149 18124571319155037975
14068700 675 18411427197664487130
14674994 50 18193001426167999843
15803439 3 17030761440066809558
16945 1 17027986680861936301
19315092 285 17701545241016855195
20771845 35 18342447158717097546
20775438 99 17688856958310766827
20775530 9 18187090520450744234
23419403 2 17682647938458716757
23559900 14 18265608785295286520
25222932 49 16692455400968339943
3383291 50 17908987599667711155
404807 78 16606321910384624347
484985 159 18049724014618948246
513532 50 17100286155020836067
57527293 21 18197238991679626578
57527585 103 18051663600500962968
70251023 43 18336827610099902115

> <PUBCHEM_SHAPE_MULTIPOLES>
693.91
9.96
7.05
2.29
1.72
6.84
-0.01
26.21
0.8
-0.39
0.99
-0.45
-1.67
-0.53

> <PUBCHEM_SHAPE_SELFOVERLAP>
1533.798

> <PUBCHEM_SHAPE_VOLUME>
368.8

> <PUBCHEM_COORDINATE_TYPE>
2
5
10

$$$$
