10027816
  -OEChem-03292013303D

 54 55  0     1  0  0  0  0  0999 V2000
    5.1932   -1.6202   -0.8484 S   0  0  0  0  0  0  0  0  0  0  0  0
   -3.7555   -2.0668   -2.1318 F   0  0  0  0  0  0  0  0  0  0  0  0
   -3.8997    0.0660   -2.5512 F   0  0  0  0  0  0  0  0  0  0  0  0
   -5.5744   -0.9802   -1.6260 F   0  0  0  0  0  0  0  0  0  0  0  0
   -3.9530    0.4657    0.2959 O   0  0  0  0  0  0  0  0  0  0  0  0
    0.1306   -1.4358   -0.3200 O   0  0  0  0  0  0  0  0  0  0  0  0
    3.0289   -1.1865    1.3605 O   0  0  0  0  0  0  0  0  0  0  0  0
    6.1128   -1.5837   -1.9690 O   0  0  0  0  0  0  0  0  0  0  0  0
    3.8347   -2.1025   -1.0080 O   0  0  0  0  0  0  0  0  0  0  0  0
   -1.6788   -0.8694    1.0256 N   0  0  0  0  0  0  0  0  0  0  0  0
    1.5868    0.5859    0.8227 N   0  0  0  0  0  0  0  0  0  0  0  0
    5.1767   -0.0975   -0.0814 N   0  0  0  0  0  0  0  0  0  0  0  0
   -3.4098   -2.6595    1.1658 C   0  0  0  0  0  0  0  0  0  0  0  0
   -2.6924   -1.5997    0.3088 C   0  0  1  0  0  0  0  0  0  0  0  0
   -2.4646   -3.7147    1.7493 C   0  0  0  0  0  0  0  0  0  0  0  0
   -4.2082   -1.9998    2.2948 C   0  0  0  0  0  0  0  0  0  0  0  0
   -3.6594   -0.5805   -0.2832 C   0  0  0  0  0  0  0  0  0  0  0  0
    0.4798    0.0465    1.5556 C   0  0  0  0  0  0  0  0  0  0  0  0
   -0.3405   -0.8470    0.6498 C   0  0  0  0  0  0  0  0  0  0  0  0
    1.4599    1.8137    0.1289 C   0  0  0  0  0  0  0  0  0  0  0  0
    2.8257   -0.1157    0.7904 C   0  0  0  0  0  0  0  0  0  0  0  0
    3.9165    0.5205    0.0061 C   0  0  0  0  0  0  0  0  0  0  0  0
   -4.2214   -0.8894   -1.6433 C   0  0  0  0  0  0  0  0  0  0  0  0
    0.1980    2.5397    0.1548 C   0  0  0  0  0  0  0  0  0  0  0  0
    2.4782    2.3485   -0.5686 C   0  0  0  0  0  0  0  0  0  0  0  0
    3.7507    1.6796   -0.6330 C   0  0  0  0  0  0  0  0  0  0  0  0
   -0.7693    2.2921   -0.8193 C   0  0  0  0  0  0  0  0  0  0  0  0
   -0.0437    3.4830    1.1537 C   0  0  0  0  0  0  0  0  0  0  0  0
   -1.9781    2.9879   -0.7948 C   0  0  0  0  0  0  0  0  0  0  0  0
   -1.2525    4.1786    1.1781 C   0  0  0  0  0  0  0  0  0  0  0  0
    5.9484   -2.5900    0.4331 C   0  0  0  0  0  0  0  0  0  0  0  0
   -2.2197    3.9310    0.2040 C   0  0  0  0  0  0  0  0  0  0  0  0
   -4.1305   -3.1818    0.5222 H   0  0  0  0  0  0  0  0  0  0  0  0
   -2.1943   -2.1106   -0.5223 H   0  0  0  0  0  0  0  0  0  0  0  0
   -1.9744   -0.3038    1.8159 H   0  0  0  0  0  0  0  0  0  0  0  0
   -1.8888   -4.1977    0.9530 H   0  0  0  0  0  0  0  0  0  0  0  0
   -3.0290   -4.4930    2.2738 H   0  0  0  0  0  0  0  0  0  0  0  0
   -1.7586   -3.2741    2.4610 H   0  0  0  0  0  0  0  0  0  0  0  0
   -3.5673   -1.4242    2.9701 H   0  0  0  0  0  0  0  0  0  0  0  0
   -4.7132   -2.7635    2.8974 H   0  0  0  0  0  0  0  0  0  0  0  0
   -4.9898   -1.3383    1.9099 H   0  0  0  0  0  0  0  0  0  0  0  0
   -0.1212    0.8266    2.0299 H   0  0  0  0  0  0  0  0  0  0  0  0
    0.8527   -0.5906    2.3668 H   0  0  0  0  0  0  0  0  0  0  0  0
    2.3865    3.2894   -1.1028 H   0  0  0  0  0  0  0  0  0  0  0  0
    4.5396    2.1513   -1.2092 H   0  0  0  0  0  0  0  0  0  0  0  0
    5.9424    0.5285   -0.3658 H   0  0  0  0  0  0  0  0  0  0  0  0
   -0.5978    1.5589   -1.6039 H   0  0  0  0  0  0  0  0  0  0  0  0
    0.6993    3.6867    1.9211 H   0  0  0  0  0  0  0  0  0  0  0  0
   -2.7316    2.7937   -1.5524 H   0  0  0  0  0  0  0  0  0  0  0  0
   -1.4412    4.9125    1.9562 H   0  0  0  0  0  0  0  0  0  0  0  0
    6.0316   -3.6178    0.0727 H   0  0  0  0  0  0  0  0  0  0  0  0
    6.9433   -2.1907    0.6396 H   0  0  0  0  0  0  0  0  0  0  0  0
    5.3243   -2.5632    1.3273 H   0  0  0  0  0  0  0  0  0  0  0  0
   -3.1613    4.4718    0.2237 H   0  0  0  0  0  0  0  0  0  0  0  0
  1  8  2  0  0  0  0
  1  9  2  0  0  0  0
  1 12  1  0  0  0  0
  1 31  1  0  0  0  0
  2 23  1  0  0  0  0
  3 23  1  0  0  0  0
  4 23  1  0  0  0  0
  5 17  2  0  0  0  0
  6 19  2  0  0  0  0
  7 21  2  0  0  0  0
 10 14  1  0  0  0  0
 10 19  1  0  0  0  0
 10 35  1  0  0  0  0
 11 18  1  0  0  0  0
 11 20  1  0  0  0  0
 11 21  1  0  0  0  0
 12 22  1  0  0  0  0
 12 46  1  0  0  0  0
 13 14  1  0  0  0  0
 13 15  1  0  0  0  0
 13 16  1  0  0  0  0
 13 33  1  0  0  0  0
 14 17  1  0  0  0  0
 14 34  1  0  0  0  0
 15 36  1  0  0  0  0
 15 37  1  0  0  0  0
 15 38  1  0  0  0  0
 16 39  1  0  0  0  0
 16 40  1  0  0  0  0
 16 41  1  0  0  0  0
 17 23  1  0  0  0  0
 18 19  1  0  0  0  0
 18 42  1  0  0  0  0
 18 43  1  0  0  0  0
 20 24  1  0  0  0  0
 20 25  2  0  0  0  0
 21 22  1  0  0  0  0
 22 26  2  0  0  0  0
 24 27  2  0  0  0  0
 24 28  1  0  0  0  0
 25 26  1  0  0  0  0
 25 44  1  0  0  0  0
 26 45  1  0  0  0  0
 27 29  1  0  0  0  0
 27 47  1  0  0  0  0
 28 30  2  0  0  0  0
 28 48  1  0  0  0  0
 29 32  2  0  0  0  0
 29 49  1  0  0  0  0
 30 32  1  0  0  0  0
 30 50  1  0  0  0  0
 31 51  1  0  0  0  0
 31 52  1  0  0  0  0
 31 53  1  0  0  0  0
 32 54  1  0  0  0  0
M  END
> <PUBCHEM_COMPOUND_CID>
10027816

> <PUBCHEM_CONFORMER_RMSD>
1.2

> <PUBCHEM_CONFORMER_DIVERSEORDER>
1
81
96
12
24
44
86
18
94
37
60
7
78
74
80
88
41
89
57
61
34
30
23
85
51
27
72
8
9
3
83
22
29
67
91
87
62
56
53
15
19
99
50
63
47
33
84
75
28
36
39
69
14
79
52
38
5
65
42
101
4
68
31
6
66
54
82
32
20
10
73
16
97
95
2
98
76
90
59
35
45
100
70
26
58
55
49
43
40
21
17
11
93
48
71
46
77
25
64
92
13

> <PUBCHEM_MMFF94_PARTIAL_CHARGES>
38
1 1.33
10 -0.73
11 -0.47
12 -0.75
14 0.36
17 0.45
18 0.36
19 0.57
2 -0.34
20 0.08
21 0.62
22 0.21
23 1.08
24 0.03
25 -0.15
26 -0.15
27 -0.15
28 -0.15
29 -0.15
3 -0.34
30 -0.15
31 0.11
32 -0.15
35 0.37
4 -0.34
44 0.15
45 0.15
46 0.42
47 0.15
48 0.15
49 0.15
5 -0.57
50 0.15
54 0.15
6 -0.57
7 -0.57
8 -0.65
9 -0.65

> <PUBCHEM_EFFECTIVE_ROTOR_COUNT>
10

> <PUBCHEM_PHARMACOPHORE_FEATURES>
10
1 10 donor
1 12 donor
1 5 acceptor
1 6 acceptor
1 7 acceptor
1 8 acceptor
1 9 acceptor
3 13 15 16 hydrophobe
6 11 20 21 22 25 26 rings
6 24 27 28 29 30 32 rings

> <PUBCHEM_HEAVY_ATOM_COUNT>
32

> <PUBCHEM_ATOM_DEF_STEREO_COUNT>
0

> <PUBCHEM_ATOM_UDEF_STEREO_COUNT>
1

> <PUBCHEM_BOND_DEF_STEREO_COUNT>
0

> <PUBCHEM_BOND_UDEF_STEREO_COUNT>
0

> <PUBCHEM_ISOTOPIC_ATOM_COUNT>
0

> <PUBCHEM_COMPONENT_COUNT>
1

> <PUBCHEM_CACTVS_TAUTO_COUNT>
4

> <PUBCHEM_CONFORMER_ID>
0099032800000001

> <PUBCHEM_MMFF94_ENERGY>
83.2426

> <PUBCHEM_FEATURE_SELFOVERLAP>
50.773

> <PUBCHEM_SHAPE_FINGERPRINT>
12422481 6 17913240630976301699
12553582 1 18408878564450531025
12788726 201 18337939096217247025
13134695 92 18126847324887321109
14114211 68 17680972017304173485
14114211 80 16387646622720624293
14251757 5 18334299721182190203
14347332 77 18341890732507294358
14790565 3 17257663214386165808
14866123 147 18266184919991146241
14931854 50 18120345719986488909
15081414 286 18192439794859417184
15361156 5 18271255940902009484
17357779 13 18410006645836658772
17909252 39 18338527459904063664
19301676 85 16685717017908461310
19315092 285 15911607325186857447
19958102 18 18114739318385050454
20775438 99 17118001533691857919
23536364 44 18262788580265631917
23557571 272 18341034256220995584
23559900 14 18334010627476913098
3027735 51 18267584611167845539
3737641 26 18264222476477298760
46194498 28 17462011164847482559
463206 1 18342735268954115246
613672 6 18338507655471900872
7164475 11 18336559278361381352

> <PUBCHEM_SHAPE_MULTIPOLES>
596.28
11.52
5.02
1.85
9.93
3.24
-0.55
-10.73
-4.58
-2.64
1.65
-1.99
-0.94
0.97

> <PUBCHEM_SHAPE_SELFOVERLAP>
1243.522

> <PUBCHEM_SHAPE_VOLUME>
341.1

> <PUBCHEM_COORDINATE_TYPE>
2
5
10

$$$$
