100222
  -OEChem-03292013323D

 31 33  0     1  0  0  0  0  0999 V2000
    4.2536   -1.4423   -0.4352 S   0  0  0  0  0  0  0  0  0  0  0  0
   -1.9165   -0.4912    1.0256 O   0  0  0  0  0  0  0  0  0  0  0  0
   -1.6026    2.3579   -1.1291 O   0  0  0  0  0  0  0  0  0  0  0  0
   -3.8185    1.7188    0.3269 O   0  0  0  0  0  0  0  0  0  0  0  0
   -3.0376   -2.9629    0.3175 O   0  0  0  0  0  0  0  0  0  0  0  0
    1.1625    2.2092    0.6827 O   0  0  0  0  0  0  0  0  0  0  0  0
    0.2070    0.1124    0.2571 N   0  0  0  0  0  0  0  0  0  0  0  0
    1.5946   -1.7844   -0.3086 N   0  0  0  0  0  0  0  0  0  0  0  0
   -1.8177    0.9972   -0.8155 C   0  0  2  0  0  0  0  0  0  0  0  0
   -3.2706    0.7004   -0.5099 C   0  0  1  0  0  0  0  0  0  0  0  0
   -1.1326    0.5793    0.4742 C   0  0  1  0  0  0  0  0  0  0  0  0
   -3.1692   -0.5775    0.3115 C   0  0  1  0  0  0  0  0  0  0  0  0
   -3.1438   -1.8399   -0.5398 C   0  0  0  0  0  0  0  0  0  0  0  0
    1.2838    1.0234    0.3905 C   0  0  0  0  0  0  0  0  0  0  0  0
    0.4414   -1.2308   -0.0847 C   0  0  0  0  0  0  0  0  0  0  0  0
    2.5826    0.4152    0.1425 C   0  0  0  0  0  0  0  0  0  0  0  0
    2.6432   -0.9269   -0.1846 C   0  0  0  0  0  0  0  0  0  0  0  0
    3.8703    1.0213    0.1869 C   0  0  0  0  0  0  0  0  0  0  0  0
    4.8701    0.1208   -0.1080 C   0  0  0  0  0  0  0  0  0  0  0  0
   -1.4849    0.3880   -1.6647 H   0  0  0  0  0  0  0  0  0  0  0  0
   -3.9029    0.6233   -1.3982 H   0  0  0  0  0  0  0  0  0  0  0  0
   -1.1167    1.3995    1.2019 H   0  0  0  0  0  0  0  0  0  0  0  0
   -3.9592   -0.6521    1.0675 H   0  0  0  0  0  0  0  0  0  0  0  0
   -2.3075   -1.8590   -1.2429 H   0  0  0  0  0  0  0  0  0  0  0  0
   -4.0748   -1.9303   -1.1091 H   0  0  0  0  0  0  0  0  0  0  0  0
   -0.6441    2.4865   -1.2292 H   0  0  0  0  0  0  0  0  0  0  0  0
   -3.3359    1.7300    1.1702 H   0  0  0  0  0  0  0  0  0  0  0  0
   -0.4524   -1.8558   -0.1623 H   0  0  0  0  0  0  0  0  0  0  0  0
   -3.0363   -3.7551   -0.2464 H   0  0  0  0  0  0  0  0  0  0  0  0
    4.0597    2.0609    0.4218 H   0  0  0  0  0  0  0  0  0  0  0  0
    5.9341    0.3068   -0.1470 H   0  0  0  0  0  0  0  0  0  0  0  0
  1 17  1  0  0  0  0
  1 19  1  0  0  0  0
  2 11  1  0  0  0  0
  2 12  1  0  0  0  0
  3  9  1  0  0  0  0
  3 26  1  0  0  0  0
  4 10  1  0  0  0  0
  4 27  1  0  0  0  0
  5 13  1  0  0  0  0
  5 29  1  0  0  0  0
  6 14  2  0  0  0  0
  7 11  1  0  0  0  0
  7 14  1  0  0  0  0
  7 15  1  0  0  0  0
  8 15  2  0  0  0  0
  8 17  1  0  0  0  0
  9 10  1  0  0  0  0
  9 11  1  0  0  0  0
  9 20  1  0  0  0  0
 10 12  1  0  0  0  0
 10 21  1  0  0  0  0
 11 22  1  0  0  0  0
 12 13  1  0  0  0  0
 12 23  1  0  0  0  0
 13 24  1  0  0  0  0
 13 25  1  0  0  0  0
 14 16  1  0  0  0  0
 15 28  1  0  0  0  0
 16 17  2  0  0  0  0
 16 18  1  0  0  0  0
 18 19  2  0  0  0  0
 18 30  1  0  0  0  0
 19 31  1  0  0  0  0
M  END
> <PUBCHEM_COMPOUND_CID>
100222

> <PUBCHEM_CONFORMER_RMSD>
0.6

> <PUBCHEM_CONFORMER_DIVERSEORDER>
1
11
8
15
4
2
13
6
14
12
7
3
10
5
9

> <PUBCHEM_MMFF94_PARTIAL_CHARGES>
25
1 -0.08
10 0.28
11 0.58
12 0.28
13 0.28
14 0.72
15 0.45
16 -0.09
17 0.17
18 -0.15
19 -0.11
2 -0.56
26 0.4
27 0.4
28 0.06
29 0.4
3 -0.68
30 0.15
31 0.15
4 -0.68
5 -0.68
6 -0.57
7 -0.42
8 -0.58
9 0.28

> <PUBCHEM_EFFECTIVE_ROTOR_COUNT>
3

> <PUBCHEM_PHARMACOPHORE_FEATURES>
11
1 2 acceptor
1 3 acceptor
1 3 donor
1 4 acceptor
1 4 donor
1 5 acceptor
1 5 donor
1 6 acceptor
5 1 16 17 18 19 rings
5 2 9 10 11 12 rings
6 7 8 14 15 16 17 rings

> <PUBCHEM_HEAVY_ATOM_COUNT>
19

> <PUBCHEM_ATOM_DEF_STEREO_COUNT>
4

> <PUBCHEM_ATOM_UDEF_STEREO_COUNT>
0

> <PUBCHEM_BOND_DEF_STEREO_COUNT>
0

> <PUBCHEM_BOND_UDEF_STEREO_COUNT>
0

> <PUBCHEM_ISOTOPIC_ATOM_COUNT>
0

> <PUBCHEM_COMPONENT_COUNT>
1

> <PUBCHEM_CACTVS_TAUTO_COUNT>
1

> <PUBCHEM_CONFORMER_ID>
0001877E00000001

> <PUBCHEM_MMFF94_ENERGY>
48.7491

> <PUBCHEM_FEATURE_SELFOVERLAP>
55.919

> <PUBCHEM_SHAPE_FINGERPRINT>
10062212 137 18410847746572983938
10608611 8 18409163286185094684
10616163 171 18412265051236452175
11132069 177 18411980265108559394
11471102 20 18342454803605545756
12032990 46 18343025484610843670
12236239 1 16917347004629433153
12403259 226 18339356478422182880
12500047 106 18410288078211732693
13296908 3 18342738494727189982
14790565 3 17980205180029069537
15196674 1 18413108368565778758
15219456 202 18409731733480065216
16945 1 18263628598643648777
17357779 13 18263628727392460975
17834074 16 18411418422982484727
18186145 218 18335984160496058980
19107657 46 18413108350948131286
19141452 34 18341056293761461739
200 152 17846774105152661853
20281475 54 18411141354795142064
20645477 56 18334576789881417573
20645477 70 18059573521389706390
21267235 1 18341059578741647063
21501502 16 18408879629354214339
221490 88 18339928241669795970
23402539 116 17530960289453518012
23402655 69 18342740689503003076
23557571 272 18412271639715803655
23559900 14 18340767027856611314
238 59 15876131238919892157
2748010 2 18194669582849282401
2871803 45 18336817710474623623
3268164 11 17313096449607772271
3286 77 18200591530832887853
3312278 4 18343866601872767569
335352 9 18268712710245299110
4028521 119 17968366850069728069
4214541 1 18411982446698679608
4921388 177 17313114076391204723
5104073 3 18413669119380004850
633830 44 17022912233157137588
69090 78 18336824187532628133
8809292 202 18408888420994234643
9709674 26 18412548695329896406

> <PUBCHEM_SHAPE_MULTIPOLES>
355.55
8.39
2.39
0.83
3.92
0.53
0.06
1.22
0.54
-1.52
0.13
-0.29
-0.14
0.65

> <PUBCHEM_SHAPE_SELFOVERLAP>
761.111

> <PUBCHEM_SHAPE_VOLUME>
200.1

> <PUBCHEM_COORDINATE_TYPE>
2
5
10

$$$$
