100268
  -OEChem-03292013323D

 47 47  0     1  0  0  0  0  0999 V2000
    7.2627    0.4287    1.8885 Cl  0  0  0  0  0  0  0  0  0  0  0  0
   -0.4429   -1.9786    0.3445 O   0  0  0  0  0  0  0  0  0  0  0  0
   -2.0452    1.0536    0.9898 O   0  0  0  0  0  0  0  0  0  0  0  0
    0.1784    1.5139   -0.6217 O   0  0  0  0  0  0  0  0  0  0  0  0
   -3.9351   -0.8477    0.2577 O   0  0  0  0  0  0  0  0  0  0  0  0
    2.5113    0.7256    1.1100 O   0  0  0  0  0  0  0  0  0  0  0  0
   -4.0748    1.9689    0.3737 O   0  0  0  0  0  0  0  0  0  0  0  0
   -0.3915    1.8888   -2.8288 O   0  0  0  0  0  0  0  0  0  0  0  0
   -4.5358   -2.7075   -0.9741 O   0  0  0  0  0  0  0  0  0  0  0  0
    5.2014   -1.9560   -1.4874 O   0  0  0  0  0  0  0  0  0  0  0  0
    1.5886   -0.9794   -0.1264 N   0  0  0  0  0  0  0  0  0  0  0  0
    3.9218   -0.5865   -0.1785 N   0  0  0  0  0  0  0  0  0  0  0  0
    4.0416   -1.7340   -1.1232 N   0  0  0  0  0  0  0  0  0  0  0  0
   -1.9447    0.4062   -0.2822 C   0  0  1  0  0  0  0  0  0  0  0  0
   -0.4684    0.2464   -0.6595 C   0  0  2  0  0  0  0  0  0  0  0  0
   -2.5911   -0.9745   -0.1839 C   0  0  1  0  0  0  0  0  0  0  0  0
    0.2350   -0.7224    0.2991 C   0  0  1  0  0  0  0  0  0  0  0  0
   -1.7997   -1.8666    0.7690 C   0  0  0  0  0  0  0  0  0  0  0  0
    2.6646   -0.2139    0.3227 C   0  0  0  0  0  0  0  0  0  0  0  0
   -3.1678    1.8044    1.1782 C   0  0  0  0  0  0  0  0  0  0  0  0
    0.1404    2.2344   -1.7825 C   0  0  0  0  0  0  0  0  0  0  0  0
   -4.8098   -1.7865   -0.2165 C   0  0  0  0  0  0  0  0  0  0  0  0
   -3.1372    2.4175    2.5455 C   0  0  0  0  0  0  0  0  0  0  0  0
    0.8558    3.5378   -1.5951 C   0  0  0  0  0  0  0  0  0  0  0  0
   -6.1814   -1.5293    0.3300 C   0  0  0  0  0  0  0  0  0  0  0  0
    5.1338    0.1248    0.2079 C   0  0  0  0  0  0  0  0  0  0  0  0
    5.7899   -0.4681    1.4434 C   0  0  0  0  0  0  0  0  0  0  0  0
   -2.4440    1.0148   -1.0464 H   0  0  0  0  0  0  0  0  0  0  0  0
   -0.4100   -0.1899   -1.6673 H   0  0  0  0  0  0  0  0  0  0  0  0
   -2.5509   -1.4091   -1.1926 H   0  0  0  0  0  0  0  0  0  0  0  0
    0.2733   -0.3043    1.3130 H   0  0  0  0  0  0  0  0  0  0  0  0
   -2.2292   -2.8739    0.7880 H   0  0  0  0  0  0  0  0  0  0  0  0
   -1.8386   -1.4987    1.8018 H   0  0  0  0  0  0  0  0  0  0  0  0
    1.7262   -1.7333   -0.7891 H   0  0  0  0  0  0  0  0  0  0  0  0
   -2.2639    3.0678    2.6405 H   0  0  0  0  0  0  0  0  0  0  0  0
   -4.0381    3.0199    2.6931 H   0  0  0  0  0  0  0  0  0  0  0  0
   -3.1163    1.6305    3.3035 H   0  0  0  0  0  0  0  0  0  0  0  0
    0.3585    4.1243   -0.8187 H   0  0  0  0  0  0  0  0  0  0  0  0
    0.8306    4.1036   -2.5308 H   0  0  0  0  0  0  0  0  0  0  0  0
    1.8994    3.3518   -1.3286 H   0  0  0  0  0  0  0  0  0  0  0  0
   -6.5256   -0.5408    0.0154 H   0  0  0  0  0  0  0  0  0  0  0  0
   -6.8744   -2.2803   -0.0597 H   0  0  0  0  0  0  0  0  0  0  0  0
   -6.1647   -1.6022    1.4203 H   0  0  0  0  0  0  0  0  0  0  0  0
    4.8600    1.1666    0.4176 H   0  0  0  0  0  0  0  0  0  0  0  0
    5.8308    0.1629   -0.6375 H   0  0  0  0  0  0  0  0  0  0  0  0
    5.1115   -0.4400    2.3020 H   0  0  0  0  0  0  0  0  0  0  0  0
    6.0767   -1.5110    1.2765 H   0  0  0  0  0  0  0  0  0  0  0  0
  1 27  1  0  0  0  0
  2 17  1  0  0  0  0
  2 18  1  0  0  0  0
  3 14  1  0  0  0  0
  3 20  1  0  0  0  0
  4 15  1  0  0  0  0
  4 21  1  0  0  0  0
  5 16  1  0  0  0  0
  5 22  1  0  0  0  0
  6 19  2  0  0  0  0
  7 20  2  0  0  0  0
  8 21  2  0  0  0  0
  9 22  2  0  0  0  0
 10 13  2  0  0  0  0
 11 17  1  0  0  0  0
 11 19  1  0  0  0  0
 11 34  1  0  0  0  0
 12 13  1  0  0  0  0
 12 19  1  0  0  0  0
 12 26  1  0  0  0  0
 14 15  1  0  0  0  0
 14 16  1  0  0  0  0
 14 28  1  0  0  0  0
 15 17  1  0  0  0  0
 15 29  1  0  0  0  0
 16 18  1  0  0  0  0
 16 30  1  0  0  0  0
 17 31  1  0  0  0  0
 18 32  1  0  0  0  0
 18 33  1  0  0  0  0
 20 23  1  0  0  0  0
 21 24  1  0  0  0  0
 22 25  1  0  0  0  0
 23 35  1  0  0  0  0
 23 36  1  0  0  0  0
 23 37  1  0  0  0  0
 24 38  1  0  0  0  0
 24 39  1  0  0  0  0
 24 40  1  0  0  0  0
 25 41  1  0  0  0  0
 25 42  1  0  0  0  0
 25 43  1  0  0  0  0
 26 27  1  0  0  0  0
 26 44  1  0  0  0  0
 26 45  1  0  0  0  0
 27 46  1  0  0  0  0
 27 47  1  0  0  0  0
M  END
> <PUBCHEM_COMPOUND_CID>
100268

> <PUBCHEM_CONFORMER_RMSD>
1.2

> <PUBCHEM_CONFORMER_DIVERSEORDER>
1
25
10
11
24
23
19
12
26
21
22
9
14
3
13
18
5
17
20
15
7
4
2
6
8
16

> <PUBCHEM_MMFF94_PARTIAL_CHARGES>
28
1 -0.29
10 -0.16
11 -0.73
12 -0.18
13 -0.02
14 0.28
15 0.28
16 0.28
17 0.58
18 0.28
19 0.69
2 -0.56
20 0.66
21 0.66
22 0.66
23 0.06
24 0.06
25 0.06
26 0.3
27 0.29
3 -0.43
34 0.37
4 -0.43
5 -0.43
6 -0.57
7 -0.57
8 -0.57
9 -0.57

> <PUBCHEM_EFFECTIVE_ROTOR_COUNT>
13.2

> <PUBCHEM_PHARMACOPHORE_FEATURES>
7
1 11 donor
1 2 acceptor
1 6 acceptor
1 7 acceptor
1 8 acceptor
1 9 acceptor
6 2 14 15 16 17 18 rings

> <PUBCHEM_HEAVY_ATOM_COUNT>
27

> <PUBCHEM_ATOM_DEF_STEREO_COUNT>
3

> <PUBCHEM_ATOM_UDEF_STEREO_COUNT>
1

> <PUBCHEM_BOND_DEF_STEREO_COUNT>
0

> <PUBCHEM_BOND_UDEF_STEREO_COUNT>
0

> <PUBCHEM_ISOTOPIC_ATOM_COUNT>
0

> <PUBCHEM_COMPONENT_COUNT>
1

> <PUBCHEM_CACTVS_TAUTO_COUNT>
2

> <PUBCHEM_CONFORMER_ID>
000187AC00000001

> <PUBCHEM_MMFF94_ENERGY>
49.8559

> <PUBCHEM_FEATURE_SELFOVERLAP>
35.524

> <PUBCHEM_SHAPE_FINGERPRINT>
10369192 42 14261356894020432465
12553582 1 17749683900105229734
12633257 1 18408039598808992760
12892183 10 17775287136443823020
13009979 54 18339378438927700897
13073987 5 18201717319709047170
133893 2 17460900602532923389
13583140 156 16630514133885046786
14068700 675 18338791342541410895
14142880 1 18337948992038362833
14955137 171 17900296089241357945
15163728 17 15122961573088307472
15420108 30 17906180547162474441
17349148 13 18336270140920057703
17980427 23 18341900701300871093
1813 80 18187370934527522540
18222031 100 18260833712984267894
23402539 116 18335691763069861735
23419403 2 18053068948123457581
23557571 272 17775295958617813987
23559900 14 18191021416200553595
25147074 1 18265074559824996053
3380486 145 17968940765074993685
469060 322 18041277686426434720
5104073 3 18059293150404525602
56616090 89 18338509837156960019
59554788 62 18115593621439191751

> <PUBCHEM_SHAPE_MULTIPOLES>
489.75
13.66
3.11
1.92
14.79
1.72
-0.05
-7
5.77
-2.63
-1.1
0.76
1.58
-0.81

> <PUBCHEM_SHAPE_SELFOVERLAP>
972.114

> <PUBCHEM_SHAPE_VOLUME>
287.4

> <PUBCHEM_COORDINATE_TYPE>
2
5
10

$$$$
