10027910
  -OEChem-03292013303D

 60 65  0     1  0  0  0  0  0999 V2000
    2.0009   -2.3876    0.6978 O   0  0  0  0  0  0  0  0  0  0  0  0
    5.1088    1.8787   -1.6991 O   0  0  0  0  0  0  0  0  0  0  0  0
   -1.7207   -2.7995   -1.1970 O   0  0  0  0  0  0  0  0  0  0  0  0
    0.3143   -2.4569    2.3190 O   0  0  0  0  0  0  0  0  0  0  0  0
   -0.9878    2.0746    0.8980 O   0  0  0  0  0  0  0  0  0  0  0  0
    3.8032    0.2867   -0.5692 N   0  0  0  0  0  0  0  0  0  0  0  0
    2.8302   -0.7708   -2.3137 N   0  0  0  0  0  0  0  0  0  0  0  0
   -1.6961   -0.1176    0.4835 N   0  0  0  0  0  0  0  0  0  0  0  0
   -1.6338   -2.7635    1.1495 N   0  0  0  0  0  0  0  0  0  0  0  0
   -3.8498   -0.5055   -0.4392 N   0  0  0  0  0  0  0  0  0  0  0  0
    1.9961   -1.0600    0.1863 C   0  0  1  0  0  0  0  0  0  0  0  0
    3.1097   -0.9318   -0.8870 C   0  0  2  0  0  0  0  0  0  0  0  0
    0.6033   -0.6890   -0.2870 C   0  0  0  0  0  0  0  0  0  0  0  0
    2.5124   -0.0909    1.2400 C   0  0  0  0  0  0  0  0  0  0  0  0
    3.5451    0.7040    0.7223 C   0  0  0  0  0  0  0  0  0  0  0  0
   -0.3925   -0.6736    0.8679 C   0  0  2  0  0  0  0  0  0  0  0  0
    4.0008    0.0010   -2.8260 C   0  0  2  0  0  0  0  0  0  0  0  0
    4.4176    0.8761   -1.6473 C   0  0  0  0  0  0  0  0  0  0  0  0
    2.0440    0.1267    2.5250 C   0  0  0  0  0  0  0  0  0  0  0  0
   -0.5390   -2.0263    1.5435 C   0  0  0  0  0  0  0  0  0  0  0  0
    4.1071    1.7458    1.4333 C   0  0  0  0  0  0  0  0  0  0  0  0
   -2.4262   -2.4448   -0.0236 C   0  0  1  0  0  0  0  0  0  0  0  0
    3.6390    0.8216   -4.0509 C   0  0  0  0  0  0  0  0  0  0  0  0
   -2.7100   -0.9428   -0.0007 C   0  0  0  0  0  0  0  0  0  0  0  0
    2.6212    1.1568    3.2739 C   0  0  0  0  0  0  0  0  0  0  0  0
   -1.8461    1.2781    0.5280 C   0  0  0  0  0  0  0  0  0  0  0  0
    3.6390    1.9618    2.7308 C   0  0  0  0  0  0  0  0  0  0  0  0
   -3.7155   -3.2671   -0.0107 C   0  0  0  0  0  0  0  0  0  0  0  0
   -3.1537    1.7865    0.0661 C   0  0  0  0  0  0  0  0  0  0  0  0
   -4.0989    0.8718   -0.4031 C   0  0  0  0  0  0  0  0  0  0  0  0
   -3.4337    3.1573    0.0911 C   0  0  0  0  0  0  0  0  0  0  0  0
   -5.3369    1.3482   -0.8491 C   0  0  0  0  0  0  0  0  0  0  0  0
   -2.4575   -2.4794   -2.3715 C   0  0  0  0  0  0  0  0  0  0  0  0
   -4.6717    3.6173   -0.3557 C   0  0  0  0  0  0  0  0  0  0  0  0
   -5.6227    2.7141   -0.8253 C   0  0  0  0  0  0  0  0  0  0  0  0
    3.8328   -1.7533   -0.7737 H   0  0  0  0  0  0  0  0  0  0  0  0
    0.2795   -1.3978   -1.0551 H   0  0  0  0  0  0  0  0  0  0  0  0
    0.6113    0.3029   -0.7577 H   0  0  0  0  0  0  0  0  0  0  0  0
   -0.0884    0.0173    1.6451 H   0  0  0  0  0  0  0  0  0  0  0  0
    1.9965   -0.1954   -2.4272 H   0  0  0  0  0  0  0  0  0  0  0  0
    4.8219   -0.6888   -3.0534 H   0  0  0  0  0  0  0  0  0  0  0  0
    1.7851   -2.9881   -0.0363 H   0  0  0  0  0  0  0  0  0  0  0  0
    1.3038   -0.4845    3.0171 H   0  0  0  0  0  0  0  0  0  0  0  0
    4.8905    2.3697    1.0193 H   0  0  0  0  0  0  0  0  0  0  0  0
    4.5124    1.3712   -4.4180 H   0  0  0  0  0  0  0  0  0  0  0  0
    3.2778    0.1801   -4.8615 H   0  0  0  0  0  0  0  0  0  0  0  0
    2.8617    1.5607   -3.8254 H   0  0  0  0  0  0  0  0  0  0  0  0
   -1.7326   -3.6902    1.5535 H   0  0  0  0  0  0  0  0  0  0  0  0
    2.2833    1.3376    4.2911 H   0  0  0  0  0  0  0  0  0  0  0  0
    4.0658    2.7610    3.3311 H   0  0  0  0  0  0  0  0  0  0  0  0
   -3.5062   -4.3284   -0.1922 H   0  0  0  0  0  0  0  0  0  0  0  0
   -4.2074   -3.1927    0.9674 H   0  0  0  0  0  0  0  0  0  0  0  0
   -4.4628   -2.9529   -0.7459 H   0  0  0  0  0  0  0  0  0  0  0  0
   -2.7050    3.8772    0.4527 H   0  0  0  0  0  0  0  0  0  0  0  0
   -6.0890    0.6550   -1.2183 H   0  0  0  0  0  0  0  0  0  0  0  0
   -2.6594   -1.4112   -2.4745 H   0  0  0  0  0  0  0  0  0  0  0  0
   -3.3629   -3.0783   -2.4903 H   0  0  0  0  0  0  0  0  0  0  0  0
   -1.8151   -2.7435   -3.2189 H   0  0  0  0  0  0  0  0  0  0  0  0
   -4.8945    4.6802   -0.3380 H   0  0  0  0  0  0  0  0  0  0  0  0
   -6.5870    3.0727   -1.1735 H   0  0  0  0  0  0  0  0  0  0  0  0
  1 11  1  0  0  0  0
  1 42  1  0  0  0  0
  2 18  2  0  0  0  0
  3 22  1  0  0  0  0
  3 33  1  0  0  0  0
  4 20  2  0  0  0  0
  5 26  2  0  0  0  0
  6 12  1  0  0  0  0
  6 15  1  0  0  0  0
  6 18  1  0  0  0  0
  7 12  1  0  0  0  0
  7 17  1  0  0  0  0
  7 40  1  0  0  0  0
  8 16  1  0  0  0  0
  8 24  1  0  0  0  0
  8 26  1  0  0  0  0
  9 20  1  0  0  0  0
  9 22  1  0  0  0  0
  9 48  1  0  0  0  0
 10 24  2  0  0  0  0
 10 30  1  0  0  0  0
 11 12  1  0  0  0  0
 11 13  1  0  0  0  0
 11 14  1  0  0  0  0
 12 36  1  0  0  0  0
 13 16  1  0  0  0  0
 13 37  1  0  0  0  0
 13 38  1  0  0  0  0
 14 15  1  0  0  0  0
 14 19  2  0  0  0  0
 15 21  2  0  0  0  0
 16 20  1  0  0  0  0
 16 39  1  0  0  0  0
 17 18  1  0  0  0  0
 17 23  1  0  0  0  0
 17 41  1  0  0  0  0
 19 25  1  0  0  0  0
 19 43  1  0  0  0  0
 21 27  1  0  0  0  0
 21 44  1  0  0  0  0
 22 24  1  0  0  0  0
 22 28  1  0  0  0  0
 23 45  1  0  0  0  0
 23 46  1  0  0  0  0
 23 47  1  0  0  0  0
 25 27  2  0  0  0  0
 25 49  1  0  0  0  0
 26 29  1  0  0  0  0
 27 50  1  0  0  0  0
 28 51  1  0  0  0  0
 28 52  1  0  0  0  0
 28 53  1  0  0  0  0
 29 30  1  0  0  0  0
 29 31  2  0  0  0  0
 30 32  2  0  0  0  0
 31 34  1  0  0  0  0
 31 54  1  0  0  0  0
 32 35  1  0  0  0  0
 32 55  1  0  0  0  0
 33 56  1  0  0  0  0
 33 57  1  0  0  0  0
 33 58  1  0  0  0  0
 34 35  2  0  0  0  0
 34 59  1  0  0  0  0
 35 60  1  0  0  0  0
M  END
> <PUBCHEM_COMPOUND_CID>
10027910

> <PUBCHEM_CONFORMER_RMSD>
0.8

> <PUBCHEM_CONFORMER_DIVERSEORDER>
2
1

> <PUBCHEM_MMFF94_PARTIAL_CHARGES>
43
1 -0.68
10 -0.63
11 0.42
12 0.57
14 -0.14
15 0.12
16 0.36
17 0.33
18 0.57
19 -0.15
2 -0.57
20 0.57
21 -0.15
22 0.64
24 0.45
25 -0.15
26 0.54
27 -0.15
29 0.09
3 -0.56
30 0.18
31 -0.15
32 -0.15
33 0.28
34 -0.15
35 -0.15
4 -0.57
40 0.36
42 0.4
43 0.15
44 0.15
48 0.37
49 0.15
5 -0.57
50 0.15
54 0.15
55 0.15
59 0.15
6 -0.48
60 0.15
7 -0.9
8 -0.42
9 -0.73

> <PUBCHEM_EFFECTIVE_ROTOR_COUNT>
4.2

> <PUBCHEM_PHARMACOPHORE_FEATURES>
15
1 1 acceptor
1 1 donor
1 2 acceptor
1 3 acceptor
1 4 acceptor
1 5 acceptor
1 7 cation
1 7 donor
1 9 donor
5 6 11 12 14 15 rings
5 6 7 12 17 18 rings
6 14 15 19 21 25 27 rings
6 29 30 31 32 34 35 rings
6 8 10 24 26 29 30 rings
6 8 9 16 20 22 24 rings

> <PUBCHEM_HEAVY_ATOM_COUNT>
35

> <PUBCHEM_ATOM_DEF_STEREO_COUNT>
5

> <PUBCHEM_ATOM_UDEF_STEREO_COUNT>
0

> <PUBCHEM_BOND_DEF_STEREO_COUNT>
0

> <PUBCHEM_BOND_UDEF_STEREO_COUNT>
0

> <PUBCHEM_ISOTOPIC_ATOM_COUNT>
0

> <PUBCHEM_COMPONENT_COUNT>
1

> <PUBCHEM_CACTVS_TAUTO_COUNT>
2

> <PUBCHEM_CONFORMER_ID>
0099038600000002

> <PUBCHEM_MMFF94_ENERGY>
147.8899

> <PUBCHEM_FEATURE_SELFOVERLAP>
76.59

> <PUBCHEM_SHAPE_FINGERPRINT>
10369192 42 12685966721692053774
10498660 4 18411984671634501736
10928967 22 12679460893604005157
10974685 15 17984700280253505406
11049842 53 18261106331986905970
11578080 2 17631461226962690513
11640471 11 16950567743930876898
11720765 8 17485643754827875750
1200032 147 17241912924923727540
12422481 6 16590256495034603261
12633257 1 15430320183404036361
12788726 201 17823986838679604651
13617811 41 18192710266546718655
13944108 23 17260470267350539673
13965767 371 17240199933099512340
14674994 50 14257728291406834840
14790565 3 18126839397053030329
14932701 244 16811265234034565340
14950920 106 15068621535543605941
15131766 46 16226619609768179893
15297060 5 18336842913184188164
15324884 4 17844247547881229162
17909252 39 16056305129650454080
20511986 3 17676486163611764580
20764821 26 17459450277712932821
20775438 99 17058335199047950725
21033650 10 18262808478875487762
21756936 100 15649625603542752326
21987440 362 17693074289782354800
22122407 14 15719657776565720101
22149856 69 18189059699570453585
22182313 1 18059852934639650883
23559900 14 18341323388765730914
238 59 17203604887502624424
34797466 226 17489573555573184373
38570 142 16661797430460872358
4015057 19 16774078466477059785
46194498 28 17772767197621982884
469060 322 18115034125288330299
474 4 17676775253786360905
5081480 168 17560537147724686112
508706 21 18057593463882480094
5223283 242 16771838628506730473
563151 74 14924223867410513972
5895379 119 18261393390431104916
6034566 193 17097241473815444485
6823239 73 18272932760617243728
7808743 9 18334296469834210561
9849439 229 18260258621448684905

> <PUBCHEM_SHAPE_MULTIPOLES>
666.03
11.01
3.83
3.08
3.54
0.45
-1.34
-8.14
-5.34
5.44
0.38
-5.73
-0.31
1.4

> <PUBCHEM_SHAPE_SELFOVERLAP>
1496.983

> <PUBCHEM_SHAPE_VOLUME>
349.5

> <PUBCHEM_COORDINATE_TYPE>
2
5
10

$$$$
