10023347
  -OEChem-03292013303D

 50 54  0     1  0  0  0  0  0999 V2000
   -5.3580   -0.8355    0.3941 O   0  0  0  0  0  0  0  0  0  0  0  0
   -3.6115    2.1929    0.9778 O   0  0  0  0  0  0  0  0  0  0  0  0
   -2.0137   -3.3172   -0.3603 O   0  0  0  0  0  0  0  0  0  0  0  0
   -6.0020    1.1224    1.2838 O   0  0  0  0  0  0  0  0  0  0  0  0
   -0.5704   -1.5201   -0.1783 N   0  0  0  0  0  0  0  0  0  0  0  0
    1.6604    1.2929    0.0586 N   0  0  0  0  0  0  0  0  0  0  0  0
    7.2412    1.3878   -0.0043 N   0  0  0  0  0  0  0  0  0  0  0  0
   -0.3701   -0.1553   -0.0505 C   0  0  0  0  0  0  0  0  0  0  0  0
   -2.7507    0.1732    0.0096 C   0  0  0  0  0  0  0  0  0  0  0  0
   -3.9120    1.1263    0.0748 C   0  0  2  0  0  0  0  0  0  0  0  0
    0.7175   -2.2393   -0.2620 C   0  0  0  0  0  0  0  0  0  0  0  0
    1.7077   -1.1255   -0.1703 C   0  0  0  0  0  0  0  0  0  0  0  0
    1.0637    0.0974   -0.0467 C   0  0  0  0  0  0  0  0  0  0  0  0
   -2.9724   -1.1465   -0.1280 C   0  0  0  0  0  0  0  0  0  0  0  0
   -1.3939    0.6974    0.0389 C   0  0  0  0  0  0  0  0  0  0  0  0
   -1.8197   -2.1106   -0.2326 C   0  0  0  0  0  0  0  0  0  0  0  0
    3.0821   -1.1429   -0.1901 C   0  0  0  0  0  0  0  0  0  0  0  0
   -4.2350    1.7164   -1.3000 C   0  0  0  0  0  0  0  0  0  0  0  0
   -4.3575   -1.6928   -0.1980 C   0  0  0  0  0  0  0  0  0  0  0  0
    3.7633    0.0810   -0.0833 C   0  0  0  0  0  0  0  0  0  0  0  0
   -5.1665    0.4797    0.6507 C   0  0  0  0  0  0  0  0  0  0  0  0
    3.7882   -2.4522   -0.3229 C   0  0  0  0  0  0  0  0  0  0  0  0
    3.0089    1.2822    0.0399 C   0  0  0  0  0  0  0  0  0  0  0  0
   -5.3848    2.7001   -1.2196 C   0  0  0  0  0  0  0  0  0  0  0  0
    5.1663    0.1289   -0.0969 C   0  0  0  0  0  0  0  0  0  0  0  0
    3.7052    2.4819    0.1443 C   0  0  0  0  0  0  0  0  0  0  0  0
    4.0799   -3.0923    1.0310 C   0  0  0  0  0  0  0  0  0  0  0  0
    5.8322    1.3468    0.0098 C   0  0  0  0  0  0  0  0  0  0  0  0
    5.1016    2.5227    0.1304 C   0  0  0  0  0  0  0  0  0  0  0  0
    0.7581   -2.7704   -1.2176 H   0  0  0  0  0  0  0  0  0  0  0  0
    0.7820   -2.9398    0.5757 H   0  0  0  0  0  0  0  0  0  0  0  0
   -1.2327    1.7661    0.1242 H   0  0  0  0  0  0  0  0  0  0  0  0
   -4.4838    0.9292   -2.0222 H   0  0  0  0  0  0  0  0  0  0  0  0
   -3.3611    2.2541   -1.6898 H   0  0  0  0  0  0  0  0  0  0  0  0
   -4.6479   -1.8837   -1.2364 H   0  0  0  0  0  0  0  0  0  0  0  0
   -4.4208   -2.6400    0.3476 H   0  0  0  0  0  0  0  0  0  0  0  0
    3.1715   -3.1482   -0.9064 H   0  0  0  0  0  0  0  0  0  0  0  0
    4.7050   -2.3704   -0.9154 H   0  0  0  0  0  0  0  0  0  0  0  0
   -6.3387    2.2059   -1.0136 H   0  0  0  0  0  0  0  0  0  0  0  0
   -5.2199    3.4792   -0.4693 H   0  0  0  0  0  0  0  0  0  0  0  0
   -5.4992    3.2039   -2.1861 H   0  0  0  0  0  0  0  0  0  0  0  0
   -3.3524    1.8064    1.8323 H   0  0  0  0  0  0  0  0  0  0  0  0
    5.7734   -0.7683   -0.1741 H   0  0  0  0  0  0  0  0  0  0  0  0
    3.1586    3.4183    0.2399 H   0  0  0  0  0  0  0  0  0  0  0  0
    4.5768   -4.0577    0.8918 H   0  0  0  0  0  0  0  0  0  0  0  0
    3.1595   -3.2648    1.5987 H   0  0  0  0  0  0  0  0  0  0  0  0
    4.7349   -2.4592    1.6386 H   0  0  0  0  0  0  0  0  0  0  0  0
    5.6044    3.4828    0.2148 H   0  0  0  0  0  0  0  0  0  0  0  0
    7.7225    2.2740    0.0727 H   0  0  0  0  0  0  0  0  0  0  0  0
    7.7725    0.5319   -0.0929 H   0  0  0  0  0  0  0  0  0  0  0  0
  1 19  1  0  0  0  0
  1 21  1  0  0  0  0
  2 10  1  0  0  0  0
  2 42  1  0  0  0  0
  3 16  2  0  0  0  0
  4 21  2  0  0  0  0
  5  8  1  0  0  0  0
  5 11  1  0  0  0  0
  5 16  1  0  0  0  0
  6 13  2  0  0  0  0
  6 23  1  0  0  0  0
  7 28  1  0  0  0  0
  7 49  1  0  0  0  0
  7 50  1  0  0  0  0
  8 13  1  0  0  0  0
  8 15  2  0  0  0  0
  9 10  1  0  0  0  0
  9 14  2  0  0  0  0
  9 15  1  0  0  0  0
 10 18  1  0  0  0  0
 10 21  1  0  0  0  0
 11 12  1  0  0  0  0
 11 30  1  0  0  0  0
 11 31  1  0  0  0  0
 12 13  1  0  0  0  0
 12 17  2  0  0  0  0
 14 16  1  0  0  0  0
 14 19  1  0  0  0  0
 15 32  1  0  0  0  0
 17 20  1  0  0  0  0
 17 22  1  0  0  0  0
 18 24  1  0  0  0  0
 18 33  1  0  0  0  0
 18 34  1  0  0  0  0
 19 35  1  0  0  0  0
 19 36  1  0  0  0  0
 20 23  2  0  0  0  0
 20 25  1  0  0  0  0
 22 27  1  0  0  0  0
 22 37  1  0  0  0  0
 22 38  1  0  0  0  0
 23 26  1  0  0  0  0
 24 39  1  0  0  0  0
 24 40  1  0  0  0  0
 24 41  1  0  0  0  0
 25 28  2  0  0  0  0
 25 43  1  0  0  0  0
 26 29  2  0  0  0  0
 26 44  1  0  0  0  0
 27 45  1  0  0  0  0
 27 46  1  0  0  0  0
 27 47  1  0  0  0  0
 28 29  1  0  0  0  0
 29 48  1  0  0  0  0
M  END
> <PUBCHEM_COMPOUND_CID>
10023347

> <PUBCHEM_CONFORMER_RMSD>
0.8

> <PUBCHEM_CONFORMER_DIVERSEORDER>
1

> <PUBCHEM_MMFF94_PARTIAL_CHARGES>
32
1 -0.43
10 0.48
11 0.44
12 -0.14
13 0.34
14 -0.12
15 -0.15
16 0.62
17 -0.14
19 0.42
2 -0.68
21 0.66
22 0.14
23 0.31
25 -0.15
26 -0.15
28 0.1
29 -0.15
3 -0.57
32 0.15
4 -0.57
42 0.4
43 0.15
44 0.15
48 0.15
49 0.4
5 -0.47
50 0.4
6 -0.62
7 -0.9
8 0.08
9 -0.14

> <PUBCHEM_EFFECTIVE_ROTOR_COUNT>
2.8

> <PUBCHEM_PHARMACOPHORE_FEATURES>
14
1 2 acceptor
1 2 donor
1 24 hydrophobe
1 27 hydrophobe
1 3 acceptor
1 4 acceptor
1 6 acceptor
1 7 cation
1 7 donor
5 5 8 11 12 13 rings
6 1 9 10 14 19 21 rings
6 20 23 25 26 28 29 rings
6 5 8 9 14 15 16 rings
6 6 12 13 17 20 23 rings

> <PUBCHEM_HEAVY_ATOM_COUNT>
29

> <PUBCHEM_ATOM_DEF_STEREO_COUNT>
1

> <PUBCHEM_ATOM_UDEF_STEREO_COUNT>
0

> <PUBCHEM_BOND_DEF_STEREO_COUNT>
0

> <PUBCHEM_BOND_UDEF_STEREO_COUNT>
0

> <PUBCHEM_ISOTOPIC_ATOM_COUNT>
0

> <PUBCHEM_COMPONENT_COUNT>
1

> <PUBCHEM_CACTVS_TAUTO_COUNT>
1

> <PUBCHEM_CONFORMER_ID>
0098F1B300000001

> <PUBCHEM_MMFF94_ENERGY>
95.4604

> <PUBCHEM_FEATURE_SELFOVERLAP>
71.296

> <PUBCHEM_SHAPE_FINGERPRINT>
10 15 18186805777166944513
10050765 1 18410855477704527422
10411042 1 17547293307241820286
10595046 47 18341612650401844539
10835480 77 18335978671528491533
11578080 2 17387108920250468782
11595378 159 17168131326159184917
12107183 9 17979638926965196840
12236239 1 17917996083270017462
12403259 415 18262241023696441421
12788726 201 17346608421582326336
13073987 5 18335422352729956715
13140716 1 18409732828834376091
13785724 45 17908708324305508538
14341114 176 18410301280825039105
14790565 3 18412831252469112259
15081414 286 18411706461102247180
15183329 4 18411414025241915692
15196674 1 18411418392965361815
15250474 111 18270386287102606046
15400415 2 18339642343098115024
15475509 35 16733543802499814562
15927050 60 18337390539238545290
1601671 61 18410291432897857908
17844677 252 18338522932543971809
1813 80 16950567674852594078
18608769 82 18267025144834061875
19611394 137 17826525645308496947
20511986 3 18271793640979996090
21033648 144 18336259064125445013
21033648 29 17386003915169454349
21033650 10 14692302711722457387
21133410 171 17048456224839624958
21236236 1 18270399511685925887
21279426 13 18342463621500296630
21315764 268 18334856083072588869
21421861 104 18114169797548553922
21859007 373 17606383368188185436
22393880 68 18272092751219063798
23559900 14 18129946680968200526
25147074 1 18342726442949373926
335352 9 18266737978777679894
3411729 13 18409730669267412942
34934 24 18412824703235121830
350125 39 18411983602007978449
3545911 37 18412829113881490288
4073 2 18187372068346582938
4144715 1 18261403204130910523
4214541 1 18340206387756656316
5104073 3 18335425642717136555
59755656 215 18410857655642700300

> <PUBCHEM_SHAPE_MULTIPOLES>
558.39
15.29
3.44
0.86
1.89
1.02
-0.01
-8.59
-1.01
1.13
0.15
-0.84
-0.19
0.14

> <PUBCHEM_SHAPE_SELFOVERLAP>
1260.249

> <PUBCHEM_SHAPE_VOLUME>
292.9

> <PUBCHEM_COORDINATE_TYPE>
2
5
10

$$$$
