10023017
  -OEChem-03292013303D

 42 44  0     1  0  0  0  0  0999 V2000
    3.5482   -0.3276    0.7672 O   0  0  0  0  0  0  0  0  0  0  0  0
   -0.8763    1.3667    1.0793 O   0  0  0  0  0  0  0  0  0  0  0  0
    6.0083    1.0978    0.6597 O   0  0  0  0  0  0  0  0  0  0  0  0
   -2.4194   -1.9971   -0.6388 O   0  0  0  0  0  0  0  0  0  0  0  0
    6.1470   -1.7000   -1.3052 O   0  0  0  0  0  0  0  0  0  0  0  0
    3.3595    2.1170   -1.6141 O   0  0  0  0  0  0  0  0  0  0  0  0
    5.3594   -2.3000    0.7366 O   0  0  0  0  0  0  0  0  0  0  0  0
    4.1391    3.0573    0.2972 O   0  0  0  0  0  0  0  0  0  0  0  0
   -8.3972    0.1213   -0.5126 O   0  0  0  0  0  0  0  0  0  0  0  0
   -0.5152   -0.8195    0.0886 C   0  0  0  0  0  0  0  0  0  0  0  0
    4.4042   -0.3551   -0.3739 C   0  0  1  0  0  0  0  0  0  0  0  0
   -0.0453    0.3477    0.6899 C   0  0  0  0  0  0  0  0  0  0  0  0
    2.2148   -0.4880    0.5453 C   0  0  0  0  0  0  0  0  0  0  0  0
   -2.8271    0.1620    0.2785 C   0  0  0  0  0  0  0  0  0  0  0  0
    5.1399    0.9834   -0.4542 C   0  0  1  0  0  0  0  0  0  0  0  0
   -1.9634   -0.9762   -0.1406 C   0  0  0  0  0  0  0  0  0  0  0  0
    1.3207    0.5152    0.9194 C   0  0  0  0  0  0  0  0  0  0  0  0
    0.3786   -1.8260   -0.2865 C   0  0  0  0  0  0  0  0  0  0  0  0
    1.7445   -1.6559   -0.0564 C   0  0  0  0  0  0  0  0  0  0  0  0
   -4.2844    0.1514    0.0713 C   0  0  0  0  0  0  0  0  0  0  0  0
   -2.2212    1.2183    0.8416 C   0  0  0  0  0  0  0  0  0  0  0  0
    5.3266   -1.5540   -0.2333 C   0  0  0  0  0  0  0  0  0  0  0  0
   -4.8270    0.6412   -1.1186 C   0  0  0  0  0  0  0  0  0  0  0  0
   -5.1295   -0.3481    1.0645 C   0  0  0  0  0  0  0  0  0  0  0  0
    4.1835    2.1628   -0.5388 C   0  0  0  0  0  0  0  0  0  0  0  0
   -6.2079    0.6314   -1.3144 C   0  0  0  0  0  0  0  0  0  0  0  0
   -6.5105   -0.3579    0.8688 C   0  0  0  0  0  0  0  0  0  0  0  0
   -7.0498    0.1319   -0.3207 C   0  0  0  0  0  0  0  0  0  0  0  0
    3.8229   -0.5037   -1.2944 H   0  0  0  0  0  0  0  0  0  0  0  0
    5.7767    1.0182   -1.3451 H   0  0  0  0  0  0  0  0  0  0  0  0
    1.6884    1.4236    1.3897 H   0  0  0  0  0  0  0  0  0  0  0  0
    0.0328   -2.7437   -0.7538 H   0  0  0  0  0  0  0  0  0  0  0  0
    2.4296   -2.4491   -0.3433 H   0  0  0  0  0  0  0  0  0  0  0  0
   -2.7465    2.1029    1.1805 H   0  0  0  0  0  0  0  0  0  0  0  0
   -4.1841    1.0331   -1.9033 H   0  0  0  0  0  0  0  0  0  0  0  0
   -4.7244   -0.7343    1.9969 H   0  0  0  0  0  0  0  0  0  0  0  0
   -6.6222    1.0139   -2.2434 H   0  0  0  0  0  0  0  0  0  0  0  0
   -7.1555   -0.7503    1.6505 H   0  0  0  0  0  0  0  0  0  0  0  0
    5.4702    1.0128    1.4655 H   0  0  0  0  0  0  0  0  0  0  0  0
    6.7486   -2.4682   -1.2032 H   0  0  0  0  0  0  0  0  0  0  0  0
    2.7416    2.8786   -1.6349 H   0  0  0  0  0  0  0  0  0  0  0  0
   -8.8244   -0.2579    0.2747 H   0  0  0  0  0  0  0  0  0  0  0  0
  1 11  1  0  0  0  0
  1 13  1  0  0  0  0
  2 12  1  0  0  0  0
  2 21  1  0  0  0  0
  3 15  1  0  0  0  0
  3 39  1  0  0  0  0
  4 16  2  0  0  0  0
  5 22  1  0  0  0  0
  5 40  1  0  0  0  0
  6 25  1  0  0  0  0
  6 41  1  0  0  0  0
  7 22  2  0  0  0  0
  8 25  2  0  0  0  0
  9 28  1  0  0  0  0
  9 42  1  0  0  0  0
 10 12  2  0  0  0  0
 10 16  1  0  0  0  0
 10 18  1  0  0  0  0
 11 15  1  0  0  0  0
 11 22  1  0  0  0  0
 11 29  1  0  0  0  0
 12 17  1  0  0  0  0
 13 17  2  0  0  0  0
 13 19  1  0  0  0  0
 14 16  1  0  0  0  0
 14 20  1  0  0  0  0
 14 21  2  0  0  0  0
 15 25  1  0  0  0  0
 15 30  1  0  0  0  0
 17 31  1  0  0  0  0
 18 19  2  0  0  0  0
 18 32  1  0  0  0  0
 19 33  1  0  0  0  0
 20 23  2  0  0  0  0
 20 24  1  0  0  0  0
 21 34  1  0  0  0  0
 23 26  1  0  0  0  0
 23 35  1  0  0  0  0
 24 27  2  0  0  0  0
 24 36  1  0  0  0  0
 26 28  2  0  0  0  0
 26 37  1  0  0  0  0
 27 28  1  0  0  0  0
 27 38  1  0  0  0  0
M  END
> <PUBCHEM_COMPOUND_CID>
10023017

> <PUBCHEM_CONFORMER_RMSD>
0.8

> <PUBCHEM_CONFORMER_DIVERSEORDER>
1
26
105
90
15
98
75
83
103
100
50
56
101
95
66
97
63
27
7
84
68
42
73
72
6
80
93
102
41
61
59
77
48
19
78
76
99
24
29
54
38
46
86
3
74
64
52
88
20
28
37
85
69
94
87
62
67
96
81
51
65
31
49
39
13
34
21
22
36
45
89
18
82
14
8
47
104
71
57
16
35
70
53
44
91
58
33
79
12
32
43
23
30
60
9
10
55
25
4
17
92
40
5
2
11

> <PUBCHEM_MMFF94_PARTIAL_CHARGES>
40
1 -0.36
10 0.09
11 0.34
12 0.08
13 0.08
14 -0.01
15 0.34
16 0.47
17 -0.15
18 -0.15
19 -0.15
2 -0.16
20 0.03
21 -0.07
22 0.66
23 -0.15
24 -0.15
25 0.66
26 -0.15
27 -0.15
28 0.08
3 -0.68
31 0.15
32 0.15
33 0.15
34 0.15
35 0.15
36 0.15
37 0.15
38 0.15
39 0.4
4 -0.57
40 0.5
41 0.5
42 0.45
5 -0.65
6 -0.65
7 -0.57
8 -0.57
9 -0.53

> <PUBCHEM_EFFECTIVE_ROTOR_COUNT>
6

> <PUBCHEM_PHARMACOPHORE_FEATURES>
15
1 1 acceptor
1 2 acceptor
1 3 acceptor
1 3 donor
1 4 acceptor
1 5 acceptor
1 6 acceptor
1 7 acceptor
1 8 acceptor
1 9 donor
3 5 7 22 anion
3 6 8 25 anion
6 10 12 13 17 18 19 rings
6 2 10 12 14 16 21 rings
6 20 23 24 26 27 28 rings

> <PUBCHEM_HEAVY_ATOM_COUNT>
28

> <PUBCHEM_ATOM_DEF_STEREO_COUNT>
0

> <PUBCHEM_ATOM_UDEF_STEREO_COUNT>
2

> <PUBCHEM_BOND_DEF_STEREO_COUNT>
0

> <PUBCHEM_BOND_UDEF_STEREO_COUNT>
0

> <PUBCHEM_ISOTOPIC_ATOM_COUNT>
0

> <PUBCHEM_COMPONENT_COUNT>
1

> <PUBCHEM_CACTVS_TAUTO_COUNT>
2

> <PUBCHEM_CONFORMER_ID>
0098F06900000001

> <PUBCHEM_MMFF94_ENERGY>
77.7472

> <PUBCHEM_FEATURE_SELFOVERLAP>
76.289

> <PUBCHEM_SHAPE_FINGERPRINT>
10 15 17894628192530492648
10763959 59 17749393654536743700
10906281 52 17916882274187002803
11796584 16 13254794642478470205
11991303 11 18272646892132011863
12166972 35 18408608041382078900
12236239 1 16774075172933469707
13533116 47 18343022194697653864
13617811 41 16415482653726630937
13862211 1 17988639666805713787
14790565 3 18200887196925078417
14933364 13 17967534567033019661
15183329 4 17846503655499626261
15419008 47 17385721387683585853
15849732 13 18114183038552776303
18335252 114 18408594869160533117
19319366 153 18341606010319842078
20157964 124 18409166619527797416
21033648 29 17022903488582851388
21049683 118 17823400768684575314
21150785 3 15626222454820627624
21267235 1 18202287965679308187
21315759 40 17489871509890795959
21641784 216 18341626884209235537
21792934 111 18270951371675262289
221357 26 18408887313420361876
23035841 295 16989122046476753031
23081809 10 17703795808031825801
23522609 53 17559700445646984289
23559900 14 18059565948966646808
23569914 2 16666220842881009741
23569943 247 16772124531426224671
23576562 1 18264198279628572877
249057 3 18410576189261465182
255183 451 17770228163371010806
29717793 49 18131072610633280860
3004659 81 18343303643988976306
335352 9 18413393125172102870
3411729 13 14563678646213051222
34797466 226 18186241736186178925
397830 11 17314526996404363945
4073 2 17604154834238644842
4340502 62 17240481411928338771

> <PUBCHEM_SHAPE_MULTIPOLES>
523.4
19.22
2.16
1.13
15.62
0.49
0.13
0.98
3.5
-4.24
0.26
0.31
0.2
0.18

> <PUBCHEM_SHAPE_SELFOVERLAP>
1146.85

> <PUBCHEM_SHAPE_VOLUME>
281.2

> <PUBCHEM_COORDINATE_TYPE>
2
5
10

$$$$
