10022635
  -OEChem-03292013303D

 46 48  0     1  0  0  0  0  0999 V2000
    1.9112    2.6371    1.0464 S   0  0  0  0  0  0  0  0  0  0  0  0
    2.5077   -2.6854   -0.6156 S   0  0  0  0  0  0  0  0  0  0  0  0
    1.0336    1.9868   -2.0293 O   0  0  0  0  0  0  0  0  0  0  0  0
    1.6268   -1.5890    1.9784 O   0  0  0  0  0  0  0  0  0  0  0  0
    4.3310   -1.2651    1.1480 O   0  0  0  0  0  0  0  0  0  0  0  0
    1.8449   -0.0789   -1.3339 N   0  0  0  0  0  0  0  0  0  0  0  0
    0.6399    0.2471    1.0794 N   0  0  0  0  0  0  0  0  0  0  0  0
   -2.9242    0.3026   -1.9392 N   0  0  0  0  0  0  0  0  0  0  0  0
    0.7458    1.4548    0.2872 C   0  0  1  0  0  0  0  0  0  0  0  0
    2.4166   -0.8679   -0.2098 C   0  0  1  0  0  0  0  0  0  0  0  0
   -0.6330    2.1304    0.2387 C   0  0  0  0  0  0  0  0  0  0  0  0
    1.1998    1.1504   -1.1358 C   0  0  0  0  0  0  0  0  0  0  0  0
    1.5239   -0.8016    1.0352 C   0  0  0  0  0  0  0  0  0  0  0  0
   -1.6602    1.2474   -0.4147 C   0  0  0  0  0  0  0  0  0  0  0  0
    3.8365   -0.4100    0.1413 C   0  0  0  0  0  0  0  0  0  0  0  0
    2.2477   -0.4057   -2.7066 C   0  0  0  0  0  0  0  0  0  0  0  0
   -2.4785    0.3131    0.2468 C   0  0  0  0  0  0  0  0  0  0  0  0
   -1.9392    1.2337   -1.7460 C   0  0  0  0  0  0  0  0  0  0  0  0
   -3.2731   -0.2753   -0.7394 C   0  0  0  0  0  0  0  0  0  0  0  0
    1.0995    2.7634    2.6515 C   0  0  0  0  0  0  0  0  0  0  0  0
   -2.6364   -0.1041    1.5834 C   0  0  0  0  0  0  0  0  0  0  0  0
    0.7436   -2.9656   -0.8726 C   0  0  0  0  0  0  0  0  0  0  0  0
   -4.2216   -1.2641   -0.4546 C   0  0  0  0  0  0  0  0  0  0  0  0
   -3.5812   -1.0923    1.8830 C   0  0  0  0  0  0  0  0  0  0  0  0
   -4.3606   -1.6618    0.8782 C   0  0  0  0  0  0  0  0  0  0  0  0
   -0.5943    3.0817   -0.3113 H   0  0  0  0  0  0  0  0  0  0  0  0
   -1.0229    2.3682    1.2343 H   0  0  0  0  0  0  0  0  0  0  0  0
    0.0575    0.2857    1.9084 H   0  0  0  0  0  0  0  0  0  0  0  0
    3.8610    0.6138    0.5181 H   0  0  0  0  0  0  0  0  0  0  0  0
    4.5067   -0.4606   -0.7239 H   0  0  0  0  0  0  0  0  0  0  0  0
    1.8637   -1.3841   -3.0003 H   0  0  0  0  0  0  0  0  0  0  0  0
    3.3390   -0.3960   -2.7732 H   0  0  0  0  0  0  0  0  0  0  0  0
    1.8584    0.3205   -3.4257 H   0  0  0  0  0  0  0  0  0  0  0  0
   -1.5509    1.7964   -2.5829 H   0  0  0  0  0  0  0  0  0  0  0  0
   -3.3380    0.0741   -2.8325 H   0  0  0  0  0  0  0  0  0  0  0  0
    1.7810    3.3001    3.3198 H   0  0  0  0  0  0  0  0  0  0  0  0
    0.9062    1.7966    3.1192 H   0  0  0  0  0  0  0  0  0  0  0  0
    0.1868    3.3608    2.6045 H   0  0  0  0  0  0  0  0  0  0  0  0
   -2.0550    0.3380    2.3867 H   0  0  0  0  0  0  0  0  0  0  0  0
    0.2923   -2.2466   -1.5592 H   0  0  0  0  0  0  0  0  0  0  0  0
    0.1988   -2.9527    0.0749 H   0  0  0  0  0  0  0  0  0  0  0  0
    0.6145   -3.9613   -1.3071 H   0  0  0  0  0  0  0  0  0  0  0  0
    5.2322   -0.9690    1.3618 H   0  0  0  0  0  0  0  0  0  0  0  0
   -4.8289   -1.7081   -1.2362 H   0  0  0  0  0  0  0  0  0  0  0  0
   -3.7104   -1.4150    2.9127 H   0  0  0  0  0  0  0  0  0  0  0  0
   -5.0892   -2.4271    1.1335 H   0  0  0  0  0  0  0  0  0  0  0  0
  1  9  1  0  0  0  0
  1 20  1  0  0  0  0
  2 10  1  0  0  0  0
  2 22  1  0  0  0  0
  3 12  2  0  0  0  0
  4 13  2  0  0  0  0
  5 15  1  0  0  0  0
  5 43  1  0  0  0  0
  6 10  1  0  0  0  0
  6 12  1  0  0  0  0
  6 16  1  0  0  0  0
  7  9  1  0  0  0  0
  7 13  1  0  0  0  0
  7 28  1  0  0  0  0
  8 18  1  0  0  0  0
  8 19  1  0  0  0  0
  8 35  1  0  0  0  0
  9 11  1  0  0  0  0
  9 12  1  0  0  0  0
 10 13  1  0  0  0  0
 10 15  1  0  0  0  0
 11 14  1  0  0  0  0
 11 26  1  0  0  0  0
 11 27  1  0  0  0  0
 14 17  1  0  0  0  0
 14 18  2  0  0  0  0
 15 29  1  0  0  0  0
 15 30  1  0  0  0  0
 16 31  1  0  0  0  0
 16 32  1  0  0  0  0
 16 33  1  0  0  0  0
 17 19  1  0  0  0  0
 17 21  2  0  0  0  0
 18 34  1  0  0  0  0
 19 23  2  0  0  0  0
 20 36  1  0  0  0  0
 20 37  1  0  0  0  0
 20 38  1  0  0  0  0
 21 24  1  0  0  0  0
 21 39  1  0  0  0  0
 22 40  1  0  0  0  0
 22 41  1  0  0  0  0
 22 42  1  0  0  0  0
 23 25  1  0  0  0  0
 23 44  1  0  0  0  0
 24 25  2  0  0  0  0
 24 45  1  0  0  0  0
 25 46  1  0  0  0  0
M  END
> <PUBCHEM_COMPOUND_CID>
10022635

> <PUBCHEM_CONFORMER_RMSD>
0.8

> <PUBCHEM_CONFORMER_DIVERSEORDER>
2
46
29
20
52
28
9
23
54
43
45
32
22
38
13
41
36
10
34
16
49
35
27
40
30
15
26
21
18
42
51
55
3
44
31
1
25
19
24
50
39
14
4
33
37
12
48
6
17
53
47
8
11
5
7

> <PUBCHEM_MMFF94_PARTIAL_CHARGES>
32
1 -0.46
10 0.59
11 0.18
12 0.57
13 0.57
14 -0.18
15 0.28
16 0.3
18 -0.3
19 -0.15
2 -0.46
20 0.23
21 -0.15
22 0.23
23 -0.15
24 -0.15
25 -0.15
28 0.37
3 -0.57
34 0.15
35 0.27
39 0.15
4 -0.57
43 0.4
44 0.15
45 0.15
46 0.15
5 -0.68
6 -0.66
7 -0.73
8 0.03
9 0.59

> <PUBCHEM_EFFECTIVE_ROTOR_COUNT>
5.8

> <PUBCHEM_PHARMACOPHORE_FEATURES>
12
1 20 hydrophobe
1 22 hydrophobe
1 3 acceptor
1 4 acceptor
1 5 acceptor
1 5 donor
1 7 donor
1 8 cation
1 8 donor
5 8 14 17 18 19 rings
6 17 19 21 23 24 25 rings
6 6 7 9 10 12 13 rings

> <PUBCHEM_HEAVY_ATOM_COUNT>
25

> <PUBCHEM_ATOM_DEF_STEREO_COUNT>
0

> <PUBCHEM_ATOM_UDEF_STEREO_COUNT>
2

> <PUBCHEM_BOND_DEF_STEREO_COUNT>
0

> <PUBCHEM_BOND_UDEF_STEREO_COUNT>
0

> <PUBCHEM_ISOTOPIC_ATOM_COUNT>
0

> <PUBCHEM_COMPONENT_COUNT>
1

> <PUBCHEM_CACTVS_TAUTO_COUNT>
2

> <PUBCHEM_CONFORMER_ID>
0098EEEB00000002

> <PUBCHEM_MMFF94_ENERGY>
88.8331

> <PUBCHEM_FEATURE_SELFOVERLAP>
60.99

> <PUBCHEM_SHAPE_FINGERPRINT>
11578080 2 18409161108795697665
11582403 64 16100137251049879781
12156800 1 15458274029611090163
12202030 40 18260547861705031133
12363563 72 18411975845581885031
12506688 2 18410019818601478407
12553582 1 18269855171672836751
13224815 77 18261401061105467455
13544653 18 18340201882678802218
14713325 29 7776377910338435446
14787075 74 18409168844384199560
14955137 171 16988572346239126584
16945 1 18342734113997912556
17492 54 17098370723612226502
1813 80 17560532724234996260
19862831 5 15140679202595334771
20600515 1 17464792611733451962
20645477 70 18339065103909767591
20775530 9 18120948200202073959
21452121 199 18186803599323301436
21731516 1 18201169758253753253
23419403 2 18262780952599048688
23557571 272 18115301159756724940
23559900 14 17386275584551075101
238 59 17896321492378022799
3286 77 18341337785653966523
35225 105 16261187331668843435
4340502 62 17627228198070612643
5262128 65 16878242916827241293
568465 68 18412257307594598574
6669772 16 17682976736139612268
7097593 13 15482678948524740687
81228 2 17480004307801661624

> <PUBCHEM_SHAPE_MULTIPOLES>
489.64
6.88
3.05
2.34
4.51
0.51
0.43
-3.78
-1.57
-2.17
-0.82
-0.04
0.37
0.68

> <PUBCHEM_SHAPE_SELFOVERLAP>
1026.256

> <PUBCHEM_SHAPE_VOLUME>
281.1

> <PUBCHEM_COORDINATE_TYPE>
2
5
10

$$$$
