10021298
  -OEChem-03292013303D

 48 49  0     0  0  0  0  0  0999 V2000
   -0.9196    1.0540    0.0374 O   0  0  0  0  0  0  0  0  0  0  0  0
   -0.4744   -3.5392   -1.2360 O   0  0  0  0  0  0  0  0  0  0  0  0
   -4.4922   -2.0355    0.8179 O   0  0  0  0  0  0  0  0  0  0  0  0
    1.6939   -1.9710    0.8247 O   0  0  0  0  0  0  0  0  0  0  0  0
    3.2623   -0.3997    2.2440 O   0  0  0  0  0  0  0  0  0  0  0  0
    6.3737    2.0806   -0.3767 O   0  0  0  0  0  0  0  0  0  0  0  0
   -0.6752   -1.2342   -0.6067 C   0  0  0  0  0  0  0  0  0  0  0  0
   -2.7085   -0.4801    0.4321 C   0  0  0  0  0  0  0  0  0  0  0  0
   -1.4330   -0.2074   -0.0433 C   0  0  0  0  0  0  0  0  0  0  0  0
    0.7000   -0.9538   -1.1224 C   0  0  0  0  0  0  0  0  0  0  0  0
   -3.5298    0.6291    1.0408 C   0  0  0  0  0  0  0  0  0  0  0  0
   -1.2002   -2.5237   -0.6897 C   0  0  0  0  0  0  0  0  0  0  0  0
   -3.2406   -1.7601    0.3547 C   0  0  0  0  0  0  0  0  0  0  0  0
   -2.4830   -2.7868   -0.2090 C   0  0  0  0  0  0  0  0  0  0  0  0
    1.7920   -1.1376   -0.0735 C   0  0  0  0  0  0  0  0  0  0  0  0
   -4.3695    1.3448    0.0206 C   0  0  0  0  0  0  0  0  0  0  0  0
    3.0130   -0.2808   -0.1377 C   0  0  0  0  0  0  0  0  0  0  0  0
   -4.3235    2.6462   -0.3231 C   0  0  0  0  0  0  0  0  0  0  0  0
    3.6794    0.0395    1.0233 C   0  0  0  0  0  0  0  0  0  0  0  0
    3.4264    0.1575   -1.3765 C   0  0  0  0  0  0  0  0  0  0  0  0
   -0.1926    1.3813    1.2190 C   0  0  0  0  0  0  0  0  0  0  0  0
   -5.1951    3.3022   -1.3562 C   0  0  0  0  0  0  0  0  0  0  0  0
   -3.3504    3.5776    0.3497 C   0  0  0  0  0  0  0  0  0  0  0  0
    4.8191    0.8398    0.9423 C   0  0  0  0  0  0  0  0  0  0  0  0
    4.5658    0.9581   -1.4575 C   0  0  0  0  0  0  0  0  0  0  0  0
    5.2620    1.2992   -0.2980 C   0  0  0  0  0  0  0  0  0  0  0  0
    0.9410   -1.5733   -1.9939 H   0  0  0  0  0  0  0  0  0  0  0  0
    0.7265    0.0764   -1.4982 H   0  0  0  0  0  0  0  0  0  0  0  0
   -4.2078    0.2149    1.7989 H   0  0  0  0  0  0  0  0  0  0  0  0
   -2.8866    1.2919    1.6209 H   0  0  0  0  0  0  0  0  0  0  0  0
   -2.8854   -3.7946   -0.2771 H   0  0  0  0  0  0  0  0  0  0  0  0
   -5.1052    0.7223   -0.4883 H   0  0  0  0  0  0  0  0  0  0  0  0
    2.9168   -0.1091   -2.2965 H   0  0  0  0  0  0  0  0  0  0  0  0
    0.4746   -3.3451   -1.1810 H   0  0  0  0  0  0  0  0  0  0  0  0
   -4.6838   -2.9782    0.6752 H   0  0  0  0  0  0  0  0  0  0  0  0
   -5.8662    2.5804   -1.8332 H   0  0  0  0  0  0  0  0  0  0  0  0
   -5.8129    4.0813   -0.8985 H   0  0  0  0  0  0  0  0  0  0  0  0
   -4.5804    3.7557   -2.1405 H   0  0  0  0  0  0  0  0  0  0  0  0
   -3.1136    3.3023    1.3794 H   0  0  0  0  0  0  0  0  0  0  0  0
   -2.4237    3.6389   -0.2294 H   0  0  0  0  0  0  0  0  0  0  0  0
   -3.7735    4.5873    0.4087 H   0  0  0  0  0  0  0  0  0  0  0  0
    0.8054    1.7217    0.9303 H   0  0  0  0  0  0  0  0  0  0  0  0
   -0.0976    0.5339    1.9070 H   0  0  0  0  0  0  0  0  0  0  0  0
   -0.6987    2.2039    1.7314 H   0  0  0  0  0  0  0  0  0  0  0  0
    5.3576    1.1024    1.8496 H   0  0  0  0  0  0  0  0  0  0  0  0
    4.9089    1.3093   -2.4268 H   0  0  0  0  0  0  0  0  0  0  0  0
    2.4009   -0.8402    2.1725 H   0  0  0  0  0  0  0  0  0  0  0  0
    6.7276    2.2167    0.5190 H   0  0  0  0  0  0  0  0  0  0  0  0
  1  9  1  0  0  0  0
  1 21  1  0  0  0  0
  2 12  1  0  0  0  0
  2 34  1  0  0  0  0
  3 13  1  0  0  0  0
  3 35  1  0  0  0  0
  4 15  2  0  0  0  0
  5 19  1  0  0  0  0
  5 47  1  0  0  0  0
  6 26  1  0  0  0  0
  6 48  1  0  0  0  0
  7  9  1  0  0  0  0
  7 10  1  0  0  0  0
  7 12  2  0  0  0  0
  8  9  2  0  0  0  0
  8 11  1  0  0  0  0
  8 13  1  0  0  0  0
 10 15  1  0  0  0  0
 10 27  1  0  0  0  0
 10 28  1  0  0  0  0
 11 16  1  0  0  0  0
 11 29  1  0  0  0  0
 11 30  1  0  0  0  0
 12 14  1  0  0  0  0
 13 14  2  0  0  0  0
 14 31  1  0  0  0  0
 15 17  1  0  0  0  0
 16 18  2  0  0  0  0
 16 32  1  0  0  0  0
 17 19  2  0  0  0  0
 17 20  1  0  0  0  0
 18 22  1  0  0  0  0
 18 23  1  0  0  0  0
 19 24  1  0  0  0  0
 20 25  2  0  0  0  0
 20 33  1  0  0  0  0
 21 42  1  0  0  0  0
 21 43  1  0  0  0  0
 21 44  1  0  0  0  0
 22 36  1  0  0  0  0
 22 37  1  0  0  0  0
 22 38  1  0  0  0  0
 23 39  1  0  0  0  0
 23 40  1  0  0  0  0
 23 41  1  0  0  0  0
 24 26  2  0  0  0  0
 24 45  1  0  0  0  0
 25 26  1  0  0  0  0
 25 46  1  0  0  0  0
M  END
> <PUBCHEM_COMPOUND_CID>
10021298

> <PUBCHEM_CONFORMER_RMSD>
0.8

> <PUBCHEM_CONFORMER_DIVERSEORDER>
2
247
82
18
99
270
338
174
30
335
347
120
114
94
162
257
121
300
204
105
169
130
235
27
251
298
123
349
135
319
315
16
234
290
129
143
153
109
64
268
96
344
163
175
245
141
215
182
303
240
87
277
177
243
287
312
106
311
92
53
168
224
267
342
42
112
65
320
84
20
57
22
253
276
327
193
108
45
289
97
55
128
249
288
188
71
52
307
220
206
68
38
278
80
301
67
61
5
293
317
341
337
157
181
142
116
333
187
286
72
263
171
89
239
227
83
41
248
336
155
250
326
194
203
231
115
138
29
113
9
35
166
150
265
213
348
111
60
321
332
272
296
78
328
103
284
292
149
262
212
230
147
238
74
31
91
100
179
195
77
54
90
140
95
260
252
258
340
214
37
244
21
59
73
233
33
274
255
225
154
32
291
133
329
43
334
25
314
313
19
309
190
331
24
184
228
264
81
325
266
306
197
345
51
208
88
63
200
202
75
158
119
308
241
323
283
159
104
207
299
176
165
126
186
281
302
156
226
254
122
218
14
221
209
294
118
170
148
117
13
134
242
261
101
216
127
132
62
189
136
144
269
198
282
280
322
273
330
145
10
48
201
161
237
305
178
310
191
211
232
164
183
160
279
172
151
110
219
297
318
86
131
324
146
210
79
185
246
192
102
229
6
223
46
196
76
137
44
39
222
173
343
285
85
275
152
34
40
124
26
139
125
339
69
316
93
28
23
49
56
205
12
70
8
346
271
167
15
304
199
217
50
47
66
259
1
11
107
58
295
180
236
3
256
7
98
17
36
4

> <PUBCHEM_MMFF94_PARTIAL_CHARGES>
35
1 -0.36
10 0.2
11 0.28
12 0.08
13 0.08
14 -0.15
15 0.42
16 -0.29
17 0.09
18 -0.28
19 0.08
2 -0.53
20 -0.15
21 0.28
22 0.14
23 0.14
24 -0.15
25 -0.15
26 0.08
3 -0.53
31 0.15
32 0.15
33 0.15
34 0.45
35 0.45
4 -0.57
45 0.15
46 0.15
47 0.45
48 0.45
5 -0.53
6 -0.53
7 -0.14
8 -0.14
9 0.08

> <PUBCHEM_EFFECTIVE_ROTOR_COUNT>
6

> <PUBCHEM_PHARMACOPHORE_FEATURES>
9
1 1 acceptor
1 2 donor
1 3 donor
1 4 acceptor
1 5 donor
1 6 donor
3 18 22 23 hydrophobe
6 17 19 20 24 25 26 rings
6 7 8 9 12 13 14 rings

> <PUBCHEM_HEAVY_ATOM_COUNT>
26

> <PUBCHEM_ATOM_DEF_STEREO_COUNT>
0

> <PUBCHEM_ATOM_UDEF_STEREO_COUNT>
0

> <PUBCHEM_BOND_DEF_STEREO_COUNT>
0

> <PUBCHEM_BOND_UDEF_STEREO_COUNT>
0

> <PUBCHEM_ISOTOPIC_ATOM_COUNT>
0

> <PUBCHEM_COMPONENT_COUNT>
1

> <PUBCHEM_CACTVS_TAUTO_COUNT>
189

> <PUBCHEM_CONFORMER_ID>
0098E9B200000002

> <PUBCHEM_MMFF94_ENERGY>
81.7499

> <PUBCHEM_FEATURE_SELFOVERLAP>
45.672

> <PUBCHEM_SHAPE_FINGERPRINT>
10411042 1 17692252254438161095
10498660 4 18273218586342733272
105312 117 18409445848062942165
10670039 82 18411429427158092044
10675989 125 17690561880054281057
12107183 9 18045207255348608778
12236239 1 18187363285839601360
12390115 104 18129679550881025979
12403259 118 18187082875297673796
12403259 415 18268723718657967615
12403814 3 17821721771300062863
12422481 6 17531528655092077669
12596602 18 17458064876377255481
12788726 201 18261390117771904115
12969540 114 17346596365783049725
13540713 4 18195266446550704087
13726171 33 18341623632792204448
13965767 371 18041276561382101076
14341114 328 17749106708082648080
14347329 18 18343302531223402912
144659 39 17531796931871735813
14848178 96 18126567804241815577
15163728 17 18269562632960637353
15575132 122 18337679705825566356
16988056 13 16752682764864980269
20511986 3 17967802847702080504
20715895 44 18047747105528433309
21033648 29 18060413629555861568
21033650 10 18191894351577147286
21065198 48 18113894970711536802
23557571 272 17773326827729162614
23559900 14 18053950558490223646
23569914 2 17555972014745120064
341906 21 18410854343447448265
350125 39 18341055207266468401
376196 1 17903357005754951125
4371632 12 15048599608936672993
463206 1 9799104358479474517
5104073 3 18040715848895728962
58260988 393 18114186384094689139
6327066 14 18335698287605369101
7808743 9 18411982481385725480
9849439 229 18120941595032827109
9981440 41 18336267843339564059

> <PUBCHEM_SHAPE_MULTIPOLES>
499.85
12.13
3.8
1.37
8.1
0.12
0.14
10.71
-0.67
-5.51
-0.95
0.84
0.11
0.5

> <PUBCHEM_SHAPE_SELFOVERLAP>
1067.38

> <PUBCHEM_SHAPE_VOLUME>
277.5

> <PUBCHEM_COORDINATE_TYPE>
2
5
10

$$$$
