10021147
  -OEChem-03292013303D

 42 45  0     1  0  0  0  0  0999 V2000
    4.7199   -0.2598    1.4282 O   0  0  0  0  0  0  0  0  0  0  0  0
    3.4369    2.2147    1.0038 O   0  0  0  0  0  0  0  0  0  0  0  0
    1.0235   -2.8004   -0.0539 O   0  0  0  0  0  0  0  0  0  0  0  0
    0.6159    2.6989   -0.2635 O   0  0  0  0  0  0  0  0  0  0  0  0
   -1.8766    2.4357   -0.1064 O   0  0  0  0  0  0  0  0  0  0  0  0
   -1.4911   -2.8909    0.0529 O   0  0  0  0  0  0  0  0  0  0  0  0
   -4.4361    2.3402   -0.0068 O   0  0  0  0  0  0  0  0  0  0  0  0
    4.6149   -0.4758    0.0188 C   0  0  2  0  0  0  0  0  0  0  0  0
    4.4510    0.8656   -0.7132 C   0  0  0  0  0  0  0  0  0  0  0  0
    3.3968   -1.3772   -0.2369 C   0  0  0  0  0  0  0  0  0  0  0  0
    3.1907    1.6154   -0.2691 C   0  0  1  0  0  0  0  0  0  0  0  0
    2.0653   -0.6645   -0.1593 C   0  0  0  0  0  0  0  0  0  0  0  0
    1.9642    0.7358   -0.2111 C   0  0  0  0  0  0  0  0  0  0  0  0
    5.8972   -1.1818   -0.4303 C   0  0  0  0  0  0  0  0  0  0  0  0
    0.8948   -1.4391   -0.0932 C   0  0  0  0  0  0  0  0  0  0  0  0
    0.6937    1.3363   -0.1785 C   0  0  0  0  0  0  0  0  0  0  0  0
   -0.3655   -0.8316   -0.0612 C   0  0  0  0  0  0  0  0  0  0  0  0
   -0.4661    0.5567   -0.1037 C   0  0  0  0  0  0  0  0  0  0  0  0
   -1.7884    1.2146   -0.0713 C   0  0  0  0  0  0  0  0  0  0  0  0
   -1.5796   -1.6699    0.0144 C   0  0  0  0  0  0  0  0  0  0  0  0
   -3.0035    0.3781    0.0033 C   0  0  0  0  0  0  0  0  0  0  0  0
   -2.9028   -1.0140    0.0444 C   0  0  0  0  0  0  0  0  0  0  0  0
   -4.2631    0.9882    0.0322 C   0  0  0  0  0  0  0  0  0  0  0  0
   -4.0616   -1.7962    0.1145 C   0  0  0  0  0  0  0  0  0  0  0  0
   -5.4155    0.2050    0.1026 C   0  0  0  0  0  0  0  0  0  0  0  0
   -5.3149   -1.1842    0.1436 C   0  0  0  0  0  0  0  0  0  0  0  0
    4.4041    0.6827   -1.7949 H   0  0  0  0  0  0  0  0  0  0  0  0
    5.3261    1.4985   -0.5169 H   0  0  0  0  0  0  0  0  0  0  0  0
    3.4167   -2.1920    0.4983 H   0  0  0  0  0  0  0  0  0  0  0  0
    3.4736   -1.8115   -1.2426 H   0  0  0  0  0  0  0  0  0  0  0  0
    3.0451    2.4269   -0.9921 H   0  0  0  0  0  0  0  0  0  0  0  0
    6.0217   -2.1384    0.0900 H   0  0  0  0  0  0  0  0  0  0  0  0
    5.8980   -1.3729   -1.5084 H   0  0  0  0  0  0  0  0  0  0  0  0
    6.7782   -0.5779   -0.1848 H   0  0  0  0  0  0  0  0  0  0  0  0
    4.8481   -1.1214    1.8603 H   0  0  0  0  0  0  0  0  0  0  0  0
    3.2615    1.5522    1.6936 H   0  0  0  0  0  0  0  0  0  0  0  0
    1.8294   -3.0832   -0.5138 H   0  0  0  0  0  0  0  0  0  0  0  0
    1.4216    3.1055    0.0936 H   0  0  0  0  0  0  0  0  0  0  0  0
   -4.0100   -2.8812    0.1474 H   0  0  0  0  0  0  0  0  0  0  0  0
   -6.3971    0.6711    0.1253 H   0  0  0  0  0  0  0  0  0  0  0  0
   -6.2137   -1.7917    0.1981 H   0  0  0  0  0  0  0  0  0  0  0  0
   -3.5823    2.7949   -0.0579 H   0  0  0  0  0  0  0  0  0  0  0  0
  1  8  1  0  0  0  0
  1 35  1  0  0  0  0
  2 11  1  0  0  0  0
  2 36  1  0  0  0  0
  3 15  1  0  0  0  0
  3 37  1  0  0  0  0
  4 16  1  0  0  0  0
  4 38  1  0  0  0  0
  5 19  2  0  0  0  0
  6 20  2  0  0  0  0
  7 23  1  0  0  0  0
  7 42  1  0  0  0  0
  8  9  1  0  0  0  0
  8 10  1  0  0  0  0
  8 14  1  0  0  0  0
  9 11  1  0  0  0  0
  9 27  1  0  0  0  0
  9 28  1  0  0  0  0
 10 12  1  0  0  0  0
 10 29  1  0  0  0  0
 10 30  1  0  0  0  0
 11 13  1  0  0  0  0
 11 31  1  0  0  0  0
 12 13  2  0  0  0  0
 12 15  1  0  0  0  0
 13 16  1  0  0  0  0
 14 32  1  0  0  0  0
 14 33  1  0  0  0  0
 14 34  1  0  0  0  0
 15 17  2  0  0  0  0
 16 18  2  0  0  0  0
 17 18  1  0  0  0  0
 17 20  1  0  0  0  0
 18 19  1  0  0  0  0
 19 21  1  0  0  0  0
 20 22  1  0  0  0  0
 21 22  2  0  0  0  0
 21 23  1  0  0  0  0
 22 24  1  0  0  0  0
 23 25  2  0  0  0  0
 24 26  2  0  0  0  0
 24 39  1  0  0  0  0
 25 26  1  0  0  0  0
 25 40  1  0  0  0  0
 26 41  1  0  0  0  0
M  END
> <PUBCHEM_COMPOUND_CID>
10021147

> <PUBCHEM_CONFORMER_RMSD>
0.6

> <PUBCHEM_CONFORMER_DIVERSEORDER>
1
2

> <PUBCHEM_MMFF94_PARTIAL_CHARGES>
32
1 -0.68
10 0.14
11 0.42
12 -0.14
13 -0.14
15 0.08
16 0.08
17 0.09
18 0.09
19 0.4
2 -0.68
20 0.4
21 0.09
22 0.09
23 0.08
24 -0.15
25 -0.15
26 -0.15
3 -0.53
35 0.4
36 0.4
37 0.45
38 0.45
39 0.15
4 -0.53
40 0.15
41 0.15
42 0.45
5 -0.57
6 -0.57
7 -0.53
8 0.28

> <PUBCHEM_EFFECTIVE_ROTOR_COUNT>
0.8

> <PUBCHEM_PHARMACOPHORE_FEATURES>
13
1 1 acceptor
1 1 donor
1 2 acceptor
1 2 donor
1 3 donor
1 4 donor
1 5 acceptor
1 6 acceptor
1 7 donor
6 12 13 15 16 17 18 rings
6 17 18 19 20 21 22 rings
6 21 22 23 24 25 26 rings
6 8 9 10 11 12 13 rings

> <PUBCHEM_HEAVY_ATOM_COUNT>
26

> <PUBCHEM_ATOM_DEF_STEREO_COUNT>
2

> <PUBCHEM_ATOM_UDEF_STEREO_COUNT>
0

> <PUBCHEM_BOND_DEF_STEREO_COUNT>
0

> <PUBCHEM_BOND_UDEF_STEREO_COUNT>
0

> <PUBCHEM_ISOTOPIC_ATOM_COUNT>
0

> <PUBCHEM_COMPONENT_COUNT>
1

> <PUBCHEM_CACTVS_TAUTO_COUNT>
186

> <PUBCHEM_CONFORMER_ID>
0098E91B00000001

> <PUBCHEM_MMFF94_ENERGY>
90.6356

> <PUBCHEM_FEATURE_SELFOVERLAP>
66.042

> <PUBCHEM_SHAPE_FINGERPRINT>
10411042 1 17833835245728834999
10675989 125 16677237580087563829
10906281 52 18265354891796716671
10967382 1 18410295834621930439
1100329 8 18410013277192096411
11578080 2 16915086576390098186
12011746 2 18409448072660530207
12107183 9 17758673343490390082
12166972 35 17749394801324302957
12236239 1 17822013095211724454
12403259 226 18411132524617201260
12403259 415 18410285917648419772
12838862 33 18337654344528960605
13140716 1 18338233898250747090
13402501 40 18411983550848257062
138480 1 17689718554371889751
13862211 1 18410290328605998599
14790565 3 18409456885685728981
15042514 8 18192717958965066155
15196674 1 18410294734988937901
15256400 18 18411138030321545924
15536298 74 18341614840761202093
15788980 27 18259988171167239123
15927050 60 17548984810953380292
1601671 61 18411700954652960466
17349148 13 18409729577422300437
17804303 29 18412265051484060076
1813 80 17095517435283050860
18681886 176 18411698803459751840
19591789 44 18410293592633262110
200 152 18131350812923981065
20028762 73 18201434821929181783
21033648 29 17703492333831835170
21236236 1 18411702063181758301
21267235 1 18409739464532312103
21279426 13 18339362963558997628
21421861 104 17752199496552123978
21709351 56 18408037403463195205
21859007 373 17897418662842902212
23227448 37 18342457088333313135
23402539 116 18341608213779859839
23559900 14 18341894134438287008
3004659 81 18259706701197658876
335352 9 18410294692049795359
338550 245 18334299794143971428
34934 24 18264767671415635295
350125 39 18409731768383388996
3545911 37 18409731742666046821
3680242 22 18262800649086817018
3886686 26 16893395007908880154
4214541 1 18410576167385474541
495365 180 17417806301281521208
5104073 3 18410294739452827969
59755656 215 18337954471962932814
6138700 20 18337394838278567334
9709674 26 18338240495526449735

> <PUBCHEM_SHAPE_MULTIPOLES>
493.98
11.69
2.77
0.72
0.79
0.16
0.1
-0.83
0.45
-0.62
0
0.55
0.06
0.23

> <PUBCHEM_SHAPE_SELFOVERLAP>
1120.813

> <PUBCHEM_SHAPE_VOLUME>
254.3

> <PUBCHEM_COORDINATE_TYPE>
2
5
10

$$$$
