10028689
  -OEChem-03292013303D

 58 63  0     1  0  0  0  0  0999 V2000
    2.6494   -0.4871    0.9898 O   0  0  0  0  0  0  0  0  0  0  0  0
    5.5509    2.1498   -0.3623 O   0  0  0  0  0  0  0  0  0  0  0  0
    1.8827   -0.8335   -1.1847 O   0  0  0  0  0  0  0  0  0  0  0  0
    3.6753    2.0916    1.6498 O   0  0  0  0  0  0  0  0  0  0  0  0
    4.2706    0.2570   -2.2137 O   0  0  0  0  0  0  0  0  0  0  0  0
   -0.1220    0.7557   -0.7554 O   0  0  0  0  0  0  0  0  0  0  0  0
   -4.9283    0.1521    0.6091 O   0  0  0  0  0  0  0  0  0  0  0  0
   -3.2169   -3.7116    0.4299 O   0  0  0  0  0  0  0  0  0  0  0  0
   -5.1834   -2.0968    0.8474 O   0  0  0  0  0  0  0  0  0  0  0  0
    0.1366    3.0039   -0.9965 O   0  0  0  0  0  0  0  0  0  0  0  0
    5.0158    0.8797    0.0278 C   0  0  1  0  0  0  0  0  0  0  0  0
    4.5390    0.9609    1.4915 C   0  0  2  0  0  0  0  0  0  0  0  0
    3.8233    0.5332   -0.8870 C   0  0  2  0  0  0  0  0  0  0  0  0
    3.7532   -0.3000    1.8830 C   0  0  1  0  0  0  0  0  0  0  0  0
    3.0440   -0.6796   -0.3676 C   0  0  1  0  0  0  0  0  0  0  0  0
    6.1779   -0.1144   -0.1170 C   0  0  0  0  0  0  0  0  0  0  0  0
    3.1820   -0.2106    3.2947 C   0  0  0  0  0  0  0  0  0  0  0  0
    1.0434   -1.8665   -0.8773 C   0  0  0  0  0  0  0  0  0  0  0  0
   -0.3063   -1.6640   -0.5225 C   0  0  0  0  0  0  0  0  0  0  0  0
   -2.2413   -0.2145   -0.1009 C   0  0  0  0  0  0  0  0  0  0  0  0
   -0.9058   -0.3911   -0.4540 C   0  0  0  0  0  0  0  0  0  0  0  0
   -1.1085   -2.7900   -0.2179 C   0  0  0  0  0  0  0  0  0  0  0  0
   -2.7964    1.1086   -0.0484 C   0  0  0  0  0  0  0  0  0  0  0  0
   -3.0201   -1.3286    0.1964 C   0  0  0  0  0  0  0  0  0  0  0  0
   -2.4589   -2.6099    0.1387 C   0  0  0  0  0  0  0  0  0  0  0  0
    1.5865   -3.1505   -0.9299 C   0  0  0  0  0  0  0  0  0  0  0  0
   -2.0249    2.2305   -0.3450 C   0  0  0  0  0  0  0  0  0  0  0  0
   -4.1306    1.2779    0.3051 C   0  0  0  0  0  0  0  0  0  0  0  0
   -0.5430   -4.0745   -0.2765 C   0  0  0  0  0  0  0  0  0  0  0  0
    0.7943   -4.2528   -0.6298 C   0  0  0  0  0  0  0  0  0  0  0  0
   -2.5946    3.5079   -0.2850 C   0  0  0  0  0  0  0  0  0  0  0  0
   -4.4458   -1.1592    0.5743 C   0  0  0  0  0  0  0  0  0  0  0  0
   -0.6018    2.0676   -0.7236 C   0  0  0  0  0  0  0  0  0  0  0  0
   -4.7162    2.5385    0.3708 C   0  0  0  0  0  0  0  0  0  0  0  0
   -3.9388    3.6569    0.0729 C   0  0  0  0  0  0  0  0  0  0  0  0
   -1.8411    4.7634   -0.5861 C   0  0  0  0  0  0  0  0  0  0  0  0
    5.3857    1.1121    2.1715 H   0  0  0  0  0  0  0  0  0  0  0  0
    3.1534    1.3996   -0.9620 H   0  0  0  0  0  0  0  0  0  0  0  0
    4.3959   -1.1868    1.8355 H   0  0  0  0  0  0  0  0  0  0  0  0
    3.6684   -1.5767   -0.4502 H   0  0  0  0  0  0  0  0  0  0  0  0
    6.9978    0.1541    0.5598 H   0  0  0  0  0  0  0  0  0  0  0  0
    5.8871   -1.1462    0.0963 H   0  0  0  0  0  0  0  0  0  0  0  0
    6.6016   -0.0807   -1.1273 H   0  0  0  0  0  0  0  0  0  0  0  0
    3.9717   -0.0400    4.0326 H   0  0  0  0  0  0  0  0  0  0  0  0
    2.4377    0.5885    3.3788 H   0  0  0  0  0  0  0  0  0  0  0  0
    2.6634   -1.1414    3.5500 H   0  0  0  0  0  0  0  0  0  0  0  0
    4.8203    2.7901   -0.3948 H   0  0  0  0  0  0  0  0  0  0  0  0
    4.2209    2.8901    1.5513 H   0  0  0  0  0  0  0  0  0  0  0  0
    3.4878    0.0288   -2.7437 H   0  0  0  0  0  0  0  0  0  0  0  0
    2.6168   -3.3199   -1.2293 H   0  0  0  0  0  0  0  0  0  0  0  0
   -1.1181   -4.9736   -0.0712 H   0  0  0  0  0  0  0  0  0  0  0  0
    1.2136   -5.2535   -0.6805 H   0  0  0  0  0  0  0  0  0  0  0  0
   -5.7589    2.6557    0.6483 H   0  0  0  0  0  0  0  0  0  0  0  0
   -4.4000    4.6401    0.1254 H   0  0  0  0  0  0  0  0  0  0  0  0
   -1.0068    4.8942    0.1106 H   0  0  0  0  0  0  0  0  0  0  0  0
   -1.4818    4.7641   -1.6202 H   0  0  0  0  0  0  0  0  0  0  0  0
   -2.4726    5.6534   -0.4798 H   0  0  0  0  0  0  0  0  0  0  0  0
   -2.6895   -4.3351    0.9556 H   0  0  0  0  0  0  0  0  0  0  0  0
  1 14  1  0  0  0  0
  1 15  1  0  0  0  0
  2 11  1  0  0  0  0
  2 47  1  0  0  0  0
  3 15  1  0  0  0  0
  3 18  1  0  0  0  0
  4 12  1  0  0  0  0
  4 48  1  0  0  0  0
  5 13  1  0  0  0  0
  5 49  1  0  0  0  0
  6 21  1  0  0  0  0
  6 33  1  0  0  0  0
  7 28  1  0  0  0  0
  7 32  1  0  0  0  0
  8 25  1  0  0  0  0
  8 58  1  0  0  0  0
  9 32  2  0  0  0  0
 10 33  2  0  0  0  0
 11 12  1  0  0  0  0
 11 13  1  0  0  0  0
 11 16  1  0  0  0  0
 12 14  1  0  0  0  0
 12 37  1  0  0  0  0
 13 15  1  0  0  0  0
 13 38  1  0  0  0  0
 14 17  1  0  0  0  0
 14 39  1  0  0  0  0
 15 40  1  0  0  0  0
 16 41  1  0  0  0  0
 16 42  1  0  0  0  0
 16 43  1  0  0  0  0
 17 44  1  0  0  0  0
 17 45  1  0  0  0  0
 17 46  1  0  0  0  0
 18 19  1  0  0  0  0
 18 26  2  0  0  0  0
 19 21  1  0  0  0  0
 19 22  2  0  0  0  0
 20 21  2  0  0  0  0
 20 23  1  0  0  0  0
 20 24  1  0  0  0  0
 22 25  1  0  0  0  0
 22 29  1  0  0  0  0
 23 27  1  0  0  0  0
 23 28  2  0  0  0  0
 24 25  2  0  0  0  0
 24 32  1  0  0  0  0
 26 30  1  0  0  0  0
 26 50  1  0  0  0  0
 27 31  2  0  0  0  0
 27 33  1  0  0  0  0
 28 34  1  0  0  0  0
 29 30  2  0  0  0  0
 29 51  1  0  0  0  0
 30 52  1  0  0  0  0
 31 35  1  0  0  0  0
 31 36  1  0  0  0  0
 34 35  2  0  0  0  0
 34 53  1  0  0  0  0
 35 54  1  0  0  0  0
 36 55  1  0  0  0  0
 36 56  1  0  0  0  0
 36 57  1  0  0  0  0
M  END
> <PUBCHEM_COMPOUND_CID>
10028689

> <PUBCHEM_CONFORMER_RMSD>
0.8

> <PUBCHEM_CONFORMER_DIVERSEORDER>
1
6
22
14
15
12
11
4
23
17
21
20
19
27
18
5
2
16
7
9
3
24
13
26
10
8
25

> <PUBCHEM_MMFF94_PARTIAL_CHARGES>
39
1 -0.56
10 -0.57
11 0.28
12 0.28
13 0.28
14 0.28
15 0.56
18 0.08
2 -0.68
21 0.08
24 0.09
25 0.08
26 -0.15
27 0.09
28 0.08
29 -0.15
3 -0.36
30 -0.15
31 -0.14
32 0.63
33 0.63
34 -0.15
35 -0.15
36 0.14
4 -0.68
47 0.4
48 0.4
49 0.4
5 -0.68
50 0.15
51 0.15
52 0.15
53 0.15
54 0.15
58 0.45
6 -0.23
7 -0.23
8 -0.53
9 -0.57

> <PUBCHEM_EFFECTIVE_ROTOR_COUNT>
3.2

> <PUBCHEM_PHARMACOPHORE_FEATURES>
17
1 1 acceptor
1 10 acceptor
1 2 acceptor
1 2 donor
1 3 acceptor
1 4 acceptor
1 4 donor
1 5 acceptor
1 5 donor
1 8 donor
1 9 acceptor
6 1 11 12 13 14 15 rings
6 18 19 22 26 29 30 rings
6 19 20 21 22 24 25 rings
6 23 27 28 31 34 35 rings
6 6 20 21 23 27 33 rings
6 7 20 23 24 28 32 rings

> <PUBCHEM_HEAVY_ATOM_COUNT>
36

> <PUBCHEM_ATOM_DEF_STEREO_COUNT>
5

> <PUBCHEM_ATOM_UDEF_STEREO_COUNT>
0

> <PUBCHEM_BOND_DEF_STEREO_COUNT>
0

> <PUBCHEM_BOND_UDEF_STEREO_COUNT>
0

> <PUBCHEM_ISOTOPIC_ATOM_COUNT>
0

> <PUBCHEM_COMPONENT_COUNT>
1

> <PUBCHEM_CACTVS_TAUTO_COUNT>
4

> <PUBCHEM_CONFORMER_ID>
0099069100000001

> <PUBCHEM_MMFF94_ENERGY>
155.1826

> <PUBCHEM_FEATURE_SELFOVERLAP>
86.494

> <PUBCHEM_SHAPE_FINGERPRINT>
10006869 2 18337380557496652783
10165383 225 18130515188440095042
10319926 262 18339633452721807466
10369192 42 16479638298441035184
10411042 1 17906459075496597567
10439779 11 16823329694216447417
10670039 82 18336276682234215628
1100329 8 17976826707087327679
11115154 58 16481873536929568023
11513181 2 18128540371252322815
11578080 2 18129391393325528337
11595378 159 18113892762771097600
12788726 201 18187651340046917867
12925494 130 18052537673348375849
13140716 1 17976547427007840055
13402501 40 18272934929448763608
13617811 41 18337953501938711759
13726171 33 18340777022061471680
13757389 114 18053956318410529214
13782708 43 17703234017952352422
13911987 19 18263909081604442239
13965767 371 17896601674553506676
14068700 686 18342462513351663991
14790565 3 18410583911043016268
14950920 106 17459170959136339242
15001296 14 18045230576609731644
150020 26 17982143662136326162
15230672 131 18338237039143906766
15297060 5 18270695181471709400
15320467 1 18266464196209014268
16067690 210 18187643682157217544
161222 619 17344038996242591416
20511986 3 17604136103875775316
21033648 29 18060412543008068704
21133410 127 17898298204085380732
21223535 225 15697724705624480258
21796203 349 17684972302314028601
23559900 14 17906735804285863767
24771293 8 18272097115364798571
3298306 158 18201146642539377544
350125 39 18266746779492781790
3882209 13 17192044862260519750
469060 322 18266761197855795723
474144 1 17678757840592007836
5047190 48 18409451358215786885
508706 21 18271798047057168512
5252454 2 18059850615140799377
5265222 85 18269846462407822758
5776283 40 17977405845047021918
6004065 56 18268138950730138503
653340 110 18411702084308500197
7808743 9 18411418432147516624
9981440 41 18335709308222327731

> <PUBCHEM_SHAPE_MULTIPOLES>
682.17
11.23
5.56
1.53
6.95
0.86
-1.01
-6.02
-2.7
-5.08
1.11
2.4
-0.18
1.18

> <PUBCHEM_SHAPE_SELFOVERLAP>
1549.161

> <PUBCHEM_SHAPE_VOLUME>
353.6

> <PUBCHEM_COORDINATE_TYPE>
2
5
10

$$$$
