10025647
  -OEChem-03292013303D

 56 57  0     1  0  0  0  0  0999 V2000
    2.4500   -1.9628    0.4095 S   0  0  0  0  0  0  0  0  0  0  0  0
    5.8233   -0.3530   -1.6542 O   0  0  0  0  0  0  0  0  0  0  0  0
    3.0750    2.4743    0.7907 O   0  0  0  0  0  0  0  0  0  0  0  0
   -0.0998    2.0851   -0.0483 O   0  0  0  0  0  0  0  0  0  0  0  0
   -0.6266    1.1255    1.9919 O   0  0  0  0  0  0  0  0  0  0  0  0
   -2.3928    2.6791    0.3562 O   0  0  0  0  0  0  0  0  0  0  0  0
   -0.7471   -4.3744   -1.3248 O   0  0  0  0  0  0  0  0  0  0  0  0
   -2.4037    1.7605   -1.7535 O   0  0  0  0  0  0  0  0  0  0  0  0
    2.0787    0.5683   -0.1879 N   0  0  0  0  0  0  0  0  0  0  0  0
   -0.5591   -3.0082    1.0363 N   0  0  2  0  0  0  0  0  0  0  0  0
   -2.9280   -3.6985   -1.5787 N   0  0  0  0  0  0  0  0  0  0  0  0
    4.1392    0.3170   -0.0835 C   0  0  2  0  0  0  0  0  0  0  0  0
    2.9647   -0.5291   -0.6059 C   0  0  1  0  0  0  0  0  0  0  0  0
    3.0766    1.3935    0.2457 C   0  0  0  0  0  0  0  0  0  0  0  0
    5.2280    0.7809   -1.0248 C   0  0  1  0  0  0  0  0  0  0  0  0
    1.0014    0.1685    0.5603 C   0  0  0  0  0  0  0  0  0  0  0  0
    0.9949   -1.1227    0.9341 C   0  0  0  0  0  0  0  0  0  0  0  0
    6.3042    1.5601   -0.2792 C   0  0  0  0  0  0  0  0  0  0  0  0
   -0.0070   -1.8666    1.7523 C   0  0  0  0  0  0  0  0  0  0  0  0
   -0.0048    1.1629    0.9423 C   0  0  0  0  0  0  0  0  0  0  0  0
   -1.5603   -2.5719    0.0605 C   0  0  0  0  0  0  0  0  0  0  0  0
   -1.1488   -3.9693    1.9710 C   0  0  0  0  0  0  0  0  0  0  0  0
   -1.0470    3.1451    0.1648 C   0  0  0  0  0  0  0  0  0  0  0  0
   -4.3876    1.5793   -0.3389 C   0  0  0  0  0  0  0  0  0  0  0  0
   -1.6789   -3.6411   -1.0013 C   0  0  0  0  0  0  0  0  0  0  0  0
   -2.9557    1.9980   -0.6859 C   0  0  0  0  0  0  0  0  0  0  0  0
   -4.3716    0.6818    0.9090 C   0  0  0  0  0  0  0  0  0  0  0  0
   -5.2324    2.8261   -0.0451 C   0  0  0  0  0  0  0  0  0  0  0  0
   -4.9848    0.7915   -1.5127 C   0  0  0  0  0  0  0  0  0  0  0  0
    4.5810   -0.0979    0.8353 H   0  0  0  0  0  0  0  0  0  0  0  0
    2.9332   -0.6932   -1.6882 H   0  0  0  0  0  0  0  0  0  0  0  0
    4.8068    1.4041   -1.8223 H   0  0  0  0  0  0  0  0  0  0  0  0
    5.8906    2.4434    0.2163 H   0  0  0  0  0  0  0  0  0  0  0  0
    7.0915    1.8830   -0.9686 H   0  0  0  0  0  0  0  0  0  0  0  0
    6.7867    0.9338    0.4795 H   0  0  0  0  0  0  0  0  0  0  0  0
    0.5208   -2.2097    2.6539 H   0  0  0  0  0  0  0  0  0  0  0  0
   -0.8164   -1.2287    2.1211 H   0  0  0  0  0  0  0  0  0  0  0  0
    6.5114   -0.0255   -2.2582 H   0  0  0  0  0  0  0  0  0  0  0  0
   -2.5294   -2.3623    0.5282 H   0  0  0  0  0  0  0  0  0  0  0  0
   -1.2515   -1.6660   -0.4754 H   0  0  0  0  0  0  0  0  0  0  0  0
   -1.5456   -4.8448    1.4457 H   0  0  0  0  0  0  0  0  0  0  0  0
   -1.9583   -3.5270    2.5633 H   0  0  0  0  0  0  0  0  0  0  0  0
   -0.3865   -4.3473    2.6619 H   0  0  0  0  0  0  0  0  0  0  0  0
   -1.0141    3.8193   -0.6981 H   0  0  0  0  0  0  0  0  0  0  0  0
   -0.7510    3.7216    1.0480 H   0  0  0  0  0  0  0  0  0  0  0  0
   -3.7182   -0.1847    0.7591 H   0  0  0  0  0  0  0  0  0  0  0  0
   -3.9995    1.2171    1.7899 H   0  0  0  0  0  0  0  0  0  0  0  0
   -5.3754    0.3118    1.1455 H   0  0  0  0  0  0  0  0  0  0  0  0
   -6.2760    2.5591    0.1557 H   0  0  0  0  0  0  0  0  0  0  0  0
   -5.2192    3.5161   -0.8966 H   0  0  0  0  0  0  0  0  0  0  0  0
   -4.8576    3.3775    0.8246 H   0  0  0  0  0  0  0  0  0  0  0  0
   -6.0094    0.4700   -1.2948 H   0  0  0  0  0  0  0  0  0  0  0  0
   -5.0135    1.3995   -2.4243 H   0  0  0  0  0  0  0  0  0  0  0  0
   -4.3929   -0.1045   -1.7339 H   0  0  0  0  0  0  0  0  0  0  0  0
   -3.1342   -4.3725   -2.3084 H   0  0  0  0  0  0  0  0  0  0  0  0
   -3.6827   -3.0762   -1.3074 H   0  0  0  0  0  0  0  0  0  0  0  0
  1 13  1  0  0  0  0
  1 17  1  0  0  0  0
  2 15  1  0  0  0  0
  2 38  1  0  0  0  0
  3 14  2  0  0  0  0
  4 20  1  0  0  0  0
  4 23  1  0  0  0  0
  5 20  2  0  0  0  0
  6 23  1  0  0  0  0
  6 26  1  0  0  0  0
  7 25  2  0  0  0  0
  8 26  2  0  0  0  0
  9 13  1  0  0  0  0
  9 14  1  0  0  0  0
  9 16  1  0  0  0  0
 10 19  1  0  0  0  0
 10 21  1  0  0  0  0
 10 22  1  0  0  0  0
 11 25  1  0  0  0  0
 11 55  1  0  0  0  0
 11 56  1  0  0  0  0
 12 13  1  0  0  0  0
 12 14  1  0  0  0  0
 12 15  1  0  0  0  0
 12 30  1  0  0  0  0
 13 31  1  0  0  0  0
 15 18  1  0  0  0  0
 15 32  1  0  0  0  0
 16 17  2  0  0  0  0
 16 20  1  0  0  0  0
 17 19  1  0  0  0  0
 18 33  1  0  0  0  0
 18 34  1  0  0  0  0
 18 35  1  0  0  0  0
 19 36  1  0  0  0  0
 19 37  1  0  0  0  0
 21 25  1  0  0  0  0
 21 39  1  0  0  0  0
 21 40  1  0  0  0  0
 22 41  1  0  0  0  0
 22 42  1  0  0  0  0
 22 43  1  0  0  0  0
 23 44  1  0  0  0  0
 23 45  1  0  0  0  0
 24 26  1  0  0  0  0
 24 27  1  0  0  0  0
 24 28  1  0  0  0  0
 24 29  1  0  0  0  0
 27 46  1  0  0  0  0
 27 47  1  0  0  0  0
 27 48  1  0  0  0  0
 28 49  1  0  0  0  0
 28 50  1  0  0  0  0
 28 51  1  0  0  0  0
 29 52  1  0  0  0  0
 29 53  1  0  0  0  0
 29 54  1  0  0  0  0
M  END
> <PUBCHEM_COMPOUND_CID>
10025647

> <PUBCHEM_CONFORMER_RMSD>
1

> <PUBCHEM_CONFORMER_DIVERSEORDER>
1
83
100
54
33
61
80
87
78
23
43
9
31
52
62
37
7
121
81
76
5
29
32
46
116
92
20
50
49
71
77
53
115
68
101
95
64
26
74
17
111
63
6
65
104
67
30
47
13
42
28
89
44
114
12
119
96
93
73
69
106
113
24
51
11
41
86
112
79
58
34
107
14
27
60
40
19
55
45
39
105
16
38
98
35
72
117
10
108
18
88
59
82
102
109
21
70
8
120
15
56
99
118
48
103
36
85
4
94
84
57
91
110
75
90
2
25
97
22
66
3

> <PUBCHEM_MMFF94_PARTIAL_CHARGES>
28
1 -0.32
10 -0.81
11 -0.8
12 0.05
13 0.44
14 0.58
15 0.28
16 0.12
17 -0.04
19 0.41
2 -0.68
20 0.71
21 0.33
22 0.27
23 0.56
24 0.06
25 0.57
26 0.66
3 -0.57
38 0.4
4 -0.43
5 -0.57
55 0.37
56 0.37
6 -0.43
7 -0.57
8 -0.57
9 -0.39

> <PUBCHEM_EFFECTIVE_ROTOR_COUNT>
11.4

> <PUBCHEM_PHARMACOPHORE_FEATURES>
10
1 10 cation
1 11 donor
1 2 acceptor
1 2 donor
1 3 acceptor
1 5 acceptor
1 7 acceptor
1 8 acceptor
4 24 27 28 29 hydrophobe
7 1 9 12 13 14 16 17 rings

> <PUBCHEM_HEAVY_ATOM_COUNT>
29

> <PUBCHEM_ATOM_DEF_STEREO_COUNT>
3

> <PUBCHEM_ATOM_UDEF_STEREO_COUNT>
0

> <PUBCHEM_BOND_DEF_STEREO_COUNT>
0

> <PUBCHEM_BOND_UDEF_STEREO_COUNT>
0

> <PUBCHEM_ISOTOPIC_ATOM_COUNT>
0

> <PUBCHEM_COMPONENT_COUNT>
1

> <PUBCHEM_CACTVS_TAUTO_COUNT>
2

> <PUBCHEM_CONFORMER_ID>
0098FAAF00000001

> <PUBCHEM_MMFF94_ENERGY>
84.1391

> <PUBCHEM_FEATURE_SELFOVERLAP>
50.748

> <PUBCHEM_SHAPE_FINGERPRINT>
11014199 57 17619067673792473591
11488393 25 17978806609822932267
12788726 201 18263350555119454730
13150687 139 18337113346121676110
14114211 80 18129387008427785955
14251757 5 18341050817018815607
14556957 393 17755887538304736644
14931854 50 18266437937226814519
15131766 46 15215023854408566534
15463212 79 18187075152956765288
17492 54 18335126588945321215
19319366 153 18115015308530599899
20775438 99 17771593966827431044
21344244 181 18059023769628361638
23559900 14 17758659062967276049
238 59 18048323244988245586
3052486 1 18118657015505609915
3380486 145 18051712214751048664
437795 70 18199459051622055279
469060 322 16950555632197098423
5171179 24 17768809011391199776
5283173 99 18269271425630082600
53917941 68 18260827141910937402
58779409 54 18339363071481916312
59025328 239 17050754323877612126
59755656 520 18334009476325321124
6669772 16 18336832966330431822

> <PUBCHEM_SHAPE_MULTIPOLES>
544.63
10.74
5.28
1.6
6.7
5.91
-0.03
-9.19
4.68
-4.76
0.23
-0.55
1.06
-0.3

> <PUBCHEM_SHAPE_SELFOVERLAP>
1110.638

> <PUBCHEM_SHAPE_VOLUME>
321

> <PUBCHEM_COORDINATE_TYPE>
2
5
10

$$$$
