10023135
  -OEChem-03292013303D

 48 50  0     1  0  0  0  0  0999 V2000
    3.1163   -0.0128    1.5771 O   0  0  0  0  0  0  0  0  0  0  0  0
    1.4861   -2.1122    1.2697 O   0  0  0  0  0  0  0  0  0  0  0  0
    2.1591    2.4324    1.1851 O   0  0  0  0  0  0  0  0  0  0  0  0
    2.9516   -2.1649   -1.8721 O   0  0  0  0  0  0  0  0  0  0  0  0
   -0.7256   -3.1764    0.4553 O   0  0  0  0  0  0  0  0  0  0  0  0
    0.3434    4.0697    0.3114 O   0  0  0  0  0  0  0  0  0  0  0  0
   -3.3081   -2.7524   -0.2547 O   0  0  0  0  0  0  0  0  0  0  0  0
   -4.2560   -0.2729   -0.6756 O   0  0  0  0  0  0  0  0  0  0  0  0
    2.0928    0.1072    0.6007 C   0  0  1  0  0  0  0  0  0  0  0  0
    2.7174   -0.0023   -0.7918 C   0  0  0  0  0  0  0  0  0  0  0  0
    1.1200   -1.0353    0.8086 C   0  0  0  0  0  0  0  0  0  0  0  0
    1.4957    1.4902    0.7621 C   0  0  0  0  0  0  0  0  0  0  0  0
   -0.7416    0.5227    0.2096 C   0  0  0  0  0  0  0  0  0  0  0  0
   -0.2891   -0.7968    0.4193 C   0  0  0  0  0  0  0  0  0  0  0  0
    0.0776    1.6596    0.3715 C   0  0  0  0  0  0  0  0  0  0  0  0
    1.6272    0.1988   -1.8553 C   0  0  0  0  0  0  0  0  0  0  0  0
    3.7967    1.0821   -0.9381 C   0  0  0  0  0  0  0  0  0  0  0  0
    3.3328   -1.4058   -0.9779 C   0  0  0  0  0  0  0  0  0  0  0  0
   -2.0953    0.7178   -0.1613 C   0  0  0  0  0  0  0  0  0  0  0  0
   -1.1471   -1.8919    0.2709 C   0  0  0  0  0  0  0  0  0  0  0  0
   -0.4234    2.9510    0.1763 C   0  0  0  0  0  0  0  0  0  0  0  0
   -2.5813    2.0193   -0.3635 C   0  0  0  0  0  0  0  0  0  0  0  0
   -2.9418   -0.3915   -0.3158 C   0  0  0  0  0  0  0  0  0  0  0  0
   -2.4711   -1.6853   -0.0997 C   0  0  0  0  0  0  0  0  0  0  0  0
   -1.7518    3.1264   -0.1946 C   0  0  0  0  0  0  0  0  0  0  0  0
    4.4429   -1.8413   -0.0509 C   0  0  0  0  0  0  0  0  0  0  0  0
   -3.9905    2.3385   -0.7618 C   0  0  0  0  0  0  0  0  0  0  0  0
   -4.0366   -3.1738    0.8953 C   0  0  0  0  0  0  0  0  0  0  0  0
    2.0912    0.1153   -2.8493 H   0  0  0  0  0  0  0  0  0  0  0  0
    0.8513   -0.5697   -1.8603 H   0  0  0  0  0  0  0  0  0  0  0  0
    1.1820    1.1956   -1.8588 H   0  0  0  0  0  0  0  0  0  0  0  0
    4.4039    0.8868   -1.8310 H   0  0  0  0  0  0  0  0  0  0  0  0
    4.4937    1.1235   -0.0954 H   0  0  0  0  0  0  0  0  0  0  0  0
    3.3681    2.0815   -1.0699 H   0  0  0  0  0  0  0  0  0  0  0  0
    2.7048    0.0589    2.4557 H   0  0  0  0  0  0  0  0  0  0  0  0
   -2.1262    4.1358   -0.3502 H   0  0  0  0  0  0  0  0  0  0  0  0
    5.0052   -2.6463   -0.5358 H   0  0  0  0  0  0  0  0  0  0  0  0
    5.1480   -1.0307    0.1378 H   0  0  0  0  0  0  0  0  0  0  0  0
    4.0414   -2.2299    0.8857 H   0  0  0  0  0  0  0  0  0  0  0  0
   -4.6999    2.0101    0.0048 H   0  0  0  0  0  0  0  0  0  0  0  0
   -4.1503    3.4181   -0.8725 H   0  0  0  0  0  0  0  0  0  0  0  0
   -4.2324    1.9020   -1.7363 H   0  0  0  0  0  0  0  0  0  0  0  0
   -1.4521   -3.7843    0.2357 H   0  0  0  0  0  0  0  0  0  0  0  0
    1.2740    3.8297    0.4401 H   0  0  0  0  0  0  0  0  0  0  0  0
   -4.6363   -1.1584   -0.8047 H   0  0  0  0  0  0  0  0  0  0  0  0
   -3.3553   -3.4947    1.6896 H   0  0  0  0  0  0  0  0  0  0  0  0
   -4.6637   -4.0230    0.6105 H   0  0  0  0  0  0  0  0  0  0  0  0
   -4.6834   -2.3706    1.2625 H   0  0  0  0  0  0  0  0  0  0  0  0
  1  9  1  0  0  0  0
  1 35  1  0  0  0  0
  2 11  2  0  0  0  0
  3 12  2  0  0  0  0
  4 18  2  0  0  0  0
  5 20  1  0  0  0  0
  5 43  1  0  0  0  0
  6 21  1  0  0  0  0
  6 44  1  0  0  0  0
  7 24  1  0  0  0  0
  7 28  1  0  0  0  0
  8 23  1  0  0  0  0
  8 45  1  0  0  0  0
  9 10  1  0  0  0  0
  9 11  1  0  0  0  0
  9 12  1  0  0  0  0
 10 16  1  0  0  0  0
 10 17  1  0  0  0  0
 10 18  1  0  0  0  0
 11 14  1  0  0  0  0
 12 15  1  0  0  0  0
 13 14  1  0  0  0  0
 13 15  1  0  0  0  0
 13 19  2  0  0  0  0
 14 20  2  0  0  0  0
 15 21  2  0  0  0  0
 16 29  1  0  0  0  0
 16 30  1  0  0  0  0
 16 31  1  0  0  0  0
 17 32  1  0  0  0  0
 17 33  1  0  0  0  0
 17 34  1  0  0  0  0
 18 26  1  0  0  0  0
 19 22  1  0  0  0  0
 19 23  1  0  0  0  0
 20 24  1  0  0  0  0
 21 25  1  0  0  0  0
 22 25  2  0  0  0  0
 22 27  1  0  0  0  0
 23 24  2  0  0  0  0
 25 36  1  0  0  0  0
 26 37  1  0  0  0  0
 26 38  1  0  0  0  0
 26 39  1  0  0  0  0
 27 40  1  0  0  0  0
 27 41  1  0  0  0  0
 27 42  1  0  0  0  0
 28 46  1  0  0  0  0
 28 47  1  0  0  0  0
 28 48  1  0  0  0  0
M  END
> <PUBCHEM_COMPOUND_CID>
10023135

> <PUBCHEM_CONFORMER_RMSD>
0.8

> <PUBCHEM_CONFORMER_DIVERSEORDER>
5
2
3
6
1
4

> <PUBCHEM_MMFF94_PARTIAL_CHARGES>
29
1 -0.68
10 0.06
11 0.42
12 0.42
14 0.09
15 0.09
18 0.45
2 -0.57
20 0.08
21 0.08
22 -0.14
23 0.08
24 0.08
25 -0.15
26 0.06
27 0.14
28 0.28
3 -0.57
35 0.4
36 0.15
4 -0.57
43 0.45
44 0.45
45 0.45
5 -0.53
6 -0.53
7 -0.36
8 -0.53
9 0.4

> <PUBCHEM_EFFECTIVE_ROTOR_COUNT>
3.2

> <PUBCHEM_PHARMACOPHORE_FEATURES>
13
1 1 acceptor
1 1 donor
1 2 acceptor
1 3 acceptor
1 4 acceptor
1 5 donor
1 6 donor
1 7 acceptor
1 8 donor
3 10 16 17 hydrophobe
6 13 14 19 20 23 24 rings
6 13 15 19 21 22 25 rings
6 9 11 12 13 14 15 rings

> <PUBCHEM_HEAVY_ATOM_COUNT>
28

> <PUBCHEM_ATOM_DEF_STEREO_COUNT>
0

> <PUBCHEM_ATOM_UDEF_STEREO_COUNT>
1

> <PUBCHEM_BOND_DEF_STEREO_COUNT>
0

> <PUBCHEM_BOND_UDEF_STEREO_COUNT>
0

> <PUBCHEM_ISOTOPIC_ATOM_COUNT>
0

> <PUBCHEM_COMPONENT_COUNT>
1

> <PUBCHEM_CACTVS_TAUTO_COUNT>
316

> <PUBCHEM_CONFORMER_ID>
0098F0DF00000005

> <PUBCHEM_MMFF94_ENERGY>
112.7628

> <PUBCHEM_FEATURE_SELFOVERLAP>
66.06

> <PUBCHEM_SHAPE_FINGERPRINT>
10411042 1 18337951302399089059
10498660 4 18334292106421491215
10693767 8 17770474475660296677
10863032 1 18411985737092248852
108634 29 18338783590088460183
10906281 52 17758406557386786089
10967382 1 18122329191259062425
1100329 8 18265328413244183329
11578080 2 16772643646763048147
11582403 64 16041042688887137528
11640471 11 17386304163279378348
12293681 25 17629780980048917630
12553582 1 18122623014061124527
13009979 54 18040709239099445690
13140716 1 18411130334046366993
13224815 77 18113621217832816723
14115302 16 18263084318770879028
14223421 5 18340481291412435128
14790565 3 18052550867488227417
16752209 62 18336541599790122649
16945 1 18194394490014710177
19319366 153 17823140017004649835
19591789 44 18338803291277624001
20600515 1 18266433482744776672
20642791 178 16823349480856453786
20775438 99 17911761839872585471
20905425 154 18195807598716695684
21197605 99 15741353764865036123
22182313 1 18268981149991264233
23184049 29 18337945800666574393
2334 1 18410001157137544921
23419403 2 17345734327503312618
23557571 272 18271233946210715760
23559900 14 18270398275146755790
2748010 2 18339911706056203969
3493558 16 15655514789415590980
350125 39 17616814336364262841
7364860 26 17764032762807417073
81228 2 18413394219702837825
9709674 26 18342164596802053861

> <PUBCHEM_SHAPE_MULTIPOLES>
529.27
7.04
4.24
1.23
0.07
0.73
-0.2
-2.86
-1.6
-3.01
0.64
0.98
-0.16
1.05

> <PUBCHEM_SHAPE_SELFOVERLAP>
1186.838

> <PUBCHEM_SHAPE_VOLUME>
279.4

> <PUBCHEM_COORDINATE_TYPE>
2
5
10

$$$$
