100281
  -OEChem-03292013323D

 52 54  0     1  0  0  0  0  0999 V2000
   -6.1368   -0.0391    0.2694 Cl  0  0  0  0  0  0  0  0  0  0  0  0
    5.5196   -1.5041    1.0230 Cl  0  0  0  0  0  0  0  0  0  0  0  0
   -2.0783   -2.0205   -0.2853 O   0  0  0  0  0  0  0  0  0  0  0  0
   -4.1578    1.3500   -1.4700 O   0  0  0  0  0  0  0  0  0  0  0  0
   -3.3242    0.9427    2.0722 O   0  0  0  0  0  0  0  0  0  0  0  0
    2.2902   -0.1015   -0.1772 O   0  0  0  0  0  0  0  0  0  0  0  0
   -1.5203   -4.2455   -0.3796 O   0  0  0  0  0  0  0  0  0  0  0  0
    3.1948    1.1398    1.5391 O   0  0  0  0  0  0  0  0  0  0  0  0
    5.4885    1.4291    0.2684 O   0  0  0  0  0  0  0  0  0  0  0  0
   -2.0974    0.3665   -0.6934 C   0  0  2  0  0  0  0  0  0  0  0  0
   -1.4861    1.7892   -0.5266 C   0  0  1  0  0  0  0  0  0  0  0  0
   -3.5965    0.6381   -0.3514 C   0  0  1  0  0  0  0  0  0  0  0  0
   -1.4222   -0.7843    0.0900 C   0  0  2  0  0  0  0  0  0  0  0  0
   -3.5359    1.6111    0.8355 C   0  0  2  0  0  0  0  0  0  0  0  0
   -2.3251    2.5036    0.5584 C   0  0  0  0  0  0  0  0  0  0  0  0
    0.0486   -1.0217   -0.2694 C   0  0  1  0  0  0  0  0  0  0  0  0
    0.0006    1.9319   -0.3055 C   0  0  0  0  0  0  0  0  0  0  0  0
    1.0591   -0.2021    0.5485 C   0  0  2  0  0  0  0  0  0  0  0  0
    0.6143    1.2237    0.8757 C   0  0  0  0  0  0  0  0  0  0  0  0
   -4.4921   -0.5718   -0.1105 C   0  0  0  0  0  0  0  0  0  0  0  0
    0.1295   -2.5069   -0.0764 C   0  0  0  0  0  0  0  0  0  0  0  0
   -1.2190   -3.0725   -0.2569 C   0  0  0  0  0  0  0  0  0  0  0  0
    0.7536    2.7021   -1.1089 C   0  0  0  0  0  0  0  0  0  0  0  0
    1.1510   -3.3024    0.2537 C   0  0  0  0  0  0  0  0  0  0  0  0
    3.2826    0.6039    0.4409 C   0  0  0  0  0  0  0  0  0  0  0  0
    4.5345    0.6324   -0.4329 C   0  0  2  0  0  0  0  0  0  0  0  0
    5.0974   -0.7885   -0.5557 C   0  0  0  0  0  0  0  0  0  0  0  0
    4.2274    1.2970   -1.7752 C   0  0  0  0  0  0  0  0  0  0  0  0
   -2.0408    0.1010   -1.7598 H   0  0  0  0  0  0  0  0  0  0  0  0
   -1.7206    2.3137   -1.4671 H   0  0  0  0  0  0  0  0  0  0  0  0
   -1.5615   -0.6647    1.1703 H   0  0  0  0  0  0  0  0  0  0  0  0
   -4.4292    2.2381    0.9326 H   0  0  0  0  0  0  0  0  0  0  0  0
   -1.7619    2.7162    1.4733 H   0  0  0  0  0  0  0  0  0  0  0  0
   -2.6591    3.4692    0.1577 H   0  0  0  0  0  0  0  0  0  0  0  0
    0.2051   -0.8404   -1.3426 H   0  0  0  0  0  0  0  0  0  0  0  0
    1.2707   -0.7165    1.4962 H   0  0  0  0  0  0  0  0  0  0  0  0
    1.3261    1.9132    1.3238 H   0  0  0  0  0  0  0  0  0  0  0  0
   -0.1485    1.1466    1.6622 H   0  0  0  0  0  0  0  0  0  0  0  0
   -4.1598   -1.1901    0.7264 H   0  0  0  0  0  0  0  0  0  0  0  0
   -4.5621   -1.1925   -1.0090 H   0  0  0  0  0  0  0  0  0  0  0  0
   -5.0700    1.5952   -1.2383 H   0  0  0  0  0  0  0  0  0  0  0  0
   -4.1497    0.4842    2.3027 H   0  0  0  0  0  0  0  0  0  0  0  0
    0.3256    3.2310   -1.9536 H   0  0  0  0  0  0  0  0  0  0  0  0
    1.8118    2.8391   -0.9262 H   0  0  0  0  0  0  0  0  0  0  0  0
    2.1462   -2.8992    0.4066 H   0  0  0  0  0  0  0  0  0  0  0  0
    1.0291   -4.3735    0.3764 H   0  0  0  0  0  0  0  0  0  0  0  0
    4.3910   -1.4660   -1.0456 H   0  0  0  0  0  0  0  0  0  0  0  0
    6.0238   -0.7786   -1.1388 H   0  0  0  0  0  0  0  0  0  0  0  0
    3.4484    0.7675   -2.3324 H   0  0  0  0  0  0  0  0  0  0  0  0
    5.1296    1.3324   -2.3963 H   0  0  0  0  0  0  0  0  0  0  0  0
    3.9132    2.3360   -1.6340 H   0  0  0  0  0  0  0  0  0  0  0  0
    5.7390    0.9558    1.0804 H   0  0  0  0  0  0  0  0  0  0  0  0
  1 20  1  0  0  0  0
  2 27  1  0  0  0  0
  3 13  1  0  0  0  0
  3 22  1  0  0  0  0
  4 12  1  0  0  0  0
  4 41  1  0  0  0  0
  5 14  1  0  0  0  0
  5 42  1  0  0  0  0
  6 18  1  0  0  0  0
  6 25  1  0  0  0  0
  7 22  2  0  0  0  0
  8 25  2  0  0  0  0
  9 26  1  0  0  0  0
  9 52  1  0  0  0  0
 10 11  1  0  0  0  0
 10 12  1  0  0  0  0
 10 13  1  0  0  0  0
 10 29  1  0  0  0  0
 11 15  1  0  0  0  0
 11 17  1  0  0  0  0
 11 30  1  0  0  0  0
 12 14  1  0  0  0  0
 12 20  1  0  0  0  0
 13 16  1  0  0  0  0
 13 31  1  0  0  0  0
 14 15  1  0  0  0  0
 14 32  1  0  0  0  0
 15 33  1  0  0  0  0
 15 34  1  0  0  0  0
 16 18  1  0  0  0  0
 16 21  1  0  0  0  0
 16 35  1  0  0  0  0
 17 19  1  0  0  0  0
 17 23  2  0  0  0  0
 18 19  1  0  0  0  0
 18 36  1  0  0  0  0
 19 37  1  0  0  0  0
 19 38  1  0  0  0  0
 20 39  1  0  0  0  0
 20 40  1  0  0  0  0
 21 22  1  0  0  0  0
 21 24  2  0  0  0  0
 23 43  1  0  0  0  0
 23 44  1  0  0  0  0
 24 45  1  0  0  0  0
 24 46  1  0  0  0  0
 25 26  1  0  0  0  0
 26 27  1  0  0  0  0
 26 28  1  0  0  0  0
 27 47  1  0  0  0  0
 27 48  1  0  0  0  0
 28 49  1  0  0  0  0
 28 50  1  0  0  0  0
 28 51  1  0  0  0  0
M  END
> <PUBCHEM_COMPOUND_CID>
100281

> <PUBCHEM_CONFORMER_RMSD>
0.8

> <PUBCHEM_CONFORMER_DIVERSEORDER>
17
22
139
166
165
106
35
60
143
57
58
116
78
79
43
94
120
96
31
92
137
46
126
45
37
56
141
119
9
157
20
163
103
2
135
175
104
84
176
130
151
107
27
62
148
36
150
159
113
142
129
133
83
160
65
115
4
72
152
68
161
52
34
7
155
156
66
136
162
97
85
61
8
38
63
110
59
134
87
64
41
131
132
125
3
149
91
21
172
100
28
50
122
10
77
121
48
128
123
6
15
54
171
55
118
145
108
167
102
14
164
124
117
147
23
49
75
19
127
39
98
168
93
73
88
101
138
1
42
146
81
170
67
177
158
30
18
53
95
33
105
69
173
47
25
71
109
74
90
112
51
16
11
140
174
32
154
70
44
26
89
24
169
99
111
86
5
40
76
12
13
153
144
82
80
29
114

> <PUBCHEM_MMFF94_PARTIAL_CHARGES>
32
1 -0.29
11 0.14
12 0.28
13 0.28
14 0.28
16 0.14
17 -0.28
18 0.28
19 0.14
2 -0.29
20 0.29
21 -0.12
22 0.71
23 -0.3
24 -0.3
25 0.66
26 0.34
27 0.29
3 -0.43
4 -0.68
41 0.4
42 0.4
43 0.15
44 0.15
45 0.15
46 0.15
5 -0.68
52 0.4
6 -0.43
7 -0.57
8 -0.57
9 -0.68

> <PUBCHEM_EFFECTIVE_ROTOR_COUNT>
6.2

> <PUBCHEM_PHARMACOPHORE_FEATURES>
11
1 4 acceptor
1 4 donor
1 5 acceptor
1 5 donor
1 7 acceptor
1 8 acceptor
1 9 acceptor
1 9 donor
5 10 11 12 14 15 rings
5 3 13 16 21 22 rings
7 10 11 13 16 17 18 19 rings

> <PUBCHEM_HEAVY_ATOM_COUNT>
28

> <PUBCHEM_ATOM_DEF_STEREO_COUNT>
7

> <PUBCHEM_ATOM_UDEF_STEREO_COUNT>
1

> <PUBCHEM_BOND_DEF_STEREO_COUNT>
0

> <PUBCHEM_BOND_UDEF_STEREO_COUNT>
0

> <PUBCHEM_ISOTOPIC_ATOM_COUNT>
0

> <PUBCHEM_COMPONENT_COUNT>
1

> <PUBCHEM_CACTVS_TAUTO_COUNT>
1

> <PUBCHEM_CONFORMER_ID>
000187B900000011

> <PUBCHEM_MMFF94_ENERGY>
91.0089

> <PUBCHEM_FEATURE_SELFOVERLAP>
55.91

> <PUBCHEM_SHAPE_FINGERPRINT>
10493431 412 18413114952497618025
1100329 8 18267585891568863157
11578080 2 13612314011892368041
12011746 2 18409727361804770669
12236239 1 17676483948004367764
12403814 3 17385719214276814941
12633257 1 18343581811845936112
12788726 201 17903084670078834534
13140716 1 18194964273746025817
13583140 156 17749120980121601938
13911987 19 18334853926967728637
14787075 74 17988923383723860441
14790565 3 18410863135478150949
14840074 17 18041009452765495077
14955137 171 18334588957344523025
15021287 119 17676204655166124364
15042514 8 18337390560222167131
15209289 33 18201719539705803553
15403338 16 16590540155933286122
17349148 13 18272089417649423269
19319366 153 17822004333304497802
19591789 44 18339360743261586054
20028762 73 18129100203212707871
20739085 24 18048619035360271321
21033648 29 18341878693625144337
21033650 10 17273442520494025640
21781051 124 18261410947888639635
23366157 5 17899701150181722306
23557571 272 17983574384329730624
23559900 14 17832975053740825875
23569917 315 18411700950406661391
2748010 2 18119805803456826285
3004659 81 18408887313841945718
3178227 256 18336841870129257585
3383291 50 18341889654598091122
338550 245 18335701582013914238
34797466 226 15357993247481922622
350125 39 18339358544169778307
5104073 3 18411415142466130994
5486654 2 18412547634941914047
59755656 215 18412544293515503463
70251023 43 17760081113659543379
7226269 152 17845929624984067712
81228 2 18120080939045964426

> <PUBCHEM_SHAPE_MULTIPOLES>
538.88
10.97
3.63
1.21
4.62
3.34
-0.12
-1.83
-0.64
-0.54
0.48
0.25
-0.56
-0.83

> <PUBCHEM_SHAPE_SELFOVERLAP>
1125.787

> <PUBCHEM_SHAPE_VOLUME>
305

> <PUBCHEM_COORDINATE_TYPE>
2
5
10

$$$$
