10028830
  -OEChem-03292013303D

 66 68  0     1  0  0  0  0  0999 V2000
   -3.5283    0.3554    1.4758 S   0  0  0  0  0  0  0  0  0  0  0  0
    4.3048    0.3709    0.4231 O   0  0  0  0  0  0  0  0  0  0  0  0
    6.6864   -0.8960   -0.9285 O   0  0  0  0  0  0  0  0  0  0  0  0
   -3.5354   -0.4691    2.6698 O   0  0  0  0  0  0  0  0  0  0  0  0
   -4.2634    1.6056    1.4594 O   0  0  0  0  0  0  0  0  0  0  0  0
   -1.6648    3.9717   -0.3033 O   0  0  0  0  0  0  0  0  0  0  0  0
    3.3439   -2.4742   -0.7206 N   0  0  0  0  0  0  0  0  0  0  0  0
   -1.8976    0.6233    0.9887 N   0  0  0  0  0  0  0  0  0  0  0  0
    0.2986    3.6691   -1.5178 N   0  0  0  0  0  0  0  0  0  0  0  0
    4.7438   -2.2081   -0.4188 C   0  0  0  0  0  0  0  0  0  0  0  0
    2.8572   -3.6208    0.0347 C   0  0  0  0  0  0  0  0  0  0  0  0
    5.2988   -1.0440   -1.2430 C   0  0  1  0  0  0  0  0  0  0  0  0
    1.3847   -3.8946   -0.2734 C   0  0  0  0  0  0  0  0  0  0  0  0
    0.5193   -2.7052    0.0589 C   0  0  0  0  0  0  0  0  0  0  0  0
    4.5910    0.2812   -0.9692 C   0  0  0  0  0  0  0  0  0  0  0  0
   -0.0350   -2.5799    1.3327 C   0  0  0  0  0  0  0  0  0  0  0  0
    0.2743   -1.7295   -0.9074 C   0  0  0  0  0  0  0  0  0  0  0  0
   -1.0795   -0.5034    0.6739 C   0  0  0  0  0  0  0  0  0  0  0  0
   -0.8345   -1.4790    1.6403 C   0  0  0  0  0  0  0  0  0  0  0  0
   -0.5251   -0.6287   -0.5999 C   0  0  0  0  0  0  0  0  0  0  0  0
    3.2025    1.1012    0.7788 C   0  0  0  0  0  0  0  0  0  0  0  0
    1.6688    2.9180    0.3511 C   0  0  0  0  0  0  0  0  0  0  0  0
    2.7929    2.1755   -0.0106 C   0  0  0  0  0  0  0  0  0  0  0  0
   -4.1423   -0.6498    0.1549 C   0  0  0  0  0  0  0  0  0  0  0  0
    2.4881    0.7690    1.9299 C   0  0  0  0  0  0  0  0  0  0  0  0
    1.2305    4.0665   -0.4931 C   0  0  0  0  0  0  0  0  0  0  0  0
    0.9544    2.5862    1.5023 C   0  0  0  0  0  0  0  0  0  0  0  0
    1.3641    1.5116    2.2917 C   0  0  0  0  0  0  0  0  0  0  0  0
   -4.0427   -2.0390    0.2315 C   0  0  0  0  0  0  0  0  0  0  0  0
   -4.7244   -0.0530   -0.9633 C   0  0  0  0  0  0  0  0  0  0  0  0
   -4.5252   -2.8314   -0.8102 C   0  0  0  0  0  0  0  0  0  0  0  0
   -5.2070   -0.8453   -2.0050 C   0  0  0  0  0  0  0  0  0  0  0  0
   -5.1073   -2.2345   -1.9284 C   0  0  0  0  0  0  0  0  0  0  0  0
   -1.0757    3.6559   -1.3336 C   0  0  0  0  0  0  0  0  0  0  0  0
   -1.8158    3.2244   -2.5713 C   0  0  0  0  0  0  0  0  0  0  0  0
    4.8879   -2.0203    0.6528 H   0  0  0  0  0  0  0  0  0  0  0  0
    5.3461   -3.0994   -0.6413 H   0  0  0  0  0  0  0  0  0  0  0  0
    3.4385   -4.5168   -0.2141 H   0  0  0  0  0  0  0  0  0  0  0  0
    2.9739   -3.4364    1.1101 H   0  0  0  0  0  0  0  0  0  0  0  0
    5.2465   -1.2627   -2.3162 H   0  0  0  0  0  0  0  0  0  0  0  0
    1.2574   -4.1612   -1.3308 H   0  0  0  0  0  0  0  0  0  0  0  0
    1.0462   -4.7686    0.2972 H   0  0  0  0  0  0  0  0  0  0  0  0
    3.2328   -2.6462   -1.7194 H   0  0  0  0  0  0  0  0  0  0  0  0
    3.6669    0.2874   -1.5621 H   0  0  0  0  0  0  0  0  0  0  0  0
    5.2262    1.1250   -1.2622 H   0  0  0  0  0  0  0  0  0  0  0  0
    0.1567   -3.3286    2.0967 H   0  0  0  0  0  0  0  0  0  0  0  0
    0.6941   -1.8158   -1.9061 H   0  0  0  0  0  0  0  0  0  0  0  0
   -1.2242   -1.3907    2.6494 H   0  0  0  0  0  0  0  0  0  0  0  0
   -0.7104    0.1248   -1.3610 H   0  0  0  0  0  0  0  0  0  0  0  0
   -1.7357    1.4526    0.4029 H   0  0  0  0  0  0  0  0  0  0  0  0
    7.1302   -1.7300   -1.1588 H   0  0  0  0  0  0  0  0  0  0  0  0
    3.3440    2.4729   -0.8984 H   0  0  0  0  0  0  0  0  0  0  0  0
    2.8010   -0.0690    2.5468 H   0  0  0  0  0  0  0  0  0  0  0  0
    2.0887    4.5306   -0.9924 H   0  0  0  0  0  0  0  0  0  0  0  0
    0.7730    4.8452    0.1291 H   0  0  0  0  0  0  0  0  0  0  0  0
    0.0782    3.1567    1.7981 H   0  0  0  0  0  0  0  0  0  0  0  0
    0.8076    1.2527    3.1877 H   0  0  0  0  0  0  0  0  0  0  0  0
   -3.6000   -2.5294    1.0933 H   0  0  0  0  0  0  0  0  0  0  0  0
   -4.8041    1.0273   -1.0460 H   0  0  0  0  0  0  0  0  0  0  0  0
    0.6795    3.3764   -2.4131 H   0  0  0  0  0  0  0  0  0  0  0  0
   -4.4485   -3.9131   -0.7504 H   0  0  0  0  0  0  0  0  0  0  0  0
   -5.6583   -0.3806   -2.8768 H   0  0  0  0  0  0  0  0  0  0  0  0
   -5.4825   -2.8514   -2.7397 H   0  0  0  0  0  0  0  0  0  0  0  0
   -1.8388    4.0502   -3.2871 H   0  0  0  0  0  0  0  0  0  0  0  0
   -2.8396    2.9451   -2.3068 H   0  0  0  0  0  0  0  0  0  0  0  0
   -1.3276    2.3588   -3.0280 H   0  0  0  0  0  0  0  0  0  0  0  0
  1  4  2  0  0  0  0
  1  5  2  0  0  0  0
  1  8  1  0  0  0  0
  1 24  1  0  0  0  0
  2 15  1  0  0  0  0
  2 21  1  0  0  0  0
  3 12  1  0  0  0  0
  3 51  1  0  0  0  0
  6 34  2  0  0  0  0
  7 10  1  0  0  0  0
  7 11  1  0  0  0  0
  7 43  1  0  0  0  0
  8 18  1  0  0  0  0
  8 50  1  0  0  0  0
  9 26  1  0  0  0  0
  9 34  1  0  0  0  0
  9 60  1  0  0  0  0
 10 12  1  0  0  0  0
 10 36  1  0  0  0  0
 10 37  1  0  0  0  0
 11 13  1  0  0  0  0
 11 38  1  0  0  0  0
 11 39  1  0  0  0  0
 12 15  1  0  0  0  0
 12 40  1  0  0  0  0
 13 14  1  0  0  0  0
 13 41  1  0  0  0  0
 13 42  1  0  0  0  0
 14 16  2  0  0  0  0
 14 17  1  0  0  0  0
 15 44  1  0  0  0  0
 15 45  1  0  0  0  0
 16 19  1  0  0  0  0
 16 46  1  0  0  0  0
 17 20  2  0  0  0  0
 17 47  1  0  0  0  0
 18 19  2  0  0  0  0
 18 20  1  0  0  0  0
 19 48  1  0  0  0  0
 20 49  1  0  0  0  0
 21 23  1  0  0  0  0
 21 25  2  0  0  0  0
 22 23  2  0  0  0  0
 22 26  1  0  0  0  0
 22 27  1  0  0  0  0
 23 52  1  0  0  0  0
 24 29  2  0  0  0  0
 24 30  1  0  0  0  0
 25 28  1  0  0  0  0
 25 53  1  0  0  0  0
 26 54  1  0  0  0  0
 26 55  1  0  0  0  0
 27 28  2  0  0  0  0
 27 56  1  0  0  0  0
 28 57  1  0  0  0  0
 29 31  1  0  0  0  0
 29 58  1  0  0  0  0
 30 32  2  0  0  0  0
 30 59  1  0  0  0  0
 31 33  2  0  0  0  0
 31 61  1  0  0  0  0
 32 33  1  0  0  0  0
 32 62  1  0  0  0  0
 33 63  1  0  0  0  0
 34 35  1  0  0  0  0
 35 64  1  0  0  0  0
 35 65  1  0  0  0  0
 35 66  1  0  0  0  0
M  END
> <PUBCHEM_COMPOUND_CID>
10028830

> <PUBCHEM_CONFORMER_RMSD>
1.6

> <PUBCHEM_CONFORMER_DIVERSEORDER>
1
142
26
47
124
15
107
109
120
146
22
100
27
67
77
66
154
98
21
42
115
79
68
20
88
49
111
36
12
143
151
28
118
57
97
136
40
32
54
14
56
105
87
131
25
130
10
93
58
106
113
19
104
119
2
116
43
135
140
39
144
86
141
76
17
121
127
46
45
7
91
155
103
64
149
94
132
96
63
123
70
11
24
112
59
138
110
150
84
82
75
99
125
41
69
139
145
16
33
108
9
92
44
102
89
152
114
72
129
38
71
30
128
133
60
18
137
85
73
101
29
153
134
62
23
80
74
65
13
50
95
148
48
61
147
78
35
51
83
90
53
122
126
81
3
31
8
34
37
52
117
4
5
55
6

> <PUBCHEM_MMFF94_PARTIAL_CHARGES>
52
1 1.45
10 0.27
11 0.27
12 0.28
13 0.14
14 -0.14
15 0.28
16 -0.15
17 -0.15
18 0.2
19 -0.15
2 -0.36
20 -0.15
21 0.08
22 -0.14
23 -0.15
24 -0.01
25 -0.15
26 0.44
27 -0.15
28 -0.15
29 -0.15
3 -0.68
30 -0.15
31 -0.15
32 -0.15
33 -0.15
34 0.57
35 0.06
4 -0.65
43 0.36
46 0.15
47 0.15
48 0.15
49 0.15
5 -0.65
50 0.42
51 0.4
52 0.15
53 0.15
56 0.15
57 0.15
58 0.15
59 0.15
6 -0.57
60 0.37
61 0.15
62 0.15
63 0.15
7 -0.9
8 -0.76
9 -0.73

> <PUBCHEM_EFFECTIVE_ROTOR_COUNT>
14

> <PUBCHEM_PHARMACOPHORE_FEATURES>
13
1 2 acceptor
1 3 acceptor
1 3 donor
1 4 acceptor
1 5 acceptor
1 6 acceptor
1 7 cation
1 7 donor
1 8 donor
1 9 donor
6 14 16 17 18 19 20 rings
6 21 22 23 25 27 28 rings
6 24 29 30 31 32 33 rings

> <PUBCHEM_HEAVY_ATOM_COUNT>
35

> <PUBCHEM_ATOM_DEF_STEREO_COUNT>
1

> <PUBCHEM_ATOM_UDEF_STEREO_COUNT>
0

> <PUBCHEM_BOND_DEF_STEREO_COUNT>
0

> <PUBCHEM_BOND_UDEF_STEREO_COUNT>
0

> <PUBCHEM_ISOTOPIC_ATOM_COUNT>
0

> <PUBCHEM_COMPONENT_COUNT>
1

> <PUBCHEM_CACTVS_TAUTO_COUNT>
2

> <PUBCHEM_CONFORMER_ID>
0099071E00000001

> <PUBCHEM_MMFF94_ENERGY>
74.3457

> <PUBCHEM_FEATURE_SELFOVERLAP>
65.993

> <PUBCHEM_SHAPE_FINGERPRINT>
11513181 2 18264207096405679621
13383661 66 18338226189248824005
1361 2 18122053466990191215
14289585 56 18336253600731833327
16067690 210 15647042772728748631
17349148 13 18126852831388263881
20764821 26 17973991861173342289
23559900 14 18267302221400004603
508706 21 18334574625038285931
57527358 35 16558478564297033744
66674814 147 18340491153037155258
6669772 16 16983475151771032355

> <PUBCHEM_SHAPE_MULTIPOLES>
679.84
11.04
5.61
2.16
0.13
2.76
0.34
-6.75
-4.35
1.68
-1.98
-1.51
0.93
0.57

> <PUBCHEM_SHAPE_SELFOVERLAP>
1414.507

> <PUBCHEM_SHAPE_VOLUME>
386.2

> <PUBCHEM_COORDINATE_TYPE>
2
5
10

$$$$
