10026568
  -OEChem-03292013303D

 58 60  0     1  0  0  0  0  0999 V2000
   -2.6855    0.3318   -0.5955 O   0  0  0  0  0  0  0  0  0  0  0  0
   -3.3467   -1.4880    0.7064 O   0  0  0  0  0  0  0  0  0  0  0  0
   -3.5581    3.8879   -0.5155 O   0  0  0  0  0  0  0  0  0  0  0  0
   -4.1144    3.0015    2.1790 O   0  0  0  0  0  0  0  0  0  0  0  0
   -5.0684    0.2140    2.1717 O   0  0  0  0  0  0  0  0  0  0  0  0
   -0.6764    2.0819   -1.3639 O   0  0  0  0  0  0  0  0  0  0  0  0
    0.2521    0.4495   -2.7099 O   0  0  0  0  0  0  0  0  0  0  0  0
    2.8206   -2.6655    0.0630 O   0  0  0  0  0  0  0  0  0  0  0  0
    7.3420    1.2182    1.8752 O   0  0  0  0  0  0  0  0  0  0  0  0
   -3.1551    2.6293    0.0181 C   0  0  1  0  0  0  0  0  0  0  0  0
   -4.1955    2.1537    1.0323 C   0  0  1  0  0  0  0  0  0  0  0  0
   -3.0078    1.6198   -1.1229 C   0  0  1  0  0  0  0  0  0  0  0  0
   -3.9392    0.7059    1.4505 C   0  0  2  0  0  0  0  0  0  0  0  0
   -3.7190   -0.1936    0.2342 C   0  0  1  0  0  0  0  0  0  0  0  0
   -1.8926    2.0147   -2.0858 C   0  0  0  0  0  0  0  0  0  0  0  0
   -3.5644   -2.4807   -0.2839 C   0  0  0  0  0  0  0  0  0  0  0  0
   -2.7402   -3.7218    0.0402 C   0  0  0  0  0  0  0  0  0  0  0  0
   -1.2572   -3.4405    0.0459 C   0  0  0  0  0  0  0  0  0  0  0  0
    0.3173    1.2414   -1.7830 C   0  0  0  0  0  0  0  0  0  0  0  0
   -0.6283   -3.0403    1.2249 C   0  0  0  0  0  0  0  0  0  0  0  0
   -0.5156   -3.5802   -1.1273 C   0  0  0  0  0  0  0  0  0  0  0  0
    1.4979    1.4527   -0.9149 C   0  0  0  0  0  0  0  0  0  0  0  0
    0.7421   -2.7801    1.2308 C   0  0  0  0  0  0  0  0  0  0  0  0
    0.8546   -3.3199   -1.1214 C   0  0  0  0  0  0  0  0  0  0  0  0
    1.4835   -2.9199    0.0576 C   0  0  0  0  0  0  0  0  0  0  0  0
    2.6111    0.7364   -1.1280 C   0  0  0  0  0  0  0  0  0  0  0  0
    3.8505    0.8626   -0.3412 C   0  0  0  0  0  0  0  0  0  0  0  0
    3.8145    1.4365    0.9298 C   0  0  0  0  0  0  0  0  0  0  0  0
    5.0598    0.4081   -0.8671 C   0  0  0  0  0  0  0  0  0  0  0  0
    4.9877    1.5559    1.6745 C   0  0  0  0  0  0  0  0  0  0  0  0
    6.2332    0.5275   -0.1224 C   0  0  0  0  0  0  0  0  0  0  0  0
    6.1971    1.1015    1.1484 C   0  0  0  0  0  0  0  0  0  0  0  0
   -2.1996    2.7849    0.5329 H   0  0  0  0  0  0  0  0  0  0  0  0
   -5.2106    2.2732    0.6358 H   0  0  0  0  0  0  0  0  0  0  0  0
   -3.9393    1.5530   -1.7005 H   0  0  0  0  0  0  0  0  0  0  0  0
   -3.0804    0.6483    2.1298 H   0  0  0  0  0  0  0  0  0  0  0  0
   -4.6524   -0.2787   -0.3405 H   0  0  0  0  0  0  0  0  0  0  0  0
   -2.0845    3.0009   -2.5217 H   0  0  0  0  0  0  0  0  0  0  0  0
   -1.8582    1.2960   -2.9124 H   0  0  0  0  0  0  0  0  0  0  0  0
   -4.4052    3.7618   -0.9761 H   0  0  0  0  0  0  0  0  0  0  0  0
   -3.2286    2.9012    2.5677 H   0  0  0  0  0  0  0  0  0  0  0  0
   -5.8428    0.2561    1.5851 H   0  0  0  0  0  0  0  0  0  0  0  0
   -4.6299   -2.7357   -0.2980 H   0  0  0  0  0  0  0  0  0  0  0  0
   -3.2861   -2.1081   -1.2780 H   0  0  0  0  0  0  0  0  0  0  0  0
   -3.0290   -4.1105    1.0252 H   0  0  0  0  0  0  0  0  0  0  0  0
   -2.9632   -4.5162   -0.6823 H   0  0  0  0  0  0  0  0  0  0  0  0
   -1.1941   -2.9273    2.1457 H   0  0  0  0  0  0  0  0  0  0  0  0
   -0.9950   -3.8886   -2.0524 H   0  0  0  0  0  0  0  0  0  0  0  0
    1.4119    2.2078   -0.1424 H   0  0  0  0  0  0  0  0  0  0  0  0
    1.2201   -2.4682    2.1555 H   0  0  0  0  0  0  0  0  0  0  0  0
    1.4269   -3.4287   -2.0387 H   0  0  0  0  0  0  0  0  0  0  0  0
    2.6472    0.0088   -1.9356 H   0  0  0  0  0  0  0  0  0  0  0  0
    3.0851   -2.3867    0.9565 H   0  0  0  0  0  0  0  0  0  0  0  0
    2.8936    1.7849    1.3878 H   0  0  0  0  0  0  0  0  0  0  0  0
    5.1066   -0.0414   -1.8560 H   0  0  0  0  0  0  0  0  0  0  0  0
    4.9533    1.9996    2.6658 H   0  0  0  0  0  0  0  0  0  0  0  0
    7.1689    0.1697   -0.5435 H   0  0  0  0  0  0  0  0  0  0  0  0
    8.0814    0.8534    1.3590 H   0  0  0  0  0  0  0  0  0  0  0  0
  1 12  1  0  0  0  0
  1 14  1  0  0  0  0
  2 14  1  0  0  0  0
  2 16  1  0  0  0  0
  3 10  1  0  0  0  0
  3 40  1  0  0  0  0
  4 11  1  0  0  0  0
  4 41  1  0  0  0  0
  5 13  1  0  0  0  0
  5 42  1  0  0  0  0
  6 15  1  0  0  0  0
  6 19  1  0  0  0  0
  7 19  2  0  0  0  0
  8 25  1  0  0  0  0
  8 53  1  0  0  0  0
  9 32  1  0  0  0  0
  9 58  1  0  0  0  0
 10 11  1  0  0  0  0
 10 12  1  0  0  0  0
 10 33  1  0  0  0  0
 11 13  1  0  0  0  0
 11 34  1  0  0  0  0
 12 15  1  0  0  0  0
 12 35  1  0  0  0  0
 13 14  1  0  0  0  0
 13 36  1  0  0  0  0
 14 37  1  0  0  0  0
 15 38  1  0  0  0  0
 15 39  1  0  0  0  0
 16 17  1  0  0  0  0
 16 43  1  0  0  0  0
 16 44  1  0  0  0  0
 17 18  1  0  0  0  0
 17 45  1  0  0  0  0
 17 46  1  0  0  0  0
 18 20  2  0  0  0  0
 18 21  1  0  0  0  0
 19 22  1  0  0  0  0
 20 23  1  0  0  0  0
 20 47  1  0  0  0  0
 21 24  2  0  0  0  0
 21 48  1  0  0  0  0
 22 26  2  0  0  0  0
 22 49  1  0  0  0  0
 23 25  2  0  0  0  0
 23 50  1  0  0  0  0
 24 25  1  0  0  0  0
 24 51  1  0  0  0  0
 26 27  1  0  0  0  0
 26 52  1  0  0  0  0
 27 28  2  0  0  0  0
 27 29  1  0  0  0  0
 28 30  1  0  0  0  0
 28 54  1  0  0  0  0
 29 31  2  0  0  0  0
 29 55  1  0  0  0  0
 30 32  2  0  0  0  0
 30 56  1  0  0  0  0
 31 32  1  0  0  0  0
 31 57  1  0  0  0  0
M  END
> <PUBCHEM_COMPOUND_CID>
10026568

> <PUBCHEM_CONFORMER_RMSD>
1

> <PUBCHEM_CONFORMER_DIVERSEORDER>
1
8
114
30
107
139
75
79
33
42
24
49
94
59
144
125
43
93
57
16
20
109
98
40
111
142
5
39
67
129
115
65
117
34
146
108
101
127
104
47
21
110
46
124
83
17
84
112
29
102
38
48
78
99
36
87
61
132
81
82
130
9
35
128
113
18
97
119
86
76
32
69
41
88
73
92
53
52
147
27
126
74
85
103
54
116
72
55
11
133
89
44
37
148
28
58
26
136
123
64
106
120
118
63
45
100
51
137
145
80
95
138
7
122
141
6
68
14
105
25
135
19
23
143
12
50
77
66
10
134
96
62
121
22
56
90
2
140
131
15
91
60
71
70
13
4
31
3

> <PUBCHEM_MMFF94_PARTIAL_CHARGES>
47
1 -0.56
10 0.28
11 0.28
12 0.28
13 0.28
14 0.56
15 0.28
16 0.28
17 0.14
18 -0.14
19 0.71
2 -0.56
20 -0.15
21 -0.15
22 -0.14
23 -0.15
24 -0.15
25 0.08
26 -0.18
27 0.03
28 -0.15
29 -0.15
3 -0.68
30 -0.15
31 -0.15
32 0.08
4 -0.68
40 0.4
41 0.4
42 0.4
47 0.15
48 0.15
49 0.15
5 -0.68
50 0.15
51 0.15
52 0.15
53 0.45
54 0.15
55 0.15
56 0.15
57 0.15
58 0.45
6 -0.43
7 -0.57
8 -0.53
9 -0.53

> <PUBCHEM_EFFECTIVE_ROTOR_COUNT>
10.2

> <PUBCHEM_PHARMACOPHORE_FEATURES>
14
1 1 acceptor
1 2 acceptor
1 3 acceptor
1 3 donor
1 4 acceptor
1 4 donor
1 5 acceptor
1 5 donor
1 7 acceptor
1 8 donor
1 9 donor
6 1 10 11 12 13 14 rings
6 18 20 21 23 24 25 rings
6 27 28 29 30 31 32 rings

> <PUBCHEM_HEAVY_ATOM_COUNT>
32

> <PUBCHEM_ATOM_DEF_STEREO_COUNT>
5

> <PUBCHEM_ATOM_UDEF_STEREO_COUNT>
0

> <PUBCHEM_BOND_DEF_STEREO_COUNT>
1

> <PUBCHEM_BOND_UDEF_STEREO_COUNT>
0

> <PUBCHEM_ISOTOPIC_ATOM_COUNT>
0

> <PUBCHEM_COMPONENT_COUNT>
1

> <PUBCHEM_CACTVS_TAUTO_COUNT>
4

> <PUBCHEM_CONFORMER_ID>
0098FE4800000001

> <PUBCHEM_MMFF94_ENERGY>
84.9427

> <PUBCHEM_FEATURE_SELFOVERLAP>
71.105

> <PUBCHEM_SHAPE_FINGERPRINT>
10864689 126 17760087316135215662
11479125 193 15982551191614086248
11513181 2 18272368650733041934
12422481 6 18187917332183789866
12522641 33 17897700121504511469
12633257 1 18338244876235102596
12788726 201 17904217162348519974
131258 38 16308256355044741251
13642711 20 17203323446722427834
14068700 675 18122051268315180111
14178342 30 18337405897745118669
14395042 24 18191600851231014051
14950920 106 18340760563488174304
15021287 119 17022893584926473636
15338160 23 18122902290674255028
15406563 190 17315376746625178844
17913733 40 18340485548183974280
21796203 349 17328882997057633474
238918 7 18341052995190012958
244849 19 17559698233896348238
24893992 56 17825379950668552447
25019877 29 17057825167698709847
35225 105 17910638228708472395
4112364 45 17480602455656159225
469060 322 17458897240781036550
508706 21 18337118955196353966
581034 39 18335431178950832638
6287921 2 18266469711052205303
653340 110 18339357569465318830

> <PUBCHEM_SHAPE_MULTIPOLES>
605.72
12.79
5.31
2.03
19.42
3.93
0.04
-8.95
-7.57
-5.51
0.07
-0.26
-1.09
0.27

> <PUBCHEM_SHAPE_SELFOVERLAP>
1280.516

> <PUBCHEM_SHAPE_VOLUME>
335.3

> <PUBCHEM_COORDINATE_TYPE>
2
5
10

$$$$
