10027318
  -OEChem-03292013303D

 68 69  0     1  0  0  0  0  0999 V2000
    0.0137    0.4373    0.8198 O   0  0  0  0  0  0  0  0  0  0  0  0
   -3.2252   -1.3626   -0.5789 O   0  0  0  0  0  0  0  0  0  0  0  0
   -1.9809   -0.7348   -2.4182 O   0  0  0  0  0  0  0  0  0  0  0  0
   -4.3157    0.6172   -1.3741 O   0  0  0  0  0  0  0  0  0  0  0  0
   -4.7396    1.0132    0.8591 O   0  0  0  0  0  0  0  0  0  0  0  0
   -2.4632    3.7868    2.2896 O   0  0  0  0  0  0  0  0  0  0  0  0
   -1.6712    2.8412    0.3403 O   0  0  0  0  0  0  0  0  0  0  0  0
    0.2367   -1.1453   -0.8731 N   0  0  0  0  0  0  0  0  0  0  0  0
    4.3964    2.0585   -0.1263 C   0  0  0  0  0  0  0  0  0  0  0  0
    3.2005    2.7309   -0.8138 C   0  0  0  0  0  0  0  0  0  0  0  0
    4.3961    0.5459   -0.3857 C   0  0  0  0  0  0  0  0  0  0  0  0
    1.8839    0.5803   -0.6551 C   0  0  0  0  0  0  0  0  0  0  0  0
    1.8784    2.0877   -0.4007 C   0  0  0  0  0  0  0  0  0  0  0  0
    3.0734   -0.0971    0.0258 C   0  0  0  0  0  0  0  0  0  0  0  0
    5.7090    2.6854   -0.5929 C   0  0  0  0  0  0  0  0  0  0  0  0
    0.6122   -0.0266   -0.1473 C   0  0  0  0  0  0  0  0  0  0  0  0
    5.7256    4.1820   -0.2915 C   0  0  0  0  0  0  0  0  0  0  0  0
    6.8989    1.9915    0.0658 C   0  0  0  0  0  0  0  0  0  0  0  0
   -0.9393   -1.9255   -0.5717 C   0  0  2  0  0  0  0  0  0  0  0  0
   -0.7601   -3.3812   -1.0097 C   0  0  0  0  0  0  0  0  0  0  0  0
   -2.0805   -1.2595   -1.3164 C   0  0  0  0  0  0  0  0  0  0  0  0
    0.0789   -4.2009   -0.0601 C   0  0  0  0  0  0  0  0  0  0  0  0
    1.4610   -4.2723   -0.2346 C   0  0  0  0  0  0  0  0  0  0  0  0
   -0.5275   -4.8867    0.9924 C   0  0  0  0  0  0  0  0  0  0  0  0
   -4.4110   -0.8000   -1.1618 C   0  0  0  0  0  0  0  0  0  0  0  0
    2.2367   -5.0296    0.6430 C   0  0  0  0  0  0  0  0  0  0  0  0
    0.2484   -5.6440    1.8701 C   0  0  0  0  0  0  0  0  0  0  0  0
    1.6305   -5.7155    1.6954 C   0  0  0  0  0  0  0  0  0  0  0  0
   -4.5019    1.4063   -0.2745 C   0  0  0  0  0  0  0  0  0  0  0  0
   -4.3729    2.8564   -0.6887 C   0  0  0  0  0  0  0  0  0  0  0  0
   -3.9223    3.7614    0.4558 C   0  0  0  0  0  0  0  0  0  0  0  0
   -2.5505    3.3987    0.9824 C   0  0  0  0  0  0  0  0  0  0  0  0
   -1.2186    3.5006    2.9355 C   0  0  0  0  0  0  0  0  0  0  0  0
    4.2927    2.2127    0.9575 H   0  0  0  0  0  0  0  0  0  0  0  0
    3.1379    3.7924   -0.5538 H   0  0  0  0  0  0  0  0  0  0  0  0
    3.3084    2.6702   -1.9042 H   0  0  0  0  0  0  0  0  0  0  0  0
    4.5827    0.3445   -1.4482 H   0  0  0  0  0  0  0  0  0  0  0  0
    5.1853    0.0442    0.1834 H   0  0  0  0  0  0  0  0  0  0  0  0
    1.9540    0.4200   -1.7394 H   0  0  0  0  0  0  0  0  0  0  0  0
    1.0545    2.5580   -0.9517 H   0  0  0  0  0  0  0  0  0  0  0  0
    1.7018    2.3011    0.6619 H   0  0  0  0  0  0  0  0  0  0  0  0
    3.0960   -1.1647   -0.2253 H   0  0  0  0  0  0  0  0  0  0  0  0
    2.9651   -0.0409    1.1172 H   0  0  0  0  0  0  0  0  0  0  0  0
    5.8143    2.5637   -1.6791 H   0  0  0  0  0  0  0  0  0  0  0  0
    5.4788    4.3852    0.7563 H   0  0  0  0  0  0  0  0  0  0  0  0
    5.0298    4.7364   -0.9280 H   0  0  0  0  0  0  0  0  0  0  0  0
    6.7187    4.6035   -0.4848 H   0  0  0  0  0  0  0  0  0  0  0  0
    7.8257    2.5405   -0.1364 H   0  0  0  0  0  0  0  0  0  0  0  0
    7.0528    0.9815   -0.3258 H   0  0  0  0  0  0  0  0  0  0  0  0
    6.7810    1.9329    1.1532 H   0  0  0  0  0  0  0  0  0  0  0  0
    0.7806   -1.4053   -1.6911 H   0  0  0  0  0  0  0  0  0  0  0  0
   -1.1333   -1.8492    0.5054 H   0  0  0  0  0  0  0  0  0  0  0  0
   -1.7442   -3.8618   -1.0994 H   0  0  0  0  0  0  0  0  0  0  0  0
   -0.3296   -3.4358   -2.0191 H   0  0  0  0  0  0  0  0  0  0  0  0
    1.9458   -3.7428   -1.0505 H   0  0  0  0  0  0  0  0  0  0  0  0
   -1.6029   -4.8368    1.1405 H   0  0  0  0  0  0  0  0  0  0  0  0
   -5.2623   -1.0361   -0.5133 H   0  0  0  0  0  0  0  0  0  0  0  0
   -4.6015   -1.2794   -2.1287 H   0  0  0  0  0  0  0  0  0  0  0  0
    3.3128   -5.0849    0.5073 H   0  0  0  0  0  0  0  0  0  0  0  0
   -0.2234   -6.1774    2.6901 H   0  0  0  0  0  0  0  0  0  0  0  0
    2.2345   -6.3048    2.3790 H   0  0  0  0  0  0  0  0  0  0  0  0
   -5.3475    3.1853   -1.0646 H   0  0  0  0  0  0  0  0  0  0  0  0
   -3.6468    2.9265   -1.5075 H   0  0  0  0  0  0  0  0  0  0  0  0
   -3.8872    4.8026    0.1184 H   0  0  0  0  0  0  0  0  0  0  0  0
   -4.6465    3.6891    1.2760 H   0  0  0  0  0  0  0  0  0  0  0  0
   -0.3959    3.9998    2.4144 H   0  0  0  0  0  0  0  0  0  0  0  0
   -1.2700    3.8835    3.9581 H   0  0  0  0  0  0  0  0  0  0  0  0
   -1.0530    2.4198    2.9725 H   0  0  0  0  0  0  0  0  0  0  0  0
  1 16  2  0  0  0  0
  2 21  1  0  0  0  0
  2 25  1  0  0  0  0
  3 21  2  0  0  0  0
  4 25  1  0  0  0  0
  4 29  1  0  0  0  0
  5 29  2  0  0  0  0
  6 32  1  0  0  0  0
  6 33  1  0  0  0  0
  7 32  2  0  0  0  0
  8 16  1  0  0  0  0
  8 19  1  0  0  0  0
  8 51  1  0  0  0  0
  9 10  1  0  0  0  0
  9 11  1  0  0  0  0
  9 15  1  0  0  0  0
  9 34  1  0  0  0  0
 10 13  1  0  0  0  0
 10 35  1  0  0  0  0
 10 36  1  0  0  0  0
 11 14  1  0  0  0  0
 11 37  1  0  0  0  0
 11 38  1  0  0  0  0
 12 13  1  0  0  0  0
 12 14  1  0  0  0  0
 12 16  1  0  0  0  0
 12 39  1  0  0  0  0
 13 40  1  0  0  0  0
 13 41  1  0  0  0  0
 14 42  1  0  0  0  0
 14 43  1  0  0  0  0
 15 17  1  0  0  0  0
 15 18  1  0  0  0  0
 15 44  1  0  0  0  0
 17 45  1  0  0  0  0
 17 46  1  0  0  0  0
 17 47  1  0  0  0  0
 18 48  1  0  0  0  0
 18 49  1  0  0  0  0
 18 50  1  0  0  0  0
 19 20  1  0  0  0  0
 19 21  1  0  0  0  0
 19 52  1  0  0  0  0
 20 22  1  0  0  0  0
 20 53  1  0  0  0  0
 20 54  1  0  0  0  0
 22 23  2  0  0  0  0
 22 24  1  0  0  0  0
 23 26  1  0  0  0  0
 23 55  1  0  0  0  0
 24 27  2  0  0  0  0
 24 56  1  0  0  0  0
 25 57  1  0  0  0  0
 25 58  1  0  0  0  0
 26 28  2  0  0  0  0
 26 59  1  0  0  0  0
 27 28  1  0  0  0  0
 27 60  1  0  0  0  0
 28 61  1  0  0  0  0
 29 30  1  0  0  0  0
 30 31  1  0  0  0  0
 30 62  1  0  0  0  0
 30 63  1  0  0  0  0
 31 32  1  0  0  0  0
 31 64  1  0  0  0  0
 31 65  1  0  0  0  0
 33 66  1  0  0  0  0
 33 67  1  0  0  0  0
 33 68  1  0  0  0  0
M  END
> <PUBCHEM_COMPOUND_CID>
10027318

> <PUBCHEM_CONFORMER_RMSD>
1.2

> <PUBCHEM_CONFORMER_DIVERSEORDER>
1
78
17
72
73
62
111
3
74
69
94
9
120
39
19
81
58
63
100
117
34
65
46
90
75
31
14
71
113
27
22
61
86
109
8
40
51
84
42
104
107
35
85
33
93
80
25
119
96
82
32
52
99
67
102
18
43
24
38
103
11
12
121
45
68
83
115
36
6
89
97
88
28
123
4
57
44
79
101
116
56
55
16
77
37
49
76
48
64
112
10
60
23
110
105
59
118
98
29
70
47
15
54
108
13
122
66
21
106
26
41
92
30
53
91
114
2
87
7
5
20
50
95

> <PUBCHEM_MMFF94_PARTIAL_CHARGES>
31
1 -0.57
12 0.06
16 0.57
19 0.36
2 -0.43
20 0.14
21 0.66
22 -0.14
23 -0.15
24 -0.15
25 0.56
26 -0.15
27 -0.15
28 -0.15
29 0.66
3 -0.57
30 0.06
31 0.06
32 0.66
33 0.28
4 -0.43
5 -0.57
51 0.37
55 0.15
56 0.15
59 0.15
6 -0.43
60 0.15
61 0.15
7 -0.57
8 -0.73

> <PUBCHEM_EFFECTIVE_ROTOR_COUNT>
16.2

> <PUBCHEM_PHARMACOPHORE_FEATURES>
8
1 1 acceptor
1 3 acceptor
1 5 acceptor
1 7 acceptor
1 8 donor
3 15 17 18 hydrophobe
6 22 23 24 26 27 28 rings
6 9 10 11 12 13 14 rings

> <PUBCHEM_HEAVY_ATOM_COUNT>
33

> <PUBCHEM_ATOM_DEF_STEREO_COUNT>
1

> <PUBCHEM_ATOM_UDEF_STEREO_COUNT>
0

> <PUBCHEM_BOND_DEF_STEREO_COUNT>
0

> <PUBCHEM_BOND_UDEF_STEREO_COUNT>
0

> <PUBCHEM_ISOTOPIC_ATOM_COUNT>
0

> <PUBCHEM_COMPONENT_COUNT>
1

> <PUBCHEM_CACTVS_TAUTO_COUNT>
2

> <PUBCHEM_CONFORMER_ID>
0099013600000001

> <PUBCHEM_MMFF94_ENERGY>
60.9022

> <PUBCHEM_FEATURE_SELFOVERLAP>
40.598

> <PUBCHEM_SHAPE_FINGERPRINT>
10074138 170 18195793284250023144
10675989 125 18339358565923949588
10816530 145 17909001141709716585
10838868 158 17183893113602217608
12422481 6 16544663965472987251
12539747 363 16893441741094495786
12660671 118 18055913186987839103
12788726 201 18200870781401511760
13941206 138 18409729568827136645
14251757 5 18197497535404138956
14790565 3 18409445886727800948
15351339 4 18343011190421722961
15463212 79 18412258471546793845
16067689 134 17981055115775898844
16112460 7 18410285884016434778
17627616 140 18340204068727543605
17980427 23 17121405149249622253
19319366 153 18411978066375376365
20101258 96 17329715829881160198
21033650 10 18128558104950598780
2132832 1 17766811981027405319
21796203 349 17043490468995966674
4058900 60 18335426746855962750
42626532 9 16746212748520402466
4616759 239 17979621662036249008
79837 15 18263647444781094510
9981440 41 18335425681498163097
9982175 49 18194673779375137794

> <PUBCHEM_SHAPE_MULTIPOLES>
633.06
11.08
9.69
1.75
15.08
13.98
-0.93
-16.62
2.8
-2.12
-6.35
-1.54
-0.4
-2.07

> <PUBCHEM_SHAPE_SELFOVERLAP>
1290.191

> <PUBCHEM_SHAPE_VOLUME>
362.7

> <PUBCHEM_COORDINATE_TYPE>
2
5
10

$$$$
