10038020
  -OEChem-03292013303D

 30 30  0     1  0  0  0  0  0999 V2000
   -0.9261   -0.4243   -1.5494 O   0  0  0  0  0  0  0  0  0  0  0  0
   -3.0300    1.0141    1.0831 O   0  0  0  0  0  0  0  0  0  0  0  0
   -0.7834    2.5077    0.5669 O   0  0  0  0  0  0  0  0  0  0  0  0
   -0.2281    2.1796   -1.6038 O   0  0  0  0  0  0  0  0  0  0  0  0
   -3.1607   -1.8612   -1.0218 O   0  0  0  0  0  0  0  0  0  0  0  0
   -3.8049   -1.5326    1.1324 O   0  0  0  0  0  0  0  0  0  0  0  0
    5.2066   -0.4809   -0.1890 O   0  0  0  0  0  0  0  0  0  0  0  0
   -1.2006    0.3144   -0.3602 C   0  0  2  0  0  0  0  0  0  0  0  0
   -0.3480   -0.2936    0.7818 C   0  0  0  0  0  0  0  0  0  0  0  0
   -2.7239    0.2796   -0.0968 C   0  0  1  0  0  0  0  0  0  0  0  0
    1.1410   -0.3437    0.5213 C   0  0  0  0  0  0  0  0  0  0  0  0
   -0.6993    1.7510   -0.5570 C   0  0  0  0  0  0  0  0  0  0  0  0
   -3.2828   -1.1186    0.1069 C   0  0  0  0  0  0  0  0  0  0  0  0
    1.6838   -1.4624   -0.0868 C   0  0  0  0  0  0  0  0  0  0  0  0
    1.9296    0.7305    0.8970 C   0  0  0  0  0  0  0  0  0  0  0  0
    3.0571   -1.5086   -0.3267 C   0  0  0  0  0  0  0  0  0  0  0  0
    3.3028    0.6843    0.6571 C   0  0  0  0  0  0  0  0  0  0  0  0
    3.8667   -0.4352    0.0451 C   0  0  0  0  0  0  0  0  0  0  0  0
   -0.6807   -1.3241    0.9682 H   0  0  0  0  0  0  0  0  0  0  0  0
   -0.5145    0.2333    1.7303 H   0  0  0  0  0  0  0  0  0  0  0  0
   -3.2754    0.7422   -0.9232 H   0  0  0  0  0  0  0  0  0  0  0  0
   -0.0027   -0.2710   -1.8097 H   0  0  0  0  0  0  0  0  0  0  0  0
    1.0626   -2.3035   -0.3802 H   0  0  0  0  0  0  0  0  0  0  0  0
    1.5126    1.6007    1.3930 H   0  0  0  0  0  0  0  0  0  0  0  0
   -2.6201    0.5672    1.8422 H   0  0  0  0  0  0  0  0  0  0  0  0
    3.4840   -2.3866   -0.8041 H   0  0  0  0  0  0  0  0  0  0  0  0
    3.9290    1.5216    0.9531 H   0  0  0  0  0  0  0  0  0  0  0  0
   -0.4363    3.4140    0.4243 H   0  0  0  0  0  0  0  0  0  0  0  0
   -3.5300   -2.7629   -0.9085 H   0  0  0  0  0  0  0  0  0  0  0  0
    5.4229   -1.3267   -0.6180 H   0  0  0  0  0  0  0  0  0  0  0  0
  1  8  1  0  0  0  0
  1 22  1  0  0  0  0
  2 10  1  0  0  0  0
  2 25  1  0  0  0  0
  3 12  1  0  0  0  0
  3 28  1  0  0  0  0
  4 12  2  0  0  0  0
  5 13  1  0  0  0  0
  5 29  1  0  0  0  0
  6 13  2  0  0  0  0
  7 18  1  0  0  0  0
  7 30  1  0  0  0  0
  8  9  1  0  0  0  0
  8 10  1  0  0  0  0
  8 12  1  0  0  0  0
  9 11  1  0  0  0  0
  9 19  1  0  0  0  0
  9 20  1  0  0  0  0
 10 13  1  0  0  0  0
 10 21  1  0  0  0  0
 11 14  2  0  0  0  0
 11 15  1  0  0  0  0
 14 16  1  0  0  0  0
 14 23  1  0  0  0  0
 15 17  2  0  0  0  0
 15 24  1  0  0  0  0
 16 18  2  0  0  0  0
 16 26  1  0  0  0  0
 17 18  1  0  0  0  0
 17 27  1  0  0  0  0
M  END
> <PUBCHEM_COMPOUND_CID>
10038020

> <PUBCHEM_CONFORMER_RMSD>
0.6

> <PUBCHEM_CONFORMER_DIVERSEORDER>
1
17
13
11
10
16
7
2
4
15
12
8
14
3
9
5
6

> <PUBCHEM_MMFF94_PARTIAL_CHARGES>
27
1 -0.68
10 0.34
11 -0.14
12 0.66
13 0.66
14 -0.15
15 -0.15
16 -0.15
17 -0.15
18 0.08
2 -0.68
22 0.4
23 0.15
24 0.15
25 0.4
26 0.15
27 0.15
28 0.5
29 0.5
3 -0.65
30 0.45
4 -0.57
5 -0.65
6 -0.57
7 -0.53
8 0.34
9 0.14

> <PUBCHEM_EFFECTIVE_ROTOR_COUNT>
5

> <PUBCHEM_PHARMACOPHORE_FEATURES>
12
1 1 acceptor
1 1 donor
1 2 acceptor
1 2 donor
1 3 acceptor
1 4 acceptor
1 5 acceptor
1 6 acceptor
1 7 donor
3 3 4 12 anion
3 5 6 13 anion
6 11 14 15 16 17 18 rings

> <PUBCHEM_HEAVY_ATOM_COUNT>
18

> <PUBCHEM_ATOM_DEF_STEREO_COUNT>
2

> <PUBCHEM_ATOM_UDEF_STEREO_COUNT>
0

> <PUBCHEM_BOND_DEF_STEREO_COUNT>
0

> <PUBCHEM_BOND_UDEF_STEREO_COUNT>
0

> <PUBCHEM_ISOTOPIC_ATOM_COUNT>
0

> <PUBCHEM_COMPONENT_COUNT>
1

> <PUBCHEM_CACTVS_TAUTO_COUNT>
2

> <PUBCHEM_CONFORMER_ID>
00992B0400000001

> <PUBCHEM_MMFF94_ENERGY>
37.3406

> <PUBCHEM_FEATURE_SELFOVERLAP>
61.043

> <PUBCHEM_SHAPE_FINGERPRINT>
11132069 177 18409440384426503176
11543360 7 14418132958458499602
12032990 46 18335984254510748378
12251169 10 17988928868470625507
12592029 89 11383844774407790845
13214271 11 18409725149432389581
13675066 3 16487252154169060754
14004511 7 9583524234612406219
14181834 199 17387420253064263380
15309172 13 15195565697492926023
16945 1 18197773298005326105
17357779 13 18263062436059867893
17844478 74 18413386518921154872
1813 80 18113627789053612909
18175812 5 18272367564099994469
19422 9 18202002152827469232
200 152 14201396092693982026
20871999 31 18041548179503864775
21501502 16 18118116975134754362
23402539 116 17967530156133410986
23557571 272 18335984173059207756
23559900 14 18189892024923395954
23622692 88 18336559257081366625
3286 77 18059850714268068520
4340502 62 9654747390505506055
5104073 3 18342735179165627162
81228 2 18115300060614712917
83771 10 18410575110628230491

> <PUBCHEM_SHAPE_MULTIPOLES>
329.35
7.3
2.04
1.14
3.87
0.67
-0.19
-3.15
0.72
-1.02
-0.3
-0.52
0.18
0.26

> <PUBCHEM_SHAPE_SELFOVERLAP>
691.874

> <PUBCHEM_SHAPE_VOLUME>
183.7

> <PUBCHEM_COORDINATE_TYPE>
2
5
10

$$$$
