10037499
  -OEChem-03292013303D

 29 30  0     1  0  0  0  0  0999 V2000
    2.8429   -2.2999   -0.3563 F   0  0  0  0  0  0  0  0  0  0  0  0
   -1.5310   -0.7931    1.1345 O   0  0  0  0  0  0  0  0  0  0  0  0
   -1.9436    1.8534   -1.2498 O   0  0  0  0  0  0  0  0  0  0  0  0
   -3.9314    0.7903    0.2854 O   0  0  0  0  0  0  0  0  0  0  0  0
    0.7301    2.5370    0.5325 O   0  0  0  0  0  0  0  0  0  0  0  0
    0.3719    0.2690    0.2886 N   0  0  0  0  0  0  0  0  0  0  0  0
    2.5718    1.2695    0.1325 N   0  0  0  0  0  0  0  0  0  0  0  0
    4.4534   -0.0414   -0.2777 N   0  0  0  0  0  0  0  0  0  0  0  0
   -1.8045    0.5137   -0.8232 C   0  0  2  0  0  0  0  0  0  0  0  0
   -3.1348   -0.1192   -0.4734 C   0  0  1  0  0  0  0  0  0  0  0  0
   -1.0442    0.3933    0.4863 C   0  0  1  0  0  0  0  0  0  0  0  0
   -2.7146   -1.2562    0.4480 C   0  0  1  0  0  0  0  0  0  0  0  0
   -2.3602   -2.5358   -0.2978 C   0  0  0  0  0  0  0  0  0  0  0  0
    0.9410   -0.9745    0.0571 C   0  0  0  0  0  0  0  0  0  0  0  0
    1.2064    1.4187    0.3280 C   0  0  0  0  0  0  0  0  0  0  0  0
    2.2479   -1.1168   -0.1291 C   0  0  0  0  0  0  0  0  0  0  0  0
    3.0988    0.0920   -0.0854 C   0  0  0  0  0  0  0  0  0  0  0  0
   -1.3224   -0.0563   -1.6264 H   0  0  0  0  0  0  0  0  0  0  0  0
   -3.7195   -0.4295   -1.3432 H   0  0  0  0  0  0  0  0  0  0  0  0
   -1.2450    1.2458    1.1457 H   0  0  0  0  0  0  0  0  0  0  0  0
   -3.4723   -1.4731    1.2088 H   0  0  0  0  0  0  0  0  0  0  0  0
   -1.6243   -2.3641   -1.0888 H   0  0  0  0  0  0  0  0  0  0  0  0
   -1.9266   -3.2713    0.3881 H   0  0  0  0  0  0  0  0  0  0  0  0
   -3.2520   -2.9722   -0.7583 H   0  0  0  0  0  0  0  0  0  0  0  0
   -1.0494    2.2151   -1.3721 H   0  0  0  0  0  0  0  0  0  0  0  0
   -3.4743    0.9934    1.1184 H   0  0  0  0  0  0  0  0  0  0  0  0
    0.2980   -1.8418    0.0269 H   0  0  0  0  0  0  0  0  0  0  0  0
    5.0657    0.7670   -0.2539 H   0  0  0  0  0  0  0  0  0  0  0  0
    4.8843   -0.9441   -0.4480 H   0  0  0  0  0  0  0  0  0  0  0  0
  1 16  1  0  0  0  0
  2 11  1  0  0  0  0
  2 12  1  0  0  0  0
  3  9  1  0  0  0  0
  3 25  1  0  0  0  0
  4 10  1  0  0  0  0
  4 26  1  0  0  0  0
  5 15  2  0  0  0  0
  6 11  1  0  0  0  0
  6 14  1  0  0  0  0
  6 15  1  0  0  0  0
  7 15  1  0  0  0  0
  7 17  2  0  0  0  0
  8 17  1  0  0  0  0
  8 28  1  0  0  0  0
  8 29  1  0  0  0  0
  9 10  1  0  0  0  0
  9 11  1  0  0  0  0
  9 18  1  0  0  0  0
 10 12  1  0  0  0  0
 10 19  1  0  0  0  0
 11 20  1  0  0  0  0
 12 13  1  0  0  0  0
 12 21  1  0  0  0  0
 13 22  1  0  0  0  0
 13 23  1  0  0  0  0
 13 24  1  0  0  0  0
 14 16  2  0  0  0  0
 14 27  1  0  0  0  0
 16 17  1  0  0  0  0
M  END
> <PUBCHEM_COMPOUND_CID>
10037499

> <PUBCHEM_CONFORMER_RMSD>
0.6

> <PUBCHEM_CONFORMER_DIVERSEORDER>
1
9
8
6
7
3
10
5
2
4

> <PUBCHEM_MMFF94_PARTIAL_CHARGES>
21
1 -0.15
10 0.28
11 0.58
12 0.28
14 -0.04
15 0.84
16 0.16
17 0.49
2 -0.56
25 0.4
26 0.4
27 0.15
28 0.4
29 0.4
3 -0.68
4 -0.68
5 -0.57
6 -0.47
7 -0.66
8 -0.85
9 0.28

> <PUBCHEM_EFFECTIVE_ROTOR_COUNT>
2

> <PUBCHEM_PHARMACOPHORE_FEATURES>
10
1 2 acceptor
1 3 acceptor
1 3 donor
1 4 acceptor
1 4 donor
1 5 acceptor
1 7 donor
1 8 donor
5 2 9 10 11 12 rings
6 6 7 14 15 16 17 rings

> <PUBCHEM_HEAVY_ATOM_COUNT>
17

> <PUBCHEM_ATOM_DEF_STEREO_COUNT>
4

> <PUBCHEM_ATOM_UDEF_STEREO_COUNT>
0

> <PUBCHEM_BOND_DEF_STEREO_COUNT>
0

> <PUBCHEM_BOND_UDEF_STEREO_COUNT>
0

> <PUBCHEM_ISOTOPIC_ATOM_COUNT>
0

> <PUBCHEM_COMPONENT_COUNT>
1

> <PUBCHEM_CACTVS_TAUTO_COUNT>
3

> <PUBCHEM_CONFORMER_ID>
009928FB00000001

> <PUBCHEM_MMFF94_ENERGY>
49.3228

> <PUBCHEM_FEATURE_SELFOVERLAP>
50.804

> <PUBCHEM_SHAPE_FINGERPRINT>
10608611 8 18336259123896537213
10922523 26 18333449828711133221
10967382 1 18411982425213546962
11132069 177 18339920523687216818
12932764 1 17894900837191384915
15219456 202 18337389456256887849
15775835 57 18335704939971289119
16945 1 18336249198437859365
17834074 16 18410857697969867735
17844478 74 18041006141551061049
18186145 218 17970063344570728549
19107657 46 18413108381150195326
200 152 17917708028324378959
20201158 50 18409729560332257954
20645477 70 18131633374432589518
21501502 16 18336545039974563193
221490 88 18194688296159071146
22721475 48 18334859436993614913
22802520 49 18261672679169092185
23402539 116 17385717023895981246
23559900 14 18193830441451910010
238 59 16092018178080363637
25 1 18335415712826262659
2748010 2 18412261705746663070
2871803 45 18121489413383740127
3312278 4 18341898497644615754
34934 24 18412539899379013130
69090 78 18409724054722280647
7364860 26 18198340860690638168
74978 22 18343021120644333875
81228 2 17910684163610654256
8809292 202 18334015024964352290
93112 12 18412260674928079783
9709674 26 18410859896940875967

> <PUBCHEM_SHAPE_MULTIPOLES>
304.16
6.34
2.27
0.85
1.95
0.28
0.04
1.06
0.58
-0.16
0.15
-0.39
-0.13
0.51

> <PUBCHEM_SHAPE_SELFOVERLAP>
644.963

> <PUBCHEM_SHAPE_VOLUME>
171.3

> <PUBCHEM_COORDINATE_TYPE>
2
5
10

$$$$
