100327
  -OEChem-03292013323D

 31 33  0     1  0  0  0  0  0999 V2000
    1.1002   -2.5726   -1.2881 Cl  0  0  0  0  0  0  0  0  0  0  0  0
    1.9955    0.5588    0.9396 O   0  0  0  0  0  0  0  0  0  0  0  0
    3.4277   -2.0975    0.4967 O   0  0  0  0  0  0  0  0  0  0  0  0
    3.7883    2.6316    0.3571 O   0  0  0  0  0  0  0  0  0  0  0  0
   -0.2098    0.2728    0.1222 N   0  0  0  0  0  0  0  0  0  0  0  0
   -1.6402    1.8891   -0.4488 N   0  0  0  0  0  0  0  0  0  0  0  0
   -1.7809   -1.5167    0.6047 N   0  0  0  0  0  0  0  0  0  0  0  0
   -4.0866   -0.7907    0.2685 N   0  0  0  0  0  0  0  0  0  0  0  0
   -4.6449    1.4228   -0.4497 N   0  0  0  0  0  0  0  0  0  0  0  0
    1.0606   -0.3927    0.3896 C   0  0  1  0  0  0  0  0  0  0  0  0
    3.1950   -1.0087   -0.3962 C   0  0  1  0  0  0  0  0  0  0  0  0
    1.7424   -0.9847   -0.8373 C   0  0  1  0  0  0  0  0  0  0  0  0
    3.3085    0.2920    0.3968 C   0  0  1  0  0  0  0  0  0  0  0  0
    3.7220    1.4784   -0.4631 C   0  0  0  0  0  0  0  0  0  0  0  0
   -1.4613   -0.2685    0.2310 C   0  0  0  0  0  0  0  0  0  0  0  0
   -0.3724    1.5715   -0.2890 C   0  0  0  0  0  0  0  0  0  0  0  0
   -2.3320    0.7483   -0.1272 C   0  0  0  0  0  0  0  0  0  0  0  0
   -3.6909    0.4515   -0.0999 C   0  0  0  0  0  0  0  0  0  0  0  0
   -3.1213   -1.6845    0.5931 C   0  0  0  0  0  0  0  0  0  0  0  0
    0.8797   -1.1419    1.1704 H   0  0  0  0  0  0  0  0  0  0  0  0
    3.9019   -1.0898   -1.2272 H   0  0  0  0  0  0  0  0  0  0  0  0
    1.6270   -0.3232   -1.7040 H   0  0  0  0  0  0  0  0  0  0  0  0
    3.9875    0.2002    1.2521 H   0  0  0  0  0  0  0  0  0  0  0  0
    3.0011    1.6797   -1.2615 H   0  0  0  0  0  0  0  0  0  0  0  0
    4.7070    1.3164   -0.9105 H   0  0  0  0  0  0  0  0  0  0  0  0
    0.4627    2.2367   -0.4610 H   0  0  0  0  0  0  0  0  0  0  0  0
    4.3559   -2.0455    0.7822 H   0  0  0  0  0  0  0  0  0  0  0  0
    2.9085    2.7625    0.7506 H   0  0  0  0  0  0  0  0  0  0  0  0
   -3.4739   -2.6687    0.8828 H   0  0  0  0  0  0  0  0  0  0  0  0
   -4.3521    2.3506   -0.7246 H   0  0  0  0  0  0  0  0  0  0  0  0
   -5.6266    1.1830   -0.4217 H   0  0  0  0  0  0  0  0  0  0  0  0
  1 12  1  0  0  0  0
  2 10  1  0  0  0  0
  2 13  1  0  0  0  0
  3 11  1  0  0  0  0
  3 27  1  0  0  0  0
  4 14  1  0  0  0  0
  4 28  1  0  0  0  0
  5 10  1  0  0  0  0
  5 15  1  0  0  0  0
  5 16  1  0  0  0  0
  6 16  2  0  0  0  0
  6 17  1  0  0  0  0
  7 15  2  0  0  0  0
  7 19  1  0  0  0  0
  8 18  1  0  0  0  0
  8 19  2  0  0  0  0
  9 18  1  0  0  0  0
  9 30  1  0  0  0  0
  9 31  1  0  0  0  0
 10 12  1  0  0  0  0
 10 20  1  0  0  0  0
 11 12  1  0  0  0  0
 11 13  1  0  0  0  0
 11 21  1  0  0  0  0
 12 22  1  0  0  0  0
 13 14  1  0  0  0  0
 13 23  1  0  0  0  0
 14 24  1  0  0  0  0
 14 25  1  0  0  0  0
 15 17  1  0  0  0  0
 16 26  1  0  0  0  0
 17 18  2  0  0  0  0
 19 29  1  0  0  0  0
M  END
> <PUBCHEM_COMPOUND_CID>
100327

> <PUBCHEM_CONFORMER_RMSD>
0.6

> <PUBCHEM_CONFORMER_DIVERSEORDER>
3
12
10
1
13
9
4
8
6
14
5
2
11
7

> <PUBCHEM_MMFF94_PARTIAL_CHARGES>
25
1 -0.29
10 0.54
11 0.28
12 0.29
13 0.28
14 0.28
15 0.11
16 0.04
17 0.23
18 0.41
19 0.47
2 -0.56
26 0.15
27 0.4
28 0.4
29 0.15
3 -0.68
30 0.4
31 0.4
4 -0.68
5 0.05
6 -0.57
7 -0.57
8 -0.62
9 -0.9

> <PUBCHEM_EFFECTIVE_ROTOR_COUNT>
3

> <PUBCHEM_PHARMACOPHORE_FEATURES>
13
1 2 acceptor
1 3 acceptor
1 3 donor
1 4 acceptor
1 4 donor
1 9 cation
1 9 donor
3 5 6 16 cation
3 5 7 15 cation
3 7 8 19 cation
5 2 10 11 12 13 rings
5 5 6 15 16 17 rings
6 7 8 15 17 18 19 rings

> <PUBCHEM_HEAVY_ATOM_COUNT>
19

> <PUBCHEM_ATOM_DEF_STEREO_COUNT>
4

> <PUBCHEM_ATOM_UDEF_STEREO_COUNT>
0

> <PUBCHEM_BOND_DEF_STEREO_COUNT>
0

> <PUBCHEM_BOND_UDEF_STEREO_COUNT>
0

> <PUBCHEM_ISOTOPIC_ATOM_COUNT>
0

> <PUBCHEM_COMPONENT_COUNT>
1

> <PUBCHEM_CACTVS_TAUTO_COUNT>
3

> <PUBCHEM_CONFORMER_ID>
000187E700000003

> <PUBCHEM_MMFF94_ENERGY>
43.5852

> <PUBCHEM_FEATURE_SELFOVERLAP>
66.58

> <PUBCHEM_SHAPE_FINGERPRINT>
10608611 8 18409728435003483484
10616163 171 18411704321817916183
107287 299 18060424624846134254
11132069 177 18335136509702849705
11578080 2 16517061000924606724
12633257 1 18267307525658027218
13214271 11 18337951298245792917
13296908 3 18335422369925500683
13675066 3 17748833994823208513
15196674 1 18408323289576994619
15219456 202 18412265038377495187
15375358 24 18410291406774372863
15375462 6 18408324406315905926
15536298 74 18409169921851499324
16945 1 18196100936593148102
18175812 5 18410856551092170182
18186145 218 17458340823340678391
200 152 17489297539172222711
20201158 50 18271527477087201759
20279233 1 18341334405430555031
20510252 161 18410857642552239009
20645477 56 18187649059852092453
20645477 70 18271524208606481799
21501502 16 18340774736663232472
221490 88 18409456868996476642
23227448 37 17695628837735762604
23402539 116 18334286539843351175
23557571 272 18261969534064915694
23559900 14 18337950091528956602
2748010 2 18410860992051411375
296302 2 18413110580294490733
3060560 45 18130793339444194524
474 4 16806459174410407812
495365 180 17917412216667765297
5104073 3 18335423460894615505
58051976 378 18343585131554995036
69090 78 18340762650904979255
7364860 26 18411419484519713364
81228 2 18116450149772007425
8809292 202 18335707096034432779
9709674 26 18340772520486897351

> <PUBCHEM_SHAPE_MULTIPOLES>
350.37
8.01
2.49
0.88
2.38
0.19
-0.09
-1.75
0.26
-1.37
-0.37
-0.22
0.28
0.82

> <PUBCHEM_SHAPE_SELFOVERLAP>
751.729

> <PUBCHEM_SHAPE_VOLUME>
196.3

> <PUBCHEM_COORDINATE_TYPE>
2
5
10

$$$$
