10037410
  -OEChem-03292013303D

 30 31  0     1  0  0  0  0  0999 V2000
   -1.5315    0.5821   -0.9935 O   0  0  0  0  0  0  0  0  0  0  0  0
   -1.8503   -2.3662    1.0303 O   0  0  0  0  0  0  0  0  0  0  0  0
   -3.9454   -1.2017   -0.2748 O   0  0  0  0  0  0  0  0  0  0  0  0
    1.1569   -1.7434   -0.6240 O   0  0  0  0  0  0  0  0  0  0  0  0
   -2.1739    3.2105   -0.2646 O   0  0  0  0  0  0  0  0  0  0  0  0
    4.9623   -0.0919    0.1448 O   0  0  0  0  0  0  0  0  0  0  0  0
    3.8530    1.8636    0.5970 N   0  0  0  0  0  0  0  0  0  0  0  0
   -1.7682   -0.9795    0.7694 C   0  0  2  0  0  0  0  0  0  0  0  0
   -3.1225   -0.3445    0.5163 C   0  0  1  0  0  0  0  0  0  0  0  0
   -1.0334   -0.6895   -0.5307 C   0  0  2  0  0  0  0  0  0  0  0  0
   -2.7581    0.8946   -0.2946 C   0  0  1  0  0  0  0  0  0  0  0  0
    0.4656   -0.6035   -0.3742 C   0  0  0  0  0  0  0  0  0  0  0  0
   -2.5145    2.1206    0.5741 C   0  0  0  0  0  0  0  0  0  0  0  0
    1.3114    0.4166   -0.0215 C   0  0  0  0  0  0  0  0  0  0  0  0
    2.6159   -0.1313   -0.0556 C   0  0  0  0  0  0  0  0  0  0  0  0
    2.4683   -1.4473   -0.4275 C   0  0  0  0  0  0  0  0  0  0  0  0
    3.8646    0.5107    0.2294 C   0  0  0  0  0  0  0  0  0  0  0  0
   -1.2832   -0.4877    1.6217 H   0  0  0  0  0  0  0  0  0  0  0  0
   -3.6748   -0.1224    1.4343 H   0  0  0  0  0  0  0  0  0  0  0  0
   -1.2692   -1.4378   -1.2980 H   0  0  0  0  0  0  0  0  0  0  0  0
   -3.5079    1.1221   -1.0608 H   0  0  0  0  0  0  0  0  0  0  0  0
   -1.6807    1.9616    1.2653 H   0  0  0  0  0  0  0  0  0  0  0  0
   -3.4120    2.3819    1.1433 H   0  0  0  0  0  0  0  0  0  0  0  0
   -0.9420   -2.7054    1.1032 H   0  0  0  0  0  0  0  0  0  0  0  0
   -4.0583   -2.0304    0.2215 H   0  0  0  0  0  0  0  0  0  0  0  0
    1.0150    1.4255    0.2285 H   0  0  0  0  0  0  0  0  0  0  0  0
    3.1569   -2.2642   -0.5895 H   0  0  0  0  0  0  0  0  0  0  0  0
   -2.0250    3.9798    0.3111 H   0  0  0  0  0  0  0  0  0  0  0  0
    2.9997    2.4064    0.6761 H   0  0  0  0  0  0  0  0  0  0  0  0
    4.7203    2.3497    0.7995 H   0  0  0  0  0  0  0  0  0  0  0  0
  1 10  1  0  0  0  0
  1 11  1  0  0  0  0
  2  8  1  0  0  0  0
  2 24  1  0  0  0  0
  3  9  1  0  0  0  0
  3 25  1  0  0  0  0
  4 12  1  0  0  0  0
  4 16  1  0  0  0  0
  5 13  1  0  0  0  0
  5 28  1  0  0  0  0
  6 17  2  0  0  0  0
  7 17  1  0  0  0  0
  7 29  1  0  0  0  0
  7 30  1  0  0  0  0
  8  9  1  0  0  0  0
  8 10  1  0  0  0  0
  8 18  1  0  0  0  0
  9 11  1  0  0  0  0
  9 19  1  0  0  0  0
 10 12  1  0  0  0  0
 10 20  1  0  0  0  0
 11 13  1  0  0  0  0
 11 21  1  0  0  0  0
 12 14  2  0  0  0  0
 13 22  1  0  0  0  0
 13 23  1  0  0  0  0
 14 15  1  0  0  0  0
 14 26  1  0  0  0  0
 15 16  2  0  0  0  0
 15 17  1  0  0  0  0
 16 27  1  0  0  0  0
M  END
> <PUBCHEM_COMPOUND_CID>
10037410

> <PUBCHEM_CONFORMER_RMSD>
0.6

> <PUBCHEM_CONFORMER_DIVERSEORDER>
1
27
5
15
13
6
21
23
18
26
22
19
9
14
20
16
24
3
25
28
2
12
7
11
10
17
4
8

> <PUBCHEM_MMFF94_PARTIAL_CHARGES>
24
1 -0.56
10 0.46
11 0.28
12 -0.04
13 0.28
14 -0.15
15 -0.09
16 -0.01
17 0.72
2 -0.68
24 0.4
25 0.4
26 0.15
27 0.15
28 0.4
29 0.37
3 -0.68
30 0.37
4 -0.28
5 -0.68
6 -0.57
7 -0.8
8 0.28
9 0.28

> <PUBCHEM_EFFECTIVE_ROTOR_COUNT>
4

> <PUBCHEM_PHARMACOPHORE_FEATURES>
12
1 1 acceptor
1 2 acceptor
1 2 donor
1 3 acceptor
1 3 donor
1 4 acceptor
1 5 acceptor
1 5 donor
1 6 acceptor
1 7 donor
5 1 8 9 10 11 rings
5 4 12 14 15 16 rings

> <PUBCHEM_HEAVY_ATOM_COUNT>
17

> <PUBCHEM_ATOM_DEF_STEREO_COUNT>
4

> <PUBCHEM_ATOM_UDEF_STEREO_COUNT>
0

> <PUBCHEM_BOND_DEF_STEREO_COUNT>
0

> <PUBCHEM_BOND_UDEF_STEREO_COUNT>
0

> <PUBCHEM_ISOTOPIC_ATOM_COUNT>
0

> <PUBCHEM_COMPONENT_COUNT>
1

> <PUBCHEM_CACTVS_TAUTO_COUNT>
2

> <PUBCHEM_CONFORMER_ID>
009928A200000001

> <PUBCHEM_MMFF94_ENERGY>
32.1661

> <PUBCHEM_FEATURE_SELFOVERLAP>
60.916

> <PUBCHEM_SHAPE_FINGERPRINT>
10366900 7 18338800116911748450
10608611 8 18340487768375870868
11615756 256 18341057345680568968
12173636 292 18336549292240236357
12251169 10 18114184163438471078
13081056 2 18273215326604876224
14026960 21 18195529418385862024
15048467 5 17275112713348119739
15219456 202 18340772542040634150
15279308 16 18341897355088473366
16945 1 18262818340173179239
17802600 8 18271803549047658736
18186145 218 17417817283581488036
19049666 15 18266748986625709354
200 152 18271234006730882039
20510252 161 18410858733404990065
20528008 55 18334010626986484159
20645477 56 18336552607876010125
20645477 70 17203338750123329414
21524375 3 18059855112378162374
21652331 79 18341329010914928872
22182937 141 18128543669449783729
22485316 2 8574714598540901444
22854114 59 18271809055227302666
2306618 200 18131919260282561033
23402539 116 18410004473116100039
23419403 2 17034418888635723623
23493267 7 18408882902430472202
23557571 272 18410301327906246719
23559900 14 18198339546910758242
27216 239 18413106186237115401
351380 180 18411695508750363416
5104073 3 18410857616254746162
81228 2 18114477703321129571
90316 7 17240473693930143084
9709674 26 18412832360739992950

> <PUBCHEM_SHAPE_MULTIPOLES>
309.66
7.63
2.38
0.85
6
1.26
0.04
1.62
0.89
-1.59
0.22
-0.26
-0.11
0.69

> <PUBCHEM_SHAPE_SELFOVERLAP>
656.486

> <PUBCHEM_SHAPE_VOLUME>
175.4

> <PUBCHEM_COORDINATE_TYPE>
2
5
10

$$$$
