100337
  -OEChem-03292013323D

 66 70  0     1  0  0  0  0  0999 V2000
    2.3327    0.9896   -2.2449 O   0  0  0  0  0  0  0  0  0  0  0  0
   -1.1035    1.0284    1.1740 O   0  0  0  0  0  0  0  0  0  0  0  0
    3.9947   -0.1581   -1.0264 O   0  0  0  0  0  0  0  0  0  0  0  0
   -2.4891   -0.8196   -0.1231 O   0  0  0  0  0  0  0  0  0  0  0  0
    4.0129    1.9114    0.9109 O   0  0  0  0  0  0  0  0  0  0  0  0
    3.5567   -2.1624    0.5241 O   0  0  0  0  0  0  0  0  0  0  0  0
   -1.0770    2.2303    3.0677 O   0  0  0  0  0  0  0  0  0  0  0  0
    2.5659   -4.5415    1.1882 O   0  0  0  0  0  0  0  0  0  0  0  0
   -3.3387    0.4467   -1.8550 O   0  0  0  0  0  0  0  0  0  0  0  0
    0.6511    1.1953   -0.5718 C   0  0  2  0  0  0  0  0  0  0  0  0
    1.7160    0.1819   -0.0965 C   0  0  1  0  0  0  0  0  0  0  0  0
    1.3264   -1.3631   -0.2277 C   0  0  2  0  0  0  0  0  0  0  0  0
    0.9280    2.6183    0.0205 C   0  0  2  0  0  0  0  0  0  0  0  0
    2.8983    0.7340   -0.9393 C   0  0  2  0  0  0  0  0  0  0  0  0
   -0.7851    0.8297   -0.2351 C   0  0  1  0  0  0  0  0  0  0  0  0
   -0.1805   -1.5941    0.2176 C   0  0  1  0  0  0  0  0  0  0  0  0
    0.9239    1.2394   -2.0831 C   0  0  0  0  0  0  0  0  0  0  0  0
    2.3244    3.1734   -0.3899 C   0  0  2  0  0  0  0  0  0  0  0  0
   -1.1340   -0.6363   -0.5418 C   0  0  1  0  0  0  0  0  0  0  0  0
    3.4118    2.0805   -0.3673 C   0  0  1  0  0  0  0  0  0  0  0  0
    2.1693   -2.1910    0.8043 C   0  0  1  0  0  0  0  0  0  0  0  0
    0.6872    2.6403    1.5272 C   0  0  0  0  0  0  0  0  0  0  0  0
    1.5690   -1.9291   -1.6577 C   0  0  0  0  0  0  0  0  0  0  0  0
   -0.5343   -3.0902    0.2162 C   0  0  0  0  0  0  0  0  0  0  0  0
    2.7466    4.4297    0.3764 C   0  0  0  0  0  0  0  0  0  0  0  0
   -0.5820    1.9781    1.9708 C   0  0  0  0  0  0  0  0  0  0  0  0
    1.7734   -3.6574    0.8657 C   0  0  0  0  0  0  0  0  0  0  0  0
    0.3764   -4.0243    0.5413 C   0  0  0  0  0  0  0  0  0  0  0  0
   -1.9307   -3.5469   -0.1032 C   0  0  0  0  0  0  0  0  0  0  0  0
   -3.4045   -0.0113   -0.7267 C   0  0  0  0  0  0  0  0  0  0  0  0
   -4.4932    0.2294    0.2501 C   0  0  0  0  0  0  0  0  0  0  0  0
   -5.7753    0.4928   -0.0609 C   0  0  0  0  0  0  0  0  0  0  0  0
   -6.7801    0.7176    1.0400 C   0  0  0  0  0  0  0  0  0  0  0  0
   -6.3565    0.5785   -1.4445 C   0  0  0  0  0  0  0  0  0  0  0  0
    1.9320    0.3275    0.9677 H   0  0  0  0  0  0  0  0  0  0  0  0
    0.1855    3.3045   -0.4167 H   0  0  0  0  0  0  0  0  0  0  0  0
   -1.4467    1.5160   -0.7738 H   0  0  0  0  0  0  0  0  0  0  0  0
   -0.2647   -1.3177    1.2809 H   0  0  0  0  0  0  0  0  0  0  0  0
    0.3780    0.4880   -2.6552 H   0  0  0  0  0  0  0  0  0  0  0  0
    0.6775    2.2048   -2.5380 H   0  0  0  0  0  0  0  0  0  0  0  0
    2.2285    3.4939   -1.4373 H   0  0  0  0  0  0  0  0  0  0  0  0
   -1.0854   -0.8460   -1.6155 H   0  0  0  0  0  0  0  0  0  0  0  0
    4.2219    2.4395   -1.0173 H   0  0  0  0  0  0  0  0  0  0  0  0
    2.0342   -1.7874    1.8153 H   0  0  0  0  0  0  0  0  0  0  0  0
    0.6245    3.6826    1.8623 H   0  0  0  0  0  0  0  0  0  0  0  0
    1.5094    2.1671    2.0731 H   0  0  0  0  0  0  0  0  0  0  0  0
    1.4306   -3.0131   -1.7119 H   0  0  0  0  0  0  0  0  0  0  0  0
    0.8794   -1.5121   -2.3919 H   0  0  0  0  0  0  0  0  0  0  0  0
    2.5802   -1.7508   -2.0262 H   0  0  0  0  0  0  0  0  0  0  0  0
    2.9263    4.2303    1.4373 H   0  0  0  0  0  0  0  0  0  0  0  0
    3.6721    4.8386   -0.0434 H   0  0  0  0  0  0  0  0  0  0  0  0
    1.9770    5.2050    0.2997 H   0  0  0  0  0  0  0  0  0  0  0  0
    4.7825    0.3420   -1.2969 H   0  0  0  0  0  0  0  0  0  0  0  0
    0.1336   -5.0815    0.5665 H   0  0  0  0  0  0  0  0  0  0  0  0
    4.6632    1.1925    0.8368 H   0  0  0  0  0  0  0  0  0  0  0  0
    3.7075   -2.5727   -0.3435 H   0  0  0  0  0  0  0  0  0  0  0  0
   -2.6392   -3.1727    0.6418 H   0  0  0  0  0  0  0  0  0  0  0  0
   -2.0194   -4.6395   -0.1018 H   0  0  0  0  0  0  0  0  0  0  0  0
   -2.2303   -3.2111   -1.1008 H   0  0  0  0  0  0  0  0  0  0  0  0
   -4.2005    0.1596    1.2955 H   0  0  0  0  0  0  0  0  0  0  0  0
   -7.2387    1.7066    0.9365 H   0  0  0  0  0  0  0  0  0  0  0  0
   -6.3281    0.6651    2.0362 H   0  0  0  0  0  0  0  0  0  0  0  0
   -7.5701   -0.0393    0.9939 H   0  0  0  0  0  0  0  0  0  0  0  0
   -5.6933    0.1932   -2.2213 H   0  0  0  0  0  0  0  0  0  0  0  0
   -6.6020    1.6175   -1.6860 H   0  0  0  0  0  0  0  0  0  0  0  0
   -7.2765   -0.0137   -1.5035 H   0  0  0  0  0  0  0  0  0  0  0  0
  1 14  1  0  0  0  0
  1 17  1  0  0  0  0
  2 15  1  0  0  0  0
  2 26  1  0  0  0  0
  3 14  1  0  0  0  0
  3 53  1  0  0  0  0
  4 19  1  0  0  0  0
  4 30  1  0  0  0  0
  5 20  1  0  0  0  0
  5 55  1  0  0  0  0
  6 21  1  0  0  0  0
  6 56  1  0  0  0  0
  7 26  2  0  0  0  0
  8 27  2  0  0  0  0
  9 30  2  0  0  0  0
 10 11  1  0  0  0  0
 10 13  1  0  0  0  0
 10 15  1  0  0  0  0
 10 17  1  0  0  0  0
 11 12  1  0  0  0  0
 11 14  1  0  0  0  0
 11 35  1  0  0  0  0
 12 16  1  0  0  0  0
 12 21  1  0  0  0  0
 12 23  1  0  0  0  0
 13 18  1  0  0  0  0
 13 22  1  0  0  0  0
 13 36  1  0  0  0  0
 14 20  1  0  0  0  0
 15 19  1  0  0  0  0
 15 37  1  0  0  0  0
 16 19  1  0  0  0  0
 16 24  1  0  0  0  0
 16 38  1  0  0  0  0
 17 39  1  0  0  0  0
 17 40  1  0  0  0  0
 18 20  1  0  0  0  0
 18 25  1  0  0  0  0
 18 41  1  0  0  0  0
 19 42  1  0  0  0  0
 20 43  1  0  0  0  0
 21 27  1  0  0  0  0
 21 44  1  0  0  0  0
 22 26  1  0  0  0  0
 22 45  1  0  0  0  0
 22 46  1  0  0  0  0
 23 47  1  0  0  0  0
 23 48  1  0  0  0  0
 23 49  1  0  0  0  0
 24 28  2  0  0  0  0
 24 29  1  0  0  0  0
 25 50  1  0  0  0  0
 25 51  1  0  0  0  0
 25 52  1  0  0  0  0
 27 28  1  0  0  0  0
 28 54  1  0  0  0  0
 29 57  1  0  0  0  0
 29 58  1  0  0  0  0
 29 59  1  0  0  0  0
 30 31  1  0  0  0  0
 31 32  2  0  0  0  0
 31 60  1  0  0  0  0
 32 33  1  0  0  0  0
 32 34  1  0  0  0  0
 33 61  1  0  0  0  0
 33 62  1  0  0  0  0
 33 63  1  0  0  0  0
 34 64  1  0  0  0  0
 34 65  1  0  0  0  0
 34 66  1  0  0  0  0
M  END
> <PUBCHEM_COMPOUND_CID>
100337

> <PUBCHEM_CONFORMER_RMSD>
0.8

> <PUBCHEM_CONFORMER_DIVERSEORDER>
1
4
3
2

> <PUBCHEM_MMFF94_PARTIAL_CHARGES>
32
1 -0.56
14 0.56
15 0.28
16 0.14
17 0.28
19 0.28
2 -0.43
20 0.28
21 0.34
22 0.06
24 -0.28
26 0.66
27 0.49
28 -0.14
29 0.14
3 -0.68
30 0.71
31 -0.14
32 -0.28
33 0.14
34 0.14
4 -0.43
5 -0.68
53 0.4
54 0.15
55 0.4
56 0.4
6 -0.68
60 0.15
7 -0.57
8 -0.57
9 -0.57

> <PUBCHEM_EFFECTIVE_ROTOR_COUNT>
4.6

> <PUBCHEM_PHARMACOPHORE_FEATURES>
15
1 1 acceptor
1 3 acceptor
1 3 donor
1 5 acceptor
1 5 donor
1 6 acceptor
1 6 donor
1 7 acceptor
1 8 acceptor
1 9 acceptor
3 32 33 34 hydrophobe
6 10 11 12 15 16 19 rings
6 12 16 21 24 27 28 rings
6 2 10 13 15 22 26 rings
8 1 10 11 13 14 17 18 20 rings

> <PUBCHEM_HEAVY_ATOM_COUNT>
34

> <PUBCHEM_ATOM_DEF_STEREO_COUNT>
10

> <PUBCHEM_ATOM_UDEF_STEREO_COUNT>
1

> <PUBCHEM_BOND_DEF_STEREO_COUNT>
0

> <PUBCHEM_BOND_UDEF_STEREO_COUNT>
0

> <PUBCHEM_ISOTOPIC_ATOM_COUNT>
0

> <PUBCHEM_COMPONENT_COUNT>
1

> <PUBCHEM_CACTVS_TAUTO_COUNT>
13

> <PUBCHEM_CONFORMER_ID>
000187F100000001

> <PUBCHEM_MMFF94_ENERGY>
139.7606

> <PUBCHEM_FEATURE_SELFOVERLAP>
76.362

> <PUBCHEM_SHAPE_FINGERPRINT>
10165383 225 18188218692389466061
10305334 12 16837922842015850840
10411042 1 17904195928031182515
10675989 125 18343307002284923177
10863032 1 17831288772730129292
10906281 52 17773332329097628272
1100329 8 18409727378832217730
11370993 70 18119519079618688340
11578080 2 13575035443914601583
12156800 1 16235285685503498808
12293681 160 17915754256244566624
12422481 6 17823672279126246184
12730499 353 18334863844410665487
12788726 201 17632027368446435273
13009979 54 17839742564963445339
13140716 1 18265329693286706172
133893 2 17753359502567182919
13965767 371 17896583162959786420
14028597 1 18130509647615882977
14068700 675 18127682738902050778
14114211 68 18043559211413441983
14790565 3 18119814870111533015
14955137 171 18265899064470254547
15927050 60 18339079427077839990
16945 1 18335410322747872892
17980427 26 18127387129282850005
19319366 153 18341608257146140663
20511986 3 17775558750287015425
21120745 212 17618793457426258646
21421861 104 18271250404752500601
21927370 108 17832712274815368771
23559900 14 18199475531690930068
3178227 256 18334586736656182760
376196 1 17628912632040410176
392239 28 17770463552984118946
4058900 60 18265348359104642784
4340502 62 18338241556768149605
469060 322 17542223463146377658
484989 97 18264783214839541211
513532 50 17132103676333910233
5265222 85 17900556875793179364
57527573 199 17629460141654923168
653340 110 17832426766948340451
70251023 43 17912663318795245087

> <PUBCHEM_SHAPE_MULTIPOLES>
646.88
8.96
5.31
1.78
19.04
3.72
0.22
-4.31
-1.19
-5.41
2.22
0.17
-0.93
-0.7

> <PUBCHEM_SHAPE_SELFOVERLAP>
1407.656

> <PUBCHEM_SHAPE_VOLUME>
340.7

> <PUBCHEM_COORDINATE_TYPE>
2
5
10

$$$$
