10046803
  -OEChem-03292013303D

 57 62  0     1  0  0  0  0  0999 V2000
   -1.1823    2.1649    0.3775 O   0  0  0  0  0  0  0  0  0  0  0  0
    0.1330    1.3395    2.1219 O   0  0  0  0  0  0  0  0  0  0  0  0
    0.0634    2.8603   -1.4965 O   0  0  0  0  0  0  0  0  0  0  0  0
   -0.7112    0.2732   -2.6737 O   0  0  0  0  0  0  0  0  0  0  0  0
    2.2792   -2.0461    0.2066 O   0  0  0  0  0  0  0  0  0  0  0  0
    2.3921    0.9709   -2.0441 O   0  0  0  0  0  0  0  0  0  0  0  0
    0.6218   -3.5072   -0.4680 O   0  0  0  0  0  0  0  0  0  0  0  0
   -1.0899   -0.2785    0.6941 C   0  0  2  0  0  0  0  0  0  0  0  0
    0.8259    0.9453   -0.1751 C   0  0  1  0  0  0  0  0  0  0  0  0
    0.3801   -0.5072    0.1674 C   0  0  1  0  0  0  0  0  0  0  0  0
   -1.9552   -0.2443   -0.6304 C   0  0  2  0  0  0  0  0  0  0  0  0
   -0.3878    1.7351   -0.7583 C   0  0  1  0  0  0  0  0  0  0  0  0
    1.1856    1.6027    1.1837 C   0  0  2  0  0  0  0  0  0  0  0  0
   -1.0908    1.1408    1.3881 C   0  0  2  0  0  0  0  0  0  0  0  0
   -1.3774    0.8706   -1.5637 C   0  0  1  0  0  0  0  0  0  0  0  0
    1.3861   -1.3027    1.0512 C   0  0  2  0  0  0  0  0  0  0  0  0
    2.5078    0.9420    1.5593 C   0  0  1  0  0  0  0  0  0  0  0  0
   -3.5069   -0.2322   -0.4232 C   0  0  0  0  0  0  0  0  0  0  0  0
   -1.5874   -1.3813    1.6348 C   0  0  0  0  0  0  0  0  0  0  0  0
    2.1777    0.9849   -0.8447 C   0  0  0  0  0  0  0  0  0  0  0  0
    2.2236   -0.4848    2.0464 C   0  0  0  0  0  0  0  0  0  0  0  0
    3.2264    0.9895    0.2295 C   0  0  0  0  0  0  0  0  0  0  0  0
   -3.8855   -1.3590    0.5729 C   0  0  0  0  0  0  0  0  0  0  0  0
   -3.0944   -1.3235    1.8790 C   0  0  0  0  0  0  0  0  0  0  0  0
   -4.3444   -0.3746   -1.7084 C   0  0  0  0  0  0  0  0  0  0  0  0
   -3.9177    1.1158    0.2207 C   0  0  0  0  0  0  0  0  0  0  0  0
    4.5340    1.0796   -0.0130 C   0  0  0  0  0  0  0  0  0  0  0  0
    1.6782   -2.9170   -0.6496 C   0  0  0  0  0  0  0  0  0  0  0  0
    2.5160   -3.0567   -1.8843 C   0  0  0  0  0  0  0  0  0  0  0  0
    0.3158   -1.0323   -0.7889 H   0  0  0  0  0  0  0  0  0  0  0  0
   -1.7783   -1.2057   -1.1406 H   0  0  0  0  0  0  0  0  0  0  0  0
    1.3145    2.6911    1.0986 H   0  0  0  0  0  0  0  0  0  0  0  0
   -1.8886    1.2744    2.1167 H   0  0  0  0  0  0  0  0  0  0  0  0
   -2.1712    1.4957   -1.9825 H   0  0  0  0  0  0  0  0  0  0  0  0
    0.8667   -2.0634    1.6426 H   0  0  0  0  0  0  0  0  0  0  0  0
    3.0280    1.5097    2.3377 H   0  0  0  0  0  0  0  0  0  0  0  0
   -1.0725   -1.3246    2.6011 H   0  0  0  0  0  0  0  0  0  0  0  0
   -1.3560   -2.3636    1.2042 H   0  0  0  0  0  0  0  0  0  0  0  0
    3.1722   -0.9966    2.2521 H   0  0  0  0  0  0  0  0  0  0  0  0
    1.6850   -0.4280    3.0008 H   0  0  0  0  0  0  0  0  0  0  0  0
   -3.7222   -2.3321    0.0903 H   0  0  0  0  0  0  0  0  0  0  0  0
   -4.9565   -1.3105    0.8083 H   0  0  0  0  0  0  0  0  0  0  0  0
   -3.3817   -2.1934    2.4829 H   0  0  0  0  0  0  0  0  0  0  0  0
   -3.3579   -0.4509    2.4833 H   0  0  0  0  0  0  0  0  0  0  0  0
    0.8494    3.2262   -1.0590 H   0  0  0  0  0  0  0  0  0  0  0  0
   -4.1801    0.4621   -2.3947 H   0  0  0  0  0  0  0  0  0  0  0  0
   -4.0780   -1.2956   -2.2384 H   0  0  0  0  0  0  0  0  0  0  0  0
   -5.4167   -0.4183   -1.4872 H   0  0  0  0  0  0  0  0  0  0  0  0
   -3.6326    1.2543    1.2575 H   0  0  0  0  0  0  0  0  0  0  0  0
   -3.5892    1.9803   -0.3624 H   0  0  0  0  0  0  0  0  0  0  0  0
   -5.0148    1.1837    0.2406 H   0  0  0  0  0  0  0  0  0  0  0  0
   -0.3050    0.9909   -3.1891 H   0  0  0  0  0  0  0  0  0  0  0  0
    5.2470    1.1031    0.8040 H   0  0  0  0  0  0  0  0  0  0  0  0
    4.9237    1.1299   -1.0237 H   0  0  0  0  0  0  0  0  0  0  0  0
    3.5073   -3.4336   -1.6199 H   0  0  0  0  0  0  0  0  0  0  0  0
    2.5929   -2.0913   -2.3907 H   0  0  0  0  0  0  0  0  0  0  0  0
    2.0426   -3.7704   -2.5645 H   0  0  0  0  0  0  0  0  0  0  0  0
  1 12  1  0  0  0  0
  1 14  1  0  0  0  0
  2 13  1  0  0  0  0
  2 14  1  0  0  0  0
  3 12  1  0  0  0  0
  3 45  1  0  0  0  0
  4 15  1  0  0  0  0
  4 52  1  0  0  0  0
  5 16  1  0  0  0  0
  5 28  1  0  0  0  0
  6 20  2  0  0  0  0
  7 28  2  0  0  0  0
  8 10  1  0  0  0  0
  8 11  1  0  0  0  0
  8 14  1  0  0  0  0
  8 19  1  0  0  0  0
  9 10  1  0  0  0  0
  9 12  1  0  0  0  0
  9 13  1  0  0  0  0
  9 20  1  0  0  0  0
 10 16  1  0  0  0  0
 10 30  1  0  0  0  0
 11 15  1  0  0  0  0
 11 18  1  0  0  0  0
 11 31  1  0  0  0  0
 12 15  1  0  0  0  0
 13 17  1  0  0  0  0
 13 32  1  0  0  0  0
 14 33  1  0  0  0  0
 15 34  1  0  0  0  0
 16 21  1  0  0  0  0
 16 35  1  0  0  0  0
 17 21  1  0  0  0  0
 17 22  1  0  0  0  0
 17 36  1  0  0  0  0
 18 23  1  0  0  0  0
 18 25  1  0  0  0  0
 18 26  1  0  0  0  0
 19 24  1  0  0  0  0
 19 37  1  0  0  0  0
 19 38  1  0  0  0  0
 20 22  1  0  0  0  0
 21 39  1  0  0  0  0
 21 40  1  0  0  0  0
 22 27  2  0  0  0  0
 23 24  1  0  0  0  0
 23 41  1  0  0  0  0
 23 42  1  0  0  0  0
 24 43  1  0  0  0  0
 24 44  1  0  0  0  0
 25 46  1  0  0  0  0
 25 47  1  0  0  0  0
 25 48  1  0  0  0  0
 26 49  1  0  0  0  0
 26 50  1  0  0  0  0
 26 51  1  0  0  0  0
 27 53  1  0  0  0  0
 27 54  1  0  0  0  0
 28 29  1  0  0  0  0
 29 55  1  0  0  0  0
 29 56  1  0  0  0  0
 29 57  1  0  0  0  0
M  END
> <PUBCHEM_COMPOUND_CID>
10046803

> <PUBCHEM_CONFORMER_RMSD>
0.8

> <PUBCHEM_CONFORMER_DIVERSEORDER>
1
2

> <PUBCHEM_MMFF94_PARTIAL_CHARGES>
23
1 -0.56
12 0.56
13 0.28
14 0.56
15 0.28
16 0.28
17 0.14
2 -0.56
20 0.49
22 -0.12
27 -0.3
28 0.66
29 0.06
3 -0.68
4 -0.68
45 0.4
5 -0.43
52 0.4
53 0.15
54 0.15
6 -0.57
7 -0.57
9 0.06

> <PUBCHEM_EFFECTIVE_ROTOR_COUNT>
3.8

> <PUBCHEM_PHARMACOPHORE_FEATURES>
12
1 1 acceptor
1 2 acceptor
1 3 acceptor
1 3 donor
1 4 acceptor
1 4 donor
1 6 acceptor
1 7 acceptor
10 1 2 8 9 10 11 12 13 14 15 rings
3 18 25 26 hydrophobe
6 8 11 18 19 23 24 rings
8 9 10 13 16 17 20 21 22 rings

> <PUBCHEM_HEAVY_ATOM_COUNT>
29

> <PUBCHEM_ATOM_DEF_STEREO_COUNT>
9

> <PUBCHEM_ATOM_UDEF_STEREO_COUNT>
1

> <PUBCHEM_BOND_DEF_STEREO_COUNT>
0

> <PUBCHEM_BOND_UDEF_STEREO_COUNT>
0

> <PUBCHEM_ISOTOPIC_ATOM_COUNT>
0

> <PUBCHEM_COMPONENT_COUNT>
1

> <PUBCHEM_CACTVS_TAUTO_COUNT>
1

> <PUBCHEM_CONFORMER_ID>
00994D5300000001

> <PUBCHEM_MMFF94_ENERGY>
149.2213

> <PUBCHEM_FEATURE_SELFOVERLAP>
61.048

> <PUBCHEM_SHAPE_FINGERPRINT>
10863032 1 18270125604077743369
10906281 52 18186239524151817189
10948715 1 16226326039942126928
11578080 2 18125447414804732028
11640471 11 13984674628318425030
12788726 201 18188194408824338965
13140716 1 17612889500881009595
13224815 77 18334010614259682123
13583140 156 16987690482110366745
14223421 5 18340769230330406216
14787075 74 17559113404673060952
15664445 248 18335994128794108300
16945 1 18271530891564914937
17357779 13 18267586810196648451
20600515 1 17167867490686635231
20691752 17 17168144495050790227
20905425 154 17894621561153553194
21285901 2 18189878869390699943
22182313 1 18187097147711531347
23419403 2 17183842157824705432
23559900 14 18337392638706159364
238 59 18046045310910851183
2748010 2 18260557714164888171
296302 2 17676480678980276897
35225 105 16980420751456212119
474 4 12396300386979208551
70251023 43 18057322782491537007

> <PUBCHEM_SHAPE_MULTIPOLES>
555.72
6.21
2.91
2.17
2.54
2.14
-0.27
0.35
-0.4
-1.68
-0.86
0.11
0.03
0.88

> <PUBCHEM_SHAPE_SELFOVERLAP>
1249.394

> <PUBCHEM_SHAPE_VOLUME>
285.9

> <PUBCHEM_COORDINATE_TYPE>
2
5
10

$$$$
