100446
  -OEChem-03292013323D

 21 21  0     0  0  0  0  0  0999 V2000
    0.5410    2.9594   -0.0002 Cl  0  0  0  0  0  0  0  0  0  0  0  0
    4.6922   -1.7143    0.0003 O   0  5  0  0  0  0  0  0  0  0  0  0
    5.0997    0.4427   -0.0006 O   0  0  0  0  0  0  0  0  0  0  0  0
   -1.2327    0.4862    0.0001 N   0  0  0  0  0  0  0  0  0  0  0  0
    4.2985   -0.5230    0.0000 N   0  3  0  0  0  0  0  0  0  0  0  0
   -2.0878   -0.5510    0.0009 N   0  0  0  0  0  0  0  0  0  0  0  0
   -4.8129   -2.4472   -0.0015 N   0  0  0  0  0  0  0  0  0  0  0  0
   -4.3016    2.1126   -0.0002 N   0  0  0  0  0  0  0  0  0  0  0  0
    0.1617    0.2570    0.0000 C   0  0  0  0  0  0  0  0  0  0  0  0
    2.9032   -0.2594   -0.0001 C   0  0  0  0  0  0  0  0  0  0  0  0
    1.0706    1.3150   -0.0001 C   0  0  0  0  0  0  0  0  0  0  0  0
    0.6235   -1.0593    0.0002 C   0  0  0  0  0  0  0  0  0  0  0  0
    2.4413    1.0568   -0.0001 C   0  0  0  0  0  0  0  0  0  0  0  0
    1.9942   -1.3174    0.0000 C   0  0  0  0  0  0  0  0  0  0  0  0
   -3.3552   -0.3027    0.0011 C   0  0  0  0  0  0  0  0  0  0  0  0
   -4.1597   -1.4882    0.0004 C   0  0  0  0  0  0  0  0  0  0  0  0
   -3.8761    1.0329   -0.0001 C   0  0  0  0  0  0  0  0  0  0  0  0
   -0.0511   -1.9112    0.0003 H   0  0  0  0  0  0  0  0  0  0  0  0
    3.1343    1.8956   -0.0002 H   0  0  0  0  0  0  0  0  0  0  0  0
    2.3181   -2.3551    0.0001 H   0  0  0  0  0  0  0  0  0  0  0  0
   -1.5455    1.4496    0.0000 H   0  0  0  0  0  0  0  0  0  0  0  0
  1 11  1  0  0  0  0
  2  5  1  0  0  0  0
  3  5  2  0  0  0  0
  4  6  1  0  0  0  0
  4  9  1  0  0  0  0
  4 21  1  0  0  0  0
  5 10  1  0  0  0  0
  6 15  2  0  0  0  0
  7 16  3  0  0  0  0
  8 17  3  0  0  0  0
  9 11  2  0  0  0  0
  9 12  1  0  0  0  0
 10 13  2  0  0  0  0
 10 14  1  0  0  0  0
 11 13  1  0  0  0  0
 12 14  2  0  0  0  0
 12 18  1  0  0  0  0
 13 19  1  0  0  0  0
 14 20  1  0  0  0  0
 15 16  1  0  0  0  0
 15 17  1  0  0  0  0
M  CHG  2   2  -1   5   1
M  END
> <PUBCHEM_COMPOUND_CID>
100446

> <PUBCHEM_CONFORMER_RMSD>
0.6

> <PUBCHEM_CONFORMER_DIVERSEORDER>
1
5
6
2
3
4

> <PUBCHEM_MMFF94_PARTIAL_CHARGES>
21
1 -0.18
10 0.13
11 0.18
12 -0.15
13 -0.15
14 -0.15
15 0.66
16 0.45
17 0.45
18 0.15
19 0.15
2 -0.52
20 0.15
21 0.4
3 -0.52
4 -0.46
5 0.91
6 -0.49
7 -0.56
8 -0.56
9 0.1

> <PUBCHEM_EFFECTIVE_ROTOR_COUNT>
3

> <PUBCHEM_PHARMACOPHORE_FEATURES>
8
1 2 acceptor
1 2 anion
1 3 acceptor
1 4 donor
1 6 acceptor
1 7 acceptor
1 8 acceptor
6 9 10 11 12 13 14 rings

> <PUBCHEM_HEAVY_ATOM_COUNT>
17

> <PUBCHEM_ATOM_DEF_STEREO_COUNT>
0

> <PUBCHEM_ATOM_UDEF_STEREO_COUNT>
0

> <PUBCHEM_BOND_DEF_STEREO_COUNT>
0

> <PUBCHEM_BOND_UDEF_STEREO_COUNT>
0

> <PUBCHEM_ISOTOPIC_ATOM_COUNT>
0

> <PUBCHEM_COMPONENT_COUNT>
1

> <PUBCHEM_CACTVS_TAUTO_COUNT>
1

> <PUBCHEM_CONFORMER_ID>
0001885E00000001

> <PUBCHEM_MMFF94_ENERGY>
50.659

> <PUBCHEM_FEATURE_SELFOVERLAP>
40.68

> <PUBCHEM_SHAPE_FINGERPRINT>
11806522 49 18409730694272169798
12032990 46 18411139130186679566
12403259 226 18338793541649328833
12916754 54 18339363093215046747
13167823 11 18409727378462829035
13675066 3 18060132154578994482
13862211 1 18408600371003069850
14252887 29 17989215841111132582
15196674 1 18410575084889938720
15442244 35 18411138060660883429
1986462 14 18407760344045082871
200 152 18201717375406133651
20281475 54 18187920655744509299
21267235 1 18411145765732135103
21421861 104 17608650513951414442
221490 88 18191592067046342763
23402539 116 18411413986629388630
23402655 69 18411418380053832884
23559900 14 18197777709274732366
312423 11 18263093265683336149
3286 77 18263361541829855693
34934 24 18337668594971700033
3545911 37 18412263909497525969
4214541 1 18410855447802474565
5104073 3 18413106160451325715
77779 3 18410575088968595735
9709674 26 18263646345691407979

> <PUBCHEM_SHAPE_MULTIPOLES>
315.08
10.26
2.51
0.58
1.59
1
0
-4.02
0
1.45
0
0.01
0.02
0

> <PUBCHEM_SHAPE_SELFOVERLAP>
650.892

> <PUBCHEM_SHAPE_VOLUME>
179.1

> <PUBCHEM_COORDINATE_TYPE>
2
5
10

$$$$
