100423
  -OEChem-03292013323D

 28 31  0     0  0  0  0  0  0999 V2000
   -3.6621    3.0054   -1.5138 O   0  0  0  0  0  0  0  0  0  0  0  0
    4.1694    2.8403    1.4542 O   0  0  0  0  0  0  0  0  0  0  0  0
   -2.3522    1.0974   -1.0005 N   0  0  0  0  0  0  0  0  0  0  0  0
    2.5302    1.2154    0.9133 N   0  0  0  0  0  0  0  0  0  0  0  0
   -4.4206    1.2732   -0.0837 N   0  0  0  0  0  0  0  0  0  0  0  0
    4.6445    0.9233    0.1422 N   0  0  0  0  0  0  0  0  0  0  0  0
   -4.3735   -0.8368    1.1792 N   0  0  0  0  0  0  0  0  0  0  0  0
    4.2446   -1.1913   -1.0479 N   0  0  0  0  0  0  0  0  0  0  0  0
   -0.5453   -1.2794   -0.4477 N   0  0  0  0  0  0  0  0  0  0  0  0
    0.3118   -0.7691    0.3134 N   0  0  0  0  0  0  0  0  0  0  0  0
   -2.2902   -2.0744    0.9009 N   0  0  0  0  0  0  0  0  0  0  0  0
    1.9378   -1.9657   -0.8781 N   0  0  0  0  0  0  0  0  0  0  0  0
   -2.5902   -0.0161   -0.2040 C   0  0  0  0  0  0  0  0  0  0  0  0
    2.5842    0.0398    0.1745 C   0  0  0  0  0  0  0  0  0  0  0  0
   -3.8455    0.0770    0.3606 C   0  0  0  0  0  0  0  0  0  0  0  0
    3.8650   -0.1512   -0.3011 C   0  0  0  0  0  0  0  0  0  0  0  0
   -1.8244   -1.1072    0.0811 C   0  0  0  0  0  0  0  0  0  0  0  0
    1.5990   -0.8830   -0.1173 C   0  0  0  0  0  0  0  0  0  0  0  0
   -3.4997    1.9364   -0.9435 C   0  0  0  0  0  0  0  0  0  0  0  0
    3.8270    1.8003    0.9105 C   0  0  0  0  0  0  0  0  0  0  0  0
   -3.5414   -1.8803    1.4029 C   0  0  0  0  0  0  0  0  0  0  0  0
    3.2316   -2.0539   -1.2952 C   0  0  0  0  0  0  0  0  0  0  0  0
   -1.5037    1.2699   -1.5252 H   0  0  0  0  0  0  0  0  0  0  0  0
    1.7039    1.5816    1.3696 H   0  0  0  0  0  0  0  0  0  0  0  0
   -5.3437    1.5977    0.1757 H   0  0  0  0  0  0  0  0  0  0  0  0
    5.6292    1.0409   -0.0610 H   0  0  0  0  0  0  0  0  0  0  0  0
   -3.9138   -2.6572    2.0608 H   0  0  0  0  0  0  0  0  0  0  0  0
    3.4770   -2.9209   -1.8975 H   0  0  0  0  0  0  0  0  0  0  0  0
  1 19  2  0  0  0  0
  2 20  2  0  0  0  0
  3 13  1  0  0  0  0
  3 19  1  0  0  0  0
  3 23  1  0  0  0  0
  4 14  1  0  0  0  0
  4 20  1  0  0  0  0
  4 24  1  0  0  0  0
  5 15  1  0  0  0  0
  5 19  1  0  0  0  0
  5 25  1  0  0  0  0
  6 16  1  0  0  0  0
  6 20  1  0  0  0  0
  6 26  1  0  0  0  0
  7 15  2  0  0  0  0
  7 21  1  0  0  0  0
  8 16  2  0  0  0  0
  8 22  1  0  0  0  0
  9 10  2  3  0  0  0
  9 17  1  0  0  0  0
 10 18  1  0  0  0  0
 11 17  1  0  0  0  0
 11 21  2  0  0  0  0
 12 18  1  0  0  0  0
 12 22  2  0  0  0  0
 13 15  1  0  0  0  0
 13 17  2  0  0  0  0
 14 16  1  0  0  0  0
 14 18  2  0  0  0  0
 21 27  1  0  0  0  0
 22 28  1  0  0  0  0
M  END
> <PUBCHEM_COMPOUND_CID>
100423

> <PUBCHEM_CONFORMER_RMSD>
0.6

> <PUBCHEM_CONFORMER_DIVERSEORDER>
1
7
2
3
4
6
5
10
8
9

> <PUBCHEM_MMFF94_PARTIAL_CHARGES>
28
1 -0.57
10 -0.18
11 -0.62
12 -0.62
13 0.12
14 0.12
15 0.43
16 0.43
17 0.49
18 0.49
19 0.69
2 -0.57
20 0.69
21 0.47
22 0.47
23 0.37
24 0.37
25 0.37
26 0.37
27 0.15
28 0.15
3 -0.55
4 -0.55
5 -0.55
6 -0.55
7 -0.62
8 -0.62
9 -0.18

> <PUBCHEM_EFFECTIVE_ROTOR_COUNT>
2

> <PUBCHEM_PHARMACOPHORE_FEATURES>
12
1 1 acceptor
1 2 acceptor
1 3 donor
1 4 donor
1 5 donor
1 6 donor
3 7 11 21 cation
3 8 12 22 cation
5 3 5 13 15 19 rings
5 4 6 14 16 20 rings
6 7 11 13 15 17 21 rings
6 8 12 14 16 18 22 rings

> <PUBCHEM_HEAVY_ATOM_COUNT>
22

> <PUBCHEM_ATOM_DEF_STEREO_COUNT>
0

> <PUBCHEM_ATOM_UDEF_STEREO_COUNT>
0

> <PUBCHEM_BOND_DEF_STEREO_COUNT>
0

> <PUBCHEM_BOND_UDEF_STEREO_COUNT>
1

> <PUBCHEM_ISOTOPIC_ATOM_COUNT>
0

> <PUBCHEM_COMPONENT_COUNT>
1

> <PUBCHEM_CACTVS_TAUTO_COUNT>
93

> <PUBCHEM_CONFORMER_ID>
0001884700000001

> <PUBCHEM_MMFF94_ENERGY>
77.7631

> <PUBCHEM_FEATURE_SELFOVERLAP>
61.246

> <PUBCHEM_SHAPE_FINGERPRINT>
10319926 262 18187353329857665514
10498660 4 18115865209528119125
10608611 8 18411136930831199102
10646746 165 18260267430188868294
11370993 144 18271542904973440427
11405975 8 18336829697511906770
11497681 19 17487337285918254111
11595378 159 17095238107605137453
12173636 292 18113898213602009119
12403259 415 18411144627396580844
12596602 18 16009038344532096864
12769317 202 17917141810407560000
12788726 201 15650183106755495554
13134695 92 17203605944249078954
13583140 156 18340491075343076679
13675066 3 18409735083665442862
14178342 30 17676486159379944507
14251757 17 18411700954542450984
15806764 133 18269573674999587878
15961568 22 17897450716421092284
19433438 15 16128381428412912563
19433438 28 18334863826376514051
20645477 56 18411422829787871843
20645477 70 17775291530190384862
21033648 29 18413101762473658584
21049683 118 17605538956849966889
21065199 12 18335142011455865698
21065201 7 17968101906058434898
21709351 56 18060415833406996806
22122407 14 17130732568391712331
22943178 12 18410579474125391446
23503958 25 18335145292784252564
23557571 272 18260275165203305325
23559900 14 18187653448881628558
3187 122 17895470448956028789
341906 21 17748823007822228605
4371632 12 16841882183398547393
495365 180 17988628680395369594
5104073 3 18408888420988954147
5281201 14 18342747294983421430
6049 1 18338529576689794591
633830 44 16773256044632944686
7399639 24 18268151044260914874
7471813 234 16343419497721457066
7808743 9 17894921685026216612

> <PUBCHEM_SHAPE_MULTIPOLES>
391.2
10.9
2.79
1.28
1.23
1.28
0.02
3.73
0.8
-0.09
-0.15
-0.14
0.2
3.86

> <PUBCHEM_SHAPE_SELFOVERLAP>
883.27

> <PUBCHEM_SHAPE_VOLUME>
198.3

> <PUBCHEM_COORDINATE_TYPE>
2
5
10

$$$$
