100417
  -OEChem-03292013323D

 36 38  0     1  0  0  0  0  0999 V2000
    2.5039   -0.0711   -1.0316 O   0  0  0  0  0  0  0  0  0  0  0  0
    1.9556    2.5364    1.3632 O   0  0  0  0  0  0  0  0  0  0  0  0
    4.1137   -2.3522   -0.7546 O   0  0  0  0  0  0  0  0  0  0  0  0
   -3.2038   -2.5855    0.3704 O   0  0  0  0  0  0  0  0  0  0  0  0
    0.3096    0.3039   -0.2203 N   0  0  0  0  0  0  0  0  0  0  0  0
   -0.9866    2.3248   -0.4483 N   0  0  0  0  0  0  0  0  0  0  0  0
   -3.3844    1.9444   -0.2648 N   0  0  0  0  0  0  0  0  0  0  0  0
   -4.3222   -0.2159    0.1028 N   0  0  0  0  0  0  0  0  0  0  0  0
   -1.1525   -3.5776    0.4280 N   0  0  0  0  0  0  0  0  0  0  0  0
    1.6441    0.8776   -0.3757 C   0  0  1  0  0  0  0  0  0  0  0  0
    2.3192    1.2380    0.9381 C   0  0  1  0  0  0  0  0  0  0  0  0
    3.7795    1.1587    0.5545 C   0  0  0  0  0  0  0  0  0  0  0  0
    3.8110    0.0001   -0.4303 C   0  0  1  0  0  0  0  0  0  0  0  0
    4.1159   -1.3347    0.2344 C   0  0  0  0  0  0  0  0  0  0  0  0
   -0.8720    0.9987   -0.2595 C   0  0  0  0  0  0  0  0  0  0  0  0
    0.0464   -1.0272   -0.0106 C   0  0  0  0  0  0  0  0  0  0  0  0
   -1.9100    0.0944   -0.0714 C   0  0  0  0  0  0  0  0  0  0  0  0
   -1.3198   -1.1858    0.0853 C   0  0  0  0  0  0  0  0  0  0  0  0
   -3.2026    0.6164   -0.0793 C   0  0  0  0  0  0  0  0  0  0  0  0
   -1.9647   -2.4492    0.3054 C   0  0  0  0  0  0  0  0  0  0  0  0
   -2.2802    2.7058   -0.4356 C   0  0  0  0  0  0  0  0  0  0  0  0
    1.5472    1.7467   -1.0380 H   0  0  0  0  0  0  0  0  0  0  0  0
    2.0925    0.5204    1.7352 H   0  0  0  0  0  0  0  0  0  0  0  0
    4.0844    2.0871    0.0545 H   0  0  0  0  0  0  0  0  0  0  0  0
    4.4444    1.0310    1.4144 H   0  0  0  0  0  0  0  0  0  0  0  0
    4.5339    0.1822   -1.2331 H   0  0  0  0  0  0  0  0  0  0  0  0
    3.3633   -1.5990    0.9841 H   0  0  0  0  0  0  0  0  0  0  0  0
    5.0995   -1.3224    0.7131 H   0  0  0  0  0  0  0  0  0  0  0  0
    0.8593   -1.7371    0.0577 H   0  0  0  0  0  0  0  0  0  0  0  0
    0.9970    2.5344    1.5259 H   0  0  0  0  0  0  0  0  0  0  0  0
    3.2368   -2.3492   -1.1750 H   0  0  0  0  0  0  0  0  0  0  0  0
   -2.4599    3.7654   -0.5816 H   0  0  0  0  0  0  0  0  0  0  0  0
   -4.2367   -1.2077    0.2488 H   0  0  0  0  0  0  0  0  0  0  0  0
   -5.2411    0.2067    0.0900 H   0  0  0  0  0  0  0  0  0  0  0  0
   -0.1401   -3.5561    0.3794 H   0  0  0  0  0  0  0  0  0  0  0  0
   -1.5696   -4.4908    0.5765 H   0  0  0  0  0  0  0  0  0  0  0  0
  1 10  1  0  0  0  0
  1 13  1  0  0  0  0
  2 11  1  0  0  0  0
  2 30  1  0  0  0  0
  3 14  1  0  0  0  0
  3 31  1  0  0  0  0
  4 20  2  0  0  0  0
  5 10  1  0  0  0  0
  5 15  1  0  0  0  0
  5 16  1  0  0  0  0
  6 15  2  0  0  0  0
  6 21  1  0  0  0  0
  7 19  1  0  0  0  0
  7 21  2  0  0  0  0
  8 19  1  0  0  0  0
  8 33  1  0  0  0  0
  8 34  1  0  0  0  0
  9 20  1  0  0  0  0
  9 35  1  0  0  0  0
  9 36  1  0  0  0  0
 10 11  1  0  0  0  0
 10 22  1  0  0  0  0
 11 12  1  0  0  0  0
 11 23  1  0  0  0  0
 12 13  1  0  0  0  0
 12 24  1  0  0  0  0
 12 25  1  0  0  0  0
 13 14  1  0  0  0  0
 13 26  1  0  0  0  0
 14 27  1  0  0  0  0
 14 28  1  0  0  0  0
 15 17  1  0  0  0  0
 16 18  2  0  0  0  0
 16 29  1  0  0  0  0
 17 18  1  0  0  0  0
 17 19  2  0  0  0  0
 18 20  1  0  0  0  0
 21 32  1  0  0  0  0
M  END
> <PUBCHEM_COMPOUND_CID>
100417

> <PUBCHEM_CONFORMER_RMSD>
0.6

> <PUBCHEM_CONFORMER_DIVERSEORDER>
1
32
29
42
24
5
21
45
16
23
43
33
38
2
18
26
40
19
8
41
28
11
7
13
3
27
47
36
34
17
14
35
6
22
12
4
30
37
20
15
10
46
31
44
25
39
9

> <PUBCHEM_MMFF94_PARTIAL_CHARGES>
27
1 -0.56
10 0.54
11 0.28
13 0.28
14 0.28
15 0.11
16 -0.3
18 -0.09
19 0.41
2 -0.68
20 0.72
21 0.47
29 0.15
3 -0.68
30 0.4
31 0.4
32 0.15
33 0.4
34 0.4
35 0.37
36 0.37
4 -0.57
5 0.05
6 -0.57
7 -0.62
8 -0.9
9 -0.8

> <PUBCHEM_EFFECTIVE_ROTOR_COUNT>
4

> <PUBCHEM_PHARMACOPHORE_FEATURES>
14
1 1 acceptor
1 2 acceptor
1 2 donor
1 3 acceptor
1 3 donor
1 4 acceptor
1 8 cation
1 8 donor
1 9 donor
3 5 6 15 cation
3 6 7 21 cation
5 1 10 11 12 13 rings
5 5 15 16 17 18 rings
6 6 7 15 17 19 21 rings

> <PUBCHEM_HEAVY_ATOM_COUNT>
21

> <PUBCHEM_ATOM_DEF_STEREO_COUNT>
3

> <PUBCHEM_ATOM_UDEF_STEREO_COUNT>
0

> <PUBCHEM_BOND_DEF_STEREO_COUNT>
0

> <PUBCHEM_BOND_UDEF_STEREO_COUNT>
0

> <PUBCHEM_ISOTOPIC_ATOM_COUNT>
0

> <PUBCHEM_COMPONENT_COUNT>
1

> <PUBCHEM_CACTVS_TAUTO_COUNT>
8

> <PUBCHEM_CONFORMER_ID>
0001884100000001

> <PUBCHEM_MMFF94_ENERGY>
49.5471

> <PUBCHEM_FEATURE_SELFOVERLAP>
71.329

> <PUBCHEM_SHAPE_FINGERPRINT>
10319926 262 18267562742170217216
10366900 7 18129091393801740260
10608611 8 18341889731743361304
10616163 171 18337396058006925606
10693767 8 18128793383765963151
10967382 1 18337108969196456215
1100329 8 16323722566911090400
11322862 65 18335417945956302631
12403259 226 18413102844863575589
12500047 106 18409162208279970852
12553582 1 17759533561021206151
12633257 1 18201170879034489466
13140716 1 18120660394701161465
14115302 16 18335992956710608668
14178342 30 18262223530458064698
14223421 5 18196931282720710760
14866123 147 16831792652553823698
15042514 8 18334304192844785411
15422964 175 17976821205039016502
16752209 62 18187633687900226909
16945 1 18335419101650664661
17804303 29 18410859819810247676
19049666 15 18342453751269967152
19591789 44 18264770965317986739
20510252 161 18341331119759812601
20645477 70 17489592251528238540
21478907 32 18265614467263270839
21524375 3 18268989787360192861
23184049 29 18337104665839549306
2334 1 17832146395973104797
23402539 116 18412537730826483511
23557571 272 18268719487899156604
23559900 14 18411697708127404060
2748010 2 18195808694154434613
3084891 72 18053096225275754680
350125 39 18192152586296226637
43471831 8 18189050902638309963
5104073 3 18412262805163463064
54173680 148 18335987583474392919
59755656 215 18263081016463053519
69090 78 18343578551459343295
7364860 26 17689149011816878469
81228 2 18116431629783038145
8809292 202 18412265021382235820
9709674 26 18413670210301723398

> <PUBCHEM_SHAPE_MULTIPOLES>
383.79
7.58
3.4
0.84
3.69
1.52
-0.08
1
0.11
-1.75
-0.38
0.51
-0.2
1.27

> <PUBCHEM_SHAPE_SELFOVERLAP>
837.624

> <PUBCHEM_SHAPE_VOLUME>
206.8

> <PUBCHEM_COORDINATE_TYPE>
2
5
10

$$$$
