10043921
  -OEChem-03292013303D

 40 42  0     1  0  0  0  0  0999 V2000
   -1.7269   -2.3318    0.6586 O   0  0  0  0  0  0  0  0  0  0  0  0
    0.8538   -1.3983   -2.6575 O   0  0  0  0  0  0  0  0  0  0  0  0
   -0.5905   -2.6088    2.6381 O   0  0  0  0  0  0  0  0  0  0  0  0
    1.2720   -2.9423   -1.0335 O   0  0  0  0  0  0  0  0  0  0  0  0
   -3.3564    2.4884    1.5339 O   0  0  0  0  0  0  0  0  0  0  0  0
   -5.3652    2.6289   -0.3814 O   0  0  0  0  0  0  0  0  0  0  0  0
    5.5525    0.0213   -0.7233 O   0  0  0  0  0  0  0  0  0  0  0  0
    5.1079    2.7636   -0.7490 O   0  0  0  0  0  0  0  0  0  0  0  0
   -0.1440   -1.0399   -0.5602 C   0  0  1  0  0  0  0  0  0  0  0  0
   -1.5790   -1.5519   -0.5496 C   0  0  2  0  0  0  0  0  0  0  0  0
    0.2672   -1.2340    0.8509 C   0  0  0  0  0  0  0  0  0  0  0  0
   -2.5791   -0.4445   -0.5027 C   0  0  0  0  0  0  0  0  0  0  0  0
   -0.6912   -2.1297    1.5232 C   0  0  0  0  0  0  0  0  0  0  0  0
    0.7335   -1.9114   -1.4087 C   0  0  0  0  0  0  0  0  0  0  0  0
    1.2986   -0.6830    1.4956 C   0  0  0  0  0  0  0  0  0  0  0  0
   -2.5035    0.5187    0.5022 C   0  0  0  0  0  0  0  0  0  0  0  0
   -3.5868   -0.3755   -1.4635 C   0  0  0  0  0  0  0  0  0  0  0  0
    2.3023    0.2207    0.9051 C   0  0  0  0  0  0  0  0  0  0  0  0
   -3.4380    1.5534    0.5466 C   0  0  0  0  0  0  0  0  0  0  0  0
   -4.5213    0.6591   -1.4191 C   0  0  0  0  0  0  0  0  0  0  0  0
   -4.4469    1.6235   -0.4141 C   0  0  0  0  0  0  0  0  0  0  0  0
    3.4612   -0.3132    0.3661 C   0  0  0  0  0  0  0  0  0  0  0  0
    2.0660    1.5855    0.9005 C   0  0  0  0  0  0  0  0  0  0  0  0
    4.4106    0.5418   -0.1935 C   0  0  0  0  0  0  0  0  0  0  0  0
    3.0155    2.4405    0.3410 C   0  0  0  0  0  0  0  0  0  0  0  0
    4.1877    1.9187   -0.2059 C   0  0  0  0  0  0  0  0  0  0  0  0
   -0.0442    0.0002   -0.8914 H   0  0  0  0  0  0  0  0  0  0  0  0
   -1.7770   -2.2223   -1.3946 H   0  0  0  0  0  0  0  0  0  0  0  0
    1.4674   -0.9034    2.5474 H   0  0  0  0  0  0  0  0  0  0  0  0
   -1.7342    0.4849    1.2661 H   0  0  0  0  0  0  0  0  0  0  0  0
   -3.6576   -1.1193   -2.2526 H   0  0  0  0  0  0  0  0  0  0  0  0
   -5.3048    0.7082   -2.1704 H   0  0  0  0  0  0  0  0  0  0  0  0
    3.6408   -1.3855    0.3741 H   0  0  0  0  0  0  0  0  0  0  0  0
    1.1561    2.0034    1.3229 H   0  0  0  0  0  0  0  0  0  0  0  0
    1.4267   -1.9538   -3.2279 H   0  0  0  0  0  0  0  0  0  0  0  0
    2.8290    3.5111    0.3376 H   0  0  0  0  0  0  0  0  0  0  0  0
   -2.5970    2.2825    2.1056 H   0  0  0  0  0  0  0  0  0  0  0  0
   -5.1632    3.2032    0.3776 H   0  0  0  0  0  0  0  0  0  0  0  0
    6.0935    0.7546   -1.0645 H   0  0  0  0  0  0  0  0  0  0  0  0
    4.7850    3.6776   -0.6685 H   0  0  0  0  0  0  0  0  0  0  0  0
  1 10  1  0  0  0  0
  1 13  1  0  0  0  0
  2 14  1  0  0  0  0
  2 35  1  0  0  0  0
  3 13  2  0  0  0  0
  4 14  2  0  0  0  0
  5 19  1  0  0  0  0
  5 37  1  0  0  0  0
  6 21  1  0  0  0  0
  6 38  1  0  0  0  0
  7 24  1  0  0  0  0
  7 39  1  0  0  0  0
  8 26  1  0  0  0  0
  8 40  1  0  0  0  0
  9 10  1  0  0  0  0
  9 11  1  0  0  0  0
  9 14  1  0  0  0  0
  9 27  1  0  0  0  0
 10 12  1  0  0  0  0
 10 28  1  0  0  0  0
 11 13  1  0  0  0  0
 11 15  2  0  0  0  0
 12 16  2  0  0  0  0
 12 17  1  0  0  0  0
 15 18  1  0  0  0  0
 15 29  1  0  0  0  0
 16 19  1  0  0  0  0
 16 30  1  0  0  0  0
 17 20  2  0  0  0  0
 17 31  1  0  0  0  0
 18 22  2  0  0  0  0
 18 23  1  0  0  0  0
 19 21  2  0  0  0  0
 20 21  1  0  0  0  0
 20 32  1  0  0  0  0
 22 24  1  0  0  0  0
 22 33  1  0  0  0  0
 23 25  2  0  0  0  0
 23 34  1  0  0  0  0
 24 26  2  0  0  0  0
 25 26  1  0  0  0  0
 25 36  1  0  0  0  0
M  END
> <PUBCHEM_COMPOUND_CID>
10043921

> <PUBCHEM_CONFORMER_RMSD>
0.8

> <PUBCHEM_CONFORMER_DIVERSEORDER>
1
30
40
44
16
34
22
24
48
20
5
43
42
31
33
46
27
7
36
21
25
32
12
39
49
9
18
6
28
41
35
26
37
2
8
45
13
23
29
4
17
38
11
14
3
47
10
19
15

> <PUBCHEM_MMFF94_PARTIAL_CHARGES>
38
1 -0.43
10 0.42
11 -0.12
12 -0.14
13 0.71
14 0.66
15 -0.18
16 -0.15
17 -0.15
18 0.03
19 0.08
2 -0.65
20 -0.15
21 0.08
22 -0.15
23 -0.15
24 0.08
25 -0.15
26 0.08
29 0.15
3 -0.57
30 0.15
31 0.15
32 0.15
33 0.15
34 0.15
35 0.5
36 0.15
37 0.45
38 0.45
39 0.45
4 -0.57
40 0.45
5 -0.53
6 -0.53
7 -0.53
8 -0.53
9 0.2

> <PUBCHEM_EFFECTIVE_ROTOR_COUNT>
3.6

> <PUBCHEM_PHARMACOPHORE_FEATURES>
11
1 2 acceptor
1 3 acceptor
1 4 acceptor
1 5 donor
1 6 donor
1 7 donor
1 8 donor
3 2 4 14 anion
5 1 9 10 11 13 rings
6 12 16 17 19 20 21 rings
6 18 22 23 24 25 26 rings

> <PUBCHEM_HEAVY_ATOM_COUNT>
26

> <PUBCHEM_ATOM_DEF_STEREO_COUNT>
0

> <PUBCHEM_ATOM_UDEF_STEREO_COUNT>
2

> <PUBCHEM_BOND_DEF_STEREO_COUNT>
1

> <PUBCHEM_BOND_UDEF_STEREO_COUNT>
0

> <PUBCHEM_ISOTOPIC_ATOM_COUNT>
0

> <PUBCHEM_COMPONENT_COUNT>
1

> <PUBCHEM_CACTVS_TAUTO_COUNT>
51

> <PUBCHEM_CONFORMER_ID>
0099421100000001

> <PUBCHEM_MMFF94_ENERGY>
66.0543

> <PUBCHEM_FEATURE_SELFOVERLAP>
55.886

> <PUBCHEM_SHAPE_FINGERPRINT>
10165383 225 17385721370819810926
11221954 11 18412550928628020081
11578080 2 17979961255560595758
11763715 3 17253442708737606342
12363563 72 12751241466440293032
12633257 1 17968360287412414746
12788726 201 17902775698199658418
13103583 49 12324240516856495005
13464514 151 18342462482595757306
13544653 18 9367350353102798884
13590594 115 17547580275185523922
14468879 13 18270118049298821850
14713325 29 18200322150774395707
14787075 74 18263913505921955107
14848178 5 10375870775057006821
14950920 106 12757691146205175604
14955137 171 14996293479025477302
15163728 17 18341625831677484534
15183329 4 18341615880897577484
15238133 3 18261660529139323760
20626108 58 10807929379639537661
20723712 36 16660652825364975870
20775438 99 16121009434929552901
21033648 144 18262506087387096324
21756936 100 18261107543019412072
22907989 373 18055917846847915269
23419403 2 17764638353054053475
23559900 14 17414697797337383975
238 59 17632294613900574852
26353 1 15687829431328398710
2637199 183 18409724054210538896
283562 15 17751636795902498011
2838139 119 18413099567840452212
3459 83 18129385904304575838
3472631 163 18338227164464973693
4280585 95 16769032627524560742
474 4 18338511946254960065
633830 44 18334847295158174455
9981440 41 18341607165570722674
9999458 23 17896313615022899746

> <PUBCHEM_SHAPE_MULTIPOLES>
488.11
10.04
3.26
1.79
1.85
0.21
0.08
9.89
-2.97
-0.24
0.43
-0.4
-1.12
-0.13

> <PUBCHEM_SHAPE_SELFOVERLAP>
1080.342

> <PUBCHEM_SHAPE_VOLUME>
261.8

> <PUBCHEM_COORDINATE_TYPE>
2
5
10

$$$$
