100442
  -OEChem-03292013323D

 56 58  0     1  0  0  0  0  0999 V2000
    3.2468    2.8130   -0.0519 S   0  0  0  0  0  0  0  0  0  0  0  0
    3.5012    0.2708    1.7142 O   0  0  0  0  0  0  0  0  0  0  0  0
    3.6387    3.1266    1.3086 O   0  0  0  0  0  0  0  0  0  0  0  0
    3.6348    3.6804   -1.1473 O   0  0  0  0  0  0  0  0  0  0  0  0
   -5.1283    1.1527   -1.2550 O   0  0  0  0  0  0  0  0  0  0  0  0
   -4.5658   -2.7524    0.9412 O   0  0  0  0  0  0  0  0  0  0  0  0
    4.1715   -1.0571   -0.0554 N   0  0  0  0  0  0  0  0  0  0  0  0
    3.7022    1.2062   -0.4165 N   0  0  0  0  0  0  0  0  0  0  0  0
   -3.2413    1.0221    0.0619 N   0  0  0  0  0  0  0  0  0  0  0  0
   -3.9582   -1.5142    0.7711 N   0  0  0  0  0  0  0  0  0  0  0  0
    4.3130   -2.2881    0.6902 C   0  0  0  0  0  0  0  0  0  0  0  0
    2.9859   -3.0519    0.7492 C   0  0  0  0  0  0  0  0  0  0  0  0
    5.4303   -3.1600    0.1071 C   0  0  0  0  0  0  0  0  0  0  0  0
    2.6073   -3.6716   -0.5960 C   0  0  0  0  0  0  0  0  0  0  0  0
    5.0476   -3.7794   -1.2371 C   0  0  0  0  0  0  0  0  0  0  0  0
    3.7300   -4.5434   -1.1503 C   0  0  0  0  0  0  0  0  0  0  0  0
    3.7733    0.1312    0.5255 C   0  0  0  0  0  0  0  0  0  0  0  0
    1.4846    2.6846   -0.1010 C   0  0  0  0  0  0  0  0  0  0  0  0
   -2.7833    2.3715   -0.2224 C   0  0  2  0  0  0  0  0  0  0  0  0
   -1.2964    2.4797   -0.1801 C   0  0  0  0  0  0  0  0  0  0  0  0
    0.8029    2.9049   -1.2979 C   0  0  0  0  0  0  0  0  0  0  0  0
    0.7759    2.3619    1.0562 C   0  0  0  0  0  0  0  0  0  0  0  0
   -0.5876    2.8024   -1.3374 C   0  0  0  0  0  0  0  0  0  0  0  0
   -0.6146    2.2595    1.0167 C   0  0  0  0  0  0  0  0  0  0  0  0
   -3.4904    3.3652    0.7110 C   0  0  0  0  0  0  0  0  0  0  0  0
   -4.4050    0.5130   -0.4923 C   0  0  0  0  0  0  0  0  0  0  0  0
   -4.7490   -0.8552   -0.0805 C   0  0  0  0  0  0  0  0  0  0  0  0
   -5.8597   -1.6195   -0.4779 C   0  0  0  0  0  0  0  0  0  0  0  0
   -5.6971   -2.8029    0.1923 C   0  0  0  0  0  0  0  0  0  0  0  0
   -6.4693   -4.0501    0.2539 C   0  0  0  0  0  0  0  0  0  0  0  0
    4.5942   -2.0163    1.7153 H   0  0  0  0  0  0  0  0  0  0  0  0
    2.1763   -2.3929    1.0852 H   0  0  0  0  0  0  0  0  0  0  0  0
    3.0702   -3.8538    1.4939 H   0  0  0  0  0  0  0  0  0  0  0  0
    5.6584   -3.9674    0.8147 H   0  0  0  0  0  0  0  0  0  0  0  0
    6.3488   -2.5727   -0.0119 H   0  0  0  0  0  0  0  0  0  0  0  0
    1.6990   -4.2736   -0.4791 H   0  0  0  0  0  0  0  0  0  0  0  0
    2.3707   -2.8782   -1.3153 H   0  0  0  0  0  0  0  0  0  0  0  0
    4.9697   -2.9989   -2.0029 H   0  0  0  0  0  0  0  0  0  0  0  0
    5.8427   -4.4596   -1.5636 H   0  0  0  0  0  0  0  0  0  0  0  0
    3.4528   -4.9149   -2.1432 H   0  0  0  0  0  0  0  0  0  0  0  0
    3.8603   -5.4217   -0.5061 H   0  0  0  0  0  0  0  0  0  0  0  0
    4.3246   -1.0700   -1.0588 H   0  0  0  0  0  0  0  0  0  0  0  0
    3.9857    1.0117   -1.3851 H   0  0  0  0  0  0  0  0  0  0  0  0
   -3.1215    2.6145   -1.2385 H   0  0  0  0  0  0  0  0  0  0  0  0
    1.3349    3.1497   -2.2128 H   0  0  0  0  0  0  0  0  0  0  0  0
    1.2870    2.1820    1.9975 H   0  0  0  0  0  0  0  0  0  0  0  0
   -1.1028    2.9753   -2.2785 H   0  0  0  0  0  0  0  0  0  0  0  0
   -1.1480    2.0024    1.9278 H   0  0  0  0  0  0  0  0  0  0  0  0
   -4.5765    3.3261    0.5727 H   0  0  0  0  0  0  0  0  0  0  0  0
   -3.1618    4.3912    0.5120 H   0  0  0  0  0  0  0  0  0  0  0  0
   -3.2915    3.1455    1.7659 H   0  0  0  0  0  0  0  0  0  0  0  0
   -2.7125    0.4506    0.7154 H   0  0  0  0  0  0  0  0  0  0  0  0
   -6.6613   -1.3535   -1.1513 H   0  0  0  0  0  0  0  0  0  0  0  0
   -5.8630   -4.8953   -0.0861 H   0  0  0  0  0  0  0  0  0  0  0  0
   -6.7953   -4.2507    1.2791 H   0  0  0  0  0  0  0  0  0  0  0  0
   -7.3598   -3.9952   -0.3801 H   0  0  0  0  0  0  0  0  0  0  0  0
  1  3  2  0  0  0  0
  1  4  2  0  0  0  0
  1  8  1  0  0  0  0
  1 18  1  0  0  0  0
  2 17  2  0  0  0  0
  5 26  2  0  0  0  0
  6 10  1  0  0  0  0
  6 29  1  0  0  0  0
  7 11  1  0  0  0  0
  7 17  1  0  0  0  0
  7 42  1  0  0  0  0
  8 17  1  0  0  0  0
  8 43  1  0  0  0  0
  9 19  1  0  0  0  0
  9 26  1  0  0  0  0
  9 52  1  0  0  0  0
 10 27  2  0  0  0  0
 11 12  1  0  0  0  0
 11 13  1  0  0  0  0
 11 31  1  0  0  0  0
 12 14  1  0  0  0  0
 12 32  1  0  0  0  0
 12 33  1  0  0  0  0
 13 15  1  0  0  0  0
 13 34  1  0  0  0  0
 13 35  1  0  0  0  0
 14 16  1  0  0  0  0
 14 36  1  0  0  0  0
 14 37  1  0  0  0  0
 15 16  1  0  0  0  0
 15 38  1  0  0  0  0
 15 39  1  0  0  0  0
 16 40  1  0  0  0  0
 16 41  1  0  0  0  0
 18 21  2  0  0  0  0
 18 22  1  0  0  0  0
 19 20  1  0  0  0  0
 19 25  1  0  0  0  0
 19 44  1  0  0  0  0
 20 23  2  0  0  0  0
 20 24  1  0  0  0  0
 21 23  1  0  0  0  0
 21 45  1  0  0  0  0
 22 24  2  0  0  0  0
 22 46  1  0  0  0  0
 23 47  1  0  0  0  0
 24 48  1  0  0  0  0
 25 49  1  0  0  0  0
 25 50  1  0  0  0  0
 25 51  1  0  0  0  0
 26 27  1  0  0  0  0
 27 28  1  0  0  0  0
 28 29  2  0  0  0  0
 28 53  1  0  0  0  0
 29 30  1  0  0  0  0
 30 54  1  0  0  0  0
 30 55  1  0  0  0  0
 30 56  1  0  0  0  0
M  END
> <PUBCHEM_COMPOUND_CID>
100442

> <PUBCHEM_CONFORMER_RMSD>
1

> <PUBCHEM_CONFORMER_DIVERSEORDER>
1
180
231
9
155
49
164
171
177
247
235
97
243
123
238
193
145
21
197
150
77
122
242
163
222
125
67
57
174
139
137
156
237
140
71
252
206
130
102
144
205
257
211
251
232
157
35
170
74
167
62
239
241
133
68
109
141
200
198
169
161
120
217
196
115
151
219
182
226
64
234
189
179
207
195
124
93
46
229
255
26
99
254
20
148
190
213
61
58
128
194
162
168
116
253
94
228
127
220
90
138
117
136
95
134
92
175
184
165
44
76
214
100
210
96
154
87
63
147
159
225
118
204
208
146
236
59
110
188
43
84
70
132
56
53
52
240
158
203
7
47
17
72
178
201
172
185
73
107
91
121
112
108
114
248
31
69
80
202
45
23
86
186
83
33
131
82
85
218
227
245
191
192
221
199
126
106
223
22
187
60
224
105
166
50
18
135
104
30
79
173
28
65
143
142
16
246
215
111
54
152
250
183
153
216
51
113
48
89
256
19
129
176
212
119
233
13
103
75
37
24
209
78
6
101
149
160
81
29
230
2
249
25
11
10
88
39
34
5
14
27
15
12
38
36
8
55
42
181
66
244
3
41
40
4
98
32

> <PUBCHEM_MMFF94_PARTIAL_CHARGES>
32
1 1.45
10 -0.41
11 0.3
17 0.87
18 -0.01
19 0.44
2 -0.57
20 -0.14
21 -0.15
22 -0.15
23 -0.15
24 -0.15
26 0.72
27 0.2
28 -0.15
29 -0.04
3 -0.65
30 0.18
4 -0.65
42 0.37
43 0.42
45 0.15
46 0.15
47 0.15
48 0.15
5 -0.57
52 0.37
53 0.15
6 -0.02
7 -0.73
8 -0.79
9 -0.73

> <PUBCHEM_EFFECTIVE_ROTOR_COUNT>
10.2

> <PUBCHEM_PHARMACOPHORE_FEATURES>
11
1 10 acceptor
1 2 acceptor
1 3 acceptor
1 4 acceptor
1 5 acceptor
1 7 donor
1 8 donor
1 9 donor
5 6 10 27 28 29 rings
6 11 12 13 14 15 16 rings
6 18 20 21 22 23 24 rings

> <PUBCHEM_HEAVY_ATOM_COUNT>
30

> <PUBCHEM_ATOM_DEF_STEREO_COUNT>
0

> <PUBCHEM_ATOM_UDEF_STEREO_COUNT>
1

> <PUBCHEM_BOND_DEF_STEREO_COUNT>
0

> <PUBCHEM_BOND_UDEF_STEREO_COUNT>
0

> <PUBCHEM_ISOTOPIC_ATOM_COUNT>
0

> <PUBCHEM_COMPONENT_COUNT>
1

> <PUBCHEM_CACTVS_TAUTO_COUNT>
6

> <PUBCHEM_CONFORMER_ID>
0001885A00000001

> <PUBCHEM_MMFF94_ENERGY>
24.6674

> <PUBCHEM_FEATURE_SELFOVERLAP>
55.886

> <PUBCHEM_SHAPE_FINGERPRINT>
10042902 136 18265055730571884260
10838868 229 18337399254101112075
10928967 22 17756714035613885850
11070050 100 14907633327657980805
11197282 1 18339642239518272807
11285246 1 18116440249497682243
11315621 136 18407761430619028572
11374522 301 17828791742968999883
117089 54 18413394215487478807
12107183 9 17838905832383752353
12120059 20 18263937562023029506
1361 87 18266454304603432663
13692114 37 18122341557108620136
13989917 61 18193841663838120235
14681488 357 18338798914300014306
15475509 35 18128251384203542609
15803439 3 16812960689723629332
17492 89 18410573993868246161
17909252 39 18340486767638000625
18365409 1 17182788104469362076
20028762 73 18120935276417840881
20775530 9 18265332802916933682
21315759 227 18263630793419396982
23379529 103 18265614290810408832
23559900 14 18339351955679234465
32027 91 18337945680355138941
325973 47 18410296891131878291
373842 8 18411979170040157439
3886686 26 18125447410709997217
4280585 95 18117548540249509930
4394409 98 16527475342923559551
4408954 87 17697584856030925362
4435113 14 18042135421845586491
4573279 150 17901425301443401155
463206 1 18120098273475883736
50009960 94 18189873397371016050
6433294 58 18410572907315236930
7970288 3 18194965132786990174

> <PUBCHEM_SHAPE_MULTIPOLES>
571.96
15.4
7.6
1.24
12.34
3.79
-0.03
19.21
-0.3
-3.34
-1
-0.65
-0.33
1.69

> <PUBCHEM_SHAPE_SELFOVERLAP>
1185.194

> <PUBCHEM_SHAPE_VOLUME>
326.6

> <PUBCHEM_COORDINATE_TYPE>
2
5
10

$$$$
