10047585
  -OEChem-03292013303D

 65 66  0     1  0  0  0  0  0999 V2000
    1.7168    0.3294   -1.3831 O   0  0  0  0  0  0  0  0  0  0  0  0
    2.2077   -2.9623   -1.6214 O   0  0  0  0  0  0  0  0  0  0  0  0
    1.4446    3.4249    1.0836 O   0  0  0  0  0  0  0  0  0  0  0  0
   -0.4223   -3.2423   -2.1504 O   0  0  0  0  0  0  0  0  0  0  0  0
    0.7758    0.7983    0.6848 N   0  0  0  0  0  0  0  0  0  0  0  0
    0.2228    3.9488   -0.8207 N   0  0  0  0  0  0  0  0  0  0  0  0
    0.0242   -2.8158   -0.8927 N   0  0  0  0  0  0  0  0  0  0  0  0
    2.5420   -0.8662    0.5664 C   0  0  2  0  0  0  0  0  0  0  0  0
    3.9394   -0.9972   -0.0827 C   0  0  0  0  0  0  0  0  0  0  0  0
   -3.1843    0.2989    0.2728 C   0  0  0  0  0  0  0  0  0  0  0  0
    1.7891   -2.2272    0.6537 C   0  0  2  0  0  0  0  0  0  0  0  0
   -3.5447    1.3244   -0.7730 C   0  0  0  0  0  0  0  0  0  0  0  0
    4.9662    0.1032    0.2725 C   0  0  0  0  0  0  0  0  0  0  0  0
   -4.3851    0.7533   -1.9136 C   0  0  0  0  0  0  0  0  0  0  0  0
   -3.8897   -0.9134    0.3878 C   0  0  0  0  0  0  0  0  0  0  0  0
   -2.1596    0.5887    1.1864 C   0  0  0  0  0  0  0  0  0  0  0  0
   -5.5284   -0.0891   -1.3625 C   0  0  0  0  0  0  0  0  0  0  0  0
   -4.9833   -1.2843   -0.5827 C   0  0  0  0  0  0  0  0  0  0  0  0
   -1.3968    1.8898    1.1311 C   0  0  0  0  0  0  0  0  0  0  0  0
   -0.1533    1.8105    0.2379 C   0  0  1  0  0  0  0  0  0  0  0  0
    1.6431    0.1345   -0.1718 C   0  0  0  0  0  0  0  0  0  0  0  0
    2.5642   -3.3127    1.4057 C   0  0  0  0  0  0  0  0  0  0  0  0
   -3.5313   -1.8262    1.3914 C   0  0  0  0  0  0  0  0  0  0  0  0
   -1.8200   -0.3226    2.1857 C   0  0  0  0  0  0  0  0  0  0  0  0
    6.3551   -0.1975   -0.2961 C   0  0  0  0  0  0  0  0  0  0  0  0
    4.5226    1.5092   -0.1239 C   0  0  0  0  0  0  0  0  0  0  0  0
    1.3861   -2.7109   -0.7420 C   0  0  0  0  0  0  0  0  0  0  0  0
   -2.5040   -1.5304    2.2868 C   0  0  0  0  0  0  0  0  0  0  0  0
    0.5909    3.1410    0.2461 C   0  0  0  0  0  0  0  0  0  0  0  0
    0.8122    5.2435   -1.0762 C   0  0  0  0  0  0  0  0  0  0  0  0
    2.6909   -0.5092    1.5946 H   0  0  0  0  0  0  0  0  0  0  0  0
    3.8483   -1.0344   -1.1753 H   0  0  0  0  0  0  0  0  0  0  0  0
    4.3989   -1.9455    0.2122 H   0  0  0  0  0  0  0  0  0  0  0  0
    0.8719   -2.0441    1.2309 H   0  0  0  0  0  0  0  0  0  0  0  0
   -2.6510    1.7652   -1.2245 H   0  0  0  0  0  0  0  0  0  0  0  0
   -4.1092    2.1287   -0.2844 H   0  0  0  0  0  0  0  0  0  0  0  0
    5.0736    0.1005    1.3659 H   0  0  0  0  0  0  0  0  0  0  0  0
   -4.7796    1.5718   -2.5259 H   0  0  0  0  0  0  0  0  0  0  0  0
   -3.7567    0.1357   -2.5681 H   0  0  0  0  0  0  0  0  0  0  0  0
   -6.1659   -0.4434   -2.1802 H   0  0  0  0  0  0  0  0  0  0  0  0
   -6.1572    0.5283   -0.7086 H   0  0  0  0  0  0  0  0  0  0  0  0
   -5.8121   -1.7619   -0.0465 H   0  0  0  0  0  0  0  0  0  0  0  0
   -4.5761   -2.0206   -1.2870 H   0  0  0  0  0  0  0  0  0  0  0  0
   -2.0469    2.7153    0.8175 H   0  0  0  0  0  0  0  0  0  0  0  0
   -1.0977    2.1665    2.1528 H   0  0  0  0  0  0  0  0  0  0  0  0
   -0.4367    1.5610   -0.7911 H   0  0  0  0  0  0  0  0  0  0  0  0
    0.8547    0.6350    1.6842 H   0  0  0  0  0  0  0  0  0  0  0  0
    3.3788   -3.7350    0.8094 H   0  0  0  0  0  0  0  0  0  0  0  0
    2.9737   -2.9277    2.3448 H   0  0  0  0  0  0  0  0  0  0  0  0
    1.8949   -4.1463    1.6475 H   0  0  0  0  0  0  0  0  0  0  0  0
   -4.0536   -2.7757    1.4795 H   0  0  0  0  0  0  0  0  0  0  0  0
   -1.0300   -0.1049    2.8994 H   0  0  0  0  0  0  0  0  0  0  0  0
    6.3377   -0.2026   -1.3912 H   0  0  0  0  0  0  0  0  0  0  0  0
    6.7104   -1.1765    0.0421 H   0  0  0  0  0  0  0  0  0  0  0  0
    7.0836    0.5524    0.0297 H   0  0  0  0  0  0  0  0  0  0  0  0
    4.2891    1.5656   -1.1920 H   0  0  0  0  0  0  0  0  0  0  0  0
    3.6443    1.8237    0.4446 H   0  0  0  0  0  0  0  0  0  0  0  0
    5.3120    2.2396    0.0850 H   0  0  0  0  0  0  0  0  0  0  0  0
   -2.2384   -2.2425    3.0626 H   0  0  0  0  0  0  0  0  0  0  0  0
   -0.4926    3.6275   -1.4662 H   0  0  0  0  0  0  0  0  0  0  0  0
   -0.6740   -2.7315   -0.1629 H   0  0  0  0  0  0  0  0  0  0  0  0
    1.5018    5.5320   -0.2796 H   0  0  0  0  0  0  0  0  0  0  0  0
    1.3463    5.1922   -2.0280 H   0  0  0  0  0  0  0  0  0  0  0  0
    0.0054    5.9764   -1.1529 H   0  0  0  0  0  0  0  0  0  0  0  0
   -0.6206   -2.3840   -2.5619 H   0  0  0  0  0  0  0  0  0  0  0  0
  1 21  2  0  0  0  0
  2 27  2  0  0  0  0
  3 29  2  0  0  0  0
  4  7  1  0  0  0  0
  4 65  1  0  0  0  0
  5 20  1  0  0  0  0
  5 21  1  0  0  0  0
  5 47  1  0  0  0  0
  6 29  1  0  0  0  0
  6 30  1  0  0  0  0
  6 60  1  0  0  0  0
  7 27  1  0  0  0  0
  7 61  1  0  0  0  0
  8  9  1  0  0  0  0
  8 11  1  0  0  0  0
  8 21  1  0  0  0  0
  8 31  1  0  0  0  0
  9 13  1  0  0  0  0
  9 32  1  0  0  0  0
  9 33  1  0  0  0  0
 10 12  1  0  0  0  0
 10 15  2  0  0  0  0
 10 16  1  0  0  0  0
 11 22  1  0  0  0  0
 11 27  1  0  0  0  0
 11 34  1  0  0  0  0
 12 14  1  0  0  0  0
 12 35  1  0  0  0  0
 12 36  1  0  0  0  0
 13 25  1  0  0  0  0
 13 26  1  0  0  0  0
 13 37  1  0  0  0  0
 14 17  1  0  0  0  0
 14 38  1  0  0  0  0
 14 39  1  0  0  0  0
 15 18  1  0  0  0  0
 15 23  1  0  0  0  0
 16 19  1  0  0  0  0
 16 24  2  0  0  0  0
 17 18  1  0  0  0  0
 17 40  1  0  0  0  0
 17 41  1  0  0  0  0
 18 42  1  0  0  0  0
 18 43  1  0  0  0  0
 19 20  1  0  0  0  0
 19 44  1  0  0  0  0
 19 45  1  0  0  0  0
 20 29  1  0  0  0  0
 20 46  1  0  0  0  0
 22 48  1  0  0  0  0
 22 49  1  0  0  0  0
 22 50  1  0  0  0  0
 23 28  2  0  0  0  0
 23 51  1  0  0  0  0
 24 28  1  0  0  0  0
 24 52  1  0  0  0  0
 25 53  1  0  0  0  0
 25 54  1  0  0  0  0
 25 55  1  0  0  0  0
 26 56  1  0  0  0  0
 26 57  1  0  0  0  0
 26 58  1  0  0  0  0
 28 59  1  0  0  0  0
 30 62  1  0  0  0  0
 30 63  1  0  0  0  0
 30 64  1  0  0  0  0
M  END
> <PUBCHEM_COMPOUND_CID>
10047585

> <PUBCHEM_CONFORMER_RMSD>
1.2

> <PUBCHEM_CONFORMER_DIVERSEORDER>
2
175
138
17
100
38
59
123
53
99
96
50
81
101
91
194
156
202
66
132
109
127
88
167
113
153
68
122
151
25
83
61
8
64
87
134
71
84
181
179
43
141
191
183
41
133
111
22
63
98
52
187
106
69
188
9
77
120
189
168
142
82
158
172
85
16
196
104
44
24
140
86
60
29
80
130
33
178
126
74
97
173
199
145
110
94
164
56
197
137
70
65
177
57
55
150
39
147
149
40
162
174
95
163
112
102
103
154
26
10
201
128
144
114
45
193
121
184
116
198
157
155
143
190
90
19
73
195
27
14
78
176
93
92
169
166
76
124
32
67
11
161
79
4
6
182
170
34
108
51
180
13
105
28
47
18
146
36
165
200
15
49
171
125
129
62
23
12
139
31
72
21
54
159
186
115
46
148
192
37
185
3
107
119
160
136
152
35
5
42
89
30
58
135
48
75
117
118
131
20
1
7

> <PUBCHEM_MMFF94_PARTIAL_CHARGES>
30
1 -0.57
10 -0.14
11 0.06
12 0.14
15 -0.14
16 -0.14
18 0.14
19 0.14
2 -0.57
20 0.36
21 0.57
23 -0.15
24 -0.15
27 0.57
28 -0.15
29 0.57
3 -0.57
30 0.3
4 -0.44
47 0.37
5 -0.73
51 0.15
52 0.15
59 0.15
6 -0.73
60 0.37
61 0.37
65 0.4
7 -0.39
8 0.06

> <PUBCHEM_EFFECTIVE_ROTOR_COUNT>
12.8

> <PUBCHEM_PHARMACOPHORE_FEATURES>
11
1 1 acceptor
1 2 acceptor
1 22 hydrophobe
1 3 acceptor
1 5 donor
1 6 donor
1 7 donor
3 13 25 26 hydrophobe
4 8 9 11 13 hydrophobe
6 10 12 14 15 17 18 rings
6 10 15 16 23 24 28 rings

> <PUBCHEM_HEAVY_ATOM_COUNT>
30

> <PUBCHEM_ATOM_DEF_STEREO_COUNT>
3

> <PUBCHEM_ATOM_UDEF_STEREO_COUNT>
0

> <PUBCHEM_BOND_DEF_STEREO_COUNT>
0

> <PUBCHEM_BOND_UDEF_STEREO_COUNT>
0

> <PUBCHEM_ISOTOPIC_ATOM_COUNT>
0

> <PUBCHEM_COMPONENT_COUNT>
1

> <PUBCHEM_CACTVS_TAUTO_COUNT>
12

> <PUBCHEM_CONFORMER_ID>
0099506100000002

> <PUBCHEM_MMFF94_ENERGY>
65.9019

> <PUBCHEM_FEATURE_SELFOVERLAP>
55.871

> <PUBCHEM_SHAPE_FINGERPRINT>
10675989 125 17611455334123631013
10906281 52 18265064547834216553
10930396 42 18121749925426855416
1100329 8 18126563651039660202
12156800 1 16407283818218132954
12553582 1 18265920006561335561
12788726 201 17831303796124583289
13402501 40 18260544541673861647
13911987 19 18339374074998562780
14068700 675 17988916795233439905
14747281 78 18262254282772596725
14840074 17 18202285805479459275
17492 54 18341881983759619839
23558518 356 17758675551499601768
23559900 14 18189328134198291041
238 59 18338237193013012815
3380486 145 18194701279676915593
3493558 16 17022911167831572316
46194498 28 18189606310966763405
463206 1 18058157513901560079
5283173 99 17894902980201302269
57527452 28 17418367004856413863
6669772 16 17834685168480700892
9709674 26 18050855420541378626

> <PUBCHEM_SHAPE_MULTIPOLES>
578.97
10.25
4.98
1.83
1.72
4.68
0.04
-2.48
-2.42
2.76
-1.1
-1.59
-0.92
0.65

> <PUBCHEM_SHAPE_SELFOVERLAP>
1181.81

> <PUBCHEM_SHAPE_VOLUME>
333.3

> <PUBCHEM_COORDINATE_TYPE>
2
5
10

$$$$
