100473
  -OEChem-03292013323D

 43 44  0     0  0  0  0  0  0999 V2000
   -3.9730    2.5106   -0.2620 O   0  0  0  0  0  0  0  0  0  0  0  0
    5.6976   -0.2409    0.8473 O   0  0  0  0  0  0  0  0  0  0  0  0
   -0.3298    1.0223   -0.2968 O   0  0  0  0  0  0  0  0  0  0  0  0
   -1.7621   -3.2924    0.4138 O   0  0  0  0  0  0  0  0  0  0  0  0
   -1.1174   -1.1271    0.0645 N   0  0  0  0  0  0  0  0  0  0  0  0
    1.1950   -0.6929   -0.1612 N   0  0  0  0  0  0  0  0  0  0  0  0
   -0.7761   -2.5680    0.2412 N   0  0  0  0  0  0  0  0  0  0  0  0
   -2.5067   -0.7393    0.1064 C   0  0  0  0  0  0  0  0  0  0  0  0
    2.3471    0.1518   -0.3644 C   0  0  0  0  0  0  0  0  0  0  0  0
   -2.9397   -0.1291   -1.2290 C   0  0  0  0  0  0  0  0  0  0  0  0
   -2.7595    0.2238    1.2683 C   0  0  0  0  0  0  0  0  0  0  0  0
    3.4529   -0.6076   -1.1016 C   0  0  0  0  0  0  0  0  0  0  0  0
    2.8464    0.7077    0.9710 C   0  0  0  0  0  0  0  0  0  0  0  0
   -4.3960    0.3362   -1.1897 C   0  0  0  0  0  0  0  0  0  0  0  0
   -4.2160    0.6873    1.3083 C   0  0  0  0  0  0  0  0  0  0  0  0
   -4.6662    1.2873   -0.0243 C   0  0  0  0  0  0  0  0  0  0  0  0
    4.7037    0.2537   -1.2824 C   0  0  0  0  0  0  0  0  0  0  0  0
    4.0958    1.5703    0.7895 C   0  0  0  0  0  0  0  0  0  0  0  0
    5.2046    0.8281    0.0424 C   0  0  0  0  0  0  0  0  0  0  0  0
   -0.1006   -0.1816   -0.1413 C   0  0  0  0  0  0  0  0  0  0  0  0
   -3.1507   -1.6096    0.2760 H   0  0  0  0  0  0  0  0  0  0  0  0
    2.0401    0.9974   -0.9940 H   0  0  0  0  0  0  0  0  0  0  0  0
   -2.8213   -0.8710   -2.0288 H   0  0  0  0  0  0  0  0  0  0  0  0
   -2.3185    0.7245   -1.5174 H   0  0  0  0  0  0  0  0  0  0  0  0
   -2.1227    1.1125    1.2191 H   0  0  0  0  0  0  0  0  0  0  0  0
   -2.5139   -0.2699    2.2172 H   0  0  0  0  0  0  0  0  0  0  0  0
    3.0905   -0.9348   -2.0840 H   0  0  0  0  0  0  0  0  0  0  0  0
    3.7125   -1.5210   -0.5506 H   0  0  0  0  0  0  0  0  0  0  0  0
    3.0657   -0.1177    1.6610 H   0  0  0  0  0  0  0  0  0  0  0  0
    2.0611    1.3058    1.4493 H   0  0  0  0  0  0  0  0  0  0  0  0
   -4.6339    0.8265   -2.1412 H   0  0  0  0  0  0  0  0  0  0  0  0
   -5.0507   -0.5396   -1.1022 H   0  0  0  0  0  0  0  0  0  0  0  0
   -4.8597   -0.1639    1.5612 H   0  0  0  0  0  0  0  0  0  0  0  0
   -4.3251    1.4309    2.1066 H   0  0  0  0  0  0  0  0  0  0  0  0
   -5.7352    1.5224    0.0261 H   0  0  0  0  0  0  0  0  0  0  0  0
    5.4869   -0.3598   -1.7430 H   0  0  0  0  0  0  0  0  0  0  0  0
    4.4789    1.0748   -1.9739 H   0  0  0  0  0  0  0  0  0  0  0  0
    3.8292    2.4788    0.2358 H   0  0  0  0  0  0  0  0  0  0  0  0
    4.4527    1.8815    1.7782 H   0  0  0  0  0  0  0  0  0  0  0  0
    6.0437    1.5062   -0.1488 H   0  0  0  0  0  0  0  0  0  0  0  0
    1.3652   -1.6675    0.0598 H   0  0  0  0  0  0  0  0  0  0  0  0
   -4.3037    2.8782   -1.0993 H   0  0  0  0  0  0  0  0  0  0  0  0
    6.0230    0.1443    1.6787 H   0  0  0  0  0  0  0  0  0  0  0  0
  1 16  1  0  0  0  0
  1 42  1  0  0  0  0
  2 19  1  0  0  0  0
  2 43  1  0  0  0  0
  3 20  2  0  0  0  0
  4  7  2  0  0  0  0
  5  7  1  0  0  0  0
  5  8  1  0  0  0  0
  5 20  1  0  0  0  0
  6  9  1  0  0  0  0
  6 20  1  0  0  0  0
  6 41  1  0  0  0  0
  8 10  1  0  0  0  0
  8 11  1  0  0  0  0
  8 21  1  0  0  0  0
  9 12  1  0  0  0  0
  9 13  1  0  0  0  0
  9 22  1  0  0  0  0
 10 14  1  0  0  0  0
 10 23  1  0  0  0  0
 10 24  1  0  0  0  0
 11 15  1  0  0  0  0
 11 25  1  0  0  0  0
 11 26  1  0  0  0  0
 12 17  1  0  0  0  0
 12 27  1  0  0  0  0
 12 28  1  0  0  0  0
 13 18  1  0  0  0  0
 13 29  1  0  0  0  0
 13 30  1  0  0  0  0
 14 16  1  0  0  0  0
 14 31  1  0  0  0  0
 14 32  1  0  0  0  0
 15 16  1  0  0  0  0
 15 33  1  0  0  0  0
 15 34  1  0  0  0  0
 16 35  1  0  0  0  0
 17 19  1  0  0  0  0
 17 36  1  0  0  0  0
 17 37  1  0  0  0  0
 18 19  1  0  0  0  0
 18 38  1  0  0  0  0
 18 39  1  0  0  0  0
 19 40  1  0  0  0  0
M  END
> <PUBCHEM_COMPOUND_CID>
100473

> <PUBCHEM_CONFORMER_RMSD>
0.8

> <PUBCHEM_CONFORMER_DIVERSEORDER>
1
112
67
158
68
52
126
163
21
125
49
71
42
150
160
129
119
48
147
31
62
103
151
20
54
172
79
35
87
47
118
170
130
137
177
5
12
133
57
88
74
113
96
114
156
70
115
61
50
97
175
94
51
44
38
84
143
144
107
109
89
153
59
3
39
41
164
86
176
55
165
69
110
16
82
167
135
123
26
159
128
168
95
99
101
9
100
18
108
77
58
169
152
15
91
24
92
106
116
56
105
121
162
141
13
8
37
60
166
174
46
136
134
157
161
6
145
10
146
122
29
139
63
33
17
36
132
155
40
25
173
28
117
124
76
104
27
127
78
2
120
7
148
102
32
65
178
138
22
23
140
19
93
64
142
85
98
30
72
81
149
11
34
73
83
66
131
4
171
43
14
154
90
75
111
45
80
53

> <PUBCHEM_MMFF94_PARTIAL_CHARGES>
15
1 -0.68
16 0.28
19 0.28
2 -0.68
20 0.69
3 -0.57
4 -0.16
41 0.37
42 0.4
43 0.4
5 -0.18
6 -0.73
7 -0.02
8 0.3
9 0.3

> <PUBCHEM_EFFECTIVE_ROTOR_COUNT>
7.4

> <PUBCHEM_PHARMACOPHORE_FEATURES>
8
1 1 acceptor
1 1 donor
1 2 acceptor
1 2 donor
1 3 acceptor
1 6 donor
6 8 10 11 14 15 16 rings
6 9 12 13 17 18 19 rings

> <PUBCHEM_HEAVY_ATOM_COUNT>
20

> <PUBCHEM_ATOM_DEF_STEREO_COUNT>
0

> <PUBCHEM_ATOM_UDEF_STEREO_COUNT>
0

> <PUBCHEM_BOND_DEF_STEREO_COUNT>
0

> <PUBCHEM_BOND_UDEF_STEREO_COUNT>
0

> <PUBCHEM_ISOTOPIC_ATOM_COUNT>
0

> <PUBCHEM_COMPONENT_COUNT>
1

> <PUBCHEM_CACTVS_TAUTO_COUNT>
2

> <PUBCHEM_CONFORMER_ID>
0001887900000001

> <PUBCHEM_MMFF94_ENERGY>
34.6961

> <PUBCHEM_FEATURE_SELFOVERLAP>
40.597

> <PUBCHEM_SHAPE_FINGERPRINT>
10014705 185 18342738545850157165
10366900 7 17918275376756938704
11045515 52 12247677167028391619
11089746 13 18342730824052911912
11405975 8 18336543923778886736
11543360 7 16343981420634251797
11796584 16 18409453592548606310
12107183 9 14059773372893101220
12500047 106 18411982494191583958
12596602 18 16515694354731046232
12633257 1 18410003360751004536
12969540 114 18336254674626676837
13544592 145 18342188721865607398
13675066 3 17167858682046165202
14251718 22 12247672782166961928
14251758 9 17749105548457419018
15375358 24 18272937137225412758
15788980 27 16877657981068060924
15880784 105 14057013731903980345
17834072 33 16917345952562957796
1813 80 8358255990390411419
18186145 218 18201722838272023481
18222031 100 9006766562819493879
19489759 90 18131346423150984424
19784866 240 9150875184592279657
200 152 14836124351145936300
20300324 65 16774079570568628001
20645477 56 18335422378320068189
20645477 70 16916798357597401846
21033648 29 18411975849803733817
22224240 67 18336839632709876235
22646028 1 12175626170117758324
23402539 116 18272082795036563060
23402655 69 17346600777010030500
23559900 14 18341623620518549734
312423 11 10375871922034989834
4028521 119 18130787837111390625
495365 180 17632571639676613438
5104073 3 18264483052828579592
542803 24 17022904558124647196
59755656 215 18339366254459105206
59755656 520 18409163316418878823
633830 44 18130508535493334533

> <PUBCHEM_SHAPE_MULTIPOLES>
373.17
12.29
2.04
1.22
7.88
1.25
0.06
-5.26
0.34
-1.75
-0.39
-0.2
-0.1
0.59

> <PUBCHEM_SHAPE_SELFOVERLAP>
751.827

> <PUBCHEM_SHAPE_VOLUME>
214.3

> <PUBCHEM_COORDINATE_TYPE>
2
5
10

$$$$
