10048103
  -OEChem-03292013303D

 57 60  0     1  0  0  0  0  0999 V2000
    4.6106    1.2279    0.3760 O   0  0  0  0  0  0  0  0  0  0  0  0
    5.6289   -0.3690   -1.8672 O   0  0  0  0  0  0  0  0  0  0  0  0
    0.0144    2.1928    0.3503 O   0  0  0  0  0  0  0  0  0  0  0  0
    1.5039   -2.3050   -0.6793 O   0  0  0  0  0  0  0  0  0  0  0  0
   -0.9934   -1.6436   -0.6505 O   0  0  0  0  0  0  0  0  0  0  0  0
   -5.3497    0.9850   -0.2312 O   0  0  0  0  0  0  0  0  0  0  0  0
   -4.5267    3.5304    0.4422 O   0  0  0  0  0  0  0  0  0  0  0  0
    5.6876    0.2759    0.4762 C   0  0  0  0  0  0  0  0  0  0  0  0
    5.5331   -0.8791   -0.5340 C   0  0  1  0  0  0  0  0  0  0  0  0
    4.1913   -1.5887   -0.3783 C   0  0  0  0  0  0  0  0  0  0  0  0
    3.0813   -0.5936   -0.1869 C   0  0  0  0  0  0  0  0  0  0  0  0
    3.3502    0.7303    0.1782 C   0  0  0  0  0  0  0  0  0  0  0  0
    6.9699    1.0732    0.1831 C   0  0  0  0  0  0  0  0  0  0  0  0
    5.7602   -0.2316    1.9269 C   0  0  0  0  0  0  0  0  0  0  0  0
    1.7502   -1.0025   -0.3514 C   0  0  0  0  0  0  0  0  0  0  0  0
    0.7092   -0.0866   -0.1764 C   0  0  0  0  0  0  0  0  0  0  0  0
    2.3040    1.6438    0.3412 C   0  0  0  0  0  0  0  0  0  0  0  0
    0.9811    1.2354    0.1656 C   0  0  0  0  0  0  0  0  0  0  0  0
   -0.6925   -0.4974   -0.3518 C   0  0  0  0  0  0  0  0  0  0  0  0
   -1.7136    0.5415   -0.1490 C   0  0  0  0  0  0  0  0  0  0  0  0
   -1.3001    1.8290    0.1912 C   0  0  0  0  0  0  0  0  0  0  0  0
   -3.0719    0.2468   -0.2932 C   0  0  0  0  0  0  0  0  0  0  0  0
   -3.5776   -1.1144   -0.6565 C   0  0  0  0  0  0  0  0  0  0  0  0
   -4.0185    1.2520   -0.0947 C   0  0  0  0  0  0  0  0  0  0  0  0
   -2.2523    2.8311    0.3886 C   0  0  0  0  0  0  0  0  0  0  0  0
   -3.6098    2.5419    0.2456 C   0  0  0  0  0  0  0  0  0  0  0  0
   -3.8452   -1.9782    0.5491 C   0  0  0  0  0  0  0  0  0  0  0  0
   -3.7362   -3.3166    0.6516 C   0  0  0  0  0  0  0  0  0  0  0  0
   -6.0589    1.7266   -1.2202 C   0  0  0  0  0  0  0  0  0  0  0  0
   -4.0201   -4.1180    1.8903 C   0  0  0  0  0  0  0  0  0  0  0  0
   -3.3096   -4.1391   -0.5353 C   0  0  0  0  0  0  0  0  0  0  0  0
    6.3492   -1.6018   -0.4147 H   0  0  0  0  0  0  0  0  0  0  0  0
    4.2159   -2.2531    0.4933 H   0  0  0  0  0  0  0  0  0  0  0  0
    3.9971   -2.1982   -1.2691 H   0  0  0  0  0  0  0  0  0  0  0  0
    7.1006    1.8823    0.9116 H   0  0  0  0  0  0  0  0  0  0  0  0
    7.8579    0.4334    0.2154 H   0  0  0  0  0  0  0  0  0  0  0  0
    6.9232    1.5587   -0.7981 H   0  0  0  0  0  0  0  0  0  0  0  0
    6.5925   -0.9297    2.0641 H   0  0  0  0  0  0  0  0  0  0  0  0
    5.8923    0.6050    2.6232 H   0  0  0  0  0  0  0  0  0  0  0  0
    4.8371   -0.7329    2.2348 H   0  0  0  0  0  0  0  0  0  0  0  0
    2.5215    2.6744    0.6126 H   0  0  0  0  0  0  0  0  0  0  0  0
    5.5835   -1.1262   -2.4756 H   0  0  0  0  0  0  0  0  0  0  0  0
    0.5520   -2.4758   -0.7351 H   0  0  0  0  0  0  0  0  0  0  0  0
   -4.5437   -1.0112   -1.1710 H   0  0  0  0  0  0  0  0  0  0  0  0
   -2.9772   -1.5768   -1.4405 H   0  0  0  0  0  0  0  0  0  0  0  0
   -1.9303    3.8354    0.6538 H   0  0  0  0  0  0  0  0  0  0  0  0
   -4.1860   -1.4483    1.4388 H   0  0  0  0  0  0  0  0  0  0  0  0
   -4.0620    4.3542    0.6684 H   0  0  0  0  0  0  0  0  0  0  0  0
   -5.4072    2.0632   -2.0342 H   0  0  0  0  0  0  0  0  0  0  0  0
   -6.5645    2.5794   -0.7589 H   0  0  0  0  0  0  0  0  0  0  0  0
   -6.8242    1.0714   -1.6469 H   0  0  0  0  0  0  0  0  0  0  0  0
   -3.1307   -4.6805    2.1920 H   0  0  0  0  0  0  0  0  0  0  0  0
   -4.8380   -4.8232    1.7116 H   0  0  0  0  0  0  0  0  0  0  0  0
   -4.3093   -3.4752    2.7282 H   0  0  0  0  0  0  0  0  0  0  0  0
   -3.9499   -5.0242   -0.6250 H   0  0  0  0  0  0  0  0  0  0  0  0
   -2.2777   -4.4804   -0.4030 H   0  0  0  0  0  0  0  0  0  0  0  0
   -3.3810   -3.6196   -1.4930 H   0  0  0  0  0  0  0  0  0  0  0  0
  1  8  1  0  0  0  0
  1 12  1  0  0  0  0
  2  9  1  0  0  0  0
  2 42  1  0  0  0  0
  3 18  1  0  0  0  0
  3 21  1  0  0  0  0
  4 15  1  0  0  0  0
  4 43  1  0  0  0  0
  5 19  2  0  0  0  0
  6 24  1  0  0  0  0
  6 29  1  0  0  0  0
  7 26  1  0  0  0  0
  7 48  1  0  0  0  0
  8  9  1  0  0  0  0
  8 13  1  0  0  0  0
  8 14  1  0  0  0  0
  9 10  1  0  0  0  0
  9 32  1  0  0  0  0
 10 11  1  0  0  0  0
 10 33  1  0  0  0  0
 10 34  1  0  0  0  0
 11 12  2  0  0  0  0
 11 15  1  0  0  0  0
 12 17  1  0  0  0  0
 13 35  1  0  0  0  0
 13 36  1  0  0  0  0
 13 37  1  0  0  0  0
 14 38  1  0  0  0  0
 14 39  1  0  0  0  0
 14 40  1  0  0  0  0
 15 16  2  0  0  0  0
 16 18  1  0  0  0  0
 16 19  1  0  0  0  0
 17 18  2  0  0  0  0
 17 41  1  0  0  0  0
 19 20  1  0  0  0  0
 20 21  2  0  0  0  0
 20 22  1  0  0  0  0
 21 25  1  0  0  0  0
 22 23  1  0  0  0  0
 22 24  2  0  0  0  0
 23 27  1  0  0  0  0
 23 44  1  0  0  0  0
 23 45  1  0  0  0  0
 24 26  1  0  0  0  0
 25 26  2  0  0  0  0
 25 46  1  0  0  0  0
 27 28  2  0  0  0  0
 27 47  1  0  0  0  0
 28 30  1  0  0  0  0
 28 31  1  0  0  0  0
 29 49  1  0  0  0  0
 29 50  1  0  0  0  0
 29 51  1  0  0  0  0
 30 52  1  0  0  0  0
 30 53  1  0  0  0  0
 30 54  1  0  0  0  0
 31 55  1  0  0  0  0
 31 56  1  0  0  0  0
 31 57  1  0  0  0  0
M  END
> <PUBCHEM_COMPOUND_CID>
10048103

> <PUBCHEM_CONFORMER_RMSD>
0.8

> <PUBCHEM_CONFORMER_DIVERSEORDER>
1
11
13
7
4
6
16
15
17
12
8
5
2
3
10
14
9

> <PUBCHEM_MMFF94_PARTIAL_CHARGES>
35
1 -0.36
10 0.14
11 -0.14
12 0.08
15 0.08
16 0.09
17 -0.15
18 0.08
19 0.4
2 -0.68
20 0.09
21 0.08
22 -0.14
23 0.28
24 0.08
25 -0.15
26 0.08
27 -0.29
28 -0.28
29 0.28
3 -0.17
30 0.14
31 0.14
4 -0.53
41 0.15
42 0.4
43 0.45
46 0.15
47 0.15
48 0.45
5 -0.57
6 -0.36
7 -0.53
8 0.28
9 0.28

> <PUBCHEM_EFFECTIVE_ROTOR_COUNT>
3.8

> <PUBCHEM_PHARMACOPHORE_FEATURES>
14
1 1 acceptor
1 2 acceptor
1 2 donor
1 3 acceptor
1 4 donor
1 5 acceptor
1 6 acceptor
1 7 donor
3 28 30 31 hydrophobe
3 8 13 14 hydrophobe
6 1 8 9 10 11 12 rings
6 11 12 15 16 17 18 rings
6 20 21 22 24 25 26 rings
6 3 16 18 19 20 21 rings

> <PUBCHEM_HEAVY_ATOM_COUNT>
31

> <PUBCHEM_ATOM_DEF_STEREO_COUNT>
0

> <PUBCHEM_ATOM_UDEF_STEREO_COUNT>
1

> <PUBCHEM_BOND_DEF_STEREO_COUNT>
0

> <PUBCHEM_BOND_UDEF_STEREO_COUNT>
0

> <PUBCHEM_ISOTOPIC_ATOM_COUNT>
0

> <PUBCHEM_COMPONENT_COUNT>
1

> <PUBCHEM_CACTVS_TAUTO_COUNT>
57

> <PUBCHEM_CONFORMER_ID>
0099526700000001

> <PUBCHEM_MMFF94_ENERGY>
113.4937

> <PUBCHEM_FEATURE_SELFOVERLAP>
71.134

> <PUBCHEM_SHAPE_FINGERPRINT>
10319926 262 18341881962838684778
10411042 1 17979915231340177815
10675989 125 17475231302261578857
10906281 52 18129954364701252445
10940486 97 18261115209636412053
11007060 377 18342456990081899833
11135609 12 18262811773368488219
11135609 187 18265605482629303941
11578080 2 12966310214479375729
12236239 1 17894908503771753432
12422481 6 17773896348323599007
12616971 3 16732988626210085086
12788726 201 18189615119328048386
13140716 1 18269560610363623369
14461889 52 18201427096141891314
14790565 3 17836935499056556345
14844126 61 18337107973255141699
15042514 8 18338519746232022217
15131766 46 16879087410857003100
15196674 1 18343018848870625124
15927050 60 18338795603608612471
16087824 20 18412261719908068261
17844677 252 18338240469978010156
18608769 82 18270965773391526122
19958102 18 18264483979913956261
20511986 3 17749658610852507442
21033648 29 17703773830858174282
21133410 171 17331900387972943279
21236236 1 18342174474957692333
21267235 1 18343025467367917981
21792961 116 17704080582434787556
21796203 349 17686653498274052363
22122407 14 16056883545917849473
22182313 1 17988661682644653758
23559900 14 18341885320606525505
23569943 247 15050630197092962508
335352 9 18413103966298608589
3383291 50 18341045298930455803
34797466 226 17203607078047053212
350125 39 18342454850449688136
4058900 60 17906180547041226425
4073 2 18409168814192990266
44802255 64 17313376782972761623
5104073 3 18341327877169969184
563151 97 18048589327916049621
59755656 215 18340202999016819652
59755656 520 18187354408126506631
9709674 26 18271248231251083647

> <PUBCHEM_SHAPE_MULTIPOLES>
596.88
15.16
4.17
1.12
15.18
2.8
-0.19
-0.7
-0.32
-8.89
-1.07
0.39
0.59
1.57

> <PUBCHEM_SHAPE_SELFOVERLAP>
1315.397

> <PUBCHEM_SHAPE_VOLUME>
321.8

> <PUBCHEM_COORDINATE_TYPE>
2
5
10

$$$$
