100416
  -OEChem-03292013323D

 36 38  0     1  0  0  0  0  0999 V2000
   -2.4164   -0.1311    0.9228 O   0  0  0  0  0  0  0  0  0  0  0  0
   -4.1586    2.1628   -0.1880 O   0  0  0  0  0  0  0  0  0  0  0  0
   -3.9076   -2.4911    0.7739 O   0  0  0  0  0  0  0  0  0  0  0  0
    3.4512   -2.4221   -0.2267 O   0  0  0  0  0  0  0  0  0  0  0  0
   -0.2253    0.3048    0.1251 N   0  0  0  0  0  0  0  0  0  0  0  0
    0.9609    2.4013    0.2539 N   0  0  0  0  0  0  0  0  0  0  0  0
    3.3787    2.1407    0.1372 N   0  0  0  0  0  0  0  0  0  0  0  0
    4.4369    0.0163   -0.0823 N   0  0  0  0  0  0  0  0  0  0  0  0
    1.4568   -3.5250   -0.2613 N   0  0  0  0  0  0  0  0  0  0  0  0
   -1.5889    0.8129    0.2212 C   0  0  1  0  0  0  0  0  0  0  0  0
   -2.2579    1.0689   -1.1216 C   0  0  0  0  0  0  0  0  0  0  0  0
   -3.7203    0.9341   -0.7639 C   0  0  1  0  0  0  0  0  0  0  0  0
   -3.7188   -0.1574    0.3013 C   0  0  1  0  0  0  0  0  0  0  0  0
   -3.9352   -1.5468   -0.2819 C   0  0  0  0  0  0  0  0  0  0  0  0
    0.9204    1.0621    0.1434 C   0  0  0  0  0  0  0  0  0  0  0  0
    0.1159   -1.0216    0.0007 C   0  0  0  0  0  0  0  0  0  0  0  0
    2.0086    0.2055    0.0290 C   0  0  0  0  0  0  0  0  0  0  0  0
    1.4902   -1.1117   -0.0609 C   0  0  0  0  0  0  0  0  0  0  0  0
    3.2713    0.7963    0.0289 C   0  0  0  0  0  0  0  0  0  0  0  0
    2.2054   -2.3492   -0.1924 C   0  0  0  0  0  0  0  0  0  0  0  0
    2.2324    2.8502    0.2416 C   0  0  0  0  0  0  0  0  0  0  0  0
   -1.5552    1.7230    0.8316 H   0  0  0  0  0  0  0  0  0  0  0  0
   -1.9778    0.2995   -1.8508 H   0  0  0  0  0  0  0  0  0  0  0  0
   -1.9861    2.0482   -1.5276 H   0  0  0  0  0  0  0  0  0  0  0  0
   -4.3630    0.7211   -1.6220 H   0  0  0  0  0  0  0  0  0  0  0  0
   -4.4525    0.0343    1.0926 H   0  0  0  0  0  0  0  0  0  0  0  0
   -3.1411   -1.8124   -0.9870 H   0  0  0  0  0  0  0  0  0  0  0  0
   -4.9039   -1.6126   -0.7869 H   0  0  0  0  0  0  0  0  0  0  0  0
   -0.6573   -1.7768   -0.0386 H   0  0  0  0  0  0  0  0  0  0  0  0
   -3.6994    2.2970    0.6578 H   0  0  0  0  0  0  0  0  0  0  0  0
   -4.0483   -3.3681    0.3780 H   0  0  0  0  0  0  0  0  0  0  0  0
    2.3529    3.9248    0.3268 H   0  0  0  0  0  0  0  0  0  0  0  0
    5.3318    0.4880   -0.0784 H   0  0  0  0  0  0  0  0  0  0  0  0
    4.4071   -0.9856   -0.1698 H   0  0  0  0  0  0  0  0  0  0  0  0
    0.4440   -3.5554   -0.2326 H   0  0  0  0  0  0  0  0  0  0  0  0
    1.9246   -4.4217   -0.3468 H   0  0  0  0  0  0  0  0  0  0  0  0
  1 10  1  0  0  0  0
  1 13  1  0  0  0  0
  2 12  1  0  0  0  0
  2 30  1  0  0  0  0
  3 14  1  0  0  0  0
  3 31  1  0  0  0  0
  4 20  2  0  0  0  0
  5 10  1  0  0  0  0
  5 15  1  0  0  0  0
  5 16  1  0  0  0  0
  6 15  2  0  0  0  0
  6 21  1  0  0  0  0
  7 19  1  0  0  0  0
  7 21  2  0  0  0  0
  8 19  1  0  0  0  0
  8 33  1  0  0  0  0
  8 34  1  0  0  0  0
  9 20  1  0  0  0  0
  9 35  1  0  0  0  0
  9 36  1  0  0  0  0
 10 11  1  0  0  0  0
 10 22  1  0  0  0  0
 11 12  1  0  0  0  0
 11 23  1  0  0  0  0
 11 24  1  0  0  0  0
 12 13  1  0  0  0  0
 12 25  1  0  0  0  0
 13 14  1  0  0  0  0
 13 26  1  0  0  0  0
 14 27  1  0  0  0  0
 14 28  1  0  0  0  0
 15 17  1  0  0  0  0
 16 18  2  0  0  0  0
 16 29  1  0  0  0  0
 17 18  1  0  0  0  0
 17 19  2  0  0  0  0
 18 20  1  0  0  0  0
 21 32  1  0  0  0  0
M  END
> <PUBCHEM_COMPOUND_CID>
100416

> <PUBCHEM_CONFORMER_RMSD>
0.6

> <PUBCHEM_CONFORMER_DIVERSEORDER>
1
34
39
27
14
22
46
5
36
7
32
41
9
43
29
13
35
40
18
19
3
33
26
42
2
10
30
4
44
6
8
24
23
16
38
31
21
20
12
37
17
11
15
45
25
28

> <PUBCHEM_MMFF94_PARTIAL_CHARGES>
27
1 -0.56
10 0.54
12 0.28
13 0.28
14 0.28
15 0.11
16 -0.3
18 -0.09
19 0.41
2 -0.68
20 0.72
21 0.47
29 0.15
3 -0.68
30 0.4
31 0.4
32 0.15
33 0.4
34 0.4
35 0.37
36 0.37
4 -0.57
5 0.05
6 -0.57
7 -0.62
8 -0.9
9 -0.8

> <PUBCHEM_EFFECTIVE_ROTOR_COUNT>
4

> <PUBCHEM_PHARMACOPHORE_FEATURES>
14
1 1 acceptor
1 2 acceptor
1 2 donor
1 3 acceptor
1 3 donor
1 4 acceptor
1 8 cation
1 8 donor
1 9 donor
3 5 6 15 cation
3 6 7 21 cation
5 1 10 11 12 13 rings
5 5 15 16 17 18 rings
6 6 7 15 17 19 21 rings

> <PUBCHEM_HEAVY_ATOM_COUNT>
21

> <PUBCHEM_ATOM_DEF_STEREO_COUNT>
3

> <PUBCHEM_ATOM_UDEF_STEREO_COUNT>
0

> <PUBCHEM_BOND_DEF_STEREO_COUNT>
0

> <PUBCHEM_BOND_UDEF_STEREO_COUNT>
0

> <PUBCHEM_ISOTOPIC_ATOM_COUNT>
0

> <PUBCHEM_COMPONENT_COUNT>
1

> <PUBCHEM_CACTVS_TAUTO_COUNT>
8

> <PUBCHEM_CONFORMER_ID>
0001884000000001

> <PUBCHEM_MMFF94_ENERGY>
50.9269

> <PUBCHEM_FEATURE_SELFOVERLAP>
71.328

> <PUBCHEM_SHAPE_FINGERPRINT>
10608611 8 18408037412227488365
10616163 171 18411136978540244951
10871710 139 16098834643124158324
10967382 1 18411982460074159370
1100329 8 17330834621876052168
11471102 20 18339357470549221692
116883 192 17908702826366814604
12403259 226 18336541728370642348
12553582 1 17908434549603350722
12839892 36 18194383697015103282
13140716 1 18338790109759560490
13533116 47 18343860014305395973
13944108 23 16242069552215738013
14223421 5 18409168848383929843
14289901 80 18342454876630474513
14790565 3 18338523040488756436
14866123 147 16755784487034820395
15196674 1 18410291449560931192
15219456 202 18335421244728374101
15375462 6 18410009983332047109
15442244 35 18053665772141070505
15502722 9 18411981360203816092
16945 1 18412826872082732560
17492 89 18411417315308885291
18186145 218 18201166545486762624
19591789 44 18267585895526447798
200 152 18130783508142889957
20645477 56 18187363195603519061
20645477 70 18200590285497964495
21524375 3 18118682351633876096
21709351 56 18410005563631527156
221490 88 18409736165913136698
23557571 272 17676201386432443805
23559900 14 18339073783648412434
2748010 2 18194410111459475616
2838139 119 16299254409278146326
2871803 45 18264480862179382783
335352 9 18194682558066647429
350125 39 18122347041011282096
474229 33 18121216747036079306
5104073 3 18410571820651822505
58051976 378 18340763848995061679
7364860 26 18411980239285917006
8272917 22 18341896238455050749
9709674 26 18408041823238029195

> <PUBCHEM_SHAPE_MULTIPOLES>
383.79
8.1
3.37
0.76
4.19
1.38
-0.05
0.19
-0.18
-1.76
-0.01
0.45
-0.03
0.9

> <PUBCHEM_SHAPE_SELFOVERLAP>
837.754

> <PUBCHEM_SHAPE_VOLUME>
206

> <PUBCHEM_COORDINATE_TYPE>
2
5
10

$$$$
