10048932
  -OEChem-03292013303D

 59 61  0     1  0  0  0  0  0999 V2000
   -4.6990   -1.6623    2.0345 O   0  0  0  0  0  0  0  0  0  0  0  0
   -8.1114   -0.9841   -1.6130 O   0  0  0  0  0  0  0  0  0  0  0  0
   -6.0387   -1.1949   -2.5130 O   0  0  0  0  0  0  0  0  0  0  0  0
   -6.1267    4.2928   -0.7256 O   0  0  0  0  0  0  0  0  0  0  0  0
   -7.2314    3.4647    1.0748 O   0  0  0  0  0  0  0  0  0  0  0  0
    7.9426    0.8788    0.8148 N   0  0  0  0  0  0  0  0  0  0  0  0
    7.9491    0.0409   -1.4627 N   0  0  0  0  0  0  0  0  0  0  0  0
    5.9288   -0.2697   -2.6596 N   0  0  0  0  0  0  0  0  0  0  0  0
    9.9544    0.3781   -0.2840 N   0  0  0  0  0  0  0  0  0  0  0  0
   -4.8306   -0.8548   -0.1352 N   0  0  0  0  0  0  0  0  0  0  0  0
    4.4103    0.6806   -0.1877 C   0  0  2  0  0  0  0  0  0  0  0  0
    4.3866    1.5950    1.0592 C   0  0  0  0  0  0  0  0  0  0  0  0
    3.7388   -0.6638    0.0625 C   0  0  0  0  0  0  0  0  0  0  0  0
    5.8819    0.5445   -0.3970 C   0  0  0  0  0  0  0  0  0  0  0  0
    5.6892    1.3351    1.8347 C   0  0  0  0  0  0  0  0  0  0  0  0
    6.6064    0.9217    0.7207 C   0  0  0  0  0  0  0  0  0  0  0  0
    2.2286   -0.5099    0.2362 C   0  0  0  0  0  0  0  0  0  0  0  0
    6.6000    0.1039   -1.4775 C   0  0  0  0  0  0  0  0  0  0  0  0
    1.5555   -1.8679    0.4468 C   0  0  0  0  0  0  0  0  0  0  0  0
    0.0605   -1.7336    0.5840 C   0  0  0  0  0  0  0  0  0  0  0  0
    8.5433    0.4351   -0.3094 C   0  0  0  0  0  0  0  0  0  0  0  0
   -0.7370   -1.7982   -0.5488 C   0  0  0  0  0  0  0  0  0  0  0  0
   -0.4940   -1.5465    1.8416 C   0  0  0  0  0  0  0  0  0  0  0  0
   -2.1204   -1.6727   -0.4213 C   0  0  0  0  0  0  0  0  0  0  0  0
   -1.8774   -1.4211    1.9692 C   0  0  0  0  0  0  0  0  0  0  0  0
   -2.6906   -1.4843    0.8377 C   0  0  0  0  0  0  0  0  0  0  0  0
   -6.2608   -0.6471   -0.1503 C   0  0  1  0  0  0  0  0  0  0  0  0
   -6.6625    0.7448    0.3528 C   0  0  0  0  0  0  0  0  0  0  0  0
   -4.1332   -1.3555    0.9703 C   0  0  0  0  0  0  0  0  0  0  0  0
   -6.1476    1.9289   -0.4754 C   0  0  0  0  0  0  0  0  0  0  0  0
   -6.7544   -0.9578   -1.5484 C   0  0  0  0  0  0  0  0  0  0  0  0
   -6.5606    3.2794    0.0690 C   0  0  0  0  0  0  0  0  0  0  0  0
    3.9412    1.2000   -1.0314 H   0  0  0  0  0  0  0  0  0  0  0  0
    3.5092    1.4874    1.7010 H   0  0  0  0  0  0  0  0  0  0  0  0
    4.3924    2.6414    0.7196 H   0  0  0  0  0  0  0  0  0  0  0  0
    4.1636   -1.1524    0.9492 H   0  0  0  0  0  0  0  0  0  0  0  0
    3.9325   -1.3377   -0.7817 H   0  0  0  0  0  0  0  0  0  0  0  0
    6.0426    2.2313    2.3513 H   0  0  0  0  0  0  0  0  0  0  0  0
    5.5714    0.5114    2.5458 H   0  0  0  0  0  0  0  0  0  0  0  0
    1.8075   -0.0219   -0.6522 H   0  0  0  0  0  0  0  0  0  0  0  0
    1.9948    0.1357    1.0890 H   0  0  0  0  0  0  0  0  0  0  0  0
    1.9644   -2.3570    1.3404 H   0  0  0  0  0  0  0  0  0  0  0  0
    1.7864   -2.5384   -0.3912 H   0  0  0  0  0  0  0  0  0  0  0  0
    5.0299    0.1483   -2.8640 H   0  0  0  0  0  0  0  0  0  0  0  0
    6.4986   -0.5799   -3.4368 H   0  0  0  0  0  0  0  0  0  0  0  0
   -0.3024   -1.9495   -1.5329 H   0  0  0  0  0  0  0  0  0  0  0  0
    0.1314   -1.4929    2.7282 H   0  0  0  0  0  0  0  0  0  0  0  0
   10.4534    0.0549   -1.1011 H   0  0  0  0  0  0  0  0  0  0  0  0
   10.4482    0.6625    0.5507 H   0  0  0  0  0  0  0  0  0  0  0  0
   -2.7179   -1.7589   -1.3241 H   0  0  0  0  0  0  0  0  0  0  0  0
   -2.3013   -1.2701    2.9586 H   0  0  0  0  0  0  0  0  0  0  0  0
   -6.7037   -1.4006    0.5132 H   0  0  0  0  0  0  0  0  0  0  0  0
   -6.3103    0.8634    1.3862 H   0  0  0  0  0  0  0  0  0  0  0  0
   -7.7577    0.8055    0.3996 H   0  0  0  0  0  0  0  0  0  0  0  0
   -4.3183   -0.5416   -0.9533 H   0  0  0  0  0  0  0  0  0  0  0  0
   -5.0527    1.9083   -0.5074 H   0  0  0  0  0  0  0  0  0  0  0  0
   -6.5311    1.8538   -1.4990 H   0  0  0  0  0  0  0  0  0  0  0  0
   -8.4300   -1.2012   -2.5150 H   0  0  0  0  0  0  0  0  0  0  0  0
   -6.4075    5.1693   -0.3860 H   0  0  0  0  0  0  0  0  0  0  0  0
  1 29  2  0  0  0  0
  2 31  1  0  0  0  0
  2 58  1  0  0  0  0
  3 31  2  0  0  0  0
  4 32  1  0  0  0  0
  4 59  1  0  0  0  0
  5 32  2  0  0  0  0
  6 16  1  0  0  0  0
  6 21  2  0  0  0  0
  7 18  2  0  0  0  0
  7 21  1  0  0  0  0
  8 18  1  0  0  0  0
  8 44  1  0  0  0  0
  8 45  1  0  0  0  0
  9 21  1  0  0  0  0
  9 48  1  0  0  0  0
  9 49  1  0  0  0  0
 10 27  1  0  0  0  0
 10 29  1  0  0  0  0
 10 55  1  0  0  0  0
 11 12  1  0  0  0  0
 11 13  1  0  0  0  0
 11 14  1  0  0  0  0
 11 33  1  0  0  0  0
 12 15  1  0  0  0  0
 12 34  1  0  0  0  0
 12 35  1  0  0  0  0
 13 17  1  0  0  0  0
 13 36  1  0  0  0  0
 13 37  1  0  0  0  0
 14 16  2  0  0  0  0
 14 18  1  0  0  0  0
 15 16  1  0  0  0  0
 15 38  1  0  0  0  0
 15 39  1  0  0  0  0
 17 19  1  0  0  0  0
 17 40  1  0  0  0  0
 17 41  1  0  0  0  0
 19 20  1  0  0  0  0
 19 42  1  0  0  0  0
 19 43  1  0  0  0  0
 20 22  2  0  0  0  0
 20 23  1  0  0  0  0
 22 24  1  0  0  0  0
 22 46  1  0  0  0  0
 23 25  2  0  0  0  0
 23 47  1  0  0  0  0
 24 26  2  0  0  0  0
 24 50  1  0  0  0  0
 25 26  1  0  0  0  0
 25 51  1  0  0  0  0
 26 29  1  0  0  0  0
 27 28  1  0  0  0  0
 27 31  1  0  0  0  0
 27 52  1  0  0  0  0
 28 30  1  0  0  0  0
 28 53  1  0  0  0  0
 28 54  1  0  0  0  0
 30 32  1  0  0  0  0
 30 56  1  0  0  0  0
 30 57  1  0  0  0  0
M  END
> <PUBCHEM_COMPOUND_CID>
10048932

> <PUBCHEM_CONFORMER_RMSD>
1

> <PUBCHEM_CONFORMER_DIVERSEORDER>
1
243
284
199
70
145
287
290
152
216
97
95
147
189
230
6
177
215
46
172
67
54
60
68
262
64
235
207
101
198
244
232
159
57
201
40
250
158
150
129
276
32
112
73
41
184
231
3
17
267
256
59
134
270
108
25
241
160
236
92
169
218
281
182
65
76
107
55
94
144
238
139
93
168
208
194
5
11
111
186
223
167
221
142
13
69
56
110
175
27
234
183
213
285
127
83
229
128
203
2
293
53
211
292
163
81
219
72
8
48
165
237
85
24
197
123
137
50
151
196
289
181
102
12
31
176
125
105
260
252
217
248
43
89
66
295
35
45
286
114
187
166
291
29
61
246
251
42
19
188
33
153
174
222
171
58
225
20
205
240
157
121
15
10
7
164
296
206
261
4
209
84
26
178
227
269
30
22
133
18
180
116
38
263
259
51
156
173
87
86
136
204
190
28
200
298
170
9
21
202
90
39
212
140
266
36
62
88
192
277
247
242
143
23
283
49
193
155
44
34
120
146
274
191
280
16
99
278
138
220
275
124
122
254
268
179
104
249
264
148
52
272
265
214
141
79
226
78
109
103
162
258
91
75
288
185
82
245
117
228
96
253
273
282
255
71
154
161
74
98
130
118
135
271
224
233
195
37
257
14
239
149
113
126
132
294
100
297
210
279
63
106
47
115
119
131
80
77

> <PUBCHEM_MMFF94_PARTIAL_CHARGES>
39
1 -0.57
10 -0.73
11 0.14
14 -0.14
15 0.14
16 0.17
18 0.41
19 0.14
2 -0.65
20 -0.14
21 0.72
22 -0.15
23 -0.15
24 -0.15
25 -0.15
26 0.09
27 0.36
29 0.54
3 -0.57
30 0.06
31 0.66
32 0.66
4 -0.65
44 0.4
45 0.4
46 0.15
47 0.15
48 0.4
49 0.4
5 -0.57
50 0.15
51 0.15
55 0.37
58 0.5
59 0.5
6 -0.62
7 -0.62
8 -0.9
9 -0.9

> <PUBCHEM_EFFECTIVE_ROTOR_COUNT>
11.6

> <PUBCHEM_PHARMACOPHORE_FEATURES>
14
1 1 acceptor
1 10 donor
1 2 acceptor
1 3 acceptor
1 4 acceptor
1 5 acceptor
1 8 donor
1 9 donor
3 2 3 31 anion
3 4 5 32 anion
4 6 7 9 21 cation
5 11 12 14 15 16 rings
6 20 22 23 24 25 26 rings
6 6 7 14 16 18 21 rings

> <PUBCHEM_HEAVY_ATOM_COUNT>
32

> <PUBCHEM_ATOM_DEF_STEREO_COUNT>
1

> <PUBCHEM_ATOM_UDEF_STEREO_COUNT>
1

> <PUBCHEM_BOND_DEF_STEREO_COUNT>
0

> <PUBCHEM_BOND_UDEF_STEREO_COUNT>
0

> <PUBCHEM_ISOTOPIC_ATOM_COUNT>
0

> <PUBCHEM_COMPONENT_COUNT>
1

> <PUBCHEM_CACTVS_TAUTO_COUNT>
18

> <PUBCHEM_CONFORMER_ID>
009955A400000001

> <PUBCHEM_MMFF94_ENERGY>
86.8548

> <PUBCHEM_FEATURE_SELFOVERLAP>
71.261

> <PUBCHEM_SHAPE_FINGERPRINT>
10 15 15502369032983761079
10162869 55 16200433598803769018
10299344 5 15357692033447702738
10533779 1 18116145572773679029
11181472 205 18114186320519453248
12778500 126 15936405676839964910
12988421 55 17313381194020335915
13673619 4 11671785974501448843
13782708 43 11671778260892756219
13914758 101 18343863325171624650
14294032 229 17895472519009414364
15183329 4 17748823042324489157
15289351 153 18261383443492589258
15461852 350 17895191177461623171
15604295 49 18339357587152395784
1577012 14 18410290277124264187
18603816 31 11095878303275858573
19303781 99 11239411810777616977
20105231 36 16128090179093690831
21223535 225 18412543197745293005
21585482 111 18189050906981412837
21774942 28 18410855421747996840
23522609 53 16589173643632292062
2838139 119 18411416237392659953
3633792 109 17417821629830416090
3711267 37 17240206543038714436
4169191 19 17676480636421123891
437795 83 18343864394919519105
445580 204 18334857203974637601
44802255 64 18131911551618735431
474113 269 18201722805168566166
57303763 176 18198627627968793432
5937810 71 17917436385166580849
59682541 35 11097857419768436662
6201320 215 18341047398209433169
636775 72 18407760335302894945
6691757 9 16733269027819953891
9953998 17 10953734496393131527
9962374 69 11095873882958237314
999808 66 11458423548391794801

> <PUBCHEM_SHAPE_MULTIPOLES>
604.29
31.18
3
1.89
22.22
3.62
-0.44
17.77
-9.62
-9
0.59
-0.22
-0.54
0.31

> <PUBCHEM_SHAPE_SELFOVERLAP>
1280.705

> <PUBCHEM_SHAPE_VOLUME>
334.6

> <PUBCHEM_COORDINATE_TYPE>
2
5
10

$$$$
