10044783
  -OEChem-03292013303D

 47 49  0     1  0  0  0  0  0999 V2000
    3.2726   -2.0459    2.1390 O   0  0  0  0  0  0  0  0  0  0  0  0
    1.1345   -2.3815    0.2081 O   0  0  0  0  0  0  0  0  0  0  0  0
    3.0136    1.7031    1.7722 O   0  0  0  0  0  0  0  0  0  0  0  0
   -1.3357   -2.3668   -0.4046 O   0  0  0  0  0  0  0  0  0  0  0  0
   -1.8101    2.8011    0.8704 O   0  0  0  0  0  0  0  0  0  0  0  0
   -3.8062   -2.5236   -1.0562 O   0  0  0  0  0  0  0  0  0  0  0  0
   -6.4151    1.4083   -0.6445 O   0  0  0  0  0  0  0  0  0  0  0  0
    3.3911   -1.0323    1.1305 C   0  0  1  0  0  0  0  0  0  0  0  0
    3.9132   -1.6951   -0.1617 C   0  0  0  0  0  0  0  0  0  0  0  0
    4.0529   -0.7575   -1.3657 C   0  0  0  0  0  0  0  0  0  0  0  0
    2.0662   -0.3529    0.9848 C   0  0  0  0  0  0  0  0  0  0  0  0
    5.0758    0.3597   -1.1502 C   0  0  0  0  0  0  0  0  0  0  0  0
   -0.2774   -0.4227    0.3840 C   0  0  0  0  0  0  0  0  0  0  0  0
    0.9599   -1.0636    0.5185 C   0  0  0  0  0  0  0  0  0  0  0  0
   -0.4021    0.9277    0.7168 C   0  0  0  0  0  0  0  0  0  0  0  0
    1.9418    0.9947    1.3170 C   0  0  0  0  0  0  0  0  0  0  0  0
    5.2426    1.2075   -2.4120 C   0  0  0  0  0  0  0  0  0  0  0  0
    0.7106    1.6372    1.1844 C   0  0  0  0  0  0  0  0  0  0  0  0
   -1.4432   -1.1834   -0.1103 C   0  0  0  0  0  0  0  0  0  0  0  0
   -2.7430   -0.4950   -0.2469 C   0  0  0  0  0  0  0  0  0  0  0  0
   -2.8676    0.8555    0.0857 C   0  0  0  0  0  0  0  0  0  0  0  0
   -1.7017    1.6163    0.5794 C   0  0  0  0  0  0  0  0  0  0  0  0
   -3.8560   -1.2048   -0.7134 C   0  0  0  0  0  0  0  0  0  0  0  0
    6.2877    2.2948   -2.2182 C   0  0  0  0  0  0  0  0  0  0  0  0
   -4.1052    1.4963   -0.0483 C   0  0  0  0  0  0  0  0  0  0  0  0
   -5.2117    0.7853   -0.5135 C   0  0  0  0  0  0  0  0  0  0  0  0
   -5.0873   -0.5623   -0.8455 C   0  0  0  0  0  0  0  0  0  0  0  0
    4.1638   -0.3484    1.4951 H   0  0  0  0  0  0  0  0  0  0  0  0
    4.9004   -2.1231    0.0645 H   0  0  0  0  0  0  0  0  0  0  0  0
    3.3260   -2.5684   -0.4591 H   0  0  0  0  0  0  0  0  0  0  0  0
    3.0800   -0.3291   -1.6320 H   0  0  0  0  0  0  0  0  0  0  0  0
    4.3678   -1.3612   -2.2265 H   0  0  0  0  0  0  0  0  0  0  0  0
    4.7642    1.0071   -0.3243 H   0  0  0  0  0  0  0  0  0  0  0  0
    6.0421   -0.0781   -0.8719 H   0  0  0  0  0  0  0  0  0  0  0  0
    0.6248    2.6891    1.4461 H   0  0  0  0  0  0  0  0  0  0  0  0
    4.2851    1.6701   -2.6782 H   0  0  0  0  0  0  0  0  0  0  0  0
    5.5409    0.5709   -3.2530 H   0  0  0  0  0  0  0  0  0  0  0  0
    2.8323   -1.6525    2.9119 H   0  0  0  0  0  0  0  0  0  0  0  0
    6.0054    2.9690   -1.4033 H   0  0  0  0  0  0  0  0  0  0  0  0
    6.3898    2.8894   -3.1314 H   0  0  0  0  0  0  0  0  0  0  0  0
    7.2653    1.8620   -1.9834 H   0  0  0  0  0  0  0  0  0  0  0  0
   -4.2149    2.5474    0.2074 H   0  0  0  0  0  0  0  0  0  0  0  0
    1.7084   -2.7864    0.8806 H   0  0  0  0  0  0  0  0  0  0  0  0
   -5.9527   -1.1121   -1.2079 H   0  0  0  0  0  0  0  0  0  0  0  0
    2.7392    2.6195    1.9472 H   0  0  0  0  0  0  0  0  0  0  0  0
   -2.9143   -2.8794   -0.9284 H   0  0  0  0  0  0  0  0  0  0  0  0
   -6.3214    2.3371   -0.3714 H   0  0  0  0  0  0  0  0  0  0  0  0
  1  8  1  0  0  0  0
  1 38  1  0  0  0  0
  2 14  1  0  0  0  0
  2 43  1  0  0  0  0
  3 16  1  0  0  0  0
  3 45  1  0  0  0  0
  4 19  2  0  0  0  0
  5 22  2  0  0  0  0
  6 23  1  0  0  0  0
  6 46  1  0  0  0  0
  7 26  1  0  0  0  0
  7 47  1  0  0  0  0
  8  9  1  0  0  0  0
  8 11  1  0  0  0  0
  8 28  1  0  0  0  0
  9 10  1  0  0  0  0
  9 29  1  0  0  0  0
  9 30  1  0  0  0  0
 10 12  1  0  0  0  0
 10 31  1  0  0  0  0
 10 32  1  0  0  0  0
 11 14  1  0  0  0  0
 11 16  2  0  0  0  0
 12 17  1  0  0  0  0
 12 33  1  0  0  0  0
 12 34  1  0  0  0  0
 13 14  2  0  0  0  0
 13 15  1  0  0  0  0
 13 19  1  0  0  0  0
 15 18  2  0  0  0  0
 15 22  1  0  0  0  0
 16 18  1  0  0  0  0
 17 24  1  0  0  0  0
 17 36  1  0  0  0  0
 17 37  1  0  0  0  0
 18 35  1  0  0  0  0
 19 20  1  0  0  0  0
 20 21  2  0  0  0  0
 20 23  1  0  0  0  0
 21 22  1  0  0  0  0
 21 25  1  0  0  0  0
 23 27  2  0  0  0  0
 24 39  1  0  0  0  0
 24 40  1  0  0  0  0
 24 41  1  0  0  0  0
 25 26  2  0  0  0  0
 25 42  1  0  0  0  0
 26 27  1  0  0  0  0
 27 44  1  0  0  0  0
M  END
> <PUBCHEM_COMPOUND_CID>
10044783

> <PUBCHEM_CONFORMER_RMSD>
0.8

> <PUBCHEM_CONFORMER_DIVERSEORDER>
1
17
6
4
18
13
2
10
3
8
15
16
14
12
5
19
9
11
7

> <PUBCHEM_MMFF94_PARTIAL_CHARGES>
30
1 -0.68
11 -0.14
13 0.09
14 0.08
15 0.09
16 0.08
18 -0.15
19 0.4
2 -0.53
20 0.09
21 0.09
22 0.4
23 0.08
25 -0.15
26 0.08
27 -0.15
3 -0.53
35 0.15
38 0.4
4 -0.57
42 0.15
43 0.45
44 0.15
45 0.45
46 0.45
47 0.45
5 -0.57
6 -0.53
7 -0.53
8 0.42

> <PUBCHEM_EFFECTIVE_ROTOR_COUNT>
5

> <PUBCHEM_PHARMACOPHORE_FEATURES>
13
1 1 acceptor
1 1 donor
1 2 donor
1 24 hydrophobe
1 3 donor
1 4 acceptor
1 5 acceptor
1 6 donor
1 7 donor
4 9 10 12 17 hydrophobe
6 11 13 14 15 16 18 rings
6 13 15 19 20 21 22 rings
6 20 21 23 25 26 27 rings

> <PUBCHEM_HEAVY_ATOM_COUNT>
27

> <PUBCHEM_ATOM_DEF_STEREO_COUNT>
1

> <PUBCHEM_ATOM_UDEF_STEREO_COUNT>
0

> <PUBCHEM_BOND_DEF_STEREO_COUNT>
0

> <PUBCHEM_BOND_UDEF_STEREO_COUNT>
0

> <PUBCHEM_ISOTOPIC_ATOM_COUNT>
0

> <PUBCHEM_COMPONENT_COUNT>
1

> <PUBCHEM_CACTVS_TAUTO_COUNT>
135

> <PUBCHEM_CONFORMER_ID>
0099456F00000001

> <PUBCHEM_MMFF94_ENERGY>
75.8527

> <PUBCHEM_FEATURE_SELFOVERLAP>
66.016

> <PUBCHEM_SHAPE_FINGERPRINT>
10692045 39 13551736471154432304
10759866 29 18260547797053792010
10906281 52 18270411465012277881
10967382 1 18271511015104868619
11112241 14 15936987351727002428
11578080 2 15358278046763762040
11954058 11 12895360980255435676
11961588 58 18187370973472404100
12035759 4 18334864930494455940
12166972 35 18115862998226486730
12236239 1 18114180809000629511
12670546 177 18342184349520204772
12788726 201 18342743961846356224
13140716 1 18198882834392966859
13690498 29 18198908204870714879
13782708 43 14620787207039953005
13955234 65 16371277828008208898
14251757 5 18342746255380316022
14251757 52 17531245020485412245
14790565 3 17625840270240469649
14931854 50 18268731518677956132
15196674 1 18271227405503012123
15475509 8 17345492400343129721
15536298 74 18130773586472920545
16752209 62 18200308810304936875
17492 54 18341347655874090404
19319366 153 18187361000342832042
19784866 240 13973971990839522292
20511986 3 18334856147454946420
20642791 239 18338245967452312104
20871999 31 18059306387350793172
21267235 1 18272365361541530827
2215653 11 17561360665064718205
22393880 68 18272083950113486903
22907989 373 18264198137003569501
23522609 53 18268169581793724665
23559900 14 17917423258986654168
23569914 2 15794223442262545597
2838139 119 17240202166535475044
3004659 81 18338797798141592038
335352 9 18199735986838698325
350125 39 18270386209750366865
474 4 17458919227298574524
543368 44 18041285460148279909
6034566 193 16591153937262187388
6823239 73 17775281686288612698
86090 222 14907908146015222542
9709674 26 18200300160678847275

> <PUBCHEM_SHAPE_MULTIPOLES>
514.56
12.98
2.66
1.76
0.8
0.14
0.16
-4.64
8.85
0.55
0.01
3
-0.51
-2.47

> <PUBCHEM_SHAPE_SELFOVERLAP>
1127.737

> <PUBCHEM_SHAPE_VOLUME>
276.9

> <PUBCHEM_COORDINATE_TYPE>
2
5
10

$$$$
