100475
  -OEChem-03292013323D

 34 36  0     0  0  0  0  0  0999 V2000
   -0.8850    2.5874   -1.1661 S   0  0  0  0  0  0  0  0  0  0  0  0
   -4.5544   -2.3830    0.5907 F   0  0  0  0  0  0  0  0  0  0  0  0
   -4.2205   -1.8496   -1.4848 F   0  0  0  0  0  0  0  0  0  0  0  0
   -2.5773   -2.6157   -0.2842 F   0  0  0  0  0  0  0  0  0  0  0  0
    3.9602   -0.8554   -0.9058 N   0  0  0  0  0  0  0  0  0  0  0  0
    4.0086   -0.6644    1.4958 N   0  0  0  0  0  0  0  0  0  0  0  0
    2.3857    0.6032    2.6328 N   0  0  0  0  0  0  0  0  0  0  0  0
    5.6216   -1.9266    0.3583 N   0  0  0  0  0  0  0  0  0  0  0  0
    2.2869    0.4471    0.2143 C   0  0  0  0  0  0  0  0  0  0  0  0
    2.8653   -0.0764   -0.9535 C   0  0  0  0  0  0  0  0  0  0  0  0
    0.5652    1.5573   -1.0783 C   0  0  0  0  0  0  0  0  0  0  0  0
    1.1420    1.2603    0.1525 C   0  0  0  0  0  0  0  0  0  0  0  0
    2.2676    0.2371   -2.1717 C   0  0  0  0  0  0  0  0  0  0  0  0
    1.1289    1.0449   -2.2415 C   0  0  0  0  0  0  0  0  0  0  0  0
   -2.0479    1.6388   -0.1958 C   0  0  0  0  0  0  0  0  0  0  0  0
    2.9122    0.1123    1.4121 C   0  0  0  0  0  0  0  0  0  0  0  0
   -3.2926   -0.3942    0.1710 C   0  0  0  0  0  0  0  0  0  0  0  0
   -2.3841    0.3452   -0.5863 C   0  0  0  0  0  0  0  0  0  0  0  0
   -2.6142    2.1981    0.9469 C   0  0  0  0  0  0  0  0  0  0  0  0
   -3.8619    0.1625    1.3164 C   0  0  0  0  0  0  0  0  0  0  0  0
   -3.5226    1.4585    1.7044 C   0  0  0  0  0  0  0  0  0  0  0  0
    4.4723   -1.1071    0.3160 C   0  0  0  0  0  0  0  0  0  0  0  0
   -3.6559   -1.7803   -0.2431 C   0  0  0  0  0  0  0  0  0  0  0  0
    0.7020    1.6693    1.0593 H   0  0  0  0  0  0  0  0  0  0  0  0
    2.6893   -0.1517   -3.0966 H   0  0  0  0  0  0  0  0  0  0  0  0
    0.6983    1.2608   -3.2164 H   0  0  0  0  0  0  0  0  0  0  0  0
   -1.9524   -0.0983   -1.4808 H   0  0  0  0  0  0  0  0  0  0  0  0
   -2.3611    3.2064    1.2646 H   0  0  0  0  0  0  0  0  0  0  0  0
   -4.5713   -0.3977    1.9193 H   0  0  0  0  0  0  0  0  0  0  0  0
   -3.9655    1.8920    2.5964 H   0  0  0  0  0  0  0  0  0  0  0  0
    1.4587    0.2505    2.8538 H   0  0  0  0  0  0  0  0  0  0  0  0
    2.4353    1.6137    2.7268 H   0  0  0  0  0  0  0  0  0  0  0  0
    6.0433   -2.1455    1.2503 H   0  0  0  0  0  0  0  0  0  0  0  0
    6.0082   -2.2852   -0.5039 H   0  0  0  0  0  0  0  0  0  0  0  0
  1 11  1  0  0  0  0
  1 15  1  0  0  0  0
  2 23  1  0  0  0  0
  3 23  1  0  0  0  0
  4 23  1  0  0  0  0
  5 10  1  0  0  0  0
  5 22  2  0  0  0  0
  6 16  2  0  0  0  0
  6 22  1  0  0  0  0
  7 16  1  0  0  0  0
  7 31  1  0  0  0  0
  7 32  1  0  0  0  0
  8 22  1  0  0  0  0
  8 33  1  0  0  0  0
  8 34  1  0  0  0  0
  9 10  2  0  0  0  0
  9 12  1  0  0  0  0
  9 16  1  0  0  0  0
 10 13  1  0  0  0  0
 11 12  2  0  0  0  0
 11 14  1  0  0  0  0
 12 24  1  0  0  0  0
 13 14  2  0  0  0  0
 13 25  1  0  0  0  0
 14 26  1  0  0  0  0
 15 18  1  0  0  0  0
 15 19  2  0  0  0  0
 17 18  2  0  0  0  0
 17 20  1  0  0  0  0
 17 23  1  0  0  0  0
 18 27  1  0  0  0  0
 19 21  1  0  0  0  0
 19 28  1  0  0  0  0
 20 21  2  0  0  0  0
 20 29  1  0  0  0  0
 21 30  1  0  0  0  0
M  END
> <PUBCHEM_COMPOUND_CID>
100475

> <PUBCHEM_CONFORMER_RMSD>
0.6

> <PUBCHEM_CONFORMER_DIVERSEORDER>
1
42
40
27
22
39
33
2
37
31
38
13
4
24
29
3
25
34
26
28
14
23
41
21
19
35
20
30
32
36
16
17
18
15
5
6
7
8
9
10
12
11

> <PUBCHEM_MMFF94_PARTIAL_CHARGES>
33
1 -0.2
10 0.31
11 0.1
12 -0.15
13 -0.15
14 -0.15
15 0.1
16 0.41
17 -0.14
18 -0.15
19 -0.15
2 -0.34
20 -0.15
21 -0.15
22 0.72
23 1.16
24 0.15
25 0.15
26 0.15
27 0.15
28 0.15
29 0.15
3 -0.34
30 0.15
31 0.4
32 0.4
33 0.4
34 0.4
4 -0.34
5 -0.62
6 -0.62
7 -0.9
8 -0.9

> <PUBCHEM_EFFECTIVE_ROTOR_COUNT>
3

> <PUBCHEM_PHARMACOPHORE_FEATURES>
6
1 7 donor
1 8 donor
4 5 6 8 22 cation
6 15 17 18 19 20 21 rings
6 5 6 9 10 16 22 rings
6 9 10 11 12 13 14 rings

> <PUBCHEM_HEAVY_ATOM_COUNT>
23

> <PUBCHEM_ATOM_DEF_STEREO_COUNT>
0

> <PUBCHEM_ATOM_UDEF_STEREO_COUNT>
0

> <PUBCHEM_BOND_DEF_STEREO_COUNT>
0

> <PUBCHEM_BOND_UDEF_STEREO_COUNT>
0

> <PUBCHEM_ISOTOPIC_ATOM_COUNT>
0

> <PUBCHEM_COMPONENT_COUNT>
1

> <PUBCHEM_CACTVS_TAUTO_COUNT>
9

> <PUBCHEM_CONFORMER_ID>
0001887B00000001

> <PUBCHEM_MMFF94_ENERGY>
77.3864

> <PUBCHEM_FEATURE_SELFOVERLAP>
30.478

> <PUBCHEM_SHAPE_FINGERPRINT>
10042902 136 18334862722986851718
10366900 7 17274830120889082221
11370993 144 17488746653597261012
11552529 35 18131061645323246146
11720765 8 12976088214666578352
12363563 72 18336263539381107741
12403259 327 17702951309844922729
12553582 1 17530684294591567073
12633257 1 17989212520769090665
12670546 177 12613052586040502324
13103583 49 18130510721563097250
13583140 156 17274814718982936076
13911987 19 15361686627262187236
14081887 123 17917437488550623269
14178342 30 18200604600797911589
14251764 75 8573618407013581783
14787075 74 17968669327811679700
15163728 17 10231463190498445880
15342168 16 11743575271106943809
15537594 2 17896343400610320453
17780758 139 18272088240959941240
20291156 8 18113059354458674429
20554085 129 17840316519462323673
21713013 43 14924241459628038337
21731516 1 18041001764879516957
22393880 68 13912328996973475576
23402539 116 16733552590166151952
23503958 8 18412546487547479002
23559900 14 17702686426559271093
23596394 208 14779265336509139184
23598288 3 17605004619499322597
238 59 15719384092237625865
25222932 49 17475243873657176671
339767 52 18187635929551460543
3459 110 16558739152784376295
351380 3 17822019674479019456
4098825 35 12180120926117543481
49207404 50 16702304572013956748
602551 16 18342462513003198966
7970288 3 18113908181804762011
85463 6 18261107461272731861

> <PUBCHEM_SHAPE_MULTIPOLES>
435.43
10.09
2.55
2.04
3.29
0.48
-0.33
7.35
-1.98
-2.47
0.65
0.62
-0.41
-1.6

> <PUBCHEM_SHAPE_SELFOVERLAP>
947.644

> <PUBCHEM_SHAPE_VOLUME>
242.7

> <PUBCHEM_COORDINATE_TYPE>
2
5
10

$$$$
