10041796
  -OEChem-03292013303D

 45 46  0     1  0  0  0  0  0999 V2000
    3.6254   -0.6996    0.2847 O   0  0  0  0  0  0  0  0  0  0  0  0
   -0.9032    1.5541    1.7107 O   0  0  0  0  0  0  0  0  0  0  0  0
   -0.8052   -1.0867    1.6250 O   0  0  0  0  0  0  0  0  0  0  0  0
   -1.2387    2.5028   -0.9092 O   0  0  0  0  0  0  0  0  0  0  0  0
    3.2230    1.8732   -0.2131 O   0  0  0  0  0  0  0  0  0  0  0  0
    1.0911    1.6941    0.5673 N   0  0  0  0  0  0  0  0  0  0  0  0
    1.2507   -1.0468    0.6403 N   0  0  0  0  0  0  0  0  0  0  0  0
    2.2927   -0.3508   -0.1212 C   0  0  2  0  0  0  0  0  0  0  0  0
   -0.1667    0.9908    0.6356 C   0  0  2  0  0  0  0  0  0  0  0  0
    2.1625   -0.7386   -1.5938 C   0  0  0  0  0  0  0  0  0  0  0  0
   -0.9802    1.1241   -0.6432 C   0  0  1  0  0  0  0  0  0  0  0  0
    2.2499    1.1646    0.0548 C   0  0  0  0  0  0  0  0  0  0  0  0
    0.1724   -0.4337    0.9614 C   0  0  0  0  0  0  0  0  0  0  0  0
    3.2831   -0.1061   -2.4151 C   0  0  0  0  0  0  0  0  0  0  0  0
    2.1716   -2.2571   -1.7506 C   0  0  0  0  0  0  0  0  0  0  0  0
   -2.2954    0.3821   -0.5644 C   0  0  0  0  0  0  0  0  0  0  0  0
   -2.3522   -0.9402   -0.9712 C   0  0  0  0  0  0  0  0  0  0  0  0
   -3.4164    1.0404   -0.0872 C   0  0  0  0  0  0  0  0  0  0  0  0
    3.8615   -0.3214    1.6285 C   0  0  0  0  0  0  0  0  0  0  0  0
   -0.3266   -2.1001    2.4949 C   0  0  0  0  0  0  0  0  0  0  0  0
   -3.5655   -1.6246   -0.8989 C   0  0  0  0  0  0  0  0  0  0  0  0
   -4.6297    0.3561   -0.0148 C   0  0  0  0  0  0  0  0  0  0  0  0
   -4.7042   -0.9763   -0.4207 C   0  0  0  0  0  0  0  0  0  0  0  0
    1.2149   -0.3829   -2.0058 H   0  0  0  0  0  0  0  0  0  0  0  0
   -0.4235    0.7605   -1.5098 H   0  0  0  0  0  0  0  0  0  0  0  0
    1.0678    2.6971    0.7224 H   0  0  0  0  0  0  0  0  0  0  0  0
    4.2814   -0.3511   -2.0394 H   0  0  0  0  0  0  0  0  0  0  0  0
    3.2378   -0.4699   -3.4489 H   0  0  0  0  0  0  0  0  0  0  0  0
    3.1857    0.9812   -2.4780 H   0  0  0  0  0  0  0  0  0  0  0  0
    3.0849   -2.7040   -1.3436 H   0  0  0  0  0  0  0  0  0  0  0  0
    2.1160   -2.5324   -2.8100 H   0  0  0  0  0  0  0  0  0  0  0  0
    1.3127   -2.7243   -1.2580 H   0  0  0  0  0  0  0  0  0  0  0  0
   -0.2868    1.6569    2.4557 H   0  0  0  0  0  0  0  0  0  0  0  0
   -1.7440    2.5582   -1.7386 H   0  0  0  0  0  0  0  0  0  0  0  0
   -1.4732   -1.4534   -1.3506 H   0  0  0  0  0  0  0  0  0  0  0  0
   -3.3829    2.0735    0.2454 H   0  0  0  0  0  0  0  0  0  0  0  0
    4.7789   -0.8269    1.9478 H   0  0  0  0  0  0  0  0  0  0  0  0
    3.0670   -0.6487    2.3063 H   0  0  0  0  0  0  0  0  0  0  0  0
    4.0473    0.7490    1.7474 H   0  0  0  0  0  0  0  0  0  0  0  0
   -1.1265   -2.3457    3.1994 H   0  0  0  0  0  0  0  0  0  0  0  0
    0.5394   -1.7640    3.0758 H   0  0  0  0  0  0  0  0  0  0  0  0
   -0.0855   -3.0043    1.9271 H   0  0  0  0  0  0  0  0  0  0  0  0
   -3.6236   -2.6618   -1.2156 H   0  0  0  0  0  0  0  0  0  0  0  0
   -5.5159    0.8596    0.3601 H   0  0  0  0  0  0  0  0  0  0  0  0
   -5.6488   -1.5093   -0.3637 H   0  0  0  0  0  0  0  0  0  0  0  0
  1  8  1  0  0  0  0
  1 19  1  0  0  0  0
  2  9  1  0  0  0  0
  2 33  1  0  0  0  0
  3 13  1  0  0  0  0
  3 20  1  0  0  0  0
  4 11  1  0  0  0  0
  4 34  1  0  0  0  0
  5 12  2  0  0  0  0
  6  9  1  0  0  0  0
  6 12  1  0  0  0  0
  6 26  1  0  0  0  0
  7  8  1  0  0  0  0
  7 13  2  0  0  0  0
  8 10  1  0  0  0  0
  8 12  1  0  0  0  0
  9 11  1  0  0  0  0
  9 13  1  0  0  0  0
 10 14  1  0  0  0  0
 10 15  1  0  0  0  0
 10 24  1  0  0  0  0
 11 16  1  0  0  0  0
 11 25  1  0  0  0  0
 14 27  1  0  0  0  0
 14 28  1  0  0  0  0
 14 29  1  0  0  0  0
 15 30  1  0  0  0  0
 15 31  1  0  0  0  0
 15 32  1  0  0  0  0
 16 17  2  0  0  0  0
 16 18  1  0  0  0  0
 17 21  1  0  0  0  0
 17 35  1  0  0  0  0
 18 22  2  0  0  0  0
 18 36  1  0  0  0  0
 19 37  1  0  0  0  0
 19 38  1  0  0  0  0
 19 39  1  0  0  0  0
 20 40  1  0  0  0  0
 20 41  1  0  0  0  0
 20 42  1  0  0  0  0
 21 23  2  0  0  0  0
 21 43  1  0  0  0  0
 22 23  1  0  0  0  0
 22 44  1  0  0  0  0
 23 45  1  0  0  0  0
M  END
> <PUBCHEM_COMPOUND_CID>
10041796

> <PUBCHEM_CONFORMER_RMSD>
0.8

> <PUBCHEM_CONFORMER_DIVERSEORDER>
1
4
5
6
3
2
7

> <PUBCHEM_MMFF94_PARTIAL_CHARGES>
28
1 -0.56
11 0.42
12 0.57
13 0.54
16 -0.14
17 -0.15
18 -0.15
19 0.28
2 -0.68
20 0.28
21 -0.15
22 -0.15
23 -0.15
26 0.37
3 -0.43
33 0.4
34 0.4
35 0.15
36 0.15
4 -0.68
43 0.15
44 0.15
45 0.15
5 -0.57
6 -0.73
7 -0.7
8 0.59
9 0.64

> <PUBCHEM_EFFECTIVE_ROTOR_COUNT>
5.6

> <PUBCHEM_PHARMACOPHORE_FEATURES>
10
1 1 acceptor
1 2 acceptor
1 2 donor
1 4 acceptor
1 4 donor
1 5 acceptor
1 6 donor
3 10 14 15 hydrophobe
6 16 17 18 21 22 23 rings
6 6 7 8 9 12 13 rings

> <PUBCHEM_HEAVY_ATOM_COUNT>
23

> <PUBCHEM_ATOM_DEF_STEREO_COUNT>
3

> <PUBCHEM_ATOM_UDEF_STEREO_COUNT>
0

> <PUBCHEM_BOND_DEF_STEREO_COUNT>
0

> <PUBCHEM_BOND_UDEF_STEREO_COUNT>
0

> <PUBCHEM_ISOTOPIC_ATOM_COUNT>
0

> <PUBCHEM_COMPONENT_COUNT>
1

> <PUBCHEM_CACTVS_TAUTO_COUNT>
2

> <PUBCHEM_CONFORMER_ID>
009939C400000001

> <PUBCHEM_MMFF94_ENERGY>
84.7644

> <PUBCHEM_FEATURE_SELFOVERLAP>
50.815

> <PUBCHEM_SHAPE_FINGERPRINT>
10906281 52 18338249240370157896
11640471 11 15575290911779981382
11961588 58 17605852523452509060
12293681 25 18265354879160546906
12596599 1 18342465846034918707
12788726 201 18261407597729817805
12892183 10 15482390932561056415
13134695 92 15430312478485797790
13149001 5 17460609253542261357
13224815 77 18040994046933620549
14115302 16 17458347450617783994
14178342 30 17915177914930535064
15163728 17 16809005712154941676
16945 1 18341613655318813813
17349148 13 17386280991814745818
1813 80 18408610270844522261
18186145 218 17894344484313108887
18981168 100 13190639281416764910
192875 21 16443060565165571020
20691752 17 17822279228264553965
21033648 29 9367353634906622223
22182313 1 17901692658187466056
23184049 59 12103847882224533545
23227448 37 13263264231875754671
23402539 116 18041548179050255188
23419403 2 17542263431942734812
23557571 272 17988355975578269280
23559900 14 17916589730604609310
2748010 2 17974309895032768704
3286 77 17968084305456249860
3323516 105 18272094906854783551

> <PUBCHEM_SHAPE_MULTIPOLES>
434.02
7.52
2.14
1.98
4.09
0.1
-0.61
-1.24
1.7
-0.05
0.24
-1.4
-0.9
0.37

> <PUBCHEM_SHAPE_SELFOVERLAP>
921.203

> <PUBCHEM_SHAPE_VOLUME>
240.7

> <PUBCHEM_COORDINATE_TYPE>
2
5
10

$$$$
