10044542
  -OEChem-03292013303D

 58 60  0     1  0  0  0  0  0999 V2000
   -2.4694    0.9675   -0.1789 O   0  0  0  0  0  0  0  0  0  0  0  0
   -0.7292   -0.8007   -1.2608 O   0  0  0  0  0  0  0  0  0  0  0  0
    1.5517    2.4730    0.9813 O   0  0  0  0  0  0  0  0  0  0  0  0
    1.2670   -2.4469   -1.2246 O   0  0  0  0  0  0  0  0  0  0  0  0
   -0.8175    3.2541   -0.2899 O   0  0  0  0  0  0  0  0  0  0  0  0
   -1.0545   -2.6957    1.1015 O   0  0  0  0  0  0  0  0  0  0  0  0
    1.0381   -0.6397    0.4708 C   0  0  1  0  0  0  0  0  0  0  0  0
    1.7866    0.4621   -0.4140 C   0  0  2  0  0  0  0  0  0  0  0  0
   -0.5267   -0.5221    0.1424 C   0  0  1  0  0  0  0  0  0  0  0  0
    3.3679    0.4005   -0.4162 C   0  0  0  0  0  0  0  0  0  0  0  0
   -1.1336    0.9011    0.3790 C   0  0  1  0  0  0  0  0  0  0  0  0
    1.1959    1.8931   -0.2637 C   0  0  1  0  0  0  0  0  0  0  0  0
    1.6500   -2.0473    0.0909 C   0  0  2  0  0  0  0  0  0  0  0  0
   -0.3281    1.9232   -0.4710 C   0  0  2  0  0  0  0  0  0  0  0  0
    3.8202   -1.0439   -0.7421 C   0  0  0  0  0  0  0  0  0  0  0  0
    3.1819   -2.0981    0.1503 C   0  0  0  0  0  0  0  0  0  0  0  0
    1.2511   -0.4765    1.9978 C   0  0  0  0  0  0  0  0  0  0  0  0
   -1.4418   -1.5730    0.7790 C   0  0  0  0  0  0  0  0  0  0  0  0
   -1.2641    1.3726    1.8429 C   0  0  0  0  0  0  0  0  0  0  0  0
    3.9304    1.2986   -1.5504 C   0  0  0  0  0  0  0  0  0  0  0  0
    4.0557    0.8702    0.8805 C   0  0  0  0  0  0  0  0  0  0  0  0
   -3.3887   -0.1026    0.0606 C   0  0  1  0  0  0  0  0  0  0  0  0
   -2.8876   -1.1918    1.0150 C   0  0  0  0  0  0  0  0  0  0  0  0
   -4.6581    0.5379    0.6360 C   0  0  0  0  0  0  0  0  0  0  0  0
   -3.7446   -0.6902   -1.2798 C   0  0  0  0  0  0  0  0  0  0  0  0
   -3.6525   -0.0255   -2.4365 C   0  0  0  0  0  0  0  0  0  0  0  0
    1.5270    0.1919   -1.4510 H   0  0  0  0  0  0  0  0  0  0  0  0
    1.6317    2.5476   -1.0264 H   0  0  0  0  0  0  0  0  0  0  0  0
    1.2839   -2.8198    0.7750 H   0  0  0  0  0  0  0  0  0  0  0  0
   -0.5143    1.7140   -1.5323 H   0  0  0  0  0  0  0  0  0  0  0  0
    4.9120   -1.1287   -0.6655 H   0  0  0  0  0  0  0  0  0  0  0  0
    3.5775   -1.2765   -1.7880 H   0  0  0  0  0  0  0  0  0  0  0  0
    3.5186   -3.0824   -0.2003 H   0  0  0  0  0  0  0  0  0  0  0  0
    3.5487   -1.9990    1.1758 H   0  0  0  0  0  0  0  0  0  0  0  0
    1.2971    0.5595    2.3240 H   0  0  0  0  0  0  0  0  0  0  0  0
    0.4525   -0.9651    2.5658 H   0  0  0  0  0  0  0  0  0  0  0  0
    2.1700   -0.9445    2.3554 H   0  0  0  0  0  0  0  0  0  0  0  0
   -2.0702    2.1101    1.9403 H   0  0  0  0  0  0  0  0  0  0  0  0
   -1.5059    0.5608    2.5311 H   0  0  0  0  0  0  0  0  0  0  0  0
   -0.3644    1.8466    2.2320 H   0  0  0  0  0  0  0  0  0  0  0  0
    3.4491    1.0783   -2.5097 H   0  0  0  0  0  0  0  0  0  0  0  0
    3.7898    2.3632   -1.3372 H   0  0  0  0  0  0  0  0  0  0  0  0
    5.0079    1.1405   -1.6800 H   0  0  0  0  0  0  0  0  0  0  0  0
    3.8876    1.9331    1.0744 H   0  0  0  0  0  0  0  0  0  0  0  0
    3.7446    0.3132    1.7622 H   0  0  0  0  0  0  0  0  0  0  0  0
    5.1432    0.7444    0.8047 H   0  0  0  0  0  0  0  0  0  0  0  0
   -3.5028   -2.0969    0.9330 H   0  0  0  0  0  0  0  0  0  0  0  0
   -2.9644   -0.8661    2.0576 H   0  0  0  0  0  0  0  0  0  0  0  0
   -1.3427   -0.1600   -1.6440 H   0  0  0  0  0  0  0  0  0  0  0  0
    1.1597    3.3622    1.0143 H   0  0  0  0  0  0  0  0  0  0  0  0
    0.3076   -2.6008   -1.2191 H   0  0  0  0  0  0  0  0  0  0  0  0
   -0.3082    3.8384   -0.8769 H   0  0  0  0  0  0  0  0  0  0  0  0
   -5.4522   -0.1999    0.7974 H   0  0  0  0  0  0  0  0  0  0  0  0
   -4.4447    1.0248    1.5948 H   0  0  0  0  0  0  0  0  0  0  0  0
   -5.0460    1.3247   -0.0226 H   0  0  0  0  0  0  0  0  0  0  0  0
   -4.1485   -1.6998   -1.3058 H   0  0  0  0  0  0  0  0  0  0  0  0
   -3.9498   -0.5074   -3.3622 H   0  0  0  0  0  0  0  0  0  0  0  0
   -3.2992    0.9971   -2.5024 H   0  0  0  0  0  0  0  0  0  0  0  0
  1 11  1  0  0  0  0
  1 22  1  0  0  0  0
  2  9  1  0  0  0  0
  2 49  1  0  0  0  0
  3 12  1  0  0  0  0
  3 50  1  0  0  0  0
  4 13  1  0  0  0  0
  4 51  1  0  0  0  0
  5 14  1  0  0  0  0
  5 52  1  0  0  0  0
  6 18  2  0  0  0  0
  7  8  1  0  0  0  0
  7  9  1  0  0  0  0
  7 13  1  0  0  0  0
  7 17  1  0  0  0  0
  8 10  1  0  0  0  0
  8 12  1  0  0  0  0
  8 27  1  0  0  0  0
  9 11  1  0  0  0  0
  9 18  1  0  0  0  0
 10 15  1  0  0  0  0
 10 20  1  0  0  0  0
 10 21  1  0  0  0  0
 11 14  1  0  0  0  0
 11 19  1  0  0  0  0
 12 14  1  0  0  0  0
 12 28  1  0  0  0  0
 13 16  1  0  0  0  0
 13 29  1  0  0  0  0
 14 30  1  0  0  0  0
 15 16  1  0  0  0  0
 15 31  1  0  0  0  0
 15 32  1  0  0  0  0
 16 33  1  0  0  0  0
 16 34  1  0  0  0  0
 17 35  1  0  0  0  0
 17 36  1  0  0  0  0
 17 37  1  0  0  0  0
 18 23  1  0  0  0  0
 19 38  1  0  0  0  0
 19 39  1  0  0  0  0
 19 40  1  0  0  0  0
 20 41  1  0  0  0  0
 20 42  1  0  0  0  0
 20 43  1  0  0  0  0
 21 44  1  0  0  0  0
 21 45  1  0  0  0  0
 21 46  1  0  0  0  0
 22 23  1  0  0  0  0
 22 24  1  0  0  0  0
 22 25  1  0  0  0  0
 23 47  1  0  0  0  0
 23 48  1  0  0  0  0
 24 53  1  0  0  0  0
 24 54  1  0  0  0  0
 24 55  1  0  0  0  0
 25 26  2  0  0  0  0
 25 56  1  0  0  0  0
 26 57  1  0  0  0  0
 26 58  1  0  0  0  0
M  END
> <PUBCHEM_COMPOUND_CID>
10044542

> <PUBCHEM_CONFORMER_RMSD>
0.6

> <PUBCHEM_CONFORMER_DIVERSEORDER>
1
2

> <PUBCHEM_MMFF94_PARTIAL_CHARGES>
23
1 -0.56
11 0.28
12 0.28
13 0.28
14 0.28
18 0.45
2 -0.68
22 0.42
23 0.06
25 -0.29
26 -0.3
3 -0.68
4 -0.68
49 0.4
5 -0.68
50 0.4
51 0.4
52 0.4
56 0.15
57 0.15
58 0.15
6 -0.57
9 0.34

> <PUBCHEM_EFFECTIVE_ROTOR_COUNT>
2.8

> <PUBCHEM_PHARMACOPHORE_FEATURES>
15
1 1 acceptor
1 2 acceptor
1 2 donor
1 26 hydrophobe
1 3 acceptor
1 3 donor
1 4 acceptor
1 4 donor
1 5 acceptor
1 5 donor
1 6 acceptor
3 10 20 21 hydrophobe
6 1 9 11 18 22 23 rings
6 7 8 10 13 15 16 rings
6 7 8 9 11 12 14 rings

> <PUBCHEM_HEAVY_ATOM_COUNT>
26

> <PUBCHEM_ATOM_DEF_STEREO_COUNT>
8

> <PUBCHEM_ATOM_UDEF_STEREO_COUNT>
0

> <PUBCHEM_BOND_DEF_STEREO_COUNT>
0

> <PUBCHEM_BOND_UDEF_STEREO_COUNT>
0

> <PUBCHEM_ISOTOPIC_ATOM_COUNT>
0

> <PUBCHEM_COMPONENT_COUNT>
1

> <PUBCHEM_CACTVS_TAUTO_COUNT>
2

> <PUBCHEM_CONFORMER_ID>
0099447E00000001

> <PUBCHEM_MMFF94_ENERGY>
127.8728

> <PUBCHEM_FEATURE_SELFOVERLAP>
76.194

> <PUBCHEM_SHAPE_FINGERPRINT>
10062212 137 18060418010918251879
104564 63 18340494352508273940
10498660 4 18189350107403529604
10863032 1 18334866051338280866
10948715 1 16298378080560727049
10967382 1 18336553788880993482
11578080 2 16878496826535021742
12011746 2 18411146817909088286
12236239 1 17989488516095213073
12553582 1 18410296912595716948
12596599 1 16200157611608709678
12788726 201 17845112695649250248
13140716 1 18193557993821034144
13224815 77 18272364265443960706
13583140 156 16226054413620890224
14223421 5 18339083683637648448
14713325 29 15511133510783547084
14787075 74 17678190488349471667
14790565 3 18191598458295789353
1601671 61 18337679701841757368
16752209 62 18190164720469897849
16945 1 18409454716742860928
17349148 13 18336819819366408322
17357779 13 18336820914145303588
17492 54 18335137639173507116
18186145 218 18113335280427413271
192875 21 18117543051329115826
19862831 5 18260265248129204079
200 152 18131068225229117359
20691752 17 18338502097720981169
20715895 44 17533476977207162261
20905425 154 18338239250201925980
21267235 1 18337406932537116754
21501502 16 18268720402605559522
22182313 1 18050287269287661800
2334 1 17833555969653099264
23402539 116 18340764849574806862
23419403 2 16157983657351264417
23558518 356 18117561721314360456
23559900 14 18334016069311616882
238 59 18341038713748143542
2748010 2 18049443943805853992
296302 2 17022907890618225246
3286 77 16988263318546071563
34934 24 18337109063764773594
350125 39 18193283996561538704
4340502 62 15719398326191950097
633830 44 18263643979074588183
70251023 43 17983286041859310111
9709674 26 18339649919288926870

> <PUBCHEM_SHAPE_MULTIPOLES>
499.85
7.22
2.68
1.65
0.97
0.28
0.24
-0.09
1.88
-0.93
-0.19
0.7
0
0

> <PUBCHEM_SHAPE_SELFOVERLAP>
1056.778

> <PUBCHEM_SHAPE_VOLUME>
273.9

> <PUBCHEM_COORDINATE_TYPE>
2
5
10

$$$$
