100459
  -OEChem-03292013323D

 62 65  0     0  0  0  0  0  0999 V2000
   -1.4876   -2.9747   -1.6730 S   0  0  0  0  0  0  0  0  0  0  0  0
   -3.2014   -2.0579    0.7497 O   0  0  0  0  0  0  0  0  0  0  0  0
    0.5029    1.3426   -0.7284 O   0  0  0  0  0  0  0  0  0  0  0  0
   -2.2967   -4.0508   -1.1340 O   0  0  0  0  0  0  0  0  0  0  0  0
   -1.1055   -2.9717   -3.0718 O   0  0  0  0  0  0  0  0  0  0  0  0
    1.4500    0.1352    1.5433 O   0  0  0  0  0  0  0  0  0  0  0  0
   -3.4375    0.0951   -0.0583 N   0  0  0  0  0  0  0  0  0  0  0  0
   -2.2075   -1.4744   -1.2818 N   0  0  0  0  0  0  0  0  0  0  0  0
    3.7424   -0.2133    1.4801 N   0  0  0  0  0  0  0  0  0  0  0  0
   -4.2374    0.6071    1.0322 C   0  0  0  0  0  0  0  0  0  0  0  0
   -5.2180    1.6774    0.5410 C   0  0  0  0  0  0  0  0  0  0  0  0
   -3.3508    1.1425    2.1615 C   0  0  0  0  0  0  0  0  0  0  0  0
   -4.5188    2.9853    0.1703 C   0  0  0  0  0  0  0  0  0  0  0  0
   -2.6546    2.4513    1.7882 C   0  0  0  0  0  0  0  0  0  0  0  0
   -3.6518    3.5039    1.3135 C   0  0  0  0  0  0  0  0  0  0  0  0
   -2.9820   -1.2081   -0.1082 C   0  0  0  0  0  0  0  0  0  0  0  0
    1.8393    3.0760   -1.4534 C   0  0  0  0  0  0  0  0  0  0  0  0
    0.5825    3.2623   -2.2104 C   0  0  0  0  0  0  0  0  0  0  0  0
    0.0076   -2.8875   -0.7345 C   0  0  0  0  0  0  0  0  0  0  0  0
    1.7112    1.9815   -0.6112 C   0  0  0  0  0  0  0  0  0  0  0  0
   -0.0679    1.9061   -1.9333 C   0  0  0  0  0  0  0  0  0  0  0  0
    2.7133    1.6101    0.2637 C   0  0  0  0  0  0  0  0  0  0  0  0
    3.6121   -2.6788    1.5255 C   0  0  0  0  0  0  0  0  0  0  0  0
    2.3498   -2.7511    0.7347 C   0  0  0  0  0  0  0  0  0  0  0  0
    3.7617   -1.3780    2.3240 C   0  0  0  0  0  0  0  0  0  0  0  0
    0.0200   -3.3674    0.5638 C   0  0  0  0  0  0  0  0  0  0  0  0
    1.1389   -2.3410   -1.3153 C   0  0  0  0  0  0  0  0  0  0  0  0
    2.9894    3.8433   -1.4496 C   0  0  0  0  0  0  0  0  0  0  0  0
    1.2003   -3.2986    1.3041 C   0  0  0  0  0  0  0  0  0  0  0  0
    2.3192   -2.2724   -0.5751 C   0  0  0  0  0  0  0  0  0  0  0  0
    2.5697    0.4572    1.1546 C   0  0  0  0  0  0  0  0  0  0  0  0
    3.8845    2.3699    0.2702 C   0  0  0  0  0  0  0  0  0  0  0  0
    4.0225    3.4786   -0.5819 C   0  0  0  0  0  0  0  0  0  0  0  0
   -4.8218   -0.2327    1.4286 H   0  0  0  0  0  0  0  0  0  0  0  0
   -5.7816    1.3089   -0.3245 H   0  0  0  0  0  0  0  0  0  0  0  0
   -5.9494    1.8814    1.3336 H   0  0  0  0  0  0  0  0  0  0  0  0
   -3.9721    1.3160    3.0495 H   0  0  0  0  0  0  0  0  0  0  0  0
   -2.5959    0.3990    2.4443 H   0  0  0  0  0  0  0  0  0  0  0  0
   -3.8999    2.8414   -0.7231 H   0  0  0  0  0  0  0  0  0  0  0  0
   -5.2709    3.7395   -0.0883 H   0  0  0  0  0  0  0  0  0  0  0  0
   -2.1028    2.8329    2.6548 H   0  0  0  0  0  0  0  0  0  0  0  0
   -1.9153    2.2654    0.9997 H   0  0  0  0  0  0  0  0  0  0  0  0
   -4.2940    3.8010    2.1517 H   0  0  0  0  0  0  0  0  0  0  0  0
   -3.1138    4.4022    0.9901 H   0  0  0  0  0  0  0  0  0  0  0  0
   -3.1554    0.7280   -0.8002 H   0  0  0  0  0  0  0  0  0  0  0  0
   -2.1044   -0.7161   -1.9680 H   0  0  0  0  0  0  0  0  0  0  0  0
   -0.0049    4.0773   -1.7757 H   0  0  0  0  0  0  0  0  0  0  0  0
    0.7291    3.4329   -3.2798 H   0  0  0  0  0  0  0  0  0  0  0  0
    0.1215    1.2008   -2.7527 H   0  0  0  0  0  0  0  0  0  0  0  0
   -1.1522    1.9971   -1.8110 H   0  0  0  0  0  0  0  0  0  0  0  0
    3.6692   -3.5313    2.2143 H   0  0  0  0  0  0  0  0  0  0  0  0
    4.4702   -2.7914    0.8492 H   0  0  0  0  0  0  0  0  0  0  0  0
    4.7184   -1.3793    2.8566 H   0  0  0  0  0  0  0  0  0  0  0  0
    2.9614   -1.2938    3.0681 H   0  0  0  0  0  0  0  0  0  0  0  0
    3.0897    4.7101   -2.0937 H   0  0  0  0  0  0  0  0  0  0  0  0
   -0.8651   -3.7929    1.0261 H   0  0  0  0  0  0  0  0  0  0  0  0
    1.1337   -1.9542   -2.3297 H   0  0  0  0  0  0  0  0  0  0  0  0
    1.2106   -3.6720    2.3248 H   0  0  0  0  0  0  0  0  0  0  0  0
    3.2073   -1.8447   -1.0329 H   0  0  0  0  0  0  0  0  0  0  0  0
    4.7066    2.1532    0.9471 H   0  0  0  0  0  0  0  0  0  0  0  0
    4.6267    0.0683    1.0701 H   0  0  0  0  0  0  0  0  0  0  0  0
    4.9362    4.0663   -0.5551 H   0  0  0  0  0  0  0  0  0  0  0  0
  1  4  2  0  0  0  0
  1  5  2  0  0  0  0
  1  8  1  0  0  0  0
  1 19  1  0  0  0  0
  2 16  2  0  0  0  0
  3 20  1  0  0  0  0
  3 21  1  0  0  0  0
  6 31  2  0  0  0  0
  7 10  1  0  0  0  0
  7 16  1  0  0  0  0
  7 45  1  0  0  0  0
  8 16  1  0  0  0  0
  8 46  1  0  0  0  0
  9 25  1  0  0  0  0
  9 31  1  0  0  0  0
  9 61  1  0  0  0  0
 10 11  1  0  0  0  0
 10 12  1  0  0  0  0
 10 34  1  0  0  0  0
 11 13  1  0  0  0  0
 11 35  1  0  0  0  0
 11 36  1  0  0  0  0
 12 14  1  0  0  0  0
 12 37  1  0  0  0  0
 12 38  1  0  0  0  0
 13 15  1  0  0  0  0
 13 39  1  0  0  0  0
 13 40  1  0  0  0  0
 14 15  1  0  0  0  0
 14 41  1  0  0  0  0
 14 42  1  0  0  0  0
 15 43  1  0  0  0  0
 15 44  1  0  0  0  0
 17 18  1  0  0  0  0
 17 20  2  0  0  0  0
 17 28  1  0  0  0  0
 18 21  1  0  0  0  0
 18 47  1  0  0  0  0
 18 48  1  0  0  0  0
 19 26  2  0  0  0  0
 19 27  1  0  0  0  0
 20 22  1  0  0  0  0
 21 49  1  0  0  0  0
 21 50  1  0  0  0  0
 22 31  1  0  0  0  0
 22 32  2  0  0  0  0
 23 24  1  0  0  0  0
 23 25  1  0  0  0  0
 23 51  1  0  0  0  0
 23 52  1  0  0  0  0
 24 29  2  0  0  0  0
 24 30  1  0  0  0  0
 25 53  1  0  0  0  0
 25 54  1  0  0  0  0
 26 29  1  0  0  0  0
 26 56  1  0  0  0  0
 27 30  2  0  0  0  0
 27 57  1  0  0  0  0
 28 33  2  0  0  0  0
 28 55  1  0  0  0  0
 29 58  1  0  0  0  0
 30 59  1  0  0  0  0
 32 33  1  0  0  0  0
 32 60  1  0  0  0  0
 33 62  1  0  0  0  0
M  END
> <PUBCHEM_COMPOUND_CID>
100459

> <PUBCHEM_CONFORMER_RMSD>
1.2

> <PUBCHEM_CONFORMER_DIVERSEORDER>
1
83
114
296
120
132
46
323
298
64
291
51
270
137
282
185
235
264
74
25
169
161
214
55
199
243
71
158
241
128
68
193
143
129
151
188
48
261
150
276
336
152
289
180
139
218
88
253
335
256
61
208
219
239
292
90
207
82
320
123
50
224
329
277
2
159
101
195
115
148
81
146
24
67
301
266
47
308
15
175
314
233
108
221
31
327
118
72
116
294
126
23
113
217
92
200
45
95
66
269
215
11
197
337
339
110
58
311
3
231
53
324
93
42
75
142
332
295
41
37
79
39
194
305
173
85
17
4
318
65
117
105
103
249
106
290
334
44
73
293
226
70
28
275
236
331
182
316
279
225
304
14
201
6
121
319
34
135
18
246
240
179
130
211
52
134
167
278
267
160
111
326
22
227
330
230
156
35
141
170
138
309
124
189
286
43
100
140
288
187
281
176
112
16
312
168
204
104
136
245
177
49
56
91
340
285
33
280
27
313
76
307
181
166
186
254
54
263
212
333
196
321
59
255
162
20
77
202
63
184
163
9
238
268
147
242
87
232
216
69
222
247
206
153
119
328
149
297
257
62
5
325
40
127
228
107
303
272
13
94
122
317
125
178
258
252
80
190
154
10
7
234
205
306
157
259
322
29
250
299
265
8
145
89
338
260
198
209
210
271
302
84
32
284
171
57
262
78
102
229
220
213
174
133
248
144
26
191
96
131
274
99
21
12
300
244
109
155
203
315
86
60
192
36
98
97
283
183
237
19
251
165
164
172
273
38
310
30
223
287

> <PUBCHEM_MMFF94_PARTIAL_CHARGES>
38
1 1.45
10 0.3
16 0.87
17 -0.14
18 0.14
19 -0.01
2 -0.57
20 0.08
21 0.28
22 0.09
23 0.14
24 -0.14
25 0.3
26 -0.15
27 -0.15
28 -0.15
29 -0.15
3 -0.36
30 -0.15
31 0.54
32 -0.15
33 -0.15
4 -0.65
45 0.37
46 0.42
5 -0.65
55 0.15
56 0.15
57 0.15
58 0.15
59 0.15
6 -0.57
60 0.15
61 0.37
62 0.15
7 -0.73
8 -0.79
9 -0.73

> <PUBCHEM_EFFECTIVE_ROTOR_COUNT>
11.8

> <PUBCHEM_PHARMACOPHORE_FEATURES>
12
1 2 acceptor
1 3 acceptor
1 4 acceptor
1 5 acceptor
1 6 acceptor
1 7 donor
1 8 donor
1 9 donor
5 3 17 18 20 21 rings
6 10 11 12 13 14 15 rings
6 17 20 22 28 32 33 rings
6 19 24 26 27 29 30 rings

> <PUBCHEM_HEAVY_ATOM_COUNT>
33

> <PUBCHEM_ATOM_DEF_STEREO_COUNT>
0

> <PUBCHEM_ATOM_UDEF_STEREO_COUNT>
0

> <PUBCHEM_BOND_DEF_STEREO_COUNT>
0

> <PUBCHEM_BOND_UDEF_STEREO_COUNT>
0

> <PUBCHEM_ISOTOPIC_ATOM_COUNT>
0

> <PUBCHEM_COMPONENT_COUNT>
1

> <PUBCHEM_CACTVS_TAUTO_COUNT>
6

> <PUBCHEM_CONFORMER_ID>
0001886B00000001

> <PUBCHEM_MMFF94_ENERGY>
49.236

> <PUBCHEM_FEATURE_SELFOVERLAP>
61.069

> <PUBCHEM_SHAPE_FINGERPRINT>
11421498 54 17906173202024216586
11513181 2 17703221815338282942
11763715 3 17268033137532962790
12156800 1 13965010717728028254
12422481 6 18196914622912212170
12539773 59 17838602706349646030
12788726 201 17764876079598855831
14114206 34 17620748822823245157
15274700 34 18335711516816258201
15463212 79 18122634013525481001
16112460 7 18190736639085634304
16120349 306 18265613367160650096
161222 619 17546152018176382596
19319366 153 17974859676648141497
20739085 24 18186521003687226180
20764821 26 17758938351610038396
21796203 349 18114752529952503312
21860390 5 18041853804659726776
3493558 16 18261379092954572887
35225 105 17916306224171774669
3534868 343 17982703536508899118
50150288 127 15733808791726284045
550186 7 17481732040127768916
5951187 136 15840991049174990689

> <PUBCHEM_SHAPE_MULTIPOLES>
638.68
8.58
6.65
2.37
7.68
0.03
0.44
5.2
-4.98
-2.53
2.86
-0.17
-0.41
-3.55

> <PUBCHEM_SHAPE_SELFOVERLAP>
1352.893

> <PUBCHEM_SHAPE_VOLUME>
356.7

> <PUBCHEM_COORDINATE_TYPE>
2
5
10

$$$$
