10042612
  -OEChem-03292013303D

 40 42  0     1  0  0  0  0  0999 V2000
    3.5188    1.0175   -1.6704 O   0  0  0  0  0  0  0  0  0  0  0  0
    5.0222   -0.8411   -0.1100 O   0  0  0  0  0  0  0  0  0  0  0  0
    2.6986   -2.3774    0.8375 O   0  0  0  0  0  0  0  0  0  0  0  0
   -0.3192    2.6639    0.4136 O   0  0  0  0  0  0  0  0  0  0  0  0
    0.3073   -2.7806   -0.2347 O   0  0  0  0  0  0  0  0  0  0  0  0
   -2.8224    2.2861    0.3892 O   0  0  0  0  0  0  0  0  0  0  0  0
   -2.2122   -2.9881   -0.2107 O   0  0  0  0  0  0  0  0  0  0  0  0
   -5.0935    0.7085    0.2263 O   0  0  0  0  0  0  0  0  0  0  0  0
    3.5992    1.1070   -0.2433 C   0  0  2  0  0  0  0  0  0  0  0  0
    3.7877   -0.2941    0.3582 C   0  0  1  0  0  0  0  0  0  0  0  0
    2.2840    1.7147    0.2672 C   0  0  0  0  0  0  0  0  0  0  0  0
    2.6476   -1.2446   -0.0337 C   0  0  2  0  0  0  0  0  0  0  0  0
    1.1056    0.7721    0.1765 C   0  0  0  0  0  0  0  0  0  0  0  0
    1.2738   -0.6184    0.0547 C   0  0  0  0  0  0  0  0  0  0  0  0
    4.7706    2.0375    0.0886 C   0  0  0  0  0  0  0  0  0  0  0  0
   -0.1900    1.3118    0.2537 C   0  0  0  0  0  0  0  0  0  0  0  0
    0.1342   -1.4374   -0.0419 C   0  0  0  0  0  0  0  0  0  0  0  0
   -1.3148    0.4845    0.1760 C   0  0  0  0  0  0  0  0  0  0  0  0
   -1.1521   -0.8897    0.0226 C   0  0  0  0  0  0  0  0  0  0  0  0
   -2.6643    1.0788    0.2521 C   0  0  0  0  0  0  0  0  0  0  0  0
   -2.3274   -1.7765   -0.0724 C   0  0  0  0  0  0  0  0  0  0  0  0
   -3.8276    0.1632    0.1566 C   0  0  0  0  0  0  0  0  0  0  0  0
   -3.6644   -1.1531    0.0066 C   0  0  0  0  0  0  0  0  0  0  0  0
   -5.5615    1.0555   -1.0623 C   0  0  0  0  0  0  0  0  0  0  0  0
    3.8681   -0.2207    1.4508 H   0  0  0  0  0  0  0  0  0  0  0  0
    2.0799    2.6099   -0.3347 H   0  0  0  0  0  0  0  0  0  0  0  0
    2.3957    2.0129    1.3176 H   0  0  0  0  0  0  0  0  0  0  0  0
    2.8048   -1.6169   -1.0534 H   0  0  0  0  0  0  0  0  0  0  0  0
    4.9070    2.1430    1.1697 H   0  0  0  0  0  0  0  0  0  0  0  0
    5.7074    1.6711   -0.3457 H   0  0  0  0  0  0  0  0  0  0  0  0
    4.6062    3.0337   -0.3382 H   0  0  0  0  0  0  0  0  0  0  0  0
    4.3283    0.5795   -1.9847 H   0  0  0  0  0  0  0  0  0  0  0  0
    5.1122   -1.7281    0.2784 H   0  0  0  0  0  0  0  0  0  0  0  0
    2.4263   -2.0890    1.7258 H   0  0  0  0  0  0  0  0  0  0  0  0
    0.4452    3.0255    0.8897 H   0  0  0  0  0  0  0  0  0  0  0  0
   -0.5106   -3.1939   -0.5489 H   0  0  0  0  0  0  0  0  0  0  0  0
   -4.5194   -1.8182   -0.0618 H   0  0  0  0  0  0  0  0  0  0  0  0
   -6.5538    1.5037   -0.9550 H   0  0  0  0  0  0  0  0  0  0  0  0
   -5.6596    0.1713   -1.7019 H   0  0  0  0  0  0  0  0  0  0  0  0
   -4.9086    1.7941   -1.5405 H   0  0  0  0  0  0  0  0  0  0  0  0
  1  9  1  0  0  0  0
  1 32  1  0  0  0  0
  2 10  1  0  0  0  0
  2 33  1  0  0  0  0
  3 12  1  0  0  0  0
  3 34  1  0  0  0  0
  4 16  1  0  0  0  0
  4 35  1  0  0  0  0
  5 17  1  0  0  0  0
  5 36  1  0  0  0  0
  6 20  2  0  0  0  0
  7 21  2  0  0  0  0
  8 22  1  0  0  0  0
  8 24  1  0  0  0  0
  9 10  1  0  0  0  0
  9 11  1  0  0  0  0
  9 15  1  0  0  0  0
 10 12  1  0  0  0  0
 10 25  1  0  0  0  0
 11 13  1  0  0  0  0
 11 26  1  0  0  0  0
 11 27  1  0  0  0  0
 12 14  1  0  0  0  0
 12 28  1  0  0  0  0
 13 14  2  0  0  0  0
 13 16  1  0  0  0  0
 14 17  1  0  0  0  0
 15 29  1  0  0  0  0
 15 30  1  0  0  0  0
 15 31  1  0  0  0  0
 16 18  2  0  0  0  0
 17 19  2  0  0  0  0
 18 19  1  0  0  0  0
 18 20  1  0  0  0  0
 19 21  1  0  0  0  0
 20 22  1  0  0  0  0
 21 23  1  0  0  0  0
 22 23  2  0  0  0  0
 23 37  1  0  0  0  0
 24 38  1  0  0  0  0
 24 39  1  0  0  0  0
 24 40  1  0  0  0  0
M  END
> <PUBCHEM_COMPOUND_CID>
10042612

> <PUBCHEM_CONFORMER_RMSD>
0.6

> <PUBCHEM_CONFORMER_DIVERSEORDER>
2
1

> <PUBCHEM_MMFF94_PARTIAL_CHARGES>
29
1 -0.68
10 0.28
11 0.14
12 0.42
13 -0.14
14 -0.14
16 0.08
17 0.08
18 0.09
19 0.09
2 -0.68
20 0.47
21 0.47
22 0.09
23 -0.14
24 0.28
3 -0.68
32 0.4
33 0.4
34 0.4
35 0.45
36 0.45
37 0.15
4 -0.53
5 -0.53
6 -0.57
7 -0.57
8 -0.36
9 0.28

> <PUBCHEM_EFFECTIVE_ROTOR_COUNT>
1.8

> <PUBCHEM_PHARMACOPHORE_FEATURES>
14
1 1 acceptor
1 1 donor
1 2 acceptor
1 2 donor
1 3 acceptor
1 3 donor
1 4 donor
1 5 donor
1 6 acceptor
1 7 acceptor
1 8 acceptor
6 13 14 16 17 18 19 rings
6 18 19 20 21 22 23 rings
6 9 10 11 12 13 14 rings

> <PUBCHEM_HEAVY_ATOM_COUNT>
24

> <PUBCHEM_ATOM_DEF_STEREO_COUNT>
3

> <PUBCHEM_ATOM_UDEF_STEREO_COUNT>
0

> <PUBCHEM_BOND_DEF_STEREO_COUNT>
0

> <PUBCHEM_BOND_UDEF_STEREO_COUNT>
0

> <PUBCHEM_ISOTOPIC_ATOM_COUNT>
0

> <PUBCHEM_COMPONENT_COUNT>
1

> <PUBCHEM_CACTVS_TAUTO_COUNT>
27

> <PUBCHEM_CONFORMER_ID>
00993CF400000002

> <PUBCHEM_MMFF94_ENERGY>
85.5521

> <PUBCHEM_FEATURE_SELFOVERLAP>
71.113

> <PUBCHEM_SHAPE_FINGERPRINT>
10411042 1 17042324411752444046
10498660 4 18411986900711848740
10616163 171 18339927120393317703
10759866 29 18260555532347621934
10906281 52 18200609024925689985
10967382 1 18411982429518868963
1100329 8 18409444770089512826
12011746 2 18412823556320273637
12236239 1 17967530212005000072
12403260 363 18195518204199599187
12403814 3 17821726143940747541
12788726 201 17775013353395376785
12838862 33 18338776962653618648
13140716 1 18410295765823501674
13224815 77 18409733984211733528
138480 1 17547010728410645327
14790565 3 18269282262044249297
15196674 1 18411418448773361498
15442244 35 18266176137046945066
15536298 74 18342177782578291504
1601671 61 18335419101276326228
16945 1 18196660583521481571
17349148 13 18201430329360812003
17492 89 18409449167598577258
19591789 44 18411983533314940491
200 152 17918269857808385105
20510252 161 18201164346547669672
20715895 44 18262228920347122365
21267235 1 18411428284290836322
21421861 104 17968646121749302242
21859007 373 17824799192994193092
23227448 37 18411698820281022607
2334 1 18411981403016520890
23402539 116 18272081725315133590
23559900 14 18271809060013023264
2748010 2 18341332296253258195
3004659 81 18333448725310713402
335352 9 18411136914152490150
34934 24 18411414046405424914
350125 39 18408603630893420148
4409770 3 16383377704538060966
474 4 17677056844980493588
5104073 3 18410293648420319618
59755656 215 18340773637652992318
633830 44 17168143485464287776
7097593 13 17972587797868246082
9709674 26 18342746204072595966

> <PUBCHEM_SHAPE_MULTIPOLES>
446.95
9.78
2.83
0.79
1.83
0.84
-0.18
-3.05
-1.41
-0.01
0.16
-0.12
-0.13
-0.25

> <PUBCHEM_SHAPE_SELFOVERLAP>
989.991

> <PUBCHEM_SHAPE_VOLUME>
236.6

> <PUBCHEM_COORDINATE_TYPE>
2
5
10

$$$$
