10048965
  -OEChem-03292013303D

 46 49  0     1  0  0  0  0  0999 V2000
   -2.1307    4.1404    0.6250 Cl  0  0  0  0  0  0  0  0  0  0  0  0
    5.8679   -2.3096   -0.4042 Cl  0  0  0  0  0  0  0  0  0  0  0  0
   -2.6956    1.5087   -2.2697 O   0  0  0  0  0  0  0  0  0  0  0  0
   -4.8025    0.1048   -1.0623 O   0  0  0  0  0  0  0  0  0  0  0  0
   -4.4833   -2.5187   -0.3147 O   0  0  0  0  0  0  0  0  0  0  0  0
    0.3841   -0.1557   -0.1042 O   0  0  0  0  0  0  0  0  0  0  0  0
   -2.2171   -3.2947    1.8674 O   0  0  0  0  0  0  0  0  0  0  0  0
    3.5032    2.5056    0.4218 O   0  0  0  0  0  0  0  0  0  0  0  0
    5.1926    0.5329    0.0930 O   0  0  0  0  0  0  0  0  0  0  0  0
   -0.9856    1.7534    0.2163 N   0  0  0  0  0  0  0  0  0  0  0  0
   -2.2836    1.0612    0.0718 C   0  0  1  0  0  0  0  0  0  0  0  0
   -2.4335    0.4560   -1.3423 C   0  0  1  0  0  0  0  0  0  0  0  0
   -3.5774   -0.5600   -1.3893 C   0  0  1  0  0  0  0  0  0  0  0  0
   -3.3199   -1.6979   -0.3897 C   0  0  1  0  0  0  0  0  0  0  0  0
   -2.4919    0.0561    1.1824 C   0  0  0  0  0  0  0  0  0  0  0  0
   -2.9384   -1.1991    0.9882 C   0  0  0  0  0  0  0  0  0  0  0  0
    0.2287    1.1450    0.1263 C   0  0  0  0  0  0  0  0  0  0  0  0
   -0.8039    3.0903    0.4589 C   0  0  0  0  0  0  0  0  0  0  0  0
    1.2041    2.0967    0.3122 C   0  0  0  0  0  0  0  0  0  0  0  0
   -3.0390   -2.1734    2.1272 C   0  0  0  0  0  0  0  0  0  0  0  0
    0.5543    3.3330    0.5237 C   0  0  0  0  0  0  0  0  0  0  0  0
    2.5926    1.7067    0.2645 C   0  0  0  0  0  0  0  0  0  0  0  0
    1.6930   -0.6060   -0.1646 C   0  0  0  0  0  0  0  0  0  0  0  0
    2.8037    0.2500    0.0061 C   0  0  0  0  0  0  0  0  0  0  0  0
    1.8856   -1.9654   -0.4051 C   0  0  0  0  0  0  0  0  0  0  0  0
    4.0985   -0.2660   -0.0663 C   0  0  0  0  0  0  0  0  0  0  0  0
    3.1826   -2.4741   -0.4759 C   0  0  0  0  0  0  0  0  0  0  0  0
    4.2829   -1.6290   -0.3076 C   0  0  0  0  0  0  0  0  0  0  0  0
    0.7286   -2.8910   -0.5890 C   0  0  0  0  0  0  0  0  0  0  0  0
   -3.0674    1.8139    0.1969 H   0  0  0  0  0  0  0  0  0  0  0  0
   -1.5154   -0.0381   -1.6766 H   0  0  0  0  0  0  0  0  0  0  0  0
   -3.7074   -0.9564   -2.4028 H   0  0  0  0  0  0  0  0  0  0  0  0
   -2.5001   -2.3182   -0.7734 H   0  0  0  0  0  0  0  0  0  0  0  0
   -2.2427    0.3830    2.1898 H   0  0  0  0  0  0  0  0  0  0  0  0
   -4.0710   -2.5061    2.2803 H   0  0  0  0  0  0  0  0  0  0  0  0
   -2.7009   -1.7295    3.0694 H   0  0  0  0  0  0  0  0  0  0  0  0
   -2.7939    1.1063   -3.1494 H   0  0  0  0  0  0  0  0  0  0  0  0
    1.0173    4.2937    0.7031 H   0  0  0  0  0  0  0  0  0  0  0  0
   -5.5037   -0.5690   -1.0548 H   0  0  0  0  0  0  0  0  0  0  0  0
   -4.2098   -3.4046   -0.0238 H   0  0  0  0  0  0  0  0  0  0  0  0
   -2.6493   -3.8414    1.1907 H   0  0  0  0  0  0  0  0  0  0  0  0
    3.3395   -3.5345   -0.6629 H   0  0  0  0  0  0  0  0  0  0  0  0
    0.1049   -2.5610   -1.4264 H   0  0  0  0  0  0  0  0  0  0  0  0
    1.0523   -3.9145   -0.8058 H   0  0  0  0  0  0  0  0  0  0  0  0
    0.1221   -2.9226    0.3214 H   0  0  0  0  0  0  0  0  0  0  0  0
    5.9926   -0.0139    0.0074 H   0  0  0  0  0  0  0  0  0  0  0  0
  1 18  1  0  0  0  0
  2 28  1  0  0  0  0
  3 12  1  0  0  0  0
  3 37  1  0  0  0  0
  4 13  1  0  0  0  0
  4 39  1  0  0  0  0
  5 14  1  0  0  0  0
  5 40  1  0  0  0  0
  6 17  1  0  0  0  0
  6 23  1  0  0  0  0
  7 20  1  0  0  0  0
  7 41  1  0  0  0  0
  8 22  2  0  0  0  0
  9 26  1  0  0  0  0
  9 46  1  0  0  0  0
 10 11  1  0  0  0  0
 10 17  1  0  0  0  0
 10 18  1  0  0  0  0
 11 12  1  0  0  0  0
 11 15  1  0  0  0  0
 11 30  1  0  0  0  0
 12 13  1  0  0  0  0
 12 31  1  0  0  0  0
 13 14  1  0  0  0  0
 13 32  1  0  0  0  0
 14 16  1  0  0  0  0
 14 33  1  0  0  0  0
 15 16  2  0  0  0  0
 15 34  1  0  0  0  0
 16 20  1  0  0  0  0
 17 19  2  0  0  0  0
 18 21  2  0  0  0  0
 19 21  1  0  0  0  0
 19 22  1  0  0  0  0
 20 35  1  0  0  0  0
 20 36  1  0  0  0  0
 21 38  1  0  0  0  0
 22 24  1  0  0  0  0
 23 24  2  0  0  0  0
 23 25  1  0  0  0  0
 24 26  1  0  0  0  0
 25 27  2  0  0  0  0
 25 29  1  0  0  0  0
 26 28  2  0  0  0  0
 27 28  1  0  0  0  0
 27 42  1  0  0  0  0
 29 43  1  0  0  0  0
 29 44  1  0  0  0  0
 29 45  1  0  0  0  0
M  END
> <PUBCHEM_COMPOUND_CID>
10048965

> <PUBCHEM_CONFORMER_RMSD>
0.8

> <PUBCHEM_CONFORMER_DIVERSEORDER>
1
15
13
7
5
16
11
6
9
12
4
10
3
8
14
2
17

> <PUBCHEM_MMFF94_PARTIAL_CHARGES>
37
1 -0.12
10 0.05
11 0.39
12 0.28
13 0.28
14 0.42
15 -0.29
16 -0.28
17 -0.09
18 -0.03
19 -0.09
2 -0.18
20 0.42
21 -0.15
22 0.57
23 0.08
24 0.09
25 -0.14
26 0.08
27 -0.15
28 0.18
29 0.14
3 -0.68
34 0.15
37 0.4
38 0.15
39 0.4
4 -0.68
40 0.4
41 0.4
42 0.15
46 0.45
5 -0.68
6 -0.15
7 -0.68
8 -0.57
9 -0.53

> <PUBCHEM_EFFECTIVE_ROTOR_COUNT>
2.8

> <PUBCHEM_PHARMACOPHORE_FEATURES>
16
1 10 cation
1 3 acceptor
1 3 donor
1 4 acceptor
1 4 donor
1 5 acceptor
1 5 donor
1 6 acceptor
1 7 acceptor
1 7 donor
1 8 acceptor
1 9 donor
5 10 17 18 19 21 rings
6 11 12 13 14 15 16 rings
6 23 24 25 26 27 28 rings
6 6 17 19 22 23 24 rings

> <PUBCHEM_HEAVY_ATOM_COUNT>
29

> <PUBCHEM_ATOM_DEF_STEREO_COUNT>
0

> <PUBCHEM_ATOM_UDEF_STEREO_COUNT>
4

> <PUBCHEM_BOND_DEF_STEREO_COUNT>
0

> <PUBCHEM_BOND_UDEF_STEREO_COUNT>
0

> <PUBCHEM_ISOTOPIC_ATOM_COUNT>
0

> <PUBCHEM_COMPONENT_COUNT>
1

> <PUBCHEM_CACTVS_TAUTO_COUNT>
5

> <PUBCHEM_CONFORMER_ID>
009955C500000001

> <PUBCHEM_MMFF94_ENERGY>
62.4793

> <PUBCHEM_FEATURE_SELFOVERLAP>
81.357

> <PUBCHEM_SHAPE_FINGERPRINT>
10616163 171 18126847097348415542
10675989 125 17541359259807561829
10967382 1 18197495336617909460
1100329 8 17256527418214932986
11135609 12 18041855020072155001
11582403 64 16173051506796179085
12553582 1 18340503200071974667
12596599 1 17489039269708900463
12788726 201 18193831549009640569
13140716 1 18272092635097178584
13224815 77 18343021073420993942
13402501 40 18335698394710259335
13544653 18 18410298025123829708
138480 1 15169679487165853593
13911987 19 17905047298044797308
14790565 3 17329440952402159664
14866123 147 18197500619554485841
18927931 339 18199475372513311726
19591789 44 17762910161741646736
21133410 171 17546104919782065311
221490 88 18411141329489451494
23558518 356 18337115553513527744
23559900 14 18410562994457221928
238 59 17906697596462293495
3380486 145 18120664779699454915
34934 24 17764309444848623184
46194498 28 17823688866743832341
463206 1 18195521717430645623
5104073 3 18200027327656079472
5309563 4 18341333408850364807
57527452 28 16199568235464984375
9709674 26 18409729547341705032

> <PUBCHEM_SHAPE_MULTIPOLES>
554.48
9.49
4.54
1.34
7.86
2.06
0.04
-5.7
-1.4
-1.49
1.26
-1.92
-0.62
1.24

> <PUBCHEM_SHAPE_SELFOVERLAP>
1209.792

> <PUBCHEM_SHAPE_VOLUME>
302.4

> <PUBCHEM_COORDINATE_TYPE>
2
5
10

$$$$
