100552
  -OEChem-03292013323D

 29 30  0     1  0  0  0  0  0999 V2000
   -2.9918   -2.9388    0.7830 Cl  0  0  0  0  0  0  0  0  0  0  0  0
   -1.3725   -0.3952    0.9299 O   0  0  0  0  0  0  0  0  0  0  0  0
   -0.9308    0.3248   -1.9488 O   0  0  0  0  0  0  0  0  0  0  0  0
   -3.1802    2.0738    0.2592 O   0  0  0  0  0  0  0  0  0  0  0  0
    1.7137    2.2911    0.7740 O   0  0  0  0  0  0  0  0  0  0  0  0
    0.7746    0.2498    0.2464 N   0  0  0  0  0  0  0  0  0  0  0  0
    3.1622    0.6255    0.2453 N   0  0  0  0  0  0  0  0  0  0  0  0
    4.6408   -1.0849   -0.2990 N   0  0  0  0  0  0  0  0  0  0  0  0
   -1.2570    1.1624   -0.8459 C   0  0  1  0  0  0  0  0  0  0  0  0
   -2.7187    0.9618   -0.5047 C   0  0  1  0  0  0  0  0  0  0  0  0
   -0.5771    0.6871    0.4287 C   0  0  1  0  0  0  0  0  0  0  0  0
   -2.7081   -0.2724    0.3990 C   0  0  1  0  0  0  0  0  0  0  0  0
   -3.0373   -1.5636   -0.3369 C   0  0  0  0  0  0  0  0  0  0  0  0
    1.0080   -1.0653   -0.1327 C   0  0  0  0  0  0  0  0  0  0  0  0
    1.8825    1.1171    0.4393 C   0  0  0  0  0  0  0  0  0  0  0  0
    2.2305   -1.5569   -0.3254 C   0  0  0  0  0  0  0  0  0  0  0  0
    3.3611   -0.6163   -0.1114 C   0  0  0  0  0  0  0  0  0  0  0  0
   -0.9832    2.1931   -1.0916 H   0  0  0  0  0  0  0  0  0  0  0  0
   -3.3750    0.8508   -1.3726 H   0  0  0  0  0  0  0  0  0  0  0  0
   -0.5997    1.4786    1.1874 H   0  0  0  0  0  0  0  0  0  0  0  0
   -3.3903   -0.1444    1.2483 H   0  0  0  0  0  0  0  0  0  0  0  0
   -2.3116   -1.7806   -1.1252 H   0  0  0  0  0  0  0  0  0  0  0  0
   -4.0372   -1.5226   -0.7786 H   0  0  0  0  0  0  0  0  0  0  0  0
   -1.4347    0.6445   -2.7165 H   0  0  0  0  0  0  0  0  0  0  0  0
   -2.6822    2.1163    1.0923 H   0  0  0  0  0  0  0  0  0  0  0  0
    0.1502   -1.7083   -0.2910 H   0  0  0  0  0  0  0  0  0  0  0  0
    2.4163   -2.5789   -0.6272 H   0  0  0  0  0  0  0  0  0  0  0  0
    4.8277   -2.0429   -0.5761 H   0  0  0  0  0  0  0  0  0  0  0  0
    5.4423   -0.4779   -0.1645 H   0  0  0  0  0  0  0  0  0  0  0  0
  1 13  1  0  0  0  0
  2 11  1  0  0  0  0
  2 12  1  0  0  0  0
  3  9  1  0  0  0  0
  3 24  1  0  0  0  0
  4 10  1  0  0  0  0
  4 25  1  0  0  0  0
  5 15  2  0  0  0  0
  6 11  1  0  0  0  0
  6 14  1  0  0  0  0
  6 15  1  0  0  0  0
  7 15  1  0  0  0  0
  7 17  2  0  0  0  0
  8 17  1  0  0  0  0
  8 28  1  0  0  0  0
  8 29  1  0  0  0  0
  9 10  1  0  0  0  0
  9 11  1  0  0  0  0
  9 18  1  0  0  0  0
 10 12  1  0  0  0  0
 10 19  1  0  0  0  0
 11 20  1  0  0  0  0
 12 13  1  0  0  0  0
 12 21  1  0  0  0  0
 13 22  1  0  0  0  0
 13 23  1  0  0  0  0
 14 16  2  0  0  0  0
 14 26  1  0  0  0  0
 16 17  1  0  0  0  0
 16 27  1  0  0  0  0
M  END
> <PUBCHEM_COMPOUND_CID>
100552

> <PUBCHEM_CONFORMER_RMSD>
0.6

> <PUBCHEM_CONFORMER_DIVERSEORDER>
1
13
10
14
4
7
9
3
12
8
11
6
2
5

> <PUBCHEM_MMFF94_PARTIAL_CHARGES>
23
1 -0.29
10 0.28
11 0.58
12 0.28
13 0.29
14 -0.04
15 0.84
16 -0.14
17 0.49
2 -0.56
24 0.4
25 0.4
26 0.15
27 0.15
28 0.4
29 0.4
3 -0.68
4 -0.68
5 -0.57
6 -0.47
7 -0.66
8 -0.85
9 0.28

> <PUBCHEM_EFFECTIVE_ROTOR_COUNT>
3

> <PUBCHEM_PHARMACOPHORE_FEATURES>
10
1 2 acceptor
1 3 acceptor
1 3 donor
1 4 acceptor
1 4 donor
1 5 acceptor
1 7 donor
1 8 donor
5 2 9 10 11 12 rings
6 6 7 14 15 16 17 rings

> <PUBCHEM_HEAVY_ATOM_COUNT>
17

> <PUBCHEM_ATOM_DEF_STEREO_COUNT>
4

> <PUBCHEM_ATOM_UDEF_STEREO_COUNT>
0

> <PUBCHEM_BOND_DEF_STEREO_COUNT>
0

> <PUBCHEM_BOND_UDEF_STEREO_COUNT>
0

> <PUBCHEM_ISOTOPIC_ATOM_COUNT>
0

> <PUBCHEM_COMPONENT_COUNT>
1

> <PUBCHEM_CACTVS_TAUTO_COUNT>
3

> <PUBCHEM_CONFORMER_ID>
000188C800000001

> <PUBCHEM_MMFF94_ENERGY>
49.9551

> <PUBCHEM_FEATURE_SELFOVERLAP>
50.794

> <PUBCHEM_SHAPE_FINGERPRINT>
10608611 8 18411695495628526400
12032990 46 18271812294117979494
12500047 106 18263078838529401981
12932764 1 17604139342228115648
13214271 11 18201152170473354924
13296908 3 18272929414768563336
14115302 16 18263093131980285084
14181834 199 16664861983772911879
14965852 173 18410575080536994681
15219456 202 18411415133111447544
15375462 6 18195808689711916961
15775835 57 17896039849454229050
16945 1 18264477395755568521
17834074 16 18410575106175157035
18175812 5 18409448111109384023
200 152 17846488245177891935
20201158 50 18339079281148554882
21501502 16 18335424594533930580
221490 88 18339647853441156514
23402539 116 16588025684720526150
23559900 14 18338228375002133497
25 1 18122057611580955541
2748010 2 18340475776742868780
2871803 45 18263073465568090667
3286 77 18410570734156626844
3312278 4 18342460287988463704
5104073 3 18341892996097569418
5493415 88 18413388743898908674
69090 78 18337668616810533341
74978 22 18411978027261936137
81228 2 17968097581537564179
8809292 202 18408608058366658922
9709674 26 18341896290169082399

> <PUBCHEM_SHAPE_MULTIPOLES>
313.3
6.63
2.42
1
3.54
0.67
0.29
2.38
-0.11
-1.67
-0.43
-0.34
-0.11
0.89

> <PUBCHEM_SHAPE_SELFOVERLAP>
650.006

> <PUBCHEM_SHAPE_VOLUME>
179.6

> <PUBCHEM_COORDINATE_TYPE>
2
5
10

$$$$
