100551
  -OEChem-03292013323D

 28 29  0     1  0  0  0  0  0999 V2000
    2.8572   -2.5169   -0.5592 F   0  0  0  0  0  0  0  0  0  0  0  0
   -1.2149   -0.4747    1.0566 O   0  0  0  0  0  0  0  0  0  0  0  0
   -1.2709    2.3378   -1.1674 O   0  0  0  0  0  0  0  0  0  0  0  0
   -3.3823    1.4616    0.3201 O   0  0  0  0  0  0  0  0  0  0  0  0
   -2.0200   -3.0840    0.4157 O   0  0  0  0  0  0  0  0  0  0  0  0
    1.5325    2.5409    0.6180 O   0  0  0  0  0  0  0  0  0  0  0  0
    0.8126    0.3715    0.2579 N   0  0  0  0  0  0  0  0  0  0  0  0
    3.1487    1.0177    0.1275 N   0  0  0  0  0  0  0  0  0  0  0  0
   -1.3120    0.9689   -0.8200 C   0  0  2  0  0  0  0  0  0  0  0  0
   -2.7148    0.4999   -0.4965 C   0  0  1  0  0  0  0  0  0  0  0  0
   -0.5740    0.6719    0.4740 C   0  0  1  0  0  0  0  0  0  0  0  0
   -2.4500   -0.7348    0.3542 C   0  0  1  0  0  0  0  0  0  0  0  0
   -2.2702   -2.0045   -0.4671 C   0  0  0  0  0  0  0  0  0  0  0  0
    1.1705   -0.9374   -0.0487 C   0  0  0  0  0  0  0  0  0  0  0  0
    1.8235    1.3740    0.3486 C   0  0  0  0  0  0  0  0  0  0  0  0
    2.4364   -1.2792   -0.2598 C   0  0  0  0  0  0  0  0  0  0  0  0
    3.4279   -0.2127   -0.1539 C   0  0  0  0  0  0  0  0  0  0  0  0
   -0.9119    0.3869   -1.6589 H   0  0  0  0  0  0  0  0  0  0  0  0
   -3.3364    0.3224   -1.3778 H   0  0  0  0  0  0  0  0  0  0  0  0
   -0.6533    1.5058    1.1814 H   0  0  0  0  0  0  0  0  0  0  0  0
   -3.2209   -0.8893    1.1178 H   0  0  0  0  0  0  0  0  0  0  0  0
   -1.4443   -1.9369   -1.1790 H   0  0  0  0  0  0  0  0  0  0  0  0
   -3.1864   -2.2247   -1.0250 H   0  0  0  0  0  0  0  0  0  0  0  0
   -0.3363    2.5838   -1.2737 H   0  0  0  0  0  0  0  0  0  0  0  0
   -2.9003    1.5550    1.1586 H   0  0  0  0  0  0  0  0  0  0  0  0
    0.4051   -1.6936   -0.1133 H   0  0  0  0  0  0  0  0  0  0  0  0
   -1.9224   -3.8834   -0.1293 H   0  0  0  0  0  0  0  0  0  0  0  0
    4.4743   -0.5065   -0.3312 H   0  0  0  0  0  0  0  0  0  0  0  0
  1 16  1  0  0  0  0
  2 11  1  0  0  0  0
  2 12  1  0  0  0  0
  3  9  1  0  0  0  0
  3 24  1  0  0  0  0
  4 10  1  0  0  0  0
  4 25  1  0  0  0  0
  5 13  1  0  0  0  0
  5 27  1  0  0  0  0
  6 15  2  0  0  0  0
  7 11  1  0  0  0  0
  7 14  1  0  0  0  0
  7 15  1  0  0  0  0
  8 15  1  0  0  0  0
  8 17  2  0  0  0  0
  9 10  1  0  0  0  0
  9 11  1  0  0  0  0
  9 18  1  0  0  0  0
 10 12  1  0  0  0  0
 10 19  1  0  0  0  0
 11 20  1  0  0  0  0
 12 13  1  0  0  0  0
 12 21  1  0  0  0  0
 13 22  1  0  0  0  0
 13 23  1  0  0  0  0
 14 16  2  0  0  0  0
 14 26  1  0  0  0  0
 16 17  1  0  0  0  0
 17 28  1  0  0  0  0
M  END
> <PUBCHEM_COMPOUND_CID>
100551

> <PUBCHEM_CONFORMER_RMSD>
0.6

> <PUBCHEM_CONFORMER_DIVERSEORDER>
1
10
14
9
3
8
4
13
12
7
6
2
11
5

> <PUBCHEM_MMFF94_PARTIAL_CHARGES>
22
1 -0.15
10 0.28
11 0.58
12 0.28
13 0.28
14 -0.04
15 0.84
16 0.16
17 0.38
2 -0.56
24 0.4
25 0.4
26 0.15
27 0.4
28 0.06
3 -0.68
4 -0.68
5 -0.68
6 -0.57
7 -0.47
8 -0.66
9 0.28

> <PUBCHEM_EFFECTIVE_ROTOR_COUNT>
3

> <PUBCHEM_PHARMACOPHORE_FEATURES>
12
1 2 acceptor
1 3 acceptor
1 3 donor
1 4 acceptor
1 4 donor
1 5 acceptor
1 5 donor
1 6 acceptor
1 8 acceptor
1 8 donor
5 2 9 10 11 12 rings
6 7 8 14 15 16 17 rings

> <PUBCHEM_HEAVY_ATOM_COUNT>
17

> <PUBCHEM_ATOM_DEF_STEREO_COUNT>
4

> <PUBCHEM_ATOM_UDEF_STEREO_COUNT>
0

> <PUBCHEM_BOND_DEF_STEREO_COUNT>
0

> <PUBCHEM_BOND_UDEF_STEREO_COUNT>
0

> <PUBCHEM_ISOTOPIC_ATOM_COUNT>
0

> <PUBCHEM_COMPONENT_COUNT>
1

> <PUBCHEM_CACTVS_TAUTO_COUNT>
1

> <PUBCHEM_CONFORMER_ID>
000188C700000001

> <PUBCHEM_MMFF94_ENERGY>
48.0304

> <PUBCHEM_FEATURE_SELFOVERLAP>
60.973

> <PUBCHEM_SHAPE_FINGERPRINT>
10608611 8 18410851083614938248
10967382 1 18339643334792494250
11322862 65 18335985277209051391
12138202 97 18114444700465334365
12500047 106 18409726253228513141
12932764 1 17894906300257968544
13380535 21 18411144648866149077
14178342 30 18341885320816983280
15219456 202 18410855477350404504
15279308 128 17979353053841780143
15375462 6 18267019655522426892
16945 1 18336816524715132905
17990270 104 18412260653479708090
18186145 218 18194115222920110957
20201158 50 18411416189815593194
21501502 16 18409445924986873928
221490 88 18339650061217993746
22721475 48 18409732858893437012
22802520 49 18408040736315546953
2334 1 18121497113895396787
23388829 49 17689434210424791813
23402539 116 17531237392417369356
23559900 14 18341602771977174400
238 59 16309321258010403037
25 1 17614274473152167869
2748010 2 18122056778325528104
2871803 45 18194957672017957599
45790113 53 18191868907716183715
598444 67 18192998119174674223
69090 78 18410006607640596685
74978 22 18342177752017758817
81228 2 18114741659199976073
8809292 202 18409451354010503178
93112 12 18412261744126990717
9709674 26 18341332274873952063

> <PUBCHEM_SHAPE_MULTIPOLES>
303.27
5.4
2.78
0.85
1.37
0.9
0.05
0.78
0.22
-0.41
0.17
-0.25
-0.15
0.71

> <PUBCHEM_SHAPE_SELFOVERLAP>
641.587

> <PUBCHEM_SHAPE_VOLUME>
170.6

> <PUBCHEM_COORDINATE_TYPE>
2
5
10

$$$$
