100521
  -OEChem-03292013323D

 45 46  0     1  0  0  0  0  0999 V2000
   -0.2131   -1.4850    0.9037 O   0  0  0  0  0  0  0  0  0  0  0  0
   -0.6105   -4.3972    0.0473 O   0  0  0  0  0  0  0  0  0  0  0  0
    2.3456   -0.6348    0.1045 O   0  0  0  0  0  0  0  0  0  0  0  0
   -4.2893   -0.8666    0.7745 O   0  0  0  0  0  0  0  0  0  0  0  0
    3.2962    0.3398   -1.7499 O   0  0  0  0  0  0  0  0  0  0  0  0
   -3.4518    3.5282   -0.2898 O   0  0  0  0  0  0  0  0  0  0  0  0
   -2.0972   -0.2663    0.2406 N   0  0  0  0  0  0  0  0  0  0  0  0
   -3.8577    1.3219    0.2411 N   0  0  0  0  0  0  0  0  0  0  0  0
    0.6442   -2.3359    0.1184 C   0  0  1  0  0  0  0  0  0  0  0  0
   -0.2768   -3.2297   -0.7003 C   0  0  2  0  0  0  0  0  0  0  0  0
   -1.5086   -2.3740   -0.8851 C   0  0  0  0  0  0  0  0  0  0  0  0
   -1.5573   -1.5833    0.4121 C   0  0  1  0  0  0  0  0  0  0  0  0
    1.5257   -1.4434   -0.7455 C   0  0  0  0  0  0  0  0  0  0  0  0
    4.0129    1.0260    0.4835 C   0  0  0  0  0  0  0  0  0  0  0  0
   -1.2372    0.7586   -0.1323 C   0  0  0  0  0  0  0  0  0  0  0  0
   -3.4697   -0.0073    0.4433 C   0  0  0  0  0  0  0  0  0  0  0  0
    3.1957    0.2236   -0.5344 C   0  0  0  0  0  0  0  0  0  0  0  0
   -1.6116    2.0294   -0.3252 C   0  0  0  0  0  0  0  0  0  0  0  0
    4.8353    0.0649    1.3521 C   0  0  0  0  0  0  0  0  0  0  0  0
    4.9707    1.9717   -0.2590 C   0  0  0  0  0  0  0  0  0  0  0  0
    3.0666    1.8607    1.3569 C   0  0  0  0  0  0  0  0  0  0  0  0
   -3.0433    2.3811   -0.1299 C   0  0  0  0  0  0  0  0  0  0  0  0
   -0.6688    3.1178   -0.7266 C   0  0  0  0  0  0  0  0  0  0  0  0
    1.2603   -2.9058    0.8228 H   0  0  0  0  0  0  0  0  0  0  0  0
    0.1685   -3.5588   -1.6439 H   0  0  0  0  0  0  0  0  0  0  0  0
   -1.3711   -1.7103   -1.7473 H   0  0  0  0  0  0  0  0  0  0  0  0
   -2.4301   -2.9433   -1.0429 H   0  0  0  0  0  0  0  0  0  0  0  0
   -2.1398   -2.1284    1.1644 H   0  0  0  0  0  0  0  0  0  0  0  0
    0.9416   -0.8041   -1.4139 H   0  0  0  0  0  0  0  0  0  0  0  0
    2.1798   -2.0735   -1.3607 H   0  0  0  0  0  0  0  0  0  0  0  0
   -1.2434   -4.9109   -0.4829 H   0  0  0  0  0  0  0  0  0  0  0  0
   -0.1959    0.5150   -0.2664 H   0  0  0  0  0  0  0  0  0  0  0  0
   -4.8419    1.5323    0.3817 H   0  0  0  0  0  0  0  0  0  0  0  0
    4.1918   -0.5943    1.9457 H   0  0  0  0  0  0  0  0  0  0  0  0
    5.4792    0.6125    2.0492 H   0  0  0  0  0  0  0  0  0  0  0  0
    5.4738   -0.5763    0.7335 H   0  0  0  0  0  0  0  0  0  0  0  0
    5.6604    1.4134   -0.9027 H   0  0  0  0  0  0  0  0  0  0  0  0
    5.5713    2.5613    0.4426 H   0  0  0  0  0  0  0  0  0  0  0  0
    4.4210    2.6719   -0.8988 H   0  0  0  0  0  0  0  0  0  0  0  0
    2.4424    2.5194    0.7424 H   0  0  0  0  0  0  0  0  0  0  0  0
    3.6253    2.4855    2.0626 H   0  0  0  0  0  0  0  0  0  0  0  0
    2.3902    1.2259    1.9404 H   0  0  0  0  0  0  0  0  0  0  0  0
   -0.9859    3.5693   -1.6723 H   0  0  0  0  0  0  0  0  0  0  0  0
    0.3520    2.7457   -0.8638 H   0  0  0  0  0  0  0  0  0  0  0  0
   -0.6385    3.8993    0.0396 H   0  0  0  0  0  0  0  0  0  0  0  0
  1  9  1  0  0  0  0
  1 12  1  0  0  0  0
  2 10  1  0  0  0  0
  2 31  1  0  0  0  0
  3 13  1  0  0  0  0
  3 17  1  0  0  0  0
  4 16  2  0  0  0  0
  5 17  2  0  0  0  0
  6 22  2  0  0  0  0
  7 12  1  0  0  0  0
  7 15  1  0  0  0  0
  7 16  1  0  0  0  0
  8 16  1  0  0  0  0
  8 22  1  0  0  0  0
  8 33  1  0  0  0  0
  9 10  1  0  0  0  0
  9 13  1  0  0  0  0
  9 24  1  0  0  0  0
 10 11  1  0  0  0  0
 10 25  1  0  0  0  0
 11 12  1  0  0  0  0
 11 26  1  0  0  0  0
 11 27  1  0  0  0  0
 12 28  1  0  0  0  0
 13 29  1  0  0  0  0
 13 30  1  0  0  0  0
 14 17  1  0  0  0  0
 14 19  1  0  0  0  0
 14 20  1  0  0  0  0
 14 21  1  0  0  0  0
 15 18  2  0  0  0  0
 15 32  1  0  0  0  0
 18 22  1  0  0  0  0
 18 23  1  0  0  0  0
 19 34  1  0  0  0  0
 19 35  1  0  0  0  0
 19 36  1  0  0  0  0
 20 37  1  0  0  0  0
 20 38  1  0  0  0  0
 20 39  1  0  0  0  0
 21 40  1  0  0  0  0
 21 41  1  0  0  0  0
 21 42  1  0  0  0  0
 23 43  1  0  0  0  0
 23 44  1  0  0  0  0
 23 45  1  0  0  0  0
M  END
> <PUBCHEM_COMPOUND_CID>
100521

> <PUBCHEM_CONFORMER_RMSD>
0.8

> <PUBCHEM_CONFORMER_DIVERSEORDER>
1
64
61
71
55
12
25
13
36
60
66
65
39
22
14
9
52
40
59
69
11
26
15
72
29
44
75
32
70
47
67
23
16
54
10
31
28
73
20
68
63
74
33
56
38
19
8
2
58
62
35
46
7
6
51
53
41
49
42
18
45
3
5
24
34
48
37
27
50
4
17
43
57
21
30

> <PUBCHEM_MMFF94_PARTIAL_CHARGES>
22
1 -0.56
10 0.28
12 0.58
13 0.28
14 0.06
15 -0.04
16 0.69
17 0.66
18 -0.12
2 -0.68
22 0.62
23 0.14
3 -0.43
31 0.4
32 0.15
33 0.37
4 -0.57
5 -0.57
6 -0.57
7 -0.47
8 -0.49
9 0.28

> <PUBCHEM_EFFECTIVE_ROTOR_COUNT>
6

> <PUBCHEM_PHARMACOPHORE_FEATURES>
10
1 1 acceptor
1 2 acceptor
1 2 donor
1 4 acceptor
1 5 acceptor
1 6 acceptor
1 8 donor
4 14 19 20 21 hydrophobe
5 1 9 10 11 12 rings
6 7 8 15 16 18 22 rings

> <PUBCHEM_HEAVY_ATOM_COUNT>
23

> <PUBCHEM_ATOM_DEF_STEREO_COUNT>
3

> <PUBCHEM_ATOM_UDEF_STEREO_COUNT>
0

> <PUBCHEM_BOND_DEF_STEREO_COUNT>
0

> <PUBCHEM_BOND_UDEF_STEREO_COUNT>
0

> <PUBCHEM_ISOTOPIC_ATOM_COUNT>
0

> <PUBCHEM_COMPONENT_COUNT>
1

> <PUBCHEM_CACTVS_TAUTO_COUNT>
3

> <PUBCHEM_CONFORMER_ID>
000188A900000001

> <PUBCHEM_MMFF94_ENERGY>
54.6112

> <PUBCHEM_FEATURE_SELFOVERLAP>
50.748

> <PUBCHEM_SHAPE_FINGERPRINT>
10411042 1 17546165667772794486
10498660 4 18336268950887199221
10670039 82 18261690220053004060
10759866 29 18187367645263464752
10871710 139 17690004852775663468
1100329 8 17977385263674456707
11370993 70 18339355262846549028
12107183 9 18264191540735201498
12173636 292 18411417319313299927
12596602 18 16950843729791774840
12633257 1 18272365434234358344
13140716 1 17976544136634954369
13402501 40 18343302591442699976
138480 1 17402610745057539622
14466204 15 17905041457279281362
17980427 23 17617343244433471403
19591789 44 18411983537747051283
20101258 96 17759532457504605994
20645477 56 18200883984094244802
21524375 3 18336829693216952330
23227448 37 18271243953284094246
23557571 272 17985558985754236622
23559900 14 17690274916182549915
238 59 17470416583439501413
3187 122 17619891190689394594
350125 39 18266186041252156966
3524813 1 18272650194555036840
5265222 85 18338245946815667454
5939293 188 17183899173304575614
7064713 232 18335701598677039852
7364860 26 17835237840033284199
7808743 9 18266182910569248740
84936 182 18126285229389149184
9981440 41 18335979770881604355

> <PUBCHEM_SHAPE_MULTIPOLES>
428.15
8.53
4.48
1.08
6.85
1.54
0.03
-5.78
-1.71
-3.31
0.77
0.85
-0.02
0.44

> <PUBCHEM_SHAPE_SELFOVERLAP>
888.101

> <PUBCHEM_SHAPE_VOLUME>
245.5

> <PUBCHEM_COORDINATE_TYPE>
2
5
10

$$$$
