100524
  -OEChem-03292013323D

 36 36  0     1  0  0  0  0  0999 V2000
    1.9315   -0.1437    2.6588 S   0  0  0  0  0  0  0  0  0  0  0  0
    1.7440    0.3921    0.7824 P   0  0  1  0  0  0  0  0  0  0  0  0
    0.2281    0.8327    0.3870 O   0  0  0  0  0  0  0  0  0  0  0  0
    2.4948    1.8086    0.4604 O   0  0  0  0  0  0  0  0  0  0  0  0
   -3.4285    2.3326   -0.6224 O   0  5  0  0  0  0  0  0  0  0  0  0
   -1.3030    2.6811   -0.1765 O   0  0  0  0  0  0  0  0  0  0  0  0
    2.2620   -0.6583   -0.4039 N   0  0  0  0  0  0  0  0  0  0  0  0
   -2.2874    1.9174   -0.3129 N   0  3  0  0  0  0  0  0  0  0  0  0
    3.5951   -1.2386   -0.3394 C   0  0  0  0  0  0  0  0  0  0  0  0
    4.6427   -0.2032   -0.7388 C   0  0  0  0  0  0  0  0  0  0  0  0
    3.6607   -2.4628   -1.2471 C   0  0  0  0  0  0  0  0  0  0  0  0
   -0.8554    0.0082    0.2384 C   0  0  0  0  0  0  0  0  0  0  0  0
   -2.1016    0.5227   -0.1070 C   0  0  0  0  0  0  0  0  0  0  0  0
   -3.0263   -1.7090   -0.0568 C   0  0  0  0  0  0  0  0  0  0  0  0
   -0.6875   -1.3592    0.4373 C   0  0  0  0  0  0  0  0  0  0  0  0
   -3.1895   -0.3379   -0.2550 C   0  0  0  0  0  0  0  0  0  0  0  0
   -1.7754   -2.2195    0.2892 C   0  0  0  0  0  0  0  0  0  0  0  0
   -4.1886   -2.6299   -0.2148 C   0  0  0  0  0  0  0  0  0  0  0  0
    2.2843    2.4666   -0.7786 C   0  0  0  0  0  0  0  0  0  0  0  0
    3.8071   -1.5806    0.6789 H   0  0  0  0  0  0  0  0  0  0  0  0
    2.0350   -0.4189   -1.3682 H   0  0  0  0  0  0  0  0  0  0  0  0
    4.7001    0.6128   -0.0126 H   0  0  0  0  0  0  0  0  0  0  0  0
    4.4333    0.2254   -1.7253 H   0  0  0  0  0  0  0  0  0  0  0  0
    5.6370   -0.6619   -0.7825 H   0  0  0  0  0  0  0  0  0  0  0  0
    3.4793   -2.1983   -2.2952 H   0  0  0  0  0  0  0  0  0  0  0  0
    4.6463   -2.9368   -1.1871 H   0  0  0  0  0  0  0  0  0  0  0  0
    2.9149   -3.2097   -0.9526 H   0  0  0  0  0  0  0  0  0  0  0  0
    0.2553   -1.8131    0.7132 H   0  0  0  0  0  0  0  0  0  0  0  0
   -4.1766    0.0327   -0.5222 H   0  0  0  0  0  0  0  0  0  0  0  0
   -1.6361   -3.2855    0.4495 H   0  0  0  0  0  0  0  0  0  0  0  0
   -4.7745   -2.6573    0.7093 H   0  0  0  0  0  0  0  0  0  0  0  0
   -4.8372   -2.3043   -1.0352 H   0  0  0  0  0  0  0  0  0  0  0  0
   -3.8622   -3.6487   -0.4499 H   0  0  0  0  0  0  0  0  0  0  0  0
    2.0362    1.7674   -1.5796 H   0  0  0  0  0  0  0  0  0  0  0  0
    3.1994    2.9999   -1.0476 H   0  0  0  0  0  0  0  0  0  0  0  0
    1.4754    3.1920   -0.6647 H   0  0  0  0  0  0  0  0  0  0  0  0
  1  2  2  0  0  0  0
  2  3  1  0  0  0  0
  2  4  1  0  0  0  0
  2  7  1  0  0  0  0
  3 12  1  0  0  0  0
  4 19  1  0  0  0  0
  5  8  1  0  0  0  0
  6  8  2  0  0  0  0
  7  9  1  0  0  0  0
  7 21  1  0  0  0  0
  8 13  1  0  0  0  0
  9 10  1  0  0  0  0
  9 11  1  0  0  0  0
  9 20  1  0  0  0  0
 10 22  1  0  0  0  0
 10 23  1  0  0  0  0
 10 24  1  0  0  0  0
 11 25  1  0  0  0  0
 11 26  1  0  0  0  0
 11 27  1  0  0  0  0
 12 13  2  0  0  0  0
 12 15  1  0  0  0  0
 13 16  1  0  0  0  0
 14 16  2  0  0  0  0
 14 17  1  0  0  0  0
 14 18  1  0  0  0  0
 15 17  2  0  0  0  0
 15 28  1  0  0  0  0
 16 29  1  0  0  0  0
 17 30  1  0  0  0  0
 18 31  1  0  0  0  0
 18 32  1  0  0  0  0
 18 33  1  0  0  0  0
 19 34  1  0  0  0  0
 19 35  1  0  0  0  0
 19 36  1  0  0  0  0
M  CHG  2   5  -1   8   1
M  END
> <PUBCHEM_COMPOUND_CID>
100524

> <PUBCHEM_CONFORMER_RMSD>
0.8

> <PUBCHEM_CONFORMER_DIVERSEORDER>
1
24
6
15
34
23
31
12
20
16
26
22
30
18
35
14
11
3
28
10
2
19
17
21
7
25
32
13
33
5
4
8
9
29
27

> <PUBCHEM_MMFF94_PARTIAL_CHARGES>
21
1 -0.68
12 0.08
13 0.13
14 -0.14
15 -0.15
16 -0.15
17 -0.15
18 0.14
19 0.28
2 1.49
21 0.36
28 0.15
29 0.15
3 -0.35
30 0.15
4 -0.55
5 -0.52
6 -0.52
7 -0.9
8 0.91
9 0.27

> <PUBCHEM_EFFECTIVE_ROTOR_COUNT>
6

> <PUBCHEM_PHARMACOPHORE_FEATURES>
5
1 5 acceptor
1 5 anion
1 6 acceptor
3 9 10 11 hydrophobe
6 12 13 14 15 16 17 rings

> <PUBCHEM_HEAVY_ATOM_COUNT>
19

> <PUBCHEM_ATOM_DEF_STEREO_COUNT>
0

> <PUBCHEM_ATOM_UDEF_STEREO_COUNT>
1

> <PUBCHEM_BOND_DEF_STEREO_COUNT>
0

> <PUBCHEM_BOND_UDEF_STEREO_COUNT>
0

> <PUBCHEM_ISOTOPIC_ATOM_COUNT>
0

> <PUBCHEM_COMPONENT_COUNT>
1

> <PUBCHEM_CACTVS_TAUTO_COUNT>
2

> <PUBCHEM_CONFORMER_ID>
000188AC00000001

> <PUBCHEM_MMFF94_ENERGY>
38.2175

> <PUBCHEM_FEATURE_SELFOVERLAP>
25.452

> <PUBCHEM_SHAPE_FINGERPRINT>
10756046 5 18335147500703605964
10922523 26 18272364269870770822
116883 192 18410572928800681415
13134695 92 16916494862223111496
14251745 187 18270113501049631758
14252887 29 18122628524614922571
14790565 3 17763756394347114929
15375462 6 18267589189681786086
16752209 62 18262503845625125099
16945 1 18263348219004716731
18186145 218 18041267855298807743
20510252 161 18339636849856075385
20645477 70 18266174122464943311
20871999 31 18408609136725034646
21069387 34 15482090696755526068
21501502 16 18341061799249989741
21618674 68 18193837269668610645
22802520 49 18342736325373157657
23526113 38 17702377343585080770
23557571 272 18269257105750390289
23558518 356 18260550051811181201
23559900 14 18412820313303538356
23598291 2 17532076229252125754
2748010 2 18339347652401474657
3286 77 17131835421061185163
5262128 65 18261962941611941132
6049 1 18130780174604606027
7364860 26 18197217155923455864
74978 22 18335414634520628008
81228 2 18262797484038746089
9709674 26 18410016580254523310

> <PUBCHEM_SHAPE_MULTIPOLES>
365.27
7.85
3.16
1.34
1.09
0.76
1.09
-3.47
-2.37
-1.24
-1.03
1.44
-0.14
0.91

> <PUBCHEM_SHAPE_SELFOVERLAP>
713.929

> <PUBCHEM_SHAPE_VOLUME>
223.1

> <PUBCHEM_COORDINATE_TYPE>
2
5
10

$$$$
