10059959
  -OEChem-03292013303D

 30 31  0     1  0  0  0  0  0999 V2000
    2.4079   -2.2334    0.4675 O   0  0  0  0  0  0  0  0  0  0  0  0
    1.2391   -2.3605   -1.4932 O   0  0  0  0  0  0  0  0  0  0  0  0
    4.1928    1.3934   -0.0685 O   0  0  0  0  0  0  0  0  0  0  0  0
    3.0502    0.5139    1.6813 O   0  0  0  0  0  0  0  0  0  0  0  0
    1.6996    2.2961   -0.8947 N   0  0  0  0  0  0  0  0  0  0  0  0
    0.6271    0.4252    0.2315 C   0  0  1  0  0  0  0  0  0  0  0  0
   -0.4693   -0.1734   -0.5860 C   0  0  1  0  0  0  0  0  0  0  0  0
    0.3868   -1.0479    0.2824 C   0  0  1  0  0  0  0  0  0  0  0  0
    1.8821    0.9231   -0.4224 C   0  0  2  0  0  0  0  0  0  0  0  0
   -1.8961    0.0271   -0.2305 C   0  0  0  0  0  0  0  0  0  0  0  0
    1.3694   -1.9429   -0.3525 C   0  0  0  0  0  0  0  0  0  0  0  0
    3.0671    0.9120    0.5236 C   0  0  0  0  0  0  0  0  0  0  0  0
   -2.5431    1.2214   -0.5613 C   0  0  0  0  0  0  0  0  0  0  0  0
   -2.6021   -0.9775    0.4378 C   0  0  0  0  0  0  0  0  0  0  0  0
   -3.8842    1.4094   -0.2269 C   0  0  0  0  0  0  0  0  0  0  0  0
   -3.9432   -0.7897    0.7721 C   0  0  0  0  0  0  0  0  0  0  0  0
   -4.5842    0.4039    0.4398 C   0  0  0  0  0  0  0  0  0  0  0  0
    0.3529    1.0058    1.1069 H   0  0  0  0  0  0  0  0  0  0  0  0
   -0.2829   -0.2238   -1.6579 H   0  0  0  0  0  0  0  0  0  0  0  0
    0.0087   -1.4100    1.2333 H   0  0  0  0  0  0  0  0  0  0  0  0
    2.1517    0.3059   -1.2873 H   0  0  0  0  0  0  0  0  0  0  0  0
    0.9493    2.3207   -1.5849 H   0  0  0  0  0  0  0  0  0  0  0  0
    2.5391    2.6030   -1.3854 H   0  0  0  0  0  0  0  0  0  0  0  0
   -2.0074    2.0118   -1.0810 H   0  0  0  0  0  0  0  0  0  0  0  0
   -2.1380   -1.9265    0.6911 H   0  0  0  0  0  0  0  0  0  0  0  0
    3.0595   -2.8273    0.0375 H   0  0  0  0  0  0  0  0  0  0  0  0
   -4.3834    2.3385   -0.4859 H   0  0  0  0  0  0  0  0  0  0  0  0
   -4.4901   -1.5744    1.2866 H   0  0  0  0  0  0  0  0  0  0  0  0
   -5.6288    0.5497    0.6990 H   0  0  0  0  0  0  0  0  0  0  0  0
    4.9605    1.3803    0.5421 H   0  0  0  0  0  0  0  0  0  0  0  0
  1 11  1  0  0  0  0
  1 26  1  0  0  0  0
  2 11  2  0  0  0  0
  3 12  1  0  0  0  0
  3 30  1  0  0  0  0
  4 12  2  0  0  0  0
  5  9  1  0  0  0  0
  5 22  1  0  0  0  0
  5 23  1  0  0  0  0
  6  7  1  0  0  0  0
  6  8  1  0  0  0  0
  6  9  1  0  0  0  0
  6 18  1  0  0  0  0
  7  8  1  0  0  0  0
  7 10  1  0  0  0  0
  7 19  1  0  0  0  0
  8 11  1  0  0  0  0
  8 20  1  0  0  0  0
  9 12  1  0  0  0  0
  9 21  1  0  0  0  0
 10 13  2  0  0  0  0
 10 14  1  0  0  0  0
 13 15  1  0  0  0  0
 13 24  1  0  0  0  0
 14 16  2  0  0  0  0
 14 25  1  0  0  0  0
 15 17  2  0  0  0  0
 15 27  1  0  0  0  0
 16 17  1  0  0  0  0
 16 28  1  0  0  0  0
 17 29  1  0  0  0  0
M  END
> <PUBCHEM_COMPOUND_CID>
10059959

> <PUBCHEM_CONFORMER_RMSD>
0.6

> <PUBCHEM_CONFORMER_DIVERSEORDER>
1
7
4
3
6
5
2

> <PUBCHEM_MMFF94_PARTIAL_CHARGES>
29
1 -0.65
10 -0.03
11 0.72
12 0.66
13 -0.15
14 -0.15
15 -0.15
16 -0.15
17 -0.15
18 0.1
19 0.1
2 -0.57
20 0.1
22 0.36
23 0.36
24 0.15
25 0.15
26 0.5
27 0.15
28 0.15
29 0.15
3 -0.65
30 0.5
4 -0.57
5 -0.99
6 -0.19
7 -0.07
8 -0.1
9 0.43

> <PUBCHEM_EFFECTIVE_ROTOR_COUNT>
4.6

> <PUBCHEM_PHARMACOPHORE_FEATURES>
9
1 1 acceptor
1 2 acceptor
1 3 acceptor
1 4 acceptor
1 5 cation
1 5 donor
3 1 2 11 anion
3 3 4 12 anion
6 10 13 14 15 16 17 rings

> <PUBCHEM_HEAVY_ATOM_COUNT>
17

> <PUBCHEM_ATOM_DEF_STEREO_COUNT>
4

> <PUBCHEM_ATOM_UDEF_STEREO_COUNT>
0

> <PUBCHEM_BOND_DEF_STEREO_COUNT>
0

> <PUBCHEM_BOND_UDEF_STEREO_COUNT>
0

> <PUBCHEM_ISOTOPIC_ATOM_COUNT>
0

> <PUBCHEM_COMPONENT_COUNT>
1

> <PUBCHEM_CACTVS_TAUTO_COUNT>
1

> <PUBCHEM_CONFORMER_ID>
009980B700000001

> <PUBCHEM_MMFF94_ENERGY>
37.4911

> <PUBCHEM_FEATURE_SELFOVERLAP>
45.785

> <PUBCHEM_SHAPE_FINGERPRINT>
10366900 7 18339921627699598865
10465860 228 18412269397806425345
10608611 8 18335701594650649557
107287 299 18272375273656071975
10922049 32 18339367469375355654
10980938 120 18344146986070196647
11132069 177 18337107964385183489
11578080 2 16517075217044830014
12251169 10 17967810591385229153
12346645 6 18341894073728165006
12507560 40 18335705997187118245
12592029 89 18335143120063551042
13296908 3 18260836956159238907
13380535 76 18408603699354524963
14289901 80 18410015451020476907
15219456 202 18409168779643191727
15375358 24 18260263036838153611
15536298 74 18411703145281466775
15775835 57 17989484151749063877
16945 1 18262231243644497054
1813 80 16340911421119507158
18186145 218 17417811802723372112
19784866 170 18334580152635010477
20645477 70 18271239405510060879
21501502 16 18412539916770093295
21524375 3 18267869569331079294
21730867 7 18411423899129025603
22854114 111 18272649043345285697
23402539 116 18041833043252060475
23557571 272 16877654669959590605
23559900 14 18263363603335217995
2748010 2 18192425282058837997
276578 36 18201718483317727090
3545911 37 18410014321444331081
495365 180 18129648691683337845
5104073 3 18335989658354898577
58051976 378 18409450319149939511
6049 1 18264220110345665141
633830 44 17274822501506193080
7364860 26 18200597994784951374
81228 2 17118307236072214594
81539 233 18410013247375336318
84936 31 17917710145685468070
9709674 26 18334582352038301723

> <PUBCHEM_SHAPE_MULTIPOLES>
321.39
7.63
2.2
1.03
3.93
0.6
0.05
-2.42
1.75
-1.55
-0.56
-0.46
0.13
0.54

> <PUBCHEM_SHAPE_SELFOVERLAP>
680.905

> <PUBCHEM_SHAPE_VOLUME>
179.3

> <PUBCHEM_COORDINATE_TYPE>
2
5
10

$$$$
