100510
  -OEChem-03292013323D

 30 30  0     0  0  0  0  0  0999 V2000
    2.6292    0.0386   -0.4590 O   0  0  0  0  0  0  0  0  0  0  0  0
    0.2414   -1.6731   -1.1660 O   0  0  0  0  0  0  0  0  0  0  0  0
   -2.0717    2.4703    1.5022 O   0  5  0  0  0  0  0  0  0  0  0  0
   -0.3753    1.0876    1.3306 O   0  0  0  0  0  0  0  0  0  0  0  0
    4.1632    1.7066   -0.0101 O   0  0  0  0  0  0  0  0  0  0  0  0
   -2.1601   -0.7236    0.0095 N   0  0  0  0  0  0  0  0  0  0  0  0
    1.1233   -1.9471    0.9654 N   0  0  0  0  0  0  0  0  0  0  0  0
   -3.2218    1.0895   -0.6644 N   0  0  0  0  0  0  0  0  0  0  0  0
   -1.5557    1.4203    1.0217 N   0  3  0  0  0  0  0  0  0  0  0  0
   -1.2356   -1.5792    0.7467 C   0  0  0  0  0  0  0  0  0  0  0  0
    2.5018   -2.1250    0.5712 C   0  0  0  0  0  0  0  0  0  0  0  0
    0.1007   -1.7341    0.0524 C   0  0  0  0  0  0  0  0  0  0  0  0
    3.2404   -0.8004    0.5125 C   0  0  0  0  0  0  0  0  0  0  0  0
   -2.2959    0.6212    0.1427 C   0  0  0  0  0  0  0  0  0  0  0  0
   -3.0403   -1.1541   -0.9301 C   0  0  0  0  0  0  0  0  0  0  0  0
   -3.6902   -0.0122   -1.3357 C   0  0  0  0  0  0  0  0  0  0  0  0
    3.1950    1.2731   -0.6200 C   0  0  0  0  0  0  0  0  0  0  0  0
    2.4515    2.0418   -1.6698 C   0  0  0  0  0  0  0  0  0  0  0  0
   -1.1472   -1.2069    1.7711 H   0  0  0  0  0  0  0  0  0  0  0  0
   -1.6963   -2.5727    0.8089 H   0  0  0  0  0  0  0  0  0  0  0  0
    2.5218   -2.6120   -0.4099 H   0  0  0  0  0  0  0  0  0  0  0  0
    2.9699   -2.7910    1.3025 H   0  0  0  0  0  0  0  0  0  0  0  0
    0.9101   -1.9795    1.9579 H   0  0  0  0  0  0  0  0  0  0  0  0
    4.2865   -0.9773    0.2377 H   0  0  0  0  0  0  0  0  0  0  0  0
    3.2044   -0.3069    1.4912 H   0  0  0  0  0  0  0  0  0  0  0  0
   -3.1331   -2.1899   -1.2257 H   0  0  0  0  0  0  0  0  0  0  0  0
   -4.4708    0.0728   -2.0774 H   0  0  0  0  0  0  0  0  0  0  0  0
    1.4079    2.1645   -1.3689 H   0  0  0  0  0  0  0  0  0  0  0  0
    2.5171    1.5191   -2.6272 H   0  0  0  0  0  0  0  0  0  0  0  0
    2.9007    3.0328   -1.7809 H   0  0  0  0  0  0  0  0  0  0  0  0
  1 13  1  0  0  0  0
  1 17  1  0  0  0  0
  2 12  2  0  0  0  0
  3  9  1  0  0  0  0
  4  9  2  0  0  0  0
  5 17  2  0  0  0  0
  6 10  1  0  0  0  0
  6 14  1  0  0  0  0
  6 15  1  0  0  0  0
  7 11  1  0  0  0  0
  7 12  1  0  0  0  0
  7 23  1  0  0  0  0
  8 14  2  0  0  0  0
  8 16  1  0  0  0  0
  9 14  1  0  0  0  0
 10 12  1  0  0  0  0
 10 19  1  0  0  0  0
 10 20  1  0  0  0  0
 11 13  1  0  0  0  0
 11 21  1  0  0  0  0
 11 22  1  0  0  0  0
 13 24  1  0  0  0  0
 13 25  1  0  0  0  0
 15 16  2  0  0  0  0
 15 26  1  0  0  0  0
 16 27  1  0  0  0  0
 17 18  1  0  0  0  0
 18 28  1  0  0  0  0
 18 29  1  0  0  0  0
 18 30  1  0  0  0  0
M  CHG  2   3  -1   9   1
M  END
> <PUBCHEM_COMPOUND_CID>
100510

> <PUBCHEM_CONFORMER_RMSD>
0.8

> <PUBCHEM_CONFORMER_DIVERSEORDER>
1
184
211
210
64
273
363
351
262
288
168
369
359
134
100
69
355
208
326
65
20
89
356
113
313
8
166
22
267
54
294
172
98
26
217
308
154
151
79
395
259
293
338
116
303
195
364
250
67
163
310
318
14
298
336
90
32
146
299
218
357
249
9
91
213
142
192
270
107
131
266
381
306
57
339
285
196
219
147
393
240
366
144
58
101
268
104
245
297
320
370
25
239
71
314
169
88
358
85
60
182
174
389
379
2
287
148
371
307
19
388
220
279
118
302
193
246
33
139
214
365
189
4
254
114
80
296
221
40
59
48
199
143
123
241
92
323
360
186
173
165
206
18
289
198
77
278
333
247
269
275
130
329
205
322
72
145
203
38
136
41
382
28
317
39
73
110
232
49
75
31
95
328
301
260
283
153
200
105
277
261
348
256
5
102
290
108
171
304
309
44
188
280
347
228
386
375
282
362
111
16
292
265
346
212
345
93
185
284
46
63
170
312
62
291
45
264
138
52
149
243
231
161
354
251
125
164
187
126
258
11
34
330
233
372
179
15
230
316
84
83
387
177
295
257
150
155
133
56
352
237
159
74
319
368
115
135
99
24
190
158
176
197
272
66
385
175
76
152
224
6
120
315
156
238
234
47
55
78
124
236
311
87
13
86
157
37
376
271
191
35
255
162
53
181
274
225
276
96
227
160
392
324
222
253
263
132
129
383
201
30
137
361
51
321
350
194
167
300
244
141
235
112
82
242
7
391
229
103
183
281
43
248
3
332
17
337
36
378
50
42
394
10
342
140
204
390
344
252
207
122
215
377
29
121
119
178
68
12
106
384
380
70
61
305
223
325
353
180
209
128
331
335
109
373
23
21
341
327
334
286
226
340
127
374
27
216
81
396
94
349
367
202
117
97
343

> <PUBCHEM_MMFF94_PARTIAL_CHARGES>
21
1 -0.43
10 0.32
11 0.3
12 0.57
13 0.28
14 0.27
15 -0.3
16 0.08
17 0.66
18 0.06
2 -0.57
23 0.37
26 0.15
27 0.15
3 -0.52
4 -0.52
5 -0.57
6 0.05
7 -0.73
8 -0.57
9 0.96

> <PUBCHEM_EFFECTIVE_ROTOR_COUNT>
8

> <PUBCHEM_PHARMACOPHORE_FEATURES>
7
1 2 acceptor
1 3 acceptor
1 4 acceptor
1 5 acceptor
1 7 donor
4 6 8 9 14 cation
5 6 8 14 15 16 rings

> <PUBCHEM_HEAVY_ATOM_COUNT>
18

> <PUBCHEM_ATOM_DEF_STEREO_COUNT>
0

> <PUBCHEM_ATOM_UDEF_STEREO_COUNT>
0

> <PUBCHEM_BOND_DEF_STEREO_COUNT>
0

> <PUBCHEM_BOND_UDEF_STEREO_COUNT>
0

> <PUBCHEM_ISOTOPIC_ATOM_COUNT>
0

> <PUBCHEM_COMPONENT_COUNT>
1

> <PUBCHEM_CACTVS_TAUTO_COUNT>
2

> <PUBCHEM_CONFORMER_ID>
0001889E00000001

> <PUBCHEM_MMFF94_ENERGY>
23.5032

> <PUBCHEM_FEATURE_SELFOVERLAP>
35.604

> <PUBCHEM_SHAPE_FINGERPRINT>
11370993 70 18117550945579245868
12162725 195 18340201886694487018
13618510 140 18261960747015469812
14250199 8 18337674105198852750
14787075 74 18044939219219422699
15848702 105 18264481956942427570
17980427 23 17984683542522761954
18186145 218 18334863800764926886
192875 21 18338505361901348672
19930381 70 17896035627950023965
20449540 30 18334299811661482819
20645476 183 17896307189725223786
22749437 52 18334294309797898644
23557571 272 17059767811022281938
353137 74 18412267263154736913
474 4 18261956236951850755
5262128 65 17774181066343158972
526903 126 18269276944415450160
537710 114 18342450452777151719
57100710 29 17909830937939209057
9981440 41 18191297381161647978

> <PUBCHEM_SHAPE_MULTIPOLES>
321.16
6.81
2.7
1.38
1.74
0.13
0.01
2.38
-1.71
1.34
0.33
-0.52
0.6
-1.4

> <PUBCHEM_SHAPE_SELFOVERLAP>
653.117

> <PUBCHEM_SHAPE_VOLUME>
185.5

> <PUBCHEM_COORDINATE_TYPE>
2
5
10

$$$$
