100583
  -OEChem-03292013323D

 33 34  0     1  0  0  0  0  0999 V2000
   -1.1861   -0.5841    0.9538 O   0  0  0  0  0  0  0  0  0  0  0  0
   -1.2376    2.4677   -0.9285 O   0  0  0  0  0  0  0  0  0  0  0  0
   -3.2839    1.5307    0.6120 O   0  0  0  0  0  0  0  0  0  0  0  0
   -2.1870   -3.0574    0.0887 O   0  0  0  0  0  0  0  0  0  0  0  0
    1.5861    2.3579    0.6606 O   0  0  0  0  0  0  0  0  0  0  0  0
    0.8245    0.2471    0.0988 N   0  0  0  0  0  0  0  0  0  0  0  0
    3.1389    0.8881   -0.0368 N   0  0  0  0  0  0  0  0  0  0  0  0
   -0.5229    0.5891    0.4554 C   0  0  1  0  0  0  0  0  0  0  0  0
   -1.3337    1.0715   -0.7351 C   0  0  1  0  0  0  0  0  0  0  0  0
   -2.7346    0.6385   -0.3574 C   0  0  1  0  0  0  0  0  0  0  0  0
   -2.4819   -0.6986    0.3257 C   0  0  1  0  0  0  0  0  0  0  0  0
   -2.4366   -1.8713   -0.6448 C   0  0  0  0  0  0  0  0  0  0  0  0
    0.9848   -1.0729   -0.5208 C   0  0  0  0  0  0  0  0  0  0  0  0
    1.8261    1.2151    0.2469 C   0  0  0  0  0  0  0  0  0  0  0  0
    2.0102   -1.8753    0.2091 C   0  0  0  0  0  0  0  0  0  0  0  0
    3.7325   -0.3206   -0.5949 C   0  0  0  0  0  0  0  0  0  0  0  0
    3.3011   -1.5255    0.1674 C   0  0  0  0  0  0  0  0  0  0  0  0
   -0.5186    1.3371    1.2572 H   0  0  0  0  0  0  0  0  0  0  0  0
   -1.0307    0.5723   -1.6633 H   0  0  0  0  0  0  0  0  0  0  0  0
   -3.4222    0.5978   -1.2068 H   0  0  0  0  0  0  0  0  0  0  0  0
   -3.2014   -0.9044    1.1263 H   0  0  0  0  0  0  0  0  0  0  0  0
   -1.6906   -1.7653   -1.4345 H   0  0  0  0  0  0  0  0  0  0  0  0
   -3.4125   -1.9795   -1.1309 H   0  0  0  0  0  0  0  0  0  0  0  0
    1.2651   -0.9217   -1.5697 H   0  0  0  0  0  0  0  0  0  0  0  0
    0.0817   -1.6666   -0.5349 H   0  0  0  0  0  0  0  0  0  0  0  0
   -0.3015    2.6768   -1.0872 H   0  0  0  0  0  0  0  0  0  0  0  0
   -4.1639    1.1932    0.8519 H   0  0  0  0  0  0  0  0  0  0  0  0
    1.7003   -2.7537    0.7656 H   0  0  0  0  0  0  0  0  0  0  0  0
    3.7959    1.6502    0.1022 H   0  0  0  0  0  0  0  0  0  0  0  0
    4.8192   -0.2071   -0.5214 H   0  0  0  0  0  0  0  0  0  0  0  0
    3.4781   -0.3855   -1.6575 H   0  0  0  0  0  0  0  0  0  0  0  0
    4.0450   -2.1195    0.6877 H   0  0  0  0  0  0  0  0  0  0  0  0
   -2.1859   -3.7930   -0.5473 H   0  0  0  0  0  0  0  0  0  0  0  0
  1  8  1  0  0  0  0
  1 11  1  0  0  0  0
  2  9  1  0  0  0  0
  2 26  1  0  0  0  0
  3 10  1  0  0  0  0
  3 27  1  0  0  0  0
  4 12  1  0  0  0  0
  4 33  1  0  0  0  0
  5 14  2  0  0  0  0
  6  8  1  0  0  0  0
  6 13  1  0  0  0  0
  6 14  1  0  0  0  0
  7 14  1  0  0  0  0
  7 16  1  0  0  0  0
  7 29  1  0  0  0  0
  8  9  1  0  0  0  0
  8 18  1  0  0  0  0
  9 10  1  0  0  0  0
  9 19  1  0  0  0  0
 10 11  1  0  0  0  0
 10 20  1  0  0  0  0
 11 12  1  0  0  0  0
 11 21  1  0  0  0  0
 12 22  1  0  0  0  0
 12 23  1  0  0  0  0
 13 15  1  0  0  0  0
 13 24  1  0  0  0  0
 13 25  1  0  0  0  0
 15 17  2  0  0  0  0
 15 28  1  0  0  0  0
 16 17  1  0  0  0  0
 16 30  1  0  0  0  0
 16 31  1  0  0  0  0
 17 32  1  0  0  0  0
M  END
> <PUBCHEM_COMPOUND_CID>
100583

> <PUBCHEM_CONFORMER_RMSD>
0.6

> <PUBCHEM_CONFORMER_DIVERSEORDER>
2
39
5
57
55
47
19
31
17
22
32
4
53
41
36
50
28
7
54
56
23
59
9
48
35
1
51
30
52
42
27
33
14
6
10
43
58
18
16
45
29
38
13
8
46
11
26
44
37
15
34
25
40
24
3
49
21
20
12

> <PUBCHEM_MMFF94_PARTIAL_CHARGES>
23
1 -0.56
10 0.28
11 0.28
12 0.28
13 0.44
14 0.69
15 -0.29
16 0.44
17 -0.29
2 -0.68
26 0.4
27 0.4
28 0.15
29 0.37
3 -0.68
32 0.15
33 0.4
4 -0.68
5 -0.57
6 -0.66
7 -0.73
8 0.58
9 0.28

> <PUBCHEM_EFFECTIVE_ROTOR_COUNT>
3.8

> <PUBCHEM_PHARMACOPHORE_FEATURES>
11
1 1 acceptor
1 2 acceptor
1 2 donor
1 3 acceptor
1 3 donor
1 4 acceptor
1 4 donor
1 5 acceptor
1 7 donor
5 1 8 9 10 11 rings
7 6 7 13 14 15 16 17 rings

> <PUBCHEM_HEAVY_ATOM_COUNT>
17

> <PUBCHEM_ATOM_DEF_STEREO_COUNT>
3

> <PUBCHEM_ATOM_UDEF_STEREO_COUNT>
1

> <PUBCHEM_BOND_DEF_STEREO_COUNT>
0

> <PUBCHEM_BOND_UDEF_STEREO_COUNT>
0

> <PUBCHEM_ISOTOPIC_ATOM_COUNT>
0

> <PUBCHEM_COMPONENT_COUNT>
1

> <PUBCHEM_CACTVS_TAUTO_COUNT>
2

> <PUBCHEM_CONFORMER_ID>
000188E700000002

> <PUBCHEM_MMFF94_ENERGY>
52.5642

> <PUBCHEM_FEATURE_SELFOVERLAP>
55.84

> <PUBCHEM_SHAPE_FINGERPRINT>
10608611 8 18409163294754047188
10967382 1 18267303131901318658
11132069 177 18413105048519278754
12251169 10 18342463633836597979
12932764 1 18187927244429939706
13140716 1 18411979182581674226
13380535 21 18410581677443159533
14178342 30 18340756109485009216
14251745 187 18336260240835655546
14965852 173 18412825789260116686
15219456 202 18409448089587256568
15375462 189 18189056395622043434
15375462 6 18266175230697783468
15775835 57 18409175380796994142
16945 1 18337097986780476972
17834074 16 18411420634874668442
19107657 46 18412263926265990614
20201158 50 18338798897082994374
21501502 16 18410572898540575502
221490 88 18339367486692751554
22721475 48 18337394846477683028
22802520 49 18335421283240668177
2334 1 18266739275625395370
23388829 49 17906451387382766079
23559900 14 18341321305590476248
238 59 16019966064236154005
2748010 2 18266453402607240558
2871803 45 18266452307565257695
3084891 72 17763170350480604264
45790113 53 18119811305125173011
46194498 28 17250862099471403159
69090 78 18337668608009563239
74978 22 18342457032218747409
81228 2 18115583885075366425
8809292 202 18408889503515936178
93112 12 18411698789846908132
9709674 26 18342177769177159247

> <PUBCHEM_SHAPE_MULTIPOLES>
310.54
5.73
2.69
0.84
2.05
0.53
0.04
0.84
0.22
-0.9
0.05
-0.16
-0.1
0.12

> <PUBCHEM_SHAPE_SELFOVERLAP>
644.182

> <PUBCHEM_SHAPE_VOLUME>
174.5

> <PUBCHEM_COORDINATE_TYPE>
2
5
10

$$$$
