100585
  -OEChem-03292013323D

 44 48  0     0  0  0  0  0  0999 V2000
   -3.5149   -4.0289   -0.7207 O   0  0  0  0  0  0  0  0  0  0  0  0
   -3.3874   -3.9499    1.5473 O   0  0  0  0  0  0  0  0  0  0  0  0
    2.8841    2.2047    1.0667 O   0  0  0  0  0  0  0  0  0  0  0  0
    5.6964   -1.8789   -0.9159 O   0  0  0  0  0  0  0  0  0  0  0  0
   -0.8858    1.5119   -0.3236 N   0  0  0  0  0  0  0  0  0  0  0  0
   -1.2379   -2.1324    0.1238 N   0  0  0  0  0  0  0  0  0  0  0  0
    1.5086    0.0818    0.2380 N   0  0  0  0  0  0  0  0  0  0  0  0
    5.6148    2.4699    0.9848 N   0  0  0  0  0  0  0  0  0  0  0  0
   -2.6952    0.2452   -0.0124 C   0  0  0  0  0  0  0  0  0  0  0  0
   -1.3065    0.2178   -0.1372 C   0  0  0  0  0  0  0  0  0  0  0  0
   -3.1058    1.6108   -0.1308 C   0  0  0  0  0  0  0  0  0  0  0  0
   -1.9553    2.3766   -0.3237 C   0  0  0  0  0  0  0  0  0  0  0  0
   -3.3719   -0.9681    0.1884 C   0  0  0  0  0  0  0  0  0  0  0  0
   -0.5818   -0.9650   -0.0696 C   0  0  0  0  0  0  0  0  0  0  0  0
   -2.5843   -2.1100    0.2459 C   0  0  0  0  0  0  0  0  0  0  0  0
    0.8493   -1.0191   -0.1953 C   0  0  0  0  0  0  0  0  0  0  0  0
   -4.3541    2.2670   -0.0915 C   0  0  0  0  0  0  0  0  0  0  0  0
   -1.9888    3.7671   -0.4792 C   0  0  0  0  0  0  0  0  0  0  0  0
   -4.8558   -1.0634    0.3355 C   0  0  0  0  0  0  0  0  0  0  0  0
   -4.4034    3.6571   -0.2458 C   0  0  0  0  0  0  0  0  0  0  0  0
   -3.2370    4.3941   -0.4365 C   0  0  0  0  0  0  0  0  0  0  0  0
    1.4829   -2.1348   -0.7274 C   0  0  0  0  0  0  0  0  0  0  0  0
    2.8574    0.0620    0.1329 C   0  0  0  0  0  0  0  0  0  0  0  0
    3.5758   -1.0030   -0.3832 C   0  0  0  0  0  0  0  0  0  0  0  0
    2.8709   -2.1226   -0.8212 C   0  0  0  0  0  0  0  0  0  0  0  0
   -3.1852   -3.4213    0.4508 C   0  0  0  0  0  0  0  0  0  0  0  0
    3.5399    1.2734    0.6123 C   0  0  0  0  0  0  0  0  0  0  0  0
    5.0413   -0.9485   -0.4640 C   0  0  0  0  0  0  0  0  0  0  0  0
    5.0285    1.3250    0.5272 C   0  0  0  0  0  0  0  0  0  0  0  0
    5.7012    0.2811    0.0240 C   0  0  0  0  0  0  0  0  0  0  0  0
    0.0772    1.7940   -0.4448 H   0  0  0  0  0  0  0  0  0  0  0  0
   -5.2791    1.7184    0.0550 H   0  0  0  0  0  0  0  0  0  0  0  0
   -1.0806    4.3417   -0.6279 H   0  0  0  0  0  0  0  0  0  0  0  0
   -5.2300   -2.0745    0.5126 H   0  0  0  0  0  0  0  0  0  0  0  0
   -5.1843   -0.4533    1.1836 H   0  0  0  0  0  0  0  0  0  0  0  0
   -5.3426   -0.6973   -0.5746 H   0  0  0  0  0  0  0  0  0  0  0  0
   -5.3633    4.1658   -0.2163 H   0  0  0  0  0  0  0  0  0  0  0  0
    0.9337   -3.0040   -1.0754 H   0  0  0  0  0  0  0  0  0  0  0  0
   -3.2970    5.4730   -0.5542 H   0  0  0  0  0  0  0  0  0  0  0  0
    3.3820   -2.9864   -1.2363 H   0  0  0  0  0  0  0  0  0  0  0  0
    6.7851    0.3019   -0.0446 H   0  0  0  0  0  0  0  0  0  0  0  0
   -3.9203   -4.9100   -0.5734 H   0  0  0  0  0  0  0  0  0  0  0  0
    5.0414    3.2187    1.3528 H   0  0  0  0  0  0  0  0  0  0  0  0
    6.6219    2.5690    0.9559 H   0  0  0  0  0  0  0  0  0  0  0  0
  1 26  1  0  0  0  0
  1 42  1  0  0  0  0
  2 26  2  0  0  0  0
  3 27  2  0  0  0  0
  4 28  2  0  0  0  0
  5 10  1  0  0  0  0
  5 12  1  0  0  0  0
  5 31  1  0  0  0  0
  6 14  1  0  0  0  0
  6 15  2  0  0  0  0
  7 16  2  0  0  0  0
  7 23  1  0  0  0  0
  8 29  1  0  0  0  0
  8 43  1  0  0  0  0
  8 44  1  0  0  0  0
  9 10  1  0  0  0  0
  9 11  1  0  0  0  0
  9 13  2  0  0  0  0
 10 14  2  0  0  0  0
 11 12  1  0  0  0  0
 11 17  2  0  0  0  0
 12 18  2  0  0  0  0
 13 15  1  0  0  0  0
 13 19  1  0  0  0  0
 14 16  1  0  0  0  0
 15 26  1  0  0  0  0
 16 22  1  0  0  0  0
 17 20  1  0  0  0  0
 17 32  1  0  0  0  0
 18 21  1  0  0  0  0
 18 33  1  0  0  0  0
 19 34  1  0  0  0  0
 19 35  1  0  0  0  0
 19 36  1  0  0  0  0
 20 21  2  0  0  0  0
 20 37  1  0  0  0  0
 21 39  1  0  0  0  0
 22 25  2  0  0  0  0
 22 38  1  0  0  0  0
 23 24  2  0  0  0  0
 23 27  1  0  0  0  0
 24 25  1  0  0  0  0
 24 28  1  0  0  0  0
 25 40  1  0  0  0  0
 27 29  1  0  0  0  0
 28 30  1  0  0  0  0
 29 30  2  0  0  0  0
 30 41  1  0  0  0  0
M  END
> <PUBCHEM_COMPOUND_CID>
100585

> <PUBCHEM_CONFORMER_RMSD>
0.6

> <PUBCHEM_CONFORMER_DIVERSEORDER>
1
6
4
7
5
3
2

> <PUBCHEM_MMFF94_PARTIAL_CHARGES>
39
1 -0.65
10 -0.15
12 -0.15
13 -0.14
14 0.31
15 0.4
16 0.31
17 -0.15
18 -0.15
19 0.14
2 -0.57
20 -0.15
21 -0.15
22 -0.15
23 0.4
24 0.09
25 -0.15
26 0.63
27 0.47
28 0.47
29 0.11
3 -0.57
30 -0.14
31 0.27
32 0.15
33 0.15
37 0.15
38 0.15
39 0.15
4 -0.57
40 0.15
41 0.15
42 0.5
43 0.4
44 0.4
5 0.03
6 -0.62
7 -0.62
8 -0.9

> <PUBCHEM_EFFECTIVE_ROTOR_COUNT>
2

> <PUBCHEM_PHARMACOPHORE_FEATURES>
16
1 1 acceptor
1 2 acceptor
1 3 acceptor
1 4 acceptor
1 5 cation
1 5 donor
1 6 acceptor
1 7 acceptor
1 8 cation
1 8 donor
3 1 2 26 anion
5 5 9 10 11 12 rings
6 11 12 17 18 20 21 rings
6 23 24 27 28 29 30 rings
6 6 9 10 13 14 15 rings
6 7 16 22 23 24 25 rings

> <PUBCHEM_HEAVY_ATOM_COUNT>
30

> <PUBCHEM_ATOM_DEF_STEREO_COUNT>
0

> <PUBCHEM_ATOM_UDEF_STEREO_COUNT>
0

> <PUBCHEM_BOND_DEF_STEREO_COUNT>
0

> <PUBCHEM_BOND_UDEF_STEREO_COUNT>
0

> <PUBCHEM_ISOTOPIC_ATOM_COUNT>
0

> <PUBCHEM_COMPONENT_COUNT>
1

> <PUBCHEM_CACTVS_TAUTO_COUNT>
20

> <PUBCHEM_CONFORMER_ID>
000188E900000001

> <PUBCHEM_MMFF94_ENERGY>
90.9215

> <PUBCHEM_FEATURE_SELFOVERLAP>
81.478

> <PUBCHEM_SHAPE_FINGERPRINT>
10050765 1 18410292502618878174
10165383 225 17974296412729993804
10319926 262 18338221692855967258
10411042 1 18120940770277734963
10670039 82 18263656228812297716
10675989 125 17476075726769763353
1100329 8 17687742744624249690
11115154 58 17771596188443465885
12107183 9 17901093132561850890
12403259 226 18270680990830853922
12403259 415 18272370876121289880
12788726 201 17970922278000814514
12925494 130 18341608179278443753
13140716 1 18119536685443898083
13383665 225 18190761880223142868
133893 2 16082514347224491092
13402501 40 18268145366630777564
13540713 4 18272934921475903446
138480 1 16536229586121895767
13944108 23 16823053716582500956
140371 6 18335144249682069901
14068700 686 18341613784668940686
14790565 3 17907582424113569561
15042514 8 18335710476885532867
15196674 1 18412824664495909668
15230672 131 17974294223167571806
15351339 4 17622999097607919201
15361156 5 18264502830757987846
15961568 22 18192150619322810596
17844677 252 18410299107877626800
19611394 137 17176873801463447442
21033648 144 18272371970942317852
21033648 29 18193550073669855176
21049683 118 18045199588747544145
21065198 57 18410575050841618694
21133410 171 17544980192111462047
21133410 52 16830934518235951870
21279426 13 18198909115629802950
21796203 349 17323832291848651619
22122407 14 16415214402816874347
22393880 68 18339645538738640118
23227448 37 18412542080942974261
23558518 356 18260832609114226218
23559900 14 18126847101902423766
23845131 108 17974576793434101113
3380486 145 18265625458279338211
350125 39 18412550894278967432
4058900 60 17762064241968087521
4073 2 18408042897375147866
4144715 1 18409737231882892266
508706 21 18411412899812888532
5104073 3 18411417319893347650
5309563 4 17978225285882704611
550186 72 18194118744540781381
6700243 42 17839785665113073646
7399639 24 17984126343578159272
7808743 9 18408318861376516008
9709674 26 18342460305116150702

> <PUBCHEM_SHAPE_MULTIPOLES>
573.98
12.39
5.36
0.87
13.67
0.23
0.09
3.51
0.44
-8.06
0.16
0.28
-0.22
2.6

> <PUBCHEM_SHAPE_SELFOVERLAP>
1317.983

> <PUBCHEM_SHAPE_VOLUME>
293.6

> <PUBCHEM_COORDINATE_TYPE>
2
5
10

$$$$
