10059148
  -OEChem-03292013303D

 27 27  0     1  0  0  0  0  0999 V2000
    2.2148   -0.4217    1.8694 O   0  0  0  0  0  0  0  0  0  0  0  0
    2.5060    1.9020   -0.9375 O   0  0  0  0  0  0  0  0  0  0  0  0
    2.8672   -2.3103    0.0224 O   0  0  0  0  0  0  0  0  0  0  0  0
   -0.3216    2.0502    0.0937 O   0  0  0  0  0  0  0  0  0  0  0  0
   -2.2146   -0.1461    0.2720 O   0  0  0  0  0  0  0  0  0  0  0  0
   -4.1609   -0.4931   -0.9234 O   0  0  0  0  0  0  0  0  0  0  0  0
    2.6559    0.0183    0.5833 C   0  0  2  0  0  0  0  0  0  0  0  0
    1.9553    1.3258    0.2343 C   0  0  2  0  0  0  0  0  0  0  0  0
    2.3705   -1.0642   -0.4598 C   0  0  2  0  0  0  0  0  0  0  0  0
    0.0117   -0.1956   -0.5813 C   0  0  0  0  0  0  0  0  0  0  0  0
    0.4776    1.1251   -0.0546 C   0  0  0  0  0  0  0  0  0  0  0  0
    0.9080   -1.1755   -0.7760 C   0  0  0  0  0  0  0  0  0  0  0  0
   -1.4432   -0.3396   -0.9003 C   0  0  0  0  0  0  0  0  0  0  0  0
   -3.5720   -0.2508    0.1214 C   0  0  0  0  0  0  0  0  0  0  0  0
   -4.2546   -0.0244    1.4363 C   0  0  0  0  0  0  0  0  0  0  0  0
    3.7390    0.1770    0.6513 H   0  0  0  0  0  0  0  0  0  0  0  0
    2.0506    2.0291    1.0699 H   0  0  0  0  0  0  0  0  0  0  0  0
    2.9072   -0.8432   -1.3892 H   0  0  0  0  0  0  0  0  0  0  0  0
    0.5747   -2.1184   -1.2039 H   0  0  0  0  0  0  0  0  0  0  0  0
   -1.6553   -1.3348   -1.3103 H   0  0  0  0  0  0  0  0  0  0  0  0
   -1.7246    0.4051   -1.6553 H   0  0  0  0  0  0  0  0  0  0  0  0
    2.7658   -1.1817    2.1224 H   0  0  0  0  0  0  0  0  0  0  0  0
    2.1200    2.7888   -1.0393 H   0  0  0  0  0  0  0  0  0  0  0  0
    2.2699   -2.6268    0.7216 H   0  0  0  0  0  0  0  0  0  0  0  0
   -4.0237    0.9781    1.8051 H   0  0  0  0  0  0  0  0  0  0  0  0
   -3.9340   -0.7826    2.1550 H   0  0  0  0  0  0  0  0  0  0  0  0
   -5.3370   -0.1059    1.3023 H   0  0  0  0  0  0  0  0  0  0  0  0
  1  7  1  0  0  0  0
  1 22  1  0  0  0  0
  2  8  1  0  0  0  0
  2 23  1  0  0  0  0
  3  9  1  0  0  0  0
  3 24  1  0  0  0  0
  4 11  2  0  0  0  0
  5 13  1  0  0  0  0
  5 14  1  0  0  0  0
  6 14  2  0  0  0  0
  7  8  1  0  0  0  0
  7  9  1  0  0  0  0
  7 16  1  0  0  0  0
  8 11  1  0  0  0  0
  8 17  1  0  0  0  0
  9 12  1  0  0  0  0
  9 18  1  0  0  0  0
 10 11  1  0  0  0  0
 10 12  2  0  0  0  0
 10 13  1  0  0  0  0
 12 19  1  0  0  0  0
 13 20  1  0  0  0  0
 13 21  1  0  0  0  0
 14 15  1  0  0  0  0
 15 25  1  0  0  0  0
 15 26  1  0  0  0  0
 15 27  1  0  0  0  0
M  END
> <PUBCHEM_COMPOUND_CID>
10059148

> <PUBCHEM_CONFORMER_RMSD>
0.6

> <PUBCHEM_CONFORMER_DIVERSEORDER>
1
23
41
21
4
39
14
17
38
10
33
34
9
42
30
26
35
27
40
3
37
36
32
25
13
6
24
11
7
19
15
28
20
18
2
31
22
16
29
5
12
8

> <PUBCHEM_MMFF94_PARTIAL_CHARGES>
19
1 -0.68
10 -0.12
11 0.49
12 -0.29
13 0.42
14 0.66
15 0.06
19 0.15
2 -0.68
22 0.4
23 0.4
24 0.4
3 -0.68
4 -0.57
5 -0.43
6 -0.57
7 0.28
8 0.34
9 0.42

> <PUBCHEM_EFFECTIVE_ROTOR_COUNT>
3.6

> <PUBCHEM_PHARMACOPHORE_FEATURES>
9
1 1 acceptor
1 1 donor
1 2 acceptor
1 2 donor
1 3 acceptor
1 3 donor
1 4 acceptor
1 6 acceptor
6 7 8 9 10 11 12 rings

> <PUBCHEM_HEAVY_ATOM_COUNT>
15

> <PUBCHEM_ATOM_DEF_STEREO_COUNT>
3

> <PUBCHEM_ATOM_UDEF_STEREO_COUNT>
0

> <PUBCHEM_BOND_DEF_STEREO_COUNT>
0

> <PUBCHEM_BOND_UDEF_STEREO_COUNT>
0

> <PUBCHEM_ISOTOPIC_ATOM_COUNT>
0

> <PUBCHEM_COMPONENT_COUNT>
1

> <PUBCHEM_CACTVS_TAUTO_COUNT>
31

> <PUBCHEM_CONFORMER_ID>
00997D8C00000001

> <PUBCHEM_MMFF94_ENERGY>
19.1474

> <PUBCHEM_FEATURE_SELFOVERLAP>
45.686

> <PUBCHEM_SHAPE_FINGERPRINT>
10219947 1 18342174479426739551
10980938 120 18339641243143447261
11086676 242 18341612590230124064
11471102 22 18411142437089932091
11680611 10 17971185924700258896
12346645 6 18412543253685083436
12644460 14 18335710467799765096
12932764 1 17603864520503977511
13296908 3 17240482533294194679
13705890 14 15285358413997223019
14144814 61 18272372018397779293
14178342 30 17914596487637857698
14251717 144 18341324565718593383
14252887 29 18334858320333701906
15501101 241 18059572460189665022
15775835 57 17275102859685541323
16945 1 18270378565167203628
18186145 218 17458065945792443517
20279233 1 17022895796401698459
20281407 28 16877943832690318675
20559304 39 18272932738772849480
20645477 70 18260539039858003663
20871998 22 18056767529040025110
23557571 272 14189578559510249539
2748010 2 17982433920294191670
276578 36 17988647436316857194
581208 293 18341325673513966599
77492 1 17704351095837424463
81539 233 17896605170593776772

> <PUBCHEM_SHAPE_MULTIPOLES>
273.48
6.62
1.74
1.19
7.95
0.18
-0.4
-1.17
-1.45
-1.75
0.23
0.15
-0.05
-0.45

> <PUBCHEM_SHAPE_SELFOVERLAP>
558.086

> <PUBCHEM_SHAPE_VOLUME>
156.7

> <PUBCHEM_COORDINATE_TYPE>
2
5
10

$$$$
