10058919
  -OEChem-03292013303D

 26 28  0     1  0  0  0  0  0999 V2000
    3.2310   -1.6111    0.8498 O   0  0  0  0  0  0  0  0  0  0  0  0
    4.1890   -0.6505   -0.9667 O   0  0  0  0  0  0  0  0  0  0  0  0
    3.0194    1.7435   -0.4956 N   0  0  0  0  0  0  0  0  0  0  0  0
   -2.8797   -1.2226   -0.4461 N   0  0  0  0  0  0  0  0  0  0  0  0
   -3.2571    0.8942    0.2642 N   0  0  0  0  0  0  0  0  0  0  0  0
   -4.1772   -0.8932   -0.3757 N   0  0  0  0  0  0  0  0  0  0  0  0
   -4.4478    0.3516    0.0409 N   0  0  0  0  0  0  0  0  0  0  0  0
    1.0945    0.4193    0.2432 C   0  0  0  0  0  0  0  0  0  0  0  0
   -0.8333    0.1442    0.0867 C   0  0  0  0  0  0  0  0  0  0  0  0
    0.1956   -0.6361    0.9771 C   0  0  0  0  0  0  0  0  0  0  0  0
   -0.0647    1.4301    0.5511 C   0  0  0  0  0  0  0  0  0  0  0  0
    0.2608    0.0510   -1.0333 C   0  0  0  0  0  0  0  0  0  0  0  0
    2.5526    0.6291    0.3615 C   0  0  1  0  0  0  0  0  0  0  0  0
   -2.2921   -0.0639   -0.0317 C   0  0  0  0  0  0  0  0  0  0  0  0
    3.4090   -0.5857   -0.0255 C   0  0  0  0  0  0  0  0  0  0  0  0
    0.0961   -0.5313    2.0629 H   0  0  0  0  0  0  0  0  0  0  0  0
    0.3613   -1.6907    0.7321 H   0  0  0  0  0  0  0  0  0  0  0  0
   -0.1390    2.3133   -0.0927 H   0  0  0  0  0  0  0  0  0  0  0  0
   -0.1896    1.7361    1.5954 H   0  0  0  0  0  0  0  0  0  0  0  0
    0.4402   -0.9355   -1.4744 H   0  0  0  0  0  0  0  0  0  0  0  0
    0.2192    0.7988   -1.8326 H   0  0  0  0  0  0  0  0  0  0  0  0
    2.8197    0.8876    1.3931 H   0  0  0  0  0  0  0  0  0  0  0  0
    4.0109    1.9078   -0.3224 H   0  0  0  0  0  0  0  0  0  0  0  0
    2.5427    2.6002   -0.2150 H   0  0  0  0  0  0  0  0  0  0  0  0
   -4.9115   -1.5480   -0.6227 H   0  0  0  0  0  0  0  0  0  0  0  0
    3.7863   -2.3867    0.6213 H   0  0  0  0  0  0  0  0  0  0  0  0
  1 15  1  0  0  0  0
  1 26  1  0  0  0  0
  2 15  2  0  0  0  0
  3 13  1  0  0  0  0
  3 23  1  0  0  0  0
  3 24  1  0  0  0  0
  4  6  1  0  0  0  0
  4 14  2  0  0  0  0
  5  7  2  0  0  0  0
  5 14  1  0  0  0  0
  6  7  1  0  0  0  0
  6 25  1  0  0  0  0
  8 10  1  0  0  0  0
  8 11  1  0  0  0  0
  8 12  1  0  0  0  0
  8 13  1  0  0  0  0
  9 10  1  0  0  0  0
  9 11  1  0  0  0  0
  9 12  1  0  0  0  0
  9 14  1  0  0  0  0
 10 16  1  0  0  0  0
 10 17  1  0  0  0  0
 11 18  1  0  0  0  0
 11 19  1  0  0  0  0
 12 20  1  0  0  0  0
 12 21  1  0  0  0  0
 13 15  1  0  0  0  0
 13 22  1  0  0  0  0
M  END
> <PUBCHEM_COMPOUND_CID>
10058919

> <PUBCHEM_CONFORMER_RMSD>
0.6

> <PUBCHEM_CONFORMER_DIVERSEORDER>
1
3
2
4

> <PUBCHEM_MMFF94_PARTIAL_CHARGES>
15
1 -0.65
13 0.33
14 0.35
15 0.66
2 -0.57
23 0.36
24 0.36
25 0.27
26 0.5
3 -0.99
4 -0.71
5 -0.23
6 0.57
7 -0.42
9 0.16

> <PUBCHEM_EFFECTIVE_ROTOR_COUNT>
3.6

> <PUBCHEM_PHARMACOPHORE_FEATURES>
8
1 1 acceptor
1 2 acceptor
1 3 cation
1 3 donor
3 1 2 15 anion
3 4 5 14 cation
5 4 5 6 7 14 rings
5 8 9 10 11 12 rings

> <PUBCHEM_HEAVY_ATOM_COUNT>
15

> <PUBCHEM_ATOM_DEF_STEREO_COUNT>
1

> <PUBCHEM_ATOM_UDEF_STEREO_COUNT>
0

> <PUBCHEM_BOND_DEF_STEREO_COUNT>
0

> <PUBCHEM_BOND_UDEF_STEREO_COUNT>
0

> <PUBCHEM_ISOTOPIC_ATOM_COUNT>
0

> <PUBCHEM_COMPONENT_COUNT>
1

> <PUBCHEM_CACTVS_TAUTO_COUNT>
2

> <PUBCHEM_CONFORMER_ID>
00997CA700000001

> <PUBCHEM_MMFF94_ENERGY>
54.4427

> <PUBCHEM_FEATURE_SELFOVERLAP>
40.654

> <PUBCHEM_SHAPE_FINGERPRINT>
10130415 120 18201718448652059792
10219947 1 17346599694293091429
11543360 7 17095529534068532743
11769659 78 18410567375323545626
12032990 46 18131072636181466919
124424 183 17989484117684757057
12932764 1 17386273355162374457
13675066 3 16988556892455938054
13760787 19 18341334486670813551
14325111 11 18411135870100819081
14993402 34 16950567691974440318
16945 1 15719387351959690344
18186145 218 18113894978874105844
19026448 5 18413108381197473061
19422 9 18412262852423699345
200 152 18412545401374362178
20281475 54 18408315597042888027
20645477 70 18412546517855181006
22485316 2 18342733031112123035
2255824 54 18333732442418582104
23402539 116 17632289048282692997
23402655 69 18260546688719978157
23463225 33 18342455924191044478
23559900 14 18342737442623875856
4990 188 18335423460746980006
5104073 3 18272088327218055267
522135 26 18187082845269553042
633830 44 18040997358137147373
7364860 26 18130504245174953496
77779 3 18411419531347706685

> <PUBCHEM_SHAPE_MULTIPOLES>
272.05
7.75
1.35
0.89
2.94
0.13
0.02
-1.57
1.01
-0.6
-0.08
-0.39
-0.09
-0.42

> <PUBCHEM_SHAPE_SELFOVERLAP>
583.851

> <PUBCHEM_SHAPE_VOLUME>
152.3

> <PUBCHEM_COORDINATE_TYPE>
2
5
10

$$$$
