10063495
  -OEChem-03292013303D

 42 42  0     1  0  0  0  0  0999 V2000
    2.7339   -2.1776   -0.1580 S   0  0  0  0  0  0  0  0  0  0  0  0
   -1.6395    1.6934   -1.8503 O   0  0  0  0  0  0  0  0  0  0  0  0
    4.1032    1.4710    0.5968 O   0  0  0  0  0  0  0  0  0  0  0  0
    1.3507   -2.2980    0.2636 O   0  0  0  0  0  0  0  0  0  0  0  0
    3.3546   -3.2174   -0.9545 O   0  0  0  0  0  0  0  0  0  0  0  0
   -3.5719    0.4148   -0.1966 N   0  0  0  0  0  0  0  0  0  0  0  0
    2.9463   -0.6329   -0.8873 N   0  0  0  0  0  0  0  0  0  0  0  0
   -4.2666   -0.7754    0.3050 C   0  0  0  0  0  0  0  0  0  0  0  0
   -2.1491    0.3332    0.0871 C   0  0  0  0  0  0  0  0  0  0  0  0
   -1.4436    1.5853   -0.4401 C   0  0  1  0  0  0  0  0  0  0  0  0
   -5.7571   -0.6473   -0.0269 C   0  0  0  0  0  0  0  0  0  0  0  0
   -3.6787   -2.0108   -0.3851 C   0  0  0  0  0  0  0  0  0  0  0  0
   -4.0716   -0.8766    1.8224 C   0  0  0  0  0  0  0  0  0  0  0  0
    0.0424    1.5488   -0.1659 C   0  0  0  0  0  0  0  0  0  0  0  0
    0.7957    0.4909   -0.6470 C   0  0  0  0  0  0  0  0  0  0  0  0
    0.6207    2.5756    0.5615 C   0  0  0  0  0  0  0  0  0  0  0  0
    2.1670    0.4592   -0.3935 C   0  0  0  0  0  0  0  0  0  0  0  0
    2.7653    1.4856    0.3374 C   0  0  0  0  0  0  0  0  0  0  0  0
    1.9921    2.5439    0.8149 C   0  0  0  0  0  0  0  0  0  0  0  0
    3.7063   -1.9657    1.3165 C   0  0  0  0  0  0  0  0  0  0  0  0
   -1.9314    0.2661    1.1576 H   0  0  0  0  0  0  0  0  0  0  0  0
   -1.7106   -0.5318   -0.4152 H   0  0  0  0  0  0  0  0  0  0  0  0
   -3.9619    1.2525    0.2352 H   0  0  0  0  0  0  0  0  0  0  0  0
   -1.8856    2.4804    0.0159 H   0  0  0  0  0  0  0  0  0  0  0  0
   -6.1984    0.2363    0.4490 H   0  0  0  0  0  0  0  0  0  0  0  0
   -6.3172   -1.5229    0.3207 H   0  0  0  0  0  0  0  0  0  0  0  0
   -5.9187   -0.5600   -1.1078 H   0  0  0  0  0  0  0  0  0  0  0  0
   -2.6923   -2.2991   -0.0061 H   0  0  0  0  0  0  0  0  0  0  0  0
   -3.6114   -1.8773   -1.4716 H   0  0  0  0  0  0  0  0  0  0  0  0
   -4.3258   -2.8806   -0.2148 H   0  0  0  0  0  0  0  0  0  0  0  0
   -3.0641   -1.1895    2.1153 H   0  0  0  0  0  0  0  0  0  0  0  0
   -4.7509   -1.6303    2.2402 H   0  0  0  0  0  0  0  0  0  0  0  0
   -4.3018    0.0700    2.3256 H   0  0  0  0  0  0  0  0  0  0  0  0
    0.3403   -0.2931   -1.2455 H   0  0  0  0  0  0  0  0  0  0  0  0
    0.0299    3.4050    0.9390 H   0  0  0  0  0  0  0  0  0  0  0  0
   -2.5984    1.6851   -2.0118 H   0  0  0  0  0  0  0  0  0  0  0  0
    2.4518    3.3464    1.3855 H   0  0  0  0  0  0  0  0  0  0  0  0
    3.8956   -0.3983   -1.2024 H   0  0  0  0  0  0  0  0  0  0  0  0
    4.7354   -1.7378    1.0328 H   0  0  0  0  0  0  0  0  0  0  0  0
    3.2773   -1.1686    1.9253 H   0  0  0  0  0  0  0  0  0  0  0  0
    3.6784   -2.9055    1.8731 H   0  0  0  0  0  0  0  0  0  0  0  0
    4.4834    0.6357    0.2803 H   0  0  0  0  0  0  0  0  0  0  0  0
  1  4  2  0  0  0  0
  1  5  2  0  0  0  0
  1  7  1  0  0  0  0
  1 20  1  0  0  0  0
  2 10  1  0  0  0  0
  2 36  1  0  0  0  0
  3 18  1  0  0  0  0
  3 42  1  0  0  0  0
  6  8  1  0  0  0  0
  6  9  1  0  0  0  0
  6 23  1  0  0  0  0
  7 17  1  0  0  0  0
  7 38  1  0  0  0  0
  8 11  1  0  0  0  0
  8 12  1  0  0  0  0
  8 13  1  0  0  0  0
  9 10  1  0  0  0  0
  9 21  1  0  0  0  0
  9 22  1  0  0  0  0
 10 14  1  0  0  0  0
 10 24  1  0  0  0  0
 11 25  1  0  0  0  0
 11 26  1  0  0  0  0
 11 27  1  0  0  0  0
 12 28  1  0  0  0  0
 12 29  1  0  0  0  0
 12 30  1  0  0  0  0
 13 31  1  0  0  0  0
 13 32  1  0  0  0  0
 13 33  1  0  0  0  0
 14 15  2  0  0  0  0
 14 16  1  0  0  0  0
 15 17  1  0  0  0  0
 15 34  1  0  0  0  0
 16 19  2  0  0  0  0
 16 35  1  0  0  0  0
 17 18  2  0  0  0  0
 18 19  1  0  0  0  0
 19 37  1  0  0  0  0
 20 39  1  0  0  0  0
 20 40  1  0  0  0  0
 20 41  1  0  0  0  0
M  END
> <PUBCHEM_COMPOUND_CID>
10063495

> <PUBCHEM_CONFORMER_RMSD>
0.8

> <PUBCHEM_CONFORMER_DIVERSEORDER>
1
106
140
135
134
84
86
110
157
150
39
131
45
75
152
33
111
98
91
145
147
62
116
119
49
29
141
139
47
26
94
61
148
153
82
24
60
114
70
78
132
81
72
144
129
12
151
11
130
143
58
95
113
35
97
69
146
9
142
67
56
103
31
100
136
107
36
121
28
65
155
124
38
101
51
27
41
40
50
32
71
156
90
23
42
13
48
76
44
92
133
64
63
83
79
66
59
8
105
102
128
3
125
159
120
87
149
30
77
85
93
122
80
154
6
137
88
108
2
99
96
14
25
117
54
37
115
19
112
10
4
89
34
138
68
21
123
17
20
22
7
158
52
118
15
73
16
5
18
109
53
126
104
46
55
127
57
43
74

> <PUBCHEM_MMFF94_PARTIAL_CHARGES>
24
1 1.33
10 0.42
14 -0.14
15 -0.15
16 -0.15
17 0.2
18 0.08
19 -0.15
2 -0.68
20 0.11
23 0.36
3 -0.53
34 0.15
35 0.15
36 0.4
37 0.15
38 0.42
4 -0.65
42 0.45
5 -0.65
6 -0.9
7 -0.76
8 0.27
9 0.27

> <PUBCHEM_EFFECTIVE_ROTOR_COUNT>
6

> <PUBCHEM_PHARMACOPHORE_FEATURES>
10
1 2 acceptor
1 2 donor
1 3 donor
1 4 acceptor
1 5 acceptor
1 6 cation
1 6 donor
1 7 donor
4 8 11 12 13 hydrophobe
6 14 15 16 17 18 19 rings

> <PUBCHEM_HEAVY_ATOM_COUNT>
20

> <PUBCHEM_ATOM_DEF_STEREO_COUNT>
0

> <PUBCHEM_ATOM_UDEF_STEREO_COUNT>
1

> <PUBCHEM_BOND_DEF_STEREO_COUNT>
0

> <PUBCHEM_BOND_UDEF_STEREO_COUNT>
0

> <PUBCHEM_ISOTOPIC_ATOM_COUNT>
0

> <PUBCHEM_COMPONENT_COUNT>
1

> <PUBCHEM_CACTVS_TAUTO_COUNT>
3

> <PUBCHEM_CONFORMER_ID>
00998E8700000001

> <PUBCHEM_MMFF94_ENERGY>
47.7653

> <PUBCHEM_FEATURE_SELFOVERLAP>
50.77

> <PUBCHEM_SHAPE_FINGERPRINT>
114674 6 18334577953390534123
12107183 9 17913224074515815553
12506688 2 18410578353138478921
12553582 1 18271523113395076806
12596599 1 18059590095695238711
12596602 18 16916507085462659081
12633257 1 18201730522338190383
13140716 1 17910946165105716704
13402501 40 18261394480920379074
13533116 47 18271810159777592515
13583140 156 17630886204547523585
14251705 54 18339360738961402550
14251731 5 18336832987483014631
14251751 18 17895747383893597802
14251764 30 17558567811358067510
14252887 29 18261959647430333393
14386348 63 18040717017385172377
14787075 74 18334581218314543938
14790565 3 17833836345245438948
14863182 85 18337116756378203150
14866123 147 17549266934949921177
15142526 21 17126475447820568801
15375462 189 18272647978109227708
15422964 175 18410570682338107068
15635459 17 18334859437257528187
15664445 248 17458631154466672781
1813 80 17240488018089108821
20281475 54 18335427841819642725
20403669 9 18334012748922062947
20603629 256 18272942621481905587
20626108 58 17459462252714177714
20645477 70 18410849975924514391
20693207 138 18189055304525978293
21197605 99 17833838540132112843
21279426 13 18263074424004940789
21421861 104 18340778069368164920
21452121 199 18187927240404316044
21673915 165 18197496440255861975
221490 88 18337394838046069006
22224240 67 18056751251177400232
2255824 54 18194125341594340388
23557571 272 17603853512455669941
23559900 14 18261105249217017957
31174 14 18342173383988903308
33824 294 18339642355592743840
341906 21 15338852936671281075
3421961 26 18341895177492458066
5104073 3 18412269424288191481
5486654 36 18194699067831171521
5902787 121 18192705649171271874
621550 34 18264478649654605709
6433294 58 18409729560258879091
9709674 26 18260548939741445811

> <PUBCHEM_SHAPE_MULTIPOLES>
382
9.62
3.35
1.2
10.49
1.01
0.13
5.22
1.69
-3.65
0.02
0.22
0.08
0.89

> <PUBCHEM_SHAPE_SELFOVERLAP>
762.44

> <PUBCHEM_SHAPE_VOLUME>
228.8

> <PUBCHEM_COORDINATE_TYPE>
2
5
10

$$$$
