100658
  -OEChem-03292013323D

 46 47  0     0  0  0  0  0  0999 V2000
   -5.4426   -0.0223    0.9581 O   0  0  0  0  0  0  0  0  0  0  0  0
    5.4438   -0.0065   -0.9586 O   0  0  0  0  0  0  0  0  0  0  0  0
   -4.6114    0.1137   -1.1922 O   0  0  0  0  0  0  0  0  0  0  0  0
    4.6116    0.1346    1.1912 O   0  0  0  0  0  0  0  0  0  0  0  0
   -7.1958    2.2041    0.4912 O   0  0  0  0  0  0  0  0  0  0  0  0
   -6.8578   -2.3780    0.1249 O   0  0  0  0  0  0  0  0  0  0  0  0
    7.2239    2.1969   -0.4839 O   0  0  0  0  0  0  0  0  0  0  0  0
    6.8284   -2.3816   -0.1293 O   0  0  0  0  0  0  0  0  0  0  0  0
   -6.7198   -0.0683    0.3573 N   0  0  0  0  0  0  0  0  0  0  0  0
    6.7194   -0.0697   -0.3561 N   0  0  0  0  0  0  0  0  0  0  0  0
   -0.5832    0.2112    0.4918 C   0  0  0  0  0  0  0  0  0  0  0  0
    0.5847    0.2044   -0.4971 C   0  0  0  0  0  0  0  0  0  0  0  0
   -1.9288    0.1572   -0.2385 C   0  0  0  0  0  0  0  0  0  0  0  0
    1.9309    0.2136    0.2341 C   0  0  0  0  0  0  0  0  0  0  0  0
   -3.1152    0.1296    0.7250 C   0  0  0  0  0  0  0  0  0  0  0  0
    3.1181    0.1739   -0.7280 C   0  0  0  0  0  0  0  0  0  0  0  0
   -8.7284    0.6228   -0.5134 C   0  0  0  0  0  0  0  0  0  0  0  0
   -8.6163   -0.8985   -0.6350 C   0  0  0  0  0  0  0  0  0  0  0  0
    8.7353    0.5942    0.5190 C   0  0  0  0  0  0  0  0  0  0  0  0
    8.6040   -0.9259    0.6367 C   0  0  0  0  0  0  0  0  0  0  0  0
   -4.4539    0.0852    0.0210 C   0  0  0  0  0  0  0  0  0  0  0  0
    4.4552    0.1112   -0.0224 C   0  0  0  0  0  0  0  0  0  0  0  0
   -7.4640    1.0543    0.1790 C   0  0  0  0  0  0  0  0  0  0  0  0
   -7.2944   -1.2450   -0.0049 C   0  0  0  0  0  0  0  0  0  0  0  0
    7.4773    1.0431   -0.1740 C   0  0  0  0  0  0  0  0  0  0  0  0
    7.2788   -1.2543    0.0040 C   0  0  0  0  0  0  0  0  0  0  0  0
   -0.5374    1.1142    1.1123 H   0  0  0  0  0  0  0  0  0  0  0  0
   -0.5000   -0.6501    1.1657 H   0  0  0  0  0  0  0  0  0  0  0  0
    0.5178    1.0790   -1.1551 H   0  0  0  0  0  0  0  0  0  0  0  0
    0.5221   -0.6863   -1.1339 H   0  0  0  0  0  0  0  0  0  0  0  0
   -1.9633   -0.7321   -0.8806 H   0  0  0  0  0  0  0  0  0  0  0  0
   -2.0186    1.0250   -0.9040 H   0  0  0  0  0  0  0  0  0  0  0  0
    2.0019    1.1090    0.8645 H   0  0  0  0  0  0  0  0  0  0  0  0
    1.9838   -0.6485    0.9111 H   0  0  0  0  0  0  0  0  0  0  0  0
   -3.0963    1.0255    1.3559 H   0  0  0  0  0  0  0  0  0  0  0  0
   -3.0397   -0.7562    1.3662 H   0  0  0  0  0  0  0  0  0  0  0  0
    3.1088    1.0692   -1.3597 H   0  0  0  0  0  0  0  0  0  0  0  0
    3.0347   -0.7117   -1.3685 H   0  0  0  0  0  0  0  0  0  0  0  0
   -9.5966    0.9099    0.0870 H   0  0  0  0  0  0  0  0  0  0  0  0
   -8.7923    1.0964   -1.4974 H   0  0  0  0  0  0  0  0  0  0  0  0
   -8.6219   -1.2150   -1.6821 H   0  0  0  0  0  0  0  0  0  0  0  0
   -9.4260   -1.4004   -0.0975 H   0  0  0  0  0  0  0  0  0  0  0  0
    9.6077    0.8718   -0.0796 H   0  0  0  0  0  0  0  0  0  0  0  0
    8.8037    1.0646    1.5043 H   0  0  0  0  0  0  0  0  0  0  0  0
    8.6042   -1.2450    1.6830 H   0  0  0  0  0  0  0  0  0  0  0  0
    9.4082   -1.4364    0.0992 H   0  0  0  0  0  0  0  0  0  0  0  0
  1  9  1  0  0  0  0
  1 21  1  0  0  0  0
  2 10  1  0  0  0  0
  2 22  1  0  0  0  0
  3 21  2  0  0  0  0
  4 22  2  0  0  0  0
  5 23  2  0  0  0  0
  6 24  2  0  0  0  0
  7 25  2  0  0  0  0
  8 26  2  0  0  0  0
  9 23  1  0  0  0  0
  9 24  1  0  0  0  0
 10 25  1  0  0  0  0
 10 26  1  0  0  0  0
 11 12  1  0  0  0  0
 11 13  1  0  0  0  0
 11 27  1  0  0  0  0
 11 28  1  0  0  0  0
 12 14  1  0  0  0  0
 12 29  1  0  0  0  0
 12 30  1  0  0  0  0
 13 15  1  0  0  0  0
 13 31  1  0  0  0  0
 13 32  1  0  0  0  0
 14 16  1  0  0  0  0
 14 33  1  0  0  0  0
 14 34  1  0  0  0  0
 15 21  1  0  0  0  0
 15 35  1  0  0  0  0
 15 36  1  0  0  0  0
 16 22  1  0  0  0  0
 16 37  1  0  0  0  0
 16 38  1  0  0  0  0
 17 18  1  0  0  0  0
 17 23  1  0  0  0  0
 17 39  1  0  0  0  0
 17 40  1  0  0  0  0
 18 24  1  0  0  0  0
 18 41  1  0  0  0  0
 18 42  1  0  0  0  0
 19 20  1  0  0  0  0
 19 25  1  0  0  0  0
 19 43  1  0  0  0  0
 19 44  1  0  0  0  0
 20 26  1  0  0  0  0
 20 45  1  0  0  0  0
 20 46  1  0  0  0  0
M  END
> <PUBCHEM_COMPOUND_CID>
100658

> <PUBCHEM_CONFORMER_RMSD>
1

> <PUBCHEM_CONFORMER_DIVERSEORDER>
1
124
24
86
109
11
145
17
4
78
20
132
96
139
64
156
33
153
80
117
110
35
61
196
74
138
168
21
137
57
5
23
129
53
102
120
159
160
10
47
15
9
194
85
46
128
73
171
7
169
105
62
140
181
36
87
199
185
103
89
187
143
44
76
166
123
131
116
94
152
127
8
180
12
101
79
83
125
27
158
51
3
176
126
97
45
39
114
55
82
191
121
13
182
69
188
157
118
18
75
29
6
197
119
37
164
150
14
34
104
91
19
186
115
190
183
130
100
146
60
149
38
113
70
32
84
41
77
193
99
184
133
90
142
52
59
42
162
43
54
189
48
165
134
177
163
49
108
179
122
67
175
135
148
40
106
155
2
172
56
28
136
170
147
72
30
173
178
98
154
111
198
16
95
144
71
174
65
22
66
161
92
107
81
25
58
195
151
68
31
93
112
88
141
192
63
167
26
50

> <PUBCHEM_MMFF94_PARTIAL_CHARGES>
22
1 -0.19
10 -0.08
15 0.06
16 0.06
17 0.06
18 0.06
19 0.06
2 -0.19
20 0.06
21 0.66
22 0.66
23 0.57
24 0.57
25 0.57
26 0.57
3 -0.57
4 -0.57
5 -0.57
6 -0.57
7 -0.57
8 -0.57
9 -0.08

> <PUBCHEM_EFFECTIVE_ROTOR_COUNT>
12.2

> <PUBCHEM_PHARMACOPHORE_FEATURES>
10
1 3 acceptor
1 4 acceptor
1 5 acceptor
1 6 acceptor
1 7 acceptor
1 8 acceptor
3 11 13 15 hydrophobe
3 12 14 16 hydrophobe
5 10 19 20 25 26 rings
5 9 17 18 23 24 rings

> <PUBCHEM_HEAVY_ATOM_COUNT>
26

> <PUBCHEM_ATOM_DEF_STEREO_COUNT>
0

> <PUBCHEM_ATOM_UDEF_STEREO_COUNT>
0

> <PUBCHEM_BOND_DEF_STEREO_COUNT>
0

> <PUBCHEM_BOND_UDEF_STEREO_COUNT>
0

> <PUBCHEM_ISOTOPIC_ATOM_COUNT>
0

> <PUBCHEM_COMPONENT_COUNT>
1

> <PUBCHEM_CACTVS_TAUTO_COUNT>
6

> <PUBCHEM_CONFORMER_ID>
0001893200000001

> <PUBCHEM_MMFF94_ENERGY>
35.7926

> <PUBCHEM_FEATURE_SELFOVERLAP>
50.75

> <PUBCHEM_SHAPE_FINGERPRINT>
10162869 55 15984812749119050917
10299344 5 18410011035198231211
10904742 90 18410009935703070834
11315181 36 18408324402770128953
12082328 90 18412261719037786165
12089408 11 18409731763608302189
13885169 127 18410012118194628073
14118638 360 15647041630067142488
14150022 121 17845941728176528121
14251764 18 15913332381289226906
14251764 46 18410575084663091907
15183329 4 15791448223142041669
16120349 18 18410009966595666180
1754911 235 17967527978505818767
21362267 313 17417257511271136194
22224240 67 18186801391889336074
232437 2 18410575088958338530
249057 3 15697994162813255565
33684 2 18410573980861765097
4339292 15 17489298746992132663
59682541 35 17274819173006570466
67123 10 18412825802171470300
8209 1 18407478864235444928
99344 41 18410013234554380959

> <PUBCHEM_SHAPE_MULTIPOLES>
478.15
37.95
1.57
0.88
0.04
0.29
0
2.15
0.03
-0.01
0
0
-0.04
-0.63

> <PUBCHEM_SHAPE_SELFOVERLAP>
980.708

> <PUBCHEM_SHAPE_VOLUME>
277.2

> <PUBCHEM_COORDINATE_TYPE>
2
5
10

$$$$
