100625
  -OEChem-03292013323D

 49 51  0     0  0  0  0  0  0999 V2000
   -0.1193   -0.5434   -0.3571 O   0  0  0  0  0  0  0  0  0  0  0  0
    1.5843   -2.6481   -0.4432 O   0  0  0  0  0  0  0  0  0  0  0  0
   -1.5006    2.8823   -0.0651 O   0  0  0  0  0  0  0  0  0  0  0  0
    4.2983   -2.2736   -0.1529 O   0  0  0  0  0  0  0  0  0  0  0  0
    5.3123    0.2583    0.2313 O   0  0  0  0  0  0  0  0  0  0  0  0
    3.6482    2.4159    0.3279 O   0  0  0  0  0  0  0  0  0  0  0  0
    1.1986    3.2690    0.2065 O   0  0  0  0  0  0  0  0  0  0  0  0
   -5.2509   -0.9736    1.5041 O   0  0  0  0  0  0  0  0  0  0  0  0
   -6.3391   -1.0821   -1.0513 O   0  0  0  0  0  0  0  0  0  0  0  0
    1.7324    0.9848   -0.0120 C   0  0  0  0  0  0  0  0  0  0  0  0
    1.2198   -0.2950   -0.2061 C   0  0  0  0  0  0  0  0  0  0  0  0
   -0.9996    0.5264   -0.3231 C   0  0  0  0  0  0  0  0  0  0  0  0
    2.0806   -1.3921   -0.2538 C   0  0  0  0  0  0  0  0  0  0  0  0
    3.1082    1.1786    0.1359 C   0  0  0  0  0  0  0  0  0  0  0  0
    0.8026    2.1233    0.0355 C   0  0  0  0  0  0  0  0  0  0  0  0
   -0.6377    1.8109   -0.1320 C   0  0  0  0  0  0  0  0  0  0  0  0
    3.4548   -1.2028   -0.1068 C   0  0  0  0  0  0  0  0  0  0  0  0
    3.9675    0.0802    0.0877 C   0  0  0  0  0  0  0  0  0  0  0  0
   -2.3969    0.1052   -0.5101 C   0  0  0  0  0  0  0  0  0  0  0  0
   -3.1760   -0.2399    0.5947 C   0  0  0  0  0  0  0  0  0  0  0  0
   -2.9437    0.0501   -1.7925 C   0  0  0  0  0  0  0  0  0  0  0  0
   -4.5005   -0.6392    0.4173 C   0  0  0  0  0  0  0  0  0  0  0  0
   -4.2682   -0.3493   -1.9700 C   0  0  0  0  0  0  0  0  0  0  0  0
   -5.0467   -0.6940   -0.8650 C   0  0  0  0  0  0  0  0  0  0  0  0
    0.6612   -3.1322    0.5292 C   0  0  0  0  0  0  0  0  0  0  0  0
   -1.9201    3.1089    1.2671 C   0  0  0  0  0  0  0  0  0  0  0  0
    4.5835   -2.9256    1.0823 C   0  0  0  0  0  0  0  0  0  0  0  0
    6.0644    0.4877   -0.9577 C   0  0  0  0  0  0  0  0  0  0  0  0
   -4.6175   -0.8908    2.7793 C   0  0  0  0  0  0  0  0  0  0  0  0
   -2.6970   -0.1885    1.5673 H   0  0  0  0  0  0  0  0  0  0  0  0
   -2.3491    0.3152   -2.6635 H   0  0  0  0  0  0  0  0  0  0  0  0
   -4.6877   -0.3900   -2.9716 H   0  0  0  0  0  0  0  0  0  0  0  0
    2.9576    3.0955    0.3369 H   0  0  0  0  0  0  0  0  0  0  0  0
    0.7742   -2.6330    1.4981 H   0  0  0  0  0  0  0  0  0  0  0  0
    0.8533   -4.1996    0.6730 H   0  0  0  0  0  0  0  0  0  0  0  0
   -0.3624   -3.0207    0.1605 H   0  0  0  0  0  0  0  0  0  0  0  0
   -1.0696    3.3223    1.9240 H   0  0  0  0  0  0  0  0  0  0  0  0
   -2.4959    2.2701    1.6665 H   0  0  0  0  0  0  0  0  0  0  0  0
   -2.5711    3.9885    1.2705 H   0  0  0  0  0  0  0  0  0  0  0  0
    5.0689   -2.2353    1.7794 H   0  0  0  0  0  0  0  0  0  0  0  0
    5.2663   -3.7556    0.8814 H   0  0  0  0  0  0  0  0  0  0  0  0
    3.6684   -3.3267    1.5287 H   0  0  0  0  0  0  0  0  0  0  0  0
    7.1144    0.6138   -0.6796 H   0  0  0  0  0  0  0  0  0  0  0  0
    5.7243    1.3986   -1.4603 H   0  0  0  0  0  0  0  0  0  0  0  0
    5.9832   -0.3674   -1.6361 H   0  0  0  0  0  0  0  0  0  0  0  0
   -6.7264   -1.2825   -0.1815 H   0  0  0  0  0  0  0  0  0  0  0  0
   -4.3219    0.1367    3.0178 H   0  0  0  0  0  0  0  0  0  0  0  0
   -3.7833   -1.5958    2.8622 H   0  0  0  0  0  0  0  0  0  0  0  0
   -5.3597   -1.1888    3.5272 H   0  0  0  0  0  0  0  0  0  0  0  0
  1 11  1  0  0  0  0
  1 12  1  0  0  0  0
  2 13  1  0  0  0  0
  2 25  1  0  0  0  0
  3 16  1  0  0  0  0
  3 26  1  0  0  0  0
  4 17  1  0  0  0  0
  4 27  1  0  0  0  0
  5 18  1  0  0  0  0
  5 28  1  0  0  0  0
  6 14  1  0  0  0  0
  6 33  1  0  0  0  0
  7 15  2  0  0  0  0
  8 22  1  0  0  0  0
  8 29  1  0  0  0  0
  9 24  1  0  0  0  0
  9 46  1  0  0  0  0
 10 11  1  0  0  0  0
 10 14  2  0  0  0  0
 10 15  1  0  0  0  0
 11 13  2  0  0  0  0
 12 16  2  0  0  0  0
 12 19  1  0  0  0  0
 13 17  1  0  0  0  0
 14 18  1  0  0  0  0
 15 16  1  0  0  0  0
 17 18  2  0  0  0  0
 19 20  2  0  0  0  0
 19 21  1  0  0  0  0
 20 22  1  0  0  0  0
 20 30  1  0  0  0  0
 21 23  2  0  0  0  0
 21 31  1  0  0  0  0
 22 24  2  0  0  0  0
 23 24  1  0  0  0  0
 23 32  1  0  0  0  0
 25 34  1  0  0  0  0
 25 35  1  0  0  0  0
 25 36  1  0  0  0  0
 26 37  1  0  0  0  0
 26 38  1  0  0  0  0
 26 39  1  0  0  0  0
 27 40  1  0  0  0  0
 27 41  1  0  0  0  0
 27 42  1  0  0  0  0
 28 43  1  0  0  0  0
 28 44  1  0  0  0  0
 28 45  1  0  0  0  0
 29 47  1  0  0  0  0
 29 48  1  0  0  0  0
 29 49  1  0  0  0  0
M  END
> <PUBCHEM_COMPOUND_CID>
100625

> <PUBCHEM_CONFORMER_RMSD>
0.8

> <PUBCHEM_CONFORMER_DIVERSEORDER>
6
7
12
5
1
10
4
2
11
3
8
9

> <PUBCHEM_MMFF94_PARTIAL_CHARGES>
34
1 -0.16
10 0.09
11 0.08
12 0.05
13 0.08
14 0.08
15 0.47
16 0.09
17 0.08
18 0.08
19 0.03
2 -0.36
20 -0.15
21 -0.15
22 0.08
23 -0.15
24 0.08
25 0.28
26 0.28
27 0.28
28 0.28
29 0.28
3 -0.36
30 0.15
31 0.15
32 0.15
33 0.45
4 -0.36
46 0.45
5 -0.36
6 -0.53
7 -0.57
8 -0.36
9 -0.53

> <PUBCHEM_EFFECTIVE_ROTOR_COUNT>
6

> <PUBCHEM_PHARMACOPHORE_FEATURES>
12
1 1 acceptor
1 2 acceptor
1 3 acceptor
1 4 acceptor
1 5 acceptor
1 6 donor
1 7 acceptor
1 8 acceptor
1 9 donor
6 1 10 11 12 15 16 rings
6 10 11 13 14 17 18 rings
6 19 20 21 22 23 24 rings

> <PUBCHEM_HEAVY_ATOM_COUNT>
29

> <PUBCHEM_ATOM_DEF_STEREO_COUNT>
0

> <PUBCHEM_ATOM_UDEF_STEREO_COUNT>
0

> <PUBCHEM_BOND_DEF_STEREO_COUNT>
0

> <PUBCHEM_BOND_UDEF_STEREO_COUNT>
0

> <PUBCHEM_ISOTOPIC_ATOM_COUNT>
0

> <PUBCHEM_COMPONENT_COUNT>
1

> <PUBCHEM_CACTVS_TAUTO_COUNT>
19

> <PUBCHEM_CONFORMER_ID>
0001891100000006

> <PUBCHEM_MMFF94_ENERGY>
135.8363

> <PUBCHEM_FEATURE_SELFOVERLAP>
60.951

> <PUBCHEM_SHAPE_FINGERPRINT>
10673678 19 17387146454017206500
1100329 8 18267862977004607844
11578080 2 13407946767999172476
11796584 16 17022896856984535411
12236239 1 17560802190862864573
12422481 6 17631463262982799879
12553582 1 18342733031159576524
13140716 1 17979911941315744104
13402501 40 18113904896455161795
13544653 18 18408323272302212613
13782708 43 17749672995669134179
13911987 19 18261961846094594374
14840074 17 18202567297503930551
15196674 1 18339640019573607508
15537594 2 18343018913020971398
15927050 60 17622440962734303220
17492 89 18123466086535825550
1813 80 18201168697307531061
19319366 153 18260827120911634238
200 152 18342166761560438877
20028762 73 18131346453464280222
20511986 3 17632289108375305601
20645477 70 18335408110855455261
21267235 1 18343023302556415636
21623969 137 18334582381601782931
21641784 216 18188504501252539972
23559900 14 17385721430880495839
23569943 247 17844824585576230662
25147074 1 18340209566407242108
312423 11 18337959974317055724
314194 84 18410854369270129462
3383291 50 18335978676388351434
345986 75 17988921141576592744
34797466 226 16660364796225882727
350125 39 18413392021012293984
3737641 26 18200887157864151654
392239 28 18410577309472450138
46194498 28 17531242902459607853
463206 1 18198330948164517255
5104073 3 18268988683854317664
57527295 17 18118375438246288735
6086070 43 17274813650217218073

> <PUBCHEM_SHAPE_MULTIPOLES>
543.98
12.53
3.32
1.47
2.23
0.71
-0.42
-5.29
0.28
-2.51
-1.05
2.73
-0.38
-0.33

> <PUBCHEM_SHAPE_SELFOVERLAP>
1188.038

> <PUBCHEM_SHAPE_VOLUME>
296.9

> <PUBCHEM_COORDINATE_TYPE>
2
5
10

$$$$
