10067737
  -OEChem-03292013303D

 52 53  0     1  0  0  0  0  0999 V2000
   -2.0763    1.3629   -0.1274 O   0  0  0  0  0  0  0  0  0  0  0  0
   -1.0422   -0.8897   -2.0257 O   0  0  0  0  0  0  0  0  0  0  0  0
   -4.7001   -0.9952   -0.6810 O   0  0  0  0  0  0  0  0  0  0  0  0
   -5.4839    1.7765    0.6030 O   0  0  0  0  0  0  0  0  0  0  0  0
   -2.9347    0.1357   -2.8006 O   0  0  0  0  0  0  0  0  0  0  0  0
   -3.4238    0.4326    2.2977 O   0  0  0  0  0  0  0  0  0  0  0  0
   -3.1253    3.3740    0.2207 O   0  0  0  0  0  0  0  0  0  0  0  0
   -4.8074   -1.3378    1.9139 O   0  0  0  0  0  0  0  0  0  0  0  0
   -2.4916    0.0181   -0.3930 C   0  0  2  0  0  0  0  0  0  0  0  0
   -3.9469   -0.0461    0.0506 C   0  0  1  0  0  0  0  0  0  0  0  0
   -1.5477   -0.9860    0.2451 C   0  0  0  0  0  0  0  0  0  0  0  0
   -0.4078   -1.0412   -0.7506 C   0  0  1  0  0  0  0  0  0  0  0  0
   -4.4272    1.3678   -0.2291 C   0  0  2  0  0  0  0  0  0  0  0  0
   -2.2288   -0.2229   -1.8705 C   0  0  0  0  0  0  0  0  0  0  0  0
    0.3594   -2.3494   -0.7103 C   0  0  0  0  0  0  0  0  0  0  0  0
   -3.1731    2.1769   -0.0154 C   0  0  0  0  0  0  0  0  0  0  0  0
    1.0042   -2.6367    0.6474 C   0  0  0  0  0  0  0  0  0  0  0  0
   -4.1251   -0.4115    1.5020 C   0  0  0  0  0  0  0  0  0  0  0  0
    2.0541   -1.6215    1.1109 C   0  0  0  0  0  0  0  0  0  0  0  0
    3.3008   -1.5040    0.2290 C   0  0  0  0  0  0  0  0  0  0  0  0
    4.3217   -0.4910    0.7512 C   0  0  0  0  0  0  0  0  0  0  0  0
    5.5477   -0.4185   -0.1628 C   0  0  0  0  0  0  0  0  0  0  0  0
    6.5836    0.5723    0.3772 C   0  0  0  0  0  0  0  0  0  0  0  0
    7.8432    0.6563   -0.4909 C   0  0  0  0  0  0  0  0  0  0  0  0
    8.8274    1.6769    0.0005 C   0  0  0  0  0  0  0  0  0  0  0  0
   10.0998    1.4015    0.3082 C   0  0  0  0  0  0  0  0  0  0  0  0
   -1.1916   -0.6838    1.2347 H   0  0  0  0  0  0  0  0  0  0  0  0
   -2.0346   -1.9663    0.3221 H   0  0  0  0  0  0  0  0  0  0  0  0
    0.2734   -0.1911   -0.6272 H   0  0  0  0  0  0  0  0  0  0  0  0
   -4.7466    1.4882   -1.2697 H   0  0  0  0  0  0  0  0  0  0  0  0
    1.1165   -2.3539   -1.5035 H   0  0  0  0  0  0  0  0  0  0  0  0
   -0.3157   -3.1774   -0.9650 H   0  0  0  0  0  0  0  0  0  0  0  0
    0.2278   -2.7177    1.4172 H   0  0  0  0  0  0  0  0  0  0  0  0
    1.4784   -3.6251    0.5964 H   0  0  0  0  0  0  0  0  0  0  0  0
   -5.6428   -0.8324   -0.5054 H   0  0  0  0  0  0  0  0  0  0  0  0
    1.5909   -0.6341    1.2201 H   0  0  0  0  0  0  0  0  0  0  0  0
    2.3755   -1.9131    2.1194 H   0  0  0  0  0  0  0  0  0  0  0  0
   -5.1662    1.8139    1.5207 H   0  0  0  0  0  0  0  0  0  0  0  0
    3.7742   -2.4901    0.1477 H   0  0  0  0  0  0  0  0  0  0  0  0
    3.0033   -1.2098   -0.7841 H   0  0  0  0  0  0  0  0  0  0  0  0
    3.8542    0.4985    0.8216 H   0  0  0  0  0  0  0  0  0  0  0  0
    4.6323   -0.7756    1.7638 H   0  0  0  0  0  0  0  0  0  0  0  0
   -3.5271    0.2114    3.2477 H   0  0  0  0  0  0  0  0  0  0  0  0
    5.2407   -0.1154   -1.1711 H   0  0  0  0  0  0  0  0  0  0  0  0
    6.0037   -1.4122   -0.2473 H   0  0  0  0  0  0  0  0  0  0  0  0
    6.1239    1.5663    0.4509 H   0  0  0  0  0  0  0  0  0  0  0  0
    6.8679    0.2809    1.3966 H   0  0  0  0  0  0  0  0  0  0  0  0
    8.3096   -0.3350   -0.5478 H   0  0  0  0  0  0  0  0  0  0  0  0
    7.5568    0.9277   -1.5144 H   0  0  0  0  0  0  0  0  0  0  0  0
    8.4797    2.7026    0.0926 H   0  0  0  0  0  0  0  0  0  0  0  0
   10.7643    2.1872    0.6507 H   0  0  0  0  0  0  0  0  0  0  0  0
   10.4991    0.3967    0.2258 H   0  0  0  0  0  0  0  0  0  0  0  0
  1  9  1  0  0  0  0
  1 16  1  0  0  0  0
  2 12  1  0  0  0  0
  2 14  1  0  0  0  0
  3 10  1  0  0  0  0
  3 35  1  0  0  0  0
  4 13  1  0  0  0  0
  4 38  1  0  0  0  0
  5 14  2  0  0  0  0
  6 18  1  0  0  0  0
  6 43  1  0  0  0  0
  7 16  2  0  0  0  0
  8 18  2  0  0  0  0
  9 10  1  0  0  0  0
  9 11  1  0  0  0  0
  9 14  1  0  0  0  0
 10 13  1  0  0  0  0
 10 18  1  0  0  0  0
 11 12  1  0  0  0  0
 11 27  1  0  0  0  0
 11 28  1  0  0  0  0
 12 15  1  0  0  0  0
 12 29  1  0  0  0  0
 13 16  1  0  0  0  0
 13 30  1  0  0  0  0
 15 17  1  0  0  0  0
 15 31  1  0  0  0  0
 15 32  1  0  0  0  0
 17 19  1  0  0  0  0
 17 33  1  0  0  0  0
 17 34  1  0  0  0  0
 19 20  1  0  0  0  0
 19 36  1  0  0  0  0
 19 37  1  0  0  0  0
 20 21  1  0  0  0  0
 20 39  1  0  0  0  0
 20 40  1  0  0  0  0
 21 22  1  0  0  0  0
 21 41  1  0  0  0  0
 21 42  1  0  0  0  0
 22 23  1  0  0  0  0
 22 44  1  0  0  0  0
 22 45  1  0  0  0  0
 23 24  1  0  0  0  0
 23 46  1  0  0  0  0
 23 47  1  0  0  0  0
 24 25  1  0  0  0  0
 24 48  1  0  0  0  0
 24 49  1  0  0  0  0
 25 26  2  0  0  0  0
 25 50  1  0  0  0  0
 26 51  1  0  0  0  0
 26 52  1  0  0  0  0
M  END
> <PUBCHEM_COMPOUND_CID>
10067737

> <PUBCHEM_CONFORMER_RMSD>
1.2

> <PUBCHEM_CONFORMER_DIVERSEORDER>
4
2
54
9
6
25
22
80
69
10
39
62
34
31
84
66
38
15
30
18
35
21
46
65
55
13
27
73
41
50
33
71
85
60
37
26
78
49
29
12
3
81
64
82
43
8
79
58
20
17
72
16
14
19
57
5
45
28
51
36
23
24
59
53
77
47
7
67
61
48
83
1
40
74
52
63
32
70
11
42
76
75
56
44
68

> <PUBCHEM_MMFF94_PARTIAL_CHARGES>
24
1 -0.43
10 0.34
12 0.28
13 0.34
14 0.66
16 0.66
18 0.66
2 -0.43
24 0.14
25 -0.29
26 -0.3
3 -0.68
35 0.4
38 0.4
4 -0.68
43 0.5
5 -0.57
50 0.15
51 0.15
52 0.15
6 -0.65
7 -0.57
8 -0.57
9 0.34

> <PUBCHEM_EFFECTIVE_ROTOR_COUNT>
11.2

> <PUBCHEM_PHARMACOPHORE_FEATURES>
12
1 26 hydrophobe
1 3 acceptor
1 3 donor
1 4 acceptor
1 4 donor
1 5 acceptor
1 6 acceptor
1 7 acceptor
1 8 acceptor
3 6 8 18 anion
5 1 9 10 13 16 rings
5 2 9 11 12 14 rings

> <PUBCHEM_HEAVY_ATOM_COUNT>
26

> <PUBCHEM_ATOM_DEF_STEREO_COUNT>
4

> <PUBCHEM_ATOM_UDEF_STEREO_COUNT>
0

> <PUBCHEM_BOND_DEF_STEREO_COUNT>
0

> <PUBCHEM_BOND_UDEF_STEREO_COUNT>
0

> <PUBCHEM_ISOTOPIC_ATOM_COUNT>
0

> <PUBCHEM_COMPONENT_COUNT>
1

> <PUBCHEM_CACTVS_TAUTO_COUNT>
3

> <PUBCHEM_CONFORMER_ID>
00999F1900000004

> <PUBCHEM_MMFF94_ENERGY>
33.8193

> <PUBCHEM_FEATURE_SELFOVERLAP>
60.992

> <PUBCHEM_SHAPE_FINGERPRINT>
10 15 18187083966762647250
10165383 225 15267072441181280915
10369192 42 18411421717860906022
10391435 84 10159691375490045580
10670039 82 18412536614235687128
10930396 42 16298384652425582549
12082328 90 18060135484133840862
12596602 18 17676203555374863850
12633257 1 16588601824191368422
12643181 29 9583523101294798216
13761468 95 17273987847853630016
15183329 4 16487256548210748246
21756936 100 18412260658001782102
22956985 138 16957904935510711051
23198884 109 15626221316786149890
23559900 14 8502075336914038142
2838139 119 18343295999321508500
4098825 35 16343708759642809974
44062 13 10591745589672403713
445580 204 18341609326967588948
5104073 3 17822855247740485402
543368 44 18410852157688759966
559249 180 8790884094793700711
57527293 21 17844248428930150271
57527585 21 17128157344540508993
9689198 14 18410863157711889142
9953998 17 17022623078562676160

> <PUBCHEM_SHAPE_MULTIPOLES>
488.11
21.8
2.55
1.66
70.51
0.63
-0.43
15.3
3.31
-0.92
0.36
-2.67
-0.33
-0.15

> <PUBCHEM_SHAPE_SELFOVERLAP>
1006.225

> <PUBCHEM_SHAPE_VOLUME>
280.8

> <PUBCHEM_COORDINATE_TYPE>
2
5
10

$$$$
