10066780
  -OEChem-03292013303D

 47 48  0     1  0  0  0  0  0999 V2000
   -4.8052   -0.1835    0.0738 O   0  0  0  0  0  0  0  0  0  0  0  0
    3.9051    1.9713    2.1736 O   0  0  0  0  0  0  0  0  0  0  0  0
    4.1073   -1.6990   -1.7162 O   0  0  0  0  0  0  0  0  0  0  0  0
    0.1280    0.4802    0.5071 O   0  0  0  0  0  0  0  0  0  0  0  0
   -2.4745   -0.0048    0.0554 N   0  0  0  0  0  0  0  0  0  0  0  0
    5.1403   -0.0950   -0.4428 N   0  0  0  0  0  0  0  0  0  0  0  0
    2.8008    0.4826    0.8245 N   0  0  0  0  0  0  0  0  0  0  0  0
   -3.8379    2.0357   -0.0613 C   0  0  0  0  0  0  0  0  0  0  0  0
   -3.7768    0.4899    0.0371 C   0  0  0  0  0  0  0  0  0  0  0  0
    5.0657    1.1890    0.2252 C   0  0  2  0  0  0  0  0  0  0  0  0
   -3.2763    2.6683    1.2261 C   0  0  0  0  0  0  0  0  0  0  0  0
   -5.3064    2.4870   -0.1989 C   0  0  0  0  0  0  0  0  0  0  0  0
   -3.1204    2.4165   -1.3443 C   0  0  0  0  0  0  0  0  0  0  0  0
   -2.0625   -1.3571    0.1378 C   0  0  0  0  0  0  0  0  0  0  0  0
    2.7672   -0.4138   -0.2144 C   0  0  0  0  0  0  0  0  0  0  0  0
    3.9099    1.2098    1.2056 C   0  0  0  0  0  0  0  0  0  0  0  0
   -0.7149   -1.6796    0.1430 C   0  0  0  0  0  0  0  0  0  0  0  0
    4.0403   -0.7933   -0.8896 C   0  0  0  0  0  0  0  0  0  0  0  0
    4.9263    2.3266   -0.7787 C   0  0  0  0  0  0  0  0  0  0  0  0
    1.6277   -1.0117   -0.5858 C   0  0  0  0  0  0  0  0  0  0  0  0
    0.3247   -0.6607    0.0662 C   0  0  0  0  0  0  0  0  0  0  0  0
   -3.0382   -2.3391    0.2109 C   0  0  0  0  0  0  0  0  0  0  0  0
   -0.3326   -3.0187    0.2235 C   0  0  0  0  0  0  0  0  0  0  0  0
   -2.0384    3.1953   -1.4669 C   0  0  0  0  0  0  0  0  0  0  0  0
   -2.6558   -3.6781    0.2914 C   0  0  0  0  0  0  0  0  0  0  0  0
   -1.3031   -4.0178    0.2977 C   0  0  0  0  0  0  0  0  0  0  0  0
    5.9967    1.2990    0.7920 H   0  0  0  0  0  0  0  0  0  0  0  0
   -2.2225    2.4147    1.3864 H   0  0  0  0  0  0  0  0  0  0  0  0
   -3.3580    3.7611    1.2056 H   0  0  0  0  0  0  0  0  0  0  0  0
   -3.8237    2.3083    2.1054 H   0  0  0  0  0  0  0  0  0  0  0  0
   -5.7907    2.0328   -1.0722 H   0  0  0  0  0  0  0  0  0  0  0  0
   -5.3805    3.5756   -0.3074 H   0  0  0  0  0  0  0  0  0  0  0  0
   -5.8940    2.1990    0.6809 H   0  0  0  0  0  0  0  0  0  0  0  0
   -3.5339    2.0040   -2.2644 H   0  0  0  0  0  0  0  0  0  0  0  0
   -1.7239    0.6775    0.0081 H   0  0  0  0  0  0  0  0  0  0  0  0
    6.0443   -0.3697   -0.8153 H   0  0  0  0  0  0  0  0  0  0  0  0
    1.9601    0.6090    1.3802 H   0  0  0  0  0  0  0  0  0  0  0  0
    5.7677    2.3308   -1.4798 H   0  0  0  0  0  0  0  0  0  0  0  0
    4.0057    2.2392   -1.3665 H   0  0  0  0  0  0  0  0  0  0  0  0
    4.9008    3.2955   -0.2687 H   0  0  0  0  0  0  0  0  0  0  0  0
    1.6023   -1.7643   -1.3674 H   0  0  0  0  0  0  0  0  0  0  0  0
   -4.1037   -2.1713    0.2144 H   0  0  0  0  0  0  0  0  0  0  0  0
    0.7102   -3.3224    0.2539 H   0  0  0  0  0  0  0  0  0  0  0  0
   -3.4102   -4.4574    0.3510 H   0  0  0  0  0  0  0  0  0  0  0  0
   -1.6169    3.3897   -2.4475 H   0  0  0  0  0  0  0  0  0  0  0  0
   -1.5498    3.6511   -0.6145 H   0  0  0  0  0  0  0  0  0  0  0  0
   -1.0058   -5.0602    0.3657 H   0  0  0  0  0  0  0  0  0  0  0  0
  1  9  2  0  0  0  0
  2 16  2  0  0  0  0
  3 18  2  0  0  0  0
  4 21  2  0  0  0  0
  5  9  1  0  0  0  0
  5 14  1  0  0  0  0
  5 35  1  0  0  0  0
  6 10  1  0  0  0  0
  6 18  1  0  0  0  0
  6 36  1  0  0  0  0
  7 15  1  0  0  0  0
  7 16  1  0  0  0  0
  7 37  1  0  0  0  0
  8  9  1  0  0  0  0
  8 11  1  0  0  0  0
  8 12  1  0  0  0  0
  8 13  1  0  0  0  0
 10 16  1  0  0  0  0
 10 19  1  0  0  0  0
 10 27  1  0  0  0  0
 11 28  1  0  0  0  0
 11 29  1  0  0  0  0
 11 30  1  0  0  0  0
 12 31  1  0  0  0  0
 12 32  1  0  0  0  0
 12 33  1  0  0  0  0
 13 24  2  0  0  0  0
 13 34  1  0  0  0  0
 14 17  1  0  0  0  0
 14 22  2  0  0  0  0
 15 18  1  0  0  0  0
 15 20  2  0  0  0  0
 17 21  1  0  0  0  0
 17 23  2  0  0  0  0
 19 38  1  0  0  0  0
 19 39  1  0  0  0  0
 19 40  1  0  0  0  0
 20 21  1  0  0  0  0
 20 41  1  0  0  0  0
 22 25  1  0  0  0  0
 22 42  1  0  0  0  0
 23 26  1  0  0  0  0
 23 43  1  0  0  0  0
 24 45  1  0  0  0  0
 24 46  1  0  0  0  0
 25 26  2  0  0  0  0
 25 44  1  0  0  0  0
 26 47  1  0  0  0  0
M  END
> <PUBCHEM_COMPOUND_CID>
10066780

> <PUBCHEM_CONFORMER_RMSD>
0.8

> <PUBCHEM_CONFORMER_DIVERSEORDER>
1
86
127
120
132
135
100
109
78
89
91
113
39
96
101
99
140
52
71
141
82
61
122
56
102
49
84
88
148
73
115
67
103
45
117
77
66
104
79
111
92
130
97
41
110
18
105
142
30
118
85
22
87
47
51
19
112
37
90
123
143
13
108
42
131
14
129
93
26
24
139
114
98
59
126
53
25
50
60
17
23
138
40
124
133
63
62
58
76
83
119
146
5
43
28
147
69
46
9
7
107
128
2
137
70
35
121
29
11
68
145
3
81
136
38
44
57
144
65
74
36
10
33
21
15
27
8
125
4
80
16
134
54
116
32
95
6
64
34
75
48
106
55
20
31
72
12
94

> <PUBCHEM_MMFF94_PARTIAL_CHARGES>
34
1 -0.57
10 0.36
13 -0.29
14 0.12
15 0.12
16 0.57
17 0.09
18 0.62
2 -0.57
20 -0.14
21 0.47
22 -0.15
23 -0.15
24 -0.3
25 -0.15
26 -0.15
3 -0.57
34 0.15
35 0.37
36 0.37
37 0.37
4 -0.57
41 0.15
42 0.15
43 0.15
44 0.15
45 0.15
46 0.15
47 0.15
5 -0.55
6 -0.73
7 -0.54
8 0.2
9 0.57

> <PUBCHEM_EFFECTIVE_ROTOR_COUNT>
6.6

> <PUBCHEM_PHARMACOPHORE_FEATURES>
11
1 1 acceptor
1 2 acceptor
1 24 hydrophobe
1 3 acceptor
1 4 acceptor
1 5 donor
1 6 donor
1 7 donor
3 8 11 12 hydrophobe
6 14 17 22 23 25 26 rings
6 6 7 10 15 16 18 rings

> <PUBCHEM_HEAVY_ATOM_COUNT>
26

> <PUBCHEM_ATOM_DEF_STEREO_COUNT>
1

> <PUBCHEM_ATOM_UDEF_STEREO_COUNT>
0

> <PUBCHEM_BOND_DEF_STEREO_COUNT>
1

> <PUBCHEM_BOND_UDEF_STEREO_COUNT>
0

> <PUBCHEM_ISOTOPIC_ATOM_COUNT>
0

> <PUBCHEM_COMPONENT_COUNT>
1

> <PUBCHEM_CACTVS_TAUTO_COUNT>
38

> <PUBCHEM_CONFORMER_ID>
00999B5C00000001

> <PUBCHEM_MMFF94_ENERGY>
90.9452

> <PUBCHEM_FEATURE_SELFOVERLAP>
55.83

> <PUBCHEM_SHAPE_FINGERPRINT>
10165383 225 18193287295143992309
10319926 262 18339626937493725154
10411042 1 17760933239904120515
11014199 57 17831584545273101755
11405975 8 18410011035857861298
11595378 159 17749380481840092592
12107183 9 18189885436575504802
12173636 292 18408881841368341335
12403259 415 18339932536610458323
12596602 18 16588030146928081896
12788726 201 17973159809812148458
13402501 40 18413669093330956633
13583140 156 17845657074643721862
14178342 30 18188762963730979362
14251757 17 18202003218053205626
14508225 48 17838044168098186471
14790565 3 18338243643906776437
14848178 96 18340767035708015728
15463212 79 18187078460108269123
15961568 22 17758392259905108628
17844677 252 18264498445791050430
20645477 56 18412831312725560395
20645477 70 17203619168400909006
21033648 29 18411696578013097824
23227448 37 18409450318680694717
23557571 272 18267589176749606110
23559900 14 18272938177024664878
283562 15 18337669819502408723
4371632 12 16269365361807147560
469060 322 18116170994504638987
495365 180 17418083339599544466
508706 21 18339354261928855773
5283173 99 18412547634625682114
633830 44 18058724676774761165
6700243 42 17549867637644997262
7399639 24 17697026304044828954
7808743 9 18334858363721575228
9862522 239 17677321711186711405
9981440 41 18334295336664549587

> <PUBCHEM_SHAPE_MULTIPOLES>
496.65
11.63
4.67
1.23
8.3
2.26
-0.12
-8.34
0.38
-5.06
0.18
0.99
-0.83
1.6

> <PUBCHEM_SHAPE_SELFOVERLAP>
1051.724

> <PUBCHEM_SHAPE_VOLUME>
275.1

> <PUBCHEM_COORDINATE_TYPE>
2
5
10

$$$$
