10066397
  -OEChem-03292013303D

 48 48  0     1  0  0  0  0  0999 V2000
    2.2082    3.6321    0.6644 O   0  0  0  0  0  0  0  0  0  0  0  0
    1.9194    0.2234    2.2426 O   0  0  0  0  0  0  0  0  0  0  0  0
    2.4433    0.2749   -3.2480 O   0  0  0  0  0  0  0  0  0  0  0  0
    3.5271   -3.5618   -0.7608 O   0  0  0  0  0  0  0  0  0  0  0  0
   -5.4835   -1.8936   -0.7429 O   0  0  0  0  0  0  0  0  0  0  0  0
   -4.7548   -1.5147    1.4164 O   0  0  0  0  0  0  0  0  0  0  0  0
    2.8390   -2.0612    0.9218 N   0  0  0  0  0  0  0  0  0  0  0  0
   -0.1559    3.0770    0.3526 C   0  0  2  0  0  0  0  0  0  0  0  0
    1.2314    2.6078    0.8613 C   0  0  1  0  0  0  0  0  0  0  0  0
    1.7318    1.3645    0.1538 C   0  0  0  0  0  0  0  0  0  0  0  0
   -0.5870    4.3914    1.0186 C   0  0  0  0  0  0  0  0  0  0  0  0
   -1.2139    2.0269    0.6277 C   0  0  0  0  0  0  0  0  0  0  0  0
    2.0504    0.2333    0.8842 C   0  0  0  0  0  0  0  0  0  0  0  0
    1.8567    1.3968   -1.2242 C   0  0  0  0  0  0  0  0  0  0  0  0
    2.5081   -0.9020    0.2157 C   0  0  0  0  0  0  0  0  0  0  0  0
   -2.0149    1.3863   -0.2504 C   0  0  0  0  0  0  0  0  0  0  0  0
    2.3146    0.2615   -1.8929 C   0  0  0  0  0  0  0  0  0  0  0  0
    2.6403   -0.8880   -1.1729 C   0  0  0  0  0  0  0  0  0  0  0  0
   -1.9933    1.6165   -1.7391 C   0  0  0  0  0  0  0  0  0  0  0  0
   -2.9624    0.3935    0.2653 C   0  0  0  0  0  0  0  0  0  0  0  0
    3.3097   -3.2776    0.4126 C   0  0  0  0  0  0  0  0  0  0  0  0
   -3.8270   -0.3315   -0.4606 C   0  0  0  0  0  0  0  0  0  0  0  0
    3.5499   -4.2854    1.5085 C   0  0  0  0  0  0  0  0  0  0  0  0
   -4.7214   -1.2996    0.2151 C   0  0  0  0  0  0  0  0  0  0  0  0
   -6.4159   -2.8707   -0.2687 C   0  0  0  0  0  0  0  0  0  0  0  0
   -0.0848    3.3092   -0.7129 H   0  0  0  0  0  0  0  0  0  0  0  0
    1.1710    2.4552    1.9451 H   0  0  0  0  0  0  0  0  0  0  0  0
   -0.6314    4.2924    2.1091 H   0  0  0  0  0  0  0  0  0  0  0  0
    0.1138    5.1992    0.7829 H   0  0  0  0  0  0  0  0  0  0  0  0
   -1.5773    4.7030    0.6673 H   0  0  0  0  0  0  0  0  0  0  0  0
   -1.3132    1.7815    1.6866 H   0  0  0  0  0  0  0  0  0  0  0  0
    1.6205    2.2888   -1.7971 H   0  0  0  0  0  0  0  0  0  0  0  0
    3.0779    3.2722    0.9093 H   0  0  0  0  0  0  0  0  0  0  0  0
    2.9879   -1.7316   -1.7515 H   0  0  0  0  0  0  0  0  0  0  0  0
   -1.7275    0.6931   -2.2658 H   0  0  0  0  0  0  0  0  0  0  0  0
   -2.9758    1.9512   -2.0901 H   0  0  0  0  0  0  0  0  0  0  0  0
   -1.2770    2.3752   -2.0584 H   0  0  0  0  0  0  0  0  0  0  0  0
    2.7000   -2.0373    1.9267 H   0  0  0  0  0  0  0  0  0  0  0  0
   -2.9429    0.2493    1.3449 H   0  0  0  0  0  0  0  0  0  0  0  0
    2.5084   -0.4433    2.6277 H   0  0  0  0  0  0  0  0  0  0  0  0
    2.7710   -0.5907   -3.5462 H   0  0  0  0  0  0  0  0  0  0  0  0
   -3.9040   -0.2434   -1.5385 H   0  0  0  0  0  0  0  0  0  0  0  0
    4.2874   -3.8956    2.2158 H   0  0  0  0  0  0  0  0  0  0  0  0
    3.9286   -5.2169    1.0789 H   0  0  0  0  0  0  0  0  0  0  0  0
    2.6128   -4.4917    2.0334 H   0  0  0  0  0  0  0  0  0  0  0  0
   -7.1326   -2.4087    0.4170 H   0  0  0  0  0  0  0  0  0  0  0  0
   -6.9599   -3.2677   -1.1299 H   0  0  0  0  0  0  0  0  0  0  0  0
   -5.8860   -3.6929    0.2217 H   0  0  0  0  0  0  0  0  0  0  0  0
  1  9  1  0  0  0  0
  1 33  1  0  0  0  0
  2 13  1  0  0  0  0
  2 40  1  0  0  0  0
  3 17  1  0  0  0  0
  3 41  1  0  0  0  0
  4 21  2  0  0  0  0
  5 24  1  0  0  0  0
  5 25  1  0  0  0  0
  6 24  2  0  0  0  0
  7 15  1  0  0  0  0
  7 21  1  0  0  0  0
  7 38  1  0  0  0  0
  8  9  1  0  0  0  0
  8 11  1  0  0  0  0
  8 12  1  0  0  0  0
  8 26  1  0  0  0  0
  9 10  1  0  0  0  0
  9 27  1  0  0  0  0
 10 13  2  0  0  0  0
 10 14  1  0  0  0  0
 11 28  1  0  0  0  0
 11 29  1  0  0  0  0
 11 30  1  0  0  0  0
 12 16  2  0  0  0  0
 12 31  1  0  0  0  0
 13 15  1  0  0  0  0
 14 17  2  0  0  0  0
 14 32  1  0  0  0  0
 15 18  2  0  0  0  0
 16 19  1  0  0  0  0
 16 20  1  0  0  0  0
 17 18  1  0  0  0  0
 18 34  1  0  0  0  0
 19 35  1  0  0  0  0
 19 36  1  0  0  0  0
 19 37  1  0  0  0  0
 20 22  2  0  0  0  0
 20 39  1  0  0  0  0
 21 23  1  0  0  0  0
 22 24  1  0  0  0  0
 22 42  1  0  0  0  0
 23 43  1  0  0  0  0
 23 44  1  0  0  0  0
 23 45  1  0  0  0  0
 25 46  1  0  0  0  0
 25 47  1  0  0  0  0
 25 48  1  0  0  0  0
M  END
> <PUBCHEM_COMPOUND_CID>
10066397

> <PUBCHEM_CONFORMER_RMSD>
0.8

> <PUBCHEM_CONFORMER_DIVERSEORDER>
1
41
184
95
114
142
196
168
20
125
39
185
57
64
200
163
112
113
49
56
153
190
103
122
80
105
55
126
138
50
104
94
69
177
82
37
65
21
132
116
110
179
92
121
165
130
36
98
84
192
93
108
29
164
128
197
89
47
14
53
193
120
118
135
76
74
167
188
151
182
173
186
201
170
16
15
90
85
160
63
180
75
169
79
137
102
48
149
35
131
40
136
198
171
31
144
117
96
59
106
25
174
101
97
172
18
86
123
6
61
115
129
73
83
52
154
88
66
24
78
143
147
183
139
81
38
109
23
178
2
134
181
133
30
107
60
72
87
195
155
152
28
3
176
62
146
156
17
8
100
44
162
166
124
70
34
141
199
67
158
54
71
194
43
157
127
175
10
111
13
11
22
5
45
161
32
12
159
19
68
99
91
150
140
119
148
27
187
26
46
33
51
42
4
145
189
7
9
191
77
58

> <PUBCHEM_MMFF94_PARTIAL_CHARGES>
33
1 -0.68
10 -0.14
12 -0.29
13 0.08
14 -0.15
15 0.12
16 -0.14
17 0.08
18 -0.15
19 0.14
2 -0.53
20 -0.15
21 0.57
22 -0.14
23 0.06
24 0.71
25 0.28
3 -0.53
31 0.15
32 0.15
33 0.4
34 0.15
38 0.37
39 0.15
4 -0.57
40 0.45
41 0.45
42 0.15
5 -0.43
6 -0.57
7 -0.55
8 0.14
9 0.42

> <PUBCHEM_EFFECTIVE_ROTOR_COUNT>
8

> <PUBCHEM_PHARMACOPHORE_FEATURES>
10
1 1 acceptor
1 1 donor
1 11 hydrophobe
1 19 hydrophobe
1 2 donor
1 3 donor
1 4 acceptor
1 6 acceptor
1 7 donor
6 10 13 14 15 17 18 rings

> <PUBCHEM_HEAVY_ATOM_COUNT>
25

> <PUBCHEM_ATOM_DEF_STEREO_COUNT>
0

> <PUBCHEM_ATOM_UDEF_STEREO_COUNT>
2

> <PUBCHEM_BOND_DEF_STEREO_COUNT>
2

> <PUBCHEM_BOND_UDEF_STEREO_COUNT>
0

> <PUBCHEM_ISOTOPIC_ATOM_COUNT>
0

> <PUBCHEM_COMPONENT_COUNT>
1

> <PUBCHEM_CACTVS_TAUTO_COUNT>
20

> <PUBCHEM_CONFORMER_ID>
009999DD00000001

> <PUBCHEM_MMFF94_ENERGY>
67.4064

> <PUBCHEM_FEATURE_SELFOVERLAP>
50.751

> <PUBCHEM_SHAPE_FINGERPRINT>
10928967 22 18338814385199891547
114674 6 18193276514644035339
11578080 2 17680701528838839044
11640471 11 10950609640859476420
11991303 11 17397262111100939692
12969540 37 18190732047490924714
12990986 174 18123463874152648330
13009979 54 18047201747866194134
13533116 47 17984426502248033307
14468879 13 10087626140088301661
14863182 85 18192711374194645384
14866123 147 17908701731709473089
15003188 105 18339643455189118671
15664445 248 17823985743473831605
17859628 70 18340202011485506323
19734167 9 15553863577364293974
20645477 70 18126002917659057501
20775438 99 18047457109632578491
20775530 9 18188497856642414699
22956985 138 18337658747149891040
238 59 15719687488669496744
23845131 108 16973349848397746433
239999 70 17984711270720978453
25222932 49 18271238447284013167
345986 75 17917720119311361251
404807 78 17173223375341024443
463206 1 18408325484327181299
57359948 33 17677875994434323437
6433294 58 18265050417655712707
6669772 16 18125441067360078564
88748 71 18261678069548552395
960060 61 17823135782599028983
9831232 110 17753893024735007803

> <PUBCHEM_SHAPE_MULTIPOLES>
474.29
9.88
5.58
1.89
17.33
0.67
-1.05
14.75
-0.25
-2.57
2.39
-1.63
-0.15
-0.86

> <PUBCHEM_SHAPE_SELFOVERLAP>
973.792

> <PUBCHEM_SHAPE_VOLUME>
272.6

> <PUBCHEM_COORDINATE_TYPE>
2
5
10

$$$$
