100683
  -OEChem-03292013323D

 33 35  0     1  0  0  0  0  0999 V2000
    2.2874   -0.3267    1.0553 O   0  0  0  0  0  0  0  0  0  0  0  0
    1.1229    2.2088   -1.1892 O   0  0  0  0  0  0  0  0  0  0  0  0
    3.4441    2.3184    0.2576 O   0  0  0  0  0  0  0  0  0  0  0  0
    4.1102   -2.3757    0.4230 O   0  0  0  0  0  0  0  0  0  0  0  0
   -4.0979   -1.9693   -0.5061 O   0  0  0  0  0  0  0  0  0  0  0  0
    0.0586   -0.3940    0.2475 N   0  0  0  0  0  0  0  0  0  0  0  0
   -2.0294   -1.0666   -0.1042 N   0  0  0  0  0  0  0  0  0  0  0  0
   -1.7953    1.1996    0.4085 N   0  0  0  0  0  0  0  0  0  0  0  0
   -3.9392    0.2569   -0.0062 N   0  0  0  0  0  0  0  0  0  0  0  0
   -3.7518    2.5134    0.5000 N   0  0  0  0  0  0  0  0  0  0  0  0
    1.2160    0.4371    0.4724 C   0  0  2  0  0  0  0  0  0  0  0  0
    1.7504    0.9918   -0.8387 C   0  0  2  0  0  0  0  0  0  0  0  0
    3.2259    1.1530   -0.5369 C   0  0  2  0  0  0  0  0  0  0  0  0
    3.5082   -0.0658    0.3298 C   0  0  2  0  0  0  0  0  0  0  0  0
    3.8568   -1.3102   -0.4758 C   0  0  0  0  0  0  0  0  0  0  0  0
   -1.2577    0.0458    0.2130 C   0  0  0  0  0  0  0  0  0  0  0  0
    0.0642   -1.7466   -0.0530 C   0  0  0  0  0  0  0  0  0  0  0  0
   -1.1981   -2.1560   -0.2631 C   0  0  0  0  0  0  0  0  0  0  0  0
   -3.3995   -0.9968   -0.2246 C   0  0  0  0  0  0  0  0  0  0  0  0
   -3.1757    1.2830    0.2907 C   0  0  0  0  0  0  0  0  0  0  0  0
    0.9665    1.2407    1.1760 H   0  0  0  0  0  0  0  0  0  0  0  0
    1.6085    0.2793   -1.6604 H   0  0  0  0  0  0  0  0  0  0  0  0
    3.8573    1.2282   -1.4265 H   0  0  0  0  0  0  0  0  0  0  0  0
    4.2844    0.1308    1.0781 H   0  0  0  0  0  0  0  0  0  0  0  0
    4.7496   -1.1509   -1.0885 H   0  0  0  0  0  0  0  0  0  0  0  0
    3.0382   -1.6214   -1.1300 H   0  0  0  0  0  0  0  0  0  0  0  0
    0.9759   -2.3180   -0.0952 H   0  0  0  0  0  0  0  0  0  0  0  0
    1.5755    2.5533   -1.9779 H   0  0  0  0  0  0  0  0  0  0  0  0
    3.1530    3.0836   -0.2672 H   0  0  0  0  0  0  0  0  0  0  0  0
   -1.5686   -3.1354   -0.5161 H   0  0  0  0  0  0  0  0  0  0  0  0
    4.8705   -2.1233    0.9741 H   0  0  0  0  0  0  0  0  0  0  0  0
   -3.1890    3.3249    0.7304 H   0  0  0  0  0  0  0  0  0  0  0  0
   -4.7551    2.6431    0.4290 H   0  0  0  0  0  0  0  0  0  0  0  0
  1 11  1  0  0  0  0
  1 14  1  0  0  0  0
  2 12  1  0  0  0  0
  2 28  1  0  0  0  0
  3 13  1  0  0  0  0
  3 29  1  0  0  0  0
  4 15  1  0  0  0  0
  4 31  1  0  0  0  0
  5 19  2  0  0  0  0
  6 11  1  0  0  0  0
  6 16  1  0  0  0  0
  6 17  1  0  0  0  0
  7 16  1  0  0  0  0
  7 18  1  0  0  0  0
  7 19  1  0  0  0  0
  8 16  2  0  0  0  0
  8 20  1  0  0  0  0
  9 19  1  0  0  0  0
  9 20  2  0  0  0  0
 10 20  1  0  0  0  0
 10 32  1  0  0  0  0
 10 33  1  0  0  0  0
 11 12  1  0  0  0  0
 11 21  1  0  0  0  0
 12 13  1  0  0  0  0
 12 22  1  0  0  0  0
 13 14  1  0  0  0  0
 13 23  1  0  0  0  0
 14 15  1  0  0  0  0
 14 24  1  0  0  0  0
 15 25  1  0  0  0  0
 15 26  1  0  0  0  0
 17 18  2  0  0  0  0
 17 27  1  0  0  0  0
 18 30  1  0  0  0  0
M  END
> <PUBCHEM_COMPOUND_CID>
100683

> <PUBCHEM_CONFORMER_RMSD>
0.6

> <PUBCHEM_CONFORMER_DIVERSEORDER>
1
14
8
13
7
9
11
5
12
2
3
10
6
4

> <PUBCHEM_MMFF94_PARTIAL_CHARGES>
27
1 -0.56
10 -0.85
11 0.65
12 0.28
13 0.28
14 0.28
15 0.28
16 0.56
17 -0.05
18 -0.04
19 0.84
2 -0.68
20 0.71
27 0.15
28 0.4
29 0.4
3 -0.68
30 0.15
31 0.4
32 0.4
33 0.4
4 -0.68
5 -0.57
6 -0.52
7 -0.23
8 -0.66
9 -0.66

> <PUBCHEM_EFFECTIVE_ROTOR_COUNT>
3

> <PUBCHEM_PHARMACOPHORE_FEATURES>
13
1 1 acceptor
1 10 donor
1 2 acceptor
1 2 donor
1 3 acceptor
1 3 donor
1 4 acceptor
1 4 donor
1 5 acceptor
1 9 donor
5 1 11 12 13 14 rings
5 6 7 16 17 18 rings
6 7 8 9 16 19 20 rings

> <PUBCHEM_HEAVY_ATOM_COUNT>
20

> <PUBCHEM_ATOM_DEF_STEREO_COUNT>
4

> <PUBCHEM_ATOM_UDEF_STEREO_COUNT>
0

> <PUBCHEM_BOND_DEF_STEREO_COUNT>
0

> <PUBCHEM_BOND_UDEF_STEREO_COUNT>
0

> <PUBCHEM_ISOTOPIC_ATOM_COUNT>
0

> <PUBCHEM_COMPONENT_COUNT>
1

> <PUBCHEM_CACTVS_TAUTO_COUNT>
3

> <PUBCHEM_CONFORMER_ID>
0001894B00000001

> <PUBCHEM_MMFF94_ENERGY>
75.1253

> <PUBCHEM_FEATURE_SELFOVERLAP>
66.161

> <PUBCHEM_SHAPE_FINGERPRINT>
10062212 137 18271519815029121471
10616163 171 18269276931541344526
12107183 9 18051131385043238018
12173636 292 18341046406372063789
12403259 226 18342451569395088177
12670545 47 14996566243459890439
13140716 1 18337677420855277945
13583140 156 16916767596619776962
14144814 61 18335984258842521816
14178342 30 18120644988753574074
15196674 1 18411419509603766895
15442244 35 18410011009776418160
15536298 74 18411699906965692392
16752209 62 18342729741636880635
16945 1 18193847169452280779
17492 89 18410575127624204342
17804303 29 18342177722259027122
1813 80 17313382280546510022
18186145 218 17749104499936655811
19422 9 18408604768463674162
19591789 44 17329996789614665678
20510252 161 18200880681337974649
20645477 70 18342742944424591990
21267235 1 18410301319237560850
2255824 54 17967814968489673330
23184049 59 18262239919652508176
23402539 116 18272364291261198557
23463225 33 18409448064049593758
23557571 272 17988090013997311136
23558518 356 18261965136314174139
23559900 14 18060137601262151224
23598291 2 18333452040687855918
312423 11 18261405480621507719
335352 9 18194965145128586397
350125 39 18411423873796948411
4214541 1 18412826867376100784
474 4 17388538486966549164
5104073 3 18411420613457907147
633830 44 17530973461864987784
7164475 11 18340762753789015703
7364860 26 18340768256069188176
74978 22 18334582390302324766
7832392 63 18408326613855606836
9709674 26 18340773736057626478
9981440 41 17542505380773835968

> <PUBCHEM_SHAPE_MULTIPOLES>
357.34
8.17
2.62
0.82
0.53
0.16
0.06
-0.25
-0.09
0.11
0.16
-0.31
0.14
-0.87

> <PUBCHEM_SHAPE_SELFOVERLAP>
776.864

> <PUBCHEM_SHAPE_VOLUME>
193.7

> <PUBCHEM_COORDINATE_TYPE>
2
5
10

$$$$
