100602
  -OEChem-03292013323D

 32 31  0     0  0  0  0  0  0999 V2000
   -0.7520    0.1336    0.7053 S   0  0  0  0  0  0  0  0  0  0  0  0
    0.7549    0.1334   -0.6916 S   0  0  0  0  0  0  0  0  0  0  0  0
   -5.4071    0.9462   -0.0034 O   0  0  0  0  0  0  0  0  0  0  0  0
    5.4063    0.9456   -0.0085 O   0  0  0  0  0  0  0  0  0  0  0  0
   -3.5564   -0.2826   -0.6842 N   0  0  0  0  0  0  0  0  0  0  0  0
    3.5548   -0.2744    0.6885 N   0  0  0  0  0  0  0  0  0  0  0  0
   -2.7450    0.8392   -1.0974 C   0  0  0  0  0  0  0  0  0  0  0  0
    2.7483    0.8442    1.0959 C   0  0  0  0  0  0  0  0  0  0  0  0
   -1.8759    1.3909    0.0245 C   0  0  0  0  0  0  0  0  0  0  0  0
    1.8748    1.3886   -0.0262 C   0  0  0  0  0  0  0  0  0  0  0  0
   -4.8312   -0.1246   -0.1677 C   0  0  0  0  0  0  0  0  0  0  0  0
    4.8314   -0.1245    0.1644 C   0  0  0  0  0  0  0  0  0  0  0  0
   -5.4520   -1.4294    0.1840 C   0  0  0  0  0  0  0  0  0  0  0  0
    5.4515   -1.4313   -0.1816 C   0  0  0  0  0  0  0  0  0  0  0  0
   -6.6849   -1.4752    0.6979 C   0  0  0  0  0  0  0  0  0  0  0  0
    6.6825   -1.4798   -0.6998 C   0  0  0  0  0  0  0  0  0  0  0  0
   -3.4045    1.6338   -1.4647 H   0  0  0  0  0  0  0  0  0  0  0  0
   -2.1369    0.5067   -1.9455 H   0  0  0  0  0  0  0  0  0  0  0  0
    3.4078    1.6424    1.4556 H   0  0  0  0  0  0  0  0  0  0  0  0
    2.1431    0.5185    1.9489 H   0  0  0  0  0  0  0  0  0  0  0  0
   -1.3090    2.2649   -0.3124 H   0  0  0  0  0  0  0  0  0  0  0  0
   -2.5151    1.7246    0.8495 H   0  0  0  0  0  0  0  0  0  0  0  0
    2.5119    1.7195   -0.8541 H   0  0  0  0  0  0  0  0  0  0  0  0
    1.3107    2.2653    0.3086 H   0  0  0  0  0  0  0  0  0  0  0  0
   -3.1552   -1.2114   -0.7757 H   0  0  0  0  0  0  0  0  0  0  0  0
    3.1542   -1.2028    0.7871 H   0  0  0  0  0  0  0  0  0  0  0  0
   -4.8938   -2.3445    0.0191 H   0  0  0  0  0  0  0  0  0  0  0  0
    4.8937   -2.3450   -0.0088 H   0  0  0  0  0  0  0  0  0  0  0  0
   -7.1312   -2.4311    0.9521 H   0  0  0  0  0  0  0  0  0  0  0  0
   -7.2762   -0.5845    0.8783 H   0  0  0  0  0  0  0  0  0  0  0  0
    7.1283   -2.4369   -0.9497 H   0  0  0  0  0  0  0  0  0  0  0  0
    7.2728   -0.5899   -0.8877 H   0  0  0  0  0  0  0  0  0  0  0  0
  1  2  1  0  0  0  0
  1  9  1  0  0  0  0
  2 10  1  0  0  0  0
  3 11  2  0  0  0  0
  4 12  2  0  0  0  0
  5  7  1  0  0  0  0
  5 11  1  0  0  0  0
  5 25  1  0  0  0  0
  6  8  1  0  0  0  0
  6 12  1  0  0  0  0
  6 26  1  0  0  0  0
  7  9  1  0  0  0  0
  7 17  1  0  0  0  0
  7 18  1  0  0  0  0
  8 10  1  0  0  0  0
  8 19  1  0  0  0  0
  8 20  1  0  0  0  0
  9 21  1  0  0  0  0
  9 22  1  0  0  0  0
 10 23  1  0  0  0  0
 10 24  1  0  0  0  0
 11 13  1  0  0  0  0
 12 14  1  0  0  0  0
 13 15  2  0  0  0  0
 13 27  1  0  0  0  0
 14 16  2  0  0  0  0
 14 28  1  0  0  0  0
 15 29  1  0  0  0  0
 15 30  1  0  0  0  0
 16 31  1  0  0  0  0
 16 32  1  0  0  0  0
M  END
> <PUBCHEM_COMPOUND_CID>
100602

> <PUBCHEM_CONFORMER_RMSD>
1

> <PUBCHEM_CONFORMER_DIVERSEORDER>
1
9
21
7
15
97
43
98
84
90
104
85
26
74
12
42
78
4
6
40
20
77
49
10
103
17
30
22
24
48
95
81
93
2
61
28
47
25
54
99
100
66
8
75
71
69
65
60
91
37
56
82
68
79
29
31
76
64
50
18
23
101
46
45
27
13
105
52
41
35
39
89
94
102
16
92
53
59
106
88
57
34
3
5
38
73
63
87
70
11
83
32
96
86
51
80
67
44
72
62
58
55
19
14
33
36

> <PUBCHEM_MMFF94_PARTIAL_CHARGES>
24
1 -0.23
10 0.23
11 0.62
12 0.62
13 -0.14
14 -0.14
15 -0.3
16 -0.3
2 -0.23
25 0.37
26 0.37
27 0.15
28 0.15
29 0.15
3 -0.57
30 0.15
31 0.15
32 0.15
4 -0.57
5 -0.73
6 -0.73
7 0.3
8 0.3
9 0.23

> <PUBCHEM_EFFECTIVE_ROTOR_COUNT>
11

> <PUBCHEM_PHARMACOPHORE_FEATURES>
7
1 15 hydrophobe
1 16 hydrophobe
1 3 acceptor
1 4 acceptor
1 5 donor
1 6 donor
4 1 2 9 10 hydrophobe

> <PUBCHEM_HEAVY_ATOM_COUNT>
16

> <PUBCHEM_ATOM_DEF_STEREO_COUNT>
0

> <PUBCHEM_ATOM_UDEF_STEREO_COUNT>
0

> <PUBCHEM_BOND_DEF_STEREO_COUNT>
0

> <PUBCHEM_BOND_UDEF_STEREO_COUNT>
0

> <PUBCHEM_ISOTOPIC_ATOM_COUNT>
0

> <PUBCHEM_COMPONENT_COUNT>
1

> <PUBCHEM_CACTVS_TAUTO_COUNT>
3

> <PUBCHEM_CONFORMER_ID>
000188FA00000001

> <PUBCHEM_MMFF94_ENERGY>
8.0727

> <PUBCHEM_FEATURE_SELFOVERLAP>
35.522

> <PUBCHEM_SHAPE_FINGERPRINT>
10014705 185 8070022281238524045
10730089 47 18114456769830228130
11089746 13 11527942348864807539
117890 112 10303813189740453362
12616971 3 16630518557406248220
13073987 5 18130785629999464680
13288520 33 18261110777630744197
13533116 47 18201438112485468648
13668630 136 18412830157859444558
13685833 64 18343584028075525370
14123256 34 18187089477047308811
1420 363 18410293614007917187
14251718 22 17748824129046082508
14251764 18 17489869332916928720
14341114 176 18273213114443595656
14350574 20 18334575754340482073
14455015 7 18272087197230107912
14729087 3 9799690385286239462
15716309 27 18272370893237829567
17834072 33 13551197696732624016
20621476 21 18335710463521180795
20621476 38 18410857654973046854
20645477 70 18341612578236739606
20767249 213 11314310542222667281
21150785 3 17458633324062927646
21267235 1 18410860957686307171
220451 1 17313381189165887441
22765269 38 8358258137652136194
2297311 6 18186802470110607349
23035841 295 18261110759781072603
23402539 116 18186514402427753613
2767999 5 9151174255095057327
300161 21 7997966869281313920
351380 3 18410851062081728647
465052 167 18202566168549945670
5283384 27 11314319368977001646
59755656 215 18335138674271902043

> <PUBCHEM_SHAPE_MULTIPOLES>
315.27
18.88
1.6
0.96
0.03
0.25
0
10.43
-0.02
-0.01
0
0
-0.04
1.26

> <PUBCHEM_SHAPE_SELFOVERLAP>
572.299

> <PUBCHEM_SHAPE_VOLUME>
201.7

> <PUBCHEM_COORDINATE_TYPE>
2
5
10

$$$$
