10067935
  -OEChem-03292013303D

 46 49  0     1  0  0  0  0  0999 V2000
    3.6548    0.6259   -1.0666 O   0  0  0  0  0  0  0  0  0  0  0  0
    1.6094    2.0061    1.5474 O   0  0  0  0  0  0  0  0  0  0  0  0
    3.1148    3.4876   -0.1626 O   0  0  0  0  0  0  0  0  0  0  0  0
    6.4179    0.1610   -0.9567 O   0  0  0  0  0  0  0  0  0  0  0  0
   -6.4174    1.7525   -0.3224 O   0  0  0  0  0  0  0  0  0  0  0  0
    1.9322   -0.6931   -0.1060 N   0  0  0  0  0  0  0  0  0  0  0  0
    1.9631   -2.9020    0.2074 N   0  0  0  0  0  0  0  0  0  0  0  0
   -0.4670   -0.3108   -0.1231 N   0  0  0  0  0  0  0  0  0  0  0  0
   -1.7005   -2.3929    0.1928 N   0  0  0  0  0  0  0  0  0  0  0  0
   -0.6083   -4.5029    0.4766 N   0  0  0  0  0  0  0  0  0  0  0  0
    2.7558    1.4041    0.9817 C   0  0  1  0  0  0  0  0  0  0  0  0
    2.4309    0.6653   -0.3077 C   0  0  1  0  0  0  0  0  0  0  0  0
    3.7803    2.4131    0.5011 C   0  0  1  0  0  0  0  0  0  0  0  0
    4.5681    1.6107   -0.5298 C   0  0  1  0  0  0  0  0  0  0  0  0
    5.7613    0.8815    0.0715 C   0  0  0  0  0  0  0  0  0  0  0  0
    0.6247   -1.0848   -0.0298 C   0  0  0  0  0  0  0  0  0  0  0  0
    2.6969   -1.8213    0.0416 C   0  0  0  0  0  0  0  0  0  0  0  0
    0.6659   -2.4562    0.1649 C   0  0  0  0  0  0  0  0  0  0  0  0
   -0.5557   -3.1125    0.2777 C   0  0  0  0  0  0  0  0  0  0  0  0
   -1.5866   -1.0564    0.0006 C   0  0  0  0  0  0  0  0  0  0  0  0
   -2.8304   -0.3324   -0.0835 C   0  0  0  0  0  0  0  0  0  0  0  0
   -2.8989    0.9982    0.3379 C   0  0  0  0  0  0  0  0  0  0  0  0
   -3.9746   -0.9579   -0.5860 C   0  0  0  0  0  0  0  0  0  0  0  0
   -4.1028    1.6981    0.2574 C   0  0  0  0  0  0  0  0  0  0  0  0
   -5.1784   -0.2579   -0.6666 C   0  0  0  0  0  0  0  0  0  0  0  0
   -5.2426    1.0702   -0.2449 C   0  0  0  0  0  0  0  0  0  0  0  0
   -6.4128    3.1067    0.1271 C   0  0  0  0  0  0  0  0  0  0  0  0
    3.2019    0.7322    1.7241 H   0  0  0  0  0  0  0  0  0  0  0  0
    1.6812    1.1917   -0.9113 H   0  0  0  0  0  0  0  0  0  0  0  0
    4.3823    2.8394    1.3085 H   0  0  0  0  0  0  0  0  0  0  0  0
    4.8958    2.2268   -1.3748 H   0  0  0  0  0  0  0  0  0  0  0  0
    5.4603    0.1632    0.8405 H   0  0  0  0  0  0  0  0  0  0  0  0
    6.4748    1.5864    0.5082 H   0  0  0  0  0  0  0  0  0  0  0  0
    1.2490    2.6352    0.8994 H   0  0  0  0  0  0  0  0  0  0  0  0
    3.8006    4.0902   -0.4979 H   0  0  0  0  0  0  0  0  0  0  0  0
    3.7779   -1.7995    0.0258 H   0  0  0  0  0  0  0  0  0  0  0  0
    5.7729   -0.4590   -1.3381 H   0  0  0  0  0  0  0  0  0  0  0  0
   -1.5084   -4.9565    0.5547 H   0  0  0  0  0  0  0  0  0  0  0  0
    0.2443   -5.0425    0.5398 H   0  0  0  0  0  0  0  0  0  0  0  0
   -2.0311    1.5130    0.7439 H   0  0  0  0  0  0  0  0  0  0  0  0
   -3.9567   -1.9884   -0.9330 H   0  0  0  0  0  0  0  0  0  0  0  0
   -4.0831    2.7256    0.6044 H   0  0  0  0  0  0  0  0  0  0  0  0
   -6.0626   -0.7515   -1.0607 H   0  0  0  0  0  0  0  0  0  0  0  0
   -5.7490    3.7304   -0.4813 H   0  0  0  0  0  0  0  0  0  0  0  0
   -7.4278    3.4951   -0.0069 H   0  0  0  0  0  0  0  0  0  0  0  0
   -6.1828    3.1752    1.1958 H   0  0  0  0  0  0  0  0  0  0  0  0
  1 12  1  0  0  0  0
  1 14  1  0  0  0  0
  2 11  1  0  0  0  0
  2 34  1  0  0  0  0
  3 13  1  0  0  0  0
  3 35  1  0  0  0  0
  4 15  1  0  0  0  0
  4 37  1  0  0  0  0
  5 26  1  0  0  0  0
  5 27  1  0  0  0  0
  6 12  1  0  0  0  0
  6 16  1  0  0  0  0
  6 17  1  0  0  0  0
  7 17  2  0  0  0  0
  7 18  1  0  0  0  0
  8 16  2  0  0  0  0
  8 20  1  0  0  0  0
  9 19  1  0  0  0  0
  9 20  2  0  0  0  0
 10 19  1  0  0  0  0
 10 38  1  0  0  0  0
 10 39  1  0  0  0  0
 11 12  1  0  0  0  0
 11 13  1  0  0  0  0
 11 28  1  0  0  0  0
 12 29  1  0  0  0  0
 13 14  1  0  0  0  0
 13 30  1  0  0  0  0
 14 15  1  0  0  0  0
 14 31  1  0  0  0  0
 15 32  1  0  0  0  0
 15 33  1  0  0  0  0
 16 18  1  0  0  0  0
 17 36  1  0  0  0  0
 18 19  2  0  0  0  0
 20 21  1  0  0  0  0
 21 22  2  0  0  0  0
 21 23  1  0  0  0  0
 22 24  1  0  0  0  0
 22 40  1  0  0  0  0
 23 25  2  0  0  0  0
 23 41  1  0  0  0  0
 24 26  2  0  0  0  0
 24 42  1  0  0  0  0
 25 26  1  0  0  0  0
 25 43  1  0  0  0  0
 27 44  1  0  0  0  0
 27 45  1  0  0  0  0
 27 46  1  0  0  0  0
M  END
> <PUBCHEM_COMPOUND_CID>
10067935

> <PUBCHEM_CONFORMER_RMSD>
0.8

> <PUBCHEM_CONFORMER_DIVERSEORDER>
3
4
7
20
21
19
15
10
1
11
13
14
12
6
17
18
16
5
9
2
8

> <PUBCHEM_MMFF94_PARTIAL_CHARGES>
36
1 -0.56
10 -0.9
11 0.28
12 0.54
13 0.28
14 0.28
15 0.28
16 0.11
17 0.04
18 0.23
19 0.41
2 -0.68
20 0.62
22 -0.15
23 -0.15
24 -0.15
25 -0.15
26 0.08
27 0.28
3 -0.68
34 0.4
35 0.4
36 0.15
37 0.4
38 0.4
39 0.4
4 -0.68
40 0.15
41 0.15
42 0.15
43 0.15
5 -0.36
6 0.05
7 -0.57
8 -0.57
9 -0.62

> <PUBCHEM_EFFECTIVE_ROTOR_COUNT>
5

> <PUBCHEM_PHARMACOPHORE_FEATURES>
17
1 1 acceptor
1 10 cation
1 10 donor
1 2 acceptor
1 2 donor
1 3 acceptor
1 3 donor
1 4 acceptor
1 4 donor
1 5 acceptor
3 6 7 17 cation
3 6 8 16 cation
3 8 9 20 cation
5 1 11 12 13 14 rings
5 6 7 16 17 18 rings
6 21 22 23 24 25 26 rings
6 8 9 16 18 19 20 rings

> <PUBCHEM_HEAVY_ATOM_COUNT>
27

> <PUBCHEM_ATOM_DEF_STEREO_COUNT>
4

> <PUBCHEM_ATOM_UDEF_STEREO_COUNT>
0

> <PUBCHEM_BOND_DEF_STEREO_COUNT>
0

> <PUBCHEM_BOND_UDEF_STEREO_COUNT>
0

> <PUBCHEM_ISOTOPIC_ATOM_COUNT>
0

> <PUBCHEM_COMPONENT_COUNT>
1

> <PUBCHEM_CACTVS_TAUTO_COUNT>
3

> <PUBCHEM_CONFORMER_ID>
00999FDF00000003

> <PUBCHEM_MMFF94_ENERGY>
80.95

> <PUBCHEM_FEATURE_SELFOVERLAP>
86.895

> <PUBCHEM_SHAPE_FINGERPRINT>
10165383 225 18334299755753198308
10411042 1 17473260976992444963
10483366 6 18267878203165111678
1200032 147 18261121716395833777
12107183 9 18262221301702295912
12293681 160 18060421300530807473
12516196 113 9655576313965028276
12769317 202 18341039744814704721
12788726 201 17274262717666596337
13140716 1 18334009463245967827
138480 1 17977944579515671059
13878862 14 18046323277047065453
13944108 23 18051415063391633149
13965767 371 18041263457273649068
14528608 73 18341608209943717989
14790565 3 18409732893680982557
14840074 17 17386009515327150661
14848178 96 18411132533285990785
14931854 50 18130511837965164589
15052358 14 18340783589329340678
15238133 3 18340194246432600872
15322687 12 18412823577373364032
18608769 82 18267026236124857763
20715895 44 18411699902755615008
21033648 144 18114176398781334543
21033648 29 18339637944682787529
21279426 13 18342748420723756366
22122407 14 18053394193702901377
22393880 68 18202559605402177765
23559900 14 18272928323514573858
23845131 108 18261112963669547067
245318 6 17896335764465008629
24893992 56 18411699894418524273
2838139 119 18341609356077487317
335352 9 18410293610593820950
350125 39 18335980861702803828
4058900 60 18334583395430057107
474 4 18410008793768654371
5104073 3 18187087209615917371
59124914 9 18409448089766565768
59755656 215 18411705366190918430
59755656 520 18335133223910645207
6328613 192 18189342436951174380
633830 44 18341324505800249447
67856867 119 18338786824183367003
7288768 16 18113335332320663371
7808743 9 18119809363847973648
7970288 3 9727641591879485509
84936 182 18341890758219225467
9981440 41 18335420201262773243

> <PUBCHEM_SHAPE_MULTIPOLES>
501.4
13.82
4.25
0.84
7.07
2.32
0.06
-13.56
-2.65
0.25
0.82
-0.42
-0.22
-0.08

> <PUBCHEM_SHAPE_SELFOVERLAP>
1103.164

> <PUBCHEM_SHAPE_VOLUME>
268.2

> <PUBCHEM_COORDINATE_TYPE>
2
5
10

$$$$
