10067728
  -OEChem-03292013303D

 37 39  0     0  0  0  0  0  0999 V2000
   -0.5309   -0.3138    0.5918 O   0  0  0  0  0  0  0  0  0  0  0  0
   -0.7622    3.6372   -0.4444 O   0  0  0  0  0  0  0  0  0  0  0  0
   -2.5325   -4.1741    0.1932 O   0  0  0  0  0  0  0  0  0  0  0  0
    2.8470    1.8492    0.0833 O   0  5  0  0  0  0  0  0  0  0  0  0
    1.7008    3.6634   -0.4125 O   0  0  0  0  0  0  0  0  0  0  0  0
   -2.7796   -2.5358   -1.3590 O   0  0  0  0  0  0  0  0  0  0  0  0
    2.5345   -1.6444   -2.6566 O   0  5  0  0  0  0  0  0  0  0  0  0
    0.8952   -0.3495   -1.9819 O   0  0  0  0  0  0  0  0  0  0  0  0
    1.7898    2.4676   -0.1015 N   0  3  0  0  0  0  0  0  0  0  0  0
    1.9383   -1.0067   -1.7579 N   0  3  0  0  0  0  0  0  0  0  0  0
   -1.7544    0.2891    0.4235 C   0  0  0  0  0  0  0  0  0  0  0  0
   -1.9029    1.6319    0.0693 C   0  0  0  0  0  0  0  0  0  0  0  0
   -2.8829   -0.5067    0.6242 C   0  0  0  0  0  0  0  0  0  0  0  0
    0.6165    0.4469    0.3942 C   0  0  0  0  0  0  0  0  0  0  0  0
    0.5755    1.7439    0.0576 C   0  0  0  0  0  0  0  0  0  0  0  0
   -0.6981    2.4558   -0.1364 C   0  0  0  0  0  0  0  0  0  0  0  0
    1.8422   -0.3382    0.6062 C   0  0  0  0  0  0  0  0  0  0  0  0
   -2.7565   -1.9459    1.0037 C   0  0  0  0  0  0  0  0  0  0  0  0
   -3.1767    2.1840   -0.0858 C   0  0  0  0  0  0  0  0  0  0  0  0
   -4.1561    0.0423    0.4698 C   0  0  0  0  0  0  0  0  0  0  0  0
   -4.3023    1.3842    0.1154 C   0  0  0  0  0  0  0  0  0  0  0  0
    2.4644   -1.0300   -0.4350 C   0  0  0  0  0  0  0  0  0  0  0  0
    2.3861   -0.3830    1.8913 C   0  0  0  0  0  0  0  0  0  0  0  0
    3.6255   -1.7638   -0.1918 C   0  0  0  0  0  0  0  0  0  0  0  0
    3.5471   -1.1169    2.1345 C   0  0  0  0  0  0  0  0  0  0  0  0
   -2.6948   -2.8796   -0.1880 C   0  0  0  0  0  0  0  0  0  0  0  0
    4.1669   -1.8073    1.0929 C   0  0  0  0  0  0  0  0  0  0  0  0
   -3.6177   -2.2423    1.6156 H   0  0  0  0  0  0  0  0  0  0  0  0
   -1.8655   -2.1083    1.6211 H   0  0  0  0  0  0  0  0  0  0  0  0
   -3.3113    3.2262   -0.3610 H   0  0  0  0  0  0  0  0  0  0  0  0
   -5.0452   -0.5647    0.6200 H   0  0  0  0  0  0  0  0  0  0  0  0
   -5.2957    1.8072   -0.0045 H   0  0  0  0  0  0  0  0  0  0  0  0
    1.9160    0.1478    2.7159 H   0  0  0  0  0  0  0  0  0  0  0  0
    4.1395   -2.3156   -0.9748 H   0  0  0  0  0  0  0  0  0  0  0  0
    3.9686   -1.1509    3.1349 H   0  0  0  0  0  0  0  0  0  0  0  0
    5.0710   -2.3785    1.2829 H   0  0  0  0  0  0  0  0  0  0  0  0
   -2.4929   -4.7795   -0.5777 H   0  0  0  0  0  0  0  0  0  0  0  0
  1 11  1  0  0  0  0
  1 14  1  0  0  0  0
  2 16  2  0  0  0  0
  3 26  1  0  0  0  0
  3 37  1  0  0  0  0
  4  9  1  0  0  0  0
  5  9  2  0  0  0  0
  6 26  2  0  0  0  0
  7 10  1  0  0  0  0
  8 10  2  0  0  0  0
  9 15  1  0  0  0  0
 10 22  1  0  0  0  0
 11 12  1  0  0  0  0
 11 13  2  0  0  0  0
 12 16  1  0  0  0  0
 12 19  2  0  0  0  0
 13 18  1  0  0  0  0
 13 20  1  0  0  0  0
 14 15  2  0  0  0  0
 14 17  1  0  0  0  0
 15 16  1  0  0  0  0
 17 22  1  0  0  0  0
 17 23  2  0  0  0  0
 18 26  1  0  0  0  0
 18 28  1  0  0  0  0
 18 29  1  0  0  0  0
 19 21  1  0  0  0  0
 19 30  1  0  0  0  0
 20 21  2  0  0  0  0
 20 31  1  0  0  0  0
 21 32  1  0  0  0  0
 22 24  2  0  0  0  0
 23 25  1  0  0  0  0
 23 33  1  0  0  0  0
 24 27  1  0  0  0  0
 24 34  1  0  0  0  0
 25 27  2  0  0  0  0
 25 35  1  0  0  0  0
 27 36  1  0  0  0  0
M  CHG  4   4  -1   7  -1   9   1  10   1
M  END
> <PUBCHEM_COMPOUND_CID>
10067728

> <PUBCHEM_CONFORMER_RMSD>
0.8

> <PUBCHEM_CONFORMER_DIVERSEORDER>
1
2
3
4

> <PUBCHEM_MMFF94_PARTIAL_CHARGES>
35
1 -0.16
10 0.91
11 0.08
12 0.09
13 -0.14
14 0.05
15 0.22
16 0.47
17 0.03
18 0.2
19 -0.15
2 -0.57
20 -0.15
21 -0.15
22 0.13
23 -0.15
24 -0.15
25 -0.15
26 0.66
27 -0.15
3 -0.65
30 0.15
31 0.15
32 0.15
33 0.15
34 0.15
35 0.15
36 0.15
37 0.5
4 -0.52
5 -0.52
6 -0.57
7 -0.52
8 -0.52
9 0.84

> <PUBCHEM_EFFECTIVE_ROTOR_COUNT>
5

> <PUBCHEM_PHARMACOPHORE_FEATURES>
14
1 1 acceptor
1 2 acceptor
1 3 acceptor
1 4 acceptor
1 4 anion
1 5 acceptor
1 6 acceptor
1 7 acceptor
1 7 anion
1 8 acceptor
3 3 6 26 anion
6 1 11 12 14 15 16 rings
6 11 12 13 19 20 21 rings
6 17 22 23 24 25 27 rings

> <PUBCHEM_HEAVY_ATOM_COUNT>
27

> <PUBCHEM_ATOM_DEF_STEREO_COUNT>
0

> <PUBCHEM_ATOM_UDEF_STEREO_COUNT>
0

> <PUBCHEM_BOND_DEF_STEREO_COUNT>
0

> <PUBCHEM_BOND_UDEF_STEREO_COUNT>
0

> <PUBCHEM_ISOTOPIC_ATOM_COUNT>
0

> <PUBCHEM_COMPONENT_COUNT>
1

> <PUBCHEM_CACTVS_TAUTO_COUNT>
1

> <PUBCHEM_CONFORMER_ID>
00999F1000000001

> <PUBCHEM_MMFF94_ENERGY>
102.2314

> <PUBCHEM_FEATURE_SELFOVERLAP>
71.326

> <PUBCHEM_SHAPE_FINGERPRINT>
10366900 7 17131547250198428530
10616163 171 18196657521515689597
11578080 2 17241027847985825156
12236239 1 17097504098528722210
12422481 6 18058431236746852714
12553582 1 18408041784282571859
12633257 1 18413111632635279569
13083527 12 18049700104245244338
13140716 1 18408603669300271505
13726171 33 17975735789488956325
14022347 108 18193574280289157827
14223421 5 18194686092845876217
14790565 3 17904778682010435217
16752209 62 18044658590213605953
16945 1 18191589640368883937
17349148 13 18130780144946230737
17492 89 18264767830119072251
19319366 153 17458918028259180379
20028762 73 18271803489878056591
20511986 3 17530966822399377828
20600515 1 18341048502068392336
20905425 154 18195250146300041392
21033648 29 17914310421610127569
21421861 104 18119818160114926771
23184049 29 18335980956075955499
23366157 5 17968098680691164568
23557571 272 18055074255626943124
23559900 14 18268433421834495622
25222932 49 17328304061553070479
5309563 4 17329433260321376603
57527293 21 18199446845409097218
81228 2 17910690764648561416
9709674 26 18339082691653190377

> <PUBCHEM_SHAPE_MULTIPOLES>
498.73
7.38
4.11
1.56
0.02
0.09
-0.56
-2.91
1.55
-2.29
-0.71
1.75
-0.88
-0.12

> <PUBCHEM_SHAPE_SELFOVERLAP>
1113.208

> <PUBCHEM_SHAPE_VOLUME>
261.9

> <PUBCHEM_COORDINATE_TYPE>
2
5
10

$$$$
