100606
  -OEChem-03292013323D

 35 34  0     0  0  0  0  0  0999 V2000
   -6.4320   -0.1343   -0.0261 S   0  0  0  0  0  0  0  0  0  0  0  0
    6.4284   -0.1315   -0.0084 S   0  0  0  0  0  0  0  0  0  0  0  0
   -4.9325    0.5185   -0.0008 O   0  0  0  0  0  0  0  0  0  0  0  0
    4.9239    0.5094   -0.0202 O   0  0  0  0  0  0  0  0  0  0  0  0
   -6.6009   -0.8559   -1.2742 O   0  0  0  0  0  0  0  0  0  0  0  0
   -6.6262   -0.8179    1.2397 O   0  0  0  0  0  0  0  0  0  0  0  0
    6.6287   -0.8185    1.2545 O   0  0  0  0  0  0  0  0  0  0  0  0
    6.6015   -0.8472   -1.2596 O   0  0  0  0  0  0  0  0  0  0  0  0
   -7.4783    1.2239   -0.0491 N   0  0  0  0  0  0  0  0  0  0  0  0
    7.4645    1.2342   -0.0433 N   0  0  0  0  0  0  0  0  0  0  0  0
    0.0060    0.5044    0.0512 C   0  0  0  0  0  0  0  0  0  0  0  0
   -1.2577   -0.3581    0.0571 C   0  0  0  0  0  0  0  0  0  0  0  0
    1.2686   -0.3586    0.0250 C   0  0  0  0  0  0  0  0  0  0  0  0
   -2.5210    0.5078    0.0431 C   0  0  0  0  0  0  0  0  0  0  0  0
    2.5293    0.5022   -0.0143 C   0  0  0  0  0  0  0  0  0  0  0  0
   -3.7937   -0.3299    0.0224 C   0  0  0  0  0  0  0  0  0  0  0  0
    3.7913   -0.3484    0.0029 C   0  0  0  0  0  0  0  0  0  0  0  0
   -0.0045    1.1635   -0.8255 H   0  0  0  0  0  0  0  0  0  0  0  0
    0.0169    1.1477    0.9394 H   0  0  0  0  0  0  0  0  0  0  0  0
   -1.2578   -1.0167   -0.8199 H   0  0  0  0  0  0  0  0  0  0  0  0
   -1.2622   -1.0008    0.9456 H   0  0  0  0  0  0  0  0  0  0  0  0
    1.2890   -1.0028    0.9125 H   0  0  0  0  0  0  0  0  0  0  0  0
    1.2480   -1.0169   -0.8519 H   0  0  0  0  0  0  0  0  0  0  0  0
   -2.5366    1.1674    0.9196 H   0  0  0  0  0  0  0  0  0  0  0  0
   -2.5140    1.1717   -0.8304 H   0  0  0  0  0  0  0  0  0  0  0  0
    2.5294    1.1363   -0.9097 H   0  0  0  0  0  0  0  0  0  0  0  0
    2.5458    1.1902    0.8403 H   0  0  0  0  0  0  0  0  0  0  0  0
   -3.8393   -0.9672    0.9124 H   0  0  0  0  0  0  0  0  0  0  0  0
   -3.8081   -0.9715   -0.8656 H   0  0  0  0  0  0  0  0  0  0  0  0
    3.8250   -0.9638    0.9085 H   0  0  0  0  0  0  0  0  0  0  0  0
    3.8194   -1.0073   -0.8717 H   0  0  0  0  0  0  0  0  0  0  0  0
   -7.5026    1.8006    0.8016 H   0  0  0  0  0  0  0  0  0  0  0  0
   -7.4782    1.7905   -0.9070 H   0  0  0  0  0  0  0  0  0  0  0  0
    7.4669    1.7881   -0.9093 H   0  0  0  0  0  0  0  0  0  0  0  0
    7.4778    1.8235    0.7991 H   0  0  0  0  0  0  0  0  0  0  0  0
  1  3  1  0  0  0  0
  1  5  2  0  0  0  0
  1  6  2  0  0  0  0
  1  9  1  0  0  0  0
  2  4  1  0  0  0  0
  2  7  2  0  0  0  0
  2  8  2  0  0  0  0
  2 10  1  0  0  0  0
  3 16  1  0  0  0  0
  4 17  1  0  0  0  0
  9 32  1  0  0  0  0
  9 33  1  0  0  0  0
 10 34  1  0  0  0  0
 10 35  1  0  0  0  0
 11 12  1  0  0  0  0
 11 13  1  0  0  0  0
 11 18  1  0  0  0  0
 11 19  1  0  0  0  0
 12 14  1  0  0  0  0
 12 20  1  0  0  0  0
 12 21  1  0  0  0  0
 13 15  1  0  0  0  0
 13 22  1  0  0  0  0
 13 23  1  0  0  0  0
 14 16  1  0  0  0  0
 14 24  1  0  0  0  0
 14 25  1  0  0  0  0
 15 17  1  0  0  0  0
 15 26  1  0  0  0  0
 15 27  1  0  0  0  0
 16 28  1  0  0  0  0
 16 29  1  0  0  0  0
 17 30  1  0  0  0  0
 17 31  1  0  0  0  0
M  END
> <PUBCHEM_COMPOUND_CID>
100606

> <PUBCHEM_CONFORMER_RMSD>
1

> <PUBCHEM_CONFORMER_DIVERSEORDER>
1
190
69
54
74
6
75
17
132
4
129
7
87
144
85
171
40
196
12
97
41
127
100
88
109
204
83
79
182
51
3
208
198
24
145
33
80
56
49
19
135
95
168
164
177
70
191
205
44
121
81
178
76
5
89
47
203
113
123
149
103
138
212
62
215
67
16
72
214
157
213
162
98
102
202
186
172
154
207
187
170
96
50
86
114
94
58
45
174
8
99
197
60
117
148
43
130
152
188
23
124
30
193
163
48
10
151
63
77
150
118
29
181
185
53
134
184
112
119
101
166
116
160
25
2
105
84
192
61
122
73
106
179
18
158
82
22
20
92
110
173
167
159
120
52
209
38
210
65
15
165
35
128
161
142
153
195
143
206
57
71
13
131
66
42
189
59
37
11
46
211
32
136
125
155
21
146
34
137
28
139
199
14
111
104
93
36
133
176
115
147
180
55
194
201
26
169
175
78
126
140
9
108
200
107
27
64
90
39
141
31
183
68
91
156

> <PUBCHEM_MMFF94_PARTIAL_CHARGES>
16
1 1.62
10 -0.98
16 0.28
17 0.28
2 1.62
3 -0.46
32 0.42
33 0.42
34 0.42
35 0.42
4 -0.46
5 -0.65
6 -0.65
7 -0.65
8 -0.65
9 -0.98

> <PUBCHEM_EFFECTIVE_ROTOR_COUNT>
10

> <PUBCHEM_PHARMACOPHORE_FEATURES>
7
1 10 donor
1 5 acceptor
1 6 acceptor
1 7 acceptor
1 8 acceptor
1 9 donor
5 11 12 13 14 15 hydrophobe

> <PUBCHEM_HEAVY_ATOM_COUNT>
17

> <PUBCHEM_ATOM_DEF_STEREO_COUNT>
0

> <PUBCHEM_ATOM_UDEF_STEREO_COUNT>
0

> <PUBCHEM_BOND_DEF_STEREO_COUNT>
0

> <PUBCHEM_BOND_UDEF_STEREO_COUNT>
0

> <PUBCHEM_ISOTOPIC_ATOM_COUNT>
0

> <PUBCHEM_COMPONENT_COUNT>
1

> <PUBCHEM_CACTVS_TAUTO_COUNT>
1

> <PUBCHEM_CONFORMER_ID>
000188FE00000001

> <PUBCHEM_MMFF94_ENERGY>
4.2706

> <PUBCHEM_FEATURE_SELFOVERLAP>
35.558

> <PUBCHEM_SHAPE_FINGERPRINT>
11315181 36 16845574236644851323
12091667 2 18342176670619579193
13533116 47 16950552251983821368
14123256 10 18040152915889963588
1420 363 18411985762608688874
14251764 18 18410572894245588712
14251764 46 18410573985151457640
17834076 25 18410292510174740482
18006028 8 18413387639802611209
20281389 69 17676203563711973724
20621476 8 18412546479321476269
22224240 67 16343980308359152222
23035841 295 18343863320670857391
23521765 1 18341895194640678633
33532 11 17560805394866672662
33684 2 18410572881350130824
57583515 80 18334577941201360017
59755656 520 17313382353223863971
8209 1 18411981364361737196

> <PUBCHEM_SHAPE_MULTIPOLES>
312.37
26.1
0.98
0.88
0.17
0.1
0.01
-0.03
0.44
0
0.01
0
-0.25
-0.01

> <PUBCHEM_SHAPE_SELFOVERLAP>
559.861

> <PUBCHEM_SHAPE_VOLUME>
201.3

> <PUBCHEM_COORDINATE_TYPE>
2
5
10

$$$$
