10062887
  -OEChem-03292013303D

 30 31  0     1  0  0  0  0  0999 V2000
   -1.2967    2.5609    0.4510 S   0  0  1  0  0  0  0  0  0  0  0  0
    1.8038    2.1631    0.7133 S   0  0  0  0  0  0  0  0  0  0  0  0
    0.4502    3.5771    0.1096 S   0  0  0  0  0  0  0  0  0  0  0  0
   -2.7882   -0.0581   -0.0089 O   0  0  0  0  0  0  0  0  0  0  0  0
   -1.6685   -2.5664   -0.2134 O   0  0  0  0  0  0  0  0  0  0  0  0
   -1.9951    2.8050   -0.8537 O   0  0  0  0  0  0  0  0  0  0  0  0
    4.9904   -0.9916   -0.6998 N   0  0  0  0  0  0  0  0  0  0  0  0
    1.3371   -0.5494    0.3221 C   0  0  0  0  0  0  0  0  0  0  0  0
    2.8075   -0.7911    0.4395 C   0  0  0  0  0  0  0  0  0  0  0  0
    0.7835    0.7276    0.4191 C   0  0  0  0  0  0  0  0  0  0  0  0
   -0.6069    0.8982    0.3075 C   0  0  0  0  0  0  0  0  0  0  0  0
    0.5045   -1.6491    0.1071 C   0  0  0  0  0  0  0  0  0  0  0  0
   -1.4367   -0.2030    0.0953 C   0  0  0  0  0  0  0  0  0  0  0  0
   -0.8766   -1.4765   -0.0061 C   0  0  0  0  0  0  0  0  0  0  0  0
    3.5482   -0.7235   -0.8996 C   0  0  0  0  0  0  0  0  0  0  0  0
   -3.3930   -0.4867   -1.2269 C   0  0  0  0  0  0  0  0  0  0  0  0
   -2.1636   -3.2363    0.9439 C   0  0  0  0  0  0  0  0  0  0  0  0
    2.9628   -1.7875    0.8791 H   0  0  0  0  0  0  0  0  0  0  0  0
    3.2668   -0.1142    1.1697 H   0  0  0  0  0  0  0  0  0  0  0  0
    0.9249   -2.6490    0.0239 H   0  0  0  0  0  0  0  0  0  0  0  0
    3.1437   -1.4611   -1.6020 H   0  0  0  0  0  0  0  0  0  0  0  0
    3.4363    0.2648   -1.3576 H   0  0  0  0  0  0  0  0  0  0  0  0
    5.4525   -1.0005   -1.6083 H   0  0  0  0  0  0  0  0  0  0  0  0
    5.1059   -1.9269   -0.3112 H   0  0  0  0  0  0  0  0  0  0  0  0
   -2.6925   -0.4674   -2.0692 H   0  0  0  0  0  0  0  0  0  0  0  0
   -4.2147    0.1993   -1.4531 H   0  0  0  0  0  0  0  0  0  0  0  0
   -3.8145   -1.4881   -1.1041 H   0  0  0  0  0  0  0  0  0  0  0  0
   -2.7908   -4.0694    0.6153 H   0  0  0  0  0  0  0  0  0  0  0  0
   -2.7719   -2.5593    1.5520 H   0  0  0  0  0  0  0  0  0  0  0  0
   -1.3359   -3.6347    1.5391 H   0  0  0  0  0  0  0  0  0  0  0  0
  1  3  1  0  0  0  0
  1  6  2  0  0  0  0
  1 11  1  0  0  0  0
  2  3  1  0  0  0  0
  2 10  1  0  0  0  0
  4 13  1  0  0  0  0
  4 16  1  0  0  0  0
  5 14  1  0  0  0  0
  5 17  1  0  0  0  0
  7 15  1  0  0  0  0
  7 23  1  0  0  0  0
  7 24  1  0  0  0  0
  8  9  1  0  0  0  0
  8 10  1  0  0  0  0
  8 12  2  0  0  0  0
  9 15  1  0  0  0  0
  9 18  1  0  0  0  0
  9 19  1  0  0  0  0
 10 11  2  0  0  0  0
 11 13  1  0  0  0  0
 12 14  1  0  0  0  0
 12 20  1  0  0  0  0
 13 14  2  0  0  0  0
 15 21  1  0  0  0  0
 15 22  1  0  0  0  0
 16 25  1  0  0  0  0
 16 26  1  0  0  0  0
 16 27  1  0  0  0  0
 17 28  1  0  0  0  0
 17 29  1  0  0  0  0
 17 30  1  0  0  0  0
M  END
> <PUBCHEM_COMPOUND_CID>
10062887

> <PUBCHEM_CONFORMER_RMSD>
0.6

> <PUBCHEM_CONFORMER_DIVERSEORDER>
1
28
6
19
29
12
22
7
30
5
25
18
13
23
15
14
24
21
17
11
27
20
3
9
4
26
8
10
2
16

> <PUBCHEM_MMFF94_PARTIAL_CHARGES>
20
1 0.48
10 0.1
11 0.06
12 -0.15
13 0.08
14 0.08
15 0.27
16 0.28
17 0.28
2 -0.1
20 0.15
23 0.36
24 0.36
3 -0.05
4 -0.36
5 -0.36
6 -0.5
7 -0.99
8 -0.14
9 0.14

> <PUBCHEM_EFFECTIVE_ROTOR_COUNT>
4.4

> <PUBCHEM_PHARMACOPHORE_FEATURES>
6
1 4 acceptor
1 5 acceptor
1 7 cation
1 7 donor
5 1 2 3 10 11 rings
6 8 10 11 12 13 14 rings

> <PUBCHEM_HEAVY_ATOM_COUNT>
17

> <PUBCHEM_ATOM_DEF_STEREO_COUNT>
0

> <PUBCHEM_ATOM_UDEF_STEREO_COUNT>
1

> <PUBCHEM_BOND_DEF_STEREO_COUNT>
0

> <PUBCHEM_BOND_UDEF_STEREO_COUNT>
0

> <PUBCHEM_ISOTOPIC_ATOM_COUNT>
0

> <PUBCHEM_COMPONENT_COUNT>
1

> <PUBCHEM_CACTVS_TAUTO_COUNT>
1

> <PUBCHEM_CONFORMER_ID>
00998C2700000001

> <PUBCHEM_MMFF94_ENERGY>
52.905

> <PUBCHEM_FEATURE_SELFOVERLAP>
30.485

> <PUBCHEM_SHAPE_FINGERPRINT>
10411042 1 18267027339478187698
10967382 1 18267013041309987113
11206711 2 18339073783453331149
11680986 33 18196930182860838953
12173636 292 18050006589207085132
12553582 1 18410852148777344914
13140716 1 18338795744439979563
14790565 3 18267602207602073065
14911166 2 18410851053618687183
16752209 62 18264755576291864243
16945 1 18409722950319632275
193761 8 18194962070095714465
19591789 44 17548989857555341953
20510252 161 18198063577833798784
20645476 183 18043820783859537086
20871999 31 18341331076783402156
21029758 11 18343295955475355008
21029758 27 18336279984510288177
21339142 51 18408605885176562486
21524375 3 17621876492077083120
22182313 1 18122054575039077227
22802520 49 18270122451545107842
2334 1 18050562147062749971
23402539 116 18271519789227344670
23419403 2 16954828376973996064
23557571 272 18201445727725903724
23559900 14 18128538155697907054
2748010 2 18195519530991260603
3071541 250 18122356940884395682
352729 6 17762333617752224354
458136 41 17185051989834701107
559249 180 18048880689759756206
7364860 26 17836651099132529874
81228 2 18342453707966704194

> <PUBCHEM_SHAPE_MULTIPOLES>
338.81
5.35
4.12
0.95
3.94
2.37
-0.09
-3.61
-1.75
-1.09
0.45
-0.13
-0.08
1.03

> <PUBCHEM_SHAPE_SELFOVERLAP>
669.879

> <PUBCHEM_SHAPE_VOLUME>
205.2

> <PUBCHEM_COORDINATE_TYPE>
2
5
10

$$$$
