10067324
  -OEChem-03292013303D

 41 42  0     1  0  0  0  0  0999 V2000
    1.6067    1.1060   -0.8675 S   0  0  2  0  0  0  0  0  0  0  0  0
   -2.7234   -2.4246   -0.5382 O   0  0  0  0  0  0  0  0  0  0  0  0
    1.3169    2.4510   -1.4807 O   0  0  0  0  0  0  0  0  0  0  0  0
    0.3882   -2.8411    0.8506 O   0  0  0  0  0  0  0  0  0  0  0  0
   -6.1037    1.6935    0.8301 O   0  0  0  0  0  0  0  0  0  0  0  0
    1.4316   -2.0242   -1.0134 O   0  0  0  0  0  0  0  0  0  0  0  0
    5.6354   -0.2283    1.4218 O   0  0  0  0  0  0  0  0  0  0  0  0
   -1.4300   -0.8541    0.6882 N   0  0  0  0  0  0  0  0  0  0  0  0
    4.7238    0.9386   -0.3756 N   0  0  0  0  0  0  0  0  0  0  0  0
   -2.0337    0.4778    0.8870 C   0  0  1  0  0  0  0  0  0  0  0  0
   -1.0663    1.4451    0.1947 C   0  0  0  0  0  0  0  0  0  0  0  0
   -3.2264   -0.1032    0.1594 C   0  0  0  0  0  0  0  0  0  0  0  0
    0.1055    0.5563   -0.1299 C   0  0  0  0  0  0  0  0  0  0  0  0
   -2.5062   -1.3738    0.0298 C   0  0  0  0  0  0  0  0  0  0  0  0
   -0.1750   -0.7209    0.1572 C   0  0  0  0  0  0  0  0  0  0  0  0
   -4.4257    0.3187   -0.2248 C   0  0  0  0  0  0  0  0  0  0  0  0
    0.6408   -1.9047   -0.0907 C   0  0  0  0  0  0  0  0  0  0  0  0
    2.5367    1.3885    0.6599 C   0  0  0  0  0  0  0  0  0  0  0  0
   -4.9305    1.7329    0.0293 C   0  0  0  0  0  0  0  0  0  0  0  0
   -5.4142   -0.5612   -0.9765 C   0  0  0  0  0  0  0  0  0  0  0  0
    3.9436    1.8858    0.3749 C   0  0  0  0  0  0  0  0  0  0  0  0
    5.5077   -0.0433    0.2143 C   0  0  0  0  0  0  0  0  0  0  0  0
    6.1982   -0.9150   -0.8001 C   0  0  0  0  0  0  0  0  0  0  0  0
   -2.1813    0.6990    1.9517 H   0  0  0  0  0  0  0  0  0  0  0  0
   -1.4970    1.8829   -0.7119 H   0  0  0  0  0  0  0  0  0  0  0  0
   -0.7679    2.2485    0.8760 H   0  0  0  0  0  0  0  0  0  0  0  0
    2.5746    0.4452    1.2155 H   0  0  0  0  0  0  0  0  0  0  0  0
    1.9972    2.1254    1.2639 H   0  0  0  0  0  0  0  0  0  0  0  0
   -5.1750    2.2206   -0.9197 H   0  0  0  0  0  0  0  0  0  0  0  0
   -4.1853    2.3501    0.5414 H   0  0  0  0  0  0  0  0  0  0  0  0
   -5.6785   -0.0945   -1.9311 H   0  0  0  0  0  0  0  0  0  0  0  0
   -6.3278   -0.6935   -0.3882 H   0  0  0  0  0  0  0  0  0  0  0  0
   -5.0150   -1.5548   -1.1940 H   0  0  0  0  0  0  0  0  0  0  0  0
    4.4555    2.0951    1.3206 H   0  0  0  0  0  0  0  0  0  0  0  0
    3.9201    2.8149   -0.2050 H   0  0  0  0  0  0  0  0  0  0  0  0
    0.9212   -3.6532    0.7139 H   0  0  0  0  0  0  0  0  0  0  0  0
   -5.8700    1.2697    1.6738 H   0  0  0  0  0  0  0  0  0  0  0  0
    4.6853    0.9932   -1.3894 H   0  0  0  0  0  0  0  0  0  0  0  0
    6.9669   -1.5161   -0.3067 H   0  0  0  0  0  0  0  0  0  0  0  0
    5.4657   -1.5787   -1.2674 H   0  0  0  0  0  0  0  0  0  0  0  0
    6.6750   -0.2996   -1.5683 H   0  0  0  0  0  0  0  0  0  0  0  0
  1  3  2  0  0  0  0
  1 13  1  0  0  0  0
  1 18  1  0  0  0  0
  2 14  2  0  0  0  0
  4 17  1  0  0  0  0
  4 36  1  0  0  0  0
  5 19  1  0  0  0  0
  5 37  1  0  0  0  0
  6 17  2  0  0  0  0
  7 22  2  0  0  0  0
  8 10  1  0  0  0  0
  8 14  1  0  0  0  0
  8 15  1  0  0  0  0
  9 21  1  0  0  0  0
  9 22  1  0  0  0  0
  9 38  1  0  0  0  0
 10 11  1  0  0  0  0
 10 12  1  0  0  0  0
 10 24  1  0  0  0  0
 11 13  1  0  0  0  0
 11 25  1  0  0  0  0
 11 26  1  0  0  0  0
 12 14  1  0  0  0  0
 12 16  2  0  0  0  0
 13 15  2  0  0  0  0
 15 17  1  0  0  0  0
 16 19  1  0  0  0  0
 16 20  1  0  0  0  0
 18 21  1  0  0  0  0
 18 27  1  0  0  0  0
 18 28  1  0  0  0  0
 19 29  1  0  0  0  0
 19 30  1  0  0  0  0
 20 31  1  0  0  0  0
 20 32  1  0  0  0  0
 20 33  1  0  0  0  0
 21 34  1  0  0  0  0
 21 35  1  0  0  0  0
 22 23  1  0  0  0  0
 23 39  1  0  0  0  0
 23 40  1  0  0  0  0
 23 41  1  0  0  0  0
M  END
> <PUBCHEM_COMPOUND_CID>
10067324

> <PUBCHEM_CONFORMER_RMSD>
0.8

> <PUBCHEM_CONFORMER_DIVERSEORDER>
2
68
118
142
64
55
147
161
135
100
98
102
57
106
176
52
169
41
42
9
177
170
178
31
72
90
157
29
180
119
113
27
59
82
116
13
181
131
127
5
95
28
93
65
123
30
71
160
120
155
75
12
26
101
182
80
91
151
3
158
156
49
38
133
50
88
8
167
76
115
24
148
145
15
7
96
125
44
17
104
126
153
174
163
58
78
105
77
62
109
16
159
168
6
173
21
87
122
39
35
56
108
172
37
69
43
74
14
171
112
22
152
18
139
124
89
110
137
53
10
143
79
4
97
136
85
47
146
19
63
60
54
165
162
132
61
117
92
154
11
34
134
86
141
51
20
48
36
46
150
164
1
45
40
103
32
129
33
179
66
114
175
94
23
73
130
166
149
25
140
83
99
138
67
81
144
84
128
70
121
111
107

> <PUBCHEM_MMFF94_PARTIAL_CHARGES>
26
1 0.25
10 0.36
11 0.14
12 -0.24
13 -0.08
14 0.7
15 0.12
16 -0.25
17 0.71
18 0.19
19 0.42
2 -0.57
20 0.14
21 0.3
22 0.57
23 0.06
3 -0.5
36 0.5
37 0.4
38 0.37
4 -0.65
5 -0.68
6 -0.57
7 -0.57
8 -0.39
9 -0.73

> <PUBCHEM_EFFECTIVE_ROTOR_COUNT>
7.2

> <PUBCHEM_PHARMACOPHORE_FEATURES>
11
1 2 acceptor
1 20 hydrophobe
1 3 acceptor
1 4 acceptor
1 5 acceptor
1 5 donor
1 6 acceptor
1 7 acceptor
1 9 donor
3 4 6 17 anion
7 8 10 11 12 13 14 15 rings

> <PUBCHEM_HEAVY_ATOM_COUNT>
23

> <PUBCHEM_ATOM_DEF_STEREO_COUNT>
0

> <PUBCHEM_ATOM_UDEF_STEREO_COUNT>
2

> <PUBCHEM_BOND_DEF_STEREO_COUNT>
1

> <PUBCHEM_BOND_UDEF_STEREO_COUNT>
0

> <PUBCHEM_ISOTOPIC_ATOM_COUNT>
0

> <PUBCHEM_COMPONENT_COUNT>
1

> <PUBCHEM_CACTVS_TAUTO_COUNT>
2

> <PUBCHEM_CONFORMER_ID>
00999D7C00000002

> <PUBCHEM_MMFF94_ENERGY>
57.4884

> <PUBCHEM_FEATURE_SELFOVERLAP>
55.878

> <PUBCHEM_SHAPE_FINGERPRINT>
10062212 137 18338514265189432559
10906281 52 18188788157528453048
11578080 2 16952800658409449727
12011746 2 18408044001002466342
12166972 35 18338518646272761657
12403260 363 18192992840749557637
13533116 47 17988924483831281744
14251764 18 18408320012823156280
15099037 51 18334575767531332652
15183329 4 18260544515645835404
15196674 1 18339361984802241424
15420108 30 17766290768722907760
15531645 54 18410014329891860388
17349148 13 18339926012296802852
19489759 90 17489590051946138393
20197701 30 18202277039572631534
21279426 13 18342176657038566116
21521239 73 18200582705007560495
2215653 11 18272939319453700254
23402539 116 18202279212842063429
23559900 14 18272088361799741832
3004659 81 18334859429369239272
335352 9 18410857659515531556
34934 24 18341612586188559127
351380 180 18060419136020627648
38695281 34 18131069316314757135
404807 14 15978105505031037390
474 4 18187366553956383145
5104073 3 18263080071222264680
56616090 46 18186239515503509467
57724786 102 17168437072096410380
59755656 215 18342179912665916180
6138700 20 18410295766562154926
6328613 192 18262525909252283740
633830 44 17531525507286958024
6913067 236 13901911085513788328

> <PUBCHEM_SHAPE_MULTIPOLES>
432
13.23
2.51
1.04
5.46
0.72
0.06
-2.73
-0.08
-0.23
0.16
0.4
-0.09
-0.4

> <PUBCHEM_SHAPE_SELFOVERLAP>
887.406

> <PUBCHEM_SHAPE_VOLUME>
250.7

> <PUBCHEM_COORDINATE_TYPE>
2
5
10

$$$$
