100652
  -OEChem-03292013323D

 37 38  0     1  0  0  0  0  0999 V2000
    5.5135    2.7785    0.1026 Cl  0  0  0  0  0  0  0  0  0  0  0  0
    0.4270   -1.0225    0.8160 O   0  0  0  0  0  0  0  0  0  0  0  0
    0.9571   -3.9136   -0.0402 O   0  0  0  0  0  0  0  0  0  0  0  0
   -3.6321   -1.7548    0.8575 O   0  0  0  0  0  0  0  0  0  0  0  0
   -4.3031    2.6666   -0.2149 O   0  0  0  0  0  0  0  0  0  0  0  0
    4.7338   -0.1841   -0.0870 O   0  0  0  0  0  0  0  0  0  0  0  0
   -1.7751   -0.4828    0.2377 N   0  0  0  0  0  0  0  0  0  0  0  0
    2.5596    0.6318   -0.1297 N   0  0  0  0  0  0  0  0  0  0  0  0
   -3.9526    0.4516    0.3195 N   0  0  0  0  0  0  0  0  0  0  0  0
    1.4806   -1.5570   -0.0086 C   0  0  1  0  0  0  0  0  0  0  0  0
    0.8652   -2.7068   -0.7941 C   0  0  2  0  0  0  0  0  0  0  0  0
   -0.5834   -2.2962   -0.9233 C   0  0  0  0  0  0  0  0  0  0  0  0
   -0.8322   -1.5535    0.3793 C   0  0  1  0  0  0  0  0  0  0  0  0
    1.9906   -0.4344   -0.9029 C   0  0  0  0  0  0  0  0  0  0  0  0
   -1.3081    0.7620   -0.1642 C   0  0  0  0  0  0  0  0  0  0  0  0
   -3.1482   -0.6794    0.4980 C   0  0  0  0  0  0  0  0  0  0  0  0
   -2.0804    1.8422   -0.3342 C   0  0  0  0  0  0  0  0  0  0  0  0
   -3.5398    1.7142   -0.0784 C   0  0  0  0  0  0  0  0  0  0  0  0
    3.9042    0.6702    0.2199 C   0  0  0  0  0  0  0  0  0  0  0  0
   -1.5568    3.1737   -0.7677 C   0  0  0  0  0  0  0  0  0  0  0  0
    4.2802    1.8944    1.0149 C   0  0  0  0  0  0  0  0  0  0  0  0
    2.2753   -1.9061    0.6606 H   0  0  0  0  0  0  0  0  0  0  0  0
    1.3538   -2.8820   -1.7571 H   0  0  0  0  0  0  0  0  0  0  0  0
   -0.7025   -1.6301   -1.7865 H   0  0  0  0  0  0  0  0  0  0  0  0
   -1.2773   -3.1337   -1.0467 H   0  0  0  0  0  0  0  0  0  0  0  0
   -1.1763   -2.2517    1.1517 H   0  0  0  0  0  0  0  0  0  0  0  0
    1.2080   -0.0055   -1.5330 H   0  0  0  0  0  0  0  0  0  0  0  0
    2.7615   -0.8270   -1.5764 H   0  0  0  0  0  0  0  0  0  0  0  0
    0.5030   -4.6083   -0.5470 H   0  0  0  0  0  0  0  0  0  0  0  0
   -0.2524    0.8658   -0.3456 H   0  0  0  0  0  0  0  0  0  0  0  0
    1.9440    1.3806    0.1726 H   0  0  0  0  0  0  0  0  0  0  0  0
   -4.9454    0.3340    0.5015 H   0  0  0  0  0  0  0  0  0  0  0  0
   -2.0258    3.4812   -1.7080 H   0  0  0  0  0  0  0  0  0  0  0  0
   -0.4734    3.1560   -0.9269 H   0  0  0  0  0  0  0  0  0  0  0  0
   -1.7685    3.9334   -0.0082 H   0  0  0  0  0  0  0  0  0  0  0  0
    3.4311    2.5606    1.1859 H   0  0  0  0  0  0  0  0  0  0  0  0
    4.6970    1.5874    1.9778 H   0  0  0  0  0  0  0  0  0  0  0  0
  1 21  1  0  0  0  0
  2 10  1  0  0  0  0
  2 13  1  0  0  0  0
  3 11  1  0  0  0  0
  3 29  1  0  0  0  0
  4 16  2  0  0  0  0
  5 18  2  0  0  0  0
  6 19  2  0  0  0  0
  7 13  1  0  0  0  0
  7 15  1  0  0  0  0
  7 16  1  0  0  0  0
  8 14  1  0  0  0  0
  8 19  1  0  0  0  0
  8 31  1  0  0  0  0
  9 16  1  0  0  0  0
  9 18  1  0  0  0  0
  9 32  1  0  0  0  0
 10 11  1  0  0  0  0
 10 14  1  0  0  0  0
 10 22  1  0  0  0  0
 11 12  1  0  0  0  0
 11 23  1  0  0  0  0
 12 13  1  0  0  0  0
 12 24  1  0  0  0  0
 12 25  1  0  0  0  0
 13 26  1  0  0  0  0
 14 27  1  0  0  0  0
 14 28  1  0  0  0  0
 15 17  2  0  0  0  0
 15 30  1  0  0  0  0
 17 18  1  0  0  0  0
 17 20  1  0  0  0  0
 19 21  1  0  0  0  0
 20 33  1  0  0  0  0
 20 34  1  0  0  0  0
 20 35  1  0  0  0  0
 21 36  1  0  0  0  0
 21 37  1  0  0  0  0
M  END
> <PUBCHEM_COMPOUND_CID>
100652

> <PUBCHEM_CONFORMER_RMSD>
0.8

> <PUBCHEM_CONFORMER_DIVERSEORDER>
1
32
38
48
53
2
54
11
5
24
22
37
23
21
39
42
16
27
30
41
20
43
50
55
6
31
45
58
10
4
26
47
14
28
59
33
12
8
56
13
17
44
57
51
35
29
46
34
36
7
40
9
18
25
3
49
19
52
15

> <PUBCHEM_MMFF94_PARTIAL_CHARGES>
24
1 -0.29
10 0.28
11 0.28
13 0.58
14 0.3
15 -0.04
16 0.69
17 -0.12
18 0.62
19 0.57
2 -0.56
20 0.14
21 0.35
29 0.4
3 -0.68
30 0.15
31 0.37
32 0.37
4 -0.57
5 -0.57
6 -0.57
7 -0.47
8 -0.73
9 -0.49

> <PUBCHEM_EFFECTIVE_ROTOR_COUNT>
6

> <PUBCHEM_PHARMACOPHORE_FEATURES>
10
1 2 acceptor
1 3 acceptor
1 3 donor
1 4 acceptor
1 5 acceptor
1 6 acceptor
1 8 donor
1 9 donor
5 2 10 11 12 13 rings
6 7 9 15 16 17 18 rings

> <PUBCHEM_HEAVY_ATOM_COUNT>
21

> <PUBCHEM_ATOM_DEF_STEREO_COUNT>
3

> <PUBCHEM_ATOM_UDEF_STEREO_COUNT>
0

> <PUBCHEM_BOND_DEF_STEREO_COUNT>
0

> <PUBCHEM_BOND_UDEF_STEREO_COUNT>
0

> <PUBCHEM_ISOTOPIC_ATOM_COUNT>
0

> <PUBCHEM_COMPONENT_COUNT>
1

> <PUBCHEM_CACTVS_TAUTO_COUNT>
6

> <PUBCHEM_CONFORMER_ID>
0001892C00000001

> <PUBCHEM_MMFF94_ENERGY>
42.9155

> <PUBCHEM_FEATURE_SELFOVERLAP>
50.749

> <PUBCHEM_SHAPE_FINGERPRINT>
10411042 1 17330553662480338510
10498660 4 18409449154876510477
10608611 8 18192998102047623735
10670039 82 18261124014767969756
10871710 139 18268702994955656503
11595378 159 17969762250801030368
12107183 9 18337093594168163490
12173636 292 18340199816942094430
12390115 104 18270697444798330512
12403259 415 18341623624370294444
12596602 18 17023736965815718472
12892183 10 17968095360918445298
13140716 1 17904212769098369787
14123255 52 18413385432378870454
14466204 15 18194114111167205250
14508225 48 17336452516255677070
15196674 1 18410012152269724760
17834072 32 18412263960847606260
20101258 96 17472143246634885594
20645477 56 18128541655510268714
21033648 29 18271517697995444960
21524375 3 18343023298214416998
23227448 37 18199185281568279044
23402539 116 18126559261277733014
23557571 272 18189356622731903631
23559900 14 17979069388791055291
3524813 1 18200310043092660112
5104073 3 18334862671109180059
5939293 188 17401196781720521620
7364860 26 18123751946114683878
7808743 9 18194680604458368960
81228 2 17622984104071857818
9709674 26 18194685861139441727
9925002 15 17693660724495456095
9981440 41 18408038528644633970

> <PUBCHEM_SHAPE_MULTIPOLES>
389.75
9.25
4.12
0.88
8.72
0.66
0.02
-8.61
-1.65
-0.3
0.72
0.06
0.08
1.12

> <PUBCHEM_SHAPE_SELFOVERLAP>
800.518

> <PUBCHEM_SHAPE_VOLUME>
224.4

> <PUBCHEM_COORDINATE_TYPE>
2
5
10

$$$$
