10066017
  -OEChem-03292013303D

 45 46  0     0  0  0  0  0  0999 V2000
    8.3849    0.3903   -0.1359 P   0  0  0  0  0  0  0  0  0  0  0  0
    8.6249   -1.0478    0.5463 O   0  0  0  0  0  0  0  0  0  0  0  0
    9.3586    0.3812   -1.4175 O   0  0  0  0  0  0  0  0  0  0  0  0
    8.4919    1.5709    0.7635 O   0  0  0  0  0  0  0  0  0  0  0  0
   -7.3036   -0.2079   -1.2475 O   0  0  0  0  0  0  0  0  0  0  0  0
   -4.7634    3.3045    0.4189 O   0  0  0  0  0  0  0  0  0  0  0  0
   -3.2117   -1.1477    0.5411 N   0  0  0  0  0  0  0  0  0  0  0  0
   -3.8727    1.1838    0.5479 N   0  0  0  0  0  0  0  0  0  0  0  0
   -6.0209    1.5443   -0.4091 N   0  0  0  0  0  0  0  0  0  0  0  0
    1.7528   -0.4328   -0.1382 C   0  0  0  0  0  0  0  0  0  0  0  0
    0.6046   -0.6694    0.8490 C   0  0  0  0  0  0  0  0  0  0  0  0
    3.1454   -0.2840    0.4859 C   0  0  0  0  0  0  0  0  0  0  0  0
   -0.7648   -0.7886    0.1730 C   0  0  0  0  0  0  0  0  0  0  0  0
    4.2587   -0.0810   -0.5446 C   0  0  0  0  0  0  0  0  0  0  0  0
   -1.9028   -1.0144    1.1729 C   0  0  0  0  0  0  0  0  0  0  0  0
    5.6287    0.0224    0.1277 C   0  0  0  0  0  0  0  0  0  0  0  0
    6.7519    0.1970   -0.8865 C   0  0  0  0  0  0  0  0  0  0  0  0
   -4.0769   -0.1418    0.2722 C   0  0  0  0  0  0  0  0  0  0  0  0
   -5.1940   -0.6704   -0.3226 C   0  0  0  0  0  0  0  0  0  0  0  0
   -3.7506   -2.3344    0.1285 C   0  0  0  0  0  0  0  0  0  0  0  0
   -4.9920   -2.0665   -0.4171 C   0  0  0  0  0  0  0  0  0  0  0  0
   -6.2775    0.1968   -0.7120 C   0  0  0  0  0  0  0  0  0  0  0  0
   -4.8716    2.0953    0.2041 C   0  0  0  0  0  0  0  0  0  0  0  0
    1.7756   -1.2654   -0.8529 H   0  0  0  0  0  0  0  0  0  0  0  0
    1.5340    0.4701   -0.7224 H   0  0  0  0  0  0  0  0  0  0  0  0
    0.5792    0.1563    1.5706 H   0  0  0  0  0  0  0  0  0  0  0  0
    0.8069   -1.5836    1.4203 H   0  0  0  0  0  0  0  0  0  0  0  0
    3.3623   -1.1795    1.0813 H   0  0  0  0  0  0  0  0  0  0  0  0
    3.1352    0.5637    1.1820 H   0  0  0  0  0  0  0  0  0  0  0  0
   -0.9642    0.1219   -0.4061 H   0  0  0  0  0  0  0  0  0  0  0  0
   -0.7424   -1.6152   -0.5484 H   0  0  0  0  0  0  0  0  0  0  0  0
    4.0607    0.8291   -1.1234 H   0  0  0  0  0  0  0  0  0  0  0  0
    4.2593   -0.9198   -1.2509 H   0  0  0  0  0  0  0  0  0  0  0  0
   -1.7291   -1.9355    1.7427 H   0  0  0  0  0  0  0  0  0  0  0  0
   -1.9586   -0.1978    1.9008 H   0  0  0  0  0  0  0  0  0  0  0  0
    5.6370    0.8689    0.8244 H   0  0  0  0  0  0  0  0  0  0  0  0
    5.8201   -0.8758    0.7265 H   0  0  0  0  0  0  0  0  0  0  0  0
    6.5624    1.0831   -1.5026 H   0  0  0  0  0  0  0  0  0  0  0  0
    6.7812   -0.6669   -1.5601 H   0  0  0  0  0  0  0  0  0  0  0  0
   -3.2191   -3.2689    0.2493 H   0  0  0  0  0  0  0  0  0  0  0  0
   -5.6669   -2.8016   -0.8330 H   0  0  0  0  0  0  0  0  0  0  0  0
   -3.0130    1.4948    0.9870 H   0  0  0  0  0  0  0  0  0  0  0  0
   -6.7506    2.2055   -0.6610 H   0  0  0  0  0  0  0  0  0  0  0  0
    9.4488   -1.2043    1.0548 H   0  0  0  0  0  0  0  0  0  0  0  0
   10.3235    0.4986   -1.2858 H   0  0  0  0  0  0  0  0  0  0  0  0
  1  2  1  0  0  0  0
  1  3  1  0  0  0  0
  1  4  2  0  0  0  0
  1 17  1  0  0  0  0
  2 44  1  0  0  0  0
  3 45  1  0  0  0  0
  5 22  2  0  0  0  0
  6 23  2  0  0  0  0
  7 15  1  0  0  0  0
  7 18  1  0  0  0  0
  7 20  1  0  0  0  0
  8 18  1  0  0  0  0
  8 23  1  0  0  0  0
  8 42  1  0  0  0  0
  9 22  1  0  0  0  0
  9 23  1  0  0  0  0
  9 43  1  0  0  0  0
 10 11  1  0  0  0  0
 10 12  1  0  0  0  0
 10 24  1  0  0  0  0
 10 25  1  0  0  0  0
 11 13  1  0  0  0  0
 11 26  1  0  0  0  0
 11 27  1  0  0  0  0
 12 14  1  0  0  0  0
 12 28  1  0  0  0  0
 12 29  1  0  0  0  0
 13 15  1  0  0  0  0
 13 30  1  0  0  0  0
 13 31  1  0  0  0  0
 14 16  1  0  0  0  0
 14 32  1  0  0  0  0
 14 33  1  0  0  0  0
 15 34  1  0  0  0  0
 15 35  1  0  0  0  0
 16 17  1  0  0  0  0
 16 36  1  0  0  0  0
 16 37  1  0  0  0  0
 17 38  1  0  0  0  0
 17 39  1  0  0  0  0
 18 19  2  0  0  0  0
 19 21  1  0  0  0  0
 19 22  1  0  0  0  0
 20 21  2  0  0  0  0
 20 40  1  0  0  0  0
 21 41  1  0  0  0  0
M  END
> <PUBCHEM_COMPOUND_CID>
10066017

> <PUBCHEM_CONFORMER_RMSD>
1

> <PUBCHEM_CONFORMER_DIVERSEORDER>
1
11
115
48
156
79
90
105
78
21
4
13
51
153
46
12
158
89
120
7
127
59
145
20
55
45
161
87
8
5
73
22
119
39
134
34
23
62
35
68
25
67
36
126
113
71
96
151
32
101
26
132
129
63
118
74
41
47
3
31
130
152
2
100
9
137
103
114
155
159
112
85
128
43
19
10
58
83
14
17
133
15
75
53
135
27
147
123
38
142
149
124
84
146
28
144
24
86
88
97
18
77
70
6
94
148
72
69
81
64
61
92
117
160
40
33
143
122
91
98
29
154
66
125
82
54
108
131
107
50
157
16
110
80
52
121
138
99
109
111
104
57
49
37
30
76
56
42
44
162
116
140
60
136
102
141
65
93
150
139
95
106

> <PUBCHEM_MMFF94_PARTIAL_CHARGES>
22
1 1.24
15 0.26
18 -0.09
19 -0.09
2 -0.77
20 -0.3
21 -0.15
22 0.72
23 0.69
3 -0.77
4 -0.7
40 0.15
41 0.15
42 0.37
43 0.37
44 0.5
45 0.5
5 -0.57
6 -0.57
7 0.05
8 -0.49
9 -0.49

> <PUBCHEM_EFFECTIVE_ROTOR_COUNT>
9

> <PUBCHEM_PHARMACOPHORE_FEATURES>
13
1 2 acceptor
1 3 acceptor
1 4 acceptor
1 5 acceptor
1 6 acceptor
1 7 cation
1 8 donor
1 9 donor
3 10 11 13 hydrophobe
3 12 14 16 hydrophobe
4 1 2 3 4 anion
5 7 18 19 20 21 rings
6 8 9 18 19 22 23 rings

> <PUBCHEM_HEAVY_ATOM_COUNT>
23

> <PUBCHEM_ATOM_DEF_STEREO_COUNT>
0

> <PUBCHEM_ATOM_UDEF_STEREO_COUNT>
0

> <PUBCHEM_BOND_DEF_STEREO_COUNT>
0

> <PUBCHEM_BOND_UDEF_STEREO_COUNT>
0

> <PUBCHEM_ISOTOPIC_ATOM_COUNT>
0

> <PUBCHEM_COMPONENT_COUNT>
1

> <PUBCHEM_CACTVS_TAUTO_COUNT>
9

> <PUBCHEM_CONFORMER_ID>
0099986100000001

> <PUBCHEM_MMFF94_ENERGY>
-7.7539

> <PUBCHEM_FEATURE_SELFOVERLAP>
66.147

> <PUBCHEM_SHAPE_FINGERPRINT>
10 15 12829488156028991970
10087517 78 18259985950780482325
10411042 1 18050568745320212691
10666366 153 18201729436465358414
10670039 82 18408318870135223185
10730089 173 18409730651586234529
11315181 36 18187366545313675107
11719270 70 18060137614475003934
12082328 90 18342175570132525423
12091667 2 18335424590197031922
125118 31 18334298708641267580
13668630 136 15769774671726708167
13885169 127 18411138030959901346
13914758 101 18335422357715565960
14251764 18 18113616790306901882
14729087 3 18260265257077750284
15183329 4 17822007614812219410
15348495 7 11674892107739332543
15461852 350 17989203776094259351
155225 1 17748820792748044245
17093844 174 18186802508301173995
1754908 1 8502373288133642388
195137 175 17894919542517920132
20621476 8 17240479196373994766
21095123 145 12396309166414373970
21150785 3 17275384309272256230
21756936 100 17894919512394958259
23559900 14 18272361014807638019
3178227 256 13118002206723878260
4073 2 18040440992659553866
444735 82 18339361994142230304
44555599 121 17822300110775758588
445580 204 18260831483801204832
5758199 1 17603303761342541234
59567204 34 18410575063779729265
5969126 39 15482676749612275058

> <PUBCHEM_SHAPE_MULTIPOLES>
432.89
29.61
2.08
0.98
65.99
1.12
-0.08
7.45
-6.82
-4.78
0.32
0.35
-0.03
-0.41

> <PUBCHEM_SHAPE_SELFOVERLAP>
869.847

> <PUBCHEM_SHAPE_VOLUME>
255.2

> <PUBCHEM_COORDINATE_TYPE>
2
5
10

$$$$
