10069845
  -OEChem-03292013303D

 56 58  0     1  0  0  0  0  0999 V2000
   -1.1120    0.9032    1.2322 O   0  0  0  0  0  0  0  0  0  0  0  0
   -3.6437    3.8683   -0.3997 O   0  0  0  0  0  0  0  0  0  0  0  0
   -2.5154    2.2194   -1.4970 O   0  0  0  0  0  0  0  0  0  0  0  0
    0.8331   -1.8687   -2.4921 O   0  0  0  0  0  0  0  0  0  0  0  0
    0.8326   -3.4326   -0.8511 O   0  0  0  0  0  0  0  0  0  0  0  0
    8.2294    1.4570    0.9255 O   0  0  0  0  0  0  0  0  0  0  0  0
   -3.9859   -0.6409   -0.2288 N   0  0  2  0  0  0  0  0  0  0  0  0
   -3.1791    0.3643    0.3554 N   0  0  0  0  0  0  0  0  0  0  0  0
   -0.0195   -1.4921    0.9103 N   0  0  0  0  0  0  0  0  0  0  0  0
   -3.7265    1.7121    0.5364 C   0  0  2  0  0  0  0  0  0  0  0  0
   -1.4511   -1.4064    0.6058 C   0  0  1  0  0  0  0  0  0  0  0  0
   -4.9904   -0.0822   -1.1348 C   0  0  0  0  0  0  0  0  0  0  0  0
   -4.5570   -1.5244    0.7926 C   0  0  0  0  0  0  0  0  0  0  0  0
   -5.2500    1.7538    0.6120 C   0  0  0  0  0  0  0  0  0  0  0  0
   -2.2222   -2.3043    1.5811 C   0  0  0  0  0  0  0  0  0  0  0  0
   -5.9346    0.9156   -0.4677 C   0  0  0  0  0  0  0  0  0  0  0  0
   -3.6137   -2.6942    1.0781 C   0  0  0  0  0  0  0  0  0  0  0  0
   -1.8785    0.0572    0.7621 C   0  0  0  0  0  0  0  0  0  0  0  0
    0.7794   -1.0779   -0.2339 C   0  0  1  0  0  0  0  0  0  0  0  0
   -3.2182    2.5927   -0.5695 C   0  0  0  0  0  0  0  0  0  0  0  0
    2.1878   -0.6971    0.2437 C   0  0  0  0  0  0  0  0  0  0  0  0
    3.1305   -0.2179   -0.8713 C   0  0  0  0  0  0  0  0  0  0  0  0
    0.8256   -2.2558   -1.1911 C   0  0  0  0  0  0  0  0  0  0  0  0
    4.4899    0.2293   -0.3924 C   0  0  0  0  0  0  0  0  0  0  0  0
    4.7020    1.5618   -0.0390 C   0  0  0  0  0  0  0  0  0  0  0  0
    5.5345   -0.6908   -0.3031 C   0  0  0  0  0  0  0  0  0  0  0  0
    5.9587    1.9744    0.4037 C   0  0  0  0  0  0  0  0  0  0  0  0
    6.7911   -0.2783    0.1397 C   0  0  0  0  0  0  0  0  0  0  0  0
    7.0033    1.0543    0.4930 C   0  0  0  0  0  0  0  0  0  0  0  0
   -3.3077    2.1142    1.4681 H   0  0  0  0  0  0  0  0  0  0  0  0
   -1.6409   -1.7409   -0.4212 H   0  0  0  0  0  0  0  0  0  0  0  0
   -4.4748    0.4099   -1.9692 H   0  0  0  0  0  0  0  0  0  0  0  0
   -5.5717   -0.8847   -1.6062 H   0  0  0  0  0  0  0  0  0  0  0  0
   -4.7921   -0.9877    1.7202 H   0  0  0  0  0  0  0  0  0  0  0  0
   -5.5009   -1.9606    0.4407 H   0  0  0  0  0  0  0  0  0  0  0  0
   -5.5472    1.3442    1.5871 H   0  0  0  0  0  0  0  0  0  0  0  0
   -5.6450    2.7759    0.5946 H   0  0  0  0  0  0  0  0  0  0  0  0
   -2.3148   -1.8167    2.5604 H   0  0  0  0  0  0  0  0  0  0  0  0
   -1.6668   -3.2373    1.7452 H   0  0  0  0  0  0  0  0  0  0  0  0
   -6.3497    1.5769   -1.2378 H   0  0  0  0  0  0  0  0  0  0  0  0
   -6.7868    0.3887   -0.0211 H   0  0  0  0  0  0  0  0  0  0  0  0
   -4.0838   -3.3449    1.8258 H   0  0  0  0  0  0  0  0  0  0  0  0
   -3.5065   -3.3016    0.1695 H   0  0  0  0  0  0  0  0  0  0  0  0
    0.1923   -0.9312    1.7348 H   0  0  0  0  0  0  0  0  0  0  0  0
    0.3371   -0.2137   -0.7445 H   0  0  0  0  0  0  0  0  0  0  0  0
    2.1095    0.0975    0.9985 H   0  0  0  0  0  0  0  0  0  0  0  0
    2.6545   -1.5548    0.7482 H   0  0  0  0  0  0  0  0  0  0  0  0
    2.6569    0.6081   -1.4182 H   0  0  0  0  0  0  0  0  0  0  0  0
    3.2705   -1.0148   -1.6122 H   0  0  0  0  0  0  0  0  0  0  0  0
   -3.3217    4.4599   -1.1129 H   0  0  0  0  0  0  0  0  0  0  0  0
    0.8526   -2.6367   -3.1021 H   0  0  0  0  0  0  0  0  0  0  0  0
    3.8953    2.2873   -0.1023 H   0  0  0  0  0  0  0  0  0  0  0  0
    5.3807   -1.7320   -0.5735 H   0  0  0  0  0  0  0  0  0  0  0  0
    6.1177    3.0137    0.6783 H   0  0  0  0  0  0  0  0  0  0  0  0
    7.5965   -1.0049    0.2054 H   0  0  0  0  0  0  0  0  0  0  0  0
    8.8305    0.6923    0.9250 H   0  0  0  0  0  0  0  0  0  0  0  0
  1 18  2  0  0  0  0
  2 20  1  0  0  0  0
  2 50  1  0  0  0  0
  3 20  2  0  0  0  0
  4 23  1  0  0  0  0
  4 51  1  0  0  0  0
  5 23  2  0  0  0  0
  6 29  1  0  0  0  0
  6 56  1  0  0  0  0
  7  8  1  0  0  0  0
  7 12  1  0  0  0  0
  7 13  1  0  0  0  0
  8 10  1  0  0  0  0
  8 18  1  0  0  0  0
  9 11  1  0  0  0  0
  9 19  1  0  0  0  0
  9 44  1  0  0  0  0
 10 14  1  0  0  0  0
 10 20  1  0  0  0  0
 10 30  1  0  0  0  0
 11 15  1  0  0  0  0
 11 18  1  0  0  0  0
 11 31  1  0  0  0  0
 12 16  1  0  0  0  0
 12 32  1  0  0  0  0
 12 33  1  0  0  0  0
 13 17  1  0  0  0  0
 13 34  1  0  0  0  0
 13 35  1  0  0  0  0
 14 16  1  0  0  0  0
 14 36  1  0  0  0  0
 14 37  1  0  0  0  0
 15 17  1  0  0  0  0
 15 38  1  0  0  0  0
 15 39  1  0  0  0  0
 16 40  1  0  0  0  0
 16 41  1  0  0  0  0
 17 42  1  0  0  0  0
 17 43  1  0  0  0  0
 19 21  1  0  0  0  0
 19 23  1  0  0  0  0
 19 45  1  0  0  0  0
 21 22  1  0  0  0  0
 21 46  1  0  0  0  0
 21 47  1  0  0  0  0
 22 24  1  0  0  0  0
 22 48  1  0  0  0  0
 22 49  1  0  0  0  0
 24 25  2  0  0  0  0
 24 26  1  0  0  0  0
 25 27  1  0  0  0  0
 25 52  1  0  0  0  0
 26 28  2  0  0  0  0
 26 53  1  0  0  0  0
 27 29  2  0  0  0  0
 27 54  1  0  0  0  0
 28 29  1  0  0  0  0
 28 55  1  0  0  0  0
M  END
> <PUBCHEM_COMPOUND_CID>
10069845

> <PUBCHEM_CONFORMER_RMSD>
1

> <PUBCHEM_CONFORMER_DIVERSEORDER>
4
131
191
143
89
154
103
144
77
121
119
51
115
193
130
182
181
165
43
33
67
174
186
137
192
1
163
69
170
105
153
11
116
27
3
91
159
158
65
76
14
125
56
157
98
122
180
112
120
7
129
151
85
64
184
134
46
106
74
86
87
75
127
183
118
190
102
149
179
71
166
26
136
44
132
15
100
59
18
62
12
147
177
28
78
68
21
45
55
133
92
138
81
48
141
104
188
155
5
39
173
117
145
164
72
6
23
113
152
124
54
88
49
148
42
123
162
63
53
172
187
171
83
99
47
109
35
32
150
139
126
37
60
25
97
70
80
189
111
101
140
52
108
2
82
96
185
17
61
110
8
66
24
156
175
93
50
94
58
114
142
16
29
19
9
73
107
176
178
135
128
22
160
41
161
168
34
57
95
79
36
31
30
169
84
40
10
146
20
38
13
167
90

> <PUBCHEM_MMFF94_PARTIAL_CHARGES>
32
1 -0.57
10 0.36
11 0.33
12 0.27
13 0.27
18 0.57
19 0.33
2 -0.65
20 0.66
22 0.14
23 0.66
24 -0.14
25 -0.15
26 -0.15
27 -0.15
28 -0.15
29 0.08
3 -0.57
4 -0.65
44 0.36
5 -0.57
50 0.5
51 0.5
52 0.15
53 0.15
54 0.15
55 0.15
56 0.45
6 -0.53
7 -0.55
8 -0.35
9 -0.9

> <PUBCHEM_EFFECTIVE_ROTOR_COUNT>
8.6

> <PUBCHEM_PHARMACOPHORE_FEATURES>
13
1 1 acceptor
1 2 acceptor
1 3 acceptor
1 4 acceptor
1 5 acceptor
1 6 donor
1 9 cation
1 9 donor
3 2 3 20 anion
3 4 5 23 anion
6 24 25 26 27 28 29 rings
6 7 8 10 12 14 16 rings
7 7 8 11 13 15 17 18 rings

> <PUBCHEM_HEAVY_ATOM_COUNT>
29

> <PUBCHEM_ATOM_DEF_STEREO_COUNT>
0

> <PUBCHEM_ATOM_UDEF_STEREO_COUNT>
3

> <PUBCHEM_BOND_DEF_STEREO_COUNT>
0

> <PUBCHEM_BOND_UDEF_STEREO_COUNT>
0

> <PUBCHEM_ISOTOPIC_ATOM_COUNT>
0

> <PUBCHEM_COMPONENT_COUNT>
1

> <PUBCHEM_CACTVS_TAUTO_COUNT>
2

> <PUBCHEM_CONFORMER_ID>
0099A75500000004

> <PUBCHEM_MMFF94_ENERGY>
59.0068

> <PUBCHEM_FEATURE_SELFOVERLAP>
66.106

> <PUBCHEM_SHAPE_FINGERPRINT>
100830 39 18334010593175527880
10291535 26 18334581239678208355
10411042 1 17830460832190954779
11991303 11 17632013169311143382
12107183 9 17825940426181806378
12596602 18 15502670333450473076
12633257 1 17167870780911081342
13402501 40 18412545414080474632
13911987 19 17346321518014898514
14739800 52 18261662714955625440
15183329 4 18333447634605597328
15537594 2 12967127190120330221
15604295 49 18197495346116232040
16990366 60 17103424204241663867
17980427 23 17968385640298616143
18608769 82 18410579518071869675
19489759 90 18040435529107042962
21033648 144 18335416837959995046
21033648 29 18201428221233698216
21236236 1 18409730681350227849
21315764 268 18338233877472671400
21859007 373 18411699860238108172
22950370 63 8214140755328247878
22956985 138 16673045734940224331
23559900 14 18339355378905897881
2838139 119 18411415094794293508
373842 8 18190463946895213420
4073 2 18041003981694558914
5104073 3 18114468881057845594
5969126 39 18268146646979457031
77296 10 18187930547492380122
8863177 126 8502359023787726268
9981440 41 18260838093898941787

> <PUBCHEM_SHAPE_MULTIPOLES>
546.65
17.9
3.4
1.33
29.55
0.44
-0.4
10.36
2.6
-3.43
-0.28
-0.47
-0.58
2.05

> <PUBCHEM_SHAPE_SELFOVERLAP>
1144.85

> <PUBCHEM_SHAPE_VOLUME>
303.8

> <PUBCHEM_COORDINATE_TYPE>
2
5
10

$$$$
