10071409
  -OEChem-03292013303D

 64 66  0     1  0  0  0  0  0999 V2000
    0.8133   -0.1766   -1.9356 O   0  0  0  0  0  0  0  0  0  0  0  0
   -1.2771    3.5904    0.1447 O   0  0  0  0  0  0  0  0  0  0  0  0
    0.9808    4.0565    1.4750 O   0  0  0  0  0  0  0  0  0  0  0  0
    2.7012   -1.8254    1.1475 O   0  0  0  0  0  0  0  0  0  0  0  0
    6.0776   -1.1471    0.6648 O   0  0  0  0  0  0  0  0  0  0  0  0
    5.0457   -1.3080   -1.3489 O   0  0  0  0  0  0  0  0  0  0  0  0
    3.0465    0.3439   -0.5979 N   0  0  0  0  0  0  0  0  0  0  0  0
   -1.8850   -0.8387   -0.5669 C   0  0  1  0  0  0  0  0  0  0  0  0
   -2.6050    0.5533   -0.7746 C   0  0  1  0  0  0  0  0  0  0  0  0
   -2.4802   -1.7919    0.5396 C   0  0  2  0  0  0  0  0  0  0  0  0
   -2.7874    1.2469    0.6234 C   0  0  2  0  0  0  0  0  0  0  0  0
   -2.6063   -0.9752    1.8461 C   0  0  0  0  0  0  0  0  0  0  0  0
   -3.4013    0.3157    1.6787 C   0  0  0  0  0  0  0  0  0  0  0  0
   -1.6181   -1.6379   -1.8599 C   0  0  0  0  0  0  0  0  0  0  0  0
   -1.6772    1.4575   -1.6388 C   0  0  0  0  0  0  0  0  0  0  0  0
   -1.5318   -2.9987    0.7225 C   0  0  0  0  0  0  0  0  0  0  0  0
   -3.9379    0.4507   -1.5431 C   0  0  0  0  0  0  0  0  0  0  0  0
   -3.8551   -2.4047    0.1825 C   0  0  0  0  0  0  0  0  0  0  0  0
   -0.6087   -2.7614   -1.6120 C   0  0  0  0  0  0  0  0  0  0  0  0
   -3.5992    2.5512    0.5937 C   0  0  0  0  0  0  0  0  0  0  0  0
   -0.7134   -3.4075   -0.2656 C   0  0  0  0  0  0  0  0  0  0  0  0
   -0.3805    1.6684   -0.9640 C   0  0  0  0  0  0  0  0  0  0  0  0
   -1.5538   -3.7540    2.0272 C   0  0  0  0  0  0  0  0  0  0  0  0
    0.7337    0.9205   -1.0959 C   0  0  0  0  0  0  0  0  0  0  0  0
   -0.3332    2.8355   -0.0399 C   0  0  0  0  0  0  0  0  0  0  0  0
    1.9830    1.1827   -0.3764 C   0  0  0  0  0  0  0  0  0  0  0  0
    0.9369    3.1084    0.7063 C   0  0  0  0  0  0  0  0  0  0  0  0
    2.0816    2.2157    0.4761 C   0  0  0  0  0  0  0  0  0  0  0  0
    4.0255    0.0369    0.4060 C   0  0  1  0  0  0  0  0  0  0  0  0
    3.3514   -0.6408    1.5931 C   0  0  0  0  0  0  0  0  0  0  0  0
    5.0741   -0.8663   -0.2076 C   0  0  0  0  0  0  0  0  0  0  0  0
   -0.9050   -0.6084   -0.1378 H   0  0  0  0  0  0  0  0  0  0  0  0
   -1.8139    1.4530    1.0688 H   0  0  0  0  0  0  0  0  0  0  0  0
   -1.6065   -0.7240    2.2265 H   0  0  0  0  0  0  0  0  0  0  0  0
   -3.0912   -1.5718    2.6295 H   0  0  0  0  0  0  0  0  0  0  0  0
   -4.4452    0.0894    1.4358 H   0  0  0  0  0  0  0  0  0  0  0  0
   -3.4256    0.8318    2.6476 H   0  0  0  0  0  0  0  0  0  0  0  0
   -1.2699   -1.0288   -2.6954 H   0  0  0  0  0  0  0  0  0  0  0  0
   -2.5528   -2.0815   -2.2218 H   0  0  0  0  0  0  0  0  0  0  0  0
   -2.1516    2.4194   -1.8679 H   0  0  0  0  0  0  0  0  0  0  0  0
   -1.5186    1.0207   -2.6313 H   0  0  0  0  0  0  0  0  0  0  0  0
   -3.8515   -0.1849   -2.4292 H   0  0  0  0  0  0  0  0  0  0  0  0
   -4.7538    0.0720   -0.9281 H   0  0  0  0  0  0  0  0  0  0  0  0
   -4.2672    1.4346   -1.8986 H   0  0  0  0  0  0  0  0  0  0  0  0
   -3.8220   -3.0042   -0.7328 H   0  0  0  0  0  0  0  0  0  0  0  0
   -4.2061   -3.0735    0.9781 H   0  0  0  0  0  0  0  0  0  0  0  0
   -4.6410   -1.6624    0.0616 H   0  0  0  0  0  0  0  0  0  0  0  0
    0.4220   -2.4357   -1.7414 H   0  0  0  0  0  0  0  0  0  0  0  0
   -0.7649   -3.5324   -2.3773 H   0  0  0  0  0  0  0  0  0  0  0  0
   -3.4430    3.1684   -0.2924 H   0  0  0  0  0  0  0  0  0  0  0  0
   -4.6735    2.3279    0.6046 H   0  0  0  0  0  0  0  0  0  0  0  0
   -3.4006    3.1512    1.4889 H   0  0  0  0  0  0  0  0  0  0  0  0
   -0.0636   -4.2644   -0.1039 H   0  0  0  0  0  0  0  0  0  0  0  0
   -0.9303   -4.6541    1.9923 H   0  0  0  0  0  0  0  0  0  0  0  0
   -2.5688   -4.0771    2.2762 H   0  0  0  0  0  0  0  0  0  0  0  0
   -1.1730   -3.1295    2.8412 H   0  0  0  0  0  0  0  0  0  0  0  0
    2.9862    2.4576    1.0219 H   0  0  0  0  0  0  0  0  0  0  0  0
    1.5236   -0.7592   -1.6263 H   0  0  0  0  0  0  0  0  0  0  0  0
    3.1288   -0.0969   -1.5074 H   0  0  0  0  0  0  0  0  0  0  0  0
    4.5543    0.9441    0.7211 H   0  0  0  0  0  0  0  0  0  0  0  0
    2.6104   -0.0077    2.0899 H   0  0  0  0  0  0  0  0  0  0  0  0
    4.0864   -0.9344    2.3495 H   0  0  0  0  0  0  0  0  0  0  0  0
    2.0175   -1.5630    0.5081 H   0  0  0  0  0  0  0  0  0  0  0  0
    6.7549   -1.7340    0.2659 H   0  0  0  0  0  0  0  0  0  0  0  0
  1 24  1  0  0  0  0
  1 58  1  0  0  0  0
  2 25  2  0  0  0  0
  3 27  2  0  0  0  0
  4 30  1  0  0  0  0
  4 63  1  0  0  0  0
  5 31  1  0  0  0  0
  5 64  1  0  0  0  0
  6 31  2  0  0  0  0
  7 26  1  0  0  0  0
  7 29  1  0  0  0  0
  7 59  1  0  0  0  0
  8  9  1  0  0  0  0
  8 10  1  0  0  0  0
  8 14  1  0  0  0  0
  8 32  1  0  0  0  0
  9 11  1  0  0  0  0
  9 15  1  0  0  0  0
  9 17  1  0  0  0  0
 10 12  1  0  0  0  0
 10 16  1  0  0  0  0
 10 18  1  0  0  0  0
 11 13  1  0  0  0  0
 11 20  1  0  0  0  0
 11 33  1  0  0  0  0
 12 13  1  0  0  0  0
 12 34  1  0  0  0  0
 12 35  1  0  0  0  0
 13 36  1  0  0  0  0
 13 37  1  0  0  0  0
 14 19  1  0  0  0  0
 14 38  1  0  0  0  0
 14 39  1  0  0  0  0
 15 22  1  0  0  0  0
 15 40  1  0  0  0  0
 15 41  1  0  0  0  0
 16 21  2  0  0  0  0
 16 23  1  0  0  0  0
 17 42  1  0  0  0  0
 17 43  1  0  0  0  0
 17 44  1  0  0  0  0
 18 45  1  0  0  0  0
 18 46  1  0  0  0  0
 18 47  1  0  0  0  0
 19 21  1  0  0  0  0
 19 48  1  0  0  0  0
 19 49  1  0  0  0  0
 20 50  1  0  0  0  0
 20 51  1  0  0  0  0
 20 52  1  0  0  0  0
 21 53  1  0  0  0  0
 22 24  2  0  0  0  0
 22 25  1  0  0  0  0
 23 54  1  0  0  0  0
 23 55  1  0  0  0  0
 23 56  1  0  0  0  0
 24 26  1  0  0  0  0
 25 27  1  0  0  0  0
 26 28  2  0  0  0  0
 27 28  1  0  0  0  0
 28 57  1  0  0  0  0
 29 30  1  0  0  0  0
 29 31  1  0  0  0  0
 29 60  1  0  0  0  0
 30 61  1  0  0  0  0
 30 62  1  0  0  0  0
M  END
> <PUBCHEM_COMPOUND_CID>
10071409

> <PUBCHEM_CONFORMER_RMSD>
1

> <PUBCHEM_CONFORMER_DIVERSEORDER>
1
3
9
5
4
6
7
2
8

> <PUBCHEM_MMFF94_PARTIAL_CHARGES>
28
1 -0.53
10 0.14
15 0.14
16 -0.28
19 0.14
2 -0.57
21 -0.29
22 -0.12
23 0.14
24 0.08
25 0.56
26 0.1
27 0.56
28 -0.14
29 0.43
3 -0.57
30 0.28
31 0.66
4 -0.68
5 -0.65
53 0.15
57 0.15
58 0.45
59 0.4
6 -0.57
63 0.4
64 0.5
7 -0.87

> <PUBCHEM_EFFECTIVE_ROTOR_COUNT>
7.2

> <PUBCHEM_PHARMACOPHORE_FEATURES>
13
1 1 donor
1 2 acceptor
1 3 acceptor
1 4 acceptor
1 4 donor
1 5 acceptor
1 6 acceptor
1 7 cation
1 7 donor
3 5 6 31 anion
6 22 24 25 26 27 28 rings
6 8 10 14 16 19 21 rings
6 8 9 10 11 12 13 rings

> <PUBCHEM_HEAVY_ATOM_COUNT>
31

> <PUBCHEM_ATOM_DEF_STEREO_COUNT>
5

> <PUBCHEM_ATOM_UDEF_STEREO_COUNT>
0

> <PUBCHEM_BOND_DEF_STEREO_COUNT>
0

> <PUBCHEM_BOND_UDEF_STEREO_COUNT>
0

> <PUBCHEM_ISOTOPIC_ATOM_COUNT>
0

> <PUBCHEM_COMPONENT_COUNT>
1

> <PUBCHEM_CACTVS_TAUTO_COUNT>
20

> <PUBCHEM_CONFORMER_ID>
0099AD7100000001

> <PUBCHEM_MMFF94_ENERGY>
112.24

> <PUBCHEM_FEATURE_SELFOVERLAP>
66.067

> <PUBCHEM_SHAPE_FINGERPRINT>
107951 10 16443902748634405593
12156800 1 13674811073164276354
12553582 1 18409724041573589360
12633257 1 18199207190133126617
12788726 201 18195797488801186568
13122387 1 18408881802549890938
13140716 1 18341334465296684365
13533116 47 18050854613414899467
13726171 33 17978832092053868708
13965767 371 17266134298278517595
14223421 5 17907293608699561765
14251757 5 18335719234260864350
14279260 333 18114741522442544490
14725015 67 18411416216070940777
15361156 5 18059301964019912292
15420108 30 17485087393681912273
15927050 60 17693095163423821821
17974551 9 18127427854157138409
18981168 100 11238346473607898881
20600515 1 18340782446261989308
20775530 9 17970914585688293370
21033648 29 17417800730292707506
23559900 14 18116139142426233013
2818148 4 17826255152199170898
3027735 51 18122898733802776969
3383291 50 18410566297466739179
35225 105 18191003647852362522
3737641 26 17975432513742936924
469060 322 10591470776258379023
484985 159 18260818285340869374
5265222 85 18188497873875213812
70251023 43 17983000443165388606
7097593 13 18052544557921754212

> <PUBCHEM_SHAPE_MULTIPOLES>
597.77
8.13
4.75
1.86
11.35
0.58
-0.05
-3.38
0.99
-1.71
1.52
-0.74
-0.6
0.57

> <PUBCHEM_SHAPE_SELFOVERLAP>
1268.88

> <PUBCHEM_SHAPE_VOLUME>
328.4

> <PUBCHEM_COORDINATE_TYPE>
2
5
10

$$$$
