100766
  -OEChem-03292013323D

 60 62  0     1  0  0  0  0  0999 V2000
   -2.8502   -0.6330   -1.7431 S   0  0  0  0  0  0  0  0  0  0  0  0
   -0.1886   -1.9673   -0.9866 O   0  0  0  0  0  0  0  0  0  0  0  0
   -0.5645   -4.6673    0.3797 O   0  0  0  0  0  0  0  0  0  0  0  0
    1.0339   -3.3160    2.1130 O   0  0  0  0  0  0  0  0  0  0  0  0
    1.6760   -0.9565    0.0772 N   0  0  0  0  0  0  0  0  0  0  0  0
    2.2060    1.1720    0.4851 N   0  0  0  0  0  0  0  0  0  0  0  0
    3.8301   -1.7809   -0.6863 N   0  0  0  0  0  0  0  0  0  0  0  0
   -7.4387   -0.1821    0.6187 N   0  0  0  0  0  0  0  0  0  0  0  0
    5.5144   -0.0149   -0.6666 N   0  0  0  0  0  0  0  0  0  0  0  0
    5.0241    2.2206    0.0330 N   0  0  0  0  0  0  0  0  0  0  0  0
    1.2855    5.7786    0.4079 N   0  0  0  0  0  0  0  0  0  0  0  0
   -1.3971   -2.5898   -0.4923 C   0  0  1  0  0  0  0  0  0  0  0  0
   -1.0019   -3.3631    0.7618 C   0  0  2  0  0  0  0  0  0  0  0  0
    0.1794   -2.5642    1.2755 C   0  0  2  0  0  0  0  0  0  0  0  0
    0.8640   -2.1670   -0.0235 C   0  0  1  0  0  0  0  0  0  0  0  0
   -2.4218   -1.4981   -0.2181 C   0  0  0  0  0  0  0  0  0  0  0  0
   -4.0536    0.5508   -1.0275 C   0  0  2  0  0  0  0  0  0  0  0  0
   -3.3641    1.4932   -0.0232 C   0  0  0  0  0  0  0  0  0  0  0  0
   -5.2429   -0.2536   -0.4743 C   0  0  0  0  0  0  0  0  0  0  0  0
    3.0019   -0.8291   -0.2303 C   0  0  0  0  0  0  0  0  0  0  0  0
   -2.1583    2.2735   -0.5629 C   0  0  0  0  0  0  0  0  0  0  0  0
    1.2439    0.2733    0.5016 C   0  0  0  0  0  0  0  0  0  0  0  0
   -1.6109    3.2398    0.4930 C   0  0  0  0  0  0  0  0  0  0  0  0
    3.3104    0.4967    0.0297 C   0  0  0  0  0  0  0  0  0  0  0  0
   -6.3407    0.6367    0.1148 C   0  0  0  0  0  0  0  0  0  0  0  0
   -0.3870    3.9975   -0.0310 C   0  0  0  0  0  0  0  0  0  0  0  0
    4.6228    0.8947   -0.2048 C   0  0  0  0  0  0  0  0  0  0  0  0
    0.1585    5.0328    0.9548 C   0  0  0  0  0  0  0  0  0  0  0  0
    5.0693   -1.2775   -0.8755 C   0  0  0  0  0  0  0  0  0  0  0  0
   -1.7594   -3.2734   -1.2700 H   0  0  0  0  0  0  0  0  0  0  0  0
   -1.8084   -3.4825    1.4908 H   0  0  0  0  0  0  0  0  0  0  0  0
   -0.1845   -1.6971    1.8378 H   0  0  0  0  0  0  0  0  0  0  0  0
    1.5135   -2.9689   -0.3941 H   0  0  0  0  0  0  0  0  0  0  0  0
   -3.2939   -1.9849    0.2191 H   0  0  0  0  0  0  0  0  0  0  0  0
   -2.0026   -0.7888    0.4976 H   0  0  0  0  0  0  0  0  0  0  0  0
   -4.4142    1.1578   -1.8668 H   0  0  0  0  0  0  0  0  0  0  0  0
   -4.1030    2.2414    0.2916 H   0  0  0  0  0  0  0  0  0  0  0  0
   -3.0922    0.9638    0.8966 H   0  0  0  0  0  0  0  0  0  0  0  0
   -0.2116   -5.0980    1.1770 H   0  0  0  0  0  0  0  0  0  0  0  0
    1.7994   -2.7566    2.3287 H   0  0  0  0  0  0  0  0  0  0  0  0
   -5.6728   -0.8767   -1.2700 H   0  0  0  0  0  0  0  0  0  0  0  0
   -4.9343   -0.9213    0.3338 H   0  0  0  0  0  0  0  0  0  0  0  0
   -1.3550    1.5920   -0.8595 H   0  0  0  0  0  0  0  0  0  0  0  0
   -2.4563    2.8350   -1.4565 H   0  0  0  0  0  0  0  0  0  0  0  0
    0.2238    0.4577    0.8080 H   0  0  0  0  0  0  0  0  0  0  0  0
   -2.3917    3.9560    0.7757 H   0  0  0  0  0  0  0  0  0  0  0  0
   -1.3353    2.6856    1.3982 H   0  0  0  0  0  0  0  0  0  0  0  0
   -5.9603    1.2358    0.9471 H   0  0  0  0  0  0  0  0  0  0  0  0
   -6.7226    1.3256   -0.6458 H   0  0  0  0  0  0  0  0  0  0  0  0
   -0.6584    4.5054   -0.9657 H   0  0  0  0  0  0  0  0  0  0  0  0
    0.4039    3.2809   -0.2830 H   0  0  0  0  0  0  0  0  0  0  0  0
   -0.6338    5.7412    1.2204 H   0  0  0  0  0  0  0  0  0  0  0  0
    0.4725    4.5321    1.8776 H   0  0  0  0  0  0  0  0  0  0  0  0
   -7.8078   -0.7610   -0.1349 H   0  0  0  0  0  0  0  0  0  0  0  0
   -7.0883   -0.8301    1.3234 H   0  0  0  0  0  0  0  0  0  0  0  0
    5.8098   -1.9788   -1.2450 H   0  0  0  0  0  0  0  0  0  0  0  0
    4.3603    2.9013    0.3769 H   0  0  0  0  0  0  0  0  0  0  0  0
    5.9833    2.4856   -0.1451 H   0  0  0  0  0  0  0  0  0  0  0  0
    1.6521    6.4086    1.1202 H   0  0  0  0  0  0  0  0  0  0  0  0
    2.0419    5.1354    0.1776 H   0  0  0  0  0  0  0  0  0  0  0  0
  1 16  1  0  0  0  0
  1 17  1  0  0  0  0
  2 12  1  0  0  0  0
  2 15  1  0  0  0  0
  3 13  1  0  0  0  0
  3 39  1  0  0  0  0
  4 14  1  0  0  0  0
  4 40  1  0  0  0  0
  5 15  1  0  0  0  0
  5 20  1  0  0  0  0
  5 22  1  0  0  0  0
  6 22  2  0  0  0  0
  6 24  1  0  0  0  0
  7 20  2  0  0  0  0
  7 29  1  0  0  0  0
  8 25  1  0  0  0  0
  8 54  1  0  0  0  0
  8 55  1  0  0  0  0
  9 27  1  0  0  0  0
  9 29  2  0  0  0  0
 10 27  1  0  0  0  0
 10 57  1  0  0  0  0
 10 58  1  0  0  0  0
 11 28  1  0  0  0  0
 11 59  1  0  0  0  0
 11 60  1  0  0  0  0
 12 13  1  0  0  0  0
 12 16  1  0  0  0  0
 12 30  1  0  0  0  0
 13 14  1  0  0  0  0
 13 31  1  0  0  0  0
 14 15  1  0  0  0  0
 14 32  1  0  0  0  0
 15 33  1  0  0  0  0
 16 34  1  0  0  0  0
 16 35  1  0  0  0  0
 17 18  1  0  0  0  0
 17 19  1  0  0  0  0
 17 36  1  0  0  0  0
 18 21  1  0  0  0  0
 18 37  1  0  0  0  0
 18 38  1  0  0  0  0
 19 25  1  0  0  0  0
 19 41  1  0  0  0  0
 19 42  1  0  0  0  0
 20 24  1  0  0  0  0
 21 23  1  0  0  0  0
 21 43  1  0  0  0  0
 21 44  1  0  0  0  0
 22 45  1  0  0  0  0
 23 26  1  0  0  0  0
 23 46  1  0  0  0  0
 23 47  1  0  0  0  0
 24 27  2  0  0  0  0
 25 48  1  0  0  0  0
 25 49  1  0  0  0  0
 26 28  1  0  0  0  0
 26 50  1  0  0  0  0
 26 51  1  0  0  0  0
 28 52  1  0  0  0  0
 28 53  1  0  0  0  0
 29 56  1  0  0  0  0
M  END
> <PUBCHEM_COMPOUND_CID>
100766

> <PUBCHEM_CONFORMER_RMSD>
1.2

> <PUBCHEM_CONFORMER_DIVERSEORDER>
1
198
67
211
263
252
85
167
125
330
278
284
359
13
145
225
303
335
243
200
192
217
224
339
63
162
257
121
312
175
325
38
283
29
60
208
95
316
320
123
195
107
210
169
323
324
66
240
286
241
88
143
96
236
280
34
256
363
223
89
130
329
247
337
179
218
294
281
142
23
183
62
327
202
313
229
341
321
345
173
277
255
76
180
189
168
350
285
99
346
100
355
221
356
250
8
358
287
331
124
220
293
77
20
352
361
151
266
135
10
201
268
27
288
52
261
299
177
273
190
54
166
165
57
338
349
344
242
122
343
276
193
347
237
362
357
259
159
116
115
249
292
59
55
187
188
279
56
98
50
322
244
340
155
271
129
265
80
48
305
61
246
156
328
126
127
290
181
24
307
138
42
5
207
157
306
296
215
253
214
269
49
19
231
53
291
197
82
260
227
297
148
216
51
235
176
25
161
160
4
233
15
230
354
73
300
315
7
264
39
44
93
16
248
43
238
26
301
174
203
332
147
30
209
118
163
131
258
153
68
109
112
219
3
191
136
228
101
86
110
117
31
75
137
353
298
64
326
150
289
70
41
46
314
206
275
333
47
104
251
234
232
282
304
2
74
120
319
360
108
222
311
92
139
21
90
348
106
36
308
270
194
45
152
254
213
81
9
78
140
317
342
226
69
334
113
114
274
37
119
11
185
40
245
28
33
184
262
272
336
97
105
310
32
295
94
91
17
199
318
302
141
111
87
196
12
103
158
6
22
170
35
128
178
186
204
14
133
83
172
164
267
182
18
65
58
205
149
72
212
71
154
132
84
102
146
351
79
144
309
239
134
171

> <PUBCHEM_MMFF94_PARTIAL_CHARGES>
34
1 -0.46
10 -0.9
11 -0.99
12 0.28
13 0.28
14 0.28
15 0.54
16 0.23
17 0.23
2 -0.56
20 0.11
22 0.04
24 0.23
25 0.27
27 0.41
28 0.27
29 0.47
3 -0.68
39 0.4
4 -0.68
40 0.4
45 0.15
5 0.05
54 0.36
55 0.36
56 0.15
57 0.4
58 0.4
59 0.36
6 -0.57
60 0.36
7 -0.57
8 -0.99
9 -0.62

> <PUBCHEM_EFFECTIVE_ROTOR_COUNT>
12

> <PUBCHEM_PHARMACOPHORE_FEATURES>
20
1 10 cation
1 10 donor
1 11 cation
1 11 donor
1 2 acceptor
1 3 acceptor
1 3 donor
1 4 acceptor
1 4 donor
1 8 cation
1 8 donor
3 17 18 19 hydrophobe
3 21 23 26 hydrophobe
3 5 6 22 cation
3 5 7 20 cation
3 7 9 29 cation
4 1 16 17 19 hydrophobe
5 2 12 13 14 15 rings
5 5 6 20 22 24 rings
6 7 9 20 24 27 29 rings

> <PUBCHEM_HEAVY_ATOM_COUNT>
29

> <PUBCHEM_ATOM_DEF_STEREO_COUNT>
4

> <PUBCHEM_ATOM_UDEF_STEREO_COUNT>
1

> <PUBCHEM_BOND_DEF_STEREO_COUNT>
0

> <PUBCHEM_BOND_UDEF_STEREO_COUNT>
0

> <PUBCHEM_ISOTOPIC_ATOM_COUNT>
0

> <PUBCHEM_COMPONENT_COUNT>
1

> <PUBCHEM_CACTVS_TAUTO_COUNT>
3

> <PUBCHEM_CONFORMER_ID>
0001899E00000001

> <PUBCHEM_MMFF94_ENERGY>
50.714

> <PUBCHEM_FEATURE_SELFOVERLAP>
104.215

> <PUBCHEM_SHAPE_FINGERPRINT>
10006869 2 18124306113603478309
1100329 8 18338796852874065181
11578080 2 16557600102067955882
12553582 1 18341032052734181397
12788726 201 18410009902044082184
13402501 40 18411139138919006493
14251757 17 17343230614809479854
15420108 30 17329702125468492672
15927050 60 17836930367076617709
16112460 7 18270971249037628841
19319366 153 18187358835431167106
221357 26 18272932682959230982
23559900 14 18411135858260883262
3178227 256 18336558191929568425
392239 28 18336275574370308971
5309563 4 18339360769643657473
59755656 520 18260544537010590919

> <PUBCHEM_SHAPE_MULTIPOLES>
548.18
11.61
6.4
1.16
7.16
6.88
-0.08
0.95
2.06
-1.17
-2.54
0.23
-0.65
0.13

> <PUBCHEM_SHAPE_SELFOVERLAP>
1116.85

> <PUBCHEM_SHAPE_VOLUME>
320.5

> <PUBCHEM_COORDINATE_TYPE>
2
5
10

$$$$
