100721
  -OEChem-03292013323D

 58 62  0     1  0  0  0  0  0999 V2000
   -1.4251   -1.9481   -1.1761 O   0  0  0  0  0  0  0  0  0  0  0  0
   -0.0466   -2.8460    0.9737 O   0  0  0  0  0  0  0  0  0  0  0  0
   -2.9636    1.8099   -1.6246 O   0  0  0  0  0  0  0  0  0  0  0  0
   -2.7767   -2.3084    1.7159 O   0  0  0  0  0  0  0  0  0  0  0  0
    1.6599    2.7536    1.0317 O   0  0  0  0  0  0  0  0  0  0  0  0
    6.4397   -1.0464   -0.4880 O   0  0  0  0  0  0  0  0  0  0  0  0
   -1.6461    0.2890   -0.4247 N   0  0  0  0  0  0  0  0  0  0  0  0
   -3.9143   -0.9961    0.2001 N   0  0  0  0  0  0  0  0  0  0  0  0
    1.9852    0.9548   -0.6930 N   0  0  0  0  0  0  0  0  0  0  0  0
   -1.4937   -1.1452    0.0013 C   0  0  2  0  0  0  0  0  0  0  0  0
   -0.5077    1.2457   -0.3646 C   0  0  2  0  0  0  0  0  0  0  0  0
   -3.9205   -0.3211   -1.0834 C   0  0  2  0  0  0  0  0  0  0  0  0
   -0.2388   -1.4356    0.8831 C   0  0  2  0  0  0  0  0  0  0  0  0
    0.7755    0.5080   -0.2481 C   0  0  0  0  0  0  0  0  0  0  0  0
   -2.8320    0.7293   -1.0507 C   0  0  0  0  0  0  0  0  0  0  0  0
    0.9463   -0.7303    0.3238 C   0  0  0  0  0  0  0  0  0  0  0  0
   -2.7728   -1.5341    0.7609 C   0  0  0  0  0  0  0  0  0  0  0  0
   -5.3361    0.2372   -1.1964 C   0  0  0  0  0  0  0  0  0  0  0  0
   -0.6923    2.2074    0.8110 C   0  0  0  0  0  0  0  0  0  0  0  0
   -5.2558   -1.1724    0.7295 C   0  0  0  0  0  0  0  0  0  0  0  0
   -6.1665   -0.7864   -0.4267 C   0  0  0  0  0  0  0  0  0  0  0  0
    0.3597    3.3285    0.8841 C   0  0  0  0  0  0  0  0  0  0  0  0
    2.3318   -1.0522    0.2417 C   0  0  0  0  0  0  0  0  0  0  0  0
    2.9574    0.0223   -0.4037 C   0  0  0  0  0  0  0  0  0  0  0  0
    0.1353    4.2637    2.0733 C   0  0  0  0  0  0  0  0  0  0  0  0
    0.3467    4.1360   -0.4178 C   0  0  0  0  0  0  0  0  0  0  0  0
    3.1296   -2.1432    0.6459 C   0  0  0  0  0  0  0  0  0  0  0  0
    4.3326    0.0540   -0.6634 C   0  0  0  0  0  0  0  0  0  0  0  0
    4.5064   -2.1236    0.3917 C   0  0  0  0  0  0  0  0  0  0  0  0
    5.0967   -1.0409   -0.2537 C   0  0  0  0  0  0  0  0  0  0  0  0
    6.9854    0.0908   -1.1527 C   0  0  0  0  0  0  0  0  0  0  0  0
   -0.5238    1.7941   -1.3124 H   0  0  0  0  0  0  0  0  0  0  0  0
   -3.7166   -1.0515   -1.8739 H   0  0  0  0  0  0  0  0  0  0  0  0
   -0.3963   -1.0571    1.9019 H   0  0  0  0  0  0  0  0  0  0  0  0
   -5.6600    0.3437   -2.2360 H   0  0  0  0  0  0  0  0  0  0  0  0
   -5.4196    1.2197   -0.7153 H   0  0  0  0  0  0  0  0  0  0  0  0
   -0.6640    1.6350    1.7493 H   0  0  0  0  0  0  0  0  0  0  0  0
   -1.6918    2.6597    0.7638 H   0  0  0  0  0  0  0  0  0  0  0  0
   -5.3689   -0.4885    1.5776 H   0  0  0  0  0  0  0  0  0  0  0  0
   -5.4092   -2.1980    1.0771 H   0  0  0  0  0  0  0  0  0  0  0  0
   -7.1297   -0.3921   -0.0920 H   0  0  0  0  0  0  0  0  0  0  0  0
   -6.3552   -1.6601   -1.0623 H   0  0  0  0  0  0  0  0  0  0  0  0
    2.1532    1.8343   -1.1611 H   0  0  0  0  0  0  0  0  0  0  0  0
   -1.2742   -2.8685   -0.9012 H   0  0  0  0  0  0  0  0  0  0  0  0
   -0.8200   -3.2222    1.4267 H   0  0  0  0  0  0  0  0  0  0  0  0
   -0.8403    4.7572    2.0174 H   0  0  0  0  0  0  0  0  0  0  0  0
    0.1877    3.7069    3.0158 H   0  0  0  0  0  0  0  0  0  0  0  0
    0.9125    5.0346    2.1254 H   0  0  0  0  0  0  0  0  0  0  0  0
   -0.6557    4.5108   -0.6495 H   0  0  0  0  0  0  0  0  0  0  0  0
    1.0161    5.0013   -0.3365 H   0  0  0  0  0  0  0  0  0  0  0  0
    0.7197    3.5684   -1.2746 H   0  0  0  0  0  0  0  0  0  0  0  0
    2.6902   -2.9975    1.1527 H   0  0  0  0  0  0  0  0  0  0  0  0
    4.7324    0.9251   -1.1672 H   0  0  0  0  0  0  0  0  0  0  0  0
    2.3115    3.4755    1.0362 H   0  0  0  0  0  0  0  0  0  0  0  0
    5.1148   -2.9682    0.7061 H   0  0  0  0  0  0  0  0  0  0  0  0
    6.8665    1.0021   -0.5567 H   0  0  0  0  0  0  0  0  0  0  0  0
    6.5806    0.1996   -2.1647 H   0  0  0  0  0  0  0  0  0  0  0  0
    8.0615   -0.0823   -1.2577 H   0  0  0  0  0  0  0  0  0  0  0  0
  1 10  1  0  0  0  0
  1 44  1  0  0  0  0
  2 13  1  0  0  0  0
  2 45  1  0  0  0  0
  3 15  2  0  0  0  0
  4 17  2  0  0  0  0
  5 22  1  0  0  0  0
  5 54  1  0  0  0  0
  6 30  1  0  0  0  0
  6 31  1  0  0  0  0
  7 10  1  0  0  0  0
  7 11  1  0  0  0  0
  7 15  1  0  0  0  0
  8 12  1  0  0  0  0
  8 17  1  0  0  0  0
  8 20  1  0  0  0  0
  9 14  1  0  0  0  0
  9 24  1  0  0  0  0
  9 43  1  0  0  0  0
 10 13  1  0  0  0  0
 10 17  1  0  0  0  0
 11 14  1  0  0  0  0
 11 19  1  0  0  0  0
 11 32  1  0  0  0  0
 12 15  1  0  0  0  0
 12 18  1  0  0  0  0
 12 33  1  0  0  0  0
 13 16  1  0  0  0  0
 13 34  1  0  0  0  0
 14 16  2  0  0  0  0
 16 23  1  0  0  0  0
 18 21  1  0  0  0  0
 18 35  1  0  0  0  0
 18 36  1  0  0  0  0
 19 22  1  0  0  0  0
 19 37  1  0  0  0  0
 19 38  1  0  0  0  0
 20 21  1  0  0  0  0
 20 39  1  0  0  0  0
 20 40  1  0  0  0  0
 21 41  1  0  0  0  0
 21 42  1  0  0  0  0
 22 25  1  0  0  0  0
 22 26  1  0  0  0  0
 23 24  2  0  0  0  0
 23 27  1  0  0  0  0
 24 28  1  0  0  0  0
 25 46  1  0  0  0  0
 25 47  1  0  0  0  0
 25 48  1  0  0  0  0
 26 49  1  0  0  0  0
 26 50  1  0  0  0  0
 26 51  1  0  0  0  0
 27 29  2  0  0  0  0
 27 52  1  0  0  0  0
 28 30  2  0  0  0  0
 28 53  1  0  0  0  0
 29 30  1  0  0  0  0
 29 55  1  0  0  0  0
 31 56  1  0  0  0  0
 31 57  1  0  0  0  0
 31 58  1  0  0  0  0
M  END
> <PUBCHEM_COMPOUND_CID>
100721

> <PUBCHEM_CONFORMER_RMSD>
0.8

> <PUBCHEM_CONFORMER_DIVERSEORDER>
1

> <PUBCHEM_MMFF94_PARTIAL_CHARGES>
32
1 -0.68
10 0.64
11 0.48
12 0.36
13 0.46
14 -0.33
15 0.57
16 -0.18
17 0.57
2 -0.68
20 0.3
22 0.28
24 -0.15
27 -0.15
28 -0.15
29 -0.15
3 -0.57
30 0.08
31 0.28
4 -0.57
43 0.27
44 0.4
45 0.4
5 -0.68
52 0.15
53 0.15
54 0.4
55 0.15
6 -0.36
7 -0.66
8 -0.66
9 0.03

> <PUBCHEM_EFFECTIVE_ROTOR_COUNT>
4

> <PUBCHEM_PHARMACOPHORE_FEATURES>
17
1 1 acceptor
1 1 donor
1 2 acceptor
1 2 donor
1 3 acceptor
1 4 acceptor
1 5 acceptor
1 5 donor
1 6 acceptor
1 9 cation
1 9 donor
3 22 25 26 hydrophobe
5 8 12 18 20 21 rings
5 9 14 16 23 24 rings
6 23 24 27 28 29 30 rings
6 7 10 11 13 14 16 rings
6 7 8 10 12 15 17 rings

> <PUBCHEM_HEAVY_ATOM_COUNT>
31

> <PUBCHEM_ATOM_DEF_STEREO_COUNT>
4

> <PUBCHEM_ATOM_UDEF_STEREO_COUNT>
0

> <PUBCHEM_BOND_DEF_STEREO_COUNT>
0

> <PUBCHEM_BOND_UDEF_STEREO_COUNT>
0

> <PUBCHEM_ISOTOPIC_ATOM_COUNT>
0

> <PUBCHEM_COMPONENT_COUNT>
1

> <PUBCHEM_CACTVS_TAUTO_COUNT>
1

> <PUBCHEM_CONFORMER_ID>
0001897100000001

> <PUBCHEM_MMFF94_ENERGY>
104.7675

> <PUBCHEM_FEATURE_SELFOVERLAP>
86.611

> <PUBCHEM_SHAPE_FINGERPRINT>
10076449 9 18336838562144752095
10165383 225 17821445734427097767
11578080 2 17558255798641389251
11607047 74 16698051790720285569
11646440 116 18411985766924833634
12011746 2 18114175342251079951
12107698 1 18202842163322764981
12166972 35 18113622283364605596
12236239 1 16732700541315972974
12403259 226 18335976554240879109
12516196 113 18343017804866550470
12553582 1 18271231773084202230
12788726 201 18339075969971473634
13134695 92 18272368728036534453
13140716 1 18269835328623697465
13402501 40 18260829315117260567
13540713 4 17973439095136019227
13540713 5 17974858272816503170
13590594 115 18272093790496174393
13911987 19 18409175415373445846
14068700 675 17846495946144145545
14347329 18 16951945299162553877
14347332 77 18126851491448703790
14787075 74 18260830380010739115
14840074 17 17704354364286685038
14866123 147 17330271671848816930
14931854 50 18261390005770165694
14955137 171 18272373100560973263
15131766 46 15624503957665971922
15927050 60 17694221475794698292
16087824 20 18267589014290558769
16994733 274 15719388425717339636
17492 89 18124313801421553270
17980427 23 17417548976547402185
1813 80 17703802408969532125
18393751 57 16541570571286529753
18608769 82 17822580511873624867
19319366 153 18186514410997323186
20775438 99 17405949296547720319
20832881 197 18412260636579491769
21049683 271 18335424615972240492
21120745 212 18200324216880966824
21267235 1 18334863809212650934
21304303 172 17988934327379808145
21641784 216 18263098647335777404
21792961 116 18187653483663372810
221357 26 18408315584468982375
22182313 1 18192685986674568269
22224240 67 10665230367014579255
23175994 123 18413389839147178431
23558518 356 17763467210088107090
23559900 14 18187643673319531620
23576562 1 18268137833700434501
24771750 20 17974864070347217516
266924 87 18195529190631425510
283562 15 18266462014438636432
3004659 81 17968095309611010934
3178227 256 18336838558715078363
335352 9 18335137597115520591
350125 39 18186803573537277447
437815 12 18413393141871534143
463206 1 18411696629632287726
484989 97 18115591603411854203
5171179 24 18050007993382225531
6004065 56 18271236231086383351
6086070 43 18270666612019253925

> <PUBCHEM_SHAPE_MULTIPOLES>
587.81
12.12
3.94
1.35
6.17
5.21
0.18
-7.29
-4.38
0.52
2.1
-0.61
0.5
0.55

> <PUBCHEM_SHAPE_SELFOVERLAP>
1299.721

> <PUBCHEM_SHAPE_VOLUME>
314.1

> <PUBCHEM_COORDINATE_TYPE>
2
5
10

$$$$
