10073783
  -OEChem-03292013303D

 61 64  0     1  0  0  0  0  0999 V2000
    0.0625   -3.3680   -2.2027 O   0  0  0  0  0  0  0  0  0  0  0  0
   -0.2572    0.8201   -1.7775 O   0  0  0  0  0  0  0  0  0  0  0  0
   -4.4466   -1.0798    0.9676 O   0  0  0  0  0  0  0  0  0  0  0  0
   -4.0036   -3.2870    2.5979 O   0  0  0  0  0  0  0  0  0  0  0  0
    0.8597    1.8577   -0.0525 O   0  0  0  0  0  0  0  0  0  0  0  0
    5.2877    2.0987    0.0289 O   0  0  0  0  0  0  0  0  0  0  0  0
    4.7422    1.8602    2.7439 O   0  0  0  0  0  0  0  0  0  0  0  0
   -4.8310    4.6912   -0.0899 O   0  0  0  0  0  0  0  0  0  0  0  0
    0.7569   -1.2708   -1.2100 C   0  0  1  0  0  0  0  0  0  0  0  0
   -0.4405   -2.1314   -1.6553 C   0  0  2  0  0  0  0  0  0  0  0  0
    1.9092   -2.1919   -1.4435 C   0  0  0  0  0  0  0  0  0  0  0  0
    1.4772   -3.2555   -2.3830 C   0  0  0  0  0  0  0  0  0  0  0  0
    0.8707    0.0053   -2.0426 C   0  0  0  0  0  0  0  0  0  0  0  0
   -1.3942   -2.4373   -0.5210 C   0  0  0  0  0  0  0  0  0  0  0  0
    3.0908   -2.1399   -0.8201 C   0  0  0  0  0  0  0  0  0  0  0  0
   -2.4962   -1.6117   -0.2908 C   0  0  0  0  0  0  0  0  0  0  0  0
   -1.1738   -3.5456    0.2989 C   0  0  0  0  0  0  0  0  0  0  0  0
    3.5259   -1.0874    0.1134 C   0  0  0  0  0  0  0  0  0  0  0  0
   -3.3747   -1.8933    0.7553 C   0  0  0  0  0  0  0  0  0  0  0  0
   -2.0522   -3.8273    1.3452 C   0  0  0  0  0  0  0  0  0  0  0  0
   -3.1527   -3.0011    1.5733 C   0  0  0  0  0  0  0  0  0  0  0  0
    4.2063    0.0161   -0.3764 C   0  0  0  0  0  0  0  0  0  0  0  0
    3.2472   -1.2201    1.4645 C   0  0  0  0  0  0  0  0  0  0  0  0
   -0.1311    1.7094   -0.7510 C   0  0  0  0  0  0  0  0  0  0  0  0
    4.6186    1.0130    0.5078 C   0  0  0  0  0  0  0  0  0  0  0  0
    3.6595   -0.2233    2.3487 C   0  0  0  0  0  0  0  0  0  0  0  0
   -1.3767    2.4982   -0.5756 C   0  0  0  0  0  0  0  0  0  0  0  0
    4.3451    0.8933    1.8704 C   0  0  0  0  0  0  0  0  0  0  0  0
   -4.2574    0.0246    1.8501 C   0  0  0  0  0  0  0  0  0  0  0  0
   -1.4281    3.4491    0.4231 C   0  0  0  0  0  0  0  0  0  0  0  0
   -2.4439    2.2571   -1.4167 C   0  0  0  0  0  0  0  0  0  0  0  0
   -2.5979    4.1910    0.5880 C   0  0  0  0  0  0  0  0  0  0  0  0
   -3.6134    2.9992   -1.2518 C   0  0  0  0  0  0  0  0  0  0  0  0
   -3.6904    3.9661   -0.2495 C   0  0  0  0  0  0  0  0  0  0  0  0
    4.5022    3.2213   -0.3673 C   0  0  0  0  0  0  0  0  0  0  0  0
    0.6600   -1.0019   -0.1510 H   0  0  0  0  0  0  0  0  0  0  0  0
   -1.0068   -1.6559   -2.4661 H   0  0  0  0  0  0  0  0  0  0  0  0
    1.6683   -2.9658   -3.4212 H   0  0  0  0  0  0  0  0  0  0  0  0
    1.9379   -4.2272   -2.1849 H   0  0  0  0  0  0  0  0  0  0  0  0
    0.8636   -0.2243   -3.1151 H   0  0  0  0  0  0  0  0  0  0  0  0
    1.8034    0.5481   -1.8561 H   0  0  0  0  0  0  0  0  0  0  0  0
    3.8428   -2.8971   -1.0304 H   0  0  0  0  0  0  0  0  0  0  0  0
   -2.6781   -0.7515   -0.9286 H   0  0  0  0  0  0  0  0  0  0  0  0
   -0.3178   -4.1979    0.1495 H   0  0  0  0  0  0  0  0  0  0  0  0
   -1.8660   -4.6920    1.9765 H   0  0  0  0  0  0  0  0  0  0  0  0
    4.4240    0.1133   -1.4374 H   0  0  0  0  0  0  0  0  0  0  0  0
    2.7130   -2.0849    1.8490 H   0  0  0  0  0  0  0  0  0  0  0  0
    3.4428   -0.3222    3.4089 H   0  0  0  0  0  0  0  0  0  0  0  0
   -3.6920   -4.0872    3.0546 H   0  0  0  0  0  0  0  0  0  0  0  0
   -4.0349   -0.3277    2.8621 H   0  0  0  0  0  0  0  0  0  0  0  0
   -3.4500    0.6710    1.4922 H   0  0  0  0  0  0  0  0  0  0  0  0
   -5.1837    0.6049    1.8768 H   0  0  0  0  0  0  0  0  0  0  0  0
   -0.5872    3.6368    1.0837 H   0  0  0  0  0  0  0  0  0  0  0  0
   -2.4259    1.5169   -2.2100 H   0  0  0  0  0  0  0  0  0  0  0  0
   -2.6453    4.9415    1.3726 H   0  0  0  0  0  0  0  0  0  0  0  0
   -4.4615    2.8199   -1.9071 H   0  0  0  0  0  0  0  0  0  0  0  0
    5.2357    2.5382    2.2513 H   0  0  0  0  0  0  0  0  0  0  0  0
    5.1791    4.0156   -0.6931 H   0  0  0  0  0  0  0  0  0  0  0  0
    3.9039    3.5925    0.4708 H   0  0  0  0  0  0  0  0  0  0  0  0
    3.8486    2.9530   -1.2036 H   0  0  0  0  0  0  0  0  0  0  0  0
   -4.7086    5.3127    0.6483 H   0  0  0  0  0  0  0  0  0  0  0  0
  1 10  1  0  0  0  0
  1 12  1  0  0  0  0
  2 13  1  0  0  0  0
  2 24  1  0  0  0  0
  3 19  1  0  0  0  0
  3 29  1  0  0  0  0
  4 21  1  0  0  0  0
  4 49  1  0  0  0  0
  5 24  2  0  0  0  0
  6 25  1  0  0  0  0
  6 35  1  0  0  0  0
  7 28  1  0  0  0  0
  7 57  1  0  0  0  0
  8 34  1  0  0  0  0
  8 61  1  0  0  0  0
  9 10  1  0  0  0  0
  9 11  1  0  0  0  0
  9 13  1  0  0  0  0
  9 36  1  0  0  0  0
 10 14  1  0  0  0  0
 10 37  1  0  0  0  0
 11 12  1  0  0  0  0
 11 15  2  0  0  0  0
 12 38  1  0  0  0  0
 12 39  1  0  0  0  0
 13 40  1  0  0  0  0
 13 41  1  0  0  0  0
 14 16  2  0  0  0  0
 14 17  1  0  0  0  0
 15 18  1  0  0  0  0
 15 42  1  0  0  0  0
 16 19  1  0  0  0  0
 16 43  1  0  0  0  0
 17 20  2  0  0  0  0
 17 44  1  0  0  0  0
 18 22  2  0  0  0  0
 18 23  1  0  0  0  0
 19 21  2  0  0  0  0
 20 21  1  0  0  0  0
 20 45  1  0  0  0  0
 22 25  1  0  0  0  0
 22 46  1  0  0  0  0
 23 26  2  0  0  0  0
 23 47  1  0  0  0  0
 24 27  1  0  0  0  0
 25 28  2  0  0  0  0
 26 28  1  0  0  0  0
 26 48  1  0  0  0  0
 27 30  2  0  0  0  0
 27 31  1  0  0  0  0
 29 50  1  0  0  0  0
 29 51  1  0  0  0  0
 29 52  1  0  0  0  0
 30 32  1  0  0  0  0
 30 53  1  0  0  0  0
 31 33  2  0  0  0  0
 31 54  1  0  0  0  0
 32 34  2  0  0  0  0
 32 55  1  0  0  0  0
 33 34  1  0  0  0  0
 33 56  1  0  0  0  0
 35 58  1  0  0  0  0
 35 59  1  0  0  0  0
 35 60  1  0  0  0  0
M  END
> <PUBCHEM_COMPOUND_CID>
10073783

> <PUBCHEM_CONFORMER_RMSD>
1

> <PUBCHEM_CONFORMER_DIVERSEORDER>
1
162
85
94
70
12
158
125
163
34
141
114
64
50
146
164
101
87
109
96
124
147
47
56
31
137
148
40
13
74
81
19
130
115
136
55
91
80
79
145
142
126
107
63
149
129
161
155
168
133
53
134
61
88
116
152
39
21
135
14
83
105
65
48
165
22
72
144
93
26
150
97
7
139
119
153
30
54
118
17
3
143
113
82
33
106
42
15
100
90
103
140
52
49
121
166
41
102
110
167
128
46
154
66
86
169
159
27
95
59
160
68
32
112
132
57
84
104
58
43
98
71
138
37
28
51
29
44
16
127
75
156
24
76
38
111
123
69
78
62
6
157
92
23
5
18
35
170
89
60
25
151
77
122
11
4
67
120
8
99
108
131
117
45
36
73
10
20
9
2

> <PUBCHEM_MMFF94_PARTIAL_CHARGES>
49
1 -0.56
10 0.42
11 -0.28
12 0.42
13 0.28
14 -0.14
15 -0.18
16 -0.15
17 -0.15
18 0.03
19 0.08
2 -0.43
20 -0.15
21 0.08
22 -0.15
23 -0.15
24 0.63
25 0.08
26 -0.15
27 0.09
28 0.08
29 0.28
3 -0.36
30 -0.15
31 -0.15
32 -0.15
33 -0.15
34 0.08
35 0.28
4 -0.53
42 0.15
43 0.15
44 0.15
45 0.15
46 0.15
47 0.15
48 0.15
49 0.45
5 -0.57
53 0.15
54 0.15
55 0.15
56 0.15
57 0.45
6 -0.36
61 0.45
7 -0.53
8 -0.53
9 0.14

> <PUBCHEM_EFFECTIVE_ROTOR_COUNT>
8.8

> <PUBCHEM_PHARMACOPHORE_FEATURES>
11
1 1 acceptor
1 3 acceptor
1 4 donor
1 5 acceptor
1 6 acceptor
1 7 donor
1 8 donor
5 1 9 10 11 12 rings
6 14 16 17 19 20 21 rings
6 18 22 23 25 26 28 rings
6 27 30 31 32 33 34 rings

> <PUBCHEM_HEAVY_ATOM_COUNT>
35

> <PUBCHEM_ATOM_DEF_STEREO_COUNT>
2

> <PUBCHEM_ATOM_UDEF_STEREO_COUNT>
0

> <PUBCHEM_BOND_DEF_STEREO_COUNT>
1

> <PUBCHEM_BOND_UDEF_STEREO_COUNT>
0

> <PUBCHEM_ISOTOPIC_ATOM_COUNT>
0

> <PUBCHEM_COMPONENT_COUNT>
1

> <PUBCHEM_CACTVS_TAUTO_COUNT>
24

> <PUBCHEM_CONFORMER_ID>
0099B6B700000001

> <PUBCHEM_MMFF94_ENERGY>
123.2313

> <PUBCHEM_FEATURE_SELFOVERLAP>
55.824

> <PUBCHEM_SHAPE_FINGERPRINT>
11070050 100 17832427488666142697
12422481 6 18339370763362161714
12597179 24 18268985389113604689
12788726 201 18194658549041122590
14020679 6 17904182751656931850
14705955 166 18409729525935759314
14840074 17 18051700133281636160
14950920 106 17823395228514717442
14955137 171 17761507180752016950
15775530 1 18127424366681240814
161222 619 18272093751535324645
23559900 14 18052824650188229404
25222932 49 15002543064389327273
392239 28 17982171124125288105
469060 322 17914874651278984623
5047190 48 18340498857839270733
5171179 24 18056767524602847639
6004065 56 18197767998886368247
653340 110 18336271133168026065
9981440 41 17914021301591395126

> <PUBCHEM_SHAPE_MULTIPOLES>
673.33
9.98
6.66
2.39
4.55
2.15
0.53
7.15
5.46
-7.4
0.02
0.78
-1.51
3.67

> <PUBCHEM_SHAPE_SELFOVERLAP>
1466.305

> <PUBCHEM_SHAPE_VOLUME>
367.7

> <PUBCHEM_COORDINATE_TYPE>
2
5
10

$$$$
