10072906
  -OEChem-03292013303D

 63 67  0     1  0  0  0  0  0999 V2000
   -2.0151    0.0159    1.1716 F   0  0  0  0  0  0  0  0  0  0  0  0
    2.2926    3.2366    0.4642 O   0  0  0  0  0  0  0  0  0  0  0  0
   -0.8115   -2.3093   -1.3096 O   0  0  0  0  0  0  0  0  0  0  0  0
    4.3613    1.0207   -1.2655 O   0  0  0  0  0  0  0  0  0  0  0  0
    5.2115   -1.2373    0.0683 O   0  0  0  0  0  0  0  0  0  0  0  0
   -6.7564   -0.7260    1.9735 O   0  0  0  0  0  0  0  0  0  0  0  0
    4.8251   -3.4220    0.7127 O   0  0  0  0  0  0  0  0  0  0  0  0
    2.3255    1.1046    1.2983 N   0  0  0  0  0  0  0  0  0  0  0  0
    0.9873    0.2082   -0.6479 C   0  0  1  0  0  0  0  0  0  0  0  0
   -0.0949    1.2981   -0.4746 C   0  0  2  0  0  0  0  0  0  0  0  0
   -1.4830    0.8589   -0.9625 C   0  0  1  0  0  0  0  0  0  0  0  0
    2.2435    0.9824   -0.1688 C   0  0  1  0  0  0  0  0  0  0  0  0
   -1.9373   -0.4031   -0.1489 C   0  0  1  0  0  0  0  0  0  0  0  0
    0.5530    2.5391   -1.0924 C   0  0  0  0  0  0  0  0  0  0  0  0
    0.5674   -1.0055    0.2019 C   0  0  0  0  0  0  0  0  0  0  0  0
    2.0327    2.4208   -0.6732 C   0  0  1  0  0  0  0  0  0  0  0  0
   -0.8512   -1.5219   -0.1307 C   0  0  2  0  0  0  0  0  0  0  0  0
   -3.4010   -0.8550   -0.5349 C   0  0  1  0  0  0  0  0  0  0  0  0
   -2.4915    2.0129   -0.8087 C   0  0  0  0  0  0  0  0  0  0  0  0
    1.2093   -0.2043   -2.1321 C   0  0  0  0  0  0  0  0  0  0  0  0
   -3.9119    1.5923   -1.1663 C   0  0  0  0  0  0  0  0  0  0  0  0
   -4.3120    0.3695   -0.3809 C   0  0  0  0  0  0  0  0  0  0  0  0
    3.5576    0.3853   -0.5848 C   0  0  0  0  0  0  0  0  0  0  0  0
   -3.5521   -1.3761   -1.9822 C   0  0  0  0  0  0  0  0  0  0  0  0
   -3.8537   -1.9932    0.3680 C   0  0  0  0  0  0  0  0  0  0  0  0
    2.3792    2.3804    1.5047 C   0  0  0  0  0  0  0  0  0  0  0  0
   -5.3838    0.4054    0.4263 C   0  0  0  0  0  0  0  0  0  0  0  0
    3.8278   -1.0301   -0.1205 C   0  0  0  0  0  0  0  0  0  0  0  0
   -4.9190   -1.9631    1.1746 C   0  0  0  0  0  0  0  0  0  0  0  0
    2.5117    3.0254    2.8345 C   0  0  0  0  0  0  0  0  0  0  0  0
   -5.7677   -0.7599    1.2488 C   0  0  0  0  0  0  0  0  0  0  0  0
    5.5839   -2.4883    0.4906 C   0  0  0  0  0  0  0  0  0  0  0  0
    7.0727   -2.5614    0.6465 C   0  0  0  0  0  0  0  0  0  0  0  0
   -0.2054    1.5160    0.5998 H   0  0  0  0  0  0  0  0  0  0  0  0
   -1.4337    0.6099   -2.0269 H   0  0  0  0  0  0  0  0  0  0  0  0
    0.4607    2.5146   -2.1837 H   0  0  0  0  0  0  0  0  0  0  0  0
    0.0930    3.4629   -0.7274 H   0  0  0  0  0  0  0  0  0  0  0  0
    0.5824   -0.7399    1.2661 H   0  0  0  0  0  0  0  0  0  0  0  0
    1.2728   -1.8312    0.0667 H   0  0  0  0  0  0  0  0  0  0  0  0
    2.6866    2.7390   -1.4905 H   0  0  0  0  0  0  0  0  0  0  0  0
   -1.0923   -2.2110    0.6893 H   0  0  0  0  0  0  0  0  0  0  0  0
   -2.2027    2.8513   -1.4534 H   0  0  0  0  0  0  0  0  0  0  0  0
   -2.4738    2.3889    0.2229 H   0  0  0  0  0  0  0  0  0  0  0  0
    1.6630    0.5943   -2.7287 H   0  0  0  0  0  0  0  0  0  0  0  0
    1.8611   -1.0785   -2.2148 H   0  0  0  0  0  0  0  0  0  0  0  0
    0.2779   -0.4737   -2.6352 H   0  0  0  0  0  0  0  0  0  0  0  0
   -3.9845    1.3845   -2.2400 H   0  0  0  0  0  0  0  0  0  0  0  0
   -4.5895    2.4327   -0.9721 H   0  0  0  0  0  0  0  0  0  0  0  0
   -3.0514   -0.7354   -2.7139 H   0  0  0  0  0  0  0  0  0  0  0  0
   -3.1557   -2.3876   -2.1125 H   0  0  0  0  0  0  0  0  0  0  0  0
   -4.6096   -1.4284   -2.2744 H   0  0  0  0  0  0  0  0  0  0  0  0
   -3.2795   -2.9166    0.3405 H   0  0  0  0  0  0  0  0  0  0  0  0
   -1.3838   -3.0820   -1.1689 H   0  0  0  0  0  0  0  0  0  0  0  0
   -6.0006    1.2932    0.5184 H   0  0  0  0  0  0  0  0  0  0  0  0
    3.4556   -1.7280   -0.8747 H   0  0  0  0  0  0  0  0  0  0  0  0
    3.3295   -1.2065    0.8369 H   0  0  0  0  0  0  0  0  0  0  0  0
   -5.1901   -2.8181    1.7829 H   0  0  0  0  0  0  0  0  0  0  0  0
    2.6550    2.2668    3.6087 H   0  0  0  0  0  0  0  0  0  0  0  0
    1.6044    3.5934    3.0558 H   0  0  0  0  0  0  0  0  0  0  0  0
    3.3739    3.6973    2.8330 H   0  0  0  0  0  0  0  0  0  0  0  0
    7.4023   -1.8361    1.3945 H   0  0  0  0  0  0  0  0  0  0  0  0
    7.5551   -2.3694   -0.3152 H   0  0  0  0  0  0  0  0  0  0  0  0
    7.3537   -3.5631    0.9841 H   0  0  0  0  0  0  0  0  0  0  0  0
  1 13  1  0  0  0  0
  2 16  1  0  0  0  0
  2 26  1  0  0  0  0
  3 17  1  0  0  0  0
  3 53  1  0  0  0  0
  4 23  2  0  0  0  0
  5 28  1  0  0  0  0
  5 32  1  0  0  0  0
  6 31  2  0  0  0  0
  7 32  2  0  0  0  0
  8 12  1  0  0  0  0
  8 26  2  0  0  0  0
  9 10  1  0  0  0  0
  9 12  1  0  0  0  0
  9 15  1  0  0  0  0
  9 20  1  0  0  0  0
 10 11  1  0  0  0  0
 10 14  1  0  0  0  0
 10 34  1  0  0  0  0
 11 13  1  0  0  0  0
 11 19  1  0  0  0  0
 11 35  1  0  0  0  0
 12 16  1  0  0  0  0
 12 23  1  0  0  0  0
 13 17  1  0  0  0  0
 13 18  1  0  0  0  0
 14 16  1  0  0  0  0
 14 36  1  0  0  0  0
 14 37  1  0  0  0  0
 15 17  1  0  0  0  0
 15 38  1  0  0  0  0
 15 39  1  0  0  0  0
 16 40  1  0  0  0  0
 17 41  1  0  0  0  0
 18 22  1  0  0  0  0
 18 24  1  0  0  0  0
 18 25  1  0  0  0  0
 19 21  1  0  0  0  0
 19 42  1  0  0  0  0
 19 43  1  0  0  0  0
 20 44  1  0  0  0  0
 20 45  1  0  0  0  0
 20 46  1  0  0  0  0
 21 22  1  0  0  0  0
 21 47  1  0  0  0  0
 21 48  1  0  0  0  0
 22 27  2  0  0  0  0
 23 28  1  0  0  0  0
 24 49  1  0  0  0  0
 24 50  1  0  0  0  0
 24 51  1  0  0  0  0
 25 29  2  0  0  0  0
 25 52  1  0  0  0  0
 26 30  1  0  0  0  0
 27 31  1  0  0  0  0
 27 54  1  0  0  0  0
 28 55  1  0  0  0  0
 28 56  1  0  0  0  0
 29 31  1  0  0  0  0
 29 57  1  0  0  0  0
 30 58  1  0  0  0  0
 30 59  1  0  0  0  0
 30 60  1  0  0  0  0
 32 33  1  0  0  0  0
 33 61  1  0  0  0  0
 33 62  1  0  0  0  0
 33 63  1  0  0  0  0
M  END
> <PUBCHEM_COMPOUND_CID>
10072906

> <PUBCHEM_CONFORMER_RMSD>
0.8

> <PUBCHEM_CONFORMER_DIVERSEORDER>
1
8
10
2
5
11
7
3
9
4
6

> <PUBCHEM_MMFF94_PARTIAL_CHARGES>
29
1 -0.34
12 0.31
13 0.34
16 0.28
17 0.28
18 0.28
2 -0.43
21 0.14
22 -0.28
23 0.45
25 -0.29
26 0.54
27 -0.14
28 0.34
29 -0.14
3 -0.68
30 0.06
31 0.54
32 0.66
33 0.06
4 -0.57
5 -0.43
52 0.15
53 0.4
54 0.15
57 0.15
6 -0.57
7 -0.57
8 -0.7

> <PUBCHEM_EFFECTIVE_ROTOR_COUNT>
5.2

> <PUBCHEM_PHARMACOPHORE_FEATURES>
10
1 3 acceptor
1 3 donor
1 4 acceptor
1 6 acceptor
1 7 acceptor
5 2 8 12 16 26 rings
5 9 10 12 14 16 rings
6 11 13 18 19 21 22 rings
6 18 22 25 27 29 31 rings
6 9 10 11 13 15 17 rings

> <PUBCHEM_HEAVY_ATOM_COUNT>
33

> <PUBCHEM_ATOM_DEF_STEREO_COUNT>
8

> <PUBCHEM_ATOM_UDEF_STEREO_COUNT>
0

> <PUBCHEM_BOND_DEF_STEREO_COUNT>
0

> <PUBCHEM_BOND_UDEF_STEREO_COUNT>
0

> <PUBCHEM_ISOTOPIC_ATOM_COUNT>
0

> <PUBCHEM_COMPONENT_COUNT>
1

> <PUBCHEM_CACTVS_TAUTO_COUNT>
6

> <PUBCHEM_CONFORMER_ID>
0099B34A00000001

> <PUBCHEM_MMFF94_ENERGY>
105.08

> <PUBCHEM_FEATURE_SELFOVERLAP>
51.515

> <PUBCHEM_SHAPE_FINGERPRINT>
10319926 262 18334003978630272513
10366900 7 12324246074470095789
11135609 12 18040720268385420965
11135926 11 18262794215937996780
11405975 8 18131351955432735137
11456790 92 18270975557432360153
11578080 2 17556867141135550056
12035758 1 18202275880110660094
12166972 35 17386017160463525462
12403259 226 18408037433554710045
12403259 415 18340487867477143037
12422481 6 18335989744386274793
12633257 1 17632300098515913151
13140716 1 18199751504181525239
13150687 139 10809349906646583106
13224815 77 18265610064894996637
13782708 43 18335141990012891823
14341114 176 18187372047150898557
14420673 8 18261957332226825715
14950920 106 18201729495988596379
14955137 171 18270965644010082162
15238133 3 16128391375773461121
15475509 84 18059863822261018728
15927050 60 18050572039227299902
17349148 13 17561368395699817767
17492 89 18262798613425571751
17980427 23 16917056772562351324
18393751 57 17047647112818578401
21033648 29 18341321297328037609
21267235 1 18188216416252139742
21792938 131 17385994049666765787
22122407 14 16987465129877573611
23522609 53 18046665319120223813
23559900 14 18261385671995228373
335352 9 18263357010776651765
3383291 50 18113335297692322562
345986 75 18194390101375889706
34797466 226 15502949626203671519
350125 39 18411708702900770949
3552219 110 18271815588875068368
3886686 26 16678930819515212746
463206 1 18410849954677362622
5104073 3 18411983542037114536
6086070 43 17916281906272815981

> <PUBCHEM_SHAPE_MULTIPOLES>
631.65
13.56
3.49
1.79
1.13
0.36
0.51
-10.63
5.27
4.54
1.02
-0.48
0.73
0.9

> <PUBCHEM_SHAPE_SELFOVERLAP>
1384.41

> <PUBCHEM_SHAPE_VOLUME>
343.5

> <PUBCHEM_COORDINATE_TYPE>
2
5
10

$$$$
