100788
  -OEChem-03292013323D

 29 30  0     1  0  0  0  0  0999 V2000
    1.5904    2.0914    1.1788 S   0  0  0  0  0  0  0  0  0  0  0  0
   -1.5066   -0.3277    1.1888 O   0  0  0  0  0  0  0  0  0  0  0  0
   -3.5251    0.6496   -1.6133 O   0  0  0  0  0  0  0  0  0  0  0  0
   -0.9889    2.3548   -1.1262 O   0  0  0  0  0  0  0  0  0  0  0  0
   -2.8852   -2.7819    1.1088 O   0  0  0  0  0  0  0  0  0  0  0  0
    4.5610   -0.8888   -0.5847 O   0  0  0  0  0  0  0  0  0  0  0  0
    1.0972   -0.2106    0.1109 N   0  0  0  0  0  0  0  0  0  0  0  0
    2.7212   -2.1608   -1.0239 N   0  0  0  0  0  0  0  0  0  0  0  0
   -2.3327    0.3351   -0.9186 C   0  0  1  0  0  0  0  0  0  0  0  0
   -1.7594    1.5629   -0.2438 C   0  0  1  0  0  0  0  0  0  0  0  0
   -2.5924   -0.5655    0.2768 C   0  0  1  0  0  0  0  0  0  0  0  0
   -0.9577    0.9815    0.9200 C   0  0  2  0  0  0  0  0  0  0  0  0
   -2.6508   -2.0408   -0.0759 C   0  0  0  0  0  0  0  0  0  0  0  0
    0.5296    0.8323    0.6834 C   0  0  0  0  0  0  0  0  0  0  0  0
    2.4625   -0.0088    0.0567 C   0  0  0  0  0  0  0  0  0  0  0  0
    2.9174    1.1803    0.5870 C   0  0  0  0  0  0  0  0  0  0  0  0
    3.3195   -1.0030   -0.5249 C   0  0  0  0  0  0  0  0  0  0  0  0
   -1.6117   -0.0927   -1.6251 H   0  0  0  0  0  0  0  0  0  0  0  0
   -2.5706    2.1930    0.1431 H   0  0  0  0  0  0  0  0  0  0  0  0
   -3.5176   -0.2814    0.7953 H   0  0  0  0  0  0  0  0  0  0  0  0
   -1.1247    1.5832    1.8218 H   0  0  0  0  0  0  0  0  0  0  0  0
   -1.6984   -2.3794   -0.4970 H   0  0  0  0  0  0  0  0  0  0  0  0
   -3.4561   -2.2474   -0.7871 H   0  0  0  0  0  0  0  0  0  0  0  0
   -3.8890   -0.1818   -1.9619 H   0  0  0  0  0  0  0  0  0  0  0  0
   -1.5602    2.5979   -1.8746 H   0  0  0  0  0  0  0  0  0  0  0  0
   -2.9162   -3.7208    0.8582 H   0  0  0  0  0  0  0  0  0  0  0  0
    3.9294    1.5539    0.6564 H   0  0  0  0  0  0  0  0  0  0  0  0
    1.7170   -2.3057   -0.9907 H   0  0  0  0  0  0  0  0  0  0  0  0
    3.2797   -2.8993   -1.4385 H   0  0  0  0  0  0  0  0  0  0  0  0
  1 14  1  0  0  0  0
  1 16  1  0  0  0  0
  2 11  1  0  0  0  0
  2 12  1  0  0  0  0
  3  9  1  0  0  0  0
  3 24  1  0  0  0  0
  4 10  1  0  0  0  0
  4 25  1  0  0  0  0
  5 13  1  0  0  0  0
  5 26  1  0  0  0  0
  6 17  2  0  0  0  0
  7 14  2  0  0  0  0
  7 15  1  0  0  0  0
  8 17  1  0  0  0  0
  8 28  1  0  0  0  0
  8 29  1  0  0  0  0
  9 10  1  0  0  0  0
  9 11  1  0  0  0  0
  9 18  1  0  0  0  0
 10 12  1  0  0  0  0
 10 19  1  0  0  0  0
 11 13  1  0  0  0  0
 11 20  1  0  0  0  0
 12 14  1  0  0  0  0
 12 21  1  0  0  0  0
 13 22  1  0  0  0  0
 13 23  1  0  0  0  0
 15 16  2  0  0  0  0
 15 17  1  0  0  0  0
 16 27  1  0  0  0  0
M  END
> <PUBCHEM_COMPOUND_CID>
100788

> <PUBCHEM_CONFORMER_RMSD>
0.6

> <PUBCHEM_CONFORMER_DIVERSEORDER>
1
52
19
55
42
12
53
31
59
24
57
26
33
9
40
3
37
54
16
7
25
58
29
39
11
47
38
32
41
34
44
15
46
51
50
28
18
2
22
56
49
43
23
5
35
14
8
20
30
45
21
27
48
60
6
13
10
17
36
4

> <PUBCHEM_MMFF94_PARTIAL_CHARGES>
23
1 -0.08
10 0.28
11 0.28
12 0.46
13 0.28
14 0.2
15 0.14
16 -0.11
17 0.72
2 -0.56
24 0.4
25 0.4
26 0.4
27 0.15
28 0.37
29 0.37
3 -0.68
4 -0.68
5 -0.68
6 -0.57
7 -0.57
8 -0.8
9 0.28

> <PUBCHEM_EFFECTIVE_ROTOR_COUNT>
4

> <PUBCHEM_PHARMACOPHORE_FEATURES>
12
1 2 acceptor
1 3 acceptor
1 3 donor
1 4 acceptor
1 4 donor
1 5 acceptor
1 5 donor
1 6 acceptor
1 7 acceptor
1 8 donor
5 1 7 14 15 16 rings
5 2 9 10 11 12 rings

> <PUBCHEM_HEAVY_ATOM_COUNT>
17

> <PUBCHEM_ATOM_DEF_STEREO_COUNT>
4

> <PUBCHEM_ATOM_UDEF_STEREO_COUNT>
0

> <PUBCHEM_BOND_DEF_STEREO_COUNT>
0

> <PUBCHEM_BOND_UDEF_STEREO_COUNT>
0

> <PUBCHEM_ISOTOPIC_ATOM_COUNT>
0

> <PUBCHEM_COMPONENT_COUNT>
1

> <PUBCHEM_CACTVS_TAUTO_COUNT>
2

> <PUBCHEM_CONFORMER_ID>
000189B400000001

> <PUBCHEM_MMFF94_ENERGY>
34.3082

> <PUBCHEM_FEATURE_SELFOVERLAP>
60.908

> <PUBCHEM_SHAPE_FINGERPRINT>
11127187 94 18333733498648299135
11137873 295 18200877279296471469
12202030 40 18341612667449786681
12553582 1 18056770836280750882
12932764 1 18040151803504133344
13296908 3 18339641238774510019
13544592 145 18410849971766612469
16945 1 18261944150972077569
18186145 218 18263907879129812029
18522851 268 18260832647747859108
19868273 293 17313658265879802509
200 152 17489296477956675964
20201158 50 18343297037822684518
20645476 183 16298389020169497345
20645477 70 18059848502011706007
20871998 22 18119534494789109027
20871999 31 18040434421300795119
21665056 4 18047758087653774891
221490 88 18341618157014148226
22802520 49 18410849979897845105
23557571 272 18115859866388303617
23559900 14 18336818733050918920
23598288 3 16558208050018820993
2748010 2 18265323083416401315
458136 41 17624420070605377008
4921388 177 18040160612582368267
5262128 65 17895485807516479860
81228 2 18187644743293967569
8809292 202 18411140220908088194
9709674 26 18340756135149304461

> <PUBCHEM_SHAPE_MULTIPOLES>
314.39
6.52
2.56
1.24
2.77
0.67
0.09
3.32
1.32
-0.23
-0.15
-0.71
-0.15
1.84

> <PUBCHEM_SHAPE_SELFOVERLAP>
649.031

> <PUBCHEM_SHAPE_VOLUME>
182.6

> <PUBCHEM_COORDINATE_TYPE>
2
5
10

$$$$
