10074640
  -OEChem-03292013303D

 66 70  0     0  0  0  0  0  0999 V2000
   -6.4139    0.2331    1.8564 S   0  0  0  0  0  0  0  0  0  0  0  0
   -0.6681    0.0712    0.2591 O   0  0  0  0  0  0  0  0  0  0  0  0
    6.3269    0.6060   -0.3181 N   0  0  0  0  0  0  0  0  0  0  0  0
    8.5757   -0.1589    1.3301 N   0  0  0  0  0  0  0  0  0  0  0  0
   -0.3516   -2.0970   -0.5799 N   0  0  0  0  0  0  0  0  0  0  0  0
   -4.9523   -1.7637    0.8808 N   0  0  0  0  0  0  0  0  0  0  0  0
   -4.3405    0.4523    0.3281 N   0  0  0  0  0  0  0  0  0  0  0  0
   -2.8470    3.8942   -1.7074 N   0  0  0  0  0  0  0  0  0  0  0  0
    6.3360   -0.6652    0.4163 C   0  0  0  0  0  0  0  0  0  0  0  0
    7.6961    1.0083   -0.6624 C   0  0  0  0  0  0  0  0  0  0  0  0
    7.2068   -0.5629    1.6733 C   0  0  0  0  0  0  0  0  0  0  0  0
    8.5663    1.1118    0.5949 C   0  0  0  0  0  0  0  0  0  0  0  0
    5.4978    0.5066   -1.5175 C   0  0  0  0  0  0  0  0  0  0  0  0
    9.4036   -0.0581    2.5304 C   0  0  0  0  0  0  0  0  0  0  0  0
    4.0697    0.1639   -1.1855 C   0  0  0  0  0  0  0  0  0  0  0  0
    3.4097   -0.8069   -1.9256 C   0  0  0  0  0  0  0  0  0  0  0  0
    3.4334    0.8250   -0.1442 C   0  0  0  0  0  0  0  0  0  0  0  0
    2.0864   -1.1231   -1.6183 C   0  0  0  0  0  0  0  0  0  0  0  0
    2.1100    0.5087    0.1632 C   0  0  0  0  0  0  0  0  0  0  0  0
    1.4366   -0.4653   -0.5738 C   0  0  0  0  0  0  0  0  0  0  0  0
    0.0574   -0.7968   -0.2525 C   0  0  0  0  0  0  0  0  0  0  0  0
   -1.6269   -2.6895   -0.4093 C   0  0  0  0  0  0  0  0  0  0  0  0
   -3.9069   -2.5257    0.3138 C   0  0  0  0  0  0  0  0  0  0  0  0
   -2.6509   -1.9424    0.1471 C   0  0  0  0  0  0  0  0  0  0  0  0
   -4.1197   -3.8473   -0.0784 C   0  0  0  0  0  0  0  0  0  0  0  0
   -1.8205   -4.0022   -0.8042 C   0  0  0  0  0  0  0  0  0  0  0  0
   -3.0765   -4.5856   -0.6374 C   0  0  0  0  0  0  0  0  0  0  0  0
   -5.4544   -4.4973    0.0898 C   0  0  0  0  0  0  0  0  0  0  0  0
   -5.1183   -0.4077    0.9382 C   0  0  0  0  0  0  0  0  0  0  0  0
   -4.7954    1.7277    0.6008 C   0  0  0  0  0  0  0  0  0  0  0  0
   -5.9080    1.8102    1.4115 C   0  0  0  0  0  0  0  0  0  0  0  0
   -4.1417    2.8880    0.0676 C   0  0  0  0  0  0  0  0  0  0  0  0
   -4.1513    4.0949    0.7567 C   0  0  0  0  0  0  0  0  0  0  0  0
   -3.4821    2.8394   -1.1491 C   0  0  0  0  0  0  0  0  0  0  0  0
   -3.5091    5.2027    0.2146 C   0  0  0  0  0  0  0  0  0  0  0  0
   -2.8771    5.0515   -1.0091 C   0  0  0  0  0  0  0  0  0  0  0  0
    6.7098   -1.4792   -0.2204 H   0  0  0  0  0  0  0  0  0  0  0  0
    5.3357   -0.9564    0.7534 H   0  0  0  0  0  0  0  0  0  0  0  0
    7.6820    1.9892   -1.1528 H   0  0  0  0  0  0  0  0  0  0  0  0
    8.1491    0.2972   -1.3666 H   0  0  0  0  0  0  0  0  0  0  0  0
    7.2234   -1.5446    2.1623 H   0  0  0  0  0  0  0  0  0  0  0  0
    6.7537    0.1464    2.3794 H   0  0  0  0  0  0  0  0  0  0  0  0
    8.2001    1.9295    1.2307 H   0  0  0  0  0  0  0  0  0  0  0  0
    9.5870    1.3696    0.2874 H   0  0  0  0  0  0  0  0  0  0  0  0
    5.4864    1.4686   -2.0466 H   0  0  0  0  0  0  0  0  0  0  0  0
    5.9162   -0.2341   -2.2124 H   0  0  0  0  0  0  0  0  0  0  0  0
   10.4350    0.1994    2.2652 H   0  0  0  0  0  0  0  0  0  0  0  0
    9.0289    0.6971    3.2308 H   0  0  0  0  0  0  0  0  0  0  0  0
    9.4442   -1.0212    3.0512 H   0  0  0  0  0  0  0  0  0  0  0  0
    3.9022   -1.3191   -2.7473 H   0  0  0  0  0  0  0  0  0  0  0  0
    3.9351    1.5960    0.4337 H   0  0  0  0  0  0  0  0  0  0  0  0
    1.5925   -1.8598   -2.2449 H   0  0  0  0  0  0  0  0  0  0  0  0
    1.6229    1.0314    0.9824 H   0  0  0  0  0  0  0  0  0  0  0  0
    0.3419   -2.7371   -0.9570 H   0  0  0  0  0  0  0  0  0  0  0  0
   -2.4987   -0.9444    0.5162 H   0  0  0  0  0  0  0  0  0  0  0  0
   -1.0150   -4.5859   -1.2407 H   0  0  0  0  0  0  0  0  0  0  0  0
   -3.2247   -5.6166   -0.9476 H   0  0  0  0  0  0  0  0  0  0  0  0
   -5.6894   -2.3270    1.2947 H   0  0  0  0  0  0  0  0  0  0  0  0
   -5.6924   -4.6134    1.1523 H   0  0  0  0  0  0  0  0  0  0  0  0
   -5.4792   -5.4951   -0.3621 H   0  0  0  0  0  0  0  0  0  0  0  0
   -6.2377   -3.9075   -0.3980 H   0  0  0  0  0  0  0  0  0  0  0  0
   -6.4543    2.6770    1.7570 H   0  0  0  0  0  0  0  0  0  0  0  0
   -4.6347    4.2053    1.7237 H   0  0  0  0  0  0  0  0  0  0  0  0
   -3.4371    1.9307   -1.7425 H   0  0  0  0  0  0  0  0  0  0  0  0
   -3.4999    6.1535    0.7352 H   0  0  0  0  0  0  0  0  0  0  0  0
   -2.3606    5.8847   -1.4741 H   0  0  0  0  0  0  0  0  0  0  0  0
  1 29  1  0  0  0  0
  1 31  1  0  0  0  0
  2 21  2  0  0  0  0
  3  9  1  0  0  0  0
  3 10  1  0  0  0  0
  3 13  1  0  0  0  0
  4 11  1  0  0  0  0
  4 12  1  0  0  0  0
  4 14  1  0  0  0  0
  5 21  1  0  0  0  0
  5 22  1  0  0  0  0
  5 54  1  0  0  0  0
  6 23  1  0  0  0  0
  6 29  1  0  0  0  0
  6 58  1  0  0  0  0
  7 29  2  0  0  0  0
  7 30  1  0  0  0  0
  8 34  1  0  0  0  0
  8 36  2  0  0  0  0
  9 11  1  0  0  0  0
  9 37  1  0  0  0  0
  9 38  1  0  0  0  0
 10 12  1  0  0  0  0
 10 39  1  0  0  0  0
 10 40  1  0  0  0  0
 11 41  1  0  0  0  0
 11 42  1  0  0  0  0
 12 43  1  0  0  0  0
 12 44  1  0  0  0  0
 13 15  1  0  0  0  0
 13 45  1  0  0  0  0
 13 46  1  0  0  0  0
 14 47  1  0  0  0  0
 14 48  1  0  0  0  0
 14 49  1  0  0  0  0
 15 16  2  0  0  0  0
 15 17  1  0  0  0  0
 16 18  1  0  0  0  0
 16 50  1  0  0  0  0
 17 19  2  0  0  0  0
 17 51  1  0  0  0  0
 18 20  2  0  0  0  0
 18 52  1  0  0  0  0
 19 20  1  0  0  0  0
 19 53  1  0  0  0  0
 20 21  1  0  0  0  0
 22 24  2  0  0  0  0
 22 26  1  0  0  0  0
 23 24  1  0  0  0  0
 23 25  2  0  0  0  0
 24 55  1  0  0  0  0
 25 27  1  0  0  0  0
 25 28  1  0  0  0  0
 26 27  2  0  0  0  0
 26 56  1  0  0  0  0
 27 57  1  0  0  0  0
 28 59  1  0  0  0  0
 28 60  1  0  0  0  0
 28 61  1  0  0  0  0
 30 31  2  0  0  0  0
 30 32  1  0  0  0  0
 31 62  1  0  0  0  0
 32 33  1  0  0  0  0
 32 34  2  0  0  0  0
 33 35  2  0  0  0  0
 33 63  1  0  0  0  0
 34 64  1  0  0  0  0
 35 36  1  0  0  0  0
 35 65  1  0  0  0  0
 36 66  1  0  0  0  0
M  END
> <PUBCHEM_COMPOUND_CID>
10074640

> <PUBCHEM_CONFORMER_RMSD>
1

> <PUBCHEM_CONFORMER_DIVERSEORDER>
4
262
183
105
199
51
19
221
166
135
164
231
163
109
233
267
100
175
228
223
87
235
125
104
154
118
67
215
22
244
222
248
88
185
17
241
145
195
133
138
178
172
98
114
35
182
157
143
240
34
193
16
268
136
9
190
258
162
151
81
264
103
120
203
72
149
170
7
249
255
156
181
238
243
194
140
42
124
197
86
160
137
153
257
142
45
92
85
204
58
211
107
174
242
236
210
269
89
28
115
95
224
173
96
20
101
260
117
202
225
206
97
38
159
91
259
200
12
271
189
119
263
261
31
254
123
230
176
139
23
61
161
265
48
62
270
46
108
30
234
232
18
167
130
171
214
169
229
50
53
3
63
80
272
208
112
245
111
71
43
250
184
127
57
128
113
188
59
66
29
253
8
134
10
26
21
180
52
65
205
252
148
84
55
39
165
76
216
198
274
78
27
74
126
155
41
187
191
217
212
168
70
177
90
73
83
69
201
209
79
150
6
60
179
14
132
226
77
207
32
141
24
218
147
196
237
219
94
37
129
192
2
273
158
116
239
220
56
99
5
213
266
247
82
102
49
246
13
44
1
146
122
256
25
106
15
75
131
68
144
93
121
186
110
47
54
11
40
33
227
251
152
64
36

> <PUBCHEM_MMFF94_PARTIAL_CHARGES>
50
1 -0.08
10 0.27
11 0.27
12 0.27
13 0.41
14 0.27
15 -0.14
16 -0.15
17 -0.15
18 -0.15
19 -0.15
2 -0.57
20 0.09
21 0.54
22 0.12
23 0.1
24 -0.15
25 -0.14
26 -0.15
27 -0.15
28 0.14
29 0.46
3 -0.81
30 0.17
31 -0.11
32 0.05
33 -0.15
34 0.16
35 -0.15
36 0.16
4 -0.81
5 -0.55
50 0.15
51 0.15
52 0.15
53 0.15
54 0.37
55 0.15
56 0.15
57 0.15
58 0.4
6 -0.58
62 0.15
63 0.15
64 0.15
65 0.15
66 0.15
7 -0.57
8 -0.62
9 0.27

> <PUBCHEM_EFFECTIVE_ROTOR_COUNT>
9.2

> <PUBCHEM_PHARMACOPHORE_FEATURES>
12
1 2 acceptor
1 3 cation
1 4 cation
1 5 donor
1 6 donor
1 8 acceptor
3 6 7 29 cation
5 1 7 29 30 31 rings
6 15 16 17 18 19 20 rings
6 22 23 24 25 26 27 rings
6 3 4 9 10 11 12 rings
6 8 32 33 34 35 36 rings

> <PUBCHEM_HEAVY_ATOM_COUNT>
36

> <PUBCHEM_ATOM_DEF_STEREO_COUNT>
0

> <PUBCHEM_ATOM_UDEF_STEREO_COUNT>
0

> <PUBCHEM_BOND_DEF_STEREO_COUNT>
0

> <PUBCHEM_BOND_UDEF_STEREO_COUNT>
0

> <PUBCHEM_ISOTOPIC_ATOM_COUNT>
0

> <PUBCHEM_COMPONENT_COUNT>
1

> <PUBCHEM_CACTVS_TAUTO_COUNT>
4

> <PUBCHEM_CONFORMER_ID>
0099BA1000000004

> <PUBCHEM_MMFF94_ENERGY>
113.26

> <PUBCHEM_FEATURE_SELFOVERLAP>
60.9

> <PUBCHEM_SHAPE_FINGERPRINT>
100830 39 18410293614245437020
10290309 65 18195255412562663293
11093857 5 18050583845581174684
12104220 1 18411414042801515743
13540713 4 18059588940792103262
15021287 119 17312824887811239180
15150948 74 18270127799434286185
15326921 28 18339074870212140121
15328684 2 18259979384671928680
15328829 1 17603863399548960840
15400415 2 17833844772003227725
15419008 145 18409443713574705858
19304671 126 17199679463398790085
20766409 102 18119533387099991372
21033648 29 18269282252931958165
21133410 221 17773855640729219560
21772524 286 18412829063023268016
21792965 184 18113900422101182012
21792965 68 18336818706891251804
21859007 373 18270690770587782750
23522609 53 17896623832601081908
23569943 247 16661464287207472058
249057 25 17822579399597966692
25019877 29 17560261184441262735
3504750 166 18339919432671292894
354706 35 17754432588079689917
397638 26 18271804588893773424
4403749 210 18262792952295107845
44249763 50 18131073740051658334
5080951 261 18201426008898435295
6697151 62 16627451852964603646
6700243 42 17552404159372542879

> <PUBCHEM_SHAPE_MULTIPOLES>
708.96
23.94
6.59
1.67
61.36
2.34
0.33
4.67
14
-18.86
-1.85
2.21
0.39
-0.12

> <PUBCHEM_SHAPE_SELFOVERLAP>
1529.692

> <PUBCHEM_SHAPE_VOLUME>
392.2

> <PUBCHEM_COORDINATE_TYPE>
2
5
10

$$$$
