10072666
  -OEChem-03292013303D

 55 59  0     0  0  0  0  0  0999 V2000
   -9.8201    1.4089    0.8087 S   0  0  0  0  0  0  0  0  0  0  0  0
   10.9009   -0.8353    1.5003 F   0  0  0  0  0  0  0  0  0  0  0  0
    7.3258   -1.1300   -1.7032 O   0  0  0  0  0  0  0  0  0  0  0  0
   -3.0293    0.1107   -0.3129 O   0  0  0  0  0  0  0  0  0  0  0  0
   -4.6984    1.5728    0.2410 O   0  0  0  0  0  0  0  0  0  0  0  0
    1.6989    1.1185   -0.6704 N   0  0  0  0  0  0  0  0  0  0  0  0
    6.0043   -0.7008   -1.6827 N   0  0  0  0  0  0  0  0  0  0  0  0
   -5.1325   -0.6740   -0.2534 N   0  0  0  0  0  0  0  0  0  0  0  0
  -10.6771   -0.9759    0.3290 N   0  0  0  0  0  0  0  0  0  0  0  0
    4.5080    0.4700   -0.1277 C   0  0  0  0  0  0  0  0  0  0  0  0
    4.0914    1.6216   -1.0570 C   0  0  0  0  0  0  0  0  0  0  0  0
    3.3914   -0.5853   -0.0722 C   0  0  0  0  0  0  0  0  0  0  0  0
    2.7180    2.1769   -0.6714 C   0  0  0  0  0  0  0  0  0  0  0  0
    2.0437    0.0506    0.2778 C   0  0  0  0  0  0  0  0  0  0  0  0
    0.3833    1.6758   -0.3564 C   0  0  0  0  0  0  0  0  0  0  0  0
    5.8511   -0.1198   -0.4945 C   0  0  0  0  0  0  0  0  0  0  0  0
   -0.6898    0.5982   -0.4736 C   0  0  0  0  0  0  0  0  0  0  0  0
    7.0176   -0.1430    0.2835 C   0  0  0  0  0  0  0  0  0  0  0  0
    7.9279   -0.7960   -0.5292 C   0  0  0  0  0  0  0  0  0  0  0  0
   -2.0752    1.1543   -0.1735 C   0  0  0  0  0  0  0  0  0  0  0  0
    7.4275    0.2941    1.5516 C   0  0  0  0  0  0  0  0  0  0  0  0
    9.2482   -1.0582   -0.1753 C   0  0  0  0  0  0  0  0  0  0  0  0
    8.7516    0.0469    1.9412 C   0  0  0  0  0  0  0  0  0  0  0  0
    9.6432   -0.6169    1.0919 C   0  0  0  0  0  0  0  0  0  0  0  0
   -4.3414    0.4445   -0.0755 C   0  0  0  0  0  0  0  0  0  0  0  0
   -6.5349   -0.7795   -0.1121 C   0  0  0  0  0  0  0  0  0  0  0  0
   -7.2593    0.3493    0.2478 C   0  0  0  0  0  0  0  0  0  0  0  0
   -7.1411   -2.0008   -0.3372 C   0  0  0  0  0  0  0  0  0  0  0  0
   -8.6510    0.2164    0.3799 C   0  0  0  0  0  0  0  0  0  0  0  0
   -9.3004   -1.0022    0.1603 C   0  0  0  0  0  0  0  0  0  0  0  0
   -8.5270   -2.1261   -0.2039 C   0  0  0  0  0  0  0  0  0  0  0  0
  -11.0553    0.2342    0.6691 C   0  0  0  0  0  0  0  0  0  0  0  0
    4.6003    0.8919    0.8836 H   0  0  0  0  0  0  0  0  0  0  0  0
    4.0626    1.2790   -2.1000 H   0  0  0  0  0  0  0  0  0  0  0  0
    4.8356    2.4265   -1.0139 H   0  0  0  0  0  0  0  0  0  0  0  0
    3.6386   -1.3523    0.6726 H   0  0  0  0  0  0  0  0  0  0  0  0
    3.3080   -1.1032   -1.0373 H   0  0  0  0  0  0  0  0  0  0  0  0
    2.4491    2.9514   -1.4001 H   0  0  0  0  0  0  0  0  0  0  0  0
    2.7796    2.6623    0.3115 H   0  0  0  0  0  0  0  0  0  0  0  0
    2.0681    0.4291    1.3081 H   0  0  0  0  0  0  0  0  0  0  0  0
    1.3318   -0.7777    0.2460 H   0  0  0  0  0  0  0  0  0  0  0  0
    0.1463    2.4785   -1.0661 H   0  0  0  0  0  0  0  0  0  0  0  0
    0.3685    2.1161    0.6491 H   0  0  0  0  0  0  0  0  0  0  0  0
   -0.6840    0.1517   -1.4763 H   0  0  0  0  0  0  0  0  0  0  0  0
   -0.5438   -0.2263    0.2306 H   0  0  0  0  0  0  0  0  0  0  0  0
   -2.1092    1.5463    0.8499 H   0  0  0  0  0  0  0  0  0  0  0  0
   -2.3147    1.9617   -0.8755 H   0  0  0  0  0  0  0  0  0  0  0  0
    6.7477    0.8104    2.2220 H   0  0  0  0  0  0  0  0  0  0  0  0
    9.9315   -1.5730   -0.8394 H   0  0  0  0  0  0  0  0  0  0  0  0
    9.0902    0.3769    2.9199 H   0  0  0  0  0  0  0  0  0  0  0  0
   -4.6478   -1.5280   -0.5186 H   0  0  0  0  0  0  0  0  0  0  0  0
   -6.8353    1.3235    0.4345 H   0  0  0  0  0  0  0  0  0  0  0  0
   -6.5580   -2.8740   -0.6184 H   0  0  0  0  0  0  0  0  0  0  0  0
   -9.0040   -3.0859   -0.3809 H   0  0  0  0  0  0  0  0  0  0  0  0
  -12.0923    0.4808    0.8518 H   0  0  0  0  0  0  0  0  0  0  0  0
  1 29  1  0  0  0  0
  1 32  1  0  0  0  0
  2 24  1  0  0  0  0
  3  7  1  0  0  0  0
  3 19  1  0  0  0  0
  4 20  1  0  0  0  0
  4 25  1  0  0  0  0
  5 25  2  0  0  0  0
  6 13  1  0  0  0  0
  6 14  1  0  0  0  0
  6 15  1  0  0  0  0
  7 16  2  0  0  0  0
  8 25  1  0  0  0  0
  8 26  1  0  0  0  0
  8 51  1  0  0  0  0
  9 30  1  0  0  0  0
  9 32  2  0  0  0  0
 10 11  1  0  0  0  0
 10 12  1  0  0  0  0
 10 16  1  0  0  0  0
 10 33  1  0  0  0  0
 11 13  1  0  0  0  0
 11 34  1  0  0  0  0
 11 35  1  0  0  0  0
 12 14  1  0  0  0  0
 12 36  1  0  0  0  0
 12 37  1  0  0  0  0
 13 38  1  0  0  0  0
 13 39  1  0  0  0  0
 14 40  1  0  0  0  0
 14 41  1  0  0  0  0
 15 17  1  0  0  0  0
 15 42  1  0  0  0  0
 15 43  1  0  0  0  0
 16 18  1  0  0  0  0
 17 20  1  0  0  0  0
 17 44  1  0  0  0  0
 17 45  1  0  0  0  0
 18 19  2  0  0  0  0
 18 21  1  0  0  0  0
 19 22  1  0  0  0  0
 20 46  1  0  0  0  0
 20 47  1  0  0  0  0
 21 23  2  0  0  0  0
 21 48  1  0  0  0  0
 22 24  2  0  0  0  0
 22 49  1  0  0  0  0
 23 24  1  0  0  0  0
 23 50  1  0  0  0  0
 26 27  2  0  0  0  0
 26 28  1  0  0  0  0
 27 29  1  0  0  0  0
 27 52  1  0  0  0  0
 28 31  2  0  0  0  0
 28 53  1  0  0  0  0
 29 30  2  0  0  0  0
 30 31  1  0  0  0  0
 31 54  1  0  0  0  0
 32 55  1  0  0  0  0
M  END
> <PUBCHEM_COMPOUND_CID>
10072666

> <PUBCHEM_CONFORMER_RMSD>
1.4

> <PUBCHEM_CONFORMER_DIVERSEORDER>
1
148
70
137
61
47
4
82
81
97
22
151
139
30
133
73
13
115
90
117
146
154
123
26
69
39
124
5
128
107
27
6
58
131
64
84
41
71
79
116
130
142
138
108
16
85
140
126
87
54
67
10
118
72
19
50
83
125
144
150
141
14
17
21
106
46
119
60
136
92
43
31
121
68
156
56
155
78
24
15
37
93
101
112
66
88
35
129
132
103
110
120
23
12
145
28
51
89
29
153
102
20
76
59
77
74
104
157
2
63
99
80
86
53
113
18
55
152
135
33
134
34
40
36
143
91
105
100
75
127
48
149
114
62
147
98
96
49
45
8
42
65
52
109
94
7
111
95
57
3
11
32
9
44
25
122
38

> <PUBCHEM_MMFF94_PARTIAL_CHARGES>
36
1 -0.08
10 0.18
13 0.27
14 0.27
15 0.27
16 0.11
19 0.14
2 -0.19
20 0.28
21 -0.15
22 -0.15
23 -0.15
24 0.19
25 0.78
26 0.12
27 -0.15
28 -0.15
29 0.04
3 -0.02
30 0.23
31 -0.15
32 0.23
4 -0.43
48 0.15
49 0.15
5 -0.57
50 0.15
51 0.37
52 0.15
53 0.15
54 0.15
55 0.15
6 -0.81
7 -0.41
8 -0.55
9 -0.57

> <PUBCHEM_EFFECTIVE_ROTOR_COUNT>
9.2

> <PUBCHEM_PHARMACOPHORE_FEATURES>
10
1 5 acceptor
1 6 cation
1 7 acceptor
1 8 donor
1 9 acceptor
5 1 9 29 30 32 rings
5 3 7 16 18 19 rings
6 18 19 21 22 23 24 rings
6 26 27 28 29 30 31 rings
6 6 10 11 12 13 14 rings

> <PUBCHEM_HEAVY_ATOM_COUNT>
32

> <PUBCHEM_ATOM_DEF_STEREO_COUNT>
0

> <PUBCHEM_ATOM_UDEF_STEREO_COUNT>
0

> <PUBCHEM_BOND_DEF_STEREO_COUNT>
0

> <PUBCHEM_BOND_UDEF_STEREO_COUNT>
0

> <PUBCHEM_ISOTOPIC_ATOM_COUNT>
0

> <PUBCHEM_COMPONENT_COUNT>
1

> <PUBCHEM_CACTVS_TAUTO_COUNT>
2

> <PUBCHEM_CONFORMER_ID>
0099B25A00000001

> <PUBCHEM_MMFF94_ENERGY>
55.969

> <PUBCHEM_FEATURE_SELFOVERLAP>
50.919

> <PUBCHEM_SHAPE_FINGERPRINT>
10 15 14477243764561744364
10299344 5 18334579062441057837
10625338 86 14548741685917126187
10674148 151 18411980274247172683
11061554 47 8862943849264450230
11409948 35 8646507223974704304
11409948 41 15358244993644635688
11534866 41 18342174441754008114
12089408 11 18410296947641212381
12559415 90 15769498639143422793
12741549 16 18060137643891188825
12758862 56 18336826489693271041
13553643 46 15841554072417078281
13740195 50 17275102825948366897
13947934 56 18343021065258996465
14026016 60 15068887630843479784
14251764 46 18410575084668353673
14344974 52 11458434543497503110
15065858 18 16988847164243011517
15247644 1 17385724690276131202
15461852 350 11458429042467602689
15510794 2 17989488511220068655
155225 1 12247674985843835682
15773216 30 10809603910438767832
1754911 235 11746936499358853171
1818759 1 17821729438027552851
18354007 30 17486224323155041033
19315958 150 16487257664770195478
20105231 36 16732989752303744273
212700 22 18342739633105339007
21792934 111 17917990585527951248
21792961 116 15285357302081150381
21895431 317 18186795855434301610
22164985 6 17240482545731132823
232437 2 17821729433727245585
23399689 5 13254793565354360786
23524908 199 12685083771126497920
23576562 1 12468937458495375079
3178227 256 16773797009012618692
335507 130 17894631448854097207
395649 100 10879983659155664877
3991529 128 13398630588696812986
439807 62 17022903454439131024
44280117 145 10735876163650247849
44389302 135 18341610395903515850
5719381 82 18260829302115976409
5758199 1 11383835960845073749
59584819 99 16056586721645804496
6081469 158 16008746913953089262
6126387 218 17775287154108924113
9663363 56 16774078467421494081
9937071 3 18272657839581245991
9962374 69 18338232768758932964

> <PUBCHEM_SHAPE_MULTIPOLES>
617.59
48.27
1.7
1.19
31.57
0.12
-0.2
-17.02
-14.75
2.01
0.32
-3.36
-0.04
-0.9

> <PUBCHEM_SHAPE_SELFOVERLAP>
1332.456

> <PUBCHEM_SHAPE_VOLUME>
343.1

> <PUBCHEM_COORDINATE_TYPE>
2
5
10

$$$$
