10088846
  -OEChem-03292013303D

 44 44  0     1  0  0  0  0  0999 V2000
   -1.9417   -0.4733    0.1497 O   0  0  0  0  0  0  0  0  0  0  0  0
   -0.7145    1.5864    1.5929 O   0  0  0  0  0  0  0  0  0  0  0  0
   -2.3678    2.3009   -1.5936 O   0  0  0  0  0  0  0  0  0  0  0  0
   -3.5652    4.3163   -0.1468 O   0  0  0  0  0  0  0  0  0  0  0  0
    2.6511    0.6705    1.5888 O   0  0  0  0  0  0  0  0  0  0  0  0
   -4.1640   -1.6651    0.4721 O   0  0  0  0  0  0  0  0  0  0  0  0
   -3.3266   -3.7523    0.0566 O   0  0  0  0  0  0  0  0  0  0  0  0
    1.6873    0.2152   -0.4713 N   0  0  0  0  0  0  0  0  0  0  0  0
    1.4940   -2.7043    0.2809 N   0  0  0  0  0  0  0  0  0  0  0  0
    2.6420   -2.7322   -0.1921 N   0  3  0  0  0  0  0  0  0  0  0  0
    3.6999   -2.7646   -0.6175 N   0  5  0  0  0  0  0  0  0  0  0  0
    0.5212   -0.4777    0.0311 C   0  0  1  0  0  0  0  0  0  0  0  0
   -0.7921    0.2247   -0.3651 C   0  0  2  0  0  0  0  0  0  0  0  0
   -0.8874    1.6488    0.1799 C   0  0  1  0  0  0  0  0  0  0  0  0
    0.5102   -1.9274   -0.4851 C   0  0  2  0  0  0  0  0  0  0  0  0
   -2.2154    2.3315   -0.1698 C   0  0  1  0  0  0  0  0  0  0  0  0
   -0.8387   -2.5584   -0.3320 C   0  0  0  0  0  0  0  0  0  0  0  0
   -1.9232   -1.8353   -0.0202 C   0  0  0  0  0  0  0  0  0  0  0  0
   -2.3037    3.7937    0.2613 C   0  0  0  0  0  0  0  0  0  0  0  0
    2.6663    0.7375    0.3615 C   0  0  0  0  0  0  0  0  0  0  0  0
    3.7887    1.4230   -0.4157 C   0  0  0  0  0  0  0  0  0  0  0  0
   -3.1888   -2.5466    0.1655 C   0  0  0  0  0  0  0  0  0  0  0  0
    3.4460    2.8932   -0.6481 C   0  0  0  0  0  0  0  0  0  0  0  0
    5.1222    1.2956    0.3172 C   0  0  0  0  0  0  0  0  0  0  0  0
    0.5774   -0.5185    1.1277 H   0  0  0  0  0  0  0  0  0  0  0  0
   -0.8681    0.2459   -1.4608 H   0  0  0  0  0  0  0  0  0  0  0  0
   -0.0635    2.2459   -0.2279 H   0  0  0  0  0  0  0  0  0  0  0  0
    0.7573   -1.9541   -1.5567 H   0  0  0  0  0  0  0  0  0  0  0  0
   -3.0697    1.8008    0.2683 H   0  0  0  0  0  0  0  0  0  0  0  0
    1.7754    0.3278   -1.4771 H   0  0  0  0  0  0  0  0  0  0  0  0
   -0.8967   -3.6342   -0.4749 H   0  0  0  0  0  0  0  0  0  0  0  0
   -2.2169    3.8936    1.3473 H   0  0  0  0  0  0  0  0  0  0  0  0
   -1.5248    4.3913   -0.2235 H   0  0  0  0  0  0  0  0  0  0  0  0
   -1.4508    1.0668    1.9585 H   0  0  0  0  0  0  0  0  0  0  0  0
    3.8942    0.9279   -1.3893 H   0  0  0  0  0  0  0  0  0  0  0  0
   -2.6716    1.4103   -1.8378 H   0  0  0  0  0  0  0  0  0  0  0  0
    4.2323    3.3931   -1.2229 H   0  0  0  0  0  0  0  0  0  0  0  0
    2.5065    2.9909   -1.2027 H   0  0  0  0  0  0  0  0  0  0  0  0
    3.3223    3.4260    0.3014 H   0  0  0  0  0  0  0  0  0  0  0  0
    5.3614    0.2431    0.5046 H   0  0  0  0  0  0  0  0  0  0  0  0
    5.0986    1.8066    1.2860 H   0  0  0  0  0  0  0  0  0  0  0  0
    5.9354    1.7283   -0.2750 H   0  0  0  0  0  0  0  0  0  0  0  0
   -3.5933    5.2456    0.1380 H   0  0  0  0  0  0  0  0  0  0  0  0
   -5.0307   -2.1053    0.6044 H   0  0  0  0  0  0  0  0  0  0  0  0
  1 13  1  0  0  0  0
  1 18  1  0  0  0  0
  2 14  1  0  0  0  0
  2 34  1  0  0  0  0
  3 16  1  0  0  0  0
  3 36  1  0  0  0  0
  4 19  1  0  0  0  0
  4 43  1  0  0  0  0
  5 20  2  0  0  0  0
  6 22  1  0  0  0  0
  6 44  1  0  0  0  0
  7 22  2  0  0  0  0
  8 12  1  0  0  0  0
  8 20  1  0  0  0  0
  8 30  1  0  0  0  0
  9 10  2  0  0  0  0
  9 15  1  0  0  0  0
 10 11  2  0  0  0  0
 12 13  1  0  0  0  0
 12 15  1  0  0  0  0
 12 25  1  0  0  0  0
 13 14  1  0  0  0  0
 13 26  1  0  0  0  0
 14 16  1  0  0  0  0
 14 27  1  0  0  0  0
 15 17  1  0  0  0  0
 15 28  1  0  0  0  0
 16 19  1  0  0  0  0
 16 29  1  0  0  0  0
 17 18  2  0  0  0  0
 17 31  1  0  0  0  0
 18 22  1  0  0  0  0
 19 32  1  0  0  0  0
 19 33  1  0  0  0  0
 20 21  1  0  0  0  0
 21 23  1  0  0  0  0
 21 24  1  0  0  0  0
 21 35  1  0  0  0  0
 23 37  1  0  0  0  0
 23 38  1  0  0  0  0
 23 39  1  0  0  0  0
 24 40  1  0  0  0  0
 24 41  1  0  0  0  0
 24 42  1  0  0  0  0
M  CHG  2  10   1  11  -1
M  END
> <PUBCHEM_COMPOUND_CID>
10088846

> <PUBCHEM_CONFORMER_RMSD>
1

> <PUBCHEM_CONFORMER_DIVERSEORDER>
1
17
18
37
28
35
15
22
26
21
11
19
7
34
30
31
36
32
13
14
29
25
5
2
8
16
3
24
23
9
27
10
4
6
33
20
12

> <PUBCHEM_MMFF94_PARTIAL_CHARGES>
28
1 -0.36
10 0.69
11 -0.37
12 0.3
13 0.28
14 0.28
15 0.38
16 0.28
17 -0.29
18 0.09
19 0.28
2 -0.68
20 0.57
21 0.06
22 0.71
3 -0.68
30 0.37
31 0.15
34 0.4
36 0.4
4 -0.68
43 0.4
44 0.5
5 -0.57
6 -0.65
7 -0.57
8 -0.73
9 -0.56

> <PUBCHEM_EFFECTIVE_ROTOR_COUNT>
8.8

> <PUBCHEM_PHARMACOPHORE_FEATURES>
14
1 1 acceptor
1 2 acceptor
1 2 donor
1 3 acceptor
1 3 donor
1 4 acceptor
1 4 donor
1 5 acceptor
1 6 acceptor
1 7 acceptor
1 8 donor
3 21 23 24 hydrophobe
3 6 7 22 anion
6 1 12 13 15 17 18 rings

> <PUBCHEM_HEAVY_ATOM_COUNT>
24

> <PUBCHEM_ATOM_DEF_STEREO_COUNT>
5

> <PUBCHEM_ATOM_UDEF_STEREO_COUNT>
0

> <PUBCHEM_BOND_DEF_STEREO_COUNT>
0

> <PUBCHEM_BOND_UDEF_STEREO_COUNT>
0

> <PUBCHEM_ISOTOPIC_ATOM_COUNT>
0

> <PUBCHEM_COMPONENT_COUNT>
1

> <PUBCHEM_CACTVS_TAUTO_COUNT>
2

> <PUBCHEM_CONFORMER_ID>
0099F18E00000001

> <PUBCHEM_MMFF94_ENERGY>
46.0574

> <PUBCHEM_FEATURE_SELFOVERLAP>
71.134

> <PUBCHEM_SHAPE_FINGERPRINT>
1100329 8 18050567335747370250
11680986 33 18269826520035851282
12553582 1 18050835916863058090
12788726 201 18189328138149906040
13140716 1 17905044003925297298
13149001 5 17910691872850201406
14178342 30 18337378384411486568
14223421 5 18411700989092086494
14251751 93 18409165532948687272
14790565 3 17978522154091230545
14955137 171 17759821616104007867
19591789 44 17979073013463280591
20028762 73 17121427641546258278
20510252 161 18269558410939330568
20600515 1 17695082371270295620
20642791 105 18337942476573520792
20905425 154 18342745138941909558
21029758 27 17903922497706740239
21285901 2 17771370800463608220
21330990 113 18268429220960698529
21421861 104 18260545610662406747
2255824 54 17619062833437872205
22907989 373 18336536235239476597
23402539 116 18055915647883084934
23558518 356 18333453123183437170
23559900 14 18412260623578551862
23566358 2 18272379642049437958
266924 87 18411132567191931934
2748010 2 18341045220618419454
283562 15 18264770029109847488
3178227 256 17691138032784201785
3380486 145 18337121176163717083
350125 39 18339090284786273406
469060 322 18266753565071299745
474 4 17907852903820898193
59554788 170 18341345482041026646
59755656 215 18411984680609584318
7164475 11 18337110185041726092
81228 2 18187653513553576969

> <PUBCHEM_SHAPE_MULTIPOLES>
432.9
7.6
5.49
0.93
5.12
2.55
0.11
0.2
0.17
-4.46
-0.59
0.16
0.39
0.42

> <PUBCHEM_SHAPE_SELFOVERLAP>
877.537

> <PUBCHEM_SHAPE_VOLUME>
248.9

> <PUBCHEM_COORDINATE_TYPE>
2
5
10

$$$$
