10087738
  -OEChem-03292013303D

 38 41  0     1  0  0  0  0  0999 V2000
    1.6078   -1.9959   -0.2671 O   0  0  0  0  0  0  0  0  0  0  0  0
   -1.9899   -2.0669   -0.0991 O   0  0  0  0  0  0  0  0  0  0  0  0
    0.7122    2.3103   -0.1796 O   0  0  0  0  0  0  0  0  0  0  0  0
    0.3212   -3.9117   -0.2789 O   0  0  0  0  0  0  0  0  0  0  0  0
   -4.6851    1.0984    0.0767 N   0  0  0  0  0  0  0  0  0  0  0  0
    4.0221    0.6842    0.0097 N   0  0  0  0  0  0  0  0  0  0  0  0
    5.8169    1.5626   -1.1645 N   0  0  0  0  0  0  0  0  0  0  0  0
    6.2912    0.0404    0.4643 N   0  0  0  0  0  0  0  0  0  0  0  0
    1.3493   -0.5778   -0.1262 C   0  0  1  0  0  0  0  0  0  0  0  0
   -0.1249   -0.5201   -0.0862 C   0  0  0  0  0  0  0  0  0  0  0  0
   -1.0225    0.6267   -0.0518 C   0  0  0  0  0  0  0  0  0  0  0  0
    2.0416   -0.1594    1.1680 C   0  0  0  0  0  0  0  0  0  0  0  0
   -0.6597   -1.7393   -0.1229 C   0  0  0  0  0  0  0  0  0  0  0  0
   -2.4060    0.3355   -0.0137 C   0  0  0  0  0  0  0  0  0  0  0  0
   -2.8655   -0.9960   -0.0307 C   0  0  0  0  0  0  0  0  0  0  0  0
    0.4342   -2.7004   -0.2254 C   0  0  0  0  0  0  0  0  0  0  0  0
   -0.5949    1.9517   -0.0652 C   0  0  0  0  0  0  0  0  0  0  0  0
    3.5587   -0.2209    1.0626 C   0  0  0  0  0  0  0  0  0  0  0  0
   -3.3645    1.3645    0.0350 C   0  0  0  0  0  0  0  0  0  0  0  0
   -1.5379    2.9749   -0.0198 C   0  0  0  0  0  0  0  0  0  0  0  0
   -2.9033    2.6774    0.0335 C   0  0  0  0  0  0  0  0  0  0  0  0
   -4.2213   -1.2771    0.0098 C   0  0  0  0  0  0  0  0  0  0  0  0
   -5.0814   -0.1979    0.0647 C   0  0  0  0  0  0  0  0  0  0  0  0
    5.3017    0.7368   -0.1933 C   0  0  0  0  0  0  0  0  0  0  0  0
    1.7460   -0.0715   -1.0119 H   0  0  0  0  0  0  0  0  0  0  0  0
    1.7367   -0.8234    1.9882 H   0  0  0  0  0  0  0  0  0  0  0  0
    1.7524    0.8531    1.4648 H   0  0  0  0  0  0  0  0  0  0  0  0
    3.9841    0.0755    2.0293 H   0  0  0  0  0  0  0  0  0  0  0  0
    3.8728   -1.2503    0.8522 H   0  0  0  0  0  0  0  0  0  0  0  0
   -1.2307    4.0178   -0.0351 H   0  0  0  0  0  0  0  0  0  0  0  0
   -3.6151    3.5002    0.0668 H   0  0  0  0  0  0  0  0  0  0  0  0
   -4.5964   -2.2936   -0.0023 H   0  0  0  0  0  0  0  0  0  0  0  0
   -6.1559   -0.3472    0.0994 H   0  0  0  0  0  0  0  0  0  0  0  0
    0.7870    3.2798   -0.1773 H   0  0  0  0  0  0  0  0  0  0  0  0
    5.2105    2.1412   -1.7356 H   0  0  0  0  0  0  0  0  0  0  0  0
    6.8144    1.6183   -1.3390 H   0  0  0  0  0  0  0  0  0  0  0  0
    7.2677    0.1627    0.2184 H   0  0  0  0  0  0  0  0  0  0  0  0
    6.0876   -0.6133    1.2119 H   0  0  0  0  0  0  0  0  0  0  0  0
  1  9  1  0  0  0  0
  1 16  1  0  0  0  0
  2 13  1  0  0  0  0
  2 15  1  0  0  0  0
  3 17  1  0  0  0  0
  3 34  1  0  0  0  0
  4 16  2  0  0  0  0
  5 19  2  0  0  0  0
  5 23  1  0  0  0  0
  6 18  1  0  0  0  0
  6 24  2  0  0  0  0
  7 24  1  0  0  0  0
  7 35  1  0  0  0  0
  7 36  1  0  0  0  0
  8 24  1  0  0  0  0
  8 37  1  0  0  0  0
  8 38  1  0  0  0  0
  9 10  1  0  0  0  0
  9 12  1  0  0  0  0
  9 25  1  0  0  0  0
 10 11  1  0  0  0  0
 10 13  2  0  0  0  0
 11 14  1  0  0  0  0
 11 17  2  0  0  0  0
 12 18  1  0  0  0  0
 12 26  1  0  0  0  0
 12 27  1  0  0  0  0
 13 16  1  0  0  0  0
 14 15  2  0  0  0  0
 14 19  1  0  0  0  0
 15 22  1  0  0  0  0
 17 20  1  0  0  0  0
 18 28  1  0  0  0  0
 18 29  1  0  0  0  0
 19 21  1  0  0  0  0
 20 21  2  0  0  0  0
 20 30  1  0  0  0  0
 21 31  1  0  0  0  0
 22 23  2  0  0  0  0
 22 32  1  0  0  0  0
 23 33  1  0  0  0  0
M  END
> <PUBCHEM_COMPOUND_CID>
10087738

> <PUBCHEM_CONFORMER_RMSD>
0.6

> <PUBCHEM_CONFORMER_DIVERSEORDER>
2
17
8
13
21
16
1
10
22
23
11
14
3
4
7
19
18
20
9
6
15
12
5

> <PUBCHEM_MMFF94_PARTIAL_CHARGES>
31
1 -0.43
10 -0.17
11 0.03
13 0.09
15 0.08
16 0.71
17 0.08
18 0.25
19 0.31
2 -0.16
20 -0.15
21 -0.15
22 -0.15
23 0.16
24 0.55
3 -0.53
30 0.15
31 0.15
32 0.15
33 0.15
34 0.45
35 0.4
36 0.4
37 0.4
38 0.4
4 -0.57
5 -0.62
6 -0.7
7 -0.85
8 -0.85
9 0.42

> <PUBCHEM_EFFECTIVE_ROTOR_COUNT>
3.6

> <PUBCHEM_PHARMACOPHORE_FEATURES>
11
1 2 acceptor
1 3 donor
1 4 acceptor
1 5 acceptor
1 7 donor
1 8 donor
4 6 7 8 24 cation
5 1 9 10 13 16 rings
6 11 14 17 19 20 21 rings
6 2 10 11 13 14 15 rings
6 5 14 15 19 22 23 rings

> <PUBCHEM_HEAVY_ATOM_COUNT>
24

> <PUBCHEM_ATOM_DEF_STEREO_COUNT>
0

> <PUBCHEM_ATOM_UDEF_STEREO_COUNT>
1

> <PUBCHEM_BOND_DEF_STEREO_COUNT>
0

> <PUBCHEM_BOND_UDEF_STEREO_COUNT>
0

> <PUBCHEM_ISOTOPIC_ATOM_COUNT>
0

> <PUBCHEM_COMPONENT_COUNT>
1

> <PUBCHEM_CACTVS_TAUTO_COUNT>
10

> <PUBCHEM_CONFORMER_ID>
0099ED3A00000002

> <PUBCHEM_MMFF94_ENERGY>
70.6295

> <PUBCHEM_FEATURE_SELFOVERLAP>
56.057

> <PUBCHEM_SHAPE_FINGERPRINT>
10366900 7 18130492073057983369
10411042 1 17762617691158684567
10498660 4 18338235964235751812
10670039 82 18335990792279265236
10730089 173 18409732876690686052
10759866 29 18260543386375268610
10906281 52 18335432240208752849
10967382 1 18411418393640231199
1100329 8 18265897054039652137
12011746 2 18413100676126416341
12107183 9 17540521432394777744
12236239 1 17894347800360151188
12390115 104 18129674001593843313
12596602 18 17312821601960700232
12838862 33 18339342120758378165
13140716 1 18267025149397554323
13911987 19 18335405894615511823
14223421 5 18123748660817811899
14341114 328 18040429975724736144
14787075 74 18113897190903517907
14790565 3 18410862091637522160
14840074 17 17676497167797758604
15042514 8 18265897054045719499
15183329 4 18338811035699751470
15196674 1 18339078185731304443
15575132 122 18114181925855923740
15685185 35 16881905549738882660
15927050 60 17547856716497662277
16087824 20 18413385455130762543
16945 1 18410859837491192199
17980427 23 17822018600906371213
19591789 44 18267021850409126417
19784866 170 18411138017816614771
20028762 73 17914051156295036623
20510252 161 18343019960834573433
20642791 178 18261125105331102629
21267235 1 18338239375056716371
2334 1 18050285070828674591
23366157 5 17972882449625246418
23402539 116 18343014540643939622
23559900 14 17909259187655923906
2748010 2 18051130294606925503
3298306 158 18060140917119926622
335352 9 18410854408858239245
34934 24 18338791218324923991
350125 39 18410293639794012993
3729539 64 16485872228574315694
474 4 17313392274856435900
474229 33 18410009931396722498
484989 97 17975405030764973831
5104073 3 18192156997338169955
5486654 2 18411983584859770927
59755656 520 16950279637899331538
9709674 26 17909826540441466647
9981440 41 18335141964195583506

> <PUBCHEM_SHAPE_MULTIPOLES>
450.51
10.54
3.33
0.77
12.9
0.95
-0.07
-3.75
0.24
-1.23
0.46
0.62
-0.05
-0.46

> <PUBCHEM_SHAPE_SELFOVERLAP>
1014.646

> <PUBCHEM_SHAPE_VOLUME>
235.2

> <PUBCHEM_COORDINATE_TYPE>
2
5
10

$$$$
