100830
  -OEChem-03292013323D

 57 58  0     0  0  0  0  0  0999 V2000
   -0.8931   -0.4497    2.7281 O   0  0  0  0  0  0  0  0  0  0  0  0
    1.9116    0.8667   -2.4860 O   0  0  0  0  0  0  0  0  0  0  0  0
   -5.8849    0.7856   -1.9080 O   0  5  0  0  0  0  0  0  0  0  0  0
   -4.6599    2.4159   -2.7204 O   0  0  0  0  0  0  0  0  0  0  0  0
   -2.5786   -3.5083    0.4526 O   0  5  0  0  0  0  0  0  0  0  0  0
   -0.9380   -4.2874    1.6858 O   0  0  0  0  0  0  0  0  0  0  0  0
    4.3553    0.7366    0.2634 N   0  0  0  0  0  0  0  0  0  0  0  0
   -0.2529    1.7763    2.6009 N   0  0  0  0  0  0  0  0  0  0  0  0
    3.6258   -0.6349   -2.0521 N   0  0  0  0  0  0  0  0  0  0  0  0
   -4.8615    1.5108   -1.8751 N   0  3  0  0  0  0  0  0  0  0  0  0
   -1.3658   -3.5397    0.7733 N   0  3  0  0  0  0  0  0  0  0  0  0
    2.5908    1.1824    1.9056 C   0  0  0  0  0  0  0  0  0  0  0  0
    3.9534    1.6090    1.3605 C   0  0  0  0  0  0  0  0  0  0  0  0
    2.1462    2.0933    3.0547 C   0  0  0  0  0  0  0  0  0  0  0  0
    5.3658    1.3775   -0.5660 C   0  0  0  0  0  0  0  0  0  0  0  0
    5.7999    0.4845   -1.7320 C   0  0  0  0  0  0  0  0  0  0  0  0
    0.7739    1.7175    3.6040 C   0  0  0  0  0  0  0  0  0  0  0  0
    4.6736    0.1108   -2.6937 C   0  0  0  0  0  0  0  0  0  0  0  0
   -1.0143    0.6706    2.2394 C   0  0  0  0  0  0  0  0  0  0  0  0
    2.3102   -0.1887   -2.0002 C   0  0  0  0  0  0  0  0  0  0  0  0
   -2.0183    0.8896    1.1665 C   0  0  0  0  0  0  0  0  0  0  0  0
    1.3509   -1.0629   -1.2773 C   0  0  0  0  0  0  0  0  0  0  0  0
   -3.1635    0.0951    1.1093 C   0  0  0  0  0  0  0  0  0  0  0  0
   -1.8153    1.8899    0.2157 C   0  0  0  0  0  0  0  0  0  0  0  0
   -0.0021   -1.0444   -1.6158 C   0  0  0  0  0  0  0  0  0  0  0  0
    1.8038   -1.9019   -0.2592 C   0  0  0  0  0  0  0  0  0  0  0  0
   -4.1054    0.3008    0.1013 C   0  0  0  0  0  0  0  0  0  0  0  0
   -2.7571    2.0955   -0.7923 C   0  0  0  0  0  0  0  0  0  0  0  0
   -3.9021    1.3009   -0.8495 C   0  0  0  0  0  0  0  0  0  0  0  0
   -0.9024   -1.8649   -0.9361 C   0  0  0  0  0  0  0  0  0  0  0  0
    0.9036   -2.7224    0.4205 C   0  0  0  0  0  0  0  0  0  0  0  0
   -0.4495   -2.7039    0.0821 C   0  0  0  0  0  0  0  0  0  0  0  0
    2.6369    0.1454    2.2605 H   0  0  0  0  0  0  0  0  0  0  0  0
    1.8548    1.2158    1.0934 H   0  0  0  0  0  0  0  0  0  0  0  0
    3.8697    2.6479    1.0171 H   0  0  0  0  0  0  0  0  0  0  0  0
    4.7097    1.5848    2.1538 H   0  0  0  0  0  0  0  0  0  0  0  0
    2.8810    2.0503    3.8673 H   0  0  0  0  0  0  0  0  0  0  0  0
    2.1191    3.1315    2.7002 H   0  0  0  0  0  0  0  0  0  0  0  0
    6.2499    1.6185    0.0368 H   0  0  0  0  0  0  0  0  0  0  0  0
    4.9776    2.3175   -0.9773 H   0  0  0  0  0  0  0  0  0  0  0  0
    6.2531   -0.4321   -1.3321 H   0  0  0  0  0  0  0  0  0  0  0  0
    6.5855    1.0016   -2.2961 H   0  0  0  0  0  0  0  0  0  0  0  0
    4.6985   -0.1508    0.6283 H   0  0  0  0  0  0  0  0  0  0  0  0
    0.8111    0.7198    4.0543 H   0  0  0  0  0  0  0  0  0  0  0  0
    0.4905    2.4233    4.3921 H   0  0  0  0  0  0  0  0  0  0  0  0
    4.2686    1.0127   -3.1646 H   0  0  0  0  0  0  0  0  0  0  0  0
    5.0727   -0.5255   -3.4910 H   0  0  0  0  0  0  0  0  0  0  0  0
   -0.4566    2.6900    2.2099 H   0  0  0  0  0  0  0  0  0  0  0  0
    3.8717   -1.5519   -1.6946 H   0  0  0  0  0  0  0  0  0  0  0  0
   -3.3403   -0.6864    1.8436 H   0  0  0  0  0  0  0  0  0  0  0  0
   -0.9223    2.5079    0.2066 H   0  0  0  0  0  0  0  0  0  0  0  0
   -0.3729   -0.4004   -2.4090 H   0  0  0  0  0  0  0  0  0  0  0  0
    2.8431   -1.9281    0.0538 H   0  0  0  0  0  0  0  0  0  0  0  0
   -4.9853   -0.3372    0.0880 H   0  0  0  0  0  0  0  0  0  0  0  0
   -2.5625    2.8787   -1.5206 H   0  0  0  0  0  0  0  0  0  0  0  0
   -1.9477   -1.8292   -1.2317 H   0  0  0  0  0  0  0  0  0  0  0  0
    1.2906   -3.3583    1.2127 H   0  0  0  0  0  0  0  0  0  0  0  0
  1 19  2  0  0  0  0
  2 20  2  0  0  0  0
  3 10  1  0  0  0  0
  4 10  2  0  0  0  0
  5 11  1  0  0  0  0
  6 11  2  0  0  0  0
  7 13  1  0  0  0  0
  7 15  1  0  0  0  0
  7 43  1  0  0  0  0
  8 17  1  0  0  0  0
  8 19  1  0  0  0  0
  8 48  1  0  0  0  0
  9 18  1  0  0  0  0
  9 20  1  0  0  0  0
  9 49  1  0  0  0  0
 10 29  1  0  0  0  0
 11 32  1  0  0  0  0
 12 13  1  0  0  0  0
 12 14  1  0  0  0  0
 12 33  1  0  0  0  0
 12 34  1  0  0  0  0
 13 35  1  0  0  0  0
 13 36  1  0  0  0  0
 14 17  1  0  0  0  0
 14 37  1  0  0  0  0
 14 38  1  0  0  0  0
 15 16  1  0  0  0  0
 15 39  1  0  0  0  0
 15 40  1  0  0  0  0
 16 18  1  0  0  0  0
 16 41  1  0  0  0  0
 16 42  1  0  0  0  0
 17 44  1  0  0  0  0
 17 45  1  0  0  0  0
 18 46  1  0  0  0  0
 18 47  1  0  0  0  0
 19 21  1  0  0  0  0
 20 22  1  0  0  0  0
 21 23  2  0  0  0  0
 21 24  1  0  0  0  0
 22 25  2  0  0  0  0
 22 26  1  0  0  0  0
 23 27  1  0  0  0  0
 23 50  1  0  0  0  0
 24 28  2  0  0  0  0
 24 51  1  0  0  0  0
 25 30  1  0  0  0  0
 25 52  1  0  0  0  0
 26 31  2  0  0  0  0
 26 53  1  0  0  0  0
 27 29  2  0  0  0  0
 27 54  1  0  0  0  0
 28 29  1  0  0  0  0
 28 55  1  0  0  0  0
 30 32  2  0  0  0  0
 30 56  1  0  0  0  0
 31 32  1  0  0  0  0
 31 57  1  0  0  0  0
M  CHG  4   3  -1   5  -1  10   1  11   1
M  END
> <PUBCHEM_COMPOUND_CID>
100830

> <PUBCHEM_CONFORMER_RMSD>
1.2

> <PUBCHEM_CONFORMER_DIVERSEORDER>
7
66
144
29
30
4
80
6
155
58
152
5
8
65
138
161
126
24
2
111
70
31
170
51
38
62
102
169
82
21
11
28
123
61
86
39
158
93
32
1
114
54
95
53
67
87
90
122
150
118
151
103
69
89
46
33
124
13
119
22
120
36
43
133
100
50
47
94
78
108
16
113
52
55
19
109
127
76
147
159
56
140
60
59
37
134
99
112
146
160
18
91
40
149
85
74
153
44
98
57
162
131
63
107
10
117
145
41
88
104
110
141
83
72
25
71
77
164
148
136
128
81
121
75
142
137
27
17
35
64
42
12
157
23
143
45
20
92
106
139
156
168
34
84
166
3
154
165
129
79
68
48
167
130
101
115
49
135
9
96
125
15
132
26
97
14
116
105
73
163

> <PUBCHEM_MMFF94_PARTIAL_CHARGES>
40
1 -0.57
10 0.91
11 0.91
13 0.27
15 0.27
17 0.3
18 0.3
19 0.54
2 -0.57
20 0.54
21 0.09
22 0.09
23 -0.15
24 -0.15
25 -0.15
26 -0.15
27 -0.15
28 -0.15
29 0.13
3 -0.52
30 -0.15
31 -0.15
32 0.13
4 -0.52
43 0.36
48 0.37
49 0.37
5 -0.52
50 0.15
51 0.15
52 0.15
53 0.15
54 0.15
55 0.15
56 0.15
57 0.15
6 -0.52
7 -0.9
8 -0.73
9 -0.73

> <PUBCHEM_EFFECTIVE_ROTOR_COUNT>
15

> <PUBCHEM_PHARMACOPHORE_FEATURES>
14
1 1 acceptor
1 2 acceptor
1 3 acceptor
1 3 anion
1 4 acceptor
1 5 acceptor
1 5 anion
1 6 acceptor
1 7 cation
1 7 donor
1 8 donor
1 9 donor
6 21 23 24 27 28 29 rings
6 22 25 26 30 31 32 rings

> <PUBCHEM_HEAVY_ATOM_COUNT>
32

> <PUBCHEM_ATOM_DEF_STEREO_COUNT>
0

> <PUBCHEM_ATOM_UDEF_STEREO_COUNT>
0

> <PUBCHEM_BOND_DEF_STEREO_COUNT>
0

> <PUBCHEM_BOND_UDEF_STEREO_COUNT>
0

> <PUBCHEM_ISOTOPIC_ATOM_COUNT>
0

> <PUBCHEM_COMPONENT_COUNT>
1

> <PUBCHEM_CACTVS_TAUTO_COUNT>
4

> <PUBCHEM_CONFORMER_ID>
000189DE00000007

> <PUBCHEM_MMFF94_ENERGY>
65.0903

> <PUBCHEM_FEATURE_SELFOVERLAP>
71.215

> <PUBCHEM_SHAPE_FINGERPRINT>
107951 10 18052503803246147275
11552529 35 14566514359546378982
11582403 64 17022906743972707821
12156800 1 18044919397744209339
13165053 68 14924231569246523921
13383661 66 15257159493220741791
14040221 97 17767413740221806496
14747281 78 18339918204595716809
15163728 17 18041839481160468225
15721738 202 15339115775594918623
17492 54 17846484942126670577
19319366 153 17192678868173231848
20511986 3 16732975461829738172
20764821 26 17202504349557051856
20775438 99 15838976868147608932
21304303 94 16198145552896468157
23419403 2 17629498633367652171
23559900 14 17534901879920685335
238 59 17274806004489070153
4112364 45 15720505444555207453
437795 51 17988931085153674865
469060 322 16530083908253622156
57359948 33 17465341311877403853
9981440 41 17823432525820466821

> <PUBCHEM_SHAPE_MULTIPOLES>
598.42
10.02
3.84
3.45
2.59
2.23
0.51
-0.23
-10.59
1.79
3.04
-3.06
-1.89
2.22

> <PUBCHEM_SHAPE_SELFOVERLAP>
1243.653

> <PUBCHEM_SHAPE_VOLUME>
339.1

> <PUBCHEM_COORDINATE_TYPE>
2
5
10

$$$$
