10095308
  -OEChem-03292013303D

 62 65  0     1  0  0  0  0  0999 V2000
   -3.7165   -2.2577    0.2824 S   0  0  0  0  0  0  0  0  0  0  0  0
    1.6830   -0.1548   -1.1858 F   0  0  0  0  0  0  0  0  0  0  0  0
   -2.7026   -0.0224   -1.3700 O   0  0  0  0  0  0  0  0  0  0  0  0
    0.9067   -2.0593    1.7622 O   0  0  0  0  0  0  0  0  0  0  0  0
   -4.8423    0.0059    1.0483 O   0  0  0  0  0  0  0  0  0  0  0  0
   -4.8140    0.8999   -1.5351 O   0  0  0  0  0  0  0  0  0  0  0  0
    6.4988   -0.1347   -1.9625 O   0  0  0  0  0  0  0  0  0  0  0  0
   -1.3147   -0.1706    0.6459 C   0  0  1  0  0  0  0  0  0  0  0  0
   -0.4448    1.0424    0.2488 C   0  0  2  0  0  0  0  0  0  0  0  0
    0.9966    0.9577    0.7744 C   0  0  1  0  0  0  0  0  0  0  0  0
    1.6804   -0.3262    0.1901 C   0  0  1  0  0  0  0  0  0  0  0  0
   -2.6829    0.2643    0.0345 C   0  0  1  0  0  0  0  0  0  0  0  0
   -1.3084    2.2320    0.6564 C   0  0  0  0  0  0  0  0  0  0  0  0
   -0.6641   -1.4249    0.0244 C   0  0  0  0  0  0  0  0  0  0  0  0
   -2.7339    1.8154    0.2113 C   0  0  2  0  0  0  0  0  0  0  0  0
    0.8195   -1.6046    0.4208 C   0  0  2  0  0  0  0  0  0  0  0  0
    3.2006   -0.4301    0.6069 C   0  0  1  0  0  0  0  0  0  0  0  0
    1.7803    2.2276    0.3941 C   0  0  0  0  0  0  0  0  0  0  0  0
   -1.4587   -0.3451    2.1831 C   0  0  0  0  0  0  0  0  0  0  0  0
    3.2491    2.1412    0.7905 C   0  0  0  0  0  0  0  0  0  0  0  0
    3.8736    0.8928    0.2219 C   0  0  0  0  0  0  0  0  0  0  0  0
   -3.7823    2.3620    1.1754 C   0  0  0  0  0  0  0  0  0  0  0  0
   -3.8653   -0.5177    0.5268 C   0  0  0  0  0  0  0  0  0  0  0  0
    3.4255   -0.6566    2.1196 C   0  0  0  0  0  0  0  0  0  0  0  0
    3.8591   -1.6070   -0.0987 C   0  0  0  0  0  0  0  0  0  0  0  0
    4.9283    0.9810   -0.6037 C   0  0  0  0  0  0  0  0  0  0  0  0
    4.9081   -1.5256   -0.9231 C   0  0  0  0  0  0  0  0  0  0  0  0
   -3.8359    0.3531   -2.0262 C   0  0  0  0  0  0  0  0  0  0  0  0
    5.5255   -0.2205   -1.2214 C   0  0  0  0  0  0  0  0  0  0  0  0
   -3.7150   -0.0063   -3.4761 C   0  0  0  0  0  0  0  0  0  0  0  0
   -5.4534   -2.7113    0.0848 C   0  0  0  0  0  0  0  0  0  0  0  0
   -0.3750    1.0789   -0.8509 H   0  0  0  0  0  0  0  0  0  0  0  0
    0.9847    0.9024    1.8671 H   0  0  0  0  0  0  0  0  0  0  0  0
   -1.2517    2.4119    1.7360 H   0  0  0  0  0  0  0  0  0  0  0  0
   -0.9980    3.1540    0.1531 H   0  0  0  0  0  0  0  0  0  0  0  0
   -0.7111   -1.3791   -1.0701 H   0  0  0  0  0  0  0  0  0  0  0  0
   -1.1618   -2.3420    0.3398 H   0  0  0  0  0  0  0  0  0  0  0  0
   -2.8909    2.3154   -0.7531 H   0  0  0  0  0  0  0  0  0  0  0  0
    1.1997   -2.4080   -0.2223 H   0  0  0  0  0  0  0  0  0  0  0  0
    1.3378    3.1025    0.8849 H   0  0  0  0  0  0  0  0  0  0  0  0
    1.7058    2.4023   -0.6874 H   0  0  0  0  0  0  0  0  0  0  0  0
   -2.0702    0.4379    2.6391 H   0  0  0  0  0  0  0  0  0  0  0  0
   -1.9278   -1.3011    2.4372 H   0  0  0  0  0  0  0  0  0  0  0  0
   -0.5021   -0.3223    2.7085 H   0  0  0  0  0  0  0  0  0  0  0  0
    3.3458    2.1407    1.8824 H   0  0  0  0  0  0  0  0  0  0  0  0
    3.7647    3.0432    0.4389 H   0  0  0  0  0  0  0  0  0  0  0  0
   -4.7937    2.2989    0.7638 H   0  0  0  0  0  0  0  0  0  0  0  0
   -3.7465    1.8866    2.1594 H   0  0  0  0  0  0  0  0  0  0  0  0
   -3.6008    3.4311    1.3427 H   0  0  0  0  0  0  0  0  0  0  0  0
    2.8011   -0.0078    2.7407 H   0  0  0  0  0  0  0  0  0  0  0  0
    3.2310   -1.6894    2.4258 H   0  0  0  0  0  0  0  0  0  0  0  0
    4.4690   -0.4547    2.3966 H   0  0  0  0  0  0  0  0  0  0  0  0
    3.4620   -2.5997    0.1014 H   0  0  0  0  0  0  0  0  0  0  0  0
    1.4796   -2.8447    1.7706 H   0  0  0  0  0  0  0  0  0  0  0  0
    5.3732    1.9360   -0.8625 H   0  0  0  0  0  0  0  0  0  0  0  0
    5.3350   -2.4099   -1.3816 H   0  0  0  0  0  0  0  0  0  0  0  0
   -3.5968   -1.0878   -3.5807 H   0  0  0  0  0  0  0  0  0  0  0  0
   -2.8649    0.5191   -3.9183 H   0  0  0  0  0  0  0  0  0  0  0  0
   -4.6246    0.2975   -4.0020 H   0  0  0  0  0  0  0  0  0  0  0  0
   -5.8996   -2.1555   -0.7443 H   0  0  0  0  0  0  0  0  0  0  0  0
   -6.0100   -2.5019    1.0021 H   0  0  0  0  0  0  0  0  0  0  0  0
   -5.5267   -3.7803   -0.1311 H   0  0  0  0  0  0  0  0  0  0  0  0
  1 23  1  0  0  0  0
  1 31  1  0  0  0  0
  2 11  1  0  0  0  0
  3 12  1  0  0  0  0
  3 28  1  0  0  0  0
  4 16  1  0  0  0  0
  4 54  1  0  0  0  0
  5 23  2  0  0  0  0
  6 28  2  0  0  0  0
  7 29  2  0  0  0  0
  8  9  1  0  0  0  0
  8 12  1  0  0  0  0
  8 14  1  0  0  0  0
  8 19  1  0  0  0  0
  9 10  1  0  0  0  0
  9 13  1  0  0  0  0
  9 32  1  0  0  0  0
 10 11  1  0  0  0  0
 10 18  1  0  0  0  0
 10 33  1  0  0  0  0
 11 16  1  0  0  0  0
 11 17  1  0  0  0  0
 12 15  1  0  0  0  0
 12 23  1  0  0  0  0
 13 15  1  0  0  0  0
 13 34  1  0  0  0  0
 13 35  1  0  0  0  0
 14 16  1  0  0  0  0
 14 36  1  0  0  0  0
 14 37  1  0  0  0  0
 15 22  1  0  0  0  0
 15 38  1  0  0  0  0
 16 39  1  0  0  0  0
 17 21  1  0  0  0  0
 17 24  1  0  0  0  0
 17 25  1  0  0  0  0
 18 20  1  0  0  0  0
 18 40  1  0  0  0  0
 18 41  1  0  0  0  0
 19 42  1  0  0  0  0
 19 43  1  0  0  0  0
 19 44  1  0  0  0  0
 20 21  1  0  0  0  0
 20 45  1  0  0  0  0
 20 46  1  0  0  0  0
 21 26  2  0  0  0  0
 22 47  1  0  0  0  0
 22 48  1  0  0  0  0
 22 49  1  0  0  0  0
 24 50  1  0  0  0  0
 24 51  1  0  0  0  0
 24 52  1  0  0  0  0
 25 27  2  0  0  0  0
 25 53  1  0  0  0  0
 26 29  1  0  0  0  0
 26 55  1  0  0  0  0
 27 29  1  0  0  0  0
 27 56  1  0  0  0  0
 28 30  1  0  0  0  0
 30 57  1  0  0  0  0
 30 58  1  0  0  0  0
 30 59  1  0  0  0  0
 31 60  1  0  0  0  0
 31 61  1  0  0  0  0
 31 62  1  0  0  0  0
M  END
> <PUBCHEM_COMPOUND_CID>
10095308

> <PUBCHEM_CONFORMER_RMSD>
0.8

> <PUBCHEM_CONFORMER_DIVERSEORDER>
1
2

> <PUBCHEM_MMFF94_PARTIAL_CHARGES>
25
1 -0.37
11 0.34
12 0.34
16 0.28
17 0.28
2 -0.34
20 0.14
21 -0.28
23 0.65
25 -0.29
26 -0.14
27 -0.14
28 0.66
29 0.54
3 -0.43
30 0.06
31 0.23
4 -0.68
5 -0.57
53 0.15
54 0.4
55 0.15
56 0.15
6 -0.57
7 -0.57

> <PUBCHEM_EFFECTIVE_ROTOR_COUNT>
5.4

> <PUBCHEM_PHARMACOPHORE_FEATURES>
9
1 31 hydrophobe
1 4 acceptor
1 4 donor
1 6 acceptor
1 7 acceptor
5 8 9 12 13 15 rings
6 10 11 17 18 20 21 rings
6 17 21 25 26 27 29 rings
6 8 9 10 11 14 16 rings

> <PUBCHEM_HEAVY_ATOM_COUNT>
31

> <PUBCHEM_ATOM_DEF_STEREO_COUNT>
8

> <PUBCHEM_ATOM_UDEF_STEREO_COUNT>
0

> <PUBCHEM_BOND_DEF_STEREO_COUNT>
0

> <PUBCHEM_BOND_UDEF_STEREO_COUNT>
0

> <PUBCHEM_ISOTOPIC_ATOM_COUNT>
0

> <PUBCHEM_COMPONENT_COUNT>
1

> <PUBCHEM_CACTVS_TAUTO_COUNT>
3

> <PUBCHEM_CONFORMER_ID>
009A0ACC00000001

> <PUBCHEM_MMFF94_ENERGY>
122.2753

> <PUBCHEM_FEATURE_SELFOVERLAP>
45.77

> <PUBCHEM_SHAPE_FINGERPRINT>
10366900 7 17822014254399142736
10498660 4 17676482835396744412
11405975 8 13686301300355381778
11578080 2 17169546312246584831
12403259 415 18113898286036028845
12422481 6 16701752634952775559
12553582 1 18341608204968379104
12788726 201 17701258019247211193
13224815 77 18260265243802556008
13583140 156 16877661253469572721
13782708 43 16988842774232924174
14739800 52 14779259843816089828
14856354 85 18269854111116763819
14955137 171 17632021952523881601
15082195 135 16950829397322456151
15183329 4 18261118422836269526
15196674 1 18412832365266770160
15788980 27 16702023071388547234
17349148 13 17489873743304996726
17492 89 18341895199083982218
18186145 218 18260263044916541376
200 152 17632580448137345744
20775438 99 17125599072538648350
21033648 29 17967526904542805932
21267235 1 18340780346344552659
221357 26 18342179994048690146
22182313 1 18265602372075546881
22393880 68 18260541234158893846
23559900 14 18341894125753251240
23569914 152 17264955209396572421
350125 39 18410583889704745193
46194498 28 17969505007628656228
463206 1 17203320143718380630
497634 4 18335709338476534965
5104073 3 18202563960509572744
59755656 215 18335142028910314219
59755656 520 18336272237122613241
6086070 43 17749935726980958988
633830 44 18411138004773502720
70251023 43 17344043412080413189
7237137 82 18113898290626499527
9849439 229 14420355991303683599

> <PUBCHEM_SHAPE_MULTIPOLES>
605.19
12.33
2.48
2.04
5.62
0.25
-1.26
-3.06
-5.05
-1.39
0.69
-1.23
-0.32
0.37

> <PUBCHEM_SHAPE_SELFOVERLAP>
1298.994

> <PUBCHEM_SHAPE_VOLUME>
338.5

> <PUBCHEM_COORDINATE_TYPE>
2
5
10

$$$$
