100934852
  -OEChem-03292013293D

 54 55  0     1  0  0  0  0  0999 V2000
    3.3955    2.4015   -0.9928 O   0  0  0  0  0  0  0  0  0  0  0  0
    2.3414   -1.4506   -1.8350 O   0  0  0  0  0  0  0  0  0  0  0  0
   -1.2682   -3.7535    1.0891 O   0  0  0  0  0  0  0  0  0  0  0  0
   -0.6902    3.4982    1.0937 O   0  0  0  0  0  0  0  0  0  0  0  0
   -4.6355    0.0665    0.4203 O   0  0  0  0  0  0  0  0  0  0  0  0
    2.4076   -0.8085    0.3778 N   0  0  0  0  0  0  0  0  0  0  0  0
    1.3229    1.6148   -0.3319 N   0  0  0  0  0  0  0  0  0  0  0  0
   -0.2621   -2.2271   -0.3386 N   0  0  0  0  0  0  0  0  0  0  0  0
   -1.7179    1.9521   -0.2886 N   0  0  0  0  0  0  0  0  0  0  0  0
   -2.4194   -0.5852    0.2577 N   0  0  0  0  0  0  0  0  0  0  0  0
    3.3372    0.3001    0.1685 C   0  0  2  0  0  0  0  0  0  0  0  0
    3.8386    0.6398    1.5733 C   0  0  0  0  0  0  0  0  0  0  0  0
    2.6683    0.2564    2.4721 C   0  0  0  0  0  0  0  0  0  0  0  0
    2.1093   -0.9856    1.7975 C   0  0  0  0  0  0  0  0  0  0  0  0
    2.6946    1.5257   -0.4837 C   0  0  0  0  0  0  0  0  0  0  0  0
    2.0206   -1.6478   -0.6598 C   0  0  0  0  0  0  0  0  0  0  0  0
    1.0786   -2.7899   -0.2870 C   0  0  2  0  0  0  0  0  0  0  0  0
    0.5393    2.7380   -0.8205 C   0  0  2  0  0  0  0  0  0  0  0  0
    1.2058   -3.9561   -1.2620 C   0  0  0  0  0  0  0  0  0  0  0  0
   -2.6447   -2.0198    0.1548 C   0  0  2  0  0  0  0  0  0  0  0  0
   -1.3227   -2.7389    0.3948 C   0  0  0  0  0  0  0  0  0  0  0  0
   -0.6922    2.8072    0.0741 C   0  0  0  0  0  0  0  0  0  0  0  0
    0.2571    2.6315   -2.3132 C   0  0  0  0  0  0  0  0  0  0  0  0
   -2.9294    1.7818    0.5029 C   0  0  2  0  0  0  0  0  0  0  0  0
   -3.4414    0.3500    0.3379 C   0  0  0  0  0  0  0  0  0  0  0  0
   -3.2112   -2.4086   -1.2065 C   0  0  0  0  0  0  0  0  0  0  0  0
   -3.9817    2.8080    0.1052 C   0  0  0  0  0  0  0  0  0  0  0  0
    4.1526   -0.0298   -0.4857 H   0  0  0  0  0  0  0  0  0  0  0  0
    4.1302    1.6869    1.6993 H   0  0  0  0  0  0  0  0  0  0  0  0
    4.7041    0.0119    1.8186 H   0  0  0  0  0  0  0  0  0  0  0  0
    2.9689    0.0721    3.5072 H   0  0  0  0  0  0  0  0  0  0  0  0
    1.9189    1.0567    2.4742 H   0  0  0  0  0  0  0  0  0  0  0  0
    2.6262   -1.8885    2.1402 H   0  0  0  0  0  0  0  0  0  0  0  0
    1.0346   -1.1023    1.9605 H   0  0  0  0  0  0  0  0  0  0  0  0
    1.2795   -3.1612    0.7216 H   0  0  0  0  0  0  0  0  0  0  0  0
    0.8303    0.8421    0.1069 H   0  0  0  0  0  0  0  0  0  0  0  0
    1.1140    3.6571   -0.6500 H   0  0  0  0  0  0  0  0  0  0  0  0
   -0.4304   -1.4461   -0.9665 H   0  0  0  0  0  0  0  0  0  0  0  0
    0.9432   -3.6593   -2.2839 H   0  0  0  0  0  0  0  0  0  0  0  0
    0.5384   -4.7770   -0.9786 H   0  0  0  0  0  0  0  0  0  0  0  0
    2.2316   -4.3391   -1.2770 H   0  0  0  0  0  0  0  0  0  0  0  0
   -3.3465   -2.3035    0.9473 H   0  0  0  0  0  0  0  0  0  0  0  0
    1.1785    2.7743   -2.8885 H   0  0  0  0  0  0  0  0  0  0  0  0
   -0.4637    3.3917   -2.6316 H   0  0  0  0  0  0  0  0  0  0  0  0
   -0.1371    1.6478   -2.5897 H   0  0  0  0  0  0  0  0  0  0  0  0
   -2.6728    1.9167    1.5605 H   0  0  0  0  0  0  0  0  0  0  0  0
   -1.6378    1.4038   -1.1384 H   0  0  0  0  0  0  0  0  0  0  0  0
   -1.4614   -0.2492    0.2987 H   0  0  0  0  0  0  0  0  0  0  0  0
   -2.5650   -2.0698   -2.0242 H   0  0  0  0  0  0  0  0  0  0  0  0
   -4.1996   -1.9655   -1.3652 H   0  0  0  0  0  0  0  0  0  0  0  0
   -3.3105   -3.4962   -1.2901 H   0  0  0  0  0  0  0  0  0  0  0  0
   -4.2793    2.6820   -0.9421 H   0  0  0  0  0  0  0  0  0  0  0  0
   -3.6008    3.8281    0.2224 H   0  0  0  0  0  0  0  0  0  0  0  0
   -4.8815    2.7095    0.7215 H   0  0  0  0  0  0  0  0  0  0  0  0
  1 15  2  0  0  0  0
  2 16  2  0  0  0  0
  3 21  2  0  0  0  0
  4 22  2  0  0  0  0
  5 25  2  0  0  0  0
  6 11  1  0  0  0  0
  6 14  1  0  0  0  0
  6 16  1  0  0  0  0
  7 15  1  0  0  0  0
  7 18  1  0  0  0  0
  7 36  1  0  0  0  0
  8 17  1  0  0  0  0
  8 21  1  0  0  0  0
  8 38  1  0  0  0  0
  9 22  1  0  0  0  0
  9 24  1  0  0  0  0
  9 47  1  0  0  0  0
 10 20  1  0  0  0  0
 10 25  1  0  0  0  0
 10 48  1  0  0  0  0
 11 12  1  0  0  0  0
 11 15  1  0  0  0  0
 11 28  1  0  0  0  0
 12 13  1  0  0  0  0
 12 29  1  0  0  0  0
 12 30  1  0  0  0  0
 13 14  1  0  0  0  0
 13 31  1  0  0  0  0
 13 32  1  0  0  0  0
 14 33  1  0  0  0  0
 14 34  1  0  0  0  0
 16 17  1  0  0  0  0
 17 19  1  0  0  0  0
 17 35  1  0  0  0  0
 18 22  1  0  0  0  0
 18 23  1  0  0  0  0
 18 37  1  0  0  0  0
 19 39  1  0  0  0  0
 19 40  1  0  0  0  0
 19 41  1  0  0  0  0
 20 21  1  0  0  0  0
 20 26  1  0  0  0  0
 20 42  1  0  0  0  0
 23 43  1  0  0  0  0
 23 44  1  0  0  0  0
 23 45  1  0  0  0  0
 24 25  1  0  0  0  0
 24 27  1  0  0  0  0
 24 46  1  0  0  0  0
 26 49  1  0  0  0  0
 26 50  1  0  0  0  0
 26 51  1  0  0  0  0
 27 52  1  0  0  0  0
 27 53  1  0  0  0  0
 27 54  1  0  0  0  0
M  END
> <PUBCHEM_COMPOUND_CID>
100934852

> <PUBCHEM_CONFORMER_RMSD>
0.6

> <PUBCHEM_CONFORMER_DIVERSEORDER>
1
9
4
8
7
2
5
6
3

> <PUBCHEM_MMFF94_PARTIAL_CHARGES>
25
1 -0.57
10 -0.73
11 0.36
14 0.3
15 0.57
16 0.57
17 0.36
18 0.36
2 -0.57
20 0.36
21 0.57
22 0.57
24 0.36
25 0.57
3 -0.57
36 0.37
38 0.37
4 -0.57
47 0.37
48 0.37
5 -0.57
6 -0.66
7 -0.73
8 -0.73
9 -0.73

> <PUBCHEM_EFFECTIVE_ROTOR_COUNT>
2.2

> <PUBCHEM_PHARMACOPHORE_FEATURES>
10
1 1 acceptor
1 10 donor
1 2 acceptor
1 3 acceptor
1 4 acceptor
1 5 acceptor
1 7 donor
1 8 donor
1 9 donor
5 6 11 12 13 14 rings

> <PUBCHEM_HEAVY_ATOM_COUNT>
27

> <PUBCHEM_ATOM_DEF_STEREO_COUNT>
5

> <PUBCHEM_ATOM_UDEF_STEREO_COUNT>
0

> <PUBCHEM_BOND_DEF_STEREO_COUNT>
0

> <PUBCHEM_BOND_UDEF_STEREO_COUNT>
0

> <PUBCHEM_ISOTOPIC_ATOM_COUNT>
0

> <PUBCHEM_COMPONENT_COUNT>
1

> <PUBCHEM_CACTVS_TAUTO_COUNT>
16

> <PUBCHEM_CONFORMER_ID>
060424C400000001

> <PUBCHEM_MMFF94_ENERGY>
72.1506

> <PUBCHEM_FEATURE_SELFOVERLAP>
50.761

> <PUBCHEM_SHAPE_FINGERPRINT>
10366900 7 17773579556031325584
10616163 171 18264779941794438589
10816530 145 14020607008033216184
11370993 70 18342448201803170185
11513181 2 17986672559115438119
12038231 1 18050010995616332887
12156800 1 13313124511541530679
12293681 4 17322965902993188058
12553582 1 18267306628374001841
12633257 1 18114448063266854571
12788726 201 18268430307962061393
13122387 1 18410578344923051869
13140716 1 18265609879942319187
13402501 40 17906453225302006830
13965767 371 18265879285876058778
14081887 123 18272359854518030728
14114207 22 13849228819018886161
14117953 113 18263352612403216301
15297060 5 18200611296689115872
17093844 170 18267584607046743528
192875 21 18122604305130926687
20715895 44 17971170562092877701
20905425 154 17616260620379239055
22113638 7 17907848849450418143
23419403 2 17052709913235961362
23559900 14 18124597478998802172
238 59 16966862171073027709
238918 7 18201143378918510202
3052486 1 18334862667310305030
35225 105 17842803755753669136
3524813 1 17836926698620619827
484985 159 15946196633884153034
6287921 2 18126012563648897001
7064713 232 18340760477250867593

> <PUBCHEM_SHAPE_MULTIPOLES>
501.4
6.71
5.29
1.71
3.21
1.73
0.06
-1.71
1.6
1.56
-1.37
-1.45
-0.24
-0.09

> <PUBCHEM_SHAPE_SELFOVERLAP>
1024.113

> <PUBCHEM_SHAPE_VOLUME>
287.6

> <PUBCHEM_COORDINATE_TYPE>
2
5
10

$$$$
