10090881
  -OEChem-03292013303D

 56 56  0     1  0  0  0  0  0999 V2000
    0.1556   -0.4961   -2.4705 O   0  0  0  0  0  0  0  0  0  0  0  0
   -0.0563    1.9253    0.6591 O   0  0  0  0  0  0  0  0  0  0  0  0
    2.6493   -4.5534   -0.2813 O   0  0  0  0  0  0  0  0  0  0  0  0
    0.4942   -1.7870   -0.5685 N   0  0  0  0  0  0  0  0  0  0  0  0
   -1.4814    1.1186   -0.9840 N   0  0  0  0  0  0  0  0  0  0  0  0
    4.3370    0.6276    0.6251 N   0  0  0  0  0  0  0  0  0  0  0  0
    6.4958    1.1688    1.5289 N   0  0  0  0  0  0  0  0  0  0  0  0
    5.3399    2.6893    0.2852 N   0  0  0  0  0  0  0  0  0  0  0  0
   -1.3965   -0.2739   -0.6220 C   0  0  1  0  0  0  0  0  0  0  0  0
    1.6974   -2.4496   -0.9945 C   0  0  1  0  0  0  0  0  0  0  0  0
   -2.6653   -1.0482   -0.9973 C   0  0  0  0  0  0  0  0  0  0  0  0
    2.9718   -1.6953   -0.6090 C   0  0  0  0  0  0  0  0  0  0  0  0
   -0.1873   -0.8552   -1.3461 C   0  0  0  0  0  0  0  0  0  0  0  0
    3.1642   -1.5028    0.9031 C   0  0  0  0  0  0  0  0  0  0  0  0
   -3.7889   -0.8403   -0.0114 C   0  0  0  0  0  0  0  0  0  0  0  0
   -1.0573    3.5064   -0.8825 C   0  0  0  0  0  0  0  0  0  0  0  0
   -0.7951    2.1168   -0.3045 C   0  0  0  0  0  0  0  0  0  0  0  0
    4.4226   -0.7032    1.2285 C   0  0  0  0  0  0  0  0  0  0  0  0
    1.6483   -3.8638   -0.4589 C   0  0  0  0  0  0  0  0  0  0  0  0
   -3.9198   -1.6910    1.0863 C   0  0  0  0  0  0  0  0  0  0  0  0
   -4.6963    0.2027   -0.1975 C   0  0  0  0  0  0  0  0  0  0  0  0
   -2.2795    4.1323   -0.2137 C   0  0  0  0  0  0  0  0  0  0  0  0
    0.1624    4.4099   -0.7168 C   0  0  0  0  0  0  0  0  0  0  0  0
   -4.9582   -1.4989    1.9977 C   0  0  0  0  0  0  0  0  0  0  0  0
   -5.7345    0.3948    0.7139 C   0  0  0  0  0  0  0  0  0  0  0  0
   -5.8654   -0.4560    1.8116 C   0  0  0  0  0  0  0  0  0  0  0  0
    5.3434    1.4221    0.8188 C   0  0  0  0  0  0  0  0  0  0  0  0
   -1.2205   -0.3314    0.4599 H   0  0  0  0  0  0  0  0  0  0  0  0
    1.6569   -2.5374   -2.0871 H   0  0  0  0  0  0  0  0  0  0  0  0
   -2.4480   -2.1238   -1.0500 H   0  0  0  0  0  0  0  0  0  0  0  0
   -3.0046   -0.7769   -2.0063 H   0  0  0  0  0  0  0  0  0  0  0  0
    2.9501   -0.7152   -1.1015 H   0  0  0  0  0  0  0  0  0  0  0  0
    3.8433   -2.2283   -1.0099 H   0  0  0  0  0  0  0  0  0  0  0  0
    0.1395   -2.0001    0.3599 H   0  0  0  0  0  0  0  0  0  0  0  0
    3.2264   -2.4755    1.4033 H   0  0  0  0  0  0  0  0  0  0  0  0
    2.2946   -0.9802    1.3199 H   0  0  0  0  0  0  0  0  0  0  0  0
   -2.0255    1.3659   -1.8055 H   0  0  0  0  0  0  0  0  0  0  0  0
   -1.2562    3.4080   -1.9570 H   0  0  0  0  0  0  0  0  0  0  0  0
    5.2986   -1.2431    0.8485 H   0  0  0  0  0  0  0  0  0  0  0  0
    4.5092   -0.6215    2.3187 H   0  0  0  0  0  0  0  0  0  0  0  0
    0.6441   -4.3060   -0.3341 H   0  0  0  0  0  0  0  0  0  0  0  0
   -3.2177   -2.5054    1.2435 H   0  0  0  0  0  0  0  0  0  0  0  0
   -4.6052    0.8727   -1.0483 H   0  0  0  0  0  0  0  0  0  0  0  0
   -2.1273    4.2434    0.8656 H   0  0  0  0  0  0  0  0  0  0  0  0
   -2.4937    5.1203   -0.6341 H   0  0  0  0  0  0  0  0  0  0  0  0
   -3.1656    3.5042   -0.3562 H   0  0  0  0  0  0  0  0  0  0  0  0
    0.3925    4.5845    0.3400 H   0  0  0  0  0  0  0  0  0  0  0  0
   -0.0048    5.3818   -1.1927 H   0  0  0  0  0  0  0  0  0  0  0  0
    1.0464    3.9544   -1.1762 H   0  0  0  0  0  0  0  0  0  0  0  0
   -5.0596   -2.1608    2.8528 H   0  0  0  0  0  0  0  0  0  0  0  0
   -6.4407    1.2072    0.5693 H   0  0  0  0  0  0  0  0  0  0  0  0
   -6.6736   -0.3061    2.5215 H   0  0  0  0  0  0  0  0  0  0  0  0
    7.2218    1.8719    1.6147 H   0  0  0  0  0  0  0  0  0  0  0  0
    6.6632    0.2817    1.9901 H   0  0  0  0  0  0  0  0  0  0  0  0
    6.1165    3.3262    0.4257 H   0  0  0  0  0  0  0  0  0  0  0  0
    4.5561    3.0236   -0.2649 H   0  0  0  0  0  0  0  0  0  0  0  0
  1 13  2  0  0  0  0
  2 17  2  0  0  0  0
  3 19  2  0  0  0  0
  4 10  1  0  0  0  0
  4 13  1  0  0  0  0
  4 34  1  0  0  0  0
  5  9  1  0  0  0  0
  5 17  1  0  0  0  0
  5 37  1  0  0  0  0
  6 18  1  0  0  0  0
  6 27  2  0  0  0  0
  7 27  1  0  0  0  0
  7 53  1  0  0  0  0
  7 54  1  0  0  0  0
  8 27  1  0  0  0  0
  8 55  1  0  0  0  0
  8 56  1  0  0  0  0
  9 11  1  0  0  0  0
  9 13  1  0  0  0  0
  9 28  1  0  0  0  0
 10 12  1  0  0  0  0
 10 19  1  0  0  0  0
 10 29  1  0  0  0  0
 11 15  1  0  0  0  0
 11 30  1  0  0  0  0
 11 31  1  0  0  0  0
 12 14  1  0  0  0  0
 12 32  1  0  0  0  0
 12 33  1  0  0  0  0
 14 18  1  0  0  0  0
 14 35  1  0  0  0  0
 14 36  1  0  0  0  0
 15 20  2  0  0  0  0
 15 21  1  0  0  0  0
 16 17  1  0  0  0  0
 16 22  1  0  0  0  0
 16 23  1  0  0  0  0
 16 38  1  0  0  0  0
 18 39  1  0  0  0  0
 18 40  1  0  0  0  0
 19 41  1  0  0  0  0
 20 24  1  0  0  0  0
 20 42  1  0  0  0  0
 21 25  2  0  0  0  0
 21 43  1  0  0  0  0
 22 44  1  0  0  0  0
 22 45  1  0  0  0  0
 22 46  1  0  0  0  0
 23 47  1  0  0  0  0
 23 48  1  0  0  0  0
 23 49  1  0  0  0  0
 24 26  2  0  0  0  0
 24 50  1  0  0  0  0
 25 26  1  0  0  0  0
 25 51  1  0  0  0  0
 26 52  1  0  0  0  0
M  END
> <PUBCHEM_COMPOUND_CID>
10090881

> <PUBCHEM_CONFORMER_RMSD>
1.2

> <PUBCHEM_CONFORMER_DIVERSEORDER>
1
8
62
12
71
34
59
28
6
16
17
7
45
74
61
22
75
63
37
41
68
60
67
48
27
40
56
5
23
15
66
26
30
72
9
76
43
65
29
13
55
58
19
2
39
21
36
11
38
33
69
18
73
42
46
24
54
52
53
14
10
49
25
35
50
57
32
64
3
44
70
51
4
31
20
47

> <PUBCHEM_MMFF94_PARTIAL_CHARGES>
35
1 -0.57
10 0.36
11 0.14
13 0.57
15 -0.14
16 0.06
17 0.57
18 0.25
19 0.45
2 -0.57
20 -0.15
21 -0.15
24 -0.15
25 -0.15
26 -0.15
27 0.55
3 -0.57
34 0.37
37 0.37
4 -0.73
41 0.06
42 0.15
43 0.15
5 -0.73
50 0.15
51 0.15
52 0.15
53 0.4
54 0.4
55 0.4
56 0.4
6 -0.7
7 -0.85
8 -0.85
9 0.36

> <PUBCHEM_EFFECTIVE_ROTOR_COUNT>
13

> <PUBCHEM_PHARMACOPHORE_FEATURES>
10
1 1 acceptor
1 2 acceptor
1 3 acceptor
1 4 donor
1 5 donor
1 7 donor
1 8 donor
3 16 22 23 hydrophobe
4 6 7 8 27 cation
6 15 20 21 24 25 26 rings

> <PUBCHEM_HEAVY_ATOM_COUNT>
27

> <PUBCHEM_ATOM_DEF_STEREO_COUNT>
1

> <PUBCHEM_ATOM_UDEF_STEREO_COUNT>
1

> <PUBCHEM_BOND_DEF_STEREO_COUNT>
0

> <PUBCHEM_BOND_UDEF_STEREO_COUNT>
0

> <PUBCHEM_ISOTOPIC_ATOM_COUNT>
0

> <PUBCHEM_COMPONENT_COUNT>
1

> <PUBCHEM_CACTVS_TAUTO_COUNT>
16

> <PUBCHEM_CONFORMER_ID>
0099F98100000001

> <PUBCHEM_MMFF94_ENERGY>
59.2752

> <PUBCHEM_FEATURE_SELFOVERLAP>
50.802

> <PUBCHEM_SHAPE_FINGERPRINT>
12422481 6 18272936011675332449
12788726 201 17970649406091595419
14790565 3 18269834396937287376
14840074 17 18271526497797683004
15183329 4 12895087218770878754
15420108 30 17775287188136509455
15806764 133 17557151597120387582
17349148 13 12613032751807890790
18785283 64 18046358684509221269
20642791 268 18200327601551767055
21049683 118 17323220534219090217
21703447 108 18192708934495102355
23559900 14 17979067185145772134
3187 122 18261381209629904204
392239 28 18260543454846981474
5252454 2 17631432567004938322
57307002 29 10735590388557284088
6004065 56 18336826498584327075
79837 15 17115238516652499197

> <PUBCHEM_SHAPE_MULTIPOLES>
513.13
12.87
5.32
1.63
3.52
3.02
0.08
0.05
9.58
2.97
-1.36
-0.45
-0.44
2.3

> <PUBCHEM_SHAPE_SELFOVERLAP>
1029.076

> <PUBCHEM_SHAPE_VOLUME>
298.5

> <PUBCHEM_COORDINATE_TYPE>
2
5
10

$$$$
