100914126
  -OEChem-03292013293D

 62 61  0     1  0  0  0  0  0999 V2000
    1.8018    2.8758   -1.3914 S   0  0  0  0  0  0  0  0  0  0  0  0
   -0.0469    2.9841    0.8067 P   0  3  0  0  0  0  0  0  0  0  0  0
   -0.4841    4.5126    0.5084 O   0  0  0  0  0  0  0  0  0  0  0  0
   -0.0532    2.9283    2.4234 O   0  0  0  0  0  0  0  0  0  0  0  0
    3.4250    2.9337   -1.5300 O   0  0  0  0  0  0  0  0  0  0  0  0
   -0.9043    1.9487    0.1433 O   0  5  0  0  0  0  0  0  0  0  0  0
    1.3432    1.5861   -1.8627 O   0  0  0  0  0  0  0  0  0  0  0  0
    1.2633    4.1070   -1.9346 O   0  0  0  0  0  0  0  0  0  0  0  0
    1.6977    2.9455    0.3989 C   0  0  1  0  0  0  0  0  0  0  0  0
    2.5321    1.8943    1.1397 C   0  0  0  0  0  0  0  0  0  0  0  0
    2.1294    0.4359    0.9128 C   0  0  0  0  0  0  0  0  0  0  0  0
    2.9639   -0.5124    1.7826 C   0  0  0  0  0  0  0  0  0  0  0  0
    2.5848   -1.9417    1.5204 C   0  0  0  0  0  0  0  0  0  0  0  0
    3.0623   -2.7722    0.5724 C   0  0  0  0  0  0  0  0  0  0  0  0
    2.5588   -4.2039    0.5030 C   0  0  0  0  0  0  0  0  0  0  0  0
    1.3570   -4.3899   -0.4381 C   0  0  0  0  0  0  0  0  0  0  0  0
    0.1628   -3.5928    0.0136 C   0  0  0  0  0  0  0  0  0  0  0  0
   -0.4376   -2.5644   -0.6173 C   0  0  0  0  0  0  0  0  0  0  0  0
    4.0982   -2.4020   -0.4514 C   0  0  0  0  0  0  0  0  0  0  0  0
   -1.7150   -1.9776   -0.0497 C   0  0  0  0  0  0  0  0  0  0  0  0
   -2.9272   -2.1265   -0.9713 C   0  0  0  0  0  0  0  0  0  0  0  0
    0.0088   -1.9831   -1.9309 C   0  0  0  0  0  0  0  0  0  0  0  0
   -4.1675   -1.6038   -0.3004 C   0  0  0  0  0  0  0  0  0  0  0  0
   -4.6573   -0.3494   -0.3512 C   0  0  0  0  0  0  0  0  0  0  0  0
   -5.9229    0.0027    0.4019 C   0  0  0  0  0  0  0  0  0  0  0  0
   -4.0274    0.7812   -1.1181 C   0  0  0  0  0  0  0  0  0  0  0  0
   -5.6455    0.4837    1.8199 C   0  0  0  0  0  0  0  0  0  0  0  0
    2.1087    3.9266    0.6695 H   0  0  0  0  0  0  0  0  0  0  0  0
    3.5885    2.0127    0.8698 H   0  0  0  0  0  0  0  0  0  0  0  0
    2.4675    2.1064    2.2142 H   0  0  0  0  0  0  0  0  0  0  0  0
    1.0665    0.2990    1.1419 H   0  0  0  0  0  0  0  0  0  0  0  0
    2.2751    0.1652   -0.1367 H   0  0  0  0  0  0  0  0  0  0  0  0
    2.8011   -0.2928    2.8447 H   0  0  0  0  0  0  0  0  0  0  0  0
    4.0334   -0.3587    1.5997 H   0  0  0  0  0  0  0  0  0  0  0  0
    1.8298   -2.3282    2.2044 H   0  0  0  0  0  0  0  0  0  0  0  0
    2.2869   -4.5522    1.5091 H   0  0  0  0  0  0  0  0  0  0  0  0
    3.3759   -4.8616    0.1806 H   0  0  0  0  0  0  0  0  0  0  0  0
    1.0751   -5.4500   -0.4437 H   0  0  0  0  0  0  0  0  0  0  0  0
    1.6473   -4.1504   -1.4656 H   0  0  0  0  0  0  0  0  0  0  0  0
   -0.2714   -3.9431    0.9496 H   0  0  0  0  0  0  0  0  0  0  0  0
   -1.5358   -0.9148    0.1601 H   0  0  0  0  0  0  0  0  0  0  0  0
   -1.9449   -2.4343    0.9226 H   0  0  0  0  0  0  0  0  0  0  0  0
    4.9989   -3.0089   -0.3138 H   0  0  0  0  0  0  0  0  0  0  0  0
    4.3945   -1.3512   -0.3987 H   0  0  0  0  0  0  0  0  0  0  0  0
    3.7124   -2.5791   -1.4606 H   0  0  0  0  0  0  0  0  0  0  0  0
   -1.4216    4.7711    0.6367 H   0  0  0  0  0  0  0  0  0  0  0  0
   -0.9138    2.9043    2.8935 H   0  0  0  0  0  0  0  0  0  0  0  0
    3.8428    3.7889   -1.2723 H   0  0  0  0  0  0  0  0  0  0  0  0
   -2.7640   -1.6199   -1.9284 H   0  0  0  0  0  0  0  0  0  0  0  0
   -3.0870   -3.1842   -1.2164 H   0  0  0  0  0  0  0  0  0  0  0  0
   -0.6004   -2.3724   -2.7522 H   0  0  0  0  0  0  0  0  0  0  0  0
   -0.0892   -0.8927   -1.9129 H   0  0  0  0  0  0  0  0  0  0  0  0
    1.0579   -2.1953   -2.1517 H   0  0  0  0  0  0  0  0  0  0  0  0
   -4.6994   -2.3386    0.3025 H   0  0  0  0  0  0  0  0  0  0  0  0
   -6.4814    0.7694   -0.1485 H   0  0  0  0  0  0  0  0  0  0  0  0
   -6.5856   -0.8709    0.4498 H   0  0  0  0  0  0  0  0  0  0  0  0
   -4.6915    1.1020   -1.9272 H   0  0  0  0  0  0  0  0  0  0  0  0
   -3.8542    1.6361   -0.4561 H   0  0  0  0  0  0  0  0  0  0  0  0
   -3.0635    0.5199   -1.5614 H   0  0  0  0  0  0  0  0  0  0  0  0
   -5.0243    1.3854    1.8189 H   0  0  0  0  0  0  0  0  0  0  0  0
   -5.1305   -0.2846    2.4061 H   0  0  0  0  0  0  0  0  0  0  0  0
   -6.5856    0.7223    2.3276 H   0  0  0  0  0  0  0  0  0  0  0  0
  1  5  1  0  0  0  0
  1  7  2  0  0  0  0
  1  8  2  0  0  0  0
  1  9  1  0  0  0  0
  2  3  1  0  0  0  0
  2  4  1  0  0  0  0
  2  6  1  0  0  0  0
  2  9  1  0  0  0  0
  3 46  1  0  0  0  0
  4 47  1  0  0  0  0
  5 48  1  0  0  0  0
  9 10  1  0  0  0  0
  9 28  1  0  0  0  0
 10 11  1  0  0  0  0
 10 29  1  0  0  0  0
 10 30  1  0  0  0  0
 11 12  1  0  0  0  0
 11 31  1  0  0  0  0
 11 32  1  0  0  0  0
 12 13  1  0  0  0  0
 12 33  1  0  0  0  0
 12 34  1  0  0  0  0
 13 14  2  0  0  0  0
 13 35  1  0  0  0  0
 14 15  1  0  0  0  0
 14 19  1  0  0  0  0
 15 16  1  0  0  0  0
 15 36  1  0  0  0  0
 15 37  1  0  0  0  0
 16 17  1  0  0  0  0
 16 38  1  0  0  0  0
 16 39  1  0  0  0  0
 17 18  2  0  0  0  0
 17 40  1  0  0  0  0
 18 20  1  0  0  0  0
 18 22  1  0  0  0  0
 19 43  1  0  0  0  0
 19 44  1  0  0  0  0
 19 45  1  0  0  0  0
 20 21  1  0  0  0  0
 20 41  1  0  0  0  0
 20 42  1  0  0  0  0
 21 23  1  0  0  0  0
 21 49  1  0  0  0  0
 21 50  1  0  0  0  0
 22 51  1  0  0  0  0
 22 52  1  0  0  0  0
 22 53  1  0  0  0  0
 23 24  2  0  0  0  0
 23 54  1  0  0  0  0
 24 25  1  0  0  0  0
 24 26  1  0  0  0  0
 25 27  1  0  0  0  0
 25 55  1  0  0  0  0
 25 56  1  0  0  0  0
 26 57  1  0  0  0  0
 26 58  1  0  0  0  0
 26 59  1  0  0  0  0
 27 60  1  0  0  0  0
 27 61  1  0  0  0  0
 27 62  1  0  0  0  0
M  CHG  2   2   1   6  -1
M  END
> <PUBCHEM_COMPOUND_CID>
100914126

> <PUBCHEM_CONFORMER_RMSD>
1.8

> <PUBCHEM_CONFORMER_DIVERSEORDER>
5
52
120
76
11
17
122
64
118
103
86
45
2
67
70
109
121
114
105
40
20
57
63
62
75
23
87
59
38
78
66
102
36
61
115
51
95
58
43
85
22
84
71
39
100
41
27
21
110
46
91
111
44
117
116
126
68
25
89
108
4
73
113
124
65
42
37
81
55
123
88
26
79
7
82
93
15
107
96
90
72
56
35
69
104
92
30
1
53
9
24
74
99
98
77
31
8
60
106
18
28
6
34
32
12
29
47
50
49
80
125
94
3
54
48
33
14
19
83
13
112
97
101
119
10
16

> <PUBCHEM_MMFF94_PARTIAL_CHARGES>
30
1 1.38
12 0.14
13 -0.29
14 -0.28
15 0.14
16 0.14
17 -0.29
18 -0.28
19 0.14
2 1.24
20 0.14
21 0.14
22 0.14
23 -0.29
24 -0.28
25 0.14
26 0.14
3 -0.77
35 0.15
4 -0.77
40 0.15
46 0.5
47 0.5
48 0.5
5 -0.68
54 0.15
6 -0.7
7 -0.65
8 -0.65
9 0.11

> <PUBCHEM_EFFECTIVE_ROTOR_COUNT>
13

> <PUBCHEM_PHARMACOPHORE_FEATURES>
14
1 19 hydrophobe
1 22 hydrophobe
1 26 hydrophobe
1 27 hydrophobe
1 3 acceptor
1 4 acceptor
1 5 acceptor
1 6 acceptor
1 7 acceptor
1 8 acceptor
4 1 5 7 8 anion
4 10 11 12 13 hydrophobe
4 14 15 16 17 hydrophobe
4 18 20 21 23 hydrophobe

> <PUBCHEM_HEAVY_ATOM_COUNT>
27

> <PUBCHEM_ATOM_DEF_STEREO_COUNT>
0

> <PUBCHEM_ATOM_UDEF_STEREO_COUNT>
1

> <PUBCHEM_BOND_DEF_STEREO_COUNT>
3

> <PUBCHEM_BOND_UDEF_STEREO_COUNT>
0

> <PUBCHEM_ISOTOPIC_ATOM_COUNT>
0

> <PUBCHEM_COMPONENT_COUNT>
1

> <PUBCHEM_CACTVS_TAUTO_COUNT>
1

> <PUBCHEM_CONFORMER_ID>
0603D3CE00000005

> <PUBCHEM_MMFF94_ENERGY>
-8.7717

> <PUBCHEM_FEATURE_SELFOVERLAP>
71.16

> <PUBCHEM_SHAPE_FINGERPRINT>
10483366 6 18336562594360594366
10688039 33 18119807997790086266
11059048 146 17832710445258571911
12156800 1 17556322582717133630
12422481 6 17976216332310441272
13398642 44 18190468345104416535
14863182 85 18337946891910586552
150020 26 18410000062205617305
151778 21 18191303978009588297
15210252 30 18334580127271681118
15475509 84 17615958916149821459
18785283 64 18334580165810290055
21860390 5 18341320167334868590
550186 83 18043227094714610802

> <PUBCHEM_SHAPE_MULTIPOLES>
528.13
8.92
7.04
1.89
15.11
2.42
0
-3.8
-2.21
-6.05
1.17
-0.37
1.34
-1.64

> <PUBCHEM_SHAPE_SELFOVERLAP>
988.293

> <PUBCHEM_SHAPE_VOLUME>
328.3

> <PUBCHEM_COORDINATE_TYPE>
2
5
10

$$$$
