10095005
  -OEChem-03292013303D

 68 71  0     1  0  0  0  0  0999 V2000
   -1.4323    1.0108   -1.9442 O   0  0  0  0  0  0  0  0  0  0  0  0
    1.2264   -1.2511    1.9383 O   0  0  0  0  0  0  0  0  0  0  0  0
   -3.3224    2.0010    0.7288 O   0  0  0  0  0  0  0  0  0  0  0  0
   -4.7985   -0.0846   -0.1023 O   0  0  0  0  0  0  0  0  0  0  0  0
    7.2369   -1.9342   -1.6096 O   0  0  0  0  0  0  0  0  0  0  0  0
   -5.1603   -1.9909   -1.3382 O   0  0  0  0  0  0  0  0  0  0  0  0
   -0.2817    0.8529    0.2237 C   0  0  1  0  0  0  0  0  0  0  0  0
    0.9282    1.6418   -0.3244 C   0  0  2  0  0  0  0  0  0  0  0  0
    2.2585    1.2730    0.3489 C   0  0  1  0  0  0  0  0  0  0  0  0
    2.5393   -0.2524    0.1090 C   0  0  2  0  0  0  0  0  0  0  0  0
   -1.4138    1.5124   -0.6109 C   0  0  1  0  0  0  0  0  0  0  0  0
   -0.0211   -0.6421   -0.0489 C   0  0  0  0  0  0  0  0  0  0  0  0
    0.4550    3.0923   -0.2790 C   0  0  0  0  0  0  0  0  0  0  0  0
    1.3241   -1.1404    0.5254 C   0  0  2  0  0  0  0  0  0  0  0  0
    3.9474   -0.6958    0.6729 C   0  0  1  0  0  0  0  0  0  0  0  0
   -1.0447    3.0132   -0.6326 C   0  0  0  0  0  0  0  0  0  0  0  0
    3.4009    2.1431   -0.2056 C   0  0  0  0  0  0  0  0  0  0  0  0
   -0.5403    1.0991    1.7361 C   0  0  0  0  0  0  0  0  0  0  0  0
    4.7620    1.7267    0.3377 C   0  0  0  0  0  0  0  0  0  0  0  0
    4.9949    0.2586    0.0887 C   0  0  0  0  0  0  0  0  0  0  0  0
   -2.7988    1.2557   -0.0979 C   0  0  0  0  0  0  0  0  0  0  0  0
    4.0537   -0.6416    2.2137 C   0  0  0  0  0  0  0  0  0  0  0  0
    4.2362   -2.1370    0.2783 C   0  0  0  0  0  0  0  0  0  0  0  0
    6.0447   -0.1439   -0.6444 C   0  0  0  0  0  0  0  0  0  0  0  0
   -3.5042    0.0367   -0.6534 C   0  0  0  0  0  0  0  0  0  0  0  0
    5.2785   -2.5441   -0.4527 C   0  0  0  0  0  0  0  0  0  0  0  0
    6.2664   -1.5711   -0.9536 C   0  0  0  0  0  0  0  0  0  0  0  0
   -5.5465   -1.1571   -0.5280 C   0  0  0  0  0  0  0  0  0  0  0  0
   -6.9246   -1.1727    0.1418 C   0  0  0  0  0  0  0  0  0  0  0  0
   -7.6782    0.1178   -0.2065 C   0  0  0  0  0  0  0  0  0  0  0  0
   -7.7311   -2.3761   -0.3726 C   0  0  0  0  0  0  0  0  0  0  0  0
   -6.7546   -1.3000    1.6615 C   0  0  0  0  0  0  0  0  0  0  0  0
    1.0484    1.3970   -1.3930 H   0  0  0  0  0  0  0  0  0  0  0  0
    2.1921    1.4685    1.4240 H   0  0  0  0  0  0  0  0  0  0  0  0
    2.6034   -0.3707   -0.9866 H   0  0  0  0  0  0  0  0  0  0  0  0
   -0.0101   -0.8329   -1.1290 H   0  0  0  0  0  0  0  0  0  0  0  0
   -0.8369   -1.2405    0.3723 H   0  0  0  0  0  0  0  0  0  0  0  0
    0.9949    3.7229   -0.9928 H   0  0  0  0  0  0  0  0  0  0  0  0
    0.5921    3.5279    0.7170 H   0  0  0  0  0  0  0  0  0  0  0  0
    1.4785   -2.1560    0.1443 H   0  0  0  0  0  0  0  0  0  0  0  0
   -1.6089    3.6138    0.0887 H   0  0  0  0  0  0  0  0  0  0  0  0
   -1.2125    3.4542   -1.6220 H   0  0  0  0  0  0  0  0  0  0  0  0
    3.2286    3.1954    0.0499 H   0  0  0  0  0  0  0  0  0  0  0  0
    3.4148    2.0835   -1.3021 H   0  0  0  0  0  0  0  0  0  0  0  0
   -0.8632    2.1236    1.9476 H   0  0  0  0  0  0  0  0  0  0  0  0
   -1.3264    0.4308    2.1063 H   0  0  0  0  0  0  0  0  0  0  0  0
    0.3415    0.9301    2.3567 H   0  0  0  0  0  0  0  0  0  0  0  0
    4.8218    1.9374    1.4115 H   0  0  0  0  0  0  0  0  0  0  0  0
    5.5363    2.3415   -0.1373 H   0  0  0  0  0  0  0  0  0  0  0  0
    3.5198   -1.4665    2.6979 H   0  0  0  0  0  0  0  0  0  0  0  0
    5.0989   -0.7234    2.5403 H   0  0  0  0  0  0  0  0  0  0  0  0
    3.6608    0.2907    2.6303 H   0  0  0  0  0  0  0  0  0  0  0  0
    3.5562   -2.9043    0.6416 H   0  0  0  0  0  0  0  0  0  0  0  0
   -1.9841    1.5994   -2.4873 H   0  0  0  0  0  0  0  0  0  0  0  0
    0.4888   -1.8520    2.1389 H   0  0  0  0  0  0  0  0  0  0  0  0
    6.7617    0.5613   -1.0514 H   0  0  0  0  0  0  0  0  0  0  0  0
   -2.9219   -0.8549   -0.4077 H   0  0  0  0  0  0  0  0  0  0  0  0
   -3.6110    0.1409   -1.7374 H   0  0  0  0  0  0  0  0  0  0  0  0
    5.4301   -3.5919   -0.6845 H   0  0  0  0  0  0  0  0  0  0  0  0
   -7.7587    0.2458   -1.2921 H   0  0  0  0  0  0  0  0  0  0  0  0
   -8.6917    0.1104    0.2097 H   0  0  0  0  0  0  0  0  0  0  0  0
   -7.1657    1.0028    0.1871 H   0  0  0  0  0  0  0  0  0  0  0  0
   -7.8678   -2.3275   -1.4592 H   0  0  0  0  0  0  0  0  0  0  0  0
   -8.7247   -2.4155    0.0879 H   0  0  0  0  0  0  0  0  0  0  0  0
   -7.2216   -3.3207   -0.1494 H   0  0  0  0  0  0  0  0  0  0  0  0
   -6.2250   -0.4372    2.0812 H   0  0  0  0  0  0  0  0  0  0  0  0
   -7.7251   -1.3698    2.1653 H   0  0  0  0  0  0  0  0  0  0  0  0
   -6.1738   -2.1932    1.9192 H   0  0  0  0  0  0  0  0  0  0  0  0
  1 11  1  0  0  0  0
  1 54  1  0  0  0  0
  2 14  1  0  0  0  0
  2 55  1  0  0  0  0
  3 21  2  0  0  0  0
  4 25  1  0  0  0  0
  4 28  1  0  0  0  0
  5 27  2  0  0  0  0
  6 28  2  0  0  0  0
  7  8  1  0  0  0  0
  7 11  1  0  0  0  0
  7 12  1  0  0  0  0
  7 18  1  0  0  0  0
  8  9  1  0  0  0  0
  8 13  1  0  0  0  0
  8 33  1  0  0  0  0
  9 10  1  0  0  0  0
  9 17  1  0  0  0  0
  9 34  1  0  0  0  0
 10 14  1  0  0  0  0
 10 15  1  0  0  0  0
 10 35  1  0  0  0  0
 11 16  1  0  0  0  0
 11 21  1  0  0  0  0
 12 14  1  0  0  0  0
 12 36  1  0  0  0  0
 12 37  1  0  0  0  0
 13 16  1  0  0  0  0
 13 38  1  0  0  0  0
 13 39  1  0  0  0  0
 14 40  1  0  0  0  0
 15 20  1  0  0  0  0
 15 22  1  0  0  0  0
 15 23  1  0  0  0  0
 16 41  1  0  0  0  0
 16 42  1  0  0  0  0
 17 19  1  0  0  0  0
 17 43  1  0  0  0  0
 17 44  1  0  0  0  0
 18 45  1  0  0  0  0
 18 46  1  0  0  0  0
 18 47  1  0  0  0  0
 19 20  1  0  0  0  0
 19 48  1  0  0  0  0
 19 49  1  0  0  0  0
 20 24  2  0  0  0  0
 21 25  1  0  0  0  0
 22 50  1  0  0  0  0
 22 51  1  0  0  0  0
 22 52  1  0  0  0  0
 23 26  2  0  0  0  0
 23 53  1  0  0  0  0
 24 27  1  0  0  0  0
 24 56  1  0  0  0  0
 25 57  1  0  0  0  0
 25 58  1  0  0  0  0
 26 27  1  0  0  0  0
 26 59  1  0  0  0  0
 28 29  1  0  0  0  0
 29 30  1  0  0  0  0
 29 31  1  0  0  0  0
 29 32  1  0  0  0  0
 30 60  1  0  0  0  0
 30 61  1  0  0  0  0
 30 62  1  0  0  0  0
 31 63  1  0  0  0  0
 31 64  1  0  0  0  0
 31 65  1  0  0  0  0
 32 66  1  0  0  0  0
 32 67  1  0  0  0  0
 32 68  1  0  0  0  0
M  END
> <PUBCHEM_COMPOUND_CID>
10095005

> <PUBCHEM_CONFORMER_RMSD>
0.8

> <PUBCHEM_CONFORMER_DIVERSEORDER>
1
18
33
29
7
41
5
31
24
15
3
37
44
11
35
51
17
50
13
34
22
49
2
26
28
19
39
6
8
4
36
38
10
9
46
21
48
40
47
43
52
14
30
25
32
23
27
20
16
45
12
42

> <PUBCHEM_MMFF94_PARTIAL_CHARGES>
24
1 -0.68
11 0.34
14 0.28
15 0.28
19 0.14
2 -0.68
20 -0.28
21 0.45
23 -0.29
24 -0.14
25 0.34
26 -0.14
27 0.54
28 0.66
29 0.06
3 -0.57
4 -0.43
5 -0.57
53 0.15
54 0.4
55 0.4
56 0.15
59 0.15
6 -0.57

> <PUBCHEM_EFFECTIVE_ROTOR_COUNT>
6.4

> <PUBCHEM_PHARMACOPHORE_FEATURES>
12
1 1 acceptor
1 1 donor
1 2 acceptor
1 2 donor
1 3 acceptor
1 5 acceptor
1 6 acceptor
4 29 30 31 32 hydrophobe
5 7 8 11 13 16 rings
6 15 20 23 24 26 27 rings
6 7 8 9 10 12 14 rings
6 9 10 15 17 19 20 rings

> <PUBCHEM_HEAVY_ATOM_COUNT>
32

> <PUBCHEM_ATOM_DEF_STEREO_COUNT>
7

> <PUBCHEM_ATOM_UDEF_STEREO_COUNT>
0

> <PUBCHEM_BOND_DEF_STEREO_COUNT>
0

> <PUBCHEM_BOND_UDEF_STEREO_COUNT>
0

> <PUBCHEM_ISOTOPIC_ATOM_COUNT>
0

> <PUBCHEM_COMPONENT_COUNT>
1

> <PUBCHEM_CACTVS_TAUTO_COUNT>
6

> <PUBCHEM_CONFORMER_ID>
009A099D00000001

> <PUBCHEM_MMFF94_ENERGY>
103.1948

> <PUBCHEM_FEATURE_SELFOVERLAP>
60.997

> <PUBCHEM_SHAPE_FINGERPRINT>
10 15 12967125021109078186
10076449 9 18202291282343392670
10366900 7 17603872165667136056
11456790 92 10159700166602565134
11578080 2 12541559114608766094
117089 54 18054796074838382566
11963148 33 18337946805442184311
12166972 35 18272374178471352832
12236239 1 18131072631908131513
12422481 6 17632293480124434359
12592606 108 18341327873661127831
12623949 98 18130796616140712358
13383661 66 17344082771377648670
13533116 47 18271806873484468008
1361 2 18409448115752790250
13673619 4 18202281377404931664
13690498 29 18187923946275027653
13782708 43 18060131025097638751
14040221 97 16882469598333428076
14251764 30 18202281385889423078
14347332 77 18336824170231511110
14767858 380 17822016393403911334
14955137 171 17989203767646982993
15131766 46 15121507104009030522
15142383 8 13902192564890850946
15183329 4 18334010618976857051
15361156 5 17968391030572606677
15721738 202 18343866610467886346
17492 89 18192141608333515962
18335252 98 18342738542267242372
20028762 73 18412542098086355114
20554085 129 11386369287470255852
21033650 10 15647040535852984437
21150785 3 16081092579784468510
21267235 1 18411985753802424613
21344244 181 18334580165372726602
21403212 168 12679463058609822039
21424621 283 8502654800920987269
21859007 373 12535081766792027971
221357 26 18408604743268766340
22149856 69 18342746208319974009
22393880 68 18115015291350496796
23522609 53 18122940631030089953
23559900 14 18338227284903509553
23569943 247 17766007095625157610
2748736 6 9295289430697792935
2838139 119 8574441919805230883
3004659 81 18187363233556253853
3472631 163 11602826791550471394
404807 78 16298964172225539707
46194498 28 17386282202695259109
465052 167 18344147007402725636
5104073 3 18130217169064906752
563151 248 16558743538347218215
59755656 215 18113900459342481810
6058803 2 17172354391993037672
70251023 43 18410576163428299464
9896288 288 17630617713061750745

> <PUBCHEM_SHAPE_MULTIPOLES>
623.33
19.65
3
1.39
23.7
0.83
-0.43
-16.27
3.04
-0.78
0.53
-0.39
-0.37
0.61

> <PUBCHEM_SHAPE_SELFOVERLAP>
1332.479

> <PUBCHEM_SHAPE_VOLUME>
342.5

> <PUBCHEM_COORDINATE_TYPE>
2
5
10

$$$$
