10091047
  -OEChem-03292013303D

 49 52  0     1  0  0  0  0  0999 V2000
    1.0909   -0.1001   -0.8913 O   0  0  0  0  0  0  0  0  0  0  0  0
    2.4595    0.2366    1.0467 O   0  0  0  0  0  0  0  0  0  0  0  0
   -1.5709   -2.5573   -0.4208 O   0  0  0  0  0  0  0  0  0  0  0  0
    4.6631   -0.8435   -0.3102 O   0  0  0  0  0  0  0  0  0  0  0  0
    2.8652   -2.5217    0.9812 O   0  0  0  0  0  0  0  0  0  0  0  0
   -3.4785   -2.9437    0.8246 O   0  0  0  0  0  0  0  0  0  0  0  0
   -4.8772   -0.3987    1.2994 O   0  0  0  0  0  0  0  0  0  0  0  0
   -2.5397    3.2615   -0.6966 O   0  0  0  0  0  0  0  0  0  0  0  0
    2.4174    0.1547   -0.3923 C   0  0  1  0  0  0  0  0  0  0  0  0
    0.5223   -1.3365   -0.4481 C   0  0  2  0  0  0  0  0  0  0  0  0
    3.3504   -0.9950   -0.8435 C   0  0  2  0  0  0  0  0  0  0  0  0
    1.3729   -2.5224   -0.9142 C   0  0  0  0  0  0  0  0  0  0  0  0
    2.8151   -2.3726   -0.4366 C   0  0  2  0  0  0  0  0  0  0  0  0
   -0.8879   -1.4219   -1.0177 C   0  0  2  0  0  0  0  0  0  0  0  0
    2.8598    1.4577   -1.0269 C   0  0  0  0  0  0  0  0  0  0  0  0
    1.8849    1.4377    1.5683 C   0  0  2  0  0  0  0  0  0  0  0  0
   -1.7626   -0.2906   -0.6379 C   0  0  0  0  0  0  0  0  0  0  0  0
    2.7504    2.6284    1.1482 C   0  0  0  0  0  0  0  0  0  0  0  0
    3.0322    2.5825   -0.3201 C   0  0  0  0  0  0  0  0  0  0  0  0
   -2.8369   -0.7584    0.0926 C   0  0  0  0  0  0  0  0  0  0  0  0
   -2.7173   -2.2003    0.2382 C   0  0  0  0  0  0  0  0  0  0  0  0
    1.8211    1.3101    3.0835 C   0  0  0  0  0  0  0  0  0  0  0  0
   -1.6435    1.0594   -0.9176 C   0  0  0  0  0  0  0  0  0  0  0  0
   -3.8285    0.0726    0.5809 C   0  0  0  0  0  0  0  0  0  0  0  0
   -2.6301    1.9266   -0.4379 C   0  0  0  0  0  0  0  0  0  0  0  0
   -3.7158    1.4359    0.3071 C   0  0  0  0  0  0  0  0  0  0  0  0
   -1.4167    3.6989   -1.4590 C   0  0  0  0  0  0  0  0  0  0  0  0
    0.4683   -1.3329    0.6491 H   0  0  0  0  0  0  0  0  0  0  0  0
    3.4327   -0.9915   -1.9392 H   0  0  0  0  0  0  0  0  0  0  0  0
    0.9464   -3.4590   -0.5373 H   0  0  0  0  0  0  0  0  0  0  0  0
    1.3733   -2.5671   -2.0105 H   0  0  0  0  0  0  0  0  0  0  0  0
    3.4491   -3.1595   -0.8601 H   0  0  0  0  0  0  0  0  0  0  0  0
   -0.8895   -1.5486   -2.1066 H   0  0  0  0  0  0  0  0  0  0  0  0
    3.0433    1.4740   -2.0979 H   0  0  0  0  0  0  0  0  0  0  0  0
    0.8619    1.5462    1.1851 H   0  0  0  0  0  0  0  0  0  0  0  0
    3.7113    2.6202    1.6768 H   0  0  0  0  0  0  0  0  0  0  0  0
    2.2385    3.5636    1.4007 H   0  0  0  0  0  0  0  0  0  0  0  0
    3.3735    3.4870   -0.8128 H   0  0  0  0  0  0  0  0  0  0  0  0
    5.0282   -0.0090   -0.6492 H   0  0  0  0  0  0  0  0  0  0  0  0
    2.5173   -3.4040    1.1956 H   0  0  0  0  0  0  0  0  0  0  0  0
    2.8171    1.1403    3.5071 H   0  0  0  0  0  0  0  0  0  0  0  0
    1.3915    2.2067    3.5402 H   0  0  0  0  0  0  0  0  0  0  0  0
    1.2095    0.4463    3.3658 H   0  0  0  0  0  0  0  0  0  0  0  0
   -0.8024    1.3820   -1.5172 H   0  0  0  0  0  0  0  0  0  0  0  0
   -4.4734    2.1259    0.6715 H   0  0  0  0  0  0  0  0  0  0  0  0
   -4.7956   -1.3626    1.3931 H   0  0  0  0  0  0  0  0  0  0  0  0
   -0.4736    3.5011   -0.9378 H   0  0  0  0  0  0  0  0  0  0  0  0
   -1.5008    4.7856   -1.5637 H   0  0  0  0  0  0  0  0  0  0  0  0
   -1.4285    3.2793   -2.4707 H   0  0  0  0  0  0  0  0  0  0  0  0
  1  9  1  0  0  0  0
  1 10  1  0  0  0  0
  2  9  1  0  0  0  0
  2 16  1  0  0  0  0
  3 14  1  0  0  0  0
  3 21  1  0  0  0  0
  4 11  1  0  0  0  0
  4 39  1  0  0  0  0
  5 13  1  0  0  0  0
  5 40  1  0  0  0  0
  6 21  2  0  0  0  0
  7 24  1  0  0  0  0
  7 46  1  0  0  0  0
  8 25  1  0  0  0  0
  8 27  1  0  0  0  0
  9 11  1  0  0  0  0
  9 15  1  0  0  0  0
 10 12  1  0  0  0  0
 10 14  1  0  0  0  0
 10 28  1  0  0  0  0
 11 13  1  0  0  0  0
 11 29  1  0  0  0  0
 12 13  1  0  0  0  0
 12 30  1  0  0  0  0
 12 31  1  0  0  0  0
 13 32  1  0  0  0  0
 14 17  1  0  0  0  0
 14 33  1  0  0  0  0
 15 19  2  0  0  0  0
 15 34  1  0  0  0  0
 16 18  1  0  0  0  0
 16 22  1  0  0  0  0
 16 35  1  0  0  0  0
 17 20  2  0  0  0  0
 17 23  1  0  0  0  0
 18 19  1  0  0  0  0
 18 36  1  0  0  0  0
 18 37  1  0  0  0  0
 19 38  1  0  0  0  0
 20 21  1  0  0  0  0
 20 24  1  0  0  0  0
 22 41  1  0  0  0  0
 22 42  1  0  0  0  0
 22 43  1  0  0  0  0
 23 25  2  0  0  0  0
 23 44  1  0  0  0  0
 24 26  2  0  0  0  0
 25 26  1  0  0  0  0
 26 45  1  0  0  0  0
 27 47  1  0  0  0  0
 27 48  1  0  0  0  0
 27 49  1  0  0  0  0
M  END
> <PUBCHEM_COMPOUND_CID>
10091047

> <PUBCHEM_CONFORMER_RMSD>
0.8

> <PUBCHEM_CONFORMER_DIVERSEORDER>
1
7
4
6
2
5
3

> <PUBCHEM_MMFF94_PARTIAL_CHARGES>
32
1 -0.56
10 0.28
11 0.28
13 0.28
14 0.42
15 -0.29
16 0.28
17 -0.14
18 0.14
19 -0.29
2 -0.56
20 0.09
21 0.63
23 -0.15
24 0.08
25 0.08
26 -0.15
27 0.28
3 -0.43
34 0.15
38 0.15
39 0.4
4 -0.68
40 0.4
44 0.15
45 0.15
46 0.45
5 -0.68
6 -0.57
7 -0.53
8 -0.36
9 0.7

> <PUBCHEM_EFFECTIVE_ROTOR_COUNT>
4

> <PUBCHEM_PHARMACOPHORE_FEATURES>
13
1 1 acceptor
1 2 acceptor
1 4 acceptor
1 4 donor
1 5 acceptor
1 5 donor
1 6 acceptor
1 7 donor
1 8 acceptor
5 3 14 17 20 21 rings
6 1 9 10 11 12 13 rings
6 17 20 23 24 25 26 rings
6 2 9 15 16 18 19 rings

> <PUBCHEM_HEAVY_ATOM_COUNT>
27

> <PUBCHEM_ATOM_DEF_STEREO_COUNT>
6

> <PUBCHEM_ATOM_UDEF_STEREO_COUNT>
0

> <PUBCHEM_BOND_DEF_STEREO_COUNT>
0

> <PUBCHEM_BOND_UDEF_STEREO_COUNT>
0

> <PUBCHEM_ISOTOPIC_ATOM_COUNT>
0

> <PUBCHEM_COMPONENT_COUNT>
1

> <PUBCHEM_CACTVS_TAUTO_COUNT>
4

> <PUBCHEM_CONFORMER_ID>
0099FA2700000001

> <PUBCHEM_MMFF94_ENERGY>
77.106

> <PUBCHEM_FEATURE_SELFOVERLAP>
66.116

> <PUBCHEM_SHAPE_FINGERPRINT>
10165383 225 18129111184747504216
10366900 7 18413385423762854703
10498660 4 18264765643869416069
1100329 8 14230949401801708855
12156800 1 13778086645546399604
12403259 226 18267307526043200943
12422481 6 17980722075711801714
12553582 1 18189899901708709725
12633257 1 18201170857971291555
12769317 202 17036678960619939205
128993 33 18130503153604147256
13134695 92 17060334072985890202
13140716 1 18411419539700329510
13224815 77 18337104687087766343
13402501 40 18195246607679805173
14223421 5 18410855490303884759
14386348 128 18059011825207961008
14466204 15 17759794849788223507
14790565 3 17687762944145749229
14866123 147 15675211874075808511
14955137 171 18131641062930964462
151778 21 18343310283333332305
15238133 3 17416987065664797561
15295992 7 17988920055113175843
15927050 60 15960069700298341679
1601671 61 18343019944324837950
17093844 170 17040059950253454964
17921350 177 16374935761280927620
18981168 100 18339622508448629412
20600515 1 17692252933273972342
23536364 44 17841743745472793732
23559900 14 18409166623395477661
238 59 17981858901356484221
350125 39 18412270566200956350
35225 105 17387954409857885285
3524813 1 18272091591029312849
469060 322 17905616853683260947
508706 21 18339068315970460885
5252454 2 18059014019910096433
6287921 2 17837216235145703289
7097593 13 18042958783744531658
7226269 152 17693080878425723290

> <PUBCHEM_SHAPE_MULTIPOLES>
508.69
7.75
4.07
1.63
2.21
0.99
-1.15
-0.29
-1.42
0.25
0.69
-0.76
0.91
1.59

> <PUBCHEM_SHAPE_SELFOVERLAP>
1110.225

> <PUBCHEM_SHAPE_VOLUME>
276

> <PUBCHEM_COORDINATE_TYPE>
2
5
10

$$$$
