100917666
  -OEChem-03292013293D

 75 80  0     1  0  0  0  0  0999 V2000
    1.9813    2.7085    0.1280 O   0  0  0  0  0  0  0  0  0  0  0  0
   -1.5937    2.7137    0.3742 O   0  0  0  0  0  0  0  0  0  0  0  0
   -0.1953   -3.1321   -0.0945 O   0  0  0  0  0  0  0  0  0  0  0  0
    4.4398   -1.5886   -1.3649 O   0  0  0  0  0  0  0  0  0  0  0  0
    3.9856    1.4420   -1.6811 O   0  0  0  0  0  0  0  0  0  0  0  0
    5.0327    0.2999    0.5518 O   0  0  0  0  0  0  0  0  0  0  0  0
   -4.6534   -1.5605   -0.1053 O   0  0  0  0  0  0  0  0  0  0  0  0
   -4.1116    1.1204   -1.8631 O   0  0  0  0  0  0  0  0  0  0  0  0
   -1.3697   -0.5315    1.8576 N   0  0  2  0  0  0  0  0  0  0  0  0
   -0.4346   -0.7020   -0.4622 C   0  0  1  0  0  0  0  0  0  0  0  0
   -1.4698    0.4515   -0.7941 C   0  0  2  0  0  0  0  0  0  0  0  0
    0.9290   -0.5990   -1.2743 C   0  0  1  0  0  0  0  0  0  0  0  0
   -0.1786   -0.3042    1.0111 C   0  0  1  0  0  0  0  0  0  0  0  0
    0.2444    1.1904    0.8150 C   0  0  1  0  0  0  0  0  0  0  0  0
    1.6789    0.7420   -1.2314 C   0  0  1  0  0  0  0  0  0  0  0  0
    1.6869    1.3024    0.2147 C   0  0  1  0  0  0  0  0  0  0  0  0
   -0.7724    1.7331   -0.2290 C   0  0  2  0  0  0  0  0  0  0  0  0
   -2.8413    0.1338   -0.0969 C   0  0  2  0  0  0  0  0  0  0  0  0
   -1.0074   -2.1338   -0.7095 C   0  0  2  0  0  0  0  0  0  0  0  0
    2.0545   -1.6006   -0.8723 C   0  0  0  0  0  0  0  0  0  0  0  0
    3.3771   -0.7968   -0.8568 C   0  0  2  0  0  0  0  0  0  0  0  0
    3.0615    0.3772   -1.7662 C   0  0  2  0  0  0  0  0  0  0  0  0
    2.7487    0.6862    1.1737 C   0  0  0  0  0  0  0  0  0  0  0  0
   -2.6071    0.1471    1.4444 C   0  0  0  0  0  0  0  0  0  0  0  0
   -3.3523   -1.2477   -0.6056 C   0  0  1  0  0  0  0  0  0  0  0  0
    3.7403   -0.3188    0.5591 C   0  0  2  0  0  0  0  0  0  0  0  0
   -2.4303   -2.3921   -0.2529 C   0  0  0  0  0  0  0  0  0  0  0  0
   -3.9422    1.1592   -0.4653 C   0  0  0  0  0  0  0  0  0  0  0  0
   -1.0953   -0.3172    3.2754 C   0  0  0  0  0  0  0  0  0  0  0  0
   -0.9400    3.9763    0.4517 C   0  0  0  0  0  0  0  0  0  0  0  0
   -2.2243   -0.8518    4.1400 C   0  0  0  0  0  0  0  0  0  0  0  0
   -0.2735   -4.3646   -0.7939 C   0  0  0  0  0  0  0  0  0  0  0  0
    5.6433    0.2219    1.8282 C   0  0  0  0  0  0  0  0  0  0  0  0
   -5.1113    2.0357   -2.3058 C   0  0  0  0  0  0  0  0  0  0  0  0
   -1.6000    0.5354   -1.8797 H   0  0  0  0  0  0  0  0  0  0  0  0
    0.6854   -0.7929   -2.3298 H   0  0  0  0  0  0  0  0  0  0  0  0
    0.6242   -0.9175    1.4236 H   0  0  0  0  0  0  0  0  0  0  0  0
    0.2013    1.7420    1.7606 H   0  0  0  0  0  0  0  0  0  0  0  0
    1.2602    1.4661   -1.9376 H   0  0  0  0  0  0  0  0  0  0  0  0
   -0.3061    2.2284   -1.0825 H   0  0  0  0  0  0  0  0  0  0  0  0
   -0.9957   -2.2746   -1.8007 H   0  0  0  0  0  0  0  0  0  0  0  0
    1.9028   -2.0679    0.1033 H   0  0  0  0  0  0  0  0  0  0  0  0
    2.0955   -2.4144   -1.6068 H   0  0  0  0  0  0  0  0  0  0  0  0
    3.0186    0.0618   -2.8164 H   0  0  0  0  0  0  0  0  0  0  0  0
    2.2552    0.1800    2.0102 H   0  0  0  0  0  0  0  0  0  0  0  0
    3.2928    1.5093    1.6535 H   0  0  0  0  0  0  0  0  0  0  0  0
   -2.6180    1.1742    1.8256 H   0  0  0  0  0  0  0  0  0  0  0  0
   -3.4704   -0.3448    1.9084 H   0  0  0  0  0  0  0  0  0  0  0  0
   -3.4431   -1.2188   -1.6994 H   0  0  0  0  0  0  0  0  0  0  0  0
    3.8019   -1.2092    1.2010 H   0  0  0  0  0  0  0  0  0  0  0  0
   -2.8195   -3.3045   -0.7234 H   0  0  0  0  0  0  0  0  0  0  0  0
   -2.4774   -2.6278    0.8177 H   0  0  0  0  0  0  0  0  0  0  0  0
   -3.7037    2.1769   -0.1535 H   0  0  0  0  0  0  0  0  0  0  0  0
   -4.8877    0.9020    0.0288 H   0  0  0  0  0  0  0  0  0  0  0  0
    1.9510    3.0804    1.0258 H   0  0  0  0  0  0  0  0  0  0  0  0
   -0.9259    0.7412    3.5049 H   0  0  0  0  0  0  0  0  0  0  0  0
   -0.1835   -0.8577    3.5580 H   0  0  0  0  0  0  0  0  0  0  0  0
    4.2146   -1.8534   -2.2729 H   0  0  0  0  0  0  0  0  0  0  0  0
    3.6224    2.1856   -2.1915 H   0  0  0  0  0  0  0  0  0  0  0  0
   -4.9325   -2.3998   -0.5092 H   0  0  0  0  0  0  0  0  0  0  0  0
   -0.5803    4.3042   -0.5284 H   0  0  0  0  0  0  0  0  0  0  0  0
   -0.1243    3.9540    1.1774 H   0  0  0  0  0  0  0  0  0  0  0  0
   -1.6734    4.7080    0.8030 H   0  0  0  0  0  0  0  0  0  0  0  0
   -1.9108   -0.8600    5.1898 H   0  0  0  0  0  0  0  0  0  0  0  0
   -3.1230   -0.2299    4.0835 H   0  0  0  0  0  0  0  0  0  0  0  0
   -2.4881   -1.8798    3.8687 H   0  0  0  0  0  0  0  0  0  0  0  0
    0.4404   -5.0546   -0.3343 H   0  0  0  0  0  0  0  0  0  0  0  0
    0.0079   -4.2428   -1.8447 H   0  0  0  0  0  0  0  0  0  0  0  0
   -1.2659   -4.8148   -0.7131 H   0  0  0  0  0  0  0  0  0  0  0  0
    6.5992    0.7512    1.7783 H   0  0  0  0  0  0  0  0  0  0  0  0
    5.8507   -0.8210    2.0892 H   0  0  0  0  0  0  0  0  0  0  0  0
    5.0405    0.6873    2.6125 H   0  0  0  0  0  0  0  0  0  0  0  0
   -5.1960    1.9509   -3.3924 H   0  0  0  0  0  0  0  0  0  0  0  0
   -4.8268    3.0620   -2.0550 H   0  0  0  0  0  0  0  0  0  0  0  0
   -6.0789    1.7901   -1.8579 H   0  0  0  0  0  0  0  0  0  0  0  0
  1 16  1  0  0  0  0
  1 55  1  0  0  0  0
  2 17  1  0  0  0  0
  2 30  1  0  0  0  0
  3 19  1  0  0  0  0
  3 32  1  0  0  0  0
  4 21  1  0  0  0  0
  4 58  1  0  0  0  0
  5 22  1  0  0  0  0
  5 59  1  0  0  0  0
  6 26  1  0  0  0  0
  6 33  1  0  0  0  0
  7 25  1  0  0  0  0
  7 60  1  0  0  0  0
  8 28  1  0  0  0  0
  8 34  1  0  0  0  0
  9 13  1  0  0  0  0
  9 24  1  0  0  0  0
  9 29  1  0  0  0  0
 10 11  1  0  0  0  0
 10 12  1  0  0  0  0
 10 13  1  0  0  0  0
 10 19  1  0  0  0  0
 11 17  1  0  0  0  0
 11 18  1  0  0  0  0
 11 35  1  0  0  0  0
 12 15  1  0  0  0  0
 12 20  1  0  0  0  0
 12 36  1  0  0  0  0
 13 14  1  0  0  0  0
 13 37  1  0  0  0  0
 14 16  1  0  0  0  0
 14 17  1  0  0  0  0
 14 38  1  0  0  0  0
 15 16  1  0  0  0  0
 15 22  1  0  0  0  0
 15 39  1  0  0  0  0
 16 23  1  0  0  0  0
 17 40  1  0  0  0  0
 18 24  1  0  0  0  0
 18 25  1  0  0  0  0
 18 28  1  0  0  0  0
 19 27  1  0  0  0  0
 19 41  1  0  0  0  0
 20 21  1  0  0  0  0
 20 42  1  0  0  0  0
 20 43  1  0  0  0  0
 21 22  1  0  0  0  0
 21 26  1  0  0  0  0
 22 44  1  0  0  0  0
 23 26  1  0  0  0  0
 23 45  1  0  0  0  0
 23 46  1  0  0  0  0
 24 47  1  0  0  0  0
 24 48  1  0  0  0  0
 25 27  1  0  0  0  0
 25 49  1  0  0  0  0
 26 50  1  0  0  0  0
 27 51  1  0  0  0  0
 27 52  1  0  0  0  0
 28 53  1  0  0  0  0
 28 54  1  0  0  0  0
 29 31  1  0  0  0  0
 29 56  1  0  0  0  0
 29 57  1  0  0  0  0
 30 61  1  0  0  0  0
 30 62  1  0  0  0  0
 30 63  1  0  0  0  0
 31 64  1  0  0  0  0
 31 65  1  0  0  0  0
 31 66  1  0  0  0  0
 32 67  1  0  0  0  0
 32 68  1  0  0  0  0
 32 69  1  0  0  0  0
 33 70  1  0  0  0  0
 33 71  1  0  0  0  0
 33 72  1  0  0  0  0
 34 73  1  0  0  0  0
 34 74  1  0  0  0  0
 34 75  1  0  0  0  0
M  END
> <PUBCHEM_COMPOUND_CID>
100917666

> <PUBCHEM_CONFORMER_RMSD>
1

> <PUBCHEM_CONFORMER_DIVERSEORDER>
1

> <PUBCHEM_MMFF94_PARTIAL_CHARGES>
28
1 -0.68
13 0.27
16 0.28
17 0.28
19 0.28
2 -0.56
21 0.28
22 0.28
24 0.27
25 0.28
26 0.28
28 0.28
29 0.27
3 -0.56
30 0.28
32 0.28
33 0.28
34 0.28
4 -0.68
5 -0.68
55 0.4
58 0.4
59 0.4
6 -0.56
60 0.4
7 -0.68
8 -0.56
9 -0.81

> <PUBCHEM_EFFECTIVE_ROTOR_COUNT>
8

> <PUBCHEM_PHARMACOPHORE_FEATURES>
17
1 1 acceptor
1 1 donor
1 2 acceptor
1 3 acceptor
1 4 acceptor
1 4 donor
1 5 acceptor
1 5 donor
1 6 acceptor
1 7 acceptor
1 7 donor
1 8 acceptor
1 9 cation
6 10 11 18 19 25 27 rings
8 10 11 12 13 14 15 16 17 rings
8 12 15 16 20 21 22 23 26 rings
8 9 10 11 13 14 17 18 24 rings

> <PUBCHEM_HEAVY_ATOM_COUNT>
34

> <PUBCHEM_ATOM_DEF_STEREO_COUNT>
14

> <PUBCHEM_ATOM_UDEF_STEREO_COUNT>
0

> <PUBCHEM_BOND_DEF_STEREO_COUNT>
0

> <PUBCHEM_BOND_UDEF_STEREO_COUNT>
0

> <PUBCHEM_ISOTOPIC_ATOM_COUNT>
0

> <PUBCHEM_COMPONENT_COUNT>
1

> <PUBCHEM_CACTVS_TAUTO_COUNT>
1

> <PUBCHEM_CONFORMER_ID>
0603E1A200000001

> <PUBCHEM_MMFF94_ENERGY>
190.8176

> <PUBCHEM_FEATURE_SELFOVERLAP>
87.761

> <PUBCHEM_SHAPE_FINGERPRINT>
107951 10 17240772735644736859
10863032 1 18412821370176742607
10948715 1 17458626675326803357
12156800 1 16684772768983301444
12553582 1 18269857430873152724
12592029 89 18335426755230028507
12788726 201 18336272322542014984
13140716 1 18055910150567194624
13224815 77 16773808003870355518
13911987 19 18338250339691693757
15420108 30 16531986591830324424
16752209 62 18268155266556235996
16945 1 18342468027398419668
17349148 13 17489875950807469078
20511986 3 17822836659554524768
20600515 1 18058731454021865160
20691752 17 18200331981838186466
20715895 44 18190167993430306413
23559900 14 18272093773511016318
3380486 145 17976550733910943401
404807 14 16903269704120742970
469060 322 18269573752757632731
9981440 41 18337389318759762979

> <PUBCHEM_SHAPE_MULTIPOLES>
647.77
8.44
3.4
2.54
4.22
0.85
-2.75
-1.59
1.92
-1.69
0.89
-1.34
0.13
1.27

> <PUBCHEM_SHAPE_SELFOVERLAP>
1411.345

> <PUBCHEM_SHAPE_VOLUME>
346.5

> <PUBCHEM_COORDINATE_TYPE>
2
5
10

$$$$
