10093576
  -OEChem-03292013303D

 51 54  0     0  0  0  0  0  0999 V2000
    3.3442   -3.4020    0.3990 O   0  0  0  0  0  0  0  0  0  0  0  0
    4.5103   -1.1289    0.3656 O   0  0  0  0  0  0  0  0  0  0  0  0
    5.8458    1.0498    0.3633 O   0  0  0  0  0  0  0  0  0  0  0  0
   -1.7988   -0.4926    1.9581 O   0  0  0  0  0  0  0  0  0  0  0  0
   -1.2253   -0.8496   -2.7943 O   0  0  0  0  0  0  0  0  0  0  0  0
   -5.1255    1.2108   -1.0325 O   0  0  0  0  0  0  0  0  0  0  0  0
   -4.1283    1.9282    2.1209 O   0  0  0  0  0  0  0  0  0  0  0  0
    0.9790   -0.6084   -0.1112 C   0  0  0  0  0  0  0  0  0  0  0  0
    0.9108    0.8888   -0.2364 C   0  0  0  0  0  0  0  0  0  0  0  0
   -0.2099   -1.3495   -0.2010 C   0  0  0  0  0  0  0  0  0  0  0  0
    2.1841   -1.2893    0.0911 C   0  0  0  0  0  0  0  0  0  0  0  0
    2.2258    1.6106   -0.1285 C   0  0  0  0  0  0  0  0  0  0  0  0
    3.4354    0.9378    0.0738 C   0  0  0  0  0  0  0  0  0  0  0  0
   -0.1939   -2.7401   -0.0909 C   0  0  0  0  0  0  0  0  0  0  0  0
    3.4530   -0.5363    0.1901 C   0  0  0  0  0  0  0  0  0  0  0  0
   -1.4875   -0.6840   -0.4092 C   0  0  0  0  0  0  0  0  0  0  0  0
    2.2008   -2.6859    0.2018 C   0  0  0  0  0  0  0  0  0  0  0  0
    1.0111   -3.4073    0.1104 C   0  0  0  0  0  0  0  0  0  0  0  0
    2.2398    3.0103   -0.2351 C   0  0  0  0  0  0  0  0  0  0  0  0
    4.6376    1.6512    0.1683 C   0  0  0  0  0  0  0  0  0  0  0  0
   -2.2453   -0.2745    0.6856 C   0  0  0  0  0  0  0  0  0  0  0  0
   -1.9473   -0.4591   -1.7049 C   0  0  0  0  0  0  0  0  0  0  0  0
   -1.4462   -3.5533   -0.1811 C   0  0  0  0  0  0  0  0  0  0  0  0
   -3.4693    0.3632    0.4838 C   0  0  0  0  0  0  0  0  0  0  0  0
    3.4364    3.7211   -0.1412 C   0  0  0  0  0  0  0  0  0  0  0  0
    4.6343    3.0413    0.0602 C   0  0  0  0  0  0  0  0  0  0  0  0
   -3.1713    0.1785   -1.9066 C   0  0  0  0  0  0  0  0  0  0  0  0
   -3.9323    0.5896   -0.8124 C   0  0  0  0  0  0  0  0  0  0  0  0
   -4.2678    0.7945    1.6259 C   0  0  0  0  0  0  0  0  0  0  0  0
   -5.2962   -0.1466    2.2383 C   0  0  0  0  0  0  0  0  0  0  0  0
   -5.1034    2.6316   -1.1508 C   0  0  0  0  0  0  0  0  0  0  0  0
    0.2622    1.2828    0.5560 H   0  0  0  0  0  0  0  0  0  0  0  0
    0.4828    1.1449   -1.2135 H   0  0  0  0  0  0  0  0  0  0  0  0
    1.0358   -4.4910    0.1980 H   0  0  0  0  0  0  0  0  0  0  0  0
    1.3118    3.5552   -0.3927 H   0  0  0  0  0  0  0  0  0  0  0  0
   -2.1453   -3.2848    0.6174 H   0  0  0  0  0  0  0  0  0  0  0  0
   -1.9297   -3.4207   -1.1543 H   0  0  0  0  0  0  0  0  0  0  0  0
   -1.2412   -4.6246   -0.0742 H   0  0  0  0  0  0  0  0  0  0  0  0
    3.4326    4.8038   -0.2255 H   0  0  0  0  0  0  0  0  0  0  0  0
    5.5574    3.6108    0.1306 H   0  0  0  0  0  0  0  0  0  0  0  0
   -3.5392    0.3577   -2.9140 H   0  0  0  0  0  0  0  0  0  0  0  0
    4.1138   -2.8163    0.4503 H   0  0  0  0  0  0  0  0  0  0  0  0
    6.5453    1.7243    0.3982 H   0  0  0  0  0  0  0  0  0  0  0  0
   -0.9359   -0.9345    1.9638 H   0  0  0  0  0  0  0  0  0  0  0  0
   -1.7088   -0.6058   -3.6021 H   0  0  0  0  0  0  0  0  0  0  0  0
   -5.0379   -0.3292    3.2844 H   0  0  0  0  0  0  0  0  0  0  0  0
   -5.3049   -1.1021    1.7064 H   0  0  0  0  0  0  0  0  0  0  0  0
   -6.2877    0.3070    2.1627 H   0  0  0  0  0  0  0  0  0  0  0  0
   -4.6285    3.0966   -0.2820 H   0  0  0  0  0  0  0  0  0  0  0  0
   -6.1360    2.9855   -1.2150 H   0  0  0  0  0  0  0  0  0  0  0  0
   -4.5765    2.9255   -2.0642 H   0  0  0  0  0  0  0  0  0  0  0  0
  1 17  1  0  0  0  0
  1 42  1  0  0  0  0
  2 15  2  0  0  0  0
  3 20  1  0  0  0  0
  3 43  1  0  0  0  0
  4 21  1  0  0  0  0
  4 44  1  0  0  0  0
  5 22  1  0  0  0  0
  5 45  1  0  0  0  0
  6 28  1  0  0  0  0
  6 31  1  0  0  0  0
  7 29  2  0  0  0  0
  8  9  1  0  0  0  0
  8 10  2  0  0  0  0
  8 11  1  0  0  0  0
  9 12  1  0  0  0  0
  9 32  1  0  0  0  0
  9 33  1  0  0  0  0
 10 14  1  0  0  0  0
 10 16  1  0  0  0  0
 11 15  1  0  0  0  0
 11 17  2  0  0  0  0
 12 13  2  0  0  0  0
 12 19  1  0  0  0  0
 13 15  1  0  0  0  0
 13 20  1  0  0  0  0
 14 18  2  0  0  0  0
 14 23  1  0  0  0  0
 16 21  2  0  0  0  0
 16 22  1  0  0  0  0
 17 18  1  0  0  0  0
 18 34  1  0  0  0  0
 19 25  2  0  0  0  0
 19 35  1  0  0  0  0
 20 26  2  0  0  0  0
 21 24  1  0  0  0  0
 22 27  2  0  0  0  0
 23 36  1  0  0  0  0
 23 37  1  0  0  0  0
 23 38  1  0  0  0  0
 24 28  2  0  0  0  0
 24 29  1  0  0  0  0
 25 26  1  0  0  0  0
 25 39  1  0  0  0  0
 26 40  1  0  0  0  0
 27 28  1  0  0  0  0
 27 41  1  0  0  0  0
 29 30  1  0  0  0  0
 30 46  1  0  0  0  0
 30 47  1  0  0  0  0
 30 48  1  0  0  0  0
 31 49  1  0  0  0  0
 31 50  1  0  0  0  0
 31 51  1  0  0  0  0
M  END
> <PUBCHEM_COMPOUND_CID>
10093576

> <PUBCHEM_CONFORMER_RMSD>
0.8

> <PUBCHEM_CONFORMER_DIVERSEORDER>
2
1

> <PUBCHEM_MMFF94_PARTIAL_CHARGES>
38
1 -0.53
11 0.09
12 -0.14
13 0.09
14 -0.14
15 0.4
17 0.08
18 -0.15
19 -0.15
2 -0.57
20 0.08
21 0.08
22 0.08
23 0.14
24 0.09
25 -0.15
26 -0.15
27 -0.15
28 0.08
29 0.42
3 -0.53
30 0.06
31 0.28
34 0.15
35 0.15
39 0.15
4 -0.53
40 0.15
41 0.15
42 0.45
43 0.45
44 0.45
45 0.45
5 -0.53
6 -0.36
7 -0.57
8 -0.14
9 0.29

> <PUBCHEM_EFFECTIVE_ROTOR_COUNT>
3.2

> <PUBCHEM_PHARMACOPHORE_FEATURES>
11
1 1 donor
1 2 acceptor
1 3 donor
1 4 donor
1 5 donor
1 6 acceptor
1 7 acceptor
6 12 13 19 20 25 26 rings
6 16 21 22 24 27 28 rings
6 8 10 11 14 17 18 rings
6 8 9 11 12 13 15 rings

> <PUBCHEM_HEAVY_ATOM_COUNT>
31

> <PUBCHEM_ATOM_DEF_STEREO_COUNT>
0

> <PUBCHEM_ATOM_UDEF_STEREO_COUNT>
0

> <PUBCHEM_BOND_DEF_STEREO_COUNT>
0

> <PUBCHEM_BOND_UDEF_STEREO_COUNT>
0

> <PUBCHEM_ISOTOPIC_ATOM_COUNT>
0

> <PUBCHEM_COMPONENT_COUNT>
1

> <PUBCHEM_CACTVS_TAUTO_COUNT>
994

> <PUBCHEM_CONFORMER_ID>
009A040800000002

> <PUBCHEM_MMFF94_ENERGY>
121.6043

> <PUBCHEM_FEATURE_SELFOVERLAP>
55.864

> <PUBCHEM_SHAPE_FINGERPRINT>
10165383 225 18044122200269053366
10411042 1 17761765175027014662
10615611 76 17845383158925438521
10906281 52 18268999851297216532
1100329 8 18409724072097614626
11582403 64 16303396209018347855
11640471 11 18060699502615811343
12236239 1 17774427279712319799
12390115 104 18120945168339537916
12633257 1 18263347227210344368
13140716 1 18335982081937973482
13583140 156 18335707083835021151
13590594 115 17979920402379919314
13782708 43 17385725746917291314
14790565 3 18118688949089492372
14955137 171 18123204406599268774
15064981 113 17060345110921070812
15081414 286 18268436746112860790
15324884 4 17531524278905589783
15444296 8 16327655532994946231
15475509 8 17843424898936532454
1813 80 17697883575117447438
20511986 3 17845351341470294004
20739085 24 18124888858549730210
21033648 29 17531254903215494849
21133410 90 16768411441972870793
21756936 100 17988369276859830938
22122407 14 18196658398111745497
22149856 69 15910814359399908529
283562 15 17834107928864980994
335352 9 18409441519315805700
350125 39 18120936376108972494
38570 142 18127997341209409460
392239 28 17981627141011327091
474 4 18413384341283201350
5081480 168 17486517917742138612
513202 73 17261874347946879798
5252454 2 18189344639762585716
59755656 520 18199763577197099774
6034566 193 18191311687291755828
633830 44 18202013117815724638

> <PUBCHEM_SHAPE_MULTIPOLES>
596.88
11.13
4.22
1.63
1.07
1.1
-0.05
-9.02
2.42
-3.69
-0.1
3.2
-0.26
-0.11

> <PUBCHEM_SHAPE_SELFOVERLAP>
1342.14

> <PUBCHEM_SHAPE_VOLUME>
314.3

> <PUBCHEM_COORDINATE_TYPE>
2
5
10

$$$$
