100982103
  -OEChem-03292013293D

 36 38  0     1  0  0  0  0  0999 V2000
    5.8352   -2.1400   -1.5118 Br  0  0  0  0  0  0  0  0  0  0  0  0
   -1.4352   -0.7735    0.1624 O   0  0  0  0  0  0  0  0  0  0  0  0
   -3.3743   -2.1082   -0.1080 O   0  0  0  0  0  0  0  0  0  0  0  0
   -3.6865    1.5575   -2.7003 O   0  0  0  0  0  0  0  0  0  0  0  0
    1.8528    2.0847    1.1911 O   0  0  0  0  0  0  0  0  0  0  0  0
   -3.8607    1.2828   -0.3764 N   0  0  0  0  0  0  0  0  0  0  0  0
   -2.9300   -0.3695   -1.5962 N   0  0  0  0  0  0  0  0  0  0  0  0
    1.1309   -0.1178    1.2920 N   0  0  0  0  0  0  0  0  0  0  0  0
    4.2389    1.3297   -0.1683 N   0  0  0  0  0  0  0  0  0  0  0  0
   -3.5701    0.2412    0.5846 C   0  0  1  0  0  0  0  0  0  0  0  0
   -2.8147   -0.8147   -0.2269 C   0  0  2  0  0  0  0  0  0  0  0  0
   -2.5737    0.6634    1.6407 C   0  0  0  0  0  0  0  0  0  0  0  0
   -1.2337    0.3907    0.9782 C   0  0  1  0  0  0  0  0  0  0  0  0
   -0.1106    0.1380    1.9652 C   0  0  0  0  0  0  0  0  0  0  0  0
   -3.5118    0.9036   -1.6812 C   0  0  0  0  0  0  0  0  0  0  0  0
   -2.9780   -2.7482    1.1011 C   0  0  0  0  0  0  0  0  0  0  0  0
    2.0261    0.8921    0.9542 C   0  0  0  0  0  0  0  0  0  0  0  0
    3.2547    0.4659    0.2362 C   0  0  0  0  0  0  0  0  0  0  0  0
    3.6273   -0.8052   -0.1418 C   0  0  0  0  0  0  0  0  0  0  0  0
    5.2340    0.6291   -0.7986 C   0  0  0  0  0  0  0  0  0  0  0  0
    4.8795   -0.7019   -0.7964 C   0  0  0  0  0  0  0  0  0  0  0  0
   -4.5217   -0.0991    1.0038 H   0  0  0  0  0  0  0  0  0  0  0  0
   -2.6763    1.7060    1.9574 H   0  0  0  0  0  0  0  0  0  0  0  0
   -2.6935    0.0294    2.5268 H   0  0  0  0  0  0  0  0  0  0  0  0
   -0.9696    1.2170    0.3055 H   0  0  0  0  0  0  0  0  0  0  0  0
   -4.3303    2.1539   -0.1500 H   0  0  0  0  0  0  0  0  0  0  0  0
   -2.5720   -0.8828   -2.3951 H   0  0  0  0  0  0  0  0  0  0  0  0
   -0.3209   -0.7521    2.5685 H   0  0  0  0  0  0  0  0  0  0  0  0
    0.0099    0.9932    2.6388 H   0  0  0  0  0  0  0  0  0  0  0  0
    1.3341   -1.0819    1.0513 H   0  0  0  0  0  0  0  0  0  0  0  0
   -3.4947   -3.7114    1.1498 H   0  0  0  0  0  0  0  0  0  0  0  0
   -1.9029   -2.9507    1.1117 H   0  0  0  0  0  0  0  0  0  0  0  0
   -3.2741   -2.1680    1.9786 H   0  0  0  0  0  0  0  0  0  0  0  0
    4.2335    2.3302   -0.0246 H   0  0  0  0  0  0  0  0  0  0  0  0
    3.0712   -1.7173    0.0267 H   0  0  0  0  0  0  0  0  0  0  0  0
    6.1014    1.1424   -1.1903 H   0  0  0  0  0  0  0  0  0  0  0  0
  1 21  1  0  0  0  0
  2 11  1  0  0  0  0
  2 13  1  0  0  0  0
  3 11  1  0  0  0  0
  3 16  1  0  0  0  0
  4 15  2  0  0  0  0
  5 17  2  0  0  0  0
  6 10  1  0  0  0  0
  6 15  1  0  0  0  0
  6 26  1  0  0  0  0
  7 11  1  0  0  0  0
  7 15  1  0  0  0  0
  7 27  1  0  0  0  0
  8 14  1  0  0  0  0
  8 17  1  0  0  0  0
  8 30  1  0  0  0  0
  9 18  1  0  0  0  0
  9 20  1  0  0  0  0
  9 34  1  0  0  0  0
 10 11  1  0  0  0  0
 10 12  1  0  0  0  0
 10 22  1  0  0  0  0
 12 13  1  0  0  0  0
 12 23  1  0  0  0  0
 12 24  1  0  0  0  0
 13 14  1  0  0  0  0
 13 25  1  0  0  0  0
 14 28  1  0  0  0  0
 14 29  1  0  0  0  0
 16 31  1  0  0  0  0
 16 32  1  0  0  0  0
 16 33  1  0  0  0  0
 17 18  1  0  0  0  0
 18 19  2  0  0  0  0
 19 21  1  0  0  0  0
 19 35  1  0  0  0  0
 20 21  2  0  0  0  0
 20 36  1  0  0  0  0
M  END
> <PUBCHEM_COMPOUND_CID>
100982103

> <PUBCHEM_CONFORMER_RMSD>
0.8

> <PUBCHEM_CONFORMER_DIVERSEORDER>
1
64
19
59
20
51
32
33
46
26
41
48
61
35
58
23
45
27
55
2
57
16
13
21
39
37
53
30
65
11
60
52
63
44
24
38
42
40
8
6
9
31
34
12
22
54
25
62
5
29
36
17
3
28
50
15
47
4
10
18
56
43
7
14
49

> <PUBCHEM_MMFF94_PARTIAL_CHARGES>
26
1 -0.06
10 0.3
11 0.86
13 0.28
14 0.3
15 0.69
16 0.28
17 0.71
18 -0.24
19 -0.15
2 -0.56
20 -0.3
21 0.06
26 0.37
27 0.37
3 -0.56
30 0.37
34 0.27
35 0.15
36 0.15
4 -0.57
5 -0.57
6 -0.73
7 -0.73
8 -0.73
9 0.03

> <PUBCHEM_EFFECTIVE_ROTOR_COUNT>
6

> <PUBCHEM_PHARMACOPHORE_FEATURES>
13
1 1 hydrophobe
1 2 acceptor
1 3 acceptor
1 4 acceptor
1 5 acceptor
1 6 donor
1 7 donor
1 8 donor
1 9 cation
1 9 donor
5 2 10 11 12 13 rings
5 6 7 10 11 15 rings
5 9 18 19 20 21 rings

> <PUBCHEM_HEAVY_ATOM_COUNT>
21

> <PUBCHEM_ATOM_DEF_STEREO_COUNT>
3

> <PUBCHEM_ATOM_UDEF_STEREO_COUNT>
0

> <PUBCHEM_BOND_DEF_STEREO_COUNT>
0

> <PUBCHEM_BOND_UDEF_STEREO_COUNT>
0

> <PUBCHEM_ISOTOPIC_ATOM_COUNT>
0

> <PUBCHEM_COMPONENT_COUNT>
1

> <PUBCHEM_CACTVS_TAUTO_COUNT>
15

> <PUBCHEM_CONFORMER_ID>
0604DD5700000001

> <PUBCHEM_MMFF94_ENERGY>
37.6456

> <PUBCHEM_FEATURE_SELFOVERLAP>
66.704

> <PUBCHEM_SHAPE_FINGERPRINT>
10062212 137 16845577495549095763
10447042 23 17918274226169706206
10498660 4 17313652798191587485
10670039 82 15574716859710808910
10764073 3 17986139438227092275
10803635 8 18260546693452938162
11046707 91 15195564615092757912
12633257 1 14404913521594071066
12670546 177 18115311218860282376
14178342 30 12678915574633459125
14848178 5 16845562089997277638
15163728 17 15575289679340768658
15188451 53 13685999986935345885
15342168 16 15068890911697008015
15537594 2 16558764433283718518
16120349 67 17755860814549443149
17780758 139 12823303394205912526
17857418 61 16845569773830932998
18186145 218 18337103557395291008
200 152 17203609280953371120
20621476 91 14476377302666210718
20645477 70 18341903987309340602
20693207 138 18267026243970714586
20775530 9 13826430887988603541
21033650 10 17531252721187420600
21713013 43 18337107981280320171
21864079 5 16660638578937602700
22393880 68 18334012792103857602
235170 7 18335138734754248774
23559900 14 18202562895832404176
27216 239 10881669209736661995
3004659 81 18341339903563784798
312425 54 12750970879849431966
312425 83 17967542289568893222
314194 84 17203611489183739562
3268164 11 17313381283444164715
339767 52 14907887241818938188
351380 3 16773806913186013406
46194498 28 18116155652385799444
4921388 177 18261960738272950851
5161694 15 18411979169802176112
5281201 14 18261959651788506612
559249 180 17344920619741379384
57724786 102 14057274239176892788
59755656 520 18272660005003769179
76465 3 15626208139684158229

> <PUBCHEM_SHAPE_MULTIPOLES>
394.71
12.41
2.13
1.94
14.12
0.84
1.01
5
4.99
1.14
-0.58
-3.08
0.07
1.11

> <PUBCHEM_SHAPE_SELFOVERLAP>
830.458

> <PUBCHEM_SHAPE_VOLUME>
226.5

> <PUBCHEM_COORDINATE_TYPE>
2
5
10

$$$$
