100978860
  -OEChem-03292013293D

 64 66  0     1  0  0  0  0  0999 V2000
    1.8881    1.7613    1.9435 O   0  0  0  0  0  0  0  0  0  0  0  0
    3.7654   -0.6357   -1.3088 O   0  0  0  0  0  0  0  0  0  0  0  0
   -1.7872   -5.3508    0.9832 O   0  0  0  0  0  0  0  0  0  0  0  0
   -3.5252   -3.2920    1.6633 O   0  0  0  0  0  0  0  0  0  0  0  0
   -3.3987    3.7148    0.5378 O   0  0  0  0  0  0  0  0  0  0  0  0
   -2.4174    1.2945   -3.4767 O   0  0  0  0  0  0  0  0  0  0  0  0
   -3.8233    3.2885   -2.1659 O   0  0  0  0  0  0  0  0  0  0  0  0
    2.7056    3.9210    1.8732 O   0  0  0  0  0  0  0  0  0  0  0  0
    6.0541   -0.3207   -1.3166 O   0  0  0  0  0  0  0  0  0  0  0  0
    1.3567    0.3154    0.1168 C   0  0  1  0  0  0  0  0  0  0  0  0
    2.3074   -0.8166    0.5751 C   0  0  1  0  0  0  0  0  0  0  0  0
   -0.0872    0.0872    0.6768 C   0  0  2  0  0  0  0  0  0  0  0  0
    1.7839   -2.1573    0.0406 C   0  0  0  0  0  0  0  0  0  0  0  0
   -0.5220   -1.3754    0.7508 C   0  0  0  0  0  0  0  0  0  0  0  0
    0.3644   -2.4247    0.4569 C   0  0  0  0  0  0  0  0  0  0  0  0
    1.8775    1.7014    0.5326 C   0  0  0  0  0  0  0  0  0  0  0  0
    3.7525   -0.6227    0.1050 C   0  0  0  0  0  0  0  0  0  0  0  0
   -1.0924    0.9489   -0.0880 C   0  0  0  0  0  0  0  0  0  0  0  0
   -1.8250   -1.6964    1.1793 C   0  0  0  0  0  0  0  0  0  0  0  0
   -0.0820   -3.7552    0.5232 C   0  0  0  0  0  0  0  0  0  0  0  0
   -1.3039    0.7312   -1.4494 C   0  0  0  0  0  0  0  0  0  0  0  0
   -1.7979    1.9526    0.5755 C   0  0  0  0  0  0  0  0  0  0  0  0
   -2.2533   -3.0218    1.2574 C   0  0  0  0  0  0  0  0  0  0  0  0
   -1.3838   -4.0517    0.9206 C   0  0  0  0  0  0  0  0  0  0  0  0
   -2.7147    2.7389   -0.1223 C   0  0  0  0  0  0  0  0  0  0  0  0
   -2.2207    1.5173   -2.1474 C   0  0  0  0  0  0  0  0  0  0  0  0
   -2.9262    2.5210   -1.4838 C   0  0  0  0  0  0  0  0  0  0  0  0
    2.3283    2.9374    2.4955 C   0  0  0  0  0  0  0  0  0  0  0  0
    4.9906   -0.4733   -1.9021 C   0  0  0  0  0  0  0  0  0  0  0  0
    2.2854    2.8561    3.9914 C   0  0  0  0  0  0  0  0  0  0  0  0
    4.8512   -0.5076   -3.3939 C   0  0  0  0  0  0  0  0  0  0  0  0
   -2.3714   -5.9058   -0.1939 C   0  0  0  0  0  0  0  0  0  0  0  0
   -3.1230    3.8714    1.9285 C   0  0  0  0  0  0  0  0  0  0  0  0
   -1.6558    0.2490   -4.0781 C   0  0  0  0  0  0  0  0  0  0  0  0
    1.3353    0.2995   -0.9811 H   0  0  0  0  0  0  0  0  0  0  0  0
    2.3155   -0.8521    1.6735 H   0  0  0  0  0  0  0  0  0  0  0  0
   -0.0898    0.4051    1.7292 H   0  0  0  0  0  0  0  0  0  0  0  0
    2.4301   -2.9625    0.4133 H   0  0  0  0  0  0  0  0  0  0  0  0
    1.8181   -2.1897   -1.0556 H   0  0  0  0  0  0  0  0  0  0  0  0
    1.2143    2.4828    0.1427 H   0  0  0  0  0  0  0  0  0  0  0  0
    2.8741    1.9022    0.1280 H   0  0  0  0  0  0  0  0  0  0  0  0
    4.3663   -1.4538    0.4753 H   0  0  0  0  0  0  0  0  0  0  0  0
    4.1907    0.3023    0.4919 H   0  0  0  0  0  0  0  0  0  0  0  0
   -2.5140   -0.9007    1.4547 H   0  0  0  0  0  0  0  0  0  0  0  0
    0.5978   -4.5668    0.2717 H   0  0  0  0  0  0  0  0  0  0  0  0
   -0.7387   -0.0686   -1.9150 H   0  0  0  0  0  0  0  0  0  0  0  0
   -1.5929    2.0781    1.6331 H   0  0  0  0  0  0  0  0  0  0  0  0
   -3.9833   -2.4551    1.8521 H   0  0  0  0  0  0  0  0  0  0  0  0
    1.2579    2.6856    4.3226 H   0  0  0  0  0  0  0  0  0  0  0  0
    2.6373    3.8002    4.4168 H   0  0  0  0  0  0  0  0  0  0  0  0
    2.9399    2.0520    4.3368 H   0  0  0  0  0  0  0  0  0  0  0  0
    4.4469   -1.4740   -3.7052 H   0  0  0  0  0  0  0  0  0  0  0  0
    5.8348   -0.3761   -3.8538 H   0  0  0  0  0  0  0  0  0  0  0  0
    4.2005    0.3063   -3.7232 H   0  0  0  0  0  0  0  0  0  0  0  0
   -2.6456   -6.9432    0.0161 H   0  0  0  0  0  0  0  0  0  0  0  0
   -1.6534   -5.8937   -1.0202 H   0  0  0  0  0  0  0  0  0  0  0  0
   -3.2749   -5.3544   -0.4727 H   0  0  0  0  0  0  0  0  0  0  0  0
   -4.2140    3.9282   -1.5455 H   0  0  0  0  0  0  0  0  0  0  0  0
   -3.4037    2.9794    2.4989 H   0  0  0  0  0  0  0  0  0  0  0  0
   -2.0835    4.1697    2.1033 H   0  0  0  0  0  0  0  0  0  0  0  0
   -3.7529    4.6905    2.2910 H   0  0  0  0  0  0  0  0  0  0  0  0
   -1.9051   -0.7289   -3.6519 H   0  0  0  0  0  0  0  0  0  0  0  0
   -1.9367    0.2142   -5.1360 H   0  0  0  0  0  0  0  0  0  0  0  0
   -0.5814    0.4594   -4.0425 H   0  0  0  0  0  0  0  0  0  0  0  0
  1 16  1  0  0  0  0
  1 28  1  0  0  0  0
  2 17  1  0  0  0  0
  2 29  1  0  0  0  0
  3 24  1  0  0  0  0
  3 32  1  0  0  0  0
  4 23  1  0  0  0  0
  4 48  1  0  0  0  0
  5 25  1  0  0  0  0
  5 33  1  0  0  0  0
  6 26  1  0  0  0  0
  6 34  1  0  0  0  0
  7 27  1  0  0  0  0
  7 58  1  0  0  0  0
  8 28  2  0  0  0  0
  9 29  2  0  0  0  0
 10 11  1  0  0  0  0
 10 12  1  0  0  0  0
 10 16  1  0  0  0  0
 10 35  1  0  0  0  0
 11 13  1  0  0  0  0
 11 17  1  0  0  0  0
 11 36  1  0  0  0  0
 12 14  1  0  0  0  0
 12 18  1  0  0  0  0
 12 37  1  0  0  0  0
 13 15  1  0  0  0  0
 13 38  1  0  0  0  0
 13 39  1  0  0  0  0
 14 15  1  0  0  0  0
 14 19  2  0  0  0  0
 15 20  2  0  0  0  0
 16 40  1  0  0  0  0
 16 41  1  0  0  0  0
 17 42  1  0  0  0  0
 17 43  1  0  0  0  0
 18 21  2  0  0  0  0
 18 22  1  0  0  0  0
 19 23  1  0  0  0  0
 19 44  1  0  0  0  0
 20 24  1  0  0  0  0
 20 45  1  0  0  0  0
 21 26  1  0  0  0  0
 21 46  1  0  0  0  0
 22 25  2  0  0  0  0
 22 47  1  0  0  0  0
 23 24  2  0  0  0  0
 25 27  1  0  0  0  0
 26 27  2  0  0  0  0
 28 30  1  0  0  0  0
 29 31  1  0  0  0  0
 30 49  1  0  0  0  0
 30 50  1  0  0  0  0
 30 51  1  0  0  0  0
 31 52  1  0  0  0  0
 31 53  1  0  0  0  0
 31 54  1  0  0  0  0
 32 55  1  0  0  0  0
 32 56  1  0  0  0  0
 32 57  1  0  0  0  0
 33 59  1  0  0  0  0
 33 60  1  0  0  0  0
 33 61  1  0  0  0  0
 34 62  1  0  0  0  0
 34 63  1  0  0  0  0
 34 64  1  0  0  0  0
M  END
> <PUBCHEM_COMPOUND_CID>
100978860

> <PUBCHEM_CONFORMER_RMSD>
1

> <PUBCHEM_CONFORMER_DIVERSEORDER>
1
5
12
23
11
25
31
13
21
27
17
15
28
19
9
26
24
30
22
6
29
16
20
14
8
18
3
2
4
10
7

> <PUBCHEM_MMFF94_PARTIAL_CHARGES>
38
1 -0.43
12 0.29
13 0.14
14 -0.14
15 -0.14
16 0.28
17 0.28
18 -0.14
19 -0.15
2 -0.43
20 -0.15
21 -0.15
22 -0.15
23 0.08
24 0.08
25 0.08
26 0.08
27 0.08
28 0.66
29 0.66
3 -0.36
30 0.06
31 0.06
32 0.28
33 0.28
34 0.28
4 -0.53
44 0.15
45 0.15
46 0.15
47 0.15
48 0.45
5 -0.36
58 0.45
6 -0.36
7 -0.53
8 -0.57
9 -0.57

> <PUBCHEM_EFFECTIVE_ROTOR_COUNT>
10.8

> <PUBCHEM_PHARMACOPHORE_FEATURES>
10
1 3 acceptor
1 4 donor
1 5 acceptor
1 6 acceptor
1 7 donor
1 8 acceptor
1 9 acceptor
6 10 11 12 13 14 15 rings
6 14 15 19 20 23 24 rings
6 18 21 22 25 26 27 rings

> <PUBCHEM_HEAVY_ATOM_COUNT>
34

> <PUBCHEM_ATOM_DEF_STEREO_COUNT>
3

> <PUBCHEM_ATOM_UDEF_STEREO_COUNT>
0

> <PUBCHEM_BOND_DEF_STEREO_COUNT>
0

> <PUBCHEM_BOND_UDEF_STEREO_COUNT>
0

> <PUBCHEM_ISOTOPIC_ATOM_COUNT>
0

> <PUBCHEM_COMPONENT_COUNT>
1

> <PUBCHEM_CACTVS_TAUTO_COUNT>
288

> <PUBCHEM_CONFORMER_ID>
0604D0AC00000001

> <PUBCHEM_MMFF94_ENERGY>
116.8066

> <PUBCHEM_FEATURE_SELFOVERLAP>
50.769

> <PUBCHEM_SHAPE_FINGERPRINT>
10165383 225 18117297868583554141
10721379 63 17041133223941929053
10764073 3 17556619605375281025
11297750 10 18125447651365088674
11445158 3 16458897802436436686
12160290 23 17822835589780386803
12293681 160 17985270664821293560
12788726 201 18041284369343248410
13149001 5 18343015597601474512
13583140 156 17908127790982726821
13911987 19 17830461570413203862
15775530 1 18269825575279826344
19319366 153 17836651820550385880
20587220 46 16966679867667039113
20600515 1 17174332808279327002
22182313 1 18268418209039123904
22907989 373 17967533501396327902
376196 1 17193979813847292160
57527306 92 16771289993251481473
57527585 103 18268134517289998841

> <PUBCHEM_SHAPE_MULTIPOLES>
646.88
7.62
7.21
3.63
9.42
8.22
2.32
-3.63
5.01
-7.65
-5.27
0.87
-3.24
3.92

> <PUBCHEM_SHAPE_SELFOVERLAP>
1372.185

> <PUBCHEM_SHAPE_VOLUME>
361.3

> <PUBCHEM_COORDINATE_TYPE>
2
5
10

$$$$
