100925468
  -OEChem-03292013293D

 63 65  0     1  0  0  0  0  0999 V2000
    2.1015   -0.8549   -0.7483 O   0  0  0  0  0  0  0  0  0  0  0  0
   -1.9441    0.2783    1.5264 O   0  0  0  0  0  0  0  0  0  0  0  0
    1.7257    1.6659   -1.8238 O   0  0  0  0  0  0  0  0  0  0  0  0
   -2.2992   -1.8122    0.0223 O   0  0  0  0  0  0  0  0  0  0  0  0
   -2.5164   -0.5595   -1.9141 O   0  0  0  0  0  0  0  0  0  0  0  0
   -0.0828   -1.7868    1.8101 O   0  0  0  0  0  0  0  0  0  0  0  0
   -4.4294   -1.0213   -0.3944 O   0  0  0  0  0  0  0  0  0  0  0  0
    0.6967    0.9454    0.2960 C   0  0  1  0  0  0  0  0  0  0  0  0
   -0.7133    1.5347   -0.1596 C   0  0  2  0  0  0  0  0  0  0  0  0
    0.8019   -0.6037   -0.1453 C   0  0  1  0  0  0  0  0  0  0  0  0
   -0.9668    3.0583    0.1422 C   0  0  0  0  0  0  0  0  0  0  0  0
   -0.2807   -0.9937   -1.1945 C   0  0  2  0  0  0  0  0  0  0  0  0
   -1.8804    0.5683    0.1376 C   0  0  1  0  0  0  0  0  0  0  0  0
    1.7749    1.8489   -0.4066 C   0  0  2  0  0  0  0  0  0  0  0  0
   -1.7422   -0.7266   -0.7136 C   0  0  2  0  0  0  0  0  0  0  0  0
    0.2136    3.8790   -0.4457 C   0  0  0  0  0  0  0  0  0  0  0  0
    1.6057    3.3486   -0.1093 C   0  0  0  0  0  0  0  0  0  0  0  0
    0.9823    1.0461    1.8208 C   0  0  0  0  0  0  0  0  0  0  0  0
    0.8122   -1.6277    0.9887 C   0  0  0  0  0  0  0  0  0  0  0  0
    2.9350   -1.7191    0.0416 C   0  0  1  0  0  0  0  0  0  0  0  0
   -2.2414    3.5416   -0.6064 C   0  0  0  0  0  0  0  0  0  0  0  0
   -1.1927    3.4129    1.6213 C   0  0  0  0  0  0  0  0  0  0  0  0
    2.0184   -2.5023    0.9617 C   0  0  0  0  0  0  0  0  0  0  0  0
   -0.1030   -2.4036   -1.7902 C   0  0  0  0  0  0  0  0  0  0  0  0
    3.6908   -2.6432   -0.9140 C   0  0  0  0  0  0  0  0  0  0  0  0
    3.9415   -0.8947    0.7908 C   0  0  0  0  0  0  0  0  0  0  0  0
   -3.6627   -1.8357    0.1019 C   0  0  0  0  0  0  0  0  0  0  0  0
    4.8583   -0.1179    0.2040 C   0  0  0  0  0  0  0  0  0  0  0  0
   -4.1035   -3.0249    0.9004 C   0  0  0  0  0  0  0  0  0  0  0  0
   -0.6767    1.5450   -1.2606 H   0  0  0  0  0  0  0  0  0  0  0  0
   -0.0995   -0.3462   -2.0660 H   0  0  0  0  0  0  0  0  0  0  0  0
   -2.8285    1.0506   -0.1131 H   0  0  0  0  0  0  0  0  0  0  0  0
    2.7760    1.5605   -0.0816 H   0  0  0  0  0  0  0  0  0  0  0  0
    0.1442    4.9262   -0.1238 H   0  0  0  0  0  0  0  0  0  0  0  0
    0.1246    3.8995   -1.5410 H   0  0  0  0  0  0  0  0  0  0  0  0
    2.3316    3.9157   -0.7064 H   0  0  0  0  0  0  0  0  0  0  0  0
    1.8420    3.5731    0.9348 H   0  0  0  0  0  0  0  0  0  0  0  0
    1.8777    0.4779    2.0902 H   0  0  0  0  0  0  0  0  0  0  0  0
    0.1650    0.6745    2.4394 H   0  0  0  0  0  0  0  0  0  0  0  0
    1.2006    2.0545    2.1646 H   0  0  0  0  0  0  0  0  0  0  0  0
   -1.5192    4.4566    1.7168 H   0  0  0  0  0  0  0  0  0  0  0  0
   -0.2965    3.3369    2.2324 H   0  0  0  0  0  0  0  0  0  0  0  0
   -3.1577    3.1554   -0.1484 H   0  0  0  0  0  0  0  0  0  0  0  0
   -2.2305    3.2337   -1.6579 H   0  0  0  0  0  0  0  0  0  0  0  0
   -2.3163    4.6358   -0.5873 H   0  0  0  0  0  0  0  0  0  0  0  0
   -1.9749    2.8017    2.0765 H   0  0  0  0  0  0  0  0  0  0  0  0
    2.4183   -2.6601    1.9667 H   0  0  0  0  0  0  0  0  0  0  0  0
    1.7213   -3.4657    0.5350 H   0  0  0  0  0  0  0  0  0  0  0  0
   -0.2137   -3.1835   -1.0312 H   0  0  0  0  0  0  0  0  0  0  0  0
    0.8763   -2.5163   -2.2635 H   0  0  0  0  0  0  0  0  0  0  0  0
   -0.8551   -2.5900   -2.5646 H   0  0  0  0  0  0  0  0  0  0  0  0
   -2.6726    0.7959    1.9078 H   0  0  0  0  0  0  0  0  0  0  0  0
    2.4421    2.1948   -2.2141 H   0  0  0  0  0  0  0  0  0  0  0  0
   -3.2677    0.0306   -1.7433 H   0  0  0  0  0  0  0  0  0  0  0  0
    2.9943   -3.2969   -1.4520 H   0  0  0  0  0  0  0  0  0  0  0  0
    4.4050   -3.2837   -0.3842 H   0  0  0  0  0  0  0  0  0  0  0  0
    4.2251   -2.0887   -1.6939 H   0  0  0  0  0  0  0  0  0  0  0  0
    3.9429   -0.9386    1.8772 H   0  0  0  0  0  0  0  0  0  0  0  0
    5.5619    0.4460    0.8071 H   0  0  0  0  0  0  0  0  0  0  0  0
    4.9230   -0.0120   -0.8728 H   0  0  0  0  0  0  0  0  0  0  0  0
   -3.6979   -2.9609    1.9132 H   0  0  0  0  0  0  0  0  0  0  0  0
   -3.7720   -3.9435    0.4099 H   0  0  0  0  0  0  0  0  0  0  0  0
   -5.1954   -3.0363    0.9619 H   0  0  0  0  0  0  0  0  0  0  0  0
  1 10  1  0  0  0  0
  1 20  1  0  0  0  0
  2 13  1  0  0  0  0
  2 52  1  0  0  0  0
  3 14  1  0  0  0  0
  3 53  1  0  0  0  0
  4 15  1  0  0  0  0
  4 27  1  0  0  0  0
  5 15  1  0  0  0  0
  5 54  1  0  0  0  0
  6 19  2  0  0  0  0
  7 27  2  0  0  0  0
  8  9  1  0  0  0  0
  8 10  1  0  0  0  0
  8 14  1  0  0  0  0
  8 18  1  0  0  0  0
  9 11  1  0  0  0  0
  9 13  1  0  0  0  0
  9 30  1  0  0  0  0
 10 12  1  0  0  0  0
 10 19  1  0  0  0  0
 11 16  1  0  0  0  0
 11 21  1  0  0  0  0
 11 22  1  0  0  0  0
 12 15  1  0  0  0  0
 12 24  1  0  0  0  0
 12 31  1  0  0  0  0
 13 15  1  0  0  0  0
 13 32  1  0  0  0  0
 14 17  1  0  0  0  0
 14 33  1  0  0  0  0
 16 17  1  0  0  0  0
 16 34  1  0  0  0  0
 16 35  1  0  0  0  0
 17 36  1  0  0  0  0
 17 37  1  0  0  0  0
 18 38  1  0  0  0  0
 18 39  1  0  0  0  0
 18 40  1  0  0  0  0
 19 23  1  0  0  0  0
 20 23  1  0  0  0  0
 20 25  1  0  0  0  0
 20 26  1  0  0  0  0
 21 43  1  0  0  0  0
 21 44  1  0  0  0  0
 21 45  1  0  0  0  0
 22 41  1  0  0  0  0
 22 42  1  0  0  0  0
 22 46  1  0  0  0  0
 23 47  1  0  0  0  0
 23 48  1  0  0  0  0
 24 49  1  0  0  0  0
 24 50  1  0  0  0  0
 24 51  1  0  0  0  0
 25 55  1  0  0  0  0
 25 56  1  0  0  0  0
 25 57  1  0  0  0  0
 26 28  2  0  0  0  0
 26 58  1  0  0  0  0
 27 29  1  0  0  0  0
 28 59  1  0  0  0  0
 28 60  1  0  0  0  0
 29 61  1  0  0  0  0
 29 62  1  0  0  0  0
 29 63  1  0  0  0  0
M  END
> <PUBCHEM_COMPOUND_CID>
100925468

> <PUBCHEM_CONFORMER_RMSD>
0.8

> <PUBCHEM_CONFORMER_DIVERSEORDER>
2
4
3
1

> <PUBCHEM_MMFF94_PARTIAL_CHARGES>
24
1 -0.56
10 0.34
13 0.28
14 0.28
15 0.56
19 0.45
2 -0.68
20 0.42
23 0.06
26 -0.29
27 0.66
28 -0.3
29 0.06
3 -0.68
4 -0.43
5 -0.68
52 0.4
53 0.4
54 0.4
58 0.15
59 0.15
6 -0.57
60 0.15
7 -0.57

> <PUBCHEM_EFFECTIVE_ROTOR_COUNT>
5

> <PUBCHEM_PHARMACOPHORE_FEATURES>
14
1 1 acceptor
1 2 acceptor
1 2 donor
1 28 hydrophobe
1 3 acceptor
1 3 donor
1 5 acceptor
1 5 donor
1 6 acceptor
1 7 acceptor
3 11 21 22 hydrophobe
5 1 10 19 20 23 rings
6 8 9 10 12 13 15 rings
6 8 9 11 14 16 17 rings

> <PUBCHEM_HEAVY_ATOM_COUNT>
29

> <PUBCHEM_ATOM_DEF_STEREO_COUNT>
8

> <PUBCHEM_ATOM_UDEF_STEREO_COUNT>
0

> <PUBCHEM_BOND_DEF_STEREO_COUNT>
0

> <PUBCHEM_BOND_UDEF_STEREO_COUNT>
0

> <PUBCHEM_ISOTOPIC_ATOM_COUNT>
0

> <PUBCHEM_COMPONENT_COUNT>
1

> <PUBCHEM_CACTVS_TAUTO_COUNT>
4

> <PUBCHEM_CONFORMER_ID>
0604001C00000002

> <PUBCHEM_MMFF94_ENERGY>
134.73

> <PUBCHEM_FEATURE_SELFOVERLAP>
71.1

> <PUBCHEM_SHAPE_FINGERPRINT>
10165383 225 17394739813877031173
104564 63 18270673156451770862
10863032 1 17831016832184689762
10948715 1 17618219503602860544
1100329 8 18337112246536487209
11115154 58 17771025438545150365
11578080 2 17460291434758034135
12156800 1 17912677663970027541
12160290 23 17838871773297180561
12293681 4 18334016120086366315
12422481 6 18057344807067168939
12553582 1 18337691748913844755
12592029 89 17761782062710821851
12788726 201 18335143094262280578
13140716 1 18341617014283939257
138480 1 15095640564558241513
14223421 5 18270674265102082802
14713325 29 18054798282287418390
14787075 74 18114184198104502322
14790565 3 17688597477834912789
14955137 171 18269840989923193694
15927050 60 17402617840902584622
16945 1 18337113350110655334
17357779 13 18128231446648525109
1813 80 18130237024545839086
18393751 57 18055045905054322850
18785283 64 17828200227176379464
19591789 44 17040919235300555599
20600515 1 17464488167092573376
20739085 24 18198363903633007083
20905425 154 18411989082465694565
21041028 32 18410290345548192221
23227448 37 18122622756674069828
23557571 272 18270957921848365694
23558518 356 18190187784982367146
23559900 14 18263353845607676755
238 59 17327977433716059191
2748010 2 18198879492491555277
2818148 4 18266765560957115765
34934 24 18119242857672011888
5845 1 17623518299160690286
70251023 43 18409175406799426459
81228 2 18052797175160792201
9999458 23 17617388719847375287

> <PUBCHEM_SHAPE_MULTIPOLES>
555.72
6.12
4.87
1.55
2.05
3.4
0.04
-4.69
0.24
-2.64
0.06
-0.12
-0.24
0.09

> <PUBCHEM_SHAPE_SELFOVERLAP>
1173.094

> <PUBCHEM_SHAPE_VOLUME>
304.9

> <PUBCHEM_COORDINATE_TYPE>
2
5
10

$$$$
