10093830
  -OEChem-03292013303D

 62 65  0     1  0  0  0  0  0999 V2000
    2.4983   -3.1659   -0.5542 O   0  0  0  0  0  0  0  0  0  0  0  0
    1.7961   -0.5843    1.9182 O   0  0  0  0  0  0  0  0  0  0  0  0
    4.4565   -0.7873   -1.6480 O   0  0  0  0  0  0  0  0  0  0  0  0
    4.4696    0.1111    1.5981 O   0  0  0  0  0  0  0  0  0  0  0  0
    0.2014    2.5679   -0.4497 O   0  0  0  0  0  0  0  0  0  0  0  0
   -2.6639   -0.1405    0.4956 O   0  0  0  0  0  0  0  0  0  0  0  0
    0.7609    4.2438   -1.9384 O   0  0  0  0  0  0  0  0  0  0  0  0
   -2.6159   -2.2256   -0.4894 O   0  0  0  0  0  0  0  0  0  0  0  0
    2.0644   -0.7259   -0.9336 C   0  0  1  0  0  0  0  0  0  0  0  0
    1.9921   -1.9342   -0.0158 C   0  0  2  0  0  0  0  0  0  0  0  0
    1.0383    0.3313   -0.3080 C   0  0  2  0  0  0  0  0  0  0  0  0
    2.6613   -1.5042    1.2460 C   0  0  1  0  0  0  0  0  0  0  0  0
    3.5591   -0.2671   -0.6662 C   0  0  1  0  0  0  0  0  0  0  0  0
    1.1212   -3.1591   -0.1511 C   0  0  0  0  0  0  0  0  0  0  0  0
    3.9505   -0.8616    0.7120 C   0  0  1  0  0  0  0  0  0  0  0  0
    1.4311    0.5996    1.1881 C   0  0  1  0  0  0  0  0  0  0  0  0
    1.8063   -1.0271   -2.4157 C   0  0  0  0  0  0  0  0  0  0  0  0
   -0.4509   -0.1521   -0.4350 C   0  0  0  0  0  0  0  0  0  0  0  0
    1.1093    1.6881   -1.0682 C   0  0  0  0  0  0  0  0  0  0  0  0
   -1.2834   -0.1927    0.8566 C   0  0  1  0  0  0  0  0  0  0  0  0
    0.3380    1.2620    1.9760 C   0  0  0  0  0  0  0  0  0  0  0  0
   -0.9476    0.9084    1.8253 C   0  0  0  0  0  0  0  0  0  0  0  0
   -2.0365    1.5066    2.6638 C   0  0  0  0  0  0  0  0  0  0  0  0
    0.1175    3.8313   -0.9828 C   0  0  0  0  0  0  0  0  0  0  0  0
   -3.0833   -1.0999   -0.3853 C   0  0  0  0  0  0  0  0  0  0  0  0
   -0.8833    4.6523   -0.2276 C   0  0  0  0  0  0  0  0  0  0  0  0
   -4.1963   -0.5356   -1.2425 C   0  0  0  0  0  0  0  0  0  0  0  0
   -5.5975   -0.8377   -0.6888 C   0  0  0  0  0  0  0  0  0  0  0  0
   -5.7823   -0.1573    0.6689 C   0  0  0  0  0  0  0  0  0  0  0  0
   -5.8310   -2.3441   -0.5486 C   0  0  0  0  0  0  0  0  0  0  0  0
    2.8784   -2.3265    1.9349 H   0  0  0  0  0  0  0  0  0  0  0  0
    3.6876    0.8160   -0.6894 H   0  0  0  0  0  0  0  0  0  0  0  0
    0.3840   -3.2154   -0.9398 H   0  0  0  0  0  0  0  0  0  0  0  0
    0.8591   -3.7023    0.7480 H   0  0  0  0  0  0  0  0  0  0  0  0
    4.7204   -1.6320    0.5793 H   0  0  0  0  0  0  0  0  0  0  0  0
    2.2869    1.2843    1.2202 H   0  0  0  0  0  0  0  0  0  0  0  0
    2.0342   -0.1573   -3.0402 H   0  0  0  0  0  0  0  0  0  0  0  0
    0.7696   -1.3141   -2.6114 H   0  0  0  0  0  0  0  0  0  0  0  0
    2.4233   -1.8558   -2.7795 H   0  0  0  0  0  0  0  0  0  0  0  0
   -0.4754   -1.1495   -0.8752 H   0  0  0  0  0  0  0  0  0  0  0  0
   -0.9792    0.4549   -1.1849 H   0  0  0  0  0  0  0  0  0  0  0  0
    0.8318    1.5612   -2.1211 H   0  0  0  0  0  0  0  0  0  0  0  0
    2.1110    2.1254   -1.0266 H   0  0  0  0  0  0  0  0  0  0  0  0
   -1.1129   -1.1431    1.3813 H   0  0  0  0  0  0  0  0  0  0  0  0
    0.6235    2.0121    2.7077 H   0  0  0  0  0  0  0  0  0  0  0  0
    4.3957   -1.7576   -1.6289 H   0  0  0  0  0  0  0  0  0  0  0  0
    4.5956   -0.3182    2.4614 H   0  0  0  0  0  0  0  0  0  0  0  0
   -1.6459    2.2193    3.3980 H   0  0  0  0  0  0  0  0  0  0  0  0
   -2.5683    0.7231    3.2132 H   0  0  0  0  0  0  0  0  0  0  0  0
   -2.7537    2.0422    2.0334 H   0  0  0  0  0  0  0  0  0  0  0  0
   -0.9462    5.6492   -0.6727 H   0  0  0  0  0  0  0  0  0  0  0  0
   -1.8674    4.1806   -0.2868 H   0  0  0  0  0  0  0  0  0  0  0  0
   -0.5674    4.7528    0.8138 H   0  0  0  0  0  0  0  0  0  0  0  0
   -4.0836   -0.9639   -2.2461 H   0  0  0  0  0  0  0  0  0  0  0  0
   -4.0480    0.5447   -1.3630 H   0  0  0  0  0  0  0  0  0  0  0  0
   -6.3368   -0.4310   -1.3894 H   0  0  0  0  0  0  0  0  0  0  0  0
   -6.8181   -0.2667    1.0088 H   0  0  0  0  0  0  0  0  0  0  0  0
   -5.5680    0.9147    0.6032 H   0  0  0  0  0  0  0  0  0  0  0  0
   -5.1391   -0.5905    1.4418 H   0  0  0  0  0  0  0  0  0  0  0  0
   -5.6466   -2.8563   -1.4988 H   0  0  0  0  0  0  0  0  0  0  0  0
   -6.8694   -2.5416   -0.2607 H   0  0  0  0  0  0  0  0  0  0  0  0
   -5.1887   -2.7943    0.2151 H   0  0  0  0  0  0  0  0  0  0  0  0
  1 10  1  0  0  0  0
  1 14  1  0  0  0  0
  2 12  1  0  0  0  0
  2 16  1  0  0  0  0
  3 13  1  0  0  0  0
  3 46  1  0  0  0  0
  4 15  1  0  0  0  0
  4 47  1  0  0  0  0
  5 19  1  0  0  0  0
  5 24  1  0  0  0  0
  6 20  1  0  0  0  0
  6 25  1  0  0  0  0
  7 24  2  0  0  0  0
  8 25  2  0  0  0  0
  9 10  1  0  0  0  0
  9 11  1  0  0  0  0
  9 13  1  0  0  0  0
  9 17  1  0  0  0  0
 10 12  1  0  0  0  0
 10 14  1  0  0  0  0
 11 16  1  0  0  0  0
 11 18  1  0  0  0  0
 11 19  1  0  0  0  0
 12 15  1  0  0  0  0
 12 31  1  0  0  0  0
 13 15  1  0  0  0  0
 13 32  1  0  0  0  0
 14 33  1  0  0  0  0
 14 34  1  0  0  0  0
 15 35  1  0  0  0  0
 16 21  1  0  0  0  0
 16 36  1  0  0  0  0
 17 37  1  0  0  0  0
 17 38  1  0  0  0  0
 17 39  1  0  0  0  0
 18 20  1  0  0  0  0
 18 40  1  0  0  0  0
 18 41  1  0  0  0  0
 19 42  1  0  0  0  0
 19 43  1  0  0  0  0
 20 22  1  0  0  0  0
 20 44  1  0  0  0  0
 21 22  2  0  0  0  0
 21 45  1  0  0  0  0
 22 23  1  0  0  0  0
 23 48  1  0  0  0  0
 23 49  1  0  0  0  0
 23 50  1  0  0  0  0
 24 26  1  0  0  0  0
 25 27  1  0  0  0  0
 26 51  1  0  0  0  0
 26 52  1  0  0  0  0
 26 53  1  0  0  0  0
 27 28  1  0  0  0  0
 27 54  1  0  0  0  0
 27 55  1  0  0  0  0
 28 29  1  0  0  0  0
 28 30  1  0  0  0  0
 28 56  1  0  0  0  0
 29 57  1  0  0  0  0
 29 58  1  0  0  0  0
 29 59  1  0  0  0  0
 30 60  1  0  0  0  0
 30 61  1  0  0  0  0
 30 62  1  0  0  0  0
M  END
> <PUBCHEM_COMPOUND_CID>
10093830

> <PUBCHEM_CONFORMER_RMSD>
1

> <PUBCHEM_CONFORMER_DIVERSEORDER>
1
10
2
13
17
6
9
15
8
14
12
11
5
16
4
7
3

> <PUBCHEM_MMFF94_PARTIAL_CHARGES>
29
1 -0.3
10 -0.04
12 0.38
13 0.28
14 -0.05
15 0.28
16 0.42
19 0.28
2 -0.56
20 0.42
21 -0.29
22 -0.28
23 0.14
24 0.66
25 0.66
26 0.06
27 0.06
3 -0.68
33 0.1
34 0.1
4 -0.68
45 0.15
46 0.4
47 0.4
5 -0.43
6 -0.43
7 -0.57
8 -0.57
9 0.09

> <PUBCHEM_EFFECTIVE_ROTOR_COUNT>
8.4

> <PUBCHEM_PHARMACOPHORE_FEATURES>
11
1 1 acceptor
1 2 acceptor
1 3 acceptor
1 3 donor
1 4 acceptor
1 4 donor
1 7 acceptor
1 8 acceptor
3 28 29 30 hydrophobe
6 11 16 18 20 21 22 rings
8 2 9 10 11 12 13 15 16 rings

> <PUBCHEM_HEAVY_ATOM_COUNT>
30

> <PUBCHEM_ATOM_DEF_STEREO_COUNT>
8

> <PUBCHEM_ATOM_UDEF_STEREO_COUNT>
0

> <PUBCHEM_BOND_DEF_STEREO_COUNT>
0

> <PUBCHEM_BOND_UDEF_STEREO_COUNT>
0

> <PUBCHEM_ISOTOPIC_ATOM_COUNT>
0

> <PUBCHEM_COMPONENT_COUNT>
1

> <PUBCHEM_CACTVS_TAUTO_COUNT>
1

> <PUBCHEM_CONFORMER_ID>
009A050600000001

> <PUBCHEM_MMFF94_ENERGY>
110.0986

> <PUBCHEM_FEATURE_SELFOVERLAP>
55.842

> <PUBCHEM_SHAPE_FINGERPRINT>
10863032 1 16700628796609103154
10930396 42 18193814138083083272
11578080 2 18055907693936196288
12166972 35 18271243928195012607
12553582 1 18262814998387682667
12788726 201 18115022987741818057
13004483 165 18263625295513247939
133893 2 18119553147352573265
13692114 37 17255394921856073705
13911987 19 17898036700647287678
14787075 74 17703215351828687730
14863182 85 17489313035119120406
15163728 17 17101727644650611805
15210252 30 18336550498709191599
15439362 3 17975136753199423157
15664445 248 18411146852469390908
16945 1 17053319029670793810
17492 54 18191323748013149188
1813 80 18411981364746859081
20600515 1 18341883147315643555
20691752 17 18265913383874986242
20775530 9 17911518697126413999
21033650 10 16589995906061820935
23419403 2 17628597982646381648
23559900 14 18267294516972447999
238 59 17828221096227584365
266924 78 17830489371947260921
3380486 145 18122920737099855968
46194498 28 18116144649106556311
469060 322 18337397049690651328
54040823 5 17968090936732936618
57527585 21 17464584920306004828
7164475 11 18117276948034673774
7495541 125 17967815007086564595
81228 2 17824829927595241124
9981440 41 12399728733318328782

> <PUBCHEM_SHAPE_MULTIPOLES>
570.43
8.95
4.18
2.06
12.71
5.05
-0.5
-7.09
0.91
-0.08
1.93
-0.72
0.89
-0.85

> <PUBCHEM_SHAPE_SELFOVERLAP>
1209.729

> <PUBCHEM_SHAPE_VOLUME>
314.5

> <PUBCHEM_COORDINATE_TYPE>
2
5
10

$$$$
