100935409
  -OEChem-03292013293D

 70 72  0     1  0  0  0  0  0999 V2000
    0.8252    3.5142    0.5525 O   0  0  0  0  0  0  0  0  0  0  0  0
   -3.2846    2.3635    0.2020 O   0  0  0  0  0  0  0  0  0  0  0  0
   -4.3312    0.7819   -2.0987 O   0  0  0  0  0  0  0  0  0  0  0  0
   -2.0117   -3.1142    0.7966 O   0  0  0  0  0  0  0  0  0  0  0  0
   -4.5001   -3.4759    0.0214 O   0  0  0  0  0  0  0  0  0  0  0  0
    4.4403   -2.9228   -1.0307 O   0  0  0  0  0  0  0  0  0  0  0  0
    6.1577   -2.1436    0.2337 O   0  0  0  0  0  0  0  0  0  0  0  0
   -0.5548    1.0960    1.2979 C   0  0  2  0  0  0  0  0  0  0  0  0
   -0.8764    1.8825    0.0166 C   0  0  2  0  0  0  0  0  0  0  0  0
   -0.8532   -0.4299    1.2004 C   0  0  1  0  0  0  0  0  0  0  0  0
   -0.6000    3.3328    0.4818 C   0  0  1  0  0  0  0  0  0  0  0  0
   -1.2581    1.9202    2.3860 C   0  0  0  0  0  0  0  0  0  0  0  0
   -1.1306    3.3858    1.9278 C   0  0  0  0  0  0  0  0  0  0  0  0
   -2.3054    1.5979   -0.5032 C   0  0  1  0  0  0  0  0  0  0  0  0
   -2.0915   -0.7479    0.3535 C   0  0  0  0  0  0  0  0  0  0  0  0
   -2.7396    0.1427   -0.4290 C   0  0  0  0  0  0  0  0  0  0  0  0
    0.3698   -1.0905    0.5101 C   0  0  0  0  0  0  0  0  0  0  0  0
   -0.9622   -0.9962    2.6348 C   0  0  0  0  0  0  0  0  0  0  0  0
   -1.1340    4.4474   -0.4092 C   0  0  0  0  0  0  0  0  0  0  0  0
   -2.6092   -2.1487    0.3431 C   0  0  0  0  0  0  0  0  0  0  0  0
    1.4971   -1.2894    1.5092 C   0  0  0  0  0  0  0  0  0  0  0  0
   -3.9033   -0.2266   -1.2527 C   0  0  0  0  0  0  0  0  0  0  0  0
   -4.5242   -1.4177   -1.1814 C   0  0  0  0  0  0  0  0  0  0  0  0
   -3.9504   -2.4199   -0.2575 C   0  0  0  0  0  0  0  0  0  0  0  0
    2.6826   -1.9157    0.8253 C   0  0  0  0  0  0  0  0  0  0  0  0
   -5.7517   -1.8545   -1.9250 C   0  0  0  0  0  0  0  0  0  0  0  0
    3.9243   -1.4055    0.7099 C   0  0  0  0  0  0  0  0  0  0  0  0
    4.4043   -0.1063    1.3175 C   0  0  0  0  0  0  0  0  0  0  0  0
    4.9624   -2.1929   -0.0177 C   0  0  0  0  0  0  0  0  0  0  0  0
    4.8782    0.9136    0.2741 C   0  0  0  0  0  0  0  0  0  0  0  0
    3.8035    1.2772   -0.7127 C   0  0  0  0  0  0  0  0  0  0  0  0
    3.8247    1.1333   -2.0513 C   0  0  0  0  0  0  0  0  0  0  0  0
    4.9502    0.5291   -2.8419 C   0  0  0  0  0  0  0  0  0  0  0  0
    2.6518    1.5803   -2.8832 C   0  0  0  0  0  0  0  0  0  0  0  0
    0.5175    1.2212    1.4986 H   0  0  0  0  0  0  0  0  0  0  0  0
   -0.1595    1.5920   -0.7620 H   0  0  0  0  0  0  0  0  0  0  0  0
   -0.7812    1.7841    3.3628 H   0  0  0  0  0  0  0  0  0  0  0  0
   -2.3092    1.6412    2.5046 H   0  0  0  0  0  0  0  0  0  0  0  0
   -2.1114    3.8698    1.9920 H   0  0  0  0  0  0  0  0  0  0  0  0
   -0.4510    3.9297    2.5938 H   0  0  0  0  0  0  0  0  0  0  0  0
   -2.3188    1.9499   -1.5418 H   0  0  0  0  0  0  0  0  0  0  0  0
    0.7128   -0.4878   -0.3410 H   0  0  0  0  0  0  0  0  0  0  0  0
    0.1121   -2.0683    0.0849 H   0  0  0  0  0  0  0  0  0  0  0  0
   -0.2067   -0.5875    3.3156 H   0  0  0  0  0  0  0  0  0  0  0  0
   -0.8989   -2.0880    2.6774 H   0  0  0  0  0  0  0  0  0  0  0  0
   -1.9351   -0.7348    3.0708 H   0  0  0  0  0  0  0  0  0  0  0  0
   -0.7366    4.3461   -1.4254 H   0  0  0  0  0  0  0  0  0  0  0  0
   -0.8051    5.4273   -0.0438 H   0  0  0  0  0  0  0  0  0  0  0  0
   -2.2245    4.4681   -0.4676 H   0  0  0  0  0  0  0  0  0  0  0  0
    1.0001    4.4007    0.9120 H   0  0  0  0  0  0  0  0  0  0  0  0
    1.7657   -0.3616    2.0126 H   0  0  0  0  0  0  0  0  0  0  0  0
    1.2283   -2.0088    2.2902 H   0  0  0  0  0  0  0  0  0  0  0  0
   -3.6802    1.8200    0.9034 H   0  0  0  0  0  0  0  0  0  0  0  0
    2.4696   -2.8915    0.3902 H   0  0  0  0  0  0  0  0  0  0  0  0
   -5.0474    0.4577   -2.6649 H   0  0  0  0  0  0  0  0  0  0  0  0
   -5.5052   -2.6745   -2.6078 H   0  0  0  0  0  0  0  0  0  0  0  0
   -6.2171   -1.0619   -2.5145 H   0  0  0  0  0  0  0  0  0  0  0  0
   -6.5144   -2.2099   -1.2232 H   0  0  0  0  0  0  0  0  0  0  0  0
    5.2370   -0.3236    1.9993 H   0  0  0  0  0  0  0  0  0  0  0  0
    3.6424    0.3649    1.9442 H   0  0  0  0  0  0  0  0  0  0  0  0
    5.1716    1.8313    0.7999 H   0  0  0  0  0  0  0  0  0  0  0  0
    5.7889    0.5542   -0.2110 H   0  0  0  0  0  0  0  0  0  0  0  0
    5.1311   -3.4177   -1.5208 H   0  0  0  0  0  0  0  0  0  0  0  0
    2.9202    1.7278   -0.2620 H   0  0  0  0  0  0  0  0  0  0  0  0
    2.2180    0.7276   -3.4158 H   0  0  0  0  0  0  0  0  0  0  0  0
    5.3649    1.2721   -3.5311 H   0  0  0  0  0  0  0  0  0  0  0  0
    5.7721    0.1548   -2.2296 H   0  0  0  0  0  0  0  0  0  0  0  0
    1.8590    2.0327   -2.2784 H   0  0  0  0  0  0  0  0  0  0  0  0
    2.9714    2.3253   -3.6192 H   0  0  0  0  0  0  0  0  0  0  0  0
    4.5804   -0.3168   -3.4315 H   0  0  0  0  0  0  0  0  0  0  0  0
  1 11  1  0  0  0  0
  1 50  1  0  0  0  0
  2 14  1  0  0  0  0
  2 53  1  0  0  0  0
  3 22  1  0  0  0  0
  3 55  1  0  0  0  0
  4 20  2  0  0  0  0
  5 24  2  0  0  0  0
  6 29  1  0  0  0  0
  6 63  1  0  0  0  0
  7 29  2  0  0  0  0
  8  9  1  0  0  0  0
  8 10  1  0  0  0  0
  8 12  1  0  0  0  0
  8 35  1  0  0  0  0
  9 11  1  0  0  0  0
  9 14  1  0  0  0  0
  9 36  1  0  0  0  0
 10 15  1  0  0  0  0
 10 17  1  0  0  0  0
 10 18  1  0  0  0  0
 11 13  1  0  0  0  0
 11 19  1  0  0  0  0
 12 13  1  0  0  0  0
 12 37  1  0  0  0  0
 12 38  1  0  0  0  0
 13 39  1  0  0  0  0
 13 40  1  0  0  0  0
 14 16  1  0  0  0  0
 14 41  1  0  0  0  0
 15 16  2  0  0  0  0
 15 20  1  0  0  0  0
 16 22  1  0  0  0  0
 17 21  1  0  0  0  0
 17 42  1  0  0  0  0
 17 43  1  0  0  0  0
 18 44  1  0  0  0  0
 18 45  1  0  0  0  0
 18 46  1  0  0  0  0
 19 47  1  0  0  0  0
 19 48  1  0  0  0  0
 19 49  1  0  0  0  0
 20 24  1  0  0  0  0
 21 25  1  0  0  0  0
 21 51  1  0  0  0  0
 21 52  1  0  0  0  0
 22 23  2  0  0  0  0
 23 24  1  0  0  0  0
 23 26  1  0  0  0  0
 25 27  2  0  0  0  0
 25 54  1  0  0  0  0
 26 56  1  0  0  0  0
 26 57  1  0  0  0  0
 26 58  1  0  0  0  0
 27 28  1  0  0  0  0
 27 29  1  0  0  0  0
 28 30  1  0  0  0  0
 28 59  1  0  0  0  0
 28 60  1  0  0  0  0
 30 31  1  0  0  0  0
 30 61  1  0  0  0  0
 30 62  1  0  0  0  0
 31 32  2  0  0  0  0
 31 64  1  0  0  0  0
 32 33  1  0  0  0  0
 32 34  1  0  0  0  0
 33 66  1  0  0  0  0
 33 67  1  0  0  0  0
 33 70  1  0  0  0  0
 34 65  1  0  0  0  0
 34 68  1  0  0  0  0
 34 69  1  0  0  0  0
M  END
> <PUBCHEM_COMPOUND_CID>
100935409

> <PUBCHEM_CONFORMER_RMSD>
1.2

> <PUBCHEM_CONFORMER_DIVERSEORDER>
1
143
112
48
63
127
28
107
121
18
122
149
139
59
105
136
43
13
109
42
102
129
50
29
35
84
99
88
128
15
9
125
86
90
148
93
64
40
69
106
104
95
73
137
76
147
47
26
31
78
74
71
92
113
142
145
87
67
132
61
130
146
85
51
124
119
118
101
66
65
57
68
123
37
115
23
27
72
54
100
14
133
7
30
17
126
138
135
46
98
89
79
81
144
36
52
75
24
94
25
53
20
77
134
55
108
11
60
56
117
111
12
21
131
38
39
96
82
58
116
32
10
41
62
16
45
4
44
91
33
70
141
19
6
22
103
5
110
83
34
80
49
114
8
97
3
2
140
120

> <PUBCHEM_MMFF94_PARTIAL_CHARGES>
33
1 -0.68
10 0.14
11 0.28
14 0.42
15 -0.12
16 -0.14
2 -0.68
20 0.56
21 0.14
22 0.08
23 -0.12
24 0.56
25 -0.29
26 0.14
27 -0.12
28 0.14
29 0.71
3 -0.53
30 0.14
31 -0.29
32 -0.28
33 0.14
34 0.14
4 -0.57
5 -0.57
50 0.4
53 0.4
54 0.15
55 0.45
6 -0.65
63 0.5
64 0.15
7 -0.57

> <PUBCHEM_EFFECTIVE_ROTOR_COUNT>
8

> <PUBCHEM_PHARMACOPHORE_FEATURES>
15
1 1 acceptor
1 1 donor
1 2 acceptor
1 2 donor
1 3 donor
1 4 acceptor
1 5 acceptor
1 6 acceptor
1 7 acceptor
3 32 33 34 hydrophobe
3 6 7 29 anion
4 27 28 30 31 hydrophobe
5 8 9 11 12 13 rings
6 15 16 20 22 23 24 rings
6 8 9 10 14 15 16 rings

> <PUBCHEM_HEAVY_ATOM_COUNT>
34

> <PUBCHEM_ATOM_DEF_STEREO_COUNT>
3

> <PUBCHEM_ATOM_UDEF_STEREO_COUNT>
2

> <PUBCHEM_BOND_DEF_STEREO_COUNT>
1

> <PUBCHEM_BOND_UDEF_STEREO_COUNT>
0

> <PUBCHEM_ISOTOPIC_ATOM_COUNT>
0

> <PUBCHEM_COMPONENT_COUNT>
1

> <PUBCHEM_CACTVS_TAUTO_COUNT>
8

> <PUBCHEM_CONFORMER_ID>
060426F100000001

> <PUBCHEM_MMFF94_ENERGY>
94.4528

> <PUBCHEM_FEATURE_SELFOVERLAP>
76.346

> <PUBCHEM_SHAPE_FINGERPRINT>
10764073 3 12893706202016932875
11513181 2 18266758891627611134
12166972 35 18040708178321436534
12788726 201 18270694073380800457
13782708 43 17131009611304765742
14068700 675 18335406942782911426
14114206 34 17685544000821303340
14790565 3 18052533267086684521
15420108 30 17252850668949116032
15484559 13 14815251613569145286
15775530 1 17251182104029864411
15968369 26 17685474838719627145
16090146 7 17983019947223530265
17349148 13 18186803543868041274
17909252 39 18268986655975541507
1813 80 17346320461442199339
20775438 99 17190617649556302111
2132832 1 18260827086287346086
22907989 373 18339375084046624274
23557571 272 18201149962728555954
23559900 14 18338221679422809178
24771750 20 17540537254859376837
3388396 114 18263661700432009716
3493558 16 18040989614290202727
463206 1 18334859471421840842
57527585 103 17459497561281577306
6669772 16 17691679408552457340

> <PUBCHEM_SHAPE_MULTIPOLES>
658.62
11.51
4.63
2.43
7.08
2.63
-0.78
-8.96
-6.86
-1.9
0.74
0.8
0.76
-1.9

> <PUBCHEM_SHAPE_SELFOVERLAP>
1390.779

> <PUBCHEM_SHAPE_VOLUME>
366.2

> <PUBCHEM_COORDINATE_TYPE>
2
5
10

$$$$
