10090417
  -OEChem-03292013303D

 47 49  0     0  0  0  0  0  0999 V2000
   -1.1040   -1.1443   -0.3737 O   0  0  0  0  0  0  0  0  0  0  0  0
    3.6057   -2.1332   -0.1123 O   0  0  0  0  0  0  0  0  0  0  0  0
    1.8408    2.1407    1.1717 O   0  0  0  0  0  0  0  0  0  0  0  0
   -3.5939   -0.9096    1.9550 O   0  0  0  0  0  0  0  0  0  0  0  0
   -2.5357    2.6933    0.7970 O   0  0  0  0  0  0  0  0  0  0  0  0
   -7.3149   -0.3460   -0.9611 O   0  0  0  0  0  0  0  0  0  0  0  0
    0.3510    0.4170    0.3673 C   0  0  0  0  0  0  0  0  0  0  0  0
    2.7244    0.0013    0.5281 C   0  0  0  0  0  0  0  0  0  0  0  0
    0.2072   -0.8813   -0.1109 C   0  0  0  0  0  0  0  0  0  0  0  0
    1.6396    0.8729    0.6959 C   0  0  0  0  0  0  0  0  0  0  0  0
   -0.9580    0.9666    0.3915 C   0  0  0  0  0  0  0  0  0  0  0  0
   -1.8010   -0.0195   -0.0664 C   0  0  0  0  0  0  0  0  0  0  0  0
    2.5381   -1.2963    0.0442 C   0  0  0  0  0  0  0  0  0  0  0  0
    4.1042    0.4696    0.8720 C   0  0  0  0  0  0  0  0  0  0  0  0
    1.2657   -1.7705   -0.2886 C   0  0  0  0  0  0  0  0  0  0  0  0
   -3.2192   -0.1088   -0.2808 C   0  0  0  0  0  0  0  0  0  0  0  0
    4.8090    1.1128   -0.2944 C   0  0  0  0  0  0  0  0  0  0  0  0
   -1.3688    2.2787    0.8027 C   0  0  0  0  0  0  0  0  0  0  0  0
   -4.0777   -0.5504    0.7314 C   0  0  0  0  0  0  0  0  0  0  0  0
   -3.7498    0.2524   -1.5235 C   0  0  0  0  0  0  0  0  0  0  0  0
    5.9481    0.7187   -0.8954 C   0  0  0  0  0  0  0  0  0  0  0  0
   -5.4515   -0.6298    0.5033 C   0  0  0  0  0  0  0  0  0  0  0  0
   -5.1235    0.1727   -1.7518 C   0  0  0  0  0  0  0  0  0  0  0  0
   -5.9744   -0.2684   -0.7383 C   0  0  0  0  0  0  0  0  0  0  0  0
    6.6857   -0.4991   -0.4055 C   0  0  0  0  0  0  0  0  0  0  0  0
    6.5989    1.4100   -2.0597 C   0  0  0  0  0  0  0  0  0  0  0  0
    3.9539   -2.9495    1.0024 C   0  0  0  0  0  0  0  0  0  0  0  0
    4.0838    1.1830    1.7053 H   0  0  0  0  0  0  0  0  0  0  0  0
    4.6748   -0.3569    1.2979 H   0  0  0  0  0  0  0  0  0  0  0  0
    1.1067   -2.7744   -0.6651 H   0  0  0  0  0  0  0  0  0  0  0  0
    4.3295    2.0104   -0.6840 H   0  0  0  0  0  0  0  0  0  0  0  0
   -0.5674    2.9520    1.1453 H   0  0  0  0  0  0  0  0  0  0  0  0
   -3.1016    0.5987   -2.3254 H   0  0  0  0  0  0  0  0  0  0  0  0
    2.7456    2.4375    0.9906 H   0  0  0  0  0  0  0  0  0  0  0  0
   -6.1098   -0.9742    1.2972 H   0  0  0  0  0  0  0  0  0  0  0  0
   -5.5250    0.4557   -2.7210 H   0  0  0  0  0  0  0  0  0  0  0  0
    6.5647   -0.6939    0.6619 H   0  0  0  0  0  0  0  0  0  0  0  0
    6.3727   -1.3828   -0.9704 H   0  0  0  0  0  0  0  0  0  0  0  0
    7.7642   -0.3725   -0.5569 H   0  0  0  0  0  0  0  0  0  0  0  0
    6.0130    2.2726   -2.3940 H   0  0  0  0  0  0  0  0  0  0  0  0
    7.5956    1.7694   -1.7845 H   0  0  0  0  0  0  0  0  0  0  0  0
    6.6940    0.7224   -2.9062 H   0  0  0  0  0  0  0  0  0  0  0  0
    3.3134   -3.8366    1.0186 H   0  0  0  0  0  0  0  0  0  0  0  0
    3.8589   -2.4138    1.9526 H   0  0  0  0  0  0  0  0  0  0  0  0
    4.9923   -3.2705    0.8823 H   0  0  0  0  0  0  0  0  0  0  0  0
   -2.6265   -0.8390    1.9791 H   0  0  0  0  0  0  0  0  0  0  0  0
   -7.7505   -0.6696   -0.1539 H   0  0  0  0  0  0  0  0  0  0  0  0
  1  9  1  0  0  0  0
  1 12  1  0  0  0  0
  2 13  1  0  0  0  0
  2 27  1  0  0  0  0
  3 10  1  0  0  0  0
  3 34  1  0  0  0  0
  4 19  1  0  0  0  0
  4 46  1  0  0  0  0
  5 18  2  0  0  0  0
  6 24  1  0  0  0  0
  6 47  1  0  0  0  0
  7  9  1  0  0  0  0
  7 10  2  0  0  0  0
  7 11  1  0  0  0  0
  8 10  1  0  0  0  0
  8 13  2  0  0  0  0
  8 14  1  0  0  0  0
  9 15  2  0  0  0  0
 11 12  2  0  0  0  0
 11 18  1  0  0  0  0
 12 16  1  0  0  0  0
 13 15  1  0  0  0  0
 14 17  1  0  0  0  0
 14 28  1  0  0  0  0
 14 29  1  0  0  0  0
 15 30  1  0  0  0  0
 16 19  2  0  0  0  0
 16 20  1  0  0  0  0
 17 21  2  0  0  0  0
 17 31  1  0  0  0  0
 18 32  1  0  0  0  0
 19 22  1  0  0  0  0
 20 23  2  0  0  0  0
 20 33  1  0  0  0  0
 21 25  1  0  0  0  0
 21 26  1  0  0  0  0
 22 24  2  0  0  0  0
 22 35  1  0  0  0  0
 23 24  1  0  0  0  0
 23 36  1  0  0  0  0
 25 37  1  0  0  0  0
 25 38  1  0  0  0  0
 25 39  1  0  0  0  0
 26 40  1  0  0  0  0
 26 41  1  0  0  0  0
 26 42  1  0  0  0  0
 27 43  1  0  0  0  0
 27 44  1  0  0  0  0
 27 45  1  0  0  0  0
M  END
> <PUBCHEM_COMPOUND_CID>
10090417

> <PUBCHEM_CONFORMER_RMSD>
0.8

> <PUBCHEM_CONFORMER_DIVERSEORDER>
1
28
10
15
20
29
9
19
18
4
26
16
25
6
24
27
5
8
11
23
2
12
21
17
13
22
3
14
7

> <PUBCHEM_MMFF94_PARTIAL_CHARGES>
35
1 -0.28
10 0.08
11 -0.09
12 0.09
13 0.08
14 0.28
15 -0.15
16 0.05
17 -0.29
18 0.6
19 0.08
2 -0.36
20 -0.15
21 -0.28
22 -0.15
23 -0.15
24 0.08
25 0.14
26 0.14
27 0.28
3 -0.53
30 0.15
31 0.15
32 0.06
33 0.15
34 0.45
35 0.15
36 0.15
4 -0.53
46 0.45
47 0.45
5 -0.57
6 -0.53
8 -0.14
9 0.14

> <PUBCHEM_EFFECTIVE_ROTOR_COUNT>
5

> <PUBCHEM_PHARMACOPHORE_FEATURES>
10
1 1 acceptor
1 2 acceptor
1 3 donor
1 4 donor
1 5 acceptor
1 6 donor
3 21 25 26 hydrophobe
5 1 7 9 11 12 rings
6 16 19 20 22 23 24 rings
6 7 8 9 10 13 15 rings

> <PUBCHEM_HEAVY_ATOM_COUNT>
27

> <PUBCHEM_ATOM_DEF_STEREO_COUNT>
0

> <PUBCHEM_ATOM_UDEF_STEREO_COUNT>
0

> <PUBCHEM_BOND_DEF_STEREO_COUNT>
0

> <PUBCHEM_BOND_UDEF_STEREO_COUNT>
0

> <PUBCHEM_ISOTOPIC_ATOM_COUNT>
0

> <PUBCHEM_COMPONENT_COUNT>
1

> <PUBCHEM_CACTVS_TAUTO_COUNT>
45

> <PUBCHEM_CONFORMER_ID>
0099F7B100000001

> <PUBCHEM_MMFF94_ENERGY>
74.7836

> <PUBCHEM_FEATURE_SELFOVERLAP>
50.848

> <PUBCHEM_SHAPE_FINGERPRINT>
10366900 7 18341895211825823280
10670039 82 18410864231369895572
10673678 19 17749965487152277380
10906281 52 18341908346373994491
11719270 70 18261103063959801466
11991303 11 18261115239817929070
12011746 2 18413390959811973784
12236239 1 16917066698543008689
12788726 201 18131069294749717129
13140716 1 17982157118089067912
13533116 47 18338228280539506330
13540713 5 18125447415036217232
13668630 136 17203608224676175461
13782708 43 12319736981606446829
13911987 19 18410851071257434191
14347332 77 17560528283449633508
14767858 380 18413111671501215796
14840074 17 18131353024747756093
15183329 4 17775574152186763374
15537594 2 18201433696599764039
15961568 22 17095242527633063804
18222031 100 17417804050164821955
18335252 98 17967537891528078675
19319366 153 18408599258754694470
200 152 18131342000062520441
21267235 1 18202847659999695417
21641784 216 18337682935894830580
21792961 116 18186802469667391786
221357 26 17988926673964182104
23522609 53 18057913305892301888
23559900 14 18040151825174096427
23569914 152 16979833135347316277
23569914 2 16086667228650490404
23569943 247 16987176937092853942
25147074 1 18270965613855211872
34797466 226 17385724690196443878
350125 39 18271808990697623273
4073 2 17530688731509230795
4098825 35 18041554724833771653
4340502 62 17385441025419772474
5104073 3 18200025127767634809
5486654 2 18411982489843882247
59755656 215 18413670214443508390

> <PUBCHEM_SHAPE_MULTIPOLES>
520.43
16.44
2.17
1.41
0.02
0.28
0.28
-0.19
7.16
2.25
-0.65
-0.3
-0.37
-0.9

> <PUBCHEM_SHAPE_SELFOVERLAP>
1137.917

> <PUBCHEM_SHAPE_VOLUME>
285.3

> <PUBCHEM_COORDINATE_TYPE>
2
5
10

$$$$
