10096775
  -OEChem-03292013303D

 69 75  0     1  0  0  0  0  0999 V2000
   -4.1793    1.5214   -1.5395 O   0  0  0  0  0  0  0  0  0  0  0  0
    2.0869   -0.8768   -1.1372 O   0  0  0  0  0  0  0  0  0  0  0  0
   -6.7808    0.7946   -1.7666 O   0  0  0  0  0  0  0  0  0  0  0  0
   -0.0161   -0.7597   -1.9967 O   0  0  0  0  0  0  0  0  0  0  0  0
   -4.5426   -2.0638    1.7879 O   0  0  0  0  0  0  0  0  0  0  0  0
    4.8788   -0.8797   -0.9122 O   0  0  0  0  0  0  0  0  0  0  0  0
    6.8469   -1.1054   -1.9881 O   0  0  0  0  0  0  0  0  0  0  0  0
   -1.8746    0.8598   -0.0387 C   0  0  1  0  0  0  0  0  0  0  0  0
    0.3424   -0.3676    0.4058 C   0  0  1  0  0  0  0  0  0  0  0  0
   -0.4870    0.9020    0.6175 C   0  0  1  0  0  0  0  0  0  0  0  0
   -2.6831   -0.3403    0.5415 C   0  0  1  0  0  0  0  0  0  0  0  0
   -4.7949    0.8691   -0.3985 C   0  0  1  0  0  0  0  0  0  0  0  0
   -4.1570   -0.4896   -0.0507 C   0  0  1  0  0  0  0  0  0  0  0  0
   -4.0066    2.1559   -0.2783 C   0  0  1  0  0  0  0  0  0  0  0  0
    1.7141   -0.0001    1.0075 C   0  0  2  0  0  0  0  0  0  0  0  0
   -2.6133    2.1750    0.2237 C   0  0  0  0  0  0  0  0  0  0  0  0
   -0.4166   -1.5418    1.0186 C   0  0  0  0  0  0  0  0  0  0  0  0
   -1.8410   -1.6488    0.4462 C   0  0  0  0  0  0  0  0  0  0  0  0
    0.4766    2.0082    0.2311 C   0  0  0  0  0  0  0  0  0  0  0  0
    1.7593    1.5547    0.9302 C   0  0  0  0  0  0  0  0  0  0  0  0
    2.7319   -0.7505    0.1393 C   0  0  2  0  0  0  0  0  0  0  0  0
   -6.3044    0.9826   -0.4314 C   0  0  2  0  0  0  0  0  0  0  0  0
    0.7373   -0.6788   -1.0384 C   0  0  0  0  0  0  0  0  0  0  0  0
   -4.1916   -1.3847   -1.3098 C   0  0  0  0  0  0  0  0  0  0  0  0
   -5.0105   -1.2175    1.0245 C   0  0  0  0  0  0  0  0  0  0  0  0
    4.0622   -0.0424   -0.0750 C   0  0  1  0  0  0  0  0  0  0  0  0
   -7.0447    0.0219    0.4341 C   0  0  0  0  0  0  0  0  0  0  0  0
    3.0276   -2.1596    0.6731 C   0  0  0  0  0  0  0  0  0  0  0  0
   -6.4673   -0.9675    1.1144 C   0  0  0  0  0  0  0  0  0  0  0  0
    4.7757    0.2131    1.2408 C   0  0  0  0  0  0  0  0  0  0  0  0
    6.1489    0.7580    0.9594 C   0  0  0  0  0  0  0  0  0  0  0  0
    6.1872   -0.5680   -1.1036 C   0  0  0  0  0  0  0  0  0  0  0  0
    6.7961    0.4316   -0.1772 C   0  0  0  0  0  0  0  0  0  0  0  0
    6.6968    1.6464    2.0417 C   0  0  0  0  0  0  0  0  0  0  0  0
    8.1428    0.9485   -0.5955 C   0  0  0  0  0  0  0  0  0  0  0  0
   -1.7691    0.7300   -1.1216 H   0  0  0  0  0  0  0  0  0  0  0  0
   -0.6607    1.0117    1.7019 H   0  0  0  0  0  0  0  0  0  0  0  0
   -2.7979   -0.1303    1.6169 H   0  0  0  0  0  0  0  0  0  0  0  0
   -4.5266    3.0881   -0.1029 H   0  0  0  0  0  0  0  0  0  0  0  0
    1.8002   -0.2923    2.0614 H   0  0  0  0  0  0  0  0  0  0  0  0
   -2.6336    2.3920    1.2988 H   0  0  0  0  0  0  0  0  0  0  0  0
   -2.0843    3.0051   -0.2583 H   0  0  0  0  0  0  0  0  0  0  0  0
   -0.4773   -1.4229    2.1077 H   0  0  0  0  0  0  0  0  0  0  0  0
    0.0884   -2.4934    0.8329 H   0  0  0  0  0  0  0  0  0  0  0  0
   -1.7594   -1.9620   -0.5997 H   0  0  0  0  0  0  0  0  0  0  0  0
   -2.3441   -2.4692    0.9666 H   0  0  0  0  0  0  0  0  0  0  0  0
    0.1609    2.9937    0.5860 H   0  0  0  0  0  0  0  0  0  0  0  0
    0.6185    2.0629   -0.8539 H   0  0  0  0  0  0  0  0  0  0  0  0
    2.6272    1.9966    0.4429 H   0  0  0  0  0  0  0  0  0  0  0  0
    1.7562    1.9451    1.9568 H   0  0  0  0  0  0  0  0  0  0  0  0
   -6.6043    1.9925   -0.1267 H   0  0  0  0  0  0  0  0  0  0  0  0
   -5.1890   -1.4024   -1.7634 H   0  0  0  0  0  0  0  0  0  0  0  0
   -3.4948   -1.0237   -2.0739 H   0  0  0  0  0  0  0  0  0  0  0  0
   -3.9446   -2.4270   -1.0800 H   0  0  0  0  0  0  0  0  0  0  0  0
    3.9199    0.8785   -0.6527 H   0  0  0  0  0  0  0  0  0  0  0  0
   -8.1191    0.1592    0.5277 H   0  0  0  0  0  0  0  0  0  0  0  0
    3.3536   -2.1560    1.7171 H   0  0  0  0  0  0  0  0  0  0  0  0
    2.1424   -2.7979    0.6155 H   0  0  0  0  0  0  0  0  0  0  0  0
    3.7746   -2.6938    0.0765 H   0  0  0  0  0  0  0  0  0  0  0  0
   -7.0526   -1.6189    1.7539 H   0  0  0  0  0  0  0  0  0  0  0  0
   -6.3616    1.4735   -2.3226 H   0  0  0  0  0  0  0  0  0  0  0  0
    4.9162   -0.6964    1.8340 H   0  0  0  0  0  0  0  0  0  0  0  0
    4.2130    0.9225    1.8551 H   0  0  0  0  0  0  0  0  0  0  0  0
    6.1532    2.5964    2.0604 H   0  0  0  0  0  0  0  0  0  0  0  0
    7.7612    1.8644    1.9300 H   0  0  0  0  0  0  0  0  0  0  0  0
    6.5788    1.1631    3.0180 H   0  0  0  0  0  0  0  0  0  0  0  0
    8.4262    1.8697   -0.0804 H   0  0  0  0  0  0  0  0  0  0  0  0
    8.1465    1.1867   -1.6652 H   0  0  0  0  0  0  0  0  0  0  0  0
    8.9141    0.1948   -0.4077 H   0  0  0  0  0  0  0  0  0  0  0  0
  1 12  1  0  0  0  0
  1 14  1  0  0  0  0
  2 21  1  0  0  0  0
  2 23  1  0  0  0  0
  3 22  1  0  0  0  0
  3 61  1  0  0  0  0
  4 23  2  0  0  0  0
  5 25  2  0  0  0  0
  6 26  1  0  0  0  0
  6 32  1  0  0  0  0
  7 32  2  0  0  0  0
  8 10  1  0  0  0  0
  8 11  1  0  0  0  0
  8 16  1  0  0  0  0
  8 36  1  0  0  0  0
  9 10  1  0  0  0  0
  9 15  1  0  0  0  0
  9 17  1  0  0  0  0
  9 23  1  0  0  0  0
 10 19  1  0  0  0  0
 10 37  1  0  0  0  0
 11 13  1  0  0  0  0
 11 18  1  0  0  0  0
 11 38  1  0  0  0  0
 12 13  1  0  0  0  0
 12 14  1  0  0  0  0
 12 22  1  0  0  0  0
 13 24  1  0  0  0  0
 13 25  1  0  0  0  0
 14 16  1  0  0  0  0
 14 39  1  0  0  0  0
 15 20  1  0  0  0  0
 15 21  1  0  0  0  0
 15 40  1  0  0  0  0
 16 41  1  0  0  0  0
 16 42  1  0  0  0  0
 17 18  1  0  0  0  0
 17 43  1  0  0  0  0
 17 44  1  0  0  0  0
 18 45  1  0  0  0  0
 18 46  1  0  0  0  0
 19 20  1  0  0  0  0
 19 47  1  0  0  0  0
 19 48  1  0  0  0  0
 20 49  1  0  0  0  0
 20 50  1  0  0  0  0
 21 26  1  0  0  0  0
 21 28  1  0  0  0  0
 22 27  1  0  0  0  0
 22 51  1  0  0  0  0
 24 52  1  0  0  0  0
 24 53  1  0  0  0  0
 24 54  1  0  0  0  0
 25 29  1  0  0  0  0
 26 30  1  0  0  0  0
 26 55  1  0  0  0  0
 27 29  2  0  0  0  0
 27 56  1  0  0  0  0
 28 57  1  0  0  0  0
 28 58  1  0  0  0  0
 28 59  1  0  0  0  0
 29 60  1  0  0  0  0
 30 31  1  0  0  0  0
 30 62  1  0  0  0  0
 30 63  1  0  0  0  0
 31 33  2  0  0  0  0
 31 34  1  0  0  0  0
 32 33  1  0  0  0  0
 33 35  1  0  0  0  0
 34 64  1  0  0  0  0
 34 65  1  0  0  0  0
 34 66  1  0  0  0  0
 35 67  1  0  0  0  0
 35 68  1  0  0  0  0
 35 69  1  0  0  0  0
M  END
> <PUBCHEM_COMPOUND_CID>
10096775

> <PUBCHEM_CONFORMER_RMSD>
0.8

> <PUBCHEM_CONFORMER_DIVERSEORDER>
1
3
2

> <PUBCHEM_MMFF94_PARTIAL_CHARGES>
29
1 -0.3
12 -0.04
13 0.16
14 -0.05
16 0.09
2 -0.43
21 0.28
22 0.51
23 0.66
25 0.49
26 0.28
27 -0.29
29 -0.14
3 -0.68
30 0.14
31 -0.28
32 0.71
33 -0.12
34 0.14
35 0.14
39 0.1
4 -0.57
5 -0.57
56 0.15
6 -0.43
60 0.15
61 0.4
7 -0.57
9 0.06

> <PUBCHEM_EFFECTIVE_ROTOR_COUNT>
3.4

> <PUBCHEM_PHARMACOPHORE_FEATURES>
12
1 1 acceptor
1 3 acceptor
1 3 donor
1 4 acceptor
1 5 acceptor
1 7 acceptor
5 2 9 15 21 23 rings
5 9 10 15 19 20 rings
6 12 13 22 25 27 29 rings
6 6 26 30 31 32 33 rings
6 8 9 10 11 17 18 rings
7 1 8 11 12 13 14 16 rings

> <PUBCHEM_HEAVY_ATOM_COUNT>
35

> <PUBCHEM_ATOM_DEF_STEREO_COUNT>
11

> <PUBCHEM_ATOM_UDEF_STEREO_COUNT>
0

> <PUBCHEM_BOND_DEF_STEREO_COUNT>
0

> <PUBCHEM_BOND_UDEF_STEREO_COUNT>
0

> <PUBCHEM_ISOTOPIC_ATOM_COUNT>
0

> <PUBCHEM_COMPONENT_COUNT>
1

> <PUBCHEM_CACTVS_TAUTO_COUNT>
1

> <PUBCHEM_CONFORMER_ID>
009A108700000001

> <PUBCHEM_MMFF94_ENERGY>
116.0675

> <PUBCHEM_FEATURE_SELFOVERLAP>
61.508

> <PUBCHEM_SHAPE_FINGERPRINT>
10 15 18410848898088287456
10076449 9 17846506920170513412
10290309 65 18261108509730685715
10299344 5 15267344019972716300
10940486 97 17677620924410515799
11007060 377 18408327666170035353
11135926 11 17060344002265022742
11315181 36 17095242540860531161
11488393 25 17129878118639126718
11991303 11 17703225225864050158
12011746 2 18343865502471915934
12166972 35 16733271239189800517
12236239 1 16443063889760193697
12516196 113 18412263938839617289
13782708 43 17775291513311144070
13811026 1 18412261744095316138
14068700 675 17459197446516293523
14118638 360 18187644661473116107
14251764 18 16081090389461702830
14294032 229 17677333779792482756
14840074 17 17203324507383897973
14849402 71 15140976092062238742
14856354 85 17385449851567054987
14955137 171 17846784035291494176
15082195 135 18335434469703052596
15131766 46 13612231647467810458
15183329 4 16415481549903730942
15361156 5 18411983602630620245
15419008 47 18342737416606984120
1577012 14 16732703848303283562
15849732 13 18131351929705435084
18608769 82 18260834838761799267
18681886 176 17894632595320389825
20105231 36 18343030994542779287
20511986 3 17603854585917574539
21033648 29 18342447170979007145
21267235 1 18410580604613997793
21521721 280 17489305308873472010
21792961 116 18272939289526228346
23516275 137 14979420424745362510
23559900 14 18336541702948991985
23569914 152 16906935497540939940
23569943 247 16700905869091901102
23576562 1 18058435664526410221
24771293 8 18057026116653253144
24771750 20 17972051493839311684
335352 9 18334009494212214645
3418910 222 18188225289613122828
34797466 226 17917992780883525336
350125 39 18260830401844089913
4073 2 17822295669019990827
4093350 32 17203894050312513424
4340502 62 18186516597119222738
44317340 157 17846497058999578312
5104073 3 18337388219200766890
5109719 28 18271800294164452512
5265222 85 18042417982910841422
59755656 215 18411134723202067907

> <PUBCHEM_SHAPE_MULTIPOLES>
679.2
20.64
2.02
1.56
13.37
0.27
-0.2
2.54
-1.77
-0.84
0.26
0.53
-0.24
2.45

> <PUBCHEM_SHAPE_SELFOVERLAP>
1507.07

> <PUBCHEM_SHAPE_VOLUME>
361.2

> <PUBCHEM_COORDINATE_TYPE>
2
5
10

$$$$
