100992321
  -OEChem-03292013293D

 48 51  0     1  0  0  0  0  0999 V2000
   -1.1100   -1.9637    2.6407 O   0  0  0  0  0  0  0  0  0  0  0  0
    3.3125   -1.6185    0.5995 O   0  0  0  0  0  0  0  0  0  0  0  0
   -0.9557   -4.2126   -2.2555 O   0  0  0  0  0  0  0  0  0  0  0  0
    1.2941   -0.4423    0.4984 N   0  0  0  0  0  0  0  0  0  0  0  0
   -1.1557    0.0508    1.5320 N   0  0  0  0  0  0  0  0  0  0  0  0
    1.2771    1.8321   -0.2015 N   0  0  0  0  0  0  0  0  0  0  0  0
   -1.0723   -5.9793   -0.7884 N   0  0  0  0  0  0  0  0  0  0  0  0
    0.4988   -1.6215    0.8773 C   0  0  2  0  0  0  0  0  0  0  0  0
   -0.8584    0.7443    0.2933 C   0  0  2  0  0  0  0  0  0  0  0  0
    0.6580    0.7611    0.1843 C   0  0  0  0  0  0  0  0  0  0  0  0
    0.0120   -2.4197   -0.3265 C   0  0  0  0  0  0  0  0  0  0  0  0
   -0.6376   -1.2020    1.7987 C   0  0  0  0  0  0  0  0  0  0  0  0
   -1.4794    2.1351    0.2900 C   0  0  0  0  0  0  0  0  0  0  0  0
    2.6849   -0.5835    0.3943 C   0  0  0  0  0  0  0  0  0  0  0  0
   -0.2882   -3.8657    0.0505 C   0  0  0  0  0  0  0  0  0  0  0  0
    3.4101    0.6388   -0.0126 C   0  0  0  0  0  0  0  0  0  0  0  0
    2.6749    1.7940   -0.2940 C   0  0  0  0  0  0  0  0  0  0  0  0
   -2.9479    2.0901   -0.0384 C   0  0  0  0  0  0  0  0  0  0  0  0
    4.8054    0.6344   -0.1180 C   0  0  0  0  0  0  0  0  0  0  0  0
    3.3585    2.9514   -0.6837 C   0  0  0  0  0  0  0  0  0  0  0  0
   -0.8002   -4.6711   -1.1274 C   0  0  0  0  0  0  0  0  0  0  0  0
   -3.3693    2.1822   -1.3648 C   0  0  0  0  0  0  0  0  0  0  0  0
   -3.8870    1.9562    0.9840 C   0  0  0  0  0  0  0  0  0  0  0  0
    5.4723    1.7950   -0.5073 C   0  0  0  0  0  0  0  0  0  0  0  0
    4.7502    2.9524   -0.7899 C   0  0  0  0  0  0  0  0  0  0  0  0
   -4.7301    2.1407   -1.6689 C   0  0  0  0  0  0  0  0  0  0  0  0
   -5.2478    1.9146    0.6802 C   0  0  0  0  0  0  0  0  0  0  0  0
   -5.6693    2.0068   -0.6462 C   0  0  0  0  0  0  0  0  0  0  0  0
    1.1545   -2.2586    1.4857 H   0  0  0  0  0  0  0  0  0  0  0  0
   -1.2446    0.1475   -0.5398 H   0  0  0  0  0  0  0  0  0  0  0  0
    0.7772   -2.4131   -1.1136 H   0  0  0  0  0  0  0  0  0  0  0  0
   -0.8843   -1.9708   -0.7680 H   0  0  0  0  0  0  0  0  0  0  0  0
   -1.9406    0.3561    2.0981 H   0  0  0  0  0  0  0  0  0  0  0  0
   -1.3264    2.6400    1.2535 H   0  0  0  0  0  0  0  0  0  0  0  0
   -0.9981    2.7827   -0.4541 H   0  0  0  0  0  0  0  0  0  0  0  0
   -1.0497   -3.9095    0.8371 H   0  0  0  0  0  0  0  0  0  0  0  0
    0.6178   -4.3538    0.4291 H   0  0  0  0  0  0  0  0  0  0  0  0
    5.3863   -0.2579    0.0978 H   0  0  0  0  0  0  0  0  0  0  0  0
    2.8086    3.8623   -0.9081 H   0  0  0  0  0  0  0  0  0  0  0  0
   -2.6474    2.2842   -2.1708 H   0  0  0  0  0  0  0  0  0  0  0  0
   -3.5766    1.8944    2.0233 H   0  0  0  0  0  0  0  0  0  0  0  0
    6.5552    1.7969   -0.5905 H   0  0  0  0  0  0  0  0  0  0  0  0
    5.2702    3.8564   -1.0933 H   0  0  0  0  0  0  0  0  0  0  0  0
   -5.0584    2.2119   -2.7017 H   0  0  0  0  0  0  0  0  0  0  0  0
   -5.9793    1.8129    1.4765 H   0  0  0  0  0  0  0  0  0  0  0  0
   -6.7288    1.9748   -0.8828 H   0  0  0  0  0  0  0  0  0  0  0  0
   -0.9357   -6.3360    0.1520 H   0  0  0  0  0  0  0  0  0  0  0  0
   -1.4225   -6.6351   -1.4788 H   0  0  0  0  0  0  0  0  0  0  0  0
  1 12  2  0  0  0  0
  2 14  2  0  0  0  0
  3 21  2  0  0  0  0
  4  8  1  0  0  0  0
  4 10  1  0  0  0  0
  4 14  1  0  0  0  0
  5  9  1  0  0  0  0
  5 12  1  0  0  0  0
  5 33  1  0  0  0  0
  6 10  2  0  0  0  0
  6 17  1  0  0  0  0
  7 21  1  0  0  0  0
  7 47  1  0  0  0  0
  7 48  1  0  0  0  0
  8 11  1  0  0  0  0
  8 12  1  0  0  0  0
  8 29  1  0  0  0  0
  9 10  1  0  0  0  0
  9 13  1  0  0  0  0
  9 30  1  0  0  0  0
 11 15  1  0  0  0  0
 11 31  1  0  0  0  0
 11 32  1  0  0  0  0
 13 18  1  0  0  0  0
 13 34  1  0  0  0  0
 13 35  1  0  0  0  0
 14 16  1  0  0  0  0
 15 21  1  0  0  0  0
 15 36  1  0  0  0  0
 15 37  1  0  0  0  0
 16 17  1  0  0  0  0
 16 19  2  0  0  0  0
 17 20  2  0  0  0  0
 18 22  2  0  0  0  0
 18 23  1  0  0  0  0
 19 24  1  0  0  0  0
 19 38  1  0  0  0  0
 20 25  1  0  0  0  0
 20 39  1  0  0  0  0
 22 26  1  0  0  0  0
 22 40  1  0  0  0  0
 23 27  2  0  0  0  0
 23 41  1  0  0  0  0
 24 25  2  0  0  0  0
 24 42  1  0  0  0  0
 25 43  1  0  0  0  0
 26 28  2  0  0  0  0
 26 44  1  0  0  0  0
 27 28  1  0  0  0  0
 27 45  1  0  0  0  0
 28 46  1  0  0  0  0
M  END
> <PUBCHEM_COMPOUND_CID>
100992321

> <PUBCHEM_CONFORMER_RMSD>
0.8

> <PUBCHEM_CONFORMER_DIVERSEORDER>
1
6
34
13
28
11
24
31
30
21
33
9
8
20
29
26
18
15
17
37
22
5
12
36
32
3
27
23
16
10
35
14
25
19
7
4
2

> <PUBCHEM_MMFF94_PARTIAL_CHARGES>
39
1 -0.57
10 0.45
12 0.57
13 0.14
14 0.54
15 0.06
16 0.09
17 0.18
18 -0.14
19 -0.15
2 -0.57
20 -0.15
21 0.57
22 -0.15
23 -0.15
24 -0.15
25 -0.15
26 -0.15
27 -0.15
28 -0.15
3 -0.57
33 0.37
38 0.15
39 0.15
4 -0.42
40 0.15
41 0.15
42 0.15
43 0.15
44 0.15
45 0.15
46 0.15
47 0.37
48 0.37
5 -0.73
6 -0.63
7 -0.8
8 0.36
9 0.36

> <PUBCHEM_EFFECTIVE_ROTOR_COUNT>
5.6

> <PUBCHEM_PHARMACOPHORE_FEATURES>
9
1 1 acceptor
1 2 acceptor
1 3 acceptor
1 5 donor
1 7 donor
6 16 17 19 20 24 25 rings
6 18 22 23 26 27 28 rings
6 4 5 8 9 10 12 rings
6 4 6 10 14 16 17 rings

> <PUBCHEM_HEAVY_ATOM_COUNT>
28

> <PUBCHEM_ATOM_DEF_STEREO_COUNT>
2

> <PUBCHEM_ATOM_UDEF_STEREO_COUNT>
0

> <PUBCHEM_BOND_DEF_STEREO_COUNT>
0

> <PUBCHEM_BOND_UDEF_STEREO_COUNT>
0

> <PUBCHEM_ISOTOPIC_ATOM_COUNT>
0

> <PUBCHEM_COMPONENT_COUNT>
1

> <PUBCHEM_CACTVS_TAUTO_COUNT>
186

> <PUBCHEM_CONFORMER_ID>
0605054100000001

> <PUBCHEM_MMFF94_ENERGY>
85.9753

> <PUBCHEM_FEATURE_SELFOVERLAP>
45.738

> <PUBCHEM_SHAPE_FINGERPRINT>
10930396 42 16036863964465085040
11045515 52 17547010088180631558
11069576 57 17839154352681893205
11115154 58 17545872094174015495
11488393 25 18048885095915680235
11991303 11 18262526995271653494
12160290 23 17831617453243659760
12403259 415 17604438388175140053
12788726 201 18048301529671046427
13540713 5 18043802299085511016
13590594 115 17544199732666514907
1361 2 18125439709765180798
14251757 5 18124866018013955295
14556957 393 17541111195908623836
15131766 46 14925657712662596148
15664445 248 17615682934799324155
17138139 8 17700098210768121949
17539 30 17981043329678743718
18681886 176 18338222761859588776
20028762 73 18127121983613484470
20197701 30 18187362121170806393
21033648 144 18187088317153509341
21197605 99 18261406580565717859
21307412 95 17985858998458481950
21344244 181 18201733828908919695
23559900 14 18335424517894510704
23929065 36 17837752784478553560
283562 15 17687460578748095640
335352 9 18260833666599607068
3388396 114 16675584515599288348
376196 1 18114742629578235857
38695281 34 18410570652446896197
4017518 198 18129658596575339990
4280585 95 16825016340795989707
46194498 28 18046617907550632693
5080951 261 17487620947512696638
59444896 2 17754695529454269035
6669772 16 18342462487286383686

> <PUBCHEM_SHAPE_MULTIPOLES>
538.69
10.09
6.3
1.55
1.83
12.47
0.2
-14.32
-2.44
1.62
-3.4
1.32
1.05
-0.7

> <PUBCHEM_SHAPE_SELFOVERLAP>
1177.225

> <PUBCHEM_SHAPE_VOLUME>
287.4

> <PUBCHEM_COORDINATE_TYPE>
2
5
10

$$$$
