100935628
  -OEChem-03292013293D

 43 46  0     1  0  0  0  0  0999 V2000
    1.1872    0.6251   -1.8398 S   0  0  0  0  0  0  0  0  0  0  0  0
   -2.7865    1.1353    2.0599 O   0  0  0  0  0  0  0  0  0  0  0  0
   -2.7161   -3.0520    0.1232 O   0  0  0  0  0  0  0  0  0  0  0  0
   -1.5140    3.5540    0.2297 O   0  0  0  0  0  0  0  0  0  0  0  0
    0.6319    2.7825    0.4033 O   0  0  0  0  0  0  0  0  0  0  0  0
   -2.3575    1.0327   -0.2580 N   0  0  0  0  0  0  0  0  0  0  0  0
    3.0077   -0.5754    0.8111 N   0  0  0  0  0  0  0  0  0  0  0  0
    5.1192   -0.2777    0.2326 N   0  0  0  0  0  0  0  0  0  0  0  0
   -2.6896   -0.2090   -0.9859 C   0  0  2  0  0  0  0  0  0  0  0  0
   -3.2772   -0.7261    0.3726 C   0  0  2  0  0  0  0  0  0  0  0  0
   -1.3545   -0.6345   -1.6315 C   0  0  2  0  0  0  0  0  0  0  0  0
   -2.8293    0.6371    0.9574 C   0  0  0  0  0  0  0  0  0  0  0  0
   -0.4530    0.5513   -1.3318 C   0  0  0  0  0  0  0  0  0  0  0  0
   -1.0810    1.4280   -0.5357 C   0  0  0  0  0  0  0  0  0  0  0  0
   -2.6505   -1.9455    1.0189 C   0  0  1  0  0  0  0  0  0  0  0  0
   -1.5640   -0.8893   -3.1228 C   0  0  0  0  0  0  0  0  0  0  0  0
    1.8084   -0.9563   -1.1518 C   0  0  2  0  0  0  0  0  0  0  0  0
   -3.3766   -2.3132    2.3070 C   0  0  0  0  0  0  0  0  0  0  0  0
    1.6754   -0.9615    0.3911 C   0  0  0  0  0  0  0  0  0  0  0  0
    3.3312   -1.1189   -1.4454 C   0  0  0  0  0  0  0  0  0  0  0  0
   -0.5354    2.6347    0.0782 C   0  0  0  0  0  0  0  0  0  0  0  0
    3.9354   -0.6492   -0.1813 C   0  0  0  0  0  0  0  0  0  0  0  0
    3.5834   -0.1244    1.9370 C   0  0  0  0  0  0  0  0  0  0  0  0
    4.9055    0.0523    1.5620 C   0  0  0  0  0  0  0  0  0  0  0  0
   -3.4818   -0.0108   -1.7224 H   0  0  0  0  0  0  0  0  0  0  0  0
   -4.3729   -0.8059    0.3273 H   0  0  0  0  0  0  0  0  0  0  0  0
   -0.9718   -1.5419   -1.1564 H   0  0  0  0  0  0  0  0  0  0  0  0
   -1.5909   -1.7732    1.2378 H   0  0  0  0  0  0  0  0  0  0  0  0
   -0.6374   -1.2203   -3.6028 H   0  0  0  0  0  0  0  0  0  0  0  0
   -2.3173   -1.6699   -3.2756 H   0  0  0  0  0  0  0  0  0  0  0  0
   -1.9113    0.0113   -3.6420 H   0  0  0  0  0  0  0  0  0  0  0  0
    1.2487   -1.7743   -1.6153 H   0  0  0  0  0  0  0  0  0  0  0  0
   -4.4322   -2.5361    2.1149 H   0  0  0  0  0  0  0  0  0  0  0  0
   -3.3262   -1.5034    3.0409 H   0  0  0  0  0  0  0  0  0  0  0  0
   -2.9384   -3.2147    2.7482 H   0  0  0  0  0  0  0  0  0  0  0  0
    0.9494   -0.2770    0.8329 H   0  0  0  0  0  0  0  0  0  0  0  0
    1.5116   -1.9764    0.7689 H   0  0  0  0  0  0  0  0  0  0  0  0
    3.6775   -0.5580   -2.3178 H   0  0  0  0  0  0  0  0  0  0  0  0
    3.5736   -2.1778   -1.5897 H   0  0  0  0  0  0  0  0  0  0  0  0
   -3.6537   -3.2269   -0.0668 H   0  0  0  0  0  0  0  0  0  0  0  0
    3.0565    0.0310    2.8674 H   0  0  0  0  0  0  0  0  0  0  0  0
   -1.1823    4.3804    0.6413 H   0  0  0  0  0  0  0  0  0  0  0  0
    5.7177    0.4045    2.1817 H   0  0  0  0  0  0  0  0  0  0  0  0
  1 13  1  0  0  0  0
  1 17  1  0  0  0  0
  2 12  2  0  0  0  0
  3 15  1  0  0  0  0
  3 40  1  0  0  0  0
  4 21  1  0  0  0  0
  4 42  1  0  0  0  0
  5 21  2  0  0  0  0
  6  9  1  0  0  0  0
  6 12  1  0  0  0  0
  6 14  1  0  0  0  0
  7 19  1  0  0  0  0
  7 22  1  0  0  0  0
  7 23  1  0  0  0  0
  8 22  2  0  0  0  0
  8 24  1  0  0  0  0
  9 10  1  0  0  0  0
  9 11  1  0  0  0  0
  9 25  1  0  0  0  0
 10 12  1  0  0  0  0
 10 15  1  0  0  0  0
 10 26  1  0  0  0  0
 11 13  1  0  0  0  0
 11 16  1  0  0  0  0
 11 27  1  0  0  0  0
 13 14  2  0  0  0  0
 14 21  1  0  0  0  0
 15 18  1  0  0  0  0
 15 28  1  0  0  0  0
 16 29  1  0  0  0  0
 16 30  1  0  0  0  0
 16 31  1  0  0  0  0
 17 19  1  0  0  0  0
 17 20  1  0  0  0  0
 17 32  1  0  0  0  0
 18 33  1  0  0  0  0
 18 34  1  0  0  0  0
 18 35  1  0  0  0  0
 19 36  1  0  0  0  0
 19 37  1  0  0  0  0
 20 22  1  0  0  0  0
 20 38  1  0  0  0  0
 20 39  1  0  0  0  0
 23 24  2  0  0  0  0
 23 41  1  0  0  0  0
 24 43  1  0  0  0  0
M  END
> <PUBCHEM_COMPOUND_CID>
100935628

> <PUBCHEM_CONFORMER_RMSD>
0.8

> <PUBCHEM_CONFORMER_DIVERSEORDER>
1
23
20
2
18
21
6
10
15
22
9
17
12
11
5
16
3
19
8
14
7
4
13

> <PUBCHEM_MMFF94_PARTIAL_CHARGES>
26
1 -0.33
10 0.05
11 0.14
12 0.58
13 -0.04
14 0.12
15 0.28
17 0.23
19 0.26
2 -0.57
20 0.18
21 0.71
22 0.01
23 -0.3
24 0.08
3 -0.68
4 -0.65
40 0.4
41 0.15
42 0.5
43 0.15
5 -0.57
6 -0.39
7 0.05
8 -0.57
9 0.22

> <PUBCHEM_EFFECTIVE_ROTOR_COUNT>
5

> <PUBCHEM_PHARMACOPHORE_FEATURES>
10
1 2 acceptor
1 3 acceptor
1 3 donor
1 4 acceptor
1 5 acceptor
3 4 5 21 anion
3 7 8 22 cation
5 7 17 19 20 22 rings
5 7 8 22 23 24 rings
7 6 9 10 11 12 13 14 rings

> <PUBCHEM_HEAVY_ATOM_COUNT>
24

> <PUBCHEM_ATOM_DEF_STEREO_COUNT>
5

> <PUBCHEM_ATOM_UDEF_STEREO_COUNT>
0

> <PUBCHEM_BOND_DEF_STEREO_COUNT>
0

> <PUBCHEM_BOND_UDEF_STEREO_COUNT>
0

> <PUBCHEM_ISOTOPIC_ATOM_COUNT>
0

> <PUBCHEM_COMPONENT_COUNT>
1

> <PUBCHEM_CACTVS_TAUTO_COUNT>
4

> <PUBCHEM_CONFORMER_ID>
060427CC00000001

> <PUBCHEM_MMFF94_ENERGY>
79.4142

> <PUBCHEM_FEATURE_SELFOVERLAP>
51.093

> <PUBCHEM_SHAPE_FINGERPRINT>
10366900 7 18272359841980911274
11221954 11 12534535352700027067
11370993 144 17560249002979872682
11552529 35 18260541225949190074
11578080 2 17604419833847532333
12202030 40 17604705724160970117
12539773 59 17097192953533095297
12553582 1 18335437745934638213
12633257 1 18267324173389389291
12824470 246 17458917040511523459
13083527 12 17913488223399450295
13224815 77 17603584102231600942
14081887 123 18409163281984988778
14787075 74 17898584330436844532
15163728 17 10663283119084534323
18219364 16 16988272067615778644
18927931 339 18410851037008627486
200 152 15719110236854709742
20681651 13 17313657170984986216
20775530 9 17027709586862644811
21421861 104 17907042886326871155
21475661 188 13970917474887380163
23419403 2 17827897831255766799
23559900 14 18266747879051596766
27216 239 17632574912103758209
3797600 57 18116169916256727438
392239 28 18261667177685459600
469060 322 17771875433351304566
474 4 14404640748500904183
5081480 168 13253148630664727304
6287921 2 17488167383248526848

> <PUBCHEM_SHAPE_MULTIPOLES>
459.34
8
2.74
2.39
8.86
1.05
-0.86
-4.01
3.67
-2.88
1.24
-0.49
-0.42
0.4

> <PUBCHEM_SHAPE_SELFOVERLAP>
987.504

> <PUBCHEM_SHAPE_VOLUME>
258.6

> <PUBCHEM_COORDINATE_TYPE>
2
5
10

$$$$
