100981290
  -OEChem-03292013293D

 68 73  0     1  0  0  0  0  0999 V2000
    0.0475   -0.4416   -2.5246 O   0  0  0  0  0  0  0  0  0  0  0  0
    1.8855   -2.1839   -1.3482 O   0  0  0  0  0  0  0  0  0  0  0  0
   -0.4757   -2.8640   -0.2950 O   0  0  0  0  0  0  0  0  0  0  0  0
   -0.4972    2.5500    2.0930 O   0  0  0  0  0  0  0  0  0  0  0  0
    4.0468   -1.7330    0.6560 O   0  0  0  0  0  0  0  0  0  0  0  0
    4.7042    1.0718   -0.4672 O   0  0  0  0  0  0  0  0  0  0  0  0
   -5.2014   -0.8284   -0.2812 O   0  0  0  0  0  0  0  0  0  0  0  0
   -1.5816    1.4437   -0.9198 N   0  0  2  0  0  0  0  0  0  0  0  0
   -0.5631    0.2984    1.0173 C   0  0  2  0  0  0  0  0  0  0  0  0
   -1.5405   -0.8962    0.6773 C   0  0  2  0  0  0  0  0  0  0  0  0
   -0.3402    0.8031   -0.4331 C   0  0  1  0  0  0  0  0  0  0  0  0
    0.1080   -0.5445   -1.1066 C   0  0  2  0  0  0  0  0  0  0  0  0
    0.8147   -0.1878    1.6264 C   0  0  1  0  0  0  0  0  0  0  0  0
    1.6357   -1.2124    0.8176 C   0  0  1  0  0  0  0  0  0  0  0  0
    1.5656   -0.9341   -0.6990 C   0  0  1  0  0  0  0  0  0  0  0  0
   -0.9493   -1.5628   -0.5979 C   0  0  1  0  0  0  0  0  0  0  0  0
   -2.9440   -0.3130    0.3072 C   0  0  2  0  0  0  0  0  0  0  0  0
   -1.1984    1.3095    2.0406 C   0  0  2  0  0  0  0  0  0  0  0  0
    1.8554    0.9277    1.9203 C   0  0  0  0  0  0  0  0  0  0  0  0
    3.1872    0.4625    1.3126 C   0  0  1  0  0  0  0  0  0  0  0  0
    3.0498   -1.0488    1.3840 C   0  0  2  0  0  0  0  0  0  0  0  0
    2.6410    0.0702   -1.2012 C   0  0  0  0  0  0  0  0  0  0  0  0
   -2.7871    0.6013   -0.9516 C   0  0  0  0  0  0  0  0  0  0  0  0
   -3.5085    0.4700    1.5089 C   0  0  0  0  0  0  0  0  0  0  0  0
    3.3144    0.9571   -0.1401 C   0  0  2  0  0  0  0  0  0  0  0  0
   -2.6680    1.6688    1.8707 C   0  0  0  0  0  0  0  0  0  0  0  0
   -3.9634   -1.4363    0.0106 C   0  0  0  0  0  0  0  0  0  0  0  0
   -1.4138    2.2060   -2.1493 C   0  0  0  0  0  0  0  0  0  0  0  0
   -1.5355   -3.8126   -0.2492 C   0  0  0  0  0  0  0  0  0  0  0  0
   -2.5988    3.1253   -2.3913 C   0  0  0  0  0  0  0  0  0  0  0  0
    4.9110    2.0340   -1.4868 C   0  0  0  0  0  0  0  0  0  0  0  0
   -1.6134   -1.5818    1.5292 H   0  0  0  0  0  0  0  0  0  0  0  0
    0.4574    1.5507   -0.4654 H   0  0  0  0  0  0  0  0  0  0  0  0
    0.5808   -0.6648    2.5903 H   0  0  0  0  0  0  0  0  0  0  0  0
    1.3143   -2.2346    1.0419 H   0  0  0  0  0  0  0  0  0  0  0  0
   -1.6850   -1.6986   -1.3938 H   0  0  0  0  0  0  0  0  0  0  0  0
   -1.1028    0.8551    3.0363 H   0  0  0  0  0  0  0  0  0  0  0  0
    1.5922    1.9109    1.5307 H   0  0  0  0  0  0  0  0  0  0  0  0
    1.9623    1.0325    3.0074 H   0  0  0  0  0  0  0  0  0  0  0  0
    4.0399    0.8172    1.9023 H   0  0  0  0  0  0  0  0  0  0  0  0
    3.0866   -1.3966    2.4242 H   0  0  0  0  0  0  0  0  0  0  0  0
    2.2199    0.7221   -1.9774 H   0  0  0  0  0  0  0  0  0  0  0  0
    3.4238   -0.4889   -1.7348 H   0  0  0  0  0  0  0  0  0  0  0  0
   -2.8087    0.0029   -1.8700 H   0  0  0  0  0  0  0  0  0  0  0  0
   -3.6793    1.2374   -0.9977 H   0  0  0  0  0  0  0  0  0  0  0  0
   -3.5786   -0.1943    2.3808 H   0  0  0  0  0  0  0  0  0  0  0  0
   -4.5265    0.8290    1.3152 H   0  0  0  0  0  0  0  0  0  0  0  0
    2.8765    1.9628   -0.1906 H   0  0  0  0  0  0  0  0  0  0  0  0
   -2.7934    2.4709    1.1333 H   0  0  0  0  0  0  0  0  0  0  0  0
   -3.0424    2.1075    2.8054 H   0  0  0  0  0  0  0  0  0  0  0  0
   -4.0905   -2.0942    0.8770 H   0  0  0  0  0  0  0  0  0  0  0  0
   -3.6887   -2.0451   -0.8527 H   0  0  0  0  0  0  0  0  0  0  0  0
   -0.8796   -0.4673   -2.8090 H   0  0  0  0  0  0  0  0  0  0  0  0
    1.7441   -2.0623   -2.3029 H   0  0  0  0  0  0  0  0  0  0  0  0
   -0.5218    2.8392   -2.0679 H   0  0  0  0  0  0  0  0  0  0  0  0
   -1.2767    1.5732   -3.0303 H   0  0  0  0  0  0  0  0  0  0  0  0
   -0.8628    3.0692    2.8295 H   0  0  0  0  0  0  0  0  0  0  0  0
    4.9085   -1.4626    1.0160 H   0  0  0  0  0  0  0  0  0  0  0  0
   -1.0917   -4.7972   -0.0751 H   0  0  0  0  0  0  0  0  0  0  0  0
   -2.0736   -3.8524   -1.2011 H   0  0  0  0  0  0  0  0  0  0  0  0
   -2.2181   -3.6075    0.5782 H   0  0  0  0  0  0  0  0  0  0  0  0
   -3.4928    2.5786   -2.7070 H   0  0  0  0  0  0  0  0  0  0  0  0
   -2.8406    3.7158   -1.5009 H   0  0  0  0  0  0  0  0  0  0  0  0
   -2.3590    3.8298   -3.1956 H   0  0  0  0  0  0  0  0  0  0  0  0
   -5.8406   -1.5409   -0.4518 H   0  0  0  0  0  0  0  0  0  0  0  0
    5.9823    2.0734   -1.7037 H   0  0  0  0  0  0  0  0  0  0  0  0
    4.3890    1.7624   -2.4088 H   0  0  0  0  0  0  0  0  0  0  0  0
    4.5969    3.0281   -1.1531 H   0  0  0  0  0  0  0  0  0  0  0  0
  1 12  1  0  0  0  0
  1 53  1  0  0  0  0
  2 15  1  0  0  0  0
  2 54  1  0  0  0  0
  3 16  1  0  0  0  0
  3 29  1  0  0  0  0
  4 18  1  0  0  0  0
  4 57  1  0  0  0  0
  5 21  1  0  0  0  0
  5 58  1  0  0  0  0
  6 25  1  0  0  0  0
  6 31  1  0  0  0  0
  7 27  1  0  0  0  0
  7 65  1  0  0  0  0
  8 11  1  0  0  0  0
  8 23  1  0  0  0  0
  8 28  1  0  0  0  0
  9 10  1  0  0  0  0
  9 11  1  0  0  0  0
  9 13  1  0  0  0  0
  9 18  1  0  0  0  0
 10 16  1  0  0  0  0
 10 17  1  0  0  0  0
 10 32  1  0  0  0  0
 11 12  1  0  0  0  0
 11 33  1  0  0  0  0
 12 15  1  0  0  0  0
 12 16  1  0  0  0  0
 13 14  1  0  0  0  0
 13 19  1  0  0  0  0
 13 34  1  0  0  0  0
 14 15  1  0  0  0  0
 14 21  1  0  0  0  0
 14 35  1  0  0  0  0
 15 22  1  0  0  0  0
 16 36  1  0  0  0  0
 17 23  1  0  0  0  0
 17 24  1  0  0  0  0
 17 27  1  0  0  0  0
 18 26  1  0  0  0  0
 18 37  1  0  0  0  0
 19 20  1  0  0  0  0
 19 38  1  0  0  0  0
 19 39  1  0  0  0  0
 20 21  1  0  0  0  0
 20 25  1  0  0  0  0
 20 40  1  0  0  0  0
 21 41  1  0  0  0  0
 22 25  1  0  0  0  0
 22 42  1  0  0  0  0
 22 43  1  0  0  0  0
 23 44  1  0  0  0  0
 23 45  1  0  0  0  0
 24 26  1  0  0  0  0
 24 46  1  0  0  0  0
 24 47  1  0  0  0  0
 25 48  1  0  0  0  0
 26 49  1  0  0  0  0
 26 50  1  0  0  0  0
 27 51  1  0  0  0  0
 27 52  1  0  0  0  0
 28 30  1  0  0  0  0
 28 55  1  0  0  0  0
 28 56  1  0  0  0  0
 29 59  1  0  0  0  0
 29 60  1  0  0  0  0
 29 61  1  0  0  0  0
 30 62  1  0  0  0  0
 30 63  1  0  0  0  0
 30 64  1  0  0  0  0
 31 66  1  0  0  0  0
 31 67  1  0  0  0  0
 31 68  1  0  0  0  0
M  END
> <PUBCHEM_COMPOUND_CID>
100981290

> <PUBCHEM_CONFORMER_RMSD>
0.8

> <PUBCHEM_CONFORMER_DIVERSEORDER>
1

> <PUBCHEM_MMFF94_PARTIAL_CHARGES>
25
1 -0.68
11 0.27
12 0.28
15 0.28
16 0.28
18 0.28
2 -0.68
21 0.28
23 0.27
25 0.28
27 0.28
28 0.27
29 0.28
3 -0.56
31 0.28
4 -0.68
5 -0.68
53 0.4
54 0.4
57 0.4
58 0.4
6 -0.56
65 0.4
7 -0.68
8 -0.81

> <PUBCHEM_EFFECTIVE_ROTOR_COUNT>
6

> <PUBCHEM_PHARMACOPHORE_FEATURES>
17
1 1 acceptor
1 1 donor
1 2 acceptor
1 2 donor
1 3 acceptor
1 4 acceptor
1 4 donor
1 5 acceptor
1 5 donor
1 6 acceptor
1 7 acceptor
1 7 donor
1 8 cation
6 9 10 17 18 24 26 rings
8 13 14 15 19 20 21 22 25 rings
8 8 9 10 11 12 16 17 23 rings
8 9 10 11 12 13 14 15 16 rings

> <PUBCHEM_HEAVY_ATOM_COUNT>
31

> <PUBCHEM_ATOM_DEF_STEREO_COUNT>
13

> <PUBCHEM_ATOM_UDEF_STEREO_COUNT>
0

> <PUBCHEM_BOND_DEF_STEREO_COUNT>
0

> <PUBCHEM_BOND_UDEF_STEREO_COUNT>
0

> <PUBCHEM_ISOTOPIC_ATOM_COUNT>
0

> <PUBCHEM_COMPONENT_COUNT>
1

> <PUBCHEM_CACTVS_TAUTO_COUNT>
1

> <PUBCHEM_CONFORMER_ID>
0604DA2A00000001

> <PUBCHEM_MMFF94_ENERGY>
171.8305

> <PUBCHEM_FEATURE_SELFOVERLAP>
87.781

> <PUBCHEM_SHAPE_FINGERPRINT>
10165383 225 18270697427512569896
10366900 7 17775571978427233915
10863032 1 17752744866993022266
10948715 1 18199488613559459152
11578080 2 18195259810451627013
12011746 2 17846222206334787483
12107698 1 17603579686873235040
12173636 292 18130229250607430576
12403814 3 18260545649575022357
12633257 1 18059859493102548899
12788726 201 17988652895056812849
13140716 1 17415819534824830978
13224815 77 17917427596929736897
133893 2 17625249810841584255
13583140 156 18196342923645697498
13965767 371 17973193667229246289
14223421 5 17703231693963010043
14289901 80 17895184485479686728
14787075 74 18201431536753466255
16945 1 18118942892591800218
18981168 100 18051981315921437497
20600515 1 18196395799178028221
20691752 17 18059310781044438667
21033648 29 18051096295408726312
22907989 373 18335404765028900909
23419403 2 18057294337096864377
23493267 7 18130802191092508546
23559900 14 17558283037535015622
238 59 17700381759681584629
296302 2 18334301976150718969
34934 24 17822292456558162359
350125 39 18340492140658184170
35225 105 18270103716782244391
4340502 62 18057046796967944129
469060 322 17827073219125686000

> <PUBCHEM_SHAPE_MULTIPOLES>
591.9
7.21
3.01
2.31
3.06
0.47
-0.31
-1.29
0.43
-1.18
1.5
-0.33
-1.34
-0.29

> <PUBCHEM_SHAPE_SELFOVERLAP>
1303.944

> <PUBCHEM_SHAPE_VOLUME>
312.2

> <PUBCHEM_COORDINATE_TYPE>
2
5
10

$$$$
