100917959
  -OEChem-03292013293D

 58 58  0     1  0  0  0  0  0999 V2000
    3.9617   -0.9212   -0.9796 O   0  0  0  0  0  0  0  0  0  0  0  0
    1.0762   -2.1250   -1.1423 O   0  0  0  0  0  0  0  0  0  0  0  0
    0.8764    1.9800   -1.4518 O   0  0  0  0  0  0  0  0  0  0  0  0
   -1.2561   -0.6247   -1.7244 O   0  0  0  0  0  0  0  0  0  0  0  0
   -3.1852    1.4575   -0.7388 O   0  0  0  0  0  0  0  0  0  0  0  0
   -2.9163   -2.5866    0.4306 O   0  0  0  0  0  0  0  0  0  0  0  0
   -6.0152    0.4070   -0.9849 O   0  0  0  0  0  0  0  0  0  0  0  0
    2.8164   -0.8424   -0.1159 C   0  0  1  0  0  0  0  0  0  0  0  0
    3.7805    0.3179   -0.2811 C   0  0  1  0  0  0  0  0  0  0  0  0
    1.5059   -0.7983   -0.8512 C   0  0  2  0  0  0  0  0  0  0  0  0
    4.8492    0.6414    0.7007 C   0  0  2  0  0  0  0  0  0  0  0  0
    2.8848   -1.7496    1.0717 C   0  0  0  0  0  0  0  0  0  0  0  0
    0.4204   -0.0114   -0.0854 C   0  0  2  0  0  0  0  0  0  0  0  0
    4.3116    1.4706    1.8624 C   0  0  0  0  0  0  0  0  0  0  0  0
   -1.0053   -0.3353   -0.5539 C   0  0  0  0  0  0  0  0  0  0  0  0
    0.6214    1.5096   -0.1356 C   0  0  0  0  0  0  0  0  0  0  0  0
    6.0289    1.3319    0.0224 C   0  0  0  0  0  0  0  0  0  0  0  0
   -2.1106   -0.2804    0.5122 C   0  0  1  0  0  0  0  0  0  0  0  0
   -3.4389    0.1901   -0.1181 C   0  0  1  0  0  0  0  0  0  0  0  0
    7.2831    0.8568    0.0078 C   0  0  0  0  0  0  0  0  0  0  0  0
   -2.1741   -1.6487    1.1999 C   0  0  0  0  0  0  0  0  0  0  0  0
   -4.5542    0.3828    0.9125 C   0  0  0  0  0  0  0  0  0  0  0  0
    7.6948   -0.4218    0.6591 C   0  0  0  0  0  0  0  0  0  0  0  0
   -5.9130    0.4767    0.2397 C   0  0  0  0  0  0  0  0  0  0  0  0
   -7.1162    0.6317    1.1546 C   0  0  0  0  0  0  0  0  0  0  0  0
   -8.4260    0.6916    0.3892 C   0  0  0  0  0  0  0  0  0  0  0  0
    3.4679    1.1748   -0.8651 H   0  0  0  0  0  0  0  0  0  0  0  0
    1.6558   -0.3379   -1.8349 H   0  0  0  0  0  0  0  0  0  0  0  0
    5.2093   -0.2899    1.1468 H   0  0  0  0  0  0  0  0  0  0  0  0
    2.4484   -2.7307    0.8616 H   0  0  0  0  0  0  0  0  0  0  0  0
    2.3483   -1.3145    1.9203 H   0  0  0  0  0  0  0  0  0  0  0  0
    3.9118   -1.9453    1.3936 H   0  0  0  0  0  0  0  0  0  0  0  0
    0.4513   -0.3207    0.9670 H   0  0  0  0  0  0  0  0  0  0  0  0
    5.0966    1.6742    2.5988 H   0  0  0  0  0  0  0  0  0  0  0  0
    3.4958    0.9499    2.3748 H   0  0  0  0  0  0  0  0  0  0  0  0
    3.9173    2.4323    1.5144 H   0  0  0  0  0  0  0  0  0  0  0  0
    1.4685    1.7966    0.4948 H   0  0  0  0  0  0  0  0  0  0  0  0
   -0.2608    2.0371    0.2424 H   0  0  0  0  0  0  0  0  0  0  0  0
    5.8273    2.2764   -0.4782 H   0  0  0  0  0  0  0  0  0  0  0  0
    0.6589   -2.4928   -0.3451 H   0  0  0  0  0  0  0  0  0  0  0  0
   -1.7907    0.4727    1.2443 H   0  0  0  0  0  0  0  0  0  0  0  0
   -3.7496   -0.5041   -0.9081 H   0  0  0  0  0  0  0  0  0  0  0  0
    8.0514    1.4266   -0.5074 H   0  0  0  0  0  0  0  0  0  0  0  0
   -1.1745   -2.0628    1.3689 H   0  0  0  0  0  0  0  0  0  0  0  0
   -2.6635   -1.5553    2.1749 H   0  0  0  0  0  0  0  0  0  0  0  0
    1.0072    2.9416   -1.3916 H   0  0  0  0  0  0  0  0  0  0  0  0
   -4.3989    1.3039    1.4847 H   0  0  0  0  0  0  0  0  0  0  0  0
   -4.6078   -0.4670    1.5991 H   0  0  0  0  0  0  0  0  0  0  0  0
    7.4534   -0.4252    1.7265 H   0  0  0  0  0  0  0  0  0  0  0  0
    8.7800   -0.5421    0.5737 H   0  0  0  0  0  0  0  0  0  0  0  0
    7.2295   -1.2820    0.1682 H   0  0  0  0  0  0  0  0  0  0  0  0
   -2.6483    1.2987   -1.5334 H   0  0  0  0  0  0  0  0  0  0  0  0
   -2.9269   -3.4209    0.9300 H   0  0  0  0  0  0  0  0  0  0  0  0
   -6.9868    1.5511    1.7348 H   0  0  0  0  0  0  0  0  0  0  0  0
   -7.1335   -0.2192    1.8434 H   0  0  0  0  0  0  0  0  0  0  0  0
   -8.5823   -0.2214   -0.1948 H   0  0  0  0  0  0  0  0  0  0  0  0
   -9.2667    0.8033    1.0808 H   0  0  0  0  0  0  0  0  0  0  0  0
   -8.4380    1.5392   -0.3039 H   0  0  0  0  0  0  0  0  0  0  0  0
  1  8  1  0  0  0  0
  1  9  1  0  0  0  0
  2 10  1  0  0  0  0
  2 40  1  0  0  0  0
  3 16  1  0  0  0  0
  3 46  1  0  0  0  0
  4 15  2  0  0  0  0
  5 19  1  0  0  0  0
  5 52  1  0  0  0  0
  6 21  1  0  0  0  0
  6 53  1  0  0  0  0
  7 24  2  0  0  0  0
  8  9  1  0  0  0  0
  8 10  1  0  0  0  0
  8 12  1  0  0  0  0
  9 11  1  0  0  0  0
  9 27  1  0  0  0  0
 10 13  1  0  0  0  0
 10 28  1  0  0  0  0
 11 14  1  0  0  0  0
 11 17  1  0  0  0  0
 11 29  1  0  0  0  0
 12 30  1  0  0  0  0
 12 31  1  0  0  0  0
 12 32  1  0  0  0  0
 13 15  1  0  0  0  0
 13 16  1  0  0  0  0
 13 33  1  0  0  0  0
 14 34  1  0  0  0  0
 14 35  1  0  0  0  0
 14 36  1  0  0  0  0
 15 18  1  0  0  0  0
 16 37  1  0  0  0  0
 16 38  1  0  0  0  0
 17 20  2  0  0  0  0
 17 39  1  0  0  0  0
 18 19  1  0  0  0  0
 18 21  1  0  0  0  0
 18 41  1  0  0  0  0
 19 22  1  0  0  0  0
 19 42  1  0  0  0  0
 20 23  1  0  0  0  0
 20 43  1  0  0  0  0
 21 44  1  0  0  0  0
 21 45  1  0  0  0  0
 22 24  1  0  0  0  0
 22 47  1  0  0  0  0
 22 48  1  0  0  0  0
 23 49  1  0  0  0  0
 23 50  1  0  0  0  0
 23 51  1  0  0  0  0
 24 25  1  0  0  0  0
 25 26  1  0  0  0  0
 25 54  1  0  0  0  0
 25 55  1  0  0  0  0
 26 56  1  0  0  0  0
 26 57  1  0  0  0  0
 26 58  1  0  0  0  0
M  END
> <PUBCHEM_COMPOUND_CID>
100917959

> <PUBCHEM_CONFORMER_RMSD>
1

> <PUBCHEM_CONFORMER_DIVERSEORDER>
2
95
128
52
163
25
63
147
156
5
127
153
172
173
54
162
136
161
21
175
55
48
36
104
96
134
74
105
164
40
149
24
123
1
148
82
138
29
86
47
85
157
20
159
151
22
117
71
13
110
165
78
101
41
84
35
44
120
38
32
11
9
30
171
88
92
57
23
31
99
18
19
46
17
83
94
4
124
112
115
116
106
155
61
143
174
152
53
34
150
26
126
102
90
91
131
37
15
98
93
87
89
141
66
132
145
72
70
8
144
79
146
108
125
130
169
27
97
166
103
14
33
109
64
137
119
42
45
81
65
7
160
113
62
158
76
139
49
80
43
170
100
168
6
121
142
135
56
10
77
51
60
69
154
111
12
73
3
140
129
16
58
107
67
118
122
167
133
39
68
59
75
28
114
50

> <PUBCHEM_MMFF94_PARTIAL_CHARGES>
31
1 -0.3
10 0.38
11 0.23
12 0.09
13 0.06
15 0.45
16 0.28
17 -0.29
18 0.06
19 0.28
2 -0.68
20 -0.29
21 0.28
22 0.06
23 0.14
24 0.45
25 0.06
27 0.1
3 -0.68
39 0.15
4 -0.57
40 0.4
43 0.15
46 0.4
5 -0.68
52 0.4
53 0.4
6 -0.68
7 -0.57
8 -0.04
9 -0.05

> <PUBCHEM_EFFECTIVE_ROTOR_COUNT>
12.6

> <PUBCHEM_PHARMACOPHORE_FEATURES>
14
1 1 acceptor
1 14 hydrophobe
1 2 acceptor
1 2 donor
1 23 hydrophobe
1 26 hydrophobe
1 3 acceptor
1 3 donor
1 4 acceptor
1 5 acceptor
1 5 donor
1 6 acceptor
1 6 donor
1 7 acceptor

> <PUBCHEM_HEAVY_ATOM_COUNT>
26

> <PUBCHEM_ATOM_DEF_STEREO_COUNT>
5

> <PUBCHEM_ATOM_UDEF_STEREO_COUNT>
2

> <PUBCHEM_BOND_DEF_STEREO_COUNT>
1

> <PUBCHEM_BOND_UDEF_STEREO_COUNT>
0

> <PUBCHEM_ISOTOPIC_ATOM_COUNT>
0

> <PUBCHEM_COMPONENT_COUNT>
1

> <PUBCHEM_CACTVS_TAUTO_COUNT>
9

> <PUBCHEM_CONFORMER_ID>
0603E2C700000002

> <PUBCHEM_MMFF94_ENERGY>
43.0523

> <PUBCHEM_FEATURE_SELFOVERLAP>
71.058

> <PUBCHEM_SHAPE_FINGERPRINT>
10 15 18040438814730702256
10165383 225 18131070442328962876
10670039 82 12967139280806631339
11089746 13 17704070720261747040
12011746 2 13614522956632720596
12236239 1 17132114624426983501
12633257 1 17821729480681787365
13073987 5 17968375624735438097
13533116 47 18341048502005296651
13540713 5 17462019944272520903
13685833 64 11169909490077430224
14123256 10 12175906549809340617
14170010 4 18412547613351507045
14251764 18 18412544310173172073
14251764 46 17847061082040643848
15048467 5 17917712405091238944
15840311 113 18341333383244767076
17980427 23 18187929550790669647
19784866 170 18334855022426578678
21033648 29 18129369557727645624
21150785 3 15913329095808057017
221357 26 9223231836242951563
22224240 67 18411981372935970930
23559900 14 18339922713978288513
23622692 88 18113900485396673813
34934 24 18335417976079232154
3545911 37 18410292510528259384
3633792 109 16845022216402081487
4340502 62 17894349968828369883
5104073 3 18042403517650724169
59682541 35 18334296504157104112
59755656 520 18411692214764343838

> <PUBCHEM_SHAPE_MULTIPOLES>
493.98
20.43
1.82
1.3
9.92
0.6
0.04
-7.29
5.39
-0.56
0.06
-0.11
-0.03
0.43

> <PUBCHEM_SHAPE_SELFOVERLAP>
972.677

> <PUBCHEM_SHAPE_VOLUME>
292.8

> <PUBCHEM_COORDINATE_TYPE>
2
5
10

$$$$
