10096344
  -OEChem-03292013303D

 63 67  0     1  0  0  0  0  0999 V2000
   -0.3526   -0.1237   -2.1240 O   0  0  0  0  0  0  0  0  0  0  0  0
   -1.8301    3.6619    0.2206 O   0  0  0  0  0  0  0  0  0  0  0  0
    4.3814    0.3469    0.3380 N   0  0  0  0  0  0  0  0  0  0  0  0
    2.2371    0.2603   -0.6753 N   0  0  0  0  0  0  0  0  0  0  0  0
    6.0618   -2.7925    1.4882 N   0  0  0  0  0  0  0  0  0  0  0  0
    2.5801    1.9107    0.7837 N   0  0  0  0  0  0  0  0  0  0  0  0
    0.3434    2.9198    0.5938 N   0  0  0  0  0  0  0  0  0  0  0  0
   -1.1146    1.7702   -0.9613 N   0  0  0  0  0  0  0  0  0  0  0  0
   -3.3855   -0.4783   -1.1310 N   0  0  0  0  0  0  0  0  0  0  0  0
   -4.1215    1.4675    0.0850 N   0  0  0  0  0  0  0  0  0  0  0  0
    5.7335   -1.6945    0.5813 C   0  0  1  0  0  0  0  0  0  0  0  0
    4.6361   -0.8156    1.1982 C   0  0  0  0  0  0  0  0  0  0  0  0
    6.9927   -0.8783    0.2748 C   0  0  0  0  0  0  0  0  0  0  0  0
    6.6462    0.3155   -0.6115 C   0  0  0  0  0  0  0  0  0  0  0  0
    5.5539    1.1721    0.0224 C   0  0  0  0  0  0  0  0  0  0  0  0
    3.1136    0.8634    0.1895 C   0  0  0  0  0  0  0  0  0  0  0  0
    1.0736    0.9731   -0.6243 C   0  0  0  0  0  0  0  0  0  0  0  0
    1.3107    1.9767    0.2751 C   0  0  0  0  0  0  0  0  0  0  0  0
    2.4932   -0.9076   -1.4883 C   0  0  0  0  0  0  0  0  0  0  0  0
   -0.1580    0.7835   -1.3196 C   0  0  0  0  0  0  0  0  0  0  0  0
   -0.9303    2.8501   -0.0241 C   0  0  0  0  0  0  0  0  0  0  0  0
   -2.4192    1.6820   -1.6091 C   0  0  0  0  0  0  0  0  0  0  0  0
    0.6436    3.9700    1.5590 C   0  0  0  0  0  0  0  0  0  0  0  0
    2.1452   -2.1481   -0.7898 C   0  0  0  0  0  0  0  0  0  0  0  0
   -3.3781    0.8311   -0.8278 C   0  0  0  0  0  0  0  0  0  0  0  0
   -4.2420   -1.2466   -0.4353 C   0  0  0  0  0  0  0  0  0  0  0  0
   -4.9676    0.6694    0.7630 C   0  0  0  0  0  0  0  0  0  0  0  0
   -5.0791   -0.7020    0.5521 C   0  0  0  0  0  0  0  0  0  0  0  0
    1.8603   -3.1650   -0.2182 C   0  0  0  0  0  0  0  0  0  0  0  0
   -4.3251   -2.6160   -0.6749 C   0  0  0  0  0  0  0  0  0  0  0  0
   -5.9707   -1.5150    1.2732 C   0  0  0  0  0  0  0  0  0  0  0  0
   -5.8030    1.3722    1.7850 C   0  0  0  0  0  0  0  0  0  0  0  0
    1.5131   -4.4017    0.4801 C   0  0  0  0  0  0  0  0  0  0  0  0
   -5.2091   -3.4312    0.0381 C   0  0  0  0  0  0  0  0  0  0  0  0
   -6.0330   -2.8804    1.0133 C   0  0  0  0  0  0  0  0  0  0  0  0
    5.3581   -2.1263   -0.3545 H   0  0  0  0  0  0  0  0  0  0  0  0
    3.7250   -1.4020    1.3585 H   0  0  0  0  0  0  0  0  0  0  0  0
    4.9456   -0.4526    2.1877 H   0  0  0  0  0  0  0  0  0  0  0  0
    7.7396   -1.5022   -0.2309 H   0  0  0  0  0  0  0  0  0  0  0  0
    7.4520   -0.5170    1.2043 H   0  0  0  0  0  0  0  0  0  0  0  0
    5.9231    1.6469    0.9395 H   0  0  0  0  0  0  0  0  0  0  0  0
    5.2848    1.9751   -0.6750 H   0  0  0  0  0  0  0  0  0  0  0  0
    7.5414    0.9233   -0.7833 H   0  0  0  0  0  0  0  0  0  0  0  0
    6.3075   -0.0462   -1.5905 H   0  0  0  0  0  0  0  0  0  0  0  0
    6.4212   -2.4206    2.3668 H   0  0  0  0  0  0  0  0  0  0  0  0
    6.8151   -3.3523    1.0906 H   0  0  0  0  0  0  0  0  0  0  0  0
    1.9428   -0.8099   -2.4280 H   0  0  0  0  0  0  0  0  0  0  0  0
    3.5523   -0.9058   -1.7679 H   0  0  0  0  0  0  0  0  0  0  0  0
   -2.3040    1.2657   -2.6171 H   0  0  0  0  0  0  0  0  0  0  0  0
   -2.8417    2.6857   -1.7362 H   0  0  0  0  0  0  0  0  0  0  0  0
   -0.2108    4.6352    1.7070 H   0  0  0  0  0  0  0  0  0  0  0  0
    1.4900    4.5588    1.1923 H   0  0  0  0  0  0  0  0  0  0  0  0
    0.9021    3.5089    2.5172 H   0  0  0  0  0  0  0  0  0  0  0  0
   -3.6907   -3.0718   -1.4328 H   0  0  0  0  0  0  0  0  0  0  0  0
   -6.6253   -1.1106    2.0402 H   0  0  0  0  0  0  0  0  0  0  0  0
   -5.5747    2.4438    1.8060 H   0  0  0  0  0  0  0  0  0  0  0  0
   -6.8679    1.2702    1.5524 H   0  0  0  0  0  0  0  0  0  0  0  0
   -5.6046    0.9771    2.7865 H   0  0  0  0  0  0  0  0  0  0  0  0
    1.5812   -5.2613   -0.1933 H   0  0  0  0  0  0  0  0  0  0  0  0
    2.1897   -4.5755    1.3223 H   0  0  0  0  0  0  0  0  0  0  0  0
    0.4915   -4.3552    0.8692 H   0  0  0  0  0  0  0  0  0  0  0  0
   -5.2513   -4.4962   -0.1711 H   0  0  0  0  0  0  0  0  0  0  0  0
   -6.7202   -3.5118    1.5681 H   0  0  0  0  0  0  0  0  0  0  0  0
  1 20  2  0  0  0  0
  2 21  2  0  0  0  0
  3 12  1  0  0  0  0
  3 15  1  0  0  0  0
  3 16  1  0  0  0  0
  4 16  1  0  0  0  0
  4 17  1  0  0  0  0
  4 19  1  0  0  0  0
  5 11  1  0  0  0  0
  5 45  1  0  0  0  0
  5 46  1  0  0  0  0
  6 16  2  0  0  0  0
  6 18  1  0  0  0  0
  7 18  1  0  0  0  0
  7 21  1  0  0  0  0
  7 23  1  0  0  0  0
  8 20  1  0  0  0  0
  8 21  1  0  0  0  0
  8 22  1  0  0  0  0
  9 25  2  0  0  0  0
  9 26  1  0  0  0  0
 10 25  1  0  0  0  0
 10 27  2  0  0  0  0
 11 12  1  0  0  0  0
 11 13  1  0  0  0  0
 11 36  1  0  0  0  0
 12 37  1  0  0  0  0
 12 38  1  0  0  0  0
 13 14  1  0  0  0  0
 13 39  1  0  0  0  0
 13 40  1  0  0  0  0
 14 15  1  0  0  0  0
 14 43  1  0  0  0  0
 14 44  1  0  0  0  0
 15 41  1  0  0  0  0
 15 42  1  0  0  0  0
 17 18  2  0  0  0  0
 17 20  1  0  0  0  0
 19 24  1  0  0  0  0
 19 47  1  0  0  0  0
 19 48  1  0  0  0  0
 22 25  1  0  0  0  0
 22 49  1  0  0  0  0
 22 50  1  0  0  0  0
 23 51  1  0  0  0  0
 23 52  1  0  0  0  0
 23 53  1  0  0  0  0
 24 29  3  0  0  0  0
 26 28  1  0  0  0  0
 26 30  2  0  0  0  0
 27 28  1  0  0  0  0
 27 32  1  0  0  0  0
 28 31  2  0  0  0  0
 29 33  1  0  0  0  0
 30 34  1  0  0  0  0
 30 54  1  0  0  0  0
 31 35  1  0  0  0  0
 31 55  1  0  0  0  0
 32 56  1  0  0  0  0
 32 57  1  0  0  0  0
 32 58  1  0  0  0  0
 33 59  1  0  0  0  0
 33 60  1  0  0  0  0
 33 61  1  0  0  0  0
 34 35  2  0  0  0  0
 34 62  1  0  0  0  0
 35 63  1  0  0  0  0
M  END
> <PUBCHEM_COMPOUND_CID>
10096344

> <PUBCHEM_CONFORMER_RMSD>
0.8

> <PUBCHEM_CONFORMER_DIVERSEORDER>
1
243
204
101
148
100
55
217
237
142
238
175
239
62
167
208
174
215
166
187
209
82
230
235
233
213
96
157
200
207
219
109
231
67
139
164
212
236
162
144
120
214
186
211
44
176
152
99
153
198
199
46
181
210
132
184
118
145
159
57
138
216
94
39
30
10
128
183
86
163
134
150
178
38
232
84
201
146
226
205
193
83
17
106
98
80
229
121
93
117
197
228
115
130
203
74
171
177
87
47
107
81
31
61
88
168
68
53
160
89
95
242
155
154
11
136
76
202
234
73
75
49
40
140
114
43
223
172
28
103
221
125
111
227
147
241
169
29
158
52
123
182
122
151
27
190
222
127
24
188
85
218
220
7
161
225
58
19
206
64
196
173
110
72
135
50
79
180
195
13
191
9
189
65
170
78
66
2
5
194
240
165
185
137
16
192
141
129
224
91
48
97
77
119
3
25
59
33
15
149
63
102
23
113
26
14
108
4
133
45
143
126
41
69
18
92
54
6
22
156
34
60
124
56
12
179
37
36
131
42
8
71
32
35
105
21
70
90
116
112
20
104
51

> <PUBCHEM_MMFF94_PARTIAL_CHARGES>
38
1 -0.57
10 -0.62
11 0.27
12 0.37
15 0.37
16 0.27
17 -0.24
18 0.29
19 0.46
2 -0.57
20 0.71
21 0.69
22 0.44
23 0.3
24 -0.2
25 0.48
26 0.31
27 0.17
29 -0.2
3 -0.82
30 -0.15
31 -0.15
32 0.14
33 0.2
34 -0.15
35 -0.15
4 0.05
45 0.36
46 0.36
5 -0.99
54 0.15
55 0.15
6 -0.57
62 0.15
63 0.15
7 -0.42
8 -0.42
9 -0.62

> <PUBCHEM_EFFECTIVE_ROTOR_COUNT>
5.2

> <PUBCHEM_PHARMACOPHORE_FEATURES>
13
1 1 acceptor
1 10 acceptor
1 2 acceptor
1 33 hydrophobe
1 5 cation
1 5 donor
3 9 10 25 cation
4 3 4 6 16 cation
5 4 6 16 17 18 rings
6 26 28 30 31 34 35 rings
6 3 11 12 13 14 15 rings
6 7 8 17 18 20 21 rings
6 9 10 25 26 27 28 rings

> <PUBCHEM_HEAVY_ATOM_COUNT>
35

> <PUBCHEM_ATOM_DEF_STEREO_COUNT>
1

> <PUBCHEM_ATOM_UDEF_STEREO_COUNT>
0

> <PUBCHEM_BOND_DEF_STEREO_COUNT>
0

> <PUBCHEM_BOND_UDEF_STEREO_COUNT>
0

> <PUBCHEM_ISOTOPIC_ATOM_COUNT>
0

> <PUBCHEM_COMPONENT_COUNT>
1

> <PUBCHEM_CACTVS_TAUTO_COUNT>
1

> <PUBCHEM_CONFORMER_ID>
009A0ED800000001

> <PUBCHEM_MMFF94_ENERGY>
76.2024

> <PUBCHEM_FEATURE_SELFOVERLAP>
66.119

> <PUBCHEM_SHAPE_FINGERPRINT>
11456790 92 17988097673073643769
117089 54 17606976263255481627
11963148 33 18335415743171563722
12107183 9 18341906186449109009
12422481 6 17346597469711120196
13103583 49 18343592854138659281
13402501 40 18335702783940079987
13583140 156 18342731945287335573
13782708 43 17749380452223513112
14950920 106 17988083417349213321
14955137 171 18130788992653109964
15064986 96 17417264143207173871
15324884 4 17829569024485359237
16110190 28 18341897355405205343
16112460 7 18199755923628773152
17780758 139 18343585144772427209
18393751 57 16831765736221263977
18608769 82 18342176653403215798
19246450 95 18270136608854965265
19841028 212 17979347883704456583
21033648 29 16271664312489173433
21781051 124 18271821112092280750
21859007 373 8357971114174207470
23522609 53 18118716341647315700
23559900 14 18262503884259102293
2747138 104 18272646819501643136
2748736 6 10375871870431754090
2838139 119 10592044660871494312
3737641 26 18341055111965051438
392239 28 18411699842372728710
4258327 124 17386868269486662852
474113 269 18198335364309354079
484989 97 18410578349952008702
5104073 3 18201717387779690472
6376802 90 17681261175270845780
6703917 75 17185603953310810905
9896288 288 17986676961351459544

> <PUBCHEM_SHAPE_MULTIPOLES>
668.7
16.67
4.8
1.47
3.93
1.15
0.11
10.7
-5.92
-1.54
-1.46
-0.56
-0.21
-0.35

> <PUBCHEM_SHAPE_SELFOVERLAP>
1455.918

> <PUBCHEM_SHAPE_VOLUME>
361

> <PUBCHEM_COORDINATE_TYPE>
2
5
10

$$$$
