10093198
  -OEChem-03292013303D

 44 47  0     0  0  0  0  0  0999 V2000
    2.4209    0.7370   -1.6120 O   0  0  0  0  0  0  0  0  0  0  0  0
   -2.4209    0.7372    1.6120 O   0  0  0  0  0  0  0  0  0  0  0  0
    1.3362    2.5402   -3.1010 O   0  0  0  0  0  0  0  0  0  0  0  0
   -1.3362    2.5405    3.1007 O   0  0  0  0  0  0  0  0  0  0  0  0
    3.4181   -3.0977    2.1449 O   0  0  0  0  0  0  0  0  0  0  0  0
   -3.4181   -3.0979   -2.1447 O   0  0  0  0  0  0  0  0  0  0  0  0
    5.4749   -2.3801    0.4403 O   0  0  0  0  0  0  0  0  0  0  0  0
   -5.4749   -2.3801   -0.4400 O   0  0  0  0  0  0  0  0  0  0  0  0
   -0.6954    2.4079   -2.0452 O   0  0  0  0  0  0  0  0  0  0  0  0
    0.6954    2.4081    2.0451 O   0  0  0  0  0  0  0  0  0  0  0  0
    0.6598    0.2589   -0.2961 C   0  0  0  0  0  0  0  0  0  0  0  0
   -0.6597    0.2590    0.2961 C   0  0  0  0  0  0  0  0  0  0  0  0
    1.7468   -0.5581    0.1118 C   0  0  0  0  0  0  0  0  0  0  0  0
   -1.7469   -0.5582   -0.1117 C   0  0  0  0  0  0  0  0  0  0  0  0
    2.8053   -0.2260   -0.7276 C   0  0  0  0  0  0  0  0  0  0  0  0
   -2.8052   -0.2259    0.7277 C   0  0  0  0  0  0  0  0  0  0  0  0
    1.1208    1.0240   -1.3423 C   0  0  0  0  0  0  0  0  0  0  0  0
   -1.1207    1.0242    1.3422 C   0  0  0  0  0  0  0  0  0  0  0  0
    1.9532   -1.5405    1.0959 C   0  0  0  0  0  0  0  0  0  0  0  0
   -1.9532   -1.5407   -1.0957 C   0  0  0  0  0  0  0  0  0  0  0  0
    4.0703   -0.8068   -0.6578 C   0  0  0  0  0  0  0  0  0  0  0  0
   -4.0702   -0.8067    0.6579 C   0  0  0  0  0  0  0  0  0  0  0  0
    3.2151   -2.1433    1.1903 C   0  0  0  0  0  0  0  0  0  0  0  0
   -3.2151   -2.1434   -1.1902 C   0  0  0  0  0  0  0  0  0  0  0  0
    4.2532   -1.7808    0.3282 C   0  0  0  0  0  0  0  0  0  0  0  0
   -4.2532   -1.7808   -0.3281 C   0  0  0  0  0  0  0  0  0  0  0  0
    0.4865    2.0153   -2.1452 C   0  0  0  0  0  0  0  0  0  0  0  0
   -0.4866    2.0155    2.1449 C   0  0  0  0  0  0  0  0  0  0  0  0
    0.8094    3.5493   -3.9700 C   0  0  0  0  0  0  0  0  0  0  0  0
   -0.8094    3.5497    3.9698 C   0  0  0  0  0  0  0  0  0  0  0  0
    1.1534   -1.8300    1.7718 H   0  0  0  0  0  0  0  0  0  0  0  0
   -1.1534   -1.8302   -1.7716 H   0  0  0  0  0  0  0  0  0  0  0  0
    4.8670   -0.5165   -1.3329 H   0  0  0  0  0  0  0  0  0  0  0  0
   -4.8670   -0.5164    1.3330 H   0  0  0  0  0  0  0  0  0  0  0  0
    4.3654   -3.1574    2.3491 H   0  0  0  0  0  0  0  0  0  0  0  0
   -4.1553   -3.6715   -1.8795 H   0  0  0  0  0  0  0  0  0  0  0  0
    5.3744   -3.2462    0.8675 H   0  0  0  0  0  0  0  0  0  0  0  0
   -5.5848   -2.7296   -1.3392 H   0  0  0  0  0  0  0  0  0  0  0  0
   -0.0269    3.1475   -4.5496 H   0  0  0  0  0  0  0  0  0  0  0  0
    1.6021    3.8533   -4.6586 H   0  0  0  0  0  0  0  0  0  0  0  0
    0.4940    4.4200   -3.3879 H   0  0  0  0  0  0  0  0  0  0  0  0
    0.0269    3.1479    4.5494 H   0  0  0  0  0  0  0  0  0  0  0  0
   -1.6021    3.8537    4.6582 H   0  0  0  0  0  0  0  0  0  0  0  0
   -0.4941    4.4204    3.3875 H   0  0  0  0  0  0  0  0  0  0  0  0
  1 15  1  0  0  0  0
  1 17  1  0  0  0  0
  2 16  1  0  0  0  0
  2 18  1  0  0  0  0
  3 27  1  0  0  0  0
  3 29  1  0  0  0  0
  4 28  1  0  0  0  0
  4 30  1  0  0  0  0
  5 23  1  0  0  0  0
  5 35  1  0  0  0  0
  6 24  1  0  0  0  0
  6 36  1  0  0  0  0
  7 25  1  0  0  0  0
  7 37  1  0  0  0  0
  8 26  1  0  0  0  0
  8 38  1  0  0  0  0
  9 27  2  0  0  0  0
 10 28  2  0  0  0  0
 11 12  1  0  0  0  0
 11 13  1  0  0  0  0
 11 17  2  0  0  0  0
 12 14  1  0  0  0  0
 12 18  2  0  0  0  0
 13 15  1  0  0  0  0
 13 19  2  0  0  0  0
 14 16  1  0  0  0  0
 14 20  2  0  0  0  0
 15 21  2  0  0  0  0
 16 22  2  0  0  0  0
 17 27  1  0  0  0  0
 18 28  1  0  0  0  0
 19 23  1  0  0  0  0
 19 31  1  0  0  0  0
 20 24  1  0  0  0  0
 20 32  1  0  0  0  0
 21 25  1  0  0  0  0
 21 33  1  0  0  0  0
 22 26  1  0  0  0  0
 22 34  1  0  0  0  0
 23 25  2  0  0  0  0
 24 26  2  0  0  0  0
 29 39  1  0  0  0  0
 29 40  1  0  0  0  0
 29 41  1  0  0  0  0
 30 42  1  0  0  0  0
 30 43  1  0  0  0  0
 30 44  1  0  0  0  0
M  END
> <PUBCHEM_COMPOUND_CID>
10093198

> <PUBCHEM_CONFORMER_RMSD>
0.8

> <PUBCHEM_CONFORMER_DIVERSEORDER>
2
4
3
1

> <PUBCHEM_MMFF94_PARTIAL_CHARGES>
34
1 -0.28
10 -0.57
15 0.14
16 0.14
17 0.05
18 0.05
19 -0.15
2 -0.28
20 -0.15
21 -0.15
22 -0.15
23 0.08
24 0.08
25 0.08
26 0.08
27 0.81
28 0.81
29 0.28
3 -0.43
30 0.28
31 0.15
32 0.15
33 0.15
34 0.15
35 0.45
36 0.45
37 0.45
38 0.45
4 -0.43
5 -0.53
6 -0.53
7 -0.53
8 -0.53
9 -0.57

> <PUBCHEM_EFFECTIVE_ROTOR_COUNT>
5

> <PUBCHEM_PHARMACOPHORE_FEATURES>
12
1 1 acceptor
1 10 acceptor
1 2 acceptor
1 5 donor
1 6 donor
1 7 donor
1 8 donor
1 9 acceptor
5 1 11 13 15 17 rings
5 2 12 14 16 18 rings
6 13 15 19 21 23 25 rings
6 14 16 20 22 24 26 rings

> <PUBCHEM_HEAVY_ATOM_COUNT>
30

> <PUBCHEM_ATOM_DEF_STEREO_COUNT>
0

> <PUBCHEM_ATOM_UDEF_STEREO_COUNT>
0

> <PUBCHEM_BOND_DEF_STEREO_COUNT>
0

> <PUBCHEM_BOND_UDEF_STEREO_COUNT>
0

> <PUBCHEM_ISOTOPIC_ATOM_COUNT>
0

> <PUBCHEM_COMPONENT_COUNT>
1

> <PUBCHEM_CACTVS_TAUTO_COUNT>
52

> <PUBCHEM_CONFORMER_ID>
009A028E00000002

> <PUBCHEM_MMFF94_ENERGY>
65.3598

> <PUBCHEM_FEATURE_SELFOVERLAP>
61.111

> <PUBCHEM_SHAPE_FINGERPRINT>
11377469 6 18336564740810513699
11552529 35 18057875854056892818
11578080 2 18266435707332269444
11763715 3 18129401400119331880
12236239 1 18410578383198494927
12553582 1 17846222189271411103
12655364 131 18118140284529672300
12788726 201 18201737144702949099
13009979 54 18341908388975858574
14022347 108 17200830879932372815
14787075 74 18055631965641207384
14856354 85 17632856409267981766
15475509 35 18049726514780856987
15878777 1 13925356912302981549
1813 80 18334865995509416598
20600515 1 17203619206870809851
20602899 9 17330522386311288926
20681651 13 18048583838593826538
20905425 154 17416695832570486793
23366157 5 17697869625300208705
23419403 2 17695014042625131256
23559900 14 17346054315224951852
238 59 17315370368571609950
25222932 49 16045316971605225711
25223398 141 18410008794502396817
266924 78 17245871325138205389
3380486 145 17754185180724826872
3552219 110 18411986875537962282
376196 1 16158488526604321909
392239 28 18201710787068967866
46194498 28 17169822504482593703
59025328 239 18115286965022109854
70251023 43 17822286834826026642
9841814 1 17415854732514208171

> <PUBCHEM_SHAPE_MULTIPOLES>
558.69
7.8
4.19
3.61
0
1.9
0
-10.35
0
0
0
0
5.56
-4.23

> <PUBCHEM_SHAPE_SELFOVERLAP>
1258.414

> <PUBCHEM_SHAPE_VOLUME>
299.2

> <PUBCHEM_COORDINATE_TYPE>
2
5
10

$$$$
