100953642
  -OEChem-03292013293D

 30 31  0     0  0  0  0  0  0999 V2000
    2.8483    1.7622   -1.6730 O   0  0  0  0  0  0  0  0  0  0  0  0
    4.9083    1.0182    0.0390 O   0  0  0  0  0  0  0  0  0  0  0  0
   -1.3106    1.6981    1.7990 N   0  0  0  0  0  0  0  0  0  0  0  0
   -2.7223    3.1582    0.6190 N   0  0  0  0  0  0  0  0  0  0  0  0
   -3.5624    0.5490   -2.2130 N   0  0  0  0  0  0  0  0  0  0  0  0
   -3.0735   -3.1827   -0.0676 N   0  0  0  0  0  0  0  0  0  0  0  0
   -1.3610   -0.1610    0.5850 C   0  0  0  0  0  0  0  0  0  0  0  0
   -2.1877    0.8071   -0.0366 C   0  0  0  0  0  0  0  0  0  0  0  0
   -1.0807   -1.5425    0.1478 C   0  0  0  0  0  0  0  0  0  0  0  0
    1.4003   -1.1990   -0.0924 C   0  0  0  0  0  0  0  0  0  0  0  0
   -2.1381    1.9470    0.7351 C   0  0  0  0  0  0  0  0  0  0  0  0
   -0.8314    0.4167    1.7179 C   0  0  0  0  0  0  0  0  0  0  0  0
    0.1731   -1.9785   -0.1358 C   0  0  0  0  0  0  0  0  0  0  0  0
    1.5435   -0.0783   -0.9105 C   0  0  0  0  0  0  0  0  0  0  0  0
    2.4341   -1.5720    0.7667 C   0  0  0  0  0  0  0  0  0  0  0  0
    2.7203    0.6695   -0.8694 C   0  0  0  0  0  0  0  0  0  0  0  0
    3.6109   -0.8243    0.8076 C   0  0  0  0  0  0  0  0  0  0  0  0
    3.7540    0.2965   -0.0104 C   0  0  0  0  0  0  0  0  0  0  0  0
   -2.9457    0.6648   -1.2367 C   0  0  0  0  0  0  0  0  0  0  0  0
   -2.1795   -2.4490    0.0285 C   0  0  0  0  0  0  0  0  0  0  0  0
   -0.1613    0.0375    2.4775 H   0  0  0  0  0  0  0  0  0  0  0  0
    0.3199   -3.0195   -0.4228 H   0  0  0  0  0  0  0  0  0  0  0  0
   -1.0888    2.3585    2.5311 H   0  0  0  0  0  0  0  0  0  0  0  0
    0.7472    0.2122   -1.5925 H   0  0  0  0  0  0  0  0  0  0  0  0
    2.3369   -2.4425    1.4111 H   0  0  0  0  0  0  0  0  0  0  0  0
    4.4082   -1.1260    1.4816 H   0  0  0  0  0  0  0  0  0  0  0  0
   -3.3417    3.3852   -0.1527 H   0  0  0  0  0  0  0  0  0  0  0  0
   -2.5730    3.9019    1.2941 H   0  0  0  0  0  0  0  0  0  0  0  0
    2.0348    1.8691   -2.1953 H   0  0  0  0  0  0  0  0  0  0  0  0
    5.5080    0.6127    0.6886 H   0  0  0  0  0  0  0  0  0  0  0  0
  1 16  1  0  0  0  0
  1 29  1  0  0  0  0
  2 18  1  0  0  0  0
  2 30  1  0  0  0  0
  3 11  1  0  0  0  0
  3 12  1  0  0  0  0
  3 23  1  0  0  0  0
  4 11  1  0  0  0  0
  4 27  1  0  0  0  0
  4 28  1  0  0  0  0
  5 19  3  0  0  0  0
  6 20  3  0  0  0  0
  7  8  1  0  0  0  0
  7  9  1  0  0  0  0
  7 12  2  0  0  0  0
  8 11  2  0  0  0  0
  8 19  1  0  0  0  0
  9 13  2  0  0  0  0
  9 20  1  0  0  0  0
 10 13  1  0  0  0  0
 10 14  2  0  0  0  0
 10 15  1  0  0  0  0
 12 21  1  0  0  0  0
 13 22  1  0  0  0  0
 14 16  1  0  0  0  0
 14 24  1  0  0  0  0
 15 17  2  0  0  0  0
 15 25  1  0  0  0  0
 16 18  2  0  0  0  0
 17 18  1  0  0  0  0
 17 26  1  0  0  0  0
M  END
> <PUBCHEM_COMPOUND_CID>
100953642

> <PUBCHEM_CONFORMER_RMSD>
0.6

> <PUBCHEM_CONFORMER_DIVERSEORDER>
1
5
4
8
12
18
10
15
3
7
9
11
17
14
6
2
16
13

> <PUBCHEM_MMFF94_PARTIAL_CHARGES>
30
1 -0.53
10 0.03
11 -0.07
12 -0.3
13 -0.18
14 -0.15
15 -0.15
16 0.08
17 -0.15
18 0.08
19 0.54
2 -0.53
20 0.49
21 0.15
22 0.15
23 0.27
24 0.15
25 0.15
26 0.15
27 0.4
28 0.4
29 0.45
3 0.03
30 0.45
4 -0.88
5 -0.56
6 -0.56
7 -0.05
8 0.02
9 0.11

> <PUBCHEM_EFFECTIVE_ROTOR_COUNT>
2

> <PUBCHEM_PHARMACOPHORE_FEATURES>
10
1 1 donor
1 2 donor
1 3 cation
1 3 donor
1 4 cation
1 4 donor
1 5 acceptor
1 6 acceptor
5 3 7 8 11 12 rings
6 10 14 15 16 17 18 rings

> <PUBCHEM_HEAVY_ATOM_COUNT>
20

> <PUBCHEM_ATOM_DEF_STEREO_COUNT>
0

> <PUBCHEM_ATOM_UDEF_STEREO_COUNT>
0

> <PUBCHEM_BOND_DEF_STEREO_COUNT>
1

> <PUBCHEM_BOND_UDEF_STEREO_COUNT>
0

> <PUBCHEM_ISOTOPIC_ATOM_COUNT>
0

> <PUBCHEM_COMPONENT_COUNT>
1

> <PUBCHEM_CACTVS_TAUTO_COUNT>
101

> <PUBCHEM_CONFORMER_ID>
06046E2A00000001

> <PUBCHEM_MMFF94_ENERGY>
40.7229

> <PUBCHEM_FEATURE_SELFOVERLAP>
50.831

> <PUBCHEM_SHAPE_FINGERPRINT>
11640471 11 18055636114046787384
11725454 13 16227434180649636303
12077114 3 16805323262596914940
12173636 292 18268721523787429889
12403814 3 18041003968593053851
16945 1 18343019973883057395
17349148 13 18270106912469891238
17492 89 18335138704648319098
18981168 100 18055101824526248094
192875 21 18340471280059913452
19765921 60 17913484637038058465
20449540 30 18334859462853115591
20510252 161 18270687579221489490
20600515 1 17623320528770696971
21339142 36 18200308969619867567
22182313 1 17911774067533583243
22749437 52 18411698747256113120
22907989 373 18342182210225655533
23419403 2 17698993300266194697
23557571 272 18130231565753155594
23558518 356 18335994090044567146
23559900 14 18343010074453140114
2748010 2 17841408621769528795
474 4 18048599218439053425
7164475 11 18411140263900348838
74978 22 18338245847208856822
9981440 41 18200300048883441810

> <PUBCHEM_SHAPE_MULTIPOLES>
379.93
6.99
2.92
1.49
5.34
0.66
0.22
-1.93
1.39
-2.74
-0.35
-0.73
-0.72
-1

> <PUBCHEM_SHAPE_SELFOVERLAP>
828.07

> <PUBCHEM_SHAPE_VOLUME>
202.3

> <PUBCHEM_COORDINATE_TYPE>
2
5
10

$$$$
