10096171
  -OEChem-03292013303D

 62 65  0     1  0  0  0  0  0999 V2000
    3.7995    0.3342   -0.8280 O   0  0  0  0  0  0  0  0  0  0  0  0
    4.3643    2.9986   -1.0571 O   0  0  0  0  0  0  0  0  0  0  0  0
    0.0508   -1.5591    0.1862 O   0  0  0  0  0  0  0  0  0  0  0  0
   -0.5244    2.4451    0.3644 O   0  0  0  0  0  0  0  0  0  0  0  0
    5.3360    4.0766   -1.0636 O   0  0  0  0  0  0  0  0  0  0  0  0
   -3.0603    2.1090    0.5342 O   0  0  0  0  0  0  0  0  0  0  0  0
   -4.5927   -2.4202    0.4430 O   0  0  0  0  0  0  0  0  0  0  0  0
    5.8000   -3.9284   -0.4872 O   0  0  0  0  0  0  0  0  0  0  0  0
    3.5603    1.1856    0.2963 C   0  0  1  0  0  0  0  0  0  0  0  0
    4.5497    2.3450    0.1994 C   0  0  0  0  0  0  0  0  0  0  0  0
    2.1278    1.6930    0.2192 C   0  0  0  0  0  0  0  0  0  0  0  0
    1.0422    0.6422    0.2374 C   0  0  0  0  0  0  0  0  0  0  0  0
    1.1528   -0.7043    0.1766 C   0  0  0  0  0  0  0  0  0  0  0  0
    5.9905    1.8410    0.2763 C   0  0  0  0  0  0  0  0  0  0  0  0
    4.2821    3.3740    1.2962 C   0  0  0  0  0  0  0  0  0  0  0  0
    2.4272   -1.4800    0.0607 C   0  0  0  0  0  0  0  0  0  0  0  0
    3.6276   -0.9765   -0.4682 C   0  0  0  0  0  0  0  0  0  0  0  0
   -0.3346    1.2350    0.3251 C   0  0  0  0  0  0  0  0  0  0  0  0
   -1.4680    0.3073    0.3603 C   0  0  0  0  0  0  0  0  0  0  0  0
   -1.2119   -1.0521    0.2885 C   0  0  0  0  0  0  0  0  0  0  0  0
    2.4309   -2.8407    0.4385 C   0  0  0  0  0  0  0  0  0  0  0  0
    4.7468   -1.7975   -0.6717 C   0  0  0  0  0  0  0  0  0  0  0  0
   -2.7818    0.7743    0.4613 C   0  0  0  0  0  0  0  0  0  0  0  0
   -2.2673   -1.9648    0.3167 C   0  0  0  0  0  0  0  0  0  0  0  0
   -3.8375   -0.1374    0.4903 C   0  0  0  0  0  0  0  0  0  0  0  0
    4.7102   -3.1364   -0.3027 C   0  0  0  0  0  0  0  0  0  0  0  0
    3.5546   -3.6561    0.2638 C   0  0  0  0  0  0  0  0  0  0  0  0
   -3.5806   -1.5063    0.4181 C   0  0  0  0  0  0  0  0  0  0  0  0
   -5.2152    0.3345    0.5961 C   0  0  0  0  0  0  0  0  0  0  0  0
   -7.4552    1.0900   -0.2835 C   0  0  0  0  0  0  0  0  0  0  0  0
   -6.0324    0.6119   -0.4416 C   0  0  0  0  0  0  0  0  0  0  0  0
   -7.6194    2.4727   -0.9136 C   0  0  0  0  0  0  0  0  0  0  0  0
   -8.4215    0.0911   -0.9192 C   0  0  0  0  0  0  0  0  0  0  0  0
   -5.1506   -2.8013   -0.8123 C   0  0  0  0  0  0  0  0  0  0  0  0
    3.7277    0.6647    1.2525 H   0  0  0  0  0  0  0  0  0  0  0  0
    1.9872    2.2754   -0.7010 H   0  0  0  0  0  0  0  0  0  0  0  0
    1.9367    2.3588    1.0684 H   0  0  0  0  0  0  0  0  0  0  0  0
    6.7178    2.6584    0.3366 H   0  0  0  0  0  0  0  0  0  0  0  0
    6.1424    1.2104    1.1593 H   0  0  0  0  0  0  0  0  0  0  0  0
    6.2579    1.2604   -0.6138 H   0  0  0  0  0  0  0  0  0  0  0  0
    4.1612    2.8945    2.2740 H   0  0  0  0  0  0  0  0  0  0  0  0
    3.3969    3.9848    1.0871 H   0  0  0  0  0  0  0  0  0  0  0  0
    5.1111    4.0848    1.3985 H   0  0  0  0  0  0  0  0  0  0  0  0
    1.5488   -3.3044    0.8770 H   0  0  0  0  0  0  0  0  0  0  0  0
    5.6518   -1.3742   -1.1022 H   0  0  0  0  0  0  0  0  0  0  0  0
   -2.0662   -3.0319    0.2602 H   0  0  0  0  0  0  0  0  0  0  0  0
    3.5110   -4.6993    0.5651 H   0  0  0  0  0  0  0  0  0  0  0  0
    4.6882    4.7962   -0.9729 H   0  0  0  0  0  0  0  0  0  0  0  0
   -5.5786    0.4549    1.6138 H   0  0  0  0  0  0  0  0  0  0  0  0
   -7.7045    1.1714    0.7821 H   0  0  0  0  0  0  0  0  0  0  0  0
   -2.2467    2.6344    0.5428 H   0  0  0  0  0  0  0  0  0  0  0  0
   -5.6604    0.4918   -1.4572 H   0  0  0  0  0  0  0  0  0  0  0  0
    6.5099   -3.3995   -0.8903 H   0  0  0  0  0  0  0  0  0  0  0  0
   -6.9431    3.1984   -0.4481 H   0  0  0  0  0  0  0  0  0  0  0  0
   -8.6433    2.8389   -0.7815 H   0  0  0  0  0  0  0  0  0  0  0  0
   -7.4051    2.4542   -1.9882 H   0  0  0  0  0  0  0  0  0  0  0  0
   -8.3221   -0.8979   -0.4577 H   0  0  0  0  0  0  0  0  0  0  0  0
   -9.4585    0.4181   -0.7873 H   0  0  0  0  0  0  0  0  0  0  0  0
   -8.2377   -0.0196   -1.9940 H   0  0  0  0  0  0  0  0  0  0  0  0
   -6.1946   -3.0849   -0.6536 H   0  0  0  0  0  0  0  0  0  0  0  0
   -4.6064   -3.6686   -1.1982 H   0  0  0  0  0  0  0  0  0  0  0  0
   -5.1123   -1.9935   -1.5497 H   0  0  0  0  0  0  0  0  0  0  0  0
  1  9  1  0  0  0  0
  1 17  1  0  0  0  0
  2  5  1  0  0  0  0
  2 10  1  0  0  0  0
  3 13  1  0  0  0  0
  3 20  1  0  0  0  0
  4 18  2  0  0  0  0
  5 48  1  0  0  0  0
  6 23  1  0  0  0  0
  6 51  1  0  0  0  0
  7 28  1  0  0  0  0
  7 34  1  0  0  0  0
  8 26  1  0  0  0  0
  8 53  1  0  0  0  0
  9 10  1  0  0  0  0
  9 11  1  0  0  0  0
  9 35  1  0  0  0  0
 10 14  1  0  0  0  0
 10 15  1  0  0  0  0
 11 12  1  0  0  0  0
 11 36  1  0  0  0  0
 11 37  1  0  0  0  0
 12 13  2  0  0  0  0
 12 18  1  0  0  0  0
 13 16  1  0  0  0  0
 14 38  1  0  0  0  0
 14 39  1  0  0  0  0
 14 40  1  0  0  0  0
 15 41  1  0  0  0  0
 15 42  1  0  0  0  0
 15 43  1  0  0  0  0
 16 17  2  0  0  0  0
 16 21  1  0  0  0  0
 17 22  1  0  0  0  0
 18 19  1  0  0  0  0
 19 20  1  0  0  0  0
 19 23  2  0  0  0  0
 20 24  2  0  0  0  0
 21 27  2  0  0  0  0
 21 44  1  0  0  0  0
 22 26  2  0  0  0  0
 22 45  1  0  0  0  0
 23 25  1  0  0  0  0
 24 28  1  0  0  0  0
 24 46  1  0  0  0  0
 25 28  2  0  0  0  0
 25 29  1  0  0  0  0
 26 27  1  0  0  0  0
 27 47  1  0  0  0  0
 29 31  2  0  0  0  0
 29 49  1  0  0  0  0
 30 31  1  0  0  0  0
 30 32  1  0  0  0  0
 30 33  1  0  0  0  0
 30 50  1  0  0  0  0
 31 52  1  0  0  0  0
 32 54  1  0  0  0  0
 32 55  1  0  0  0  0
 32 56  1  0  0  0  0
 33 57  1  0  0  0  0
 33 58  1  0  0  0  0
 33 59  1  0  0  0  0
 34 60  1  0  0  0  0
 34 61  1  0  0  0  0
 34 62  1  0  0  0  0
M  END
> <PUBCHEM_COMPOUND_CID>
10096171

> <PUBCHEM_CONFORMER_RMSD>
0.8

> <PUBCHEM_CONFORMER_DIVERSEORDER>
3
38
26
22
37
30
12
40
18
28
32
15
20
24
7
33
25
13
39
8
36
29
11
17
16
27
31
34
23
4
21
35
6
10
14
1
19
2
5
9

> <PUBCHEM_MMFF94_PARTIAL_CHARGES>
39
1 -0.36
10 0.28
11 0.14
12 -0.12
13 0.05
16 0.03
17 0.08
18 0.47
19 0.09
2 -0.28
20 0.08
21 -0.15
22 -0.15
23 0.08
24 -0.15
25 0.03
26 0.08
27 -0.15
28 0.08
29 -0.18
3 -0.16
30 0.14
31 -0.29
34 0.28
4 -0.57
44 0.15
45 0.15
46 0.15
47 0.15
48 0.4
49 0.15
5 -0.4
51 0.45
52 0.15
53 0.45
6 -0.53
7 -0.36
8 -0.53
9 0.28

> <PUBCHEM_EFFECTIVE_ROTOR_COUNT>
5.6

> <PUBCHEM_PHARMACOPHORE_FEATURES>
12
1 1 acceptor
1 3 acceptor
1 4 acceptor
1 6 donor
1 7 acceptor
1 8 donor
3 10 14 15 hydrophobe
3 30 32 33 hydrophobe
6 16 17 21 22 26 27 rings
6 19 20 23 24 25 28 rings
6 3 12 13 18 19 20 rings
7 1 9 11 12 13 16 17 rings

> <PUBCHEM_HEAVY_ATOM_COUNT>
34

> <PUBCHEM_ATOM_DEF_STEREO_COUNT>
0

> <PUBCHEM_ATOM_UDEF_STEREO_COUNT>
1

> <PUBCHEM_BOND_DEF_STEREO_COUNT>
1

> <PUBCHEM_BOND_UDEF_STEREO_COUNT>
0

> <PUBCHEM_ISOTOPIC_ATOM_COUNT>
0

> <PUBCHEM_COMPONENT_COUNT>
1

> <PUBCHEM_CACTVS_TAUTO_COUNT>
25

> <PUBCHEM_CONFORMER_ID>
009A0E2B00000003

> <PUBCHEM_MMFF94_ENERGY>
126.541

> <PUBCHEM_FEATURE_SELFOVERLAP>
60.94

> <PUBCHEM_SHAPE_FINGERPRINT>
10050765 1 18410009962137324563
10411042 1 18050849915106111050
10554248 39 18409719665086194269
10835480 77 18408882953996595905
1100329 8 17981052907946866312
11007060 377 18261115176136237299
11135609 187 18194122039038958792
11578080 2 17677318417115646028
11719270 70 18339639044832250896
12107183 9 17982464697513149897
13533116 47 18343017774733285801
13540713 4 18115041795419938875
13878862 14 18337093605940345805
14068700 675 18127412251068699666
14117953 113 18129098910047763239
14790565 3 17905334283727863580
15064981 113 17059769993826017949
15082195 135 18113913662383297036
15183329 4 18337670794591158507
15196674 1 18411985788452547211
15347591 1 18409168848516246923
15439362 3 18335986458593712724
15475509 35 13973411184512658356
15840311 113 18333734594577246509
15927050 60 18197783413476962150
16067689 302 18341054095292555439
18681886 176 18270680849641226578
19053607 189 18265046010913999472
19315958 150 18408044018261846461
20028762 73 18058727979758138559
20157964 124 18410573985272978369
20511986 3 18059849622992888767
20554085 129 17916009326579733520
21033648 29 17603586314213397143
21133410 127 17968095369567422956
21279426 13 18409167693354264375
21859007 373 17605540077329795101
22311459 1 18194121811600896915
23522609 53 17845114934150228929
23559900 14 18341045237914385442
249057 25 17703232806686574745
255183 451 18128543652907860886
3004659 81 18261111816375026651
335352 9 18338519625467146591
3411729 13 18335136536105455146
350125 39 18410015455705963916
3633792 109 18339640036838152217
4073 2 18261114136037031955
4144715 1 18260839236971957651
44317340 157 18411702101615112879
44555599 121 18129106628589186825
504579 68 18273220798013462253
5104073 3 18410864273644173483
59755656 215 18339367469781453116
6698420 124 18336273324361262913
67856867 119 18411417319682584346
9962374 69 18342448214757085278

> <PUBCHEM_SHAPE_MULTIPOLES>
652.75
19.06
4.72
0.9
28.21
0.44
-0.06
-5.04
-5.15
-8.35
-0.4
-0.03
-0.3
0.58

> <PUBCHEM_SHAPE_SELFOVERLAP>
1423.828

> <PUBCHEM_SHAPE_VOLUME>
353.7

> <PUBCHEM_COORDINATE_TYPE>
2
5
10

$$$$
