101000962
  -OEChem-03292013293D

 68 71  0     1  0  0  0  0  0999 V2000
   -0.9817    1.0492    1.8843 O   0  0  0  0  0  0  0  0  0  0  0  0
    1.7892    2.8991    0.7106 O   0  0  0  0  0  0  0  0  0  0  0  0
    0.7413   -3.0170   -0.5431 O   0  0  0  0  0  0  0  0  0  0  0  0
    1.7442   -1.0659   -2.7139 O   0  0  0  0  0  0  0  0  0  0  0  0
   -1.3652    1.6842   -2.4014 O   0  0  0  0  0  0  0  0  0  0  0  0
    3.4911    1.3785   -0.6874 O   0  0  0  0  0  0  0  0  0  0  0  0
   -2.6932    2.5674    1.8611 O   0  0  0  0  0  0  0  0  0  0  0  0
   -3.6098    0.9276   -1.2927 O   0  0  0  0  0  0  0  0  0  0  0  0
    0.6526   -0.2828    0.5951 C   0  0  1  0  0  0  0  0  0  0  0  0
    1.4094    0.2110   -0.6635 C   0  0  2  0  0  0  0  0  0  0  0  0
    0.6064    1.5236   -0.9515 C   0  0  2  0  0  0  0  0  0  0  0  0
    0.5692    2.1852    0.4725 C   0  0  1  0  0  0  0  0  0  0  0  0
    0.3837    0.9910    1.4401 C   0  0  1  0  0  0  0  0  0  0  0  0
   -0.5725   -0.9913   -0.0581 C   0  0  2  0  0  0  0  0  0  0  0  0
    0.1004   -1.8924   -1.1233 C   0  0  1  0  0  0  0  0  0  0  0  0
    1.1559   -0.9328   -1.6480 C   0  0  0  0  0  0  0  0  0  0  0  0
   -0.5256    3.1508    0.9269 C   0  0  2  0  0  0  0  0  0  0  0  0
   -0.8129    1.1305   -1.4531 C   0  0  0  0  0  0  0  0  0  0  0  0
   -1.4917    0.0104   -0.7209 C   0  0  0  0  0  0  0  0  0  0  0  0
    1.2817    2.3890   -2.0252 C   0  0  0  0  0  0  0  0  0  0  0  0
    1.2536    1.0295    2.6998 C   0  0  0  0  0  0  0  0  0  0  0  0
    2.8914    0.3393   -0.4226 C   0  0  0  0  0  0  0  0  0  0  0  0
   -1.5426    2.2603    1.5886 C   0  0  0  0  0  0  0  0  0  0  0  0
   -0.8081   -2.4170   -2.2283 C   0  0  0  0  0  0  0  0  0  0  0  0
   -1.1184    4.0856   -0.1092 C   0  0  0  0  0  0  0  0  0  0  0  0
   -2.8292   -0.0335   -0.6784 C   0  0  0  0  0  0  0  0  0  0  0  0
    3.5856   -0.8631    0.1168 C   0  0  0  0  0  0  0  0  0  0  0  0
   -3.5529   -1.0866    0.0108 C   0  0  0  0  0  0  0  0  0  0  0  0
    4.9027   -0.8370    0.3608 C   0  0  0  0  0  0  0  0  0  0  0  0
   -4.8894   -1.1906    0.0921 C   0  0  0  0  0  0  0  0  0  0  0  0
    5.6223   -1.9776    0.8829 C   0  0  0  0  0  0  0  0  0  0  0  0
   -5.5525   -2.2674    0.7951 C   0  0  0  0  0  0  0  0  0  0  0  0
    6.9402   -1.9632    1.1310 C   0  0  0  0  0  0  0  0  0  0  0  0
   -6.8865   -2.3766    0.8798 C   0  0  0  0  0  0  0  0  0  0  0  0
    7.6943   -3.1342    1.6701 C   0  0  0  0  0  0  0  0  0  0  0  0
   -7.5828   -3.4831    1.6020 C   0  0  0  0  0  0  0  0  0  0  0  0
    1.2008   -1.0194    1.1923 H   0  0  0  0  0  0  0  0  0  0  0  0
   -1.0425   -1.5907    0.7242 H   0  0  0  0  0  0  0  0  0  0  0  0
   -0.1320    3.7828    1.7371 H   0  0  0  0  0  0  0  0  0  0  0  0
    2.2034    2.8842   -1.7187 H   0  0  0  0  0  0  0  0  0  0  0  0
    0.6167    3.1985   -2.3476 H   0  0  0  0  0  0  0  0  0  0  0  0
    1.5019    1.7961   -2.9204 H   0  0  0  0  0  0  0  0  0  0  0  0
    1.0660    1.9402    3.2796 H   0  0  0  0  0  0  0  0  0  0  0  0
    2.3210    0.9825    2.4646 H   0  0  0  0  0  0  0  0  0  0  0  0
    1.0102    0.1886    3.3594 H   0  0  0  0  0  0  0  0  0  0  0  0
    1.7492    3.7409    0.2261 H   0  0  0  0  0  0  0  0  0  0  0  0
   -0.2608   -3.0947   -2.8948 H   0  0  0  0  0  0  0  0  0  0  0  0
   -1.2196   -1.6204   -2.8559 H   0  0  0  0  0  0  0  0  0  0  0  0
   -1.6345   -2.9991   -1.8060 H   0  0  0  0  0  0  0  0  0  0  0  0
   -1.7723    3.5726   -0.8160 H   0  0  0  0  0  0  0  0  0  0  0  0
   -0.3375    4.6164   -0.6608 H   0  0  0  0  0  0  0  0  0  0  0  0
   -1.7416    4.8411    0.3838 H   0  0  0  0  0  0  0  0  0  0  0  0
    1.2242   -3.4887   -1.2430 H   0  0  0  0  0  0  0  0  0  0  0  0
    3.0153   -1.7680    0.2878 H   0  0  0  0  0  0  0  0  0  0  0  0
   -2.9806   -1.8742    0.4888 H   0  0  0  0  0  0  0  0  0  0  0  0
   -3.0553    1.6287   -1.6670 H   0  0  0  0  0  0  0  0  0  0  0  0
    5.4802    0.0655    0.1776 H   0  0  0  0  0  0  0  0  0  0  0  0
   -5.5297   -0.4453   -0.3733 H   0  0  0  0  0  0  0  0  0  0  0  0
    5.0510   -2.8819    1.0775 H   0  0  0  0  0  0  0  0  0  0  0  0
   -4.9240   -3.0157    1.2715 H   0  0  0  0  0  0  0  0  0  0  0  0
    7.5209   -1.0639    0.9397 H   0  0  0  0  0  0  0  0  0  0  0  0
   -7.5251   -1.6342    0.4071 H   0  0  0  0  0  0  0  0  0  0  0  0
    7.0490   -4.0021    1.8387 H   0  0  0  0  0  0  0  0  0  0  0  0
    8.1638   -2.8683    2.6221 H   0  0  0  0  0  0  0  0  0  0  0  0
    8.4812   -3.4256    0.9678 H   0  0  0  0  0  0  0  0  0  0  0  0
   -8.2256   -4.0338    0.9084 H   0  0  0  0  0  0  0  0  0  0  0  0
   -8.2097   -3.0711    2.3987 H   0  0  0  0  0  0  0  0  0  0  0  0
   -6.8808   -4.1919    2.0525 H   0  0  0  0  0  0  0  0  0  0  0  0
  1 13  1  0  0  0  0
  1 23  1  0  0  0  0
  2 12  1  0  0  0  0
  2 46  1  0  0  0  0
  3 15  1  0  0  0  0
  3 53  1  0  0  0  0
  4 16  2  0  0  0  0
  5 18  2  0  0  0  0
  6 22  2  0  0  0  0
  7 23  2  0  0  0  0
  8 26  1  0  0  0  0
  8 56  1  0  0  0  0
  9 10  1  0  0  0  0
  9 13  1  0  0  0  0
  9 14  1  0  0  0  0
  9 37  1  0  0  0  0
 10 11  1  0  0  0  0
 10 16  1  0  0  0  0
 10 22  1  0  0  0  0
 11 12  1  0  0  0  0
 11 18  1  0  0  0  0
 11 20  1  0  0  0  0
 12 13  1  0  0  0  0
 12 17  1  0  0  0  0
 13 21  1  0  0  0  0
 14 15  1  0  0  0  0
 14 19  1  0  0  0  0
 14 38  1  0  0  0  0
 15 16  1  0  0  0  0
 15 24  1  0  0  0  0
 17 23  1  0  0  0  0
 17 25  1  0  0  0  0
 17 39  1  0  0  0  0
 18 19  1  0  0  0  0
 19 26  2  0  0  0  0
 20 40  1  0  0  0  0
 20 41  1  0  0  0  0
 20 42  1  0  0  0  0
 21 43  1  0  0  0  0
 21 44  1  0  0  0  0
 21 45  1  0  0  0  0
 22 27  1  0  0  0  0
 24 47  1  0  0  0  0
 24 48  1  0  0  0  0
 24 49  1  0  0  0  0
 25 50  1  0  0  0  0
 25 51  1  0  0  0  0
 25 52  1  0  0  0  0
 26 28  1  0  0  0  0
 27 29  2  0  0  0  0
 27 54  1  0  0  0  0
 28 30  2  0  0  0  0
 28 55  1  0  0  0  0
 29 31  1  0  0  0  0
 29 57  1  0  0  0  0
 30 32  1  0  0  0  0
 30 58  1  0  0  0  0
 31 33  2  0  0  0  0
 31 59  1  0  0  0  0
 32 34  2  0  0  0  0
 32 60  1  0  0  0  0
 33 35  1  0  0  0  0
 33 61  1  0  0  0  0
 34 36  1  0  0  0  0
 34 62  1  0  0  0  0
 35 63  1  0  0  0  0
 35 64  1  0  0  0  0
 35 65  1  0  0  0  0
 36 66  1  0  0  0  0
 36 67  1  0  0  0  0
 36 68  1  0  0  0  0
M  END
> <PUBCHEM_COMPOUND_CID>
101000962

> <PUBCHEM_CONFORMER_RMSD>
0.8

> <PUBCHEM_CONFORMER_DIVERSEORDER>
1
6
8
9
7
3
5
2
4

> <PUBCHEM_MMFF94_PARTIAL_CHARGES>
42
1 -0.43
10 0.12
11 0.06
12 0.28
13 0.28
14 0.14
15 0.34
16 0.45
17 0.06
18 0.49
19 -0.12
2 -0.68
22 0.49
23 0.66
26 0.08
27 -0.14
28 -0.15
29 -0.15
3 -0.68
30 -0.15
31 -0.15
32 -0.15
33 -0.29
34 -0.29
35 0.14
36 0.14
4 -0.57
46 0.4
5 -0.57
53 0.4
54 0.15
55 0.15
56 0.45
57 0.15
58 0.15
59 0.15
6 -0.57
60 0.15
61 0.15
62 0.15
7 -0.57
8 -0.53

> <PUBCHEM_EFFECTIVE_ROTOR_COUNT>
5.6

> <PUBCHEM_PHARMACOPHORE_FEATURES>
13
1 2 acceptor
1 2 donor
1 3 acceptor
1 3 donor
1 35 hydrophobe
1 36 hydrophobe
1 4 acceptor
1 5 acceptor
1 6 acceptor
1 7 acceptor
1 8 donor
10 9 10 11 12 13 14 15 16 18 19 rings
5 1 12 13 17 23 rings

> <PUBCHEM_HEAVY_ATOM_COUNT>
36

> <PUBCHEM_ATOM_DEF_STEREO_COUNT>
8

> <PUBCHEM_ATOM_UDEF_STEREO_COUNT>
0

> <PUBCHEM_BOND_DEF_STEREO_COUNT>
5

> <PUBCHEM_BOND_UDEF_STEREO_COUNT>
0

> <PUBCHEM_ISOTOPIC_ATOM_COUNT>
0

> <PUBCHEM_COMPONENT_COUNT>
1

> <PUBCHEM_CACTVS_TAUTO_COUNT>
176

> <PUBCHEM_CONFORMER_ID>
0605270200000001

> <PUBCHEM_MMFF94_ENERGY>
127.057

> <PUBCHEM_FEATURE_SELFOVERLAP>
66.003

> <PUBCHEM_SHAPE_FINGERPRINT>
10076449 9 18337966687614859188
10863032 1 16951948584042511804
11456790 92 18341066194173114395
11578080 2 17476351708878869780
12035758 1 17846775230482209266
12422481 6 17774737354432824787
12788726 201 17846229885789645064
13140716 1 17702090576834225646
13782708 43 18261110837729255067
14068700 675 18187082845306827610
14713325 29 18193265291942236356
14955137 171 18340481261432099195
15131766 46 12606816187018419418
15219462 58 16341471085702456068
15324884 4 18050248657648280565
15840311 113 12679194811906017283
16728300 4 18336254635914838466
16945 1 16988841695974592964
20642791 268 14836401458125186857
20721686 146 12823305589071897443
22223350 30 17914597591793054418
23419403 2 18268406058128737780
23559900 14 17750796748028959731
3178227 256 18270691994922824755
3380486 77 18198921364090625215
392239 28 17704060820182989514
4112364 45 14907619073189175907
469060 322 18188498943564117274
57527358 35 17894630344551974684
57527573 199 16268829973133897793
9896288 288 18125437514820465554

> <PUBCHEM_SHAPE_MULTIPOLES>
693.91
12.76
4.35
2.27
0.11
1.01
-0.29
-21.59
8.73
-1.44
1.21
0.12
0.23
-0.31

> <PUBCHEM_SHAPE_SELFOVERLAP>
1517.086

> <PUBCHEM_SHAPE_VOLUME>
377

> <PUBCHEM_COORDINATE_TYPE>
2
5
10

$$$$
