101079053
  -OEChem-03292013293D

 68 70  0     1  0  0  0  0  0999 V2000
   -1.5709   -0.2549   -1.4762 O   0  0  0  0  0  0  0  0  0  0  0  0
    0.5842    0.5954   -1.7875 O   0  0  0  0  0  0  0  0  0  0  0  0
   -5.3042   -2.1419    0.5059 O   0  0  0  0  0  0  0  0  0  0  0  0
   -5.3432   -0.6041    2.1879 O   0  0  0  0  0  0  0  0  0  0  0  0
    2.8772    3.4685   -0.3177 O   0  0  0  0  0  0  0  0  0  0  0  0
    4.8120   -0.2882    1.4598 O   0  0  0  0  0  0  0  0  0  0  0  0
    4.1734    1.8093    0.6781 N   0  0  0  0  0  0  0  0  0  0  0  0
   -1.4568    1.4325    0.2938 C   0  0  1  0  0  0  0  0  0  0  0  0
   -2.2702    0.8567   -0.9018 C   0  0  2  0  0  0  0  0  0  0  0  0
   -1.2083    0.3371    1.3667 C   0  0  2  0  0  0  0  0  0  0  0  0
   -0.1956    2.1930   -0.1841 C   0  0  2  0  0  0  0  0  0  0  0  0
   -3.6248    0.3379   -0.3864 C   0  0  0  0  0  0  0  0  0  0  0  0
   -2.5597   -0.2283    1.8502 C   0  0  0  0  0  0  0  0  0  0  0  0
   -3.4400   -0.7264    0.7027 C   0  0  1  0  0  0  0  0  0  0  0  0
   -0.5534    3.3246   -1.1831 C   0  0  1  0  0  0  0  0  0  0  0  0
   -2.4470    1.8751   -1.9968 C   0  0  0  0  0  0  0  0  0  0  0  0
   -1.6888    2.9737   -2.1129 C   0  0  0  0  0  0  0  0  0  0  0  0
   -0.4232    0.8524    2.5767 C   0  0  0  0  0  0  0  0  0  0  0  0
    0.8272    1.2719   -0.7913 C   0  0  0  0  0  0  0  0  0  0  0  0
   -0.8987    4.6205   -0.4405 C   0  0  0  0  0  0  0  0  0  0  0  0
   -4.7849   -1.1221    1.2322 C   0  0  0  0  0  0  0  0  0  0  0  0
    2.1498    1.1930   -0.1445 C   0  0  0  0  0  0  0  0  0  0  0  0
    2.7075    0.0905    0.3721 C   0  0  0  0  0  0  0  0  0  0  0  0
    3.0815    2.3220    0.0415 C   0  0  0  0  0  0  0  0  0  0  0  0
    2.2204   -1.3086    0.4593 C   0  0  1  0  0  0  0  0  0  0  0  0
    4.0309    0.4729    0.9148 C   0  0  0  0  0  0  0  0  0  0  0  0
    3.1496   -2.2502   -0.3443 C   0  0  0  0  0  0  0  0  0  0  0  0
    2.1040   -1.7553    1.9014 C   0  0  0  0  0  0  0  0  0  0  0  0
    2.5177   -3.6127   -0.6587 C   0  0  0  0  0  0  0  0  0  0  0  0
    1.2711   -3.5126   -1.5439 C   0  0  0  0  0  0  0  0  0  0  0  0
    1.1972   -2.6328    2.3476 C   0  0  0  0  0  0  0  0  0  0  0  0
    0.6269   -4.8672   -1.8409 C   0  0  0  0  0  0  0  0  0  0  0  0
   -0.5610   -4.7219   -2.7800 C   0  0  0  0  0  0  0  0  0  0  0  0
   -2.0912    2.1925    0.7779 H   0  0  0  0  0  0  0  0  0  0  0  0
   -0.6439   -0.4880    0.9233 H   0  0  0  0  0  0  0  0  0  0  0  0
    0.2700    2.6643    0.6906 H   0  0  0  0  0  0  0  0  0  0  0  0
   -4.1983   -0.1059   -1.2119 H   0  0  0  0  0  0  0  0  0  0  0  0
   -4.2294    1.1710   -0.0022 H   0  0  0  0  0  0  0  0  0  0  0  0
   -3.0867    0.5513    2.4175 H   0  0  0  0  0  0  0  0  0  0  0  0
   -2.3848   -1.0506    2.5566 H   0  0  0  0  0  0  0  0  0  0  0  0
   -2.9620   -1.6196    0.2792 H   0  0  0  0  0  0  0  0  0  0  0  0
    0.3240    3.5350   -1.8095 H   0  0  0  0  0  0  0  0  0  0  0  0
   -3.2145    1.6922   -2.7448 H   0  0  0  0  0  0  0  0  0  0  0  0
   -1.8811    3.6528   -2.9399 H   0  0  0  0  0  0  0  0  0  0  0  0
   -0.9111    1.7279    3.0187 H   0  0  0  0  0  0  0  0  0  0  0  0
    0.5990    1.1328    2.3156 H   0  0  0  0  0  0  0  0  0  0  0  0
   -0.3560    0.0815    3.3520 H   0  0  0  0  0  0  0  0  0  0  0  0
   -2.1201   -0.6264   -2.1877 H   0  0  0  0  0  0  0  0  0  0  0  0
   -0.0613    4.9418    0.1883 H   0  0  0  0  0  0  0  0  0  0  0  0
   -1.7776    4.5000    0.2021 H   0  0  0  0  0  0  0  0  0  0  0  0
   -1.1096    5.4328   -1.1455 H   0  0  0  0  0  0  0  0  0  0  0  0
    1.2220   -1.3296    0.0182 H   0  0  0  0  0  0  0  0  0  0  0  0
   -6.1855   -2.4164    0.8377 H   0  0  0  0  0  0  0  0  0  0  0  0
    4.9878    2.3521    0.9419 H   0  0  0  0  0  0  0  0  0  0  0  0
    3.4276   -1.7763   -1.2955 H   0  0  0  0  0  0  0  0  0  0  0  0
    4.0859   -2.4285    0.1998 H   0  0  0  0  0  0  0  0  0  0  0  0
    2.8266   -1.3901    2.6268 H   0  0  0  0  0  0  0  0  0  0  0  0
    3.2665   -4.2226   -1.1800 H   0  0  0  0  0  0  0  0  0  0  0  0
    2.2808   -4.1515    0.2643 H   0  0  0  0  0  0  0  0  0  0  0  0
    0.5074   -2.8882   -1.0710 H   0  0  0  0  0  0  0  0  0  0  0  0
    1.5426   -3.0222   -2.4870 H   0  0  0  0  0  0  0  0  0  0  0  0
    1.1854   -2.9290    3.3907 H   0  0  0  0  0  0  0  0  0  0  0  0
    0.4501   -3.0610    1.6888 H   0  0  0  0  0  0  0  0  0  0  0  0
    0.2972   -5.3343   -0.9058 H   0  0  0  0  0  0  0  0  0  0  0  0
    1.3651   -5.5370   -2.2968 H   0  0  0  0  0  0  0  0  0  0  0  0
   -0.2541   -4.2882   -3.7371 H   0  0  0  0  0  0  0  0  0  0  0  0
   -1.3309   -4.0785   -2.3420 H   0  0  0  0  0  0  0  0  0  0  0  0
   -1.0087   -5.7006   -2.9785 H   0  0  0  0  0  0  0  0  0  0  0  0
  1  9  1  0  0  0  0
  1 48  1  0  0  0  0
  2 19  2  0  0  0  0
  3 21  1  0  0  0  0
  3 53  1  0  0  0  0
  4 21  2  0  0  0  0
  5 24  2  0  0  0  0
  6 26  2  0  0  0  0
  7 24  1  0  0  0  0
  7 26  1  0  0  0  0
  7 54  1  0  0  0  0
  8  9  1  0  0  0  0
  8 10  1  0  0  0  0
  8 11  1  0  0  0  0
  8 34  1  0  0  0  0
  9 12  1  0  0  0  0
  9 16  1  0  0  0  0
 10 13  1  0  0  0  0
 10 18  1  0  0  0  0
 10 35  1  0  0  0  0
 11 15  1  0  0  0  0
 11 19  1  0  0  0  0
 11 36  1  0  0  0  0
 12 14  1  0  0  0  0
 12 37  1  0  0  0  0
 12 38  1  0  0  0  0
 13 14  1  0  0  0  0
 13 39  1  0  0  0  0
 13 40  1  0  0  0  0
 14 21  1  0  0  0  0
 14 41  1  0  0  0  0
 15 17  1  0  0  0  0
 15 20  1  0  0  0  0
 15 42  1  0  0  0  0
 16 17  2  0  0  0  0
 16 43  1  0  0  0  0
 17 44  1  0  0  0  0
 18 45  1  0  0  0  0
 18 46  1  0  0  0  0
 18 47  1  0  0  0  0
 19 22  1  0  0  0  0
 20 49  1  0  0  0  0
 20 50  1  0  0  0  0
 20 51  1  0  0  0  0
 22 23  2  0  0  0  0
 22 24  1  0  0  0  0
 23 25  1  0  0  0  0
 23 26  1  0  0  0  0
 25 27  1  0  0  0  0
 25 28  1  0  0  0  0
 25 52  1  0  0  0  0
 27 29  1  0  0  0  0
 27 55  1  0  0  0  0
 27 56  1  0  0  0  0
 28 31  2  0  0  0  0
 28 57  1  0  0  0  0
 29 30  1  0  0  0  0
 29 58  1  0  0  0  0
 29 59  1  0  0  0  0
 30 32  1  0  0  0  0
 30 60  1  0  0  0  0
 30 61  1  0  0  0  0
 31 62  1  0  0  0  0
 31 63  1  0  0  0  0
 32 33  1  0  0  0  0
 32 64  1  0  0  0  0
 32 65  1  0  0  0  0
 33 66  1  0  0  0  0
 33 67  1  0  0  0  0
 33 68  1  0  0  0  0
M  END
> <PUBCHEM_COMPOUND_CID>
101079053

> <PUBCHEM_CONFORMER_RMSD>
1

> <PUBCHEM_CONFORMER_DIVERSEORDER>
1
189
148
4
31
23
188
5
32
107
133
198
146
92
14
141
78
182
158
121
110
176
117
101
157
68
116
193
34
175
108
98
119
72
169
83
165
138
136
115
65
105
3
12
155
183
177
91
172
195
102
87
35
62
58
149
17
13
194
166
181
73
170
86
45
173
11
9
94
154
160
156
190
151
6
162
112
22
111
120
85
113
127
147
153
196
90
63
70
178
197
93
15
125
76
130
81
95
53
88
187
186
168
79
51
8
61
50
134
191
142
84
139
192
29
44
104
167
64
99
52
26
36
199
109
41
49
179
145
106
122
60
66
185
82
37
132
24
159
47
143
129
135
7
33
67
10
163
128
161
71
152
74
59
54
184
131
144
48
16
75
28
150
174
96
100
38
57
124
2
43
180
140
80
30
19
56
164
97
21
77
103
123
39
55
20
42
114
46
18
25
118
69
27
137
171
89
40
126

> <PUBCHEM_MMFF94_PARTIAL_CHARGES>
30
1 -0.68
11 0.06
14 0.06
15 0.14
16 -0.29
17 -0.29
19 0.49
2 -0.57
21 0.66
22 0.03
23 -0.12
24 0.62
25 0.28
26 0.62
28 -0.29
3 -0.65
31 -0.3
4 -0.57
43 0.15
44 0.15
48 0.4
5 -0.57
53 0.5
54 0.37
57 0.15
6 -0.57
62 0.15
63 0.15
7 -0.49
9 0.42

> <PUBCHEM_EFFECTIVE_ROTOR_COUNT>
10.4

> <PUBCHEM_PHARMACOPHORE_FEATURES>
17
1 1 acceptor
1 1 donor
1 2 acceptor
1 22 anion
1 3 acceptor
1 31 hydrophobe
1 33 hydrophobe
1 4 acceptor
1 5 acceptor
1 6 acceptor
1 7 donor
3 25 27 28 hydrophobe
3 29 30 32 hydrophobe
3 3 4 21 anion
5 7 22 23 24 26 rings
6 8 9 10 12 13 14 rings
6 8 9 11 15 16 17 rings

> <PUBCHEM_HEAVY_ATOM_COUNT>
33

> <PUBCHEM_ATOM_DEF_STEREO_COUNT>
5

> <PUBCHEM_ATOM_UDEF_STEREO_COUNT>
2

> <PUBCHEM_BOND_DEF_STEREO_COUNT>
0

> <PUBCHEM_BOND_UDEF_STEREO_COUNT>
0

> <PUBCHEM_ISOTOPIC_ATOM_COUNT>
0

> <PUBCHEM_COMPONENT_COUNT>
1

> <PUBCHEM_CACTVS_TAUTO_COUNT>
1001

> <PUBCHEM_CONFORMER_ID>
0606580D00000001

> <PUBCHEM_MMFF94_ENERGY>
68.6528

> <PUBCHEM_FEATURE_SELFOVERLAP>
86.455

> <PUBCHEM_SHAPE_FINGERPRINT>
11513181 2 17559691709515141103
12156800 1 14091991073826285346
12202916 173 17183868430166716926
13583140 156 17560795498966623641
14223421 5 18335416816606841268
14659021 117 16036044124196467870
14840074 17 18263368160105381431
15420108 30 17979925130674909272
17974551 9 16121901795673735834
19315092 285 15328351354616357030
1979834 28 18267887101894412835
20775438 99 17689123766020322751
20905425 154 17967805007748318697
21197605 99 17830184849896978755
23559900 14 17765973036085353964
463206 1 18042127724963316507
469060 322 18126257926403634375
5309563 4 18333729152125798633
6287921 2 18130515132268448946
70251023 43 18189353285194214123
7399639 24 18412259511044729274
9709674 26 18190166889444284716

> <PUBCHEM_SHAPE_MULTIPOLES>
638.93
7.7
5.93
2.51
2.93
2.9
0.14
2.57
3.51
-1.8
-4.4
0.92
1.78
2.65

> <PUBCHEM_SHAPE_SELFOVERLAP>
1343.482

> <PUBCHEM_SHAPE_VOLUME>
355.8

> <PUBCHEM_COORDINATE_TYPE>
2
5
10

$$$$
