101031465
  -OEChem-03292013293D

 68 70  0     1  0  0  0  0  0999 V2000
   -0.6520    3.8853    0.2048 O   0  0  0  0  0  0  0  0  0  0  0  0
    0.7025    1.1081    3.3282 O   0  0  0  0  0  0  0  0  0  0  0  0
   -1.3358    2.7628   -2.2739 O   0  0  0  0  0  0  0  0  0  0  0  0
    1.4338   -0.5478   -1.9943 O   0  0  0  0  0  0  0  0  0  0  0  0
   -1.8660   -2.0339   -0.2187 O   0  0  0  0  0  0  0  0  0  0  0  0
    1.3916   -1.4674    3.0760 O   0  0  0  0  0  0  0  0  0  0  0  0
   -3.0292    1.8652   -0.0583 O   0  0  0  0  0  0  0  0  0  0  0  0
    3.5682    1.2568    1.2142 O   0  0  0  0  0  0  0  0  0  0  0  0
   -0.5074    1.1392    1.2365 C   0  0  2  0  0  0  0  0  0  0  0  0
   -1.2309    0.2898    0.1158 C   0  0  1  0  0  0  0  0  0  0  0  0
   -0.5967    0.6446   -1.2922 C   0  0  1  0  0  0  0  0  0  0  0  0
    0.7290    1.8977    0.6142 C   0  0  2  0  0  0  0  0  0  0  0  0
    0.2087    2.9415   -0.4212 C   0  0  1  0  0  0  0  0  0  0  0  0
   -0.2046    0.3338    2.5335 C   0  0  1  0  0  0  0  0  0  0  0  0
   -0.6451    2.1847   -1.4381 C   0  0  0  0  0  0  0  0  0  0  0  0
    1.6186    0.9103   -0.1024 C   0  0  0  0  0  0  0  0  0  0  0  0
    0.8921    0.2370   -1.2262 C   0  0  0  0  0  0  0  0  0  0  0  0
   -1.1077   -1.2377    0.3389 C   0  0  0  0  0  0  0  0  0  0  0  0
   -1.2733   -0.0187   -2.4971 C   0  0  0  0  0  0  0  0  0  0  0  0
   -2.6943    0.6943    0.1047 C   0  0  0  0  0  0  0  0  0  0  0  0
    0.3995   -1.0135    2.2252 C   0  0  0  0  0  0  0  0  0  0  0  0
   -0.0137   -1.7731    1.2003 C   0  0  0  0  0  0  0  0  0  0  0  0
    1.3153    3.7195   -1.1312 C   0  0  0  0  0  0  0  0  0  0  0  0
   -1.4870    0.1366    3.3655 C   0  0  0  0  0  0  0  0  0  0  0  0
    2.8960    0.6357    0.1765 C   0  0  0  0  0  0  0  0  0  0  0  0
   -3.6878   -0.3916    0.3339 C   0  0  0  0  0  0  0  0  0  0  0  0
    0.4961   -3.1432    0.8771 C   0  0  0  0  0  0  0  0  0  0  0  0
    3.6722   -0.3298   -0.5833 C   0  0  0  0  0  0  0  0  0  0  0  0
   -4.6111   -0.6768   -0.5940 C   0  0  0  0  0  0  0  0  0  0  0  0
    4.9561   -0.6525   -0.3573 C   0  0  0  0  0  0  0  0  0  0  0  0
   -5.5973   -1.7201   -0.4185 C   0  0  0  0  0  0  0  0  0  0  0  0
    5.6735   -1.6258   -1.1522 C   0  0  0  0  0  0  0  0  0  0  0  0
   -6.5260   -2.0146   -1.3401 C   0  0  0  0  0  0  0  0  0  0  0  0
    6.9555   -1.9520   -0.9314 C   0  0  0  0  0  0  0  0  0  0  0  0
   -7.5493   -3.0892   -1.1705 C   0  0  0  0  0  0  0  0  0  0  0  0
    7.7068   -2.9548   -1.7443 C   0  0  0  0  0  0  0  0  0  0  0  0
   -1.1783    1.9441    1.5695 H   0  0  0  0  0  0  0  0  0  0  0  0
    1.2313    2.4627    1.4026 H   0  0  0  0  0  0  0  0  0  0  0  0
   -2.3338    0.2404   -2.5681 H   0  0  0  0  0  0  0  0  0  0  0  0
   -1.1845   -1.1090   -2.4750 H   0  0  0  0  0  0  0  0  0  0  0  0
   -0.8045    0.3131   -3.4320 H   0  0  0  0  0  0  0  0  0  0  0  0
    1.9506    4.2361   -0.4032 H   0  0  0  0  0  0  0  0  0  0  0  0
    0.8949    4.4941   -1.7837 H   0  0  0  0  0  0  0  0  0  0  0  0
    1.9466    3.0795   -1.7556 H   0  0  0  0  0  0  0  0  0  0  0  0
   -1.9796    1.0957    3.5628 H   0  0  0  0  0  0  0  0  0  0  0  0
   -1.2408   -0.2824    4.3493 H   0  0  0  0  0  0  0  0  0  0  0  0
   -2.2081   -0.5327    2.8947 H   0  0  0  0  0  0  0  0  0  0  0  0
   -0.9451    4.5258   -0.4657 H   0  0  0  0  0  0  0  0  0  0  0  0
    0.2605    1.9430    3.5597 H   0  0  0  0  0  0  0  0  0  0  0  0
   -3.6427   -0.9316    1.2727 H   0  0  0  0  0  0  0  0  0  0  0  0
   -0.0333   -3.8972    1.4675 H   0  0  0  0  0  0  0  0  0  0  0  0
    1.5718   -3.2385    1.0544 H   0  0  0  0  0  0  0  0  0  0  0  0
    0.3485   -3.3767   -0.1833 H   0  0  0  0  0  0  0  0  0  0  0  0
    1.6169   -2.3876    2.8701 H   0  0  0  0  0  0  0  0  0  0  0  0
    3.2608   -0.8998   -1.3948 H   0  0  0  0  0  0  0  0  0  0  0  0
    2.9701    1.8336    1.7107 H   0  0  0  0  0  0  0  0  0  0  0  0
   -4.6367   -0.1148   -1.5241 H   0  0  0  0  0  0  0  0  0  0  0  0
    5.5121   -0.1730    0.4445 H   0  0  0  0  0  0  0  0  0  0  0  0
   -5.5684   -2.2823    0.5116 H   0  0  0  0  0  0  0  0  0  0  0  0
    5.1346   -2.1082   -1.9639 H   0  0  0  0  0  0  0  0  0  0  0  0
   -6.5627   -1.4581   -2.2736 H   0  0  0  0  0  0  0  0  0  0  0  0
    7.5070   -1.4780   -0.1229 H   0  0  0  0  0  0  0  0  0  0  0  0
   -7.4535   -3.6066   -0.2107 H   0  0  0  0  0  0  0  0  0  0  0  0
   -7.4468   -3.8302   -1.9691 H   0  0  0  0  0  0  0  0  0  0  0  0
   -8.5539   -2.6590   -1.2272 H   0  0  0  0  0  0  0  0  0  0  0  0
    8.0590   -3.7669   -1.1010 H   0  0  0  0  0  0  0  0  0  0  0  0
    8.5773   -2.4810   -2.2081 H   0  0  0  0  0  0  0  0  0  0  0  0
    7.0922   -3.3907   -2.5384 H   0  0  0  0  0  0  0  0  0  0  0  0
  1 13  1  0  0  0  0
  1 48  1  0  0  0  0
  2 14  1  0  0  0  0
  2 49  1  0  0  0  0
  3 15  2  0  0  0  0
  4 17  2  0  0  0  0
  5 18  2  0  0  0  0
  6 21  1  0  0  0  0
  6 54  1  0  0  0  0
  7 20  2  0  0  0  0
  8 25  1  0  0  0  0
  8 56  1  0  0  0  0
  9 10  1  0  0  0  0
  9 12  1  0  0  0  0
  9 14  1  0  0  0  0
  9 37  1  0  0  0  0
 10 11  1  0  0  0  0
 10 18  1  0  0  0  0
 10 20  1  0  0  0  0
 11 15  1  0  0  0  0
 11 17  1  0  0  0  0
 11 19  1  0  0  0  0
 12 13  1  0  0  0  0
 12 16  1  0  0  0  0
 12 38  1  0  0  0  0
 13 15  1  0  0  0  0
 13 23  1  0  0  0  0
 14 21  1  0  0  0  0
 14 24  1  0  0  0  0
 16 17  1  0  0  0  0
 16 25  2  0  0  0  0
 18 22  1  0  0  0  0
 19 39  1  0  0  0  0
 19 40  1  0  0  0  0
 19 41  1  0  0  0  0
 20 26  1  0  0  0  0
 21 22  2  0  0  0  0
 22 27  1  0  0  0  0
 23 42  1  0  0  0  0
 23 43  1  0  0  0  0
 23 44  1  0  0  0  0
 24 45  1  0  0  0  0
 24 46  1  0  0  0  0
 24 47  1  0  0  0  0
 25 28  1  0  0  0  0
 26 29  2  0  0  0  0
 26 50  1  0  0  0  0
 27 51  1  0  0  0  0
 27 52  1  0  0  0  0
 27 53  1  0  0  0  0
 28 30  2  0  0  0  0
 28 55  1  0  0  0  0
 29 31  1  0  0  0  0
 29 57  1  0  0  0  0
 30 32  1  0  0  0  0
 30 58  1  0  0  0  0
 31 33  2  0  0  0  0
 31 59  1  0  0  0  0
 32 34  2  0  0  0  0
 32 60  1  0  0  0  0
 33 35  1  0  0  0  0
 33 61  1  0  0  0  0
 34 36  1  0  0  0  0
 34 62  1  0  0  0  0
 35 63  1  0  0  0  0
 35 64  1  0  0  0  0
 35 65  1  0  0  0  0
 36 66  1  0  0  0  0
 36 67  1  0  0  0  0
 36 68  1  0  0  0  0
M  END
> <PUBCHEM_COMPOUND_CID>
101031465

> <PUBCHEM_CONFORMER_RMSD>
0.8

> <PUBCHEM_CONFORMER_DIVERSEORDER>
1
4
3
12
6
10
9
11
2
5
8
7

> <PUBCHEM_MMFF94_PARTIAL_CHARGES>
44
1 -0.68
10 0.12
11 0.12
12 0.14
13 0.34
14 0.42
15 0.45
16 -0.12
17 0.49
18 0.49
2 -0.68
20 0.49
21 -0.06
22 -0.12
25 0.08
26 -0.14
27 0.14
28 -0.15
29 -0.15
3 -0.57
30 -0.15
31 -0.15
32 -0.15
33 -0.29
34 -0.29
35 0.14
36 0.14
4 -0.57
48 0.4
49 0.4
5 -0.57
50 0.15
54 0.45
55 0.15
56 0.45
57 0.15
58 0.15
59 0.15
6 -0.53
60 0.15
61 0.15
62 0.15
7 -0.57
8 -0.53

> <PUBCHEM_EFFECTIVE_ROTOR_COUNT>
5.4

> <PUBCHEM_PHARMACOPHORE_FEATURES>
14
1 1 acceptor
1 1 donor
1 2 acceptor
1 2 donor
1 3 acceptor
1 35 hydrophobe
1 36 hydrophobe
1 4 acceptor
1 5 acceptor
1 6 donor
1 7 acceptor
1 8 donor
6 9 10 14 18 21 22 rings
8 9 10 11 12 13 15 16 17 rings

> <PUBCHEM_HEAVY_ATOM_COUNT>
36

> <PUBCHEM_ATOM_DEF_STEREO_COUNT>
6

> <PUBCHEM_ATOM_UDEF_STEREO_COUNT>
0

> <PUBCHEM_BOND_DEF_STEREO_COUNT>
5

> <PUBCHEM_BOND_UDEF_STEREO_COUNT>
0

> <PUBCHEM_ISOTOPIC_ATOM_COUNT>
0

> <PUBCHEM_COMPONENT_COUNT>
1

> <PUBCHEM_CACTVS_TAUTO_COUNT>
264

> <PUBCHEM_CONFORMER_ID>
06059E2900000001

> <PUBCHEM_MMFF94_ENERGY>
123.3108

> <PUBCHEM_FEATURE_SELFOVERLAP>
71.102

> <PUBCHEM_SHAPE_FINGERPRINT>
10076449 9 18411147935270725902
10863032 1 18266734675921273273
10930396 42 17971728182139896272
12422481 6 13758079588617677059
12788726 201 17530966839563747216
131258 38 17271981436348149663
13782708 43 18131630092814149526
13911987 19 15429753977881332231
14068700 675 18060426823605808050
15324884 4 17025452259473047873
16945 1 18199206120718145405
17492 54 15863788396010624696
20775438 99 17977092793122500334
20905425 154 17387387100570342865
22899556 105 18335138627576414138
23419403 2 17774424075350180072
23559900 14 18267304416033028861
2818148 4 18117541943301043065
469060 322 18126869130778499166
513532 50 18045201981244345545
57527295 17 17822284627085885299
57527358 35 18131636703027716449
57527452 28 18339941328377559923
6086070 43 18262778737013005381
6669772 16 17752195356024334401
70251023 43 18410854356965196956

> <PUBCHEM_SHAPE_MULTIPOLES>
693.91
12.35
3.81
2.72
3.91
1.36
2.17
-18.5
-9.1
0.15
-1.43
0
0.08
0.33

> <PUBCHEM_SHAPE_SELFOVERLAP>
1494.919

> <PUBCHEM_SHAPE_VOLUME>
373.4

> <PUBCHEM_COORDINATE_TYPE>
2
5
10

$$$$
