101019050
  -OEChem-03292013293D

 49 51  0     1  0  0  0  0  0999 V2000
   -3.2178   -0.5946   -1.5077 O   0  0  0  0  0  0  0  0  0  0  0  0
   -1.7839   -2.7909   -0.9728 O   0  0  0  0  0  0  0  0  0  0  0  0
   -2.0250    1.7773   -1.4487 O   0  0  0  0  0  0  0  0  0  0  0  0
   -4.5787    1.1098    0.1796 O   0  0  0  0  0  0  0  0  0  0  0  0
    0.3477   -3.9567   -0.0923 O   0  0  0  0  0  0  0  0  0  0  0  0
   -0.0374    3.3150   -0.8519 O   0  0  0  0  0  0  0  0  0  0  0  0
    2.6063    3.4638   -0.2708 O   0  0  0  0  0  0  0  0  0  0  0  0
    4.0450    1.2655    0.2808 O   0  0  0  0  0  0  0  0  0  0  0  0
    2.9808   -3.7098    0.4776 O   0  0  0  0  0  0  0  0  0  0  0  0
   -2.1513   -0.4549   -0.5812 C   0  0  1  0  0  0  0  0  0  0  0  0
   -2.7304   -0.3292    0.8295 C   0  0  0  0  0  0  0  0  0  0  0  0
   -1.2991   -1.7059   -0.6660 C   0  0  0  0  0  0  0  0  0  0  0  0
   -1.4340    0.8340   -0.9314 C   0  0  0  0  0  0  0  0  0  0  0  0
    0.7238   -0.2757   -0.3272 C   0  0  0  0  0  0  0  0  0  0  0  0
    0.1406   -1.5603   -0.3513 C   0  0  0  0  0  0  0  0  0  0  0  0
    0.0095    0.9080   -0.6093 C   0  0  0  0  0  0  0  0  0  0  0  0
   -1.5753   -0.2218    1.8419 C   0  0  0  0  0  0  0  0  0  0  0  0
   -3.5645   -1.5709    1.1754 C   0  0  0  0  0  0  0  0  0  0  0  0
   -3.5950    0.9455    0.9051 C   0  0  0  0  0  0  0  0  0  0  0  0
    2.1042   -0.1708   -0.0252 C   0  0  0  0  0  0  0  0  0  0  0  0
    0.8967   -2.7075   -0.0884 C   0  0  0  0  0  0  0  0  0  0  0  0
    0.6384    2.1576   -0.5968 C   0  0  0  0  0  0  0  0  0  0  0  0
    2.8481   -1.3304    0.2459 C   0  0  0  0  0  0  0  0  0  0  0  0
    2.7195    1.0910   -0.0072 C   0  0  0  0  0  0  0  0  0  0  0  0
    2.2488   -2.5881    0.2130 C   0  0  0  0  0  0  0  0  0  0  0  0
    1.9922    2.2452   -0.2921 C   0  0  0  0  0  0  0  0  0  0  0  0
   -3.2302    2.0029    1.9201 C   0  0  0  0  0  0  0  0  0  0  0  0
    4.3115   -1.3110    0.5806 C   0  0  0  0  0  0  0  0  0  0  0  0
    2.6095    4.1631    0.9710 C   0  0  0  0  0  0  0  0  0  0  0  0
   -0.9561   -1.1212    1.8876 H   0  0  0  0  0  0  0  0  0  0  0  0
   -0.9352    0.6548    1.7373 H   0  0  0  0  0  0  0  0  0  0  0  0
   -4.0902   -1.4180    2.1262 H   0  0  0  0  0  0  0  0  0  0  0  0
   -4.3392   -1.7696    0.4269 H   0  0  0  0  0  0  0  0  0  0  0  0
   -2.9571   -2.4738    1.2934 H   0  0  0  0  0  0  0  0  0  0  0  0
   -1.9858   -0.1565    2.8592 H   0  0  0  0  0  0  0  0  0  0  0  0
   -3.8005    0.1801   -1.4463 H   0  0  0  0  0  0  0  0  0  0  0  0
   -2.2415    2.4173    1.7142 H   0  0  0  0  0  0  0  0  0  0  0  0
   -3.9488    2.8259    1.8420 H   0  0  0  0  0  0  0  0  0  0  0  0
   -3.2988    1.6067    2.9350 H   0  0  0  0  0  0  0  0  0  0  0  0
    4.4822   -0.7911    1.5293 H   0  0  0  0  0  0  0  0  0  0  0  0
    4.7777   -2.2937    0.6907 H   0  0  0  0  0  0  0  0  0  0  0  0
    4.8834   -0.8454   -0.2297 H   0  0  0  0  0  0  0  0  0  0  0  0
   -0.6184   -3.9050   -0.1538 H   0  0  0  0  0  0  0  0  0  0  0  0
   -0.9927    3.1523   -0.8823 H   0  0  0  0  0  0  0  0  0  0  0  0
    4.2815    2.2009    0.1605 H   0  0  0  0  0  0  0  0  0  0  0  0
    3.4297   -3.5813    1.3309 H   0  0  0  0  0  0  0  0  0  0  0  0
    3.1794    5.0873    0.8418 H   0  0  0  0  0  0  0  0  0  0  0  0
    3.0859    3.5664    1.7554 H   0  0  0  0  0  0  0  0  0  0  0  0
    1.5883    4.4219    1.2679 H   0  0  0  0  0  0  0  0  0  0  0  0
  1 10  1  0  0  0  0
  1 36  1  0  0  0  0
  2 12  2  0  0  0  0
  3 13  2  0  0  0  0
  4 19  2  0  0  0  0
  5 21  1  0  0  0  0
  5 43  1  0  0  0  0
  6 22  1  0  0  0  0
  6 44  1  0  0  0  0
  7 26  1  0  0  0  0
  7 29  1  0  0  0  0
  8 24  1  0  0  0  0
  8 45  1  0  0  0  0
  9 25  1  0  0  0  0
  9 46  1  0  0  0  0
 10 11  1  0  0  0  0
 10 12  1  0  0  0  0
 10 13  1  0  0  0  0
 11 17  1  0  0  0  0
 11 18  1  0  0  0  0
 11 19  1  0  0  0  0
 12 15  1  0  0  0  0
 13 16  1  0  0  0  0
 14 15  2  0  0  0  0
 14 16  1  0  0  0  0
 14 20  1  0  0  0  0
 15 21  1  0  0  0  0
 16 22  2  0  0  0  0
 17 30  1  0  0  0  0
 17 31  1  0  0  0  0
 17 35  1  0  0  0  0
 18 32  1  0  0  0  0
 18 33  1  0  0  0  0
 18 34  1  0  0  0  0
 19 27  1  0  0  0  0
 20 23  2  0  0  0  0
 20 24  1  0  0  0  0
 21 25  2  0  0  0  0
 22 26  1  0  0  0  0
 23 25  1  0  0  0  0
 23 28  1  0  0  0  0
 24 26  2  0  0  0  0
 27 37  1  0  0  0  0
 27 38  1  0  0  0  0
 27 39  1  0  0  0  0
 28 40  1  0  0  0  0
 28 41  1  0  0  0  0
 28 42  1  0  0  0  0
 29 47  1  0  0  0  0
 29 48  1  0  0  0  0
 29 49  1  0  0  0  0
M  END
> <PUBCHEM_COMPOUND_CID>
101019050

> <PUBCHEM_CONFORMER_RMSD>
0.8

> <PUBCHEM_CONFORMER_DIVERSEORDER>
2
3
6
1
4
5

> <PUBCHEM_MMFF94_PARTIAL_CHARGES>
30
1 -0.68
10 0.4
11 0.06
12 0.42
13 0.42
15 0.09
16 0.09
19 0.45
2 -0.57
21 0.08
22 0.08
23 -0.14
24 0.08
25 0.08
26 0.08
27 0.06
28 0.14
29 0.28
3 -0.57
36 0.4
4 -0.57
43 0.45
44 0.45
45 0.45
46 0.45
5 -0.53
6 -0.53
7 -0.36
8 -0.53
9 -0.53

> <PUBCHEM_EFFECTIVE_ROTOR_COUNT>
3.2

> <PUBCHEM_PHARMACOPHORE_FEATURES>
14
1 1 acceptor
1 1 donor
1 2 acceptor
1 3 acceptor
1 4 acceptor
1 5 donor
1 6 donor
1 7 acceptor
1 8 donor
1 9 donor
3 11 17 18 hydrophobe
6 10 12 13 14 15 16 rings
6 14 15 20 21 23 25 rings
6 14 16 20 22 24 26 rings

> <PUBCHEM_HEAVY_ATOM_COUNT>
29

> <PUBCHEM_ATOM_DEF_STEREO_COUNT>
1

> <PUBCHEM_ATOM_UDEF_STEREO_COUNT>
0

> <PUBCHEM_BOND_DEF_STEREO_COUNT>
0

> <PUBCHEM_BOND_UDEF_STEREO_COUNT>
0

> <PUBCHEM_ISOTOPIC_ATOM_COUNT>
0

> <PUBCHEM_COMPONENT_COUNT>
1

> <PUBCHEM_CACTVS_TAUTO_COUNT>
234

> <PUBCHEM_CONFORMER_ID>
06056DAA00000002

> <PUBCHEM_MMFF94_ENERGY>
125.9357

> <PUBCHEM_FEATURE_SELFOVERLAP>
71.147

> <PUBCHEM_SHAPE_FINGERPRINT>
10006869 2 16895110215740702793
10411042 1 17906165161904129639
10863032 1 18410864256685466411
10967382 1 18337379487996594062
1100329 8 18411699915761433314
11370993 70 18268995465059272353
11578080 2 17269428177259249289
11582403 64 16524065009999403557
11640471 11 17845390915499211985
12539773 59 17774711047842617327
12553582 1 18265892445956832414
12633257 1 18116726122758222179
12788726 201 16534553492198995684
13140716 1 18337388352608372858
13583140 156 18261683592929223219
138480 1 18265894662080562910
14178342 30 18269826674543599074
14223421 5 18262528094904716907
14790565 3 18264505012886451212
14955137 171 18339378357154776930
15309172 13 18192150618752740892
15420108 30 17986111812380011839
16945 1 18409161104167433934
19591789 44 18263932201544855380
20510252 161 17548979309136729344
20642791 105 17111826718737877799
20739085 24 18261403225906375132
21796203 349 18191048754247635592
23184049 59 18410015420359645539
2334 1 18264763427834985838
23419403 2 17896596177084921749
23559900 14 18410573951340306921
2748010 2 18263349335669879108
283562 15 17185872234573800818
350125 39 18267307723179088690
352729 6 17038664137431885844
3886686 26 17692495187010685536
474 4 18411701014671674561
484989 97 15812823103160522606
7097593 13 18411706456379401296
81228 2 17326889574376455644
9981440 41 17907285903723379872

> <PUBCHEM_SHAPE_MULTIPOLES>
543.98
6.68
4.67
1.29
1.09
0.6
-0.23
0.82
-2.05
-3.93
-0.23
1.18
0.37
-0.5

> <PUBCHEM_SHAPE_SELFOVERLAP>
1221.742

> <PUBCHEM_SHAPE_VOLUME>
285.3

> <PUBCHEM_COORDINATE_TYPE>
2
5
10

$$$$
