101073738
  -OEChem-03292013293D

 58 62  0     1  0  0  0  0  0999 V2000
    3.6613    1.6649   -0.1931 O   0  0  0  0  0  0  0  0  0  0  0  0
    2.0258   -0.1615   -1.6904 O   0  0  0  0  0  0  0  0  0  0  0  0
   -0.0512    2.4330    1.0688 O   0  0  0  0  0  0  0  0  0  0  0  0
    1.5819   -2.8509   -0.7260 O   0  0  0  0  0  0  0  0  0  0  0  0
   -1.8880   -1.7664    1.6264 O   0  0  0  0  0  0  0  0  0  0  0  0
   -4.3204   -1.7863    0.3795 O   0  0  0  0  0  0  0  0  0  0  0  0
    1.4360    0.7215    0.4968 C   0  0  1  0  0  0  0  0  0  0  0  0
   -1.3661   -0.4435   -0.3954 C   0  0  1  0  0  0  0  0  0  0  0  0
    1.9387   -0.5103   -0.3078 C   0  0  2  0  0  0  0  0  0  0  0  0
    2.7078    1.4737    0.8632 C   0  0  1  0  0  0  0  0  0  0  0  0
   -0.9286    1.0262   -0.7691 C   0  0  2  0  0  0  0  0  0  0  0  0
    3.4080   -0.7872    0.2668 C   0  0  0  0  0  0  0  0  0  0  0  0
    3.8804    0.5818    0.7145 C   0  0  1  0  0  0  0  0  0  0  0  0
    0.3559    1.6703   -0.0914 C   0  0  1  0  0  0  0  0  0  0  0  0
    0.9664   -1.6892   -0.1505 C   0  0  1  0  0  0  0  0  0  0  0  0
   -0.3738   -1.5292   -0.8548 C   0  0  0  0  0  0  0  0  0  0  0  0
   -1.7956   -0.4566    1.0829 C   0  0  1  0  0  0  0  0  0  0  0  0
   -3.1757    0.2349    0.9981 C   0  0  2  0  0  0  0  0  0  0  0  0
   -2.7279   -0.7965   -1.1483 C   0  0  0  0  0  0  0  0  0  0  0  0
   -3.8682   -0.5291   -0.1480 C   0  0  1  0  0  0  0  0  0  0  0  0
   -2.1572    1.9824   -0.5994 C   0  0  0  0  0  0  0  0  0  0  0  0
   -2.9701    1.7272    0.6838 C   0  0  0  0  0  0  0  0  0  0  0  0
    4.3942   -1.3498   -0.7678 C   0  0  0  0  0  0  0  0  0  0  0  0
    3.4147   -1.6978    1.5150 C   0  0  0  0  0  0  0  0  0  0  0  0
    0.9457    2.7014   -1.0899 C   0  0  0  0  0  0  0  0  0  0  0  0
   -5.0940    0.1370   -0.7639 C   0  0  0  0  0  0  0  0  0  0  0  0
    1.0775    0.3400    1.4630 H   0  0  0  0  0  0  0  0  0  0  0  0
    2.6520    2.1776    1.6772 H   0  0  0  0  0  0  0  0  0  0  0  0
   -0.7088    0.9902   -1.8469 H   0  0  0  0  0  0  0  0  0  0  0  0
    4.7156    0.6301    1.3940 H   0  0  0  0  0  0  0  0  0  0  0  0
    0.7976   -1.9116    0.9086 H   0  0  0  0  0  0  0  0  0  0  0  0
   -0.2052   -1.4233   -1.9361 H   0  0  0  0  0  0  0  0  0  0  0  0
   -0.8704   -2.5075   -0.7682 H   0  0  0  0  0  0  0  0  0  0  0  0
   -1.1172    0.0829    1.7395 H   0  0  0  0  0  0  0  0  0  0  0  0
   -3.7274    0.1110    1.9373 H   0  0  0  0  0  0  0  0  0  0  0  0
   -2.8240   -0.2107   -2.0691 H   0  0  0  0  0  0  0  0  0  0  0  0
   -2.7567   -1.8483   -1.4588 H   0  0  0  0  0  0  0  0  0  0  0  0
   -2.8104    1.8775   -1.4721 H   0  0  0  0  0  0  0  0  0  0  0  0
   -1.8561    3.0357   -0.6237 H   0  0  0  0  0  0  0  0  0  0  0  0
   -2.4725    2.1979    1.5386 H   0  0  0  0  0  0  0  0  0  0  0  0
   -3.9383    2.2349    0.6015 H   0  0  0  0  0  0  0  0  0  0  0  0
    3.1433   -2.7296    1.2738 H   0  0  0  0  0  0  0  0  0  0  0  0
    4.0716   -2.3236   -1.1473 H   0  0  0  0  0  0  0  0  0  0  0  0
    5.3896   -1.4789   -0.3262 H   0  0  0  0  0  0  0  0  0  0  0  0
    4.5193   -0.6741   -1.6210 H   0  0  0  0  0  0  0  0  0  0  0  0
    2.7276   -1.3312    2.2856 H   0  0  0  0  0  0  0  0  0  0  0  0
    4.4123   -1.7282    1.9701 H   0  0  0  0  0  0  0  0  0  0  0  0
    1.6777    3.3591   -0.6094 H   0  0  0  0  0  0  0  0  0  0  0  0
    0.1692    3.3787   -1.4621 H   0  0  0  0  0  0  0  0  0  0  0  0
    1.4076    2.2245   -1.9577 H   0  0  0  0  0  0  0  0  0  0  0  0
    2.2162   -0.9721   -2.1923 H   0  0  0  0  0  0  0  0  0  0  0  0
   -0.2767    1.8344    1.7966 H   0  0  0  0  0  0  0  0  0  0  0  0
   -5.8532    0.3251    0.0037 H   0  0  0  0  0  0  0  0  0  0  0  0
   -5.5597   -0.5228   -1.5054 H   0  0  0  0  0  0  0  0  0  0  0  0
   -4.8686    1.0822   -1.2621 H   0  0  0  0  0  0  0  0  0  0  0  0
    1.0265   -3.6186   -0.5074 H   0  0  0  0  0  0  0  0  0  0  0  0
   -2.2724   -1.6865    2.5159 H   0  0  0  0  0  0  0  0  0  0  0  0
   -4.6790   -2.3105   -0.3569 H   0  0  0  0  0  0  0  0  0  0  0  0
  1 10  1  0  0  0  0
  1 13  1  0  0  0  0
  2  9  1  0  0  0  0
  2 51  1  0  0  0  0
  3 14  1  0  0  0  0
  3 52  1  0  0  0  0
  4 15  1  0  0  0  0
  4 56  1  0  0  0  0
  5 17  1  0  0  0  0
  5 57  1  0  0  0  0
  6 20  1  0  0  0  0
  6 58  1  0  0  0  0
  7  9  1  0  0  0  0
  7 10  1  0  0  0  0
  7 14  1  0  0  0  0
  7 27  1  0  0  0  0
  8 11  1  0  0  0  0
  8 16  1  0  0  0  0
  8 17  1  0  0  0  0
  8 19  1  0  0  0  0
  9 12  1  0  0  0  0
  9 15  1  0  0  0  0
 10 13  1  0  0  0  0
 10 28  1  0  0  0  0
 11 14  1  0  0  0  0
 11 21  1  0  0  0  0
 11 29  1  0  0  0  0
 12 13  1  0  0  0  0
 12 23  1  0  0  0  0
 12 24  1  0  0  0  0
 13 30  1  0  0  0  0
 14 25  1  0  0  0  0
 15 16  1  0  0  0  0
 15 31  1  0  0  0  0
 16 32  1  0  0  0  0
 16 33  1  0  0  0  0
 17 18  1  0  0  0  0
 17 34  1  0  0  0  0
 18 20  1  0  0  0  0
 18 22  1  0  0  0  0
 18 35  1  0  0  0  0
 19 20  1  0  0  0  0
 19 36  1  0  0  0  0
 19 37  1  0  0  0  0
 20 26  1  0  0  0  0
 21 22  1  0  0  0  0
 21 38  1  0  0  0  0
 21 39  1  0  0  0  0
 22 40  1  0  0  0  0
 22 41  1  0  0  0  0
 23 43  1  0  0  0  0
 23 44  1  0  0  0  0
 23 45  1  0  0  0  0
 24 42  1  0  0  0  0
 24 46  1  0  0  0  0
 24 47  1  0  0  0  0
 25 48  1  0  0  0  0
 25 49  1  0  0  0  0
 25 50  1  0  0  0  0
 26 53  1  0  0  0  0
 26 54  1  0  0  0  0
 26 55  1  0  0  0  0
M  END
> <PUBCHEM_COMPOUND_CID>
101073738

> <PUBCHEM_CONFORMER_RMSD>
0.6

> <PUBCHEM_CONFORMER_DIVERSEORDER>
1
3
2

> <PUBCHEM_MMFF94_PARTIAL_CHARGES>
22
1 -0.3
10 -0.05
12 0.09
13 -0.05
14 0.28
15 0.28
17 0.28
2 -0.68
20 0.28
28 0.1
3 -0.68
30 0.1
4 -0.68
5 -0.68
51 0.4
52 0.4
56 0.4
57 0.4
58 0.4
6 -0.68
7 0.09
9 0.28

> <PUBCHEM_EFFECTIVE_ROTOR_COUNT>
2

> <PUBCHEM_PHARMACOPHORE_FEATURES>
15
1 1 acceptor
1 2 acceptor
1 2 donor
1 3 acceptor
1 3 donor
1 4 acceptor
1 4 donor
1 5 acceptor
1 5 donor
1 6 acceptor
1 6 donor
3 12 23 24 hydrophobe
6 1 7 9 10 12 13 rings
7 7 8 9 11 14 15 16 rings
8 8 11 17 18 19 20 21 22 rings

> <PUBCHEM_HEAVY_ATOM_COUNT>
26

> <PUBCHEM_ATOM_DEF_STEREO_COUNT>
10

> <PUBCHEM_ATOM_UDEF_STEREO_COUNT>
1

> <PUBCHEM_BOND_DEF_STEREO_COUNT>
0

> <PUBCHEM_BOND_UDEF_STEREO_COUNT>
0

> <PUBCHEM_ISOTOPIC_ATOM_COUNT>
0

> <PUBCHEM_COMPONENT_COUNT>
1

> <PUBCHEM_CACTVS_TAUTO_COUNT>
1

> <PUBCHEM_CONFORMER_ID>
0606434A00000001

> <PUBCHEM_MMFF94_ENERGY>
137.9968

> <PUBCHEM_FEATURE_SELFOVERLAP>
76.156

> <PUBCHEM_SHAPE_FINGERPRINT>
10062212 137 18342451561084455419
10366900 7 18334863787948765498
104564 63 18268716004590917744
10616163 171 18340769243273414712
10759866 29 18186526505766718004
10863032 1 18271243811793000361
10906281 52 18261969508659563485
10967382 1 18341327881258980004
12011746 2 18409448080981348511
12236239 1 17346595283905017159
12403814 3 18202275910317752127
12422481 6 18199488592717859737
12553582 1 18261687994721938649
12596599 1 17489040334681396135
12633257 1 18265053526768261160
13140716 1 18340198579796321296
13224815 77 18410293596885875524
13544653 18 18412545422448557825
14115302 16 17312824904737835199
14223421 5 18339643334776631110
14790565 3 18048885383552518388
15196674 1 18413670201321391897
15309172 13 18270961353031200630
15848702 151 17560528300228946566
16752209 62 17749660797386746617
16945 1 18187659019517131421
17349148 13 18408598163162708031
17357779 13 18338222800334985341
17492 89 18341049709155240503
1813 80 18187088334280345500
19591789 44 18342458132005006710
19862831 5 11386361547770161653
200 152 18060410335911914221
20028762 73 17988635363191273743
20691752 17 18041565745303063025
20715895 44 18267576906803767997
20739085 24 18410022022004331156
20905425 154 18123186801306133590
21267235 1 18342182150011788726
21421861 104 17682119872361309018
22182313 1 18337936927559904052
23184049 59 18341326764541213150
2334 1 18411973693945876372
23557571 272 18058453110187154743
23559900 14 18334856129800134280
2748010 2 18339920403164408108
296302 2 17822007652923787837
3286 77 17489576862206742578
335352 9 18126286337591100916
350125 39 18413105053194164544
484985 159 13892415565900527244
5104073 3 18342174449240662969
70251023 43 18053105017248565151
9709674 26 18335422417080327323

> <PUBCHEM_SHAPE_MULTIPOLES>
499.85
8.05
2.64
1.31
1.72
0.49
-0.1
-1.85
-0.37
-0.67
0.09
-0.08
-0.15
0.17

> <PUBCHEM_SHAPE_SELFOVERLAP>
1089.301

> <PUBCHEM_SHAPE_VOLUME>
267.6

> <PUBCHEM_COORDINATE_TYPE>
2
5
10

$$$$
