101027374
  -OEChem-03292013293D

 63 69  0     1  0  0  0  0  0999 V2000
    0.2301    0.3342    1.2663 O   0  0  0  0  0  0  0  0  0  0  0  0
   -5.1136    1.2817   -0.7466 O   0  0  0  0  0  0  0  0  0  0  0  0
   -0.1910   -3.1447   -1.1034 O   0  0  0  0  0  0  0  0  0  0  0  0
    3.5157   -0.7457   -2.6121 O   0  0  0  0  0  0  0  0  0  0  0  0
   -2.8846    1.0418   -0.0435 N   0  0  0  0  0  0  0  0  0  0  0  0
   -2.5313   -1.1283   -0.4993 N   0  0  0  0  0  0  0  0  0  0  0  0
    2.3179   -0.8185   -0.6086 N   0  0  0  0  0  0  0  0  0  0  0  0
    0.4073   -2.0522    0.8459 N   0  0  0  0  0  0  0  0  0  0  0  0
    3.4047   -0.3826    1.4621 N   0  0  0  0  0  0  0  0  0  0  0  0
   -0.5431    0.5419    0.0913 C   0  0  2  0  0  0  0  0  0  0  0  0
   -1.9857   -0.0304    0.2888 C   0  0  1  0  0  0  0  0  0  0  0  0
    0.1441    0.1920   -1.2490 C   0  0  0  0  0  0  0  0  0  0  0  0
   -0.8774    2.0428    0.0974 C   0  0  0  0  0  0  0  0  0  0  0  0
    1.0219   -1.0634   -1.2581 C   0  0  2  0  0  0  0  0  0  0  0  0
    0.9853   -0.8576    1.4447 C   0  0  1  0  0  0  0  0  0  0  0  0
   -3.9943   -0.8854   -0.5785 C   0  0  2  0  0  0  0  0  0  0  0  0
   -2.2531    2.2664   -0.0247 C   0  0  0  0  0  0  0  0  0  0  0  0
   -4.1229    0.6279   -0.4687 C   0  0  0  0  0  0  0  0  0  0  0  0
    2.3432   -0.6697    0.7782 C   0  0  0  0  0  0  0  0  0  0  0  0
    0.3814   -2.2240   -0.5280 C   0  0  0  0  0  0  0  0  0  0  0  0
   -4.7646   -1.5835    0.5323 C   0  0  0  0  0  0  0  0  0  0  0  0
   -0.0015    3.1178    0.1411 C   0  0  0  0  0  0  0  0  0  0  0  0
    1.1234   -1.0582    2.9543 C   0  0  0  0  0  0  0  0  0  0  0  0
   -2.7925    3.5311   -0.1559 C   0  0  0  0  0  0  0  0  0  0  0  0
   -6.2856   -1.6168    0.3007 C   0  0  0  0  0  0  0  0  0  0  0  0
    3.4678   -0.6647   -1.3886 C   0  0  0  0  0  0  0  0  0  0  0  0
   -0.5285    4.4087    0.0416 C   0  0  0  0  0  0  0  0  0  0  0  0
   -1.9109    4.6126   -0.1122 C   0  0  0  0  0  0  0  0  0  0  0  0
    4.6984   -0.3640   -0.6244 C   0  0  0  0  0  0  0  0  0  0  0  0
    4.6134   -0.2315    0.7663 C   0  0  0  0  0  0  0  0  0  0  0  0
   -6.6625   -2.3484   -0.9883 C   0  0  0  0  0  0  0  0  0  0  0  0
   -6.9789   -2.2798    1.4932 C   0  0  0  0  0  0  0  0  0  0  0  0
    5.9217   -0.2081   -1.2854 C   0  0  0  0  0  0  0  0  0  0  0  0
    5.7760    0.0603    1.4886 C   0  0  0  0  0  0  0  0  0  0  0  0
    7.0709    0.0819   -0.5513 C   0  0  0  0  0  0  0  0  0  0  0  0
    6.9987    0.2162    0.8336 C   0  0  0  0  0  0  0  0  0  0  0  0
   -2.1462   -0.2549    1.3542 H   0  0  0  0  0  0  0  0  0  0  0  0
    0.7843    1.0259   -1.5692 H   0  0  0  0  0  0  0  0  0  0  0  0
   -0.6191    0.1033   -2.0336 H   0  0  0  0  0  0  0  0  0  0  0  0
    1.1993   -1.3708   -2.2949 H   0  0  0  0  0  0  0  0  0  0  0  0
   -2.3299   -2.0256   -0.0625 H   0  0  0  0  0  0  0  0  0  0  0  0
   -4.3102   -1.1981   -1.5760 H   0  0  0  0  0  0  0  0  0  0  0  0
   -0.0744   -2.7283    1.4310 H   0  0  0  0  0  0  0  0  0  0  0  0
   -4.4091   -2.6187    0.6272 H   0  0  0  0  0  0  0  0  0  0  0  0
   -4.5623   -1.0973    1.4961 H   0  0  0  0  0  0  0  0  0  0  0  0
    1.0689    2.9671    0.2322 H   0  0  0  0  0  0  0  0  0  0  0  0
    1.7522   -1.9227    3.1947 H   0  0  0  0  0  0  0  0  0  0  0  0
    0.1401   -1.2180    3.4126 H   0  0  0  0  0  0  0  0  0  0  0  0
    1.5522   -0.1728    3.4380 H   0  0  0  0  0  0  0  0  0  0  0  0
   -3.8574    3.6940   -0.2731 H   0  0  0  0  0  0  0  0  0  0  0  0
   -6.6654   -0.5906    0.2345 H   0  0  0  0  0  0  0  0  0  0  0  0
    0.1391    5.2659    0.0699 H   0  0  0  0  0  0  0  0  0  0  0  0
   -2.2958    5.6252   -0.1990 H   0  0  0  0  0  0  0  0  0  0  0  0
   -6.2063   -3.3432   -1.0297 H   0  0  0  0  0  0  0  0  0  0  0  0
   -6.3534   -1.7897   -1.8762 H   0  0  0  0  0  0  0  0  0  0  0  0
   -7.7486   -2.4745   -1.0584 H   0  0  0  0  0  0  0  0  0  0  0  0
   -6.6592   -3.3209    1.6109 H   0  0  0  0  0  0  0  0  0  0  0  0
   -8.0666   -2.2719    1.3659 H   0  0  0  0  0  0  0  0  0  0  0  0
   -6.7496   -1.7471    2.4223 H   0  0  0  0  0  0  0  0  0  0  0  0
    5.9986   -0.3079   -2.3644 H   0  0  0  0  0  0  0  0  0  0  0  0
    5.7360    0.1678    2.5700 H   0  0  0  0  0  0  0  0  0  0  0  0
    8.0231    0.2037   -1.0594 H   0  0  0  0  0  0  0  0  0  0  0  0
    7.8946    0.4424    1.4045 H   0  0  0  0  0  0  0  0  0  0  0  0
  1 10  1  0  0  0  0
  1 15  1  0  0  0  0
  2 18  2  0  0  0  0
  3 20  2  0  0  0  0
  4 26  2  0  0  0  0
  5 11  1  0  0  0  0
  5 17  1  0  0  0  0
  5 18  1  0  0  0  0
  6 11  1  0  0  0  0
  6 16  1  0  0  0  0
  6 41  1  0  0  0  0
  7 14  1  0  0  0  0
  7 19  1  0  0  0  0
  7 26  1  0  0  0  0
  8 15  1  0  0  0  0
  8 20  1  0  0  0  0
  8 43  1  0  0  0  0
  9 19  2  0  0  0  0
  9 30  1  0  0  0  0
 10 11  1  0  0  0  0
 10 12  1  0  0  0  0
 10 13  1  0  0  0  0
 11 37  1  0  0  0  0
 12 14  1  0  0  0  0
 12 38  1  0  0  0  0
 12 39  1  0  0  0  0
 13 17  1  0  0  0  0
 13 22  2  0  0  0  0
 14 20  1  0  0  0  0
 14 40  1  0  0  0  0
 15 19  1  0  0  0  0
 15 23  1  0  0  0  0
 16 18  1  0  0  0  0
 16 21  1  0  0  0  0
 16 42  1  0  0  0  0
 17 24  2  0  0  0  0
 21 25  1  0  0  0  0
 21 44  1  0  0  0  0
 21 45  1  0  0  0  0
 22 27  1  0  0  0  0
 22 46  1  0  0  0  0
 23 47  1  0  0  0  0
 23 48  1  0  0  0  0
 23 49  1  0  0  0  0
 24 28  1  0  0  0  0
 24 50  1  0  0  0  0
 25 31  1  0  0  0  0
 25 32  1  0  0  0  0
 25 51  1  0  0  0  0
 26 29  1  0  0  0  0
 27 28  2  0  0  0  0
 27 52  1  0  0  0  0
 28 53  1  0  0  0  0
 29 30  1  0  0  0  0
 29 33  2  0  0  0  0
 30 34  2  0  0  0  0
 31 54  1  0  0  0  0
 31 55  1  0  0  0  0
 31 56  1  0  0  0  0
 32 57  1  0  0  0  0
 32 58  1  0  0  0  0
 32 59  1  0  0  0  0
 33 35  1  0  0  0  0
 33 60  1  0  0  0  0
 34 36  1  0  0  0  0
 34 61  1  0  0  0  0
 35 36  2  0  0  0  0
 35 62  1  0  0  0  0
 36 63  1  0  0  0  0
M  END
> <PUBCHEM_COMPOUND_CID>
101027374

> <PUBCHEM_CONFORMER_RMSD>
0.8

> <PUBCHEM_CONFORMER_DIVERSEORDER>
1
4
2
3
5

> <PUBCHEM_MMFF94_PARTIAL_CHARGES>
40
1 -0.56
10 0.42
11 0.57
13 -0.14
14 0.36
15 0.64
16 0.33
17 0.12
18 0.57
19 0.45
2 -0.57
20 0.57
22 -0.15
24 -0.15
26 0.54
27 -0.15
28 -0.15
29 0.09
3 -0.57
30 0.18
33 -0.15
34 -0.15
35 -0.15
36 -0.15
4 -0.57
41 0.36
43 0.37
46 0.15
5 -0.48
50 0.15
52 0.15
53 0.15
6 -0.9
60 0.15
61 0.15
62 0.15
63 0.15
7 -0.42
8 -0.73
9 -0.63

> <PUBCHEM_EFFECTIVE_ROTOR_COUNT>
3

> <PUBCHEM_PHARMACOPHORE_FEATURES>
14
1 1 acceptor
1 2 acceptor
1 3 acceptor
1 4 acceptor
1 6 cation
1 6 donor
1 8 donor
3 25 31 32 hydrophobe
5 5 10 11 13 17 rings
5 5 6 11 16 18 rings
6 13 17 22 24 27 28 rings
6 29 30 33 34 35 36 rings
6 7 9 19 26 29 30 rings
9 1 7 8 10 12 14 15 19 20 rings

> <PUBCHEM_HEAVY_ATOM_COUNT>
36

> <PUBCHEM_ATOM_DEF_STEREO_COUNT>
4

> <PUBCHEM_ATOM_UDEF_STEREO_COUNT>
1

> <PUBCHEM_BOND_DEF_STEREO_COUNT>
0

> <PUBCHEM_BOND_UDEF_STEREO_COUNT>
0

> <PUBCHEM_ISOTOPIC_ATOM_COUNT>
0

> <PUBCHEM_COMPONENT_COUNT>
1

> <PUBCHEM_CACTVS_TAUTO_COUNT>
2

> <PUBCHEM_CONFORMER_ID>
06058E2E00000001

> <PUBCHEM_MMFF94_ENERGY>
136.1435

> <PUBCHEM_FEATURE_SELFOVERLAP>
71.445

> <PUBCHEM_SHAPE_FINGERPRINT>
10032420 55 17822835572880105371
10076449 9 17846508054178860736
10169797 241 17685801394396491355
102385 1 17979355253082015035
10674148 151 11383834879610067156
10815517 723 17702370927025708983
10930396 42 18192410057101614984
11421498 54 18186793660631770531
11578080 2 17700987543539079985
11621639 148 18053094309509390048
11963148 33 18410004472774299755
12058002 1 17533246122493643910
12107698 1 18334295400355549412
12166972 35 17603587464832337132
12236239 1 17821443543640504394
12788726 201 18333448729215537962
13617811 41 18410856589720671327
13631057 29 18260825995123170153
13726171 33 18270121180261974784
13782708 43 17845941715080168374
13965767 371 17321267805868388924
14068700 675 18113901597619455381
14068700 686 18200317610861809638
14117953 113 18271795874885658895
14787075 74 18040152928827567928
14856354 85 18409732906423622327
14955137 171 18338518676489928963
16087824 20 18338233745057075333
17980427 23 17822302232130874108
18681886 176 18340480179564538107
19611394 137 18116441521246371331
20511986 3 17604981516711779917
21033650 10 18120679958667714660
21521721 280 17132115775246727066
21796203 349 18120119379530875723
21927370 108 18337126626271221425
22393880 68 17983584005272823470
22440779 20 13035482896243525796
2260408 40 17345218691268663675
23559900 14 17407669619558446238
24771293 8 18059574766782379377
25019877 29 17346604109524962151
2747138 104 18411140272505530032
392239 28 18334583433763347257
439807 62 16516538849567696051
46194498 28 18060416928903517600
469060 322 18339659862058998865
57527358 35 18192708948107394042
58260988 393 18334858294569347968
5912855 24 18264772052218812043
6669772 16 17832426766822071365
77296 10 18195807363300596434
7808743 9 18194398888525808744
9962374 69 18196935694591821951
9981440 41 18189906318226131602

> <PUBCHEM_SHAPE_MULTIPOLES>
692.48
15.26
3.95
1.69
3.17
5.79
0.41
-8.7
0.14
-5.97
-0.12
1.51
-0.97
0.63

> <PUBCHEM_SHAPE_SELFOVERLAP>
1561.595

> <PUBCHEM_SHAPE_VOLUME>
360.2

> <PUBCHEM_COORDINATE_TYPE>
2
5
10

$$$$
