101073206
  -OEChem-03292013293D

 63 67  0     1  0  0  0  0  0999 V2000
    2.1962   -0.4183   -0.5430 O   0  0  0  0  0  0  0  0  0  0  0  0
    2.6653   -2.6319    0.0621 O   0  0  0  0  0  0  0  0  0  0  0  0
    2.4642    2.2899   -1.3280 O   0  0  0  0  0  0  0  0  0  0  0  0
   -0.2831   -1.8351    0.7551 O   0  0  0  0  0  0  0  0  0  0  0  0
   -2.1103    3.2520   -0.3555 O   0  0  0  0  0  0  0  0  0  0  0  0
    2.4494    4.8824    0.6700 O   0  0  0  0  0  0  0  0  0  0  0  0
    5.1186    4.7907    0.0069 O   0  0  0  0  0  0  0  0  0  0  0  0
   -2.6430   -2.6443    0.5246 O   0  0  0  0  0  0  0  0  0  0  0  0
   -4.4301    2.2844   -0.5053 O   0  0  0  0  0  0  0  0  0  0  0  0
    5.7730   -4.6954   -0.1407 N   0  0  0  0  0  0  0  0  0  0  0  0
    2.1010    2.6176    0.0077 C   0  0  2  0  0  0  0  0  0  0  0  0
    1.6318    0.2002    0.6141 C   0  0  1  0  0  0  0  0  0  0  0  0
    2.4424    1.4573    0.9453 C   0  0  0  0  0  0  0  0  0  0  0  0
    0.6132    2.9744    0.0894 C   0  0  0  0  0  0  0  0  0  0  0  0
    0.1629    0.4800    0.3962 C   0  0  0  0  0  0  0  0  0  0  0  0
   -0.3065    1.7744    0.1143 C   0  0  0  0  0  0  0  0  0  0  0  0
    3.2216   -1.3411   -0.1868 C   0  0  1  0  0  0  0  0  0  0  0  0
    4.2684   -1.4139   -1.2949 C   0  0  0  0  0  0  0  0  0  0  0  0
    4.7209   -3.7774   -0.5722 C   0  0  2  0  0  0  0  0  0  0  0  0
    5.3496   -2.4294   -0.9471 C   0  0  0  0  0  0  0  0  0  0  0  0
    3.6439   -3.5807    0.5123 C   0  0  2  0  0  0  0  0  0  0  0  0
   -0.7501   -0.5875    0.4474 C   0  0  0  0  0  0  0  0  0  0  0  0
    2.9528    3.8025    0.3642 C   0  0  0  0  0  0  0  0  0  0  0  0
   -1.6808    1.9803   -0.0937 C   0  0  0  0  0  0  0  0  0  0  0  0
   -2.1159   -0.3738    0.2296 C   0  0  0  0  0  0  0  0  0  0  0  0
   -2.5815    0.9105   -0.0406 C   0  0  0  0  0  0  0  0  0  0  0  0
    2.8872   -4.8654    0.8382 C   0  0  0  0  0  0  0  0  0  0  0  0
    4.4508    3.5877    0.3240 C   0  0  0  0  0  0  0  0  0  0  0  0
   -3.0529   -1.5144    0.2895 C   0  0  0  0  0  0  0  0  0  0  0  0
   -4.0205    1.1545   -0.2687 C   0  0  0  0  0  0  0  0  0  0  0  0
   -4.4921   -1.2725    0.0617 C   0  0  0  0  0  0  0  0  0  0  0  0
   -4.9591    0.0156   -0.2079 C   0  0  0  0  0  0  0  0  0  0  0  0
   -5.3915   -2.3440    0.1173 C   0  0  0  0  0  0  0  0  0  0  0  0
   -6.3254    0.2324   -0.4223 C   0  0  0  0  0  0  0  0  0  0  0  0
   -6.7524   -2.1236   -0.0970 C   0  0  0  0  0  0  0  0  0  0  0  0
   -7.2183   -0.8381   -0.3661 C   0  0  0  0  0  0  0  0  0  0  0  0
    1.7108   -0.4713    1.4815 H   0  0  0  0  0  0  0  0  0  0  0  0
    2.2332    1.7608    1.9804 H   0  0  0  0  0  0  0  0  0  0  0  0
    3.5099    1.2174    0.8928 H   0  0  0  0  0  0  0  0  0  0  0  0
    0.3518    3.6111   -0.7657 H   0  0  0  0  0  0  0  0  0  0  0  0
    0.4067    3.5407    1.0075 H   0  0  0  0  0  0  0  0  0  0  0  0
    3.7300   -1.0040    0.7271 H   0  0  0  0  0  0  0  0  0  0  0  0
    4.7070   -0.4250   -1.4711 H   0  0  0  0  0  0  0  0  0  0  0  0
    3.7823   -1.7094   -2.2335 H   0  0  0  0  0  0  0  0  0  0  0  0
    4.2459   -4.1859   -1.4740 H   0  0  0  0  0  0  0  0  0  0  0  0
    6.0311   -2.5458   -1.7985 H   0  0  0  0  0  0  0  0  0  0  0  0
    5.9468   -2.0440   -0.1099 H   0  0  0  0  0  0  0  0  0  0  0  0
    4.0924   -3.2005    1.4399 H   0  0  0  0  0  0  0  0  0  0  0  0
    2.1687    3.0095   -1.9116 H   0  0  0  0  0  0  0  0  0  0  0  0
    2.4245   -5.2855   -0.0617 H   0  0  0  0  0  0  0  0  0  0  0  0
    2.0721   -4.6576    1.5405 H   0  0  0  0  0  0  0  0  0  0  0  0
    3.5375   -5.6221    1.2859 H   0  0  0  0  0  0  0  0  0  0  0  0
    4.7203    2.8500   -0.4358 H   0  0  0  0  0  0  0  0  0  0  0  0
    4.7825    3.2426    1.3076 H   0  0  0  0  0  0  0  0  0  0  0  0
    6.4717   -4.7874   -0.8771 H   0  0  0  0  0  0  0  0  0  0  0  0
    5.3852   -5.6269   -0.0012 H   0  0  0  0  0  0  0  0  0  0  0  0
   -1.0037   -2.4097    1.0537 H   0  0  0  0  0  0  0  0  0  0  0  0
   -3.0715    3.3205   -0.2585 H   0  0  0  0  0  0  0  0  0  0  0  0
   -5.0532   -3.3555    0.3254 H   0  0  0  0  0  0  0  0  0  0  0  0
   -6.7137    1.2251   -0.6338 H   0  0  0  0  0  0  0  0  0  0  0  0
    6.0731    4.6140    0.0633 H   0  0  0  0  0  0  0  0  0  0  0  0
   -7.4497   -2.9552   -0.0539 H   0  0  0  0  0  0  0  0  0  0  0  0
   -8.2783   -0.6693   -0.5325 H   0  0  0  0  0  0  0  0  0  0  0  0
  1 12  1  0  0  0  0
  1 17  1  0  0  0  0
  2 17  1  0  0  0  0
  2 21  1  0  0  0  0
  3 11  1  0  0  0  0
  3 49  1  0  0  0  0
  4 22  1  0  0  0  0
  4 57  1  0  0  0  0
  5 24  1  0  0  0  0
  5 58  1  0  0  0  0
  6 23  2  0  0  0  0
  7 28  1  0  0  0  0
  7 61  1  0  0  0  0
  8 29  2  0  0  0  0
  9 30  2  0  0  0  0
 10 19  1  0  0  0  0
 10 55  1  0  0  0  0
 10 56  1  0  0  0  0
 11 13  1  0  0  0  0
 11 14  1  0  0  0  0
 11 23  1  0  0  0  0
 12 13  1  0  0  0  0
 12 15  1  0  0  0  0
 12 37  1  0  0  0  0
 13 38  1  0  0  0  0
 13 39  1  0  0  0  0
 14 16  1  0  0  0  0
 14 40  1  0  0  0  0
 14 41  1  0  0  0  0
 15 16  2  0  0  0  0
 15 22  1  0  0  0  0
 16 24  1  0  0  0  0
 17 18  1  0  0  0  0
 17 42  1  0  0  0  0
 18 20  1  0  0  0  0
 18 43  1  0  0  0  0
 18 44  1  0  0  0  0
 19 20  1  0  0  0  0
 19 21  1  0  0  0  0
 19 45  1  0  0  0  0
 20 46  1  0  0  0  0
 20 47  1  0  0  0  0
 21 27  1  0  0  0  0
 21 48  1  0  0  0  0
 22 25  2  0  0  0  0
 23 28  1  0  0  0  0
 24 26  2  0  0  0  0
 25 26  1  0  0  0  0
 25 29  1  0  0  0  0
 26 30  1  0  0  0  0
 27 50  1  0  0  0  0
 27 51  1  0  0  0  0
 27 52  1  0  0  0  0
 28 53  1  0  0  0  0
 28 54  1  0  0  0  0
 29 31  1  0  0  0  0
 30 32  1  0  0  0  0
 31 32  1  0  0  0  0
 31 33  2  0  0  0  0
 32 34  2  0  0  0  0
 33 35  1  0  0  0  0
 33 59  1  0  0  0  0
 34 36  1  0  0  0  0
 34 60  1  0  0  0  0
 35 36  2  0  0  0  0
 35 62  1  0  0  0  0
 36 63  1  0  0  0  0
M  END
> <PUBCHEM_COMPOUND_CID>
101073206

> <PUBCHEM_CONFORMER_RMSD>
1

> <PUBCHEM_CONFORMER_DIVERSEORDER>
1
4
10
5
11
6
12
7
9
8
2
3

> <PUBCHEM_MMFF94_PARTIAL_CHARGES>
42
1 -0.56
10 -0.99
11 0.34
12 0.42
14 0.14
15 -0.14
16 -0.14
17 0.56
19 0.27
2 -0.56
21 0.28
22 0.08
23 0.45
24 0.08
25 0.09
26 0.09
28 0.34
29 0.4
3 -0.68
30 0.4
31 0.09
32 0.09
33 -0.15
34 -0.15
35 -0.15
36 -0.15
4 -0.53
49 0.4
5 -0.53
55 0.36
56 0.36
57 0.45
58 0.45
59 0.15
6 -0.57
60 0.15
61 0.4
62 0.15
63 0.15
7 -0.68
8 -0.57
9 -0.57

> <PUBCHEM_EFFECTIVE_ROTOR_COUNT>
6

> <PUBCHEM_PHARMACOPHORE_FEATURES>
18
1 1 acceptor
1 10 cation
1 10 donor
1 2 acceptor
1 3 acceptor
1 3 donor
1 4 donor
1 5 donor
1 6 acceptor
1 7 acceptor
1 7 donor
1 8 acceptor
1 9 acceptor
6 11 12 13 14 15 16 rings
6 15 16 22 24 25 26 rings
6 2 17 18 19 20 21 rings
6 25 26 29 30 31 32 rings
6 31 32 33 34 35 36 rings

> <PUBCHEM_HEAVY_ATOM_COUNT>
36

> <PUBCHEM_ATOM_DEF_STEREO_COUNT>
5

> <PUBCHEM_ATOM_UDEF_STEREO_COUNT>
0

> <PUBCHEM_BOND_DEF_STEREO_COUNT>
0

> <PUBCHEM_BOND_UDEF_STEREO_COUNT>
0

> <PUBCHEM_ISOTOPIC_ATOM_COUNT>
0

> <PUBCHEM_COMPONENT_COUNT>
1

> <PUBCHEM_CACTVS_TAUTO_COUNT>
72

> <PUBCHEM_CONFORMER_ID>
0606413600000001

> <PUBCHEM_MMFF94_ENERGY>
100.1091

> <PUBCHEM_FEATURE_SELFOVERLAP>
91.466

> <PUBCHEM_SHAPE_FINGERPRINT>
10050765 1 18411699872944272241
10411042 1 18267584611510912106
10622 236 17319851651882402594
10693767 8 18199169859127307279
1100329 8 18124037823623244929
11135926 11 18195514011937342581
11204353 107 18268157641953700078
11409948 41 18054769940727096071
11719270 70 18267579303026338520
11963148 33 18126277790976064399
12107183 9 18127422151021272641
12633046 712 18191578657957680116
12788726 201 17685498646261627634
131258 43 17916883331118119244
13533116 47 18201156650345998737
13692114 37 17908129233710936752
13757389 114 16968024921937069420
138480 1 18411136896940822824
14068700 675 18129943356204356882
14150023 79 18337951328759086660
14347332 77 18264486196444517743
14394314 77 18050569543428833666
14784336 7 18191022301159476402
14790565 3 17689436409459376169
14866123 147 18053388700122861049
15320467 1 17473545128071332635
15351339 4 17970064440030950698
15400415 2 17906451383220661345
15890870 6 18337398253721813828
15927050 60 18053945331631153558
15968369 26 17970633110732369526
16992752 21 18124042235319555646
17492 89 18411979157228516997
17686467 74 18127399065894134562
17909252 39 18411143545075404513
18393751 57 17696451254721110377
18681886 176 18340764837170700122
19311894 1 17835241142894530027
19315958 150 18337391651987690717
20775438 99 18193543687449163659
21130935 74 18340773758487362323
21133410 32 16446769257195633850
21279426 13 18335130995887787133
21703447 108 18410006650141928906
22311459 1 18122905593409153489
23522609 53 18053136997258423057
23559900 14 18411130316992838139
23569914 152 17834926734968567743
24771750 20 18263091079729937292
249999 5 18342172323648744568
255183 451 18272657805442781270
3004659 81 18042127557586711514
32027 91 18338791200638750261
4046055 25 17973452005701917670
4073 2 18191871330589727715
4144715 1 18260834851989449571
4461854 278 17327755392027870307
463206 1 18191315887833354138
5776283 40 18263938781672512926
59755656 215 18265899231578139092
6004065 56 18410009919351065082
6669772 16 18267303316732566742
6679774 75 18192411182704462458
6695519 79 17550687937326803875
6697151 62 18125976335710622685
6700243 42 17484263863683001006
70251023 43 18408888416973295019

> <PUBCHEM_SHAPE_MULTIPOLES>
683.06
14.99
6.85
0.86
15.65
0.89
0.08
-9.92
2.73
-14.25
-0.75
-0.58
-0.15
1.12

> <PUBCHEM_SHAPE_SELFOVERLAP>
1512.401

> <PUBCHEM_SHAPE_VOLUME>
360.1

> <PUBCHEM_COORDINATE_TYPE>
2
5
10

$$$$
