10108584
  -OEChem-03292013303D

 33 33  0     1  0  0  0  0  0999 V2000
   -1.7039    0.0627    0.0290 O   0  0  0  0  0  0  0  0  0  0  0  0
   -3.8237    0.7487   -1.7367 O   0  0  0  0  0  0  0  0  0  0  0  0
   -4.1022   -2.4964    0.2932 O   0  0  0  0  0  0  0  0  0  0  0  0
   -3.9180    2.1090    1.6345 O   0  0  0  0  0  0  0  0  0  0  0  0
   -2.6530   -2.0954   -1.4063 O   0  0  0  0  0  0  0  0  0  0  0  0
   -3.3942    3.0657   -0.3542 O   0  0  0  0  0  0  0  0  0  0  0  0
   -0.9166   -1.8503    1.0577 O   0  0  0  0  0  0  0  0  0  0  0  0
    6.8953    0.9952   -0.5018 O   0  0  0  0  0  0  0  0  0  0  0  0
   -3.0469   -0.3522    0.2474 C   0  0  1  0  0  0  0  0  0  0  0  0
   -3.9786    0.7153   -0.3286 C   0  0  1  0  0  0  0  0  0  0  0  0
   -3.2184   -1.7220   -0.3868 C   0  0  0  0  0  0  0  0  0  0  0  0
   -3.7405    2.0835    0.2910 C   0  0  0  0  0  0  0  0  0  0  0  0
    3.0650   -0.3596    0.2479 C   0  0  0  0  0  0  0  0  0  0  0  0
   -0.7385   -0.7858    0.4872 C   0  0  0  0  0  0  0  0  0  0  0  0
    1.6989   -0.8433    0.5147 C   0  0  0  0  0  0  0  0  0  0  0  0
    0.5795   -0.1892    0.1731 C   0  0  0  0  0  0  0  0  0  0  0  0
    3.2711    0.9870   -0.0032 C   0  0  0  0  0  0  0  0  0  0  0  0
    4.1166   -1.2616    0.2531 C   0  0  0  0  0  0  0  0  0  0  0  0
    4.5644    1.4444   -0.2564 C   0  0  0  0  0  0  0  0  0  0  0  0
    5.4099   -0.8042    0.0001 C   0  0  0  0  0  0  0  0  0  0  0  0
    5.6337    0.5487   -0.2546 C   0  0  0  0  0  0  0  0  0  0  0  0
   -3.1975   -0.4380    1.3312 H   0  0  0  0  0  0  0  0  0  0  0  0
   -5.0238    0.4466   -0.1397 H   0  0  0  0  0  0  0  0  0  0  0  0
   -2.8863    0.9239   -1.9283 H   0  0  0  0  0  0  0  0  0  0  0  0
    1.6366   -1.8067    1.0158 H   0  0  0  0  0  0  0  0  0  0  0  0
    0.5765    0.7594   -0.3507 H   0  0  0  0  0  0  0  0  0  0  0  0
    2.4731    1.7225    0.0067 H   0  0  0  0  0  0  0  0  0  0  0  0
    3.9581   -2.3189    0.4483 H   0  0  0  0  0  0  0  0  0  0  0  0
    4.7268    2.5015   -0.4490 H   0  0  0  0  0  0  0  0  0  0  0  0
    6.2389   -1.5067    0.0024 H   0  0  0  0  0  0  0  0  0  0  0  0
   -4.2178   -3.3749   -0.1276 H   0  0  0  0  0  0  0  0  0  0  0  0
   -3.7441    2.9983    2.0104 H   0  0  0  0  0  0  0  0  0  0  0  0
    6.8653    1.9549   -0.6570 H   0  0  0  0  0  0  0  0  0  0  0  0
  1  9  1  0  0  0  0
  1 14  1  0  0  0  0
  2 10  1  0  0  0  0
  2 24  1  0  0  0  0
  3 11  1  0  0  0  0
  3 31  1  0  0  0  0
  4 12  1  0  0  0  0
  4 32  1  0  0  0  0
  5 11  2  0  0  0  0
  6 12  2  0  0  0  0
  7 14  2  0  0  0  0
  8 21  1  0  0  0  0
  8 33  1  0  0  0  0
  9 10  1  0  0  0  0
  9 11  1  0  0  0  0
  9 22  1  0  0  0  0
 10 12  1  0  0  0  0
 10 23  1  0  0  0  0
 13 15  1  0  0  0  0
 13 17  2  0  0  0  0
 13 18  1  0  0  0  0
 14 16  1  0  0  0  0
 15 16  2  0  0  0  0
 15 25  1  0  0  0  0
 16 26  1  0  0  0  0
 17 19  1  0  0  0  0
 17 27  1  0  0  0  0
 18 20  2  0  0  0  0
 18 28  1  0  0  0  0
 19 21  2  0  0  0  0
 19 29  1  0  0  0  0
 20 21  1  0  0  0  0
 20 30  1  0  0  0  0
M  END
> <PUBCHEM_COMPOUND_CID>
10108584

> <PUBCHEM_CONFORMER_RMSD>
0.8

> <PUBCHEM_CONFORMER_DIVERSEORDER>
1
54
120
89
65
36
75
81
107
13
126
129
72
110
31
85
34
128
22
88
132
66
91
73
37
95
49
52
58
43
83
17
46
2
67
11
118
21
44
94
112
138
131
27
5
96
14
102
130
64
103
100
97
56
63
122
108
61
39
87
99
59
74
6
71
9
32
133
109
113
45
121
51
92
117
77
76
82
26
48
70
16
23
104
114
30
90
125
127
111
24
35
137
123
69
41
62
33
38
134
10
124
78
53
60
135
55
7
12
93
106
119
84
136
116
79
101
18
57
25
20
4
98
15
86
115
3
29
19
8
80
47
105
28
68
40
42
50

> <PUBCHEM_MMFF94_PARTIAL_CHARGES>
31
1 -0.43
10 0.34
11 0.66
12 0.66
13 0.03
14 0.71
15 -0.18
16 -0.14
17 -0.15
18 -0.15
19 -0.15
2 -0.68
20 -0.15
21 0.08
24 0.4
25 0.15
26 0.15
27 0.15
28 0.15
29 0.15
3 -0.65
30 0.15
31 0.5
32 0.5
33 0.45
4 -0.65
5 -0.57
6 -0.57
7 -0.57
8 -0.53
9 0.34

> <PUBCHEM_EFFECTIVE_ROTOR_COUNT>
7

> <PUBCHEM_PHARMACOPHORE_FEATURES>
11
1 2 acceptor
1 2 donor
1 3 acceptor
1 4 acceptor
1 5 acceptor
1 6 acceptor
1 7 acceptor
1 8 donor
3 3 5 11 anion
3 4 6 12 anion
6 13 17 18 19 20 21 rings

> <PUBCHEM_HEAVY_ATOM_COUNT>
21

> <PUBCHEM_ATOM_DEF_STEREO_COUNT>
0

> <PUBCHEM_ATOM_UDEF_STEREO_COUNT>
2

> <PUBCHEM_BOND_DEF_STEREO_COUNT>
1

> <PUBCHEM_BOND_UDEF_STEREO_COUNT>
0

> <PUBCHEM_ISOTOPIC_ATOM_COUNT>
0

> <PUBCHEM_COMPONENT_COUNT>
1

> <PUBCHEM_CACTVS_TAUTO_COUNT>
2

> <PUBCHEM_CONFORMER_ID>
009A3EA800000001

> <PUBCHEM_MMFF94_ENERGY>
44.0129

> <PUBCHEM_FEATURE_SELFOVERLAP>
55.948

> <PUBCHEM_SHAPE_FINGERPRINT>
10014705 185 18113612370316036581
10595046 47 18409447029220977254
10680689 15 18272651289581883811
10912923 1 18113329813271591042
11405975 8 18336824200191066818
12091667 2 18335987549468030634
12107183 9 17903349312941328722
12403259 415 17846776347458017202
13073987 5 18260828211516485162
13167823 11 18411416228734601606
14251764 75 17765721217885112041
14713325 29 18413395341248795811
15183329 4 18336265652974489562
15196674 1 18408323289777331282
15348495 7 10953743326624476526
15778101 99 18411987931366888817
15788980 27 16487255478299453468
16994733 274 15721047559864914951
17834072 33 18340486763912770702
17844677 252 18338523040213475344
18222031 100 14477241549160447234
200 152 18272090543542725930
20645477 56 18272654519871647907
20645477 70 18341899580799956726
21236236 1 18410294726536192363
21315763 129 18337670923324197784
21426921 1 18341331171489057587
21709351 56 18409447020767894300
221357 26 18341890852513145075
23081809 10 18040715879646223570
23402539 116 18335416881300077342
23402655 69 18411981352157265290
23557571 272 18272658968977731566
23559900 14 18343295990388702384
268830 7 17895184477158848834
26918003 58 8214155036126246526
283562 15 18260545667309559571
328310 630 17677061247659888108
4214541 1 18411419509756780232
441001 317 18411699893854190688
497634 4 18187079589869362263
49783359 22 8862938368917023304
5104073 3 18261108574112127130
5283173 99 18413106143762345624
531348 171 18343584019143225886
542803 24 18410856568804828114
543358 83 18335702694436675034
6327066 14 18191863427871437437
633830 44 18186238407713501954
77779 3 18410012143779848026

> <PUBCHEM_SHAPE_MULTIPOLES>
385.22
14.18
2.51
1
15.75
0.58
-0.09
4.21
-1.82
-3.67
0.07
-1.07
0.06
-0.87

> <PUBCHEM_SHAPE_SELFOVERLAP>
806.467

> <PUBCHEM_SHAPE_VOLUME>
215.4

> <PUBCHEM_COORDINATE_TYPE>
2
5
10

$$$$
