101019702
  -OEChem-03292013293D

 58 60  0     1  0  0  0  0  0999 V2000
   -2.8373   -1.8612   -1.2993 S   0  0  0  0  0  0  0  0  0  0  0  0
   -0.4764   -4.8051    1.5019 S   0  0  0  0  0  0  0  0  0  0  0  0
    0.0845    2.9863   -1.1090 O   0  0  0  0  0  0  0  0  0  0  0  0
   -3.3977    4.3793    1.6894 O   0  0  0  0  0  0  0  0  0  0  0  0
    1.1226    0.0107   -0.3236 O   0  0  0  0  0  0  0  0  0  0  0  0
    0.1285   -1.0824   -2.1060 O   0  0  0  0  0  0  0  0  0  0  0  0
    4.6763   -0.3909   -0.1508 O   0  0  0  0  0  0  0  0  0  0  0  0
    3.2109    0.7872    1.1882 O   0  0  0  0  0  0  0  0  0  0  0  0
   -1.1473    1.3703    0.0882 N   0  0  0  0  0  0  0  0  0  0  0  0
   -2.8091   -4.8862    0.1178 N   0  0  0  0  0  0  0  0  0  0  0  0
   -2.4970    1.7169    0.5766 C   0  0  1  0  0  0  0  0  0  0  0  0
   -2.2211    3.1483   -0.0096 C   0  0  2  0  0  0  0  0  0  0  0  0
   -3.3978    0.6031    0.0000 C   0  0  2  0  0  0  0  0  0  0  0  0
   -0.8491    2.5821   -0.4534 C   0  0  0  0  0  0  0  0  0  0  0  0
   -2.3886   -0.3506   -0.6158 C   0  0  0  0  0  0  0  0  0  0  0  0
   -1.1543    0.1671   -0.5533 C   0  0  0  0  0  0  0  0  0  0  0  0
   -2.1601    4.2883    0.9893 C   0  0  1  0  0  0  0  0  0  0  0  0
   -4.4150    1.1596   -0.9881 C   0  0  0  0  0  0  0  0  0  0  0  0
   -1.8942    5.6131    0.2864 C   0  0  0  0  0  0  0  0  0  0  0  0
    0.0807   -0.3828   -1.1024 C   0  0  0  0  0  0  0  0  0  0  0  0
   -3.5620   -2.6768    0.1699 C   0  0  1  0  0  0  0  0  0  0  0  0
   -3.9859   -4.1044   -0.1576 C   0  0  0  0  0  0  0  0  0  0  0  0
   -2.4989   -2.8620    1.2592 C   0  0  0  0  0  0  0  0  0  0  0  0
   -1.9166   -4.2146    0.9357 C   0  0  0  0  0  0  0  0  0  0  0  0
    2.4127   -0.4527   -0.7357 C   0  0  0  0  0  0  0  0  0  0  0  0
    3.4471    0.0684    0.2266 C   0  0  0  0  0  0  0  0  0  0  0  0
    5.7691    0.0244    0.6749 C   0  0  0  0  0  0  0  0  0  0  0  0
    7.0791   -0.5597    0.1391 C   0  0  0  0  0  0  0  0  0  0  0  0
    8.2433   -0.1837    1.0531 C   0  0  0  0  0  0  0  0  0  0  0  0
    7.3537   -0.0922   -1.2918 C   0  0  0  0  0  0  0  0  0  0  0  0
   -2.5175    1.6970    1.6762 H   0  0  0  0  0  0  0  0  0  0  0  0
   -2.8576    3.3947   -0.8685 H   0  0  0  0  0  0  0  0  0  0  0  0
   -3.9245    0.1179    0.8298 H   0  0  0  0  0  0  0  0  0  0  0  0
   -1.3788    4.1042    1.7360 H   0  0  0  0  0  0  0  0  0  0  0  0
   -3.9335    1.5726   -1.8814 H   0  0  0  0  0  0  0  0  0  0  0  0
   -5.0070    1.9570   -0.5262 H   0  0  0  0  0  0  0  0  0  0  0  0
   -5.1073    0.3778   -1.3179 H   0  0  0  0  0  0  0  0  0  0  0  0
   -2.6969    5.8487   -0.4214 H   0  0  0  0  0  0  0  0  0  0  0  0
   -1.8610    6.4336    1.0111 H   0  0  0  0  0  0  0  0  0  0  0  0
   -0.9477    5.5931   -0.2620 H   0  0  0  0  0  0  0  0  0  0  0  0
   -4.4174   -2.0882    0.5129 H   0  0  0  0  0  0  0  0  0  0  0  0
   -3.3212    5.1084    2.3283 H   0  0  0  0  0  0  0  0  0  0  0  0
   -4.7693   -4.4504    0.5254 H   0  0  0  0  0  0  0  0  0  0  0  0
   -4.3151   -4.2666   -1.1878 H   0  0  0  0  0  0  0  0  0  0  0  0
   -2.9829   -2.9363    2.2416 H   0  0  0  0  0  0  0  0  0  0  0  0
   -1.7342   -2.0848    1.3231 H   0  0  0  0  0  0  0  0  0  0  0  0
   -2.6678   -5.8363   -0.2104 H   0  0  0  0  0  0  0  0  0  0  0  0
    2.4286   -1.5474   -0.7142 H   0  0  0  0  0  0  0  0  0  0  0  0
    2.6350   -0.0679   -1.7363 H   0  0  0  0  0  0  0  0  0  0  0  0
    5.5955   -0.3317    1.6977 H   0  0  0  0  0  0  0  0  0  0  0  0
    5.8172    1.1204    0.6850 H   0  0  0  0  0  0  0  0  0  0  0  0
    6.9883   -1.6531    0.1145 H   0  0  0  0  0  0  0  0  0  0  0  0
    8.3779    0.9023    1.1004 H   0  0  0  0  0  0  0  0  0  0  0  0
    7.4263    0.9995   -1.3451 H   0  0  0  0  0  0  0  0  0  0  0  0
    6.5589   -0.4129   -1.9730 H   0  0  0  0  0  0  0  0  0  0  0  0
    8.2950   -0.5120   -1.6625 H   0  0  0  0  0  0  0  0  0  0  0  0
    9.1787   -0.6254    0.6935 H   0  0  0  0  0  0  0  0  0  0  0  0
    8.0718   -0.5488    2.0712 H   0  0  0  0  0  0  0  0  0  0  0  0
  1 15  1  0  0  0  0
  1 21  1  0  0  0  0
  2 24  2  0  0  0  0
  3 14  2  0  0  0  0
  4 17  1  0  0  0  0
  4 42  1  0  0  0  0
  5 20  1  0  0  0  0
  5 25  1  0  0  0  0
  6 20  2  0  0  0  0
  7 26  1  0  0  0  0
  7 27  1  0  0  0  0
  8 26  2  0  0  0  0
  9 11  1  0  0  0  0
  9 14  1  0  0  0  0
  9 16  1  0  0  0  0
 10 22  1  0  0  0  0
 10 24  1  0  0  0  0
 10 47  1  0  0  0  0
 11 12  1  0  0  0  0
 11 13  1  0  0  0  0
 11 31  1  0  0  0  0
 12 14  1  0  0  0  0
 12 17  1  0  0  0  0
 12 32  1  0  0  0  0
 13 15  1  0  0  0  0
 13 18  1  0  0  0  0
 13 33  1  0  0  0  0
 15 16  2  0  0  0  0
 16 20  1  0  0  0  0
 17 19  1  0  0  0  0
 17 34  1  0  0  0  0
 18 35  1  0  0  0  0
 18 36  1  0  0  0  0
 18 37  1  0  0  0  0
 19 38  1  0  0  0  0
 19 39  1  0  0  0  0
 19 40  1  0  0  0  0
 21 22  1  0  0  0  0
 21 23  1  0  0  0  0
 21 41  1  0  0  0  0
 22 43  1  0  0  0  0
 22 44  1  0  0  0  0
 23 24  1  0  0  0  0
 23 45  1  0  0  0  0
 23 46  1  0  0  0  0
 25 26  1  0  0  0  0
 25 48  1  0  0  0  0
 25 49  1  0  0  0  0
 27 28  1  0  0  0  0
 27 50  1  0  0  0  0
 27 51  1  0  0  0  0
 28 29  1  0  0  0  0
 28 30  1  0  0  0  0
 28 52  1  0  0  0  0
 29 53  1  0  0  0  0
 29 57  1  0  0  0  0
 29 58  1  0  0  0  0
 30 54  1  0  0  0  0
 30 55  1  0  0  0  0
 30 56  1  0  0  0  0
M  END
> <PUBCHEM_COMPOUND_CID>
101019702

> <PUBCHEM_CONFORMER_RMSD>
1

> <PUBCHEM_CONFORMER_DIVERSEORDER>
1
93
57
107
119
91
84
120
21
68
105
44
71
58
133
70
130
33
15
97
83
132
13
81
95
47
67
115
45
60
101
86
48
126
16
134
55
3
37
4
113
46
29
100
65
75
27
112
20
109
56
108
88
129
104
122
64
99
10
7
80
87
23
50
89
92
26
19
121
128
124
11
36
18
31
38
96
2
63
85
102
76
135
5
79
22
42
25
69
125
8
110
73
17
74
62
34
118
116
6
9
61
72
24
12
98
54
39
28
123
59
53
32
66
49
94
103
111
40
82
127
77
131
14
106
41
117
51
52
35
90
114
30
78
43

> <PUBCHEM_MMFF94_PARTIAL_CHARGES>
27
1 -0.33
10 -0.73
11 0.22
12 0.05
13 0.14
14 0.58
15 -0.04
16 0.12
17 0.28
2 -0.38
20 0.71
21 0.23
22 0.3
23 0.06
24 0.38
25 0.34
26 0.66
27 0.28
3 -0.57
4 -0.68
42 0.4
47 0.37
5 -0.43
6 -0.57
7 -0.43
8 -0.57
9 -0.39

> <PUBCHEM_EFFECTIVE_ROTOR_COUNT>
11.2

> <PUBCHEM_PHARMACOPHORE_FEATURES>
9
1 2 acceptor
1 3 acceptor
1 4 acceptor
1 4 donor
1 6 acceptor
1 8 acceptor
3 28 29 30 hydrophobe
5 10 21 22 23 24 rings
7 9 11 12 13 14 15 16 rings

> <PUBCHEM_HEAVY_ATOM_COUNT>
30

> <PUBCHEM_ATOM_DEF_STEREO_COUNT>
5

> <PUBCHEM_ATOM_UDEF_STEREO_COUNT>
0

> <PUBCHEM_BOND_DEF_STEREO_COUNT>
0

> <PUBCHEM_BOND_UDEF_STEREO_COUNT>
0

> <PUBCHEM_ISOTOPIC_ATOM_COUNT>
0

> <PUBCHEM_COMPONENT_COUNT>
1

> <PUBCHEM_CACTVS_TAUTO_COUNT>
6

> <PUBCHEM_CONFORMER_ID>
0605703600000001

> <PUBCHEM_MMFF94_ENERGY>
80.2149

> <PUBCHEM_FEATURE_SELFOVERLAP>
45.673

> <PUBCHEM_SHAPE_FINGERPRINT>
10290309 65 17831019022914046372
10411042 1 18196369441037975263
1100329 8 18337956800731914713
11056379 131 18410300202994028262
11297750 10 18046615987858403007
12788726 201 18338221705202941467
13140716 1 18269278022758183317
13911987 19 18189881047161067829
140371 6 18412832386757561101
14068700 675 18189333648730492742
14844126 61 18334297599616539691
14955137 171 17476077303022715640
15361156 5 18201434822593235116
15876981 60 18334017228651977252
15927050 60 18195810652533641911
17686467 74 18263916809115867560
17980427 26 17475505076208688037
20101258 96 18271522121215147116
20771845 35 17412727781321686923
21120745 212 18337685225106682660
21796203 349 17684967925141694746
22956985 138 17471570404907473039
23559900 14 17904473353190797387
283562 15 18197492936174841957
3418910 222 18192434285239679316
4058900 60 17623299268983262568
4073 2 18411419493542794798
563151 97 18049432644254028477
6673363 416 18123204648214904964
7288768 16 17629501699726590233
9896288 288 18265343823955912019

> <PUBCHEM_SHAPE_MULTIPOLES>
579.91
13.69
7.49
1.4
46.71
1.15
-0.08
-3.33
0.85
-14.01
3.68
0.02
-0.21
-0.62

> <PUBCHEM_SHAPE_SELFOVERLAP>
1182.289

> <PUBCHEM_SHAPE_VOLUME>
340.8

> <PUBCHEM_COORDINATE_TYPE>
2
5
10

$$$$
