10104785
  -OEChem-03292013303D

 29 29  0     1  0  0  0  0  0999 V2000
   -1.6621   -2.1792   -0.1129 O   0  0  0  0  0  0  0  0  0  0  0  0
    0.5117   -1.2708   -1.5549 O   0  0  0  0  0  0  0  0  0  0  0  0
   -4.1239    0.7995   -0.5489 O   0  0  0  0  0  0  0  0  0  0  0  0
   -3.4701   -0.0371    1.4514 O   0  0  0  0  0  0  0  0  0  0  0  0
    3.4474   -0.3175    1.5401 O   0  0  0  0  0  0  0  0  0  0  0  0
    0.2952    1.5184   -0.5476 N   0  0  0  0  0  0  0  0  0  0  0  0
    2.4049    0.4991   -0.3751 N   0  0  0  0  0  0  0  0  0  0  0  0
   -1.0511   -0.9531    0.2802 C   0  0  1  0  0  0  0  0  0  0  0  0
    0.4172   -0.9384   -0.1667 C   0  0  2  0  0  0  0  0  0  0  0  0
   -1.8267    0.2235   -0.3246 C   0  0  2  0  0  0  0  0  0  0  0  0
    1.0454    0.4375    0.0954 C   0  0  2  0  0  0  0  0  0  0  0  0
   -1.0928    1.5476   -0.0816 C   0  0  0  0  0  0  0  0  0  0  0  0
   -3.1872    0.2997    0.3041 C   0  0  0  0  0  0  0  0  0  0  0  0
    3.4950    0.1144    0.3914 C   0  0  0  0  0  0  0  0  0  0  0  0
    4.7971    0.2563   -0.3504 C   0  0  0  0  0  0  0  0  0  0  0  0
   -1.0748   -0.9098    1.3768 H   0  0  0  0  0  0  0  0  0  0  0  0
    0.9683   -1.7226    0.3648 H   0  0  0  0  0  0  0  0  0  0  0  0
   -1.9676    0.0460   -1.3990 H   0  0  0  0  0  0  0  0  0  0  0  0
    1.0646    0.6182    1.1781 H   0  0  0  0  0  0  0  0  0  0  0  0
   -1.6169    2.3595   -0.6000 H   0  0  0  0  0  0  0  0  0  0  0  0
   -1.1140    1.8134    0.9835 H   0  0  0  0  0  0  0  0  0  0  0  0
    0.3076    1.3827   -1.5576 H   0  0  0  0  0  0  0  0  0  0  0  0
    2.5576    0.8181   -1.3271 H   0  0  0  0  0  0  0  0  0  0  0  0
   -2.5534   -2.2064    0.2740 H   0  0  0  0  0  0  0  0  0  0  0  0
    0.0694   -0.5759   -2.0690 H   0  0  0  0  0  0  0  0  0  0  0  0
   -5.0097    0.8467   -0.1300 H   0  0  0  0  0  0  0  0  0  0  0  0
    5.6311    0.1843    0.3531 H   0  0  0  0  0  0  0  0  0  0  0  0
    4.8810   -0.5419   -1.0928 H   0  0  0  0  0  0  0  0  0  0  0  0
    4.8463    1.2272   -0.8519 H   0  0  0  0  0  0  0  0  0  0  0  0
  1  8  1  0  0  0  0
  1 24  1  0  0  0  0
  2  9  1  0  0  0  0
  2 25  1  0  0  0  0
  3 13  1  0  0  0  0
  3 26  1  0  0  0  0
  4 13  2  0  0  0  0
  5 14  2  0  0  0  0
  6 11  1  0  0  0  0
  6 12  1  0  0  0  0
  6 22  1  0  0  0  0
  7 11  1  0  0  0  0
  7 14  1  0  0  0  0
  7 23  1  0  0  0  0
  8  9  1  0  0  0  0
  8 10  1  0  0  0  0
  8 16  1  0  0  0  0
  9 11  1  0  0  0  0
  9 17  1  0  0  0  0
 10 12  1  0  0  0  0
 10 13  1  0  0  0  0
 10 18  1  0  0  0  0
 11 19  1  0  0  0  0
 12 20  1  0  0  0  0
 12 21  1  0  0  0  0
 14 15  1  0  0  0  0
 15 27  1  0  0  0  0
 15 28  1  0  0  0  0
 15 29  1  0  0  0  0
M  END
> <PUBCHEM_COMPOUND_CID>
10104785

> <PUBCHEM_CONFORMER_RMSD>
0.6

> <PUBCHEM_CONFORMER_DIVERSEORDER>
1
3
12
8
4
11
5
9
10
2
6
7

> <PUBCHEM_MMFF94_PARTIAL_CHARGES>
20
1 -0.68
10 0.06
11 0.57
12 0.27
13 0.66
14 0.57
15 0.06
2 -0.68
22 0.36
23 0.37
24 0.4
25 0.4
26 0.5
3 -0.65
4 -0.57
5 -0.57
6 -0.9
7 -0.73
8 0.28
9 0.28

> <PUBCHEM_EFFECTIVE_ROTOR_COUNT>
4.2

> <PUBCHEM_PHARMACOPHORE_FEATURES>
12
1 1 acceptor
1 1 donor
1 2 acceptor
1 2 donor
1 3 acceptor
1 4 acceptor
1 5 acceptor
1 6 cation
1 6 donor
1 7 donor
3 3 4 13 anion
6 6 8 9 10 11 12 rings

> <PUBCHEM_HEAVY_ATOM_COUNT>
15

> <PUBCHEM_ATOM_DEF_STEREO_COUNT>
4

> <PUBCHEM_ATOM_UDEF_STEREO_COUNT>
0

> <PUBCHEM_BOND_DEF_STEREO_COUNT>
0

> <PUBCHEM_BOND_UDEF_STEREO_COUNT>
0

> <PUBCHEM_ISOTOPIC_ATOM_COUNT>
0

> <PUBCHEM_COMPONENT_COUNT>
1

> <PUBCHEM_CACTVS_TAUTO_COUNT>
2

> <PUBCHEM_CONFORMER_ID>
009A2FD100000001

> <PUBCHEM_MMFF94_ENERGY>
22.0509

> <PUBCHEM_FEATURE_SELFOVERLAP>
61.011

> <PUBCHEM_SHAPE_FINGERPRINT>
10219947 1 18412265025455773981
11132069 177 18342452651441763108
11543360 7 14405174084433123821
12119455 92 17703785899341768230
12251169 10 18409730681440060992
12382932 28 18341618130806436179
124424 183 17894908534015580129
12932764 1 17967802882245921932
13380535 76 18343865511136009047
13380536 53 18411427189253309900
13675066 3 17894911840982103672
13760787 19 17095245817060715544
14943859 89 18410294722473275154
14993402 34 18409725170812410445
15209294 21 17774452564068727705
15219456 202 18200037213932231566
15375462 189 17894344510425758856
16945 1 18411984654301430749
17846911 113 18343014476071652401
18175812 5 17988644133676930292
18186145 218 16774072956218752376
18511873 20 18113615702888969648
19026448 5 15792024380235825981
20510252 161 18270963436338882968
20511035 2 18122629619530791909
20645476 183 17459490989870999862
21501502 16 18121508117854868813
22485316 2 14923939050801145008
23402539 116 18341322340867323429
23463225 33 18260266352194229484
23559900 14 18340496569333910886
265663 24 15267341808085612364
2748010 2 18200053826892632663
69090 78 17846210064224845614

> <PUBCHEM_SHAPE_MULTIPOLES>
269.38
7.3
1.46
1.04
4.08
0.31
-0.13
-1.07
-1.24
-0.7
0.26
0.11
0.19
0.01

> <PUBCHEM_SHAPE_SELFOVERLAP>
541.413

> <PUBCHEM_SHAPE_VOLUME>
154.7

> <PUBCHEM_COORDINATE_TYPE>
2
5
10

$$$$
