101042999
  -OEChem-03292013293D

 60 65  0     1  0  0  0  0  0999 V2000
    1.3035   -0.0462   -1.2814 O   0  0  0  0  0  0  0  0  0  0  0  0
    1.7988    3.2722    0.1154 O   0  0  0  0  0  0  0  0  0  0  0  0
    6.1178    1.4197   -0.3896 O   0  0  0  0  0  0  0  0  0  0  0  0
   -0.6295   -0.4620   -2.4373 O   0  0  0  0  0  0  0  0  0  0  0  0
   -1.2339    2.0808   -0.2577 O   0  0  0  0  0  0  0  0  0  0  0  0
   -2.4505   -2.8023    1.6916 O   0  0  0  0  0  0  0  0  0  0  0  0
    3.9924    0.5913    0.1750 N   0  0  0  0  0  0  0  0  0  0  0  0
    2.7053    2.3088   -0.4641 N   0  0  2  0  0  0  0  0  0  0  0  0
   -1.8888   -0.1362    0.1073 N   0  0  0  0  0  0  0  0  0  0  0  0
   -4.2247   -0.6098    0.4894 N   0  0  0  0  0  0  0  0  0  0  0  0
    1.7188   -0.0549    0.0942 C   0  0  1  0  0  0  0  0  0  0  0  0
    2.6736    1.1251    0.3825 C   0  0  1  0  0  0  0  0  0  0  0  0
    0.4360   -0.0128    0.8996 C   0  0  0  0  0  0  0  0  0  0  0  0
    2.6649   -1.2282    0.3094 C   0  0  0  0  0  0  0  0  0  0  0  0
   -0.5696   -0.6803   -0.0138 C   0  0  2  0  0  0  0  0  0  0  0  0
    3.9998   -0.7862    0.2780 C   0  0  0  0  0  0  0  0  0  0  0  0
    4.1015    2.8235   -0.3643 C   0  0  2  0  0  0  0  0  0  0  0  0
    4.9192    1.5355   -0.1992 C   0  0  0  0  0  0  0  0  0  0  0  0
   -0.0193   -0.3835   -1.3821 C   0  0  0  0  0  0  0  0  0  0  0  0
    2.3908   -2.5803    0.4165 C   0  0  0  0  0  0  0  0  0  0  0  0
    5.0751   -1.6514    0.3073 C   0  0  0  0  0  0  0  0  0  0  0  0
    4.4071    3.7568    0.8055 C   0  0  0  0  0  0  0  0  0  0  0  0
    3.4665   -3.4728    0.4814 C   0  0  0  0  0  0  0  0  0  0  0  0
    4.7946   -3.0134    0.4202 C   0  0  0  0  0  0  0  0  0  0  0  0
   -2.9883   -0.9705    0.3789 C   0  0  0  0  0  0  0  0  0  0  0  0
   -2.1149    1.2530   -0.0437 C   0  0  0  0  0  0  0  0  0  0  0  0
   -3.5214    1.7032    0.0725 C   0  0  0  0  0  0  0  0  0  0  0  0
   -2.7052   -2.4163    0.5579 C   0  0  0  0  0  0  0  0  0  0  0  0
   -4.5163    0.7532    0.3311 C   0  0  0  0  0  0  0  0  0  0  0  0
   -2.7503   -3.2868   -0.6859 C   0  0  0  0  0  0  0  0  0  0  0  0
   -3.8463    3.0564   -0.0761 C   0  0  0  0  0  0  0  0  0  0  0  0
   -5.8452    1.1786    0.4391 C   0  0  0  0  0  0  0  0  0  0  0  0
   -4.1627   -3.8199   -0.9002 C   0  0  0  0  0  0  0  0  0  0  0  0
   -1.7506   -4.4361   -0.5831 C   0  0  0  0  0  0  0  0  0  0  0  0
   -5.1748    3.4645    0.0343 C   0  0  0  0  0  0  0  0  0  0  0  0
   -6.1734    2.5273    0.2915 C   0  0  0  0  0  0  0  0  0  0  0  0
    2.6290    1.3933    1.4502 H   0  0  0  0  0  0  0  0  0  0  0  0
    0.1848    1.0161    1.1668 H   0  0  0  0  0  0  0  0  0  0  0  0
    0.5196   -0.5464    1.8540 H   0  0  0  0  0  0  0  0  0  0  0  0
   -0.5236   -1.7596    0.1185 H   0  0  0  0  0  0  0  0  0  0  0  0
    4.3736    3.2932   -1.3152 H   0  0  0  0  0  0  0  0  0  0  0  0
    1.3763   -2.9584    0.4326 H   0  0  0  0  0  0  0  0  0  0  0  0
    6.0992   -1.3002    0.2633 H   0  0  0  0  0  0  0  0  0  0  0  0
    3.8596    4.7002    0.7132 H   0  0  0  0  0  0  0  0  0  0  0  0
    5.4764    3.9948    0.8343 H   0  0  0  0  0  0  0  0  0  0  0  0
    4.1540    3.3034    1.7701 H   0  0  0  0  0  0  0  0  0  0  0  0
    1.2033    3.4102   -0.6406 H   0  0  0  0  0  0  0  0  0  0  0  0
    3.2742   -4.5395    0.5642 H   0  0  0  0  0  0  0  0  0  0  0  0
    5.6106   -3.7301    0.4604 H   0  0  0  0  0  0  0  0  0  0  0  0
   -2.4647   -2.6697   -1.5461 H   0  0  0  0  0  0  0  0  0  0  0  0
   -3.0828    3.8026   -0.2774 H   0  0  0  0  0  0  0  0  0  0  0  0
   -6.6355    0.4591    0.6402 H   0  0  0  0  0  0  0  0  0  0  0  0
   -4.4959   -4.4168   -0.0439 H   0  0  0  0  0  0  0  0  0  0  0  0
   -4.2126   -4.4477   -1.7958 H   0  0  0  0  0  0  0  0  0  0  0  0
   -4.8770   -2.9994   -1.0254 H   0  0  0  0  0  0  0  0  0  0  0  0
   -1.9893   -5.1002    0.2550 H   0  0  0  0  0  0  0  0  0  0  0  0
   -1.7504   -5.0343   -1.5003 H   0  0  0  0  0  0  0  0  0  0  0  0
   -0.7345   -4.0614   -0.4264 H   0  0  0  0  0  0  0  0  0  0  0  0
   -5.4317    4.5135   -0.0804 H   0  0  0  0  0  0  0  0  0  0  0  0
   -7.2081    2.8461    0.3774 H   0  0  0  0  0  0  0  0  0  0  0  0
  1 11  1  0  0  0  0
  1 19  1  0  0  0  0
  2  8  1  0  0  0  0
  2 47  1  0  0  0  0
  3 18  2  0  0  0  0
  4 19  2  0  0  0  0
  5 26  2  0  0  0  0
  6 28  2  0  0  0  0
  7 12  1  0  0  0  0
  7 16  1  0  0  0  0
  7 18  1  0  0  0  0
  8 12  1  0  0  0  0
  8 17  1  0  0  0  0
  9 15  1  0  0  0  0
  9 25  1  0  0  0  0
  9 26  1  0  0  0  0
 10 25  2  0  0  0  0
 10 29  1  0  0  0  0
 11 12  1  0  0  0  0
 11 13  1  0  0  0  0
 11 14  1  0  0  0  0
 12 37  1  0  0  0  0
 13 15  1  0  0  0  0
 13 38  1  0  0  0  0
 13 39  1  0  0  0  0
 14 16  1  0  0  0  0
 14 20  2  0  0  0  0
 15 19  1  0  0  0  0
 15 40  1  0  0  0  0
 16 21  2  0  0  0  0
 17 18  1  0  0  0  0
 17 22  1  0  0  0  0
 17 41  1  0  0  0  0
 20 23  1  0  0  0  0
 20 42  1  0  0  0  0
 21 24  1  0  0  0  0
 21 43  1  0  0  0  0
 22 44  1  0  0  0  0
 22 45  1  0  0  0  0
 22 46  1  0  0  0  0
 23 24  2  0  0  0  0
 23 48  1  0  0  0  0
 24 49  1  0  0  0  0
 25 28  1  0  0  0  0
 26 27  1  0  0  0  0
 27 29  1  0  0  0  0
 27 31  2  0  0  0  0
 28 30  1  0  0  0  0
 29 32  2  0  0  0  0
 30 33  1  0  0  0  0
 30 34  1  0  0  0  0
 30 50  1  0  0  0  0
 31 35  1  0  0  0  0
 31 51  1  0  0  0  0
 32 36  1  0  0  0  0
 32 52  1  0  0  0  0
 33 53  1  0  0  0  0
 33 54  1  0  0  0  0
 33 55  1  0  0  0  0
 34 56  1  0  0  0  0
 34 57  1  0  0  0  0
 34 58  1  0  0  0  0
 35 36  2  0  0  0  0
 35 59  1  0  0  0  0
 36 60  1  0  0  0  0
M  END
> <PUBCHEM_COMPOUND_CID>
101042999

> <PUBCHEM_CONFORMER_RMSD>
0.8

> <PUBCHEM_CONFORMER_DIVERSEORDER>
1
4
3
2

> <PUBCHEM_MMFF94_PARTIAL_CHARGES>
41
1 -0.43
10 -0.63
11 0.42
12 0.57
14 -0.14
15 0.36
16 0.12
17 0.33
18 0.57
19 0.66
2 -0.3
20 -0.15
21 -0.15
23 -0.15
24 -0.15
25 0.51
26 0.54
27 0.09
28 0.51
29 0.18
3 -0.57
30 0.06
31 -0.15
32 -0.15
35 -0.15
36 -0.15
4 -0.57
42 0.15
43 0.15
47 0.4
48 0.15
49 0.15
5 -0.57
51 0.15
52 0.15
59 0.15
6 -0.57
60 0.15
7 -0.48
8 -0.64
9 -0.42

> <PUBCHEM_EFFECTIVE_ROTOR_COUNT>
4

> <PUBCHEM_PHARMACOPHORE_FEATURES>
12
1 2 anion
1 3 acceptor
1 4 acceptor
1 5 acceptor
1 6 acceptor
3 30 33 34 hydrophobe
5 1 11 13 15 19 rings
5 7 11 12 14 16 rings
5 7 8 12 17 18 rings
6 14 16 20 21 23 24 rings
6 27 29 31 32 35 36 rings
6 9 10 25 26 27 29 rings

> <PUBCHEM_HEAVY_ATOM_COUNT>
36

> <PUBCHEM_ATOM_DEF_STEREO_COUNT>
4

> <PUBCHEM_ATOM_UDEF_STEREO_COUNT>
0

> <PUBCHEM_BOND_DEF_STEREO_COUNT>
0

> <PUBCHEM_BOND_UDEF_STEREO_COUNT>
0

> <PUBCHEM_ISOTOPIC_ATOM_COUNT>
0

> <PUBCHEM_COMPONENT_COUNT>
1

> <PUBCHEM_CACTVS_TAUTO_COUNT>
20

> <PUBCHEM_CONFORMER_ID>
0605CB3700000001

> <PUBCHEM_MMFF94_ENERGY>
114.5362

> <PUBCHEM_FEATURE_SELFOVERLAP>
61.307

> <PUBCHEM_SHAPE_FINGERPRINT>
10050765 1 18411136956928388282
1100329 8 18337669694362145138
11370993 144 18334013878223752447
11405975 8 18409165502409175778
11513181 2 18342462581602162550
12107183 9 18265892454283081634
12633257 1 18262228915909379386
12788726 201 18192136312844783043
12925494 130 18410570699787099225
13583140 156 18059008505372165322
13617811 41 17836068349744416531
13785724 45 17765721217768541046
14068700 686 18053943137012972336
14117953 113 18053382102853063038
14341114 176 18335989666238470273
14466204 15 17906170646877468873
14790565 3 18267306435322149641
15250474 111 18339349859814945198
15276724 80 18339922723270057167
15320467 1 18050286165354323201
15361156 5 18041290906499327974
1813 80 16370733595147664846
18681886 176 18194675978034390371
19301679 30 18263932214494249867
21033648 144 18337659884504458317
21033648 29 17772162264025601170
21065198 57 18410012134841585032
21133410 127 17968373541556300188
21133410 171 17331621120535705926
21315764 268 18262236612886886789
21703447 108 17911787278594425481
21859007 373 17315062273894566621
22393880 68 18341902943384205524
23559900 14 18339638945599811594
24771293 8 18269817819302229890
249057 3 18337954463832115586
3178227 256 18121511163561948529
335352 9 18265052440167967126
350125 39 18191026694662820493
3633792 109 18115008746389952935
38695281 34 18053096225903865919
4015057 19 18339630188319925697
4073 2 18113626707159724002
4144715 1 18262530195122898761
5104073 3 18260546740375332104
5265222 85 18338811039040547198
6036956 94 17757555527118550589
6086070 43 17274812584537314192

> <PUBCHEM_SHAPE_MULTIPOLES>
685.72
13.38
5.61
1.04
1.46
2.02
-0.3
-6.84
1.54
1.08
-0.04
0.2
0.4
-0.98

> <PUBCHEM_SHAPE_SELFOVERLAP>
1535.511

> <PUBCHEM_SHAPE_VOLUME>
363.5

> <PUBCHEM_COORDINATE_TYPE>
2
5
10

$$$$
