101019049
  -OEChem-03292013293D

 48 50  0     1  0  0  0  0  0999 V2000
   -3.1809   -0.1857   -1.5102 O   0  0  0  0  0  0  0  0  0  0  0  0
   -1.5792    1.9327   -1.4877 O   0  0  0  0  0  0  0  0  0  0  0  0
   -2.1709   -2.5930   -0.9118 O   0  0  0  0  0  0  0  0  0  0  0  0
   -4.2232    1.7746    0.1258 O   0  0  0  0  0  0  0  0  0  0  0  0
    0.6492    3.0992   -0.9007 O   0  0  0  0  0  0  0  0  0  0  0  0
   -0.2794   -4.1105    0.0179 O   0  0  0  0  0  0  0  0  0  0  0  0
    3.2723    2.7808   -0.2929 O   0  0  0  0  0  0  0  0  0  0  0  0
    4.2850    0.3683    0.3212 O   0  0  0  0  0  0  0  0  0  0  0  0
   -2.1135   -0.2197   -0.5749 C   0  0  2  0  0  0  0  0  0  0  0  0
   -2.6704    0.0405    0.8264 C   0  0  0  0  0  0  0  0  0  0  0  0
   -1.1724    0.9101   -0.9441 C   0  0  0  0  0  0  0  0  0  0  0  0
   -1.5010   -1.6056   -0.6241 C   0  0  0  0  0  0  0  0  0  0  0  0
    0.7446   -0.5571   -0.2925 C   0  0  0  0  0  0  0  0  0  0  0  0
    0.2583    0.7295   -0.6073 C   0  0  0  0  0  0  0  0  0  0  0  0
   -0.0611   -1.7155   -0.2964 C   0  0  0  0  0  0  0  0  0  0  0  0
   -3.7179   -1.0220    1.1887 C   0  0  0  0  0  0  0  0  0  0  0  0
   -1.5223   -0.0398    1.8490 C   0  0  0  0  0  0  0  0  0  0  0  0
   -3.2907    1.4518    0.8655 C   0  0  0  0  0  0  0  0  0  0  0  0
    2.1191   -0.6966    0.0228 C   0  0  0  0  0  0  0  0  0  0  0  0
    1.1027    1.8447   -0.6139 C   0  0  0  0  0  0  0  0  0  0  0  0
    0.4731   -2.9742   -0.0010 C   0  0  0  0  0  0  0  0  0  0  0  0
    2.6389   -1.9650    0.3265 C   0  0  0  0  0  0  0  0  0  0  0  0
    2.9522    0.4334    0.0214 C   0  0  0  0  0  0  0  0  0  0  0  0
    2.4478    1.6932   -0.2958 C   0  0  0  0  0  0  0  0  0  0  0  0
    1.8222   -3.0942    0.3132 C   0  0  0  0  0  0  0  0  0  0  0  0
   -2.7479    2.4485    1.8622 C   0  0  0  0  0  0  0  0  0  0  0  0
    4.0725   -2.2238    0.6785 C   0  0  0  0  0  0  0  0  0  0  0  0
    3.3930    3.4958    0.9341 C   0  0  0  0  0  0  0  0  0  0  0  0
   -3.2846   -2.0169    1.3326 H   0  0  0  0  0  0  0  0  0  0  0  0
   -0.7334    0.7041    1.7333 H   0  0  0  0  0  0  0  0  0  0  0  0
   -1.9216    0.1215    2.8601 H   0  0  0  0  0  0  0  0  0  0  0  0
   -4.2142   -0.7551    2.1301 H   0  0  0  0  0  0  0  0  0  0  0  0
   -4.5103   -1.0944    0.4359 H   0  0  0  0  0  0  0  0  0  0  0  0
   -1.0763   -1.0350    1.9204 H   0  0  0  0  0  0  0  0  0  0  0  0
   -3.6147    0.6825   -1.4714 H   0  0  0  0  0  0  0  0  0  0  0  0
    2.2228   -4.0779    0.5478 H   0  0  0  0  0  0  0  0  0  0  0  0
   -1.6991    2.6728    1.6587 H   0  0  0  0  0  0  0  0  0  0  0  0
   -3.3052    3.3858    1.7590 H   0  0  0  0  0  0  0  0  0  0  0  0
   -2.8942    2.0942    2.8844 H   0  0  0  0  0  0  0  0  0  0  0  0
    4.7351   -1.9640   -0.1535 H   0  0  0  0  0  0  0  0  0  0  0  0
    4.3562   -1.6895    1.5910 H   0  0  0  0  0  0  0  0  0  0  0  0
    4.2579   -3.2847    0.8865 H   0  0  0  0  0  0  0  0  0  0  0  0
   -0.3195    3.1110   -0.9383 H   0  0  0  0  0  0  0  0  0  0  0  0
   -1.2196   -3.8967   -0.0839 H   0  0  0  0  0  0  0  0  0  0  0  0
    4.6891    1.2422    0.1862 H   0  0  0  0  0  0  0  0  0  0  0  0
    4.1212    4.2989    0.7918 H   0  0  0  0  0  0  0  0  0  0  0  0
    3.7484    2.8407    1.7358 H   0  0  0  0  0  0  0  0  0  0  0  0
    2.4332    3.9411    1.2144 H   0  0  0  0  0  0  0  0  0  0  0  0
  1  9  1  0  0  0  0
  1 35  1  0  0  0  0
  2 11  2  0  0  0  0
  3 12  2  0  0  0  0
  4 18  2  0  0  0  0
  5 20  1  0  0  0  0
  5 43  1  0  0  0  0
  6 21  1  0  0  0  0
  6 44  1  0  0  0  0
  7 24  1  0  0  0  0
  7 28  1  0  0  0  0
  8 23  1  0  0  0  0
  8 45  1  0  0  0  0
  9 10  1  0  0  0  0
  9 11  1  0  0  0  0
  9 12  1  0  0  0  0
 10 16  1  0  0  0  0
 10 17  1  0  0  0  0
 10 18  1  0  0  0  0
 11 14  1  0  0  0  0
 12 15  1  0  0  0  0
 13 14  1  0  0  0  0
 13 15  1  0  0  0  0
 13 19  2  0  0  0  0
 14 20  2  0  0  0  0
 15 21  2  0  0  0  0
 16 29  1  0  0  0  0
 16 32  1  0  0  0  0
 16 33  1  0  0  0  0
 17 30  1  0  0  0  0
 17 31  1  0  0  0  0
 17 34  1  0  0  0  0
 18 26  1  0  0  0  0
 19 22  1  0  0  0  0
 19 23  1  0  0  0  0
 20 24  1  0  0  0  0
 21 25  1  0  0  0  0
 22 25  2  0  0  0  0
 22 27  1  0  0  0  0
 23 24  2  0  0  0  0
 25 36  1  0  0  0  0
 26 37  1  0  0  0  0
 26 38  1  0  0  0  0
 26 39  1  0  0  0  0
 27 40  1  0  0  0  0
 27 41  1  0  0  0  0
 27 42  1  0  0  0  0
 28 46  1  0  0  0  0
 28 47  1  0  0  0  0
 28 48  1  0  0  0  0
M  END
> <PUBCHEM_COMPOUND_CID>
101019049

> <PUBCHEM_CONFORMER_RMSD>
0.8

> <PUBCHEM_CONFORMER_DIVERSEORDER>
2
3
7
1
5
6
4

> <PUBCHEM_MMFF94_PARTIAL_CHARGES>
29
1 -0.68
10 0.06
11 0.42
12 0.42
14 0.09
15 0.09
18 0.45
2 -0.57
20 0.08
21 0.08
22 -0.14
23 0.08
24 0.08
25 -0.15
26 0.06
27 0.14
28 0.28
3 -0.57
35 0.4
36 0.15
4 -0.57
43 0.45
44 0.45
45 0.45
5 -0.53
6 -0.53
7 -0.36
8 -0.53
9 0.4

> <PUBCHEM_EFFECTIVE_ROTOR_COUNT>
3.2

> <PUBCHEM_PHARMACOPHORE_FEATURES>
13
1 1 acceptor
1 1 donor
1 2 acceptor
1 3 acceptor
1 4 acceptor
1 5 donor
1 6 donor
1 7 acceptor
1 8 donor
3 10 16 17 hydrophobe
6 13 14 19 20 23 24 rings
6 13 15 19 21 22 25 rings
6 9 11 12 13 14 15 rings

> <PUBCHEM_HEAVY_ATOM_COUNT>
28

> <PUBCHEM_ATOM_DEF_STEREO_COUNT>
1

> <PUBCHEM_ATOM_UDEF_STEREO_COUNT>
0

> <PUBCHEM_BOND_DEF_STEREO_COUNT>
0

> <PUBCHEM_BOND_UDEF_STEREO_COUNT>
0

> <PUBCHEM_ISOTOPIC_ATOM_COUNT>
0

> <PUBCHEM_COMPONENT_COUNT>
1

> <PUBCHEM_CACTVS_TAUTO_COUNT>
184

> <PUBCHEM_CONFORMER_ID>
06056DA900000002

> <PUBCHEM_MMFF94_ENERGY>
117.1241

> <PUBCHEM_FEATURE_SELFOVERLAP>
66.065

> <PUBCHEM_SHAPE_FINGERPRINT>
10411042 1 17329706523130739191
10863032 1 18409737248692892113
10967382 1 18335974346422188198
1100329 8 18411698769005223810
11370993 70 18340770428716232233
11578080 2 17196521747433811169
11582403 64 16522099040206532589
11640471 11 17845667940842344209
12553582 1 18049156670924201510
12633257 1 17972049041201242051
12788726 201 16967466361487177452
13140716 1 18408884018758153770
13224815 77 17968382337468550684
14081887 123 17550377879722701384
14178342 30 18050282875926514552
14223421 5 18335150794980185251
14787075 74 17192902485603403412
14790565 3 18337126587748877884
14955137 171 18195260922800592730
15309172 13 18335984271774929068
15420108 30 17554324718549778419
16945 1 18120366566923935718
19591789 44 18335990830627918006
20510252 161 17909548698410521536
20739085 24 18189911824532596572
23184049 59 18337394833471494290
2334 1 18408316705334374166
23559900 14 18338517409500898657
2748010 2 18261661581010438460
283562 15 17617654805909096546
350125 39 18410859901161555010
352729 6 17398109838775623062
392239 28 17408249521615669760
469060 322 17396710151440788690
474 4 18411700954600109235
57527585 103 16954785599389664034
7097593 13 18339649914655946704
81228 2 17398678290603203794
9981440 41 18051681441726526000

> <PUBCHEM_SHAPE_MULTIPOLES>
529.27
6.65
4.36
1.3
0.26
0.39
-0.22
-2.02
-1.91
2.76
-0.26
-1.06
-0.47
-0.66

> <PUBCHEM_SHAPE_SELFOVERLAP>
1186.49

> <PUBCHEM_SHAPE_VOLUME>
278.3

> <PUBCHEM_COORDINATE_TYPE>
2
5
10

$$$$
