101024952
  -OEChem-03292013293D

 60 63  0     1  0  0  0  0  0999 V2000
   -5.8560    1.5666   -2.2447 Cl  0  0  0  0  0  0  0  0  0  0  0  0
    1.5848   -0.1590    2.3763 O   0  0  0  0  0  0  0  0  0  0  0  0
   -1.0663    0.8748    0.2978 O   0  0  0  0  0  0  0  0  0  0  0  0
    5.5389    1.0209    0.5969 O   0  0  0  0  0  0  0  0  0  0  0  0
    1.0523   -2.9763    1.2675 O   0  0  0  0  0  0  0  0  0  0  0  0
   -1.9773    0.6740    2.4023 O   0  0  0  0  0  0  0  0  0  0  0  0
   -3.1847   -1.9732    1.6227 O   0  0  0  0  0  0  0  0  0  0  0  0
   -6.6922   -1.1884   -1.4792 O   0  0  0  0  0  0  0  0  0  0  0  0
    2.3242    1.4213    0.5083 C   0  0  2  0  0  0  0  0  0  0  0  0
    3.3713    1.0072   -0.5416 C   0  0  2  0  0  0  0  0  0  0  0  0
    1.3419    0.2745    1.0121 C   0  0  2  0  0  0  0  0  0  0  0  0
    2.7836    0.0855   -1.6164 C   0  0  1  0  0  0  0  0  0  0  0  0
    1.0765    2.1580   -0.0714 C   0  0  0  0  0  0  0  0  0  0  0  0
    0.1765    1.3284    0.8664 C   0  0  1  0  0  0  0  0  0  0  0  0
    4.5292    0.1785    0.0567 C   0  0  1  0  0  0  0  0  0  0  0  0
    5.0604   -0.7227   -1.0947 C   0  0  0  0  0  0  0  0  0  0  0  0
    4.0375   -0.5402   -2.2402 C   0  0  0  0  0  0  0  0  0  0  0  0
    1.1920   -0.9103    0.0854 C   0  0  0  0  0  0  0  0  0  0  0  0
    2.9526    2.2904    1.6155 C   0  0  0  0  0  0  0  0  0  0  0  0
    1.8339   -0.9546   -1.0930 C   0  0  0  0  0  0  0  0  0  0  0  0
    6.4668   -0.3494   -1.5902 C   0  0  0  0  0  0  0  0  0  0  0  0
    5.0960   -2.1904   -0.6314 C   0  0  0  0  0  0  0  0  0  0  0  0
    0.2976   -2.0329    0.5325 C   0  0  0  0  0  0  0  0  0  0  0  0
   -2.0523    0.5849    1.1866 C   0  0  0  0  0  0  0  0  0  0  0  0
   -3.2751    0.1337    0.4758 C   0  0  0  0  0  0  0  0  0  0  0  0
   -3.9099    0.9713   -0.4414 C   0  0  0  0  0  0  0  0  0  0  0  0
   -3.7885   -1.1380    0.7306 C   0  0  0  0  0  0  0  0  0  0  0  0
   -5.0581    0.5372   -1.1037 C   0  0  0  0  0  0  0  0  0  0  0  0
   -4.9368   -1.5720    0.0684 C   0  0  0  0  0  0  0  0  0  0  0  0
   -3.3468    2.3344   -0.7049 C   0  0  0  0  0  0  0  0  0  0  0  0
   -5.5717   -0.7344   -0.8488 C   0  0  0  0  0  0  0  0  0  0  0  0
    3.7836    1.9095   -1.0150 H   0  0  0  0  0  0  0  0  0  0  0  0
    2.2512    0.6603   -2.3834 H   0  0  0  0  0  0  0  0  0  0  0  0
    0.8668    1.9881   -1.1330 H   0  0  0  0  0  0  0  0  0  0  0  0
    1.0380    3.2402    0.0938 H   0  0  0  0  0  0  0  0  0  0  0  0
    0.0063    1.8893    1.7974 H   0  0  0  0  0  0  0  0  0  0  0  0
    4.1591   -0.4367    0.8847 H   0  0  0  0  0  0  0  0  0  0  0  0
    3.8285   -1.4748   -2.7737 H   0  0  0  0  0  0  0  0  0  0  0  0
    4.4311    0.1631   -2.9867 H   0  0  0  0  0  0  0  0  0  0  0  0
    2.1958    2.6968    2.2956 H   0  0  0  0  0  0  0  0  0  0  0  0
    3.4959    3.1384    1.1846 H   0  0  0  0  0  0  0  0  0  0  0  0
    3.6488    1.7114    2.2299 H   0  0  0  0  0  0  0  0  0  0  0  0
    1.6617   -1.8116   -1.7418 H   0  0  0  0  0  0  0  0  0  0  0  0
    2.4415   -0.6179    2.3515 H   0  0  0  0  0  0  0  0  0  0  0  0
    5.7922   -2.3186    0.2053 H   0  0  0  0  0  0  0  0  0  0  0  0
    5.4215   -2.8525   -1.4417 H   0  0  0  0  0  0  0  0  0  0  0  0
    4.1126   -2.5375   -0.2982 H   0  0  0  0  0  0  0  0  0  0  0  0
    7.2223   -0.5084   -0.8130 H   0  0  0  0  0  0  0  0  0  0  0  0
    6.5144    0.7017   -1.8962 H   0  0  0  0  0  0  0  0  0  0  0  0
    6.7515   -0.9585   -2.4558 H   0  0  0  0  0  0  0  0  0  0  0  0
   -0.1608   -2.5404   -0.3233 H   0  0  0  0  0  0  0  0  0  0  0  0
   -0.5059   -1.6680    1.1739 H   0  0  0  0  0  0  0  0  0  0  0  0
    6.1919    0.4485    1.0343 H   0  0  0  0  0  0  0  0  0  0  0  0
    0.4430   -3.6841    1.5384 H   0  0  0  0  0  0  0  0  0  0  0  0
   -5.3364   -2.5636    0.2676 H   0  0  0  0  0  0  0  0  0  0  0  0
   -2.6508    2.2994   -1.5492 H   0  0  0  0  0  0  0  0  0  0  0  0
   -4.1251    3.0721   -0.9232 H   0  0  0  0  0  0  0  0  0  0  0  0
   -2.8288    2.7506    0.1653 H   0  0  0  0  0  0  0  0  0  0  0  0
   -3.6806   -2.8088    1.6636 H   0  0  0  0  0  0  0  0  0  0  0  0
   -6.8906   -2.0893   -1.1713 H   0  0  0  0  0  0  0  0  0  0  0  0
  1 28  1  0  0  0  0
  2 11  1  0  0  0  0
  2 44  1  0  0  0  0
  3 14  1  0  0  0  0
  3 24  1  0  0  0  0
  4 15  1  0  0  0  0
  4 53  1  0  0  0  0
  5 23  1  0  0  0  0
  5 54  1  0  0  0  0
  6 24  2  0  0  0  0
  7 27  1  0  0  0  0
  7 59  1  0  0  0  0
  8 31  1  0  0  0  0
  8 60  1  0  0  0  0
  9 10  1  0  0  0  0
  9 11  1  0  0  0  0
  9 13  1  0  0  0  0
  9 19  1  0  0  0  0
 10 12  1  0  0  0  0
 10 15  1  0  0  0  0
 10 32  1  0  0  0  0
 11 14  1  0  0  0  0
 11 18  1  0  0  0  0
 12 17  1  0  0  0  0
 12 20  1  0  0  0  0
 12 33  1  0  0  0  0
 13 14  1  0  0  0  0
 13 34  1  0  0  0  0
 13 35  1  0  0  0  0
 14 36  1  0  0  0  0
 15 16  1  0  0  0  0
 15 37  1  0  0  0  0
 16 17  1  0  0  0  0
 16 21  1  0  0  0  0
 16 22  1  0  0  0  0
 17 38  1  0  0  0  0
 17 39  1  0  0  0  0
 18 20  2  0  0  0  0
 18 23  1  0  0  0  0
 19 40  1  0  0  0  0
 19 41  1  0  0  0  0
 19 42  1  0  0  0  0
 20 43  1  0  0  0  0
 21 48  1  0  0  0  0
 21 49  1  0  0  0  0
 21 50  1  0  0  0  0
 22 45  1  0  0  0  0
 22 46  1  0  0  0  0
 22 47  1  0  0  0  0
 23 51  1  0  0  0  0
 23 52  1  0  0  0  0
 24 25  1  0  0  0  0
 25 26  2  0  0  0  0
 25 27  1  0  0  0  0
 26 28  1  0  0  0  0
 26 30  1  0  0  0  0
 27 29  2  0  0  0  0
 28 31  2  0  0  0  0
 29 31  1  0  0  0  0
 29 55  1  0  0  0  0
 30 56  1  0  0  0  0
 30 57  1  0  0  0  0
 30 58  1  0  0  0  0
M  END
> <PUBCHEM_COMPOUND_CID>
101024952

> <PUBCHEM_CONFORMER_RMSD>
0.8

> <PUBCHEM_CONFORMER_DIVERSEORDER>
1
37
46
52
47
51
48
14
15
31
33
44
13
23
2
41
45
50
38
42
6
16
34
11
30
26
49
35
25
27
12
18
40
21
43
24
10
8
32
17
19
39
7
29
28
36
9
20
3
22
5
4

> <PUBCHEM_MMFF94_PARTIAL_CHARGES>
30
1 -0.18
11 0.37
12 0.14
14 0.26
15 0.28
18 -0.25
2 -0.66
20 -0.29
23 0.42
24 0.63
25 0.09
26 -0.14
27 0.08
28 0.18
29 -0.15
3 -0.41
30 0.14
31 0.08
4 -0.68
43 0.15
44 0.4
5 -0.68
53 0.4
54 0.4
55 0.15
59 0.45
6 -0.57
60 0.45
7 -0.53
8 -0.53

> <PUBCHEM_EFFECTIVE_ROTOR_COUNT>
5

> <PUBCHEM_PHARMACOPHORE_FEATURES>
14
1 2 acceptor
1 2 donor
1 4 acceptor
1 4 donor
1 5 acceptor
1 5 donor
1 6 acceptor
1 7 donor
1 8 donor
3 16 21 22 hydrophobe
4 9 11 13 14 rings
5 10 12 15 16 17 rings
6 25 26 27 28 29 31 rings
6 9 10 11 12 18 20 rings

> <PUBCHEM_HEAVY_ATOM_COUNT>
31

> <PUBCHEM_ATOM_DEF_STEREO_COUNT>
5

> <PUBCHEM_ATOM_UDEF_STEREO_COUNT>
1

> <PUBCHEM_BOND_DEF_STEREO_COUNT>
0

> <PUBCHEM_BOND_UDEF_STEREO_COUNT>
0

> <PUBCHEM_ISOTOPIC_ATOM_COUNT>
0

> <PUBCHEM_COMPONENT_COUNT>
1

> <PUBCHEM_CACTVS_TAUTO_COUNT>
14

> <PUBCHEM_CONFORMER_ID>
060584B800000001

> <PUBCHEM_MMFF94_ENERGY>
99.0211

> <PUBCHEM_FEATURE_SELFOVERLAP>
71.819

> <PUBCHEM_SHAPE_FINGERPRINT>
10670039 82 17603585205795551605
10930396 42 18265029446211167272
11089746 13 15647054897558639404
12107698 1 18060703883841194829
12166972 35 18202847672895621052
12236239 1 15841557378914348745
12596602 18 13398628333892048374
12633257 1 10879988086738562079
12788726 201 17771910420503545409
13224815 77 18060136548768349441
13782708 43 18272087210357928055
13811026 1 18411696595915185380
13944108 23 16025336001786288213
14849402 71 13254213035498929818
15183329 4 17095521785994854375
15188451 53 13470393479971207533
15238133 3 16805592677284800996
15324884 4 17753617046661711297
15788980 27 18411989048205851420
16110190 28 10303805493328442167
16114785 44 16046156981403857448
17349148 13 17275118206199912266
17857418 61 16200431381862347957
18608769 82 17895206528112050347
19377110 9 15123789604317667552
200 152 17561365089060543361
20028762 73 17131837560150117230
20197701 30 18334577949517643986
21033650 10 17822574910956857989
21792934 111 10879985896869614077
221357 26 18342175574901895381
22393880 68 18409442601072615999
23522609 53 15409790239470616168
23559900 14 18411129256284102697
23569914 152 17337017201823753301
2838139 119 15285360634590241708
3737641 26 15194742090253538796
404807 78 17459758223417269731
4058900 60 17458623364034164827
439807 62 18060135492586670999
46194498 28 18338797939416531877
508706 21 18260834799837574029
57724786 102 12829479333928730631
58260988 393 13326585025400831930
59755656 215 18333446538798086167
6608658 132 16588297260056356181
6669772 16 18200583822125987394
7970288 3 16773793723515729343

> <PUBCHEM_SHAPE_MULTIPOLES>
598.75
14.79
2.39
2.02
6.34
0.25
-0.01
2.82
-8.86
0
0.54
0.35
-0.07
1.86

> <PUBCHEM_SHAPE_SELFOVERLAP>
1288.537

> <PUBCHEM_SHAPE_VOLUME>
330.4

> <PUBCHEM_COORDINATE_TYPE>
2
5
10

$$$$
