101040928
  -OEChem-03292013293D

 57 58  0     1  0  0  0  0  0999 V2000
   -5.4427   -2.2712    0.2709 S   0  0  0  0  0  0  0  0  0  0  0  0
   -3.2983    2.4591   -0.7436 S   0  0  0  0  0  0  0  0  0  0  0  0
    2.8513   -0.0282    1.8889 O   0  0  0  0  0  0  0  0  0  0  0  0
    5.1968   -2.1352    0.4329 O   0  0  0  0  0  0  0  0  0  0  0  0
    7.5355    1.2949   -0.5302 O   0  0  0  0  0  0  0  0  0  0  0  0
    7.6816   -0.8494    0.3136 O   0  0  0  0  0  0  0  0  0  0  0  0
   -5.4478    0.2289   -0.3866 N   0  0  0  0  0  0  0  0  0  0  0  0
   -1.7765    0.4836   -0.0626 N   0  0  0  0  0  0  0  0  0  0  0  0
    3.2673   -0.8611   -0.3414 C   0  0  1  0  0  0  0  0  0  0  0  0
    2.6122    0.2569    0.5070 C   0  0  1  0  0  0  0  0  0  0  0  0
   -7.6934   -0.8062   -0.3539 C   0  0  2  0  0  0  0  0  0  0  0  0
   -8.4458    0.1859    0.5832 C   0  0  0  0  0  0  0  0  0  0  0  0
    3.0053   -0.6865   -1.8432 C   0  0  0  0  0  0  0  0  0  0  0  0
    4.7677   -0.9313   -0.0911 C   0  0  0  0  0  0  0  0  0  0  0  0
    1.1198    0.3366    0.3136 C   0  0  0  0  0  0  0  0  0  0  0  0
   -6.2229   -0.8154   -0.1950 C   0  0  0  0  0  0  0  0  0  0  0  0
   -8.1198   -0.4947   -1.8091 C   0  0  0  0  0  0  0  0  0  0  0  0
   -8.2540   -0.1458    2.0582 C   0  0  0  0  0  0  0  0  0  0  0  0
    0.4872    1.4548   -0.0756 C   0  0  0  0  0  0  0  0  0  0  0  0
   -4.1374   -0.1384   -0.1502 C   0  0  0  0  0  0  0  0  0  0  0  0
    5.5802    0.1049   -0.3670 C   0  0  0  0  0  0  0  0  0  0  0  0
   -0.9668    1.5841   -0.2656 C   0  0  0  0  0  0  0  0  0  0  0  0
   -3.0253    0.8279   -0.2859 C   0  0  0  0  0  0  0  0  0  0  0  0
   -3.9366   -1.4526    0.2167 C   0  0  0  0  0  0  0  0  0  0  0  0
    2.7454    1.1440    2.6791 C   0  0  0  0  0  0  0  0  0  0  0  0
   -1.6106    2.7451   -0.6393 C   0  0  0  0  0  0  0  0  0  0  0  0
    7.0445    0.0870   -0.1409 C   0  0  0  0  0  0  0  0  0  0  0  0
    5.5335   -3.0391   -0.6008 C   0  0  0  0  0  0  0  0  0  0  0  0
    8.9495    1.4611   -0.3817 C   0  0  0  0  0  0  0  0  0  0  0  0
    2.8325   -1.8231   -0.0339 H   0  0  0  0  0  0  0  0  0  0  0  0
    3.0753    1.2182    0.2452 H   0  0  0  0  0  0  0  0  0  0  0  0
   -8.0945   -1.8057   -0.1332 H   0  0  0  0  0  0  0  0  0  0  0  0
   -9.5191    0.1598    0.3583 H   0  0  0  0  0  0  0  0  0  0  0  0
   -8.1017    1.2113    0.3997 H   0  0  0  0  0  0  0  0  0  0  0  0
    3.2888    0.3116   -2.1951 H   0  0  0  0  0  0  0  0  0  0  0  0
    3.5615   -1.4231   -2.4337 H   0  0  0  0  0  0  0  0  0  0  0  0
    1.9439   -0.8284   -2.0730 H   0  0  0  0  0  0  0  0  0  0  0  0
    0.5532   -0.5684    0.5199 H   0  0  0  0  0  0  0  0  0  0  0  0
   -7.8106    0.5141   -2.1049 H   0  0  0  0  0  0  0  0  0  0  0  0
   -7.6585   -1.2030   -2.5063 H   0  0  0  0  0  0  0  0  0  0  0  0
   -9.2064   -0.5680   -1.9233 H   0  0  0  0  0  0  0  0  0  0  0  0
   -7.2078   -0.0396    2.3606 H   0  0  0  0  0  0  0  0  0  0  0  0
   -8.8493    0.5344    2.6757 H   0  0  0  0  0  0  0  0  0  0  0  0
   -8.5758   -1.1693    2.2752 H   0  0  0  0  0  0  0  0  0  0  0  0
    1.0751    2.3496   -0.2679 H   0  0  0  0  0  0  0  0  0  0  0  0
    5.1722    1.0220   -0.7830 H   0  0  0  0  0  0  0  0  0  0  0  0
   -3.0144   -1.9666    0.4502 H   0  0  0  0  0  0  0  0  0  0  0  0
    2.9848    0.8767    3.7125 H   0  0  0  0  0  0  0  0  0  0  0  0
    1.7302    1.5505    2.6658 H   0  0  0  0  0  0  0  0  0  0  0  0
    3.4634    1.9031    2.3525 H   0  0  0  0  0  0  0  0  0  0  0  0
   -1.1912    3.7191   -0.8504 H   0  0  0  0  0  0  0  0  0  0  0  0
    5.9665   -3.9332   -0.1420 H   0  0  0  0  0  0  0  0  0  0  0  0
    6.2764   -2.6229   -1.2901 H   0  0  0  0  0  0  0  0  0  0  0  0
    4.6418   -3.3483   -1.1566 H   0  0  0  0  0  0  0  0  0  0  0  0
    9.2121    2.4645   -0.7275 H   0  0  0  0  0  0  0  0  0  0  0  0
    9.4832    0.7277   -0.9937 H   0  0  0  0  0  0  0  0  0  0  0  0
    9.2333    1.3666    0.6708 H   0  0  0  0  0  0  0  0  0  0  0  0
  1 16  1  0  0  0  0
  1 24  1  0  0  0  0
  2 23  1  0  0  0  0
  2 26  1  0  0  0  0
  3 10  1  0  0  0  0
  3 25  1  0  0  0  0
  4 14  1  0  0  0  0
  4 28  1  0  0  0  0
  5 27  1  0  0  0  0
  5 29  1  0  0  0  0
  6 27  2  0  0  0  0
  7 16  2  0  0  0  0
  7 20  1  0  0  0  0
  8 22  1  0  0  0  0
  8 23  2  0  0  0  0
  9 10  1  0  0  0  0
  9 13  1  0  0  0  0
  9 14  1  0  0  0  0
  9 30  1  0  0  0  0
 10 15  1  0  0  0  0
 10 31  1  0  0  0  0
 11 12  1  0  0  0  0
 11 16  1  0  0  0  0
 11 17  1  0  0  0  0
 11 32  1  0  0  0  0
 12 18  1  0  0  0  0
 12 33  1  0  0  0  0
 12 34  1  0  0  0  0
 13 35  1  0  0  0  0
 13 36  1  0  0  0  0
 13 37  1  0  0  0  0
 14 21  2  0  0  0  0
 15 19  2  0  0  0  0
 15 38  1  0  0  0  0
 17 39  1  0  0  0  0
 17 40  1  0  0  0  0
 17 41  1  0  0  0  0
 18 42  1  0  0  0  0
 18 43  1  0  0  0  0
 18 44  1  0  0  0  0
 19 22  1  0  0  0  0
 19 45  1  0  0  0  0
 20 23  1  0  0  0  0
 20 24  2  0  0  0  0
 21 27  1  0  0  0  0
 21 46  1  0  0  0  0
 22 26  2  0  0  0  0
 24 47  1  0  0  0  0
 25 48  1  0  0  0  0
 25 49  1  0  0  0  0
 25 50  1  0  0  0  0
 26 51  1  0  0  0  0
 28 52  1  0  0  0  0
 28 53  1  0  0  0  0
 28 54  1  0  0  0  0
 29 55  1  0  0  0  0
 29 56  1  0  0  0  0
 29 57  1  0  0  0  0
M  END
> <PUBCHEM_COMPOUND_CID>
101040928

> <PUBCHEM_CONFORMER_RMSD>
1.2

> <PUBCHEM_CONFORMER_DIVERSEORDER>
1
105
117
177
108
183
311
248
184
297
24
145
174
308
27
170
58
90
143
306
207
242
259
164
211
50
56
284
260
268
122
314
72
101
166
202
269
310
109
230
282
124
293
26
197
138
94
223
264
141
146
193
126
78
157
180
89
102
144
251
209
235
196
237
227
256
98
77
292
147
36
162
104
68
233
309
66
278
210
241
103
76
79
32
159
31
59
119
176
2
16
261
206
263
280
148
231
187
198
238
81
40
3
317
11
286
9
200
169
168
18
133
219
163
97
234
218
279
294
225
185
82
14
232
43
299
125
130
315
221
62
246
153
61
100
34
114
222
252
91
208
262
69
249
295
71
277
190
253
167
149
51
83
150
203
188
12
288
123
160
120
45
217
23
86
312
65
307
137
173
204
135
275
239
47
224
305
46
300
240
60
229
39
116
55
287
132
44
189
205
213
244
302
247
84
37
182
80
128
63
8
216
276
57
136
112
281
257
212
291
316
236
15
106
10
194
254
199
73
25
290
75
95
178
99
19
220
113
134
318
228
214
161
6
304
272
186
13
255
156
154
283
175
115
191
87
121
181
195
88
96
265
152
151
140
266
4
85
139
53
22
142
192
64
110
303
129
28
258
215
289
158
7
52
42
127
243
38
92
67
270
201
274
313
271
285
30
107
267
245
171
21
118
296
273
155
165
33
74
48
172
226
111
49
35
93
29
131
5
20
17
179
54
298
41
250
301
70

> <PUBCHEM_MMFF94_PARTIAL_CHARGES>
30
1 -0.08
10 0.42
11 0.18
14 -0.06
15 -0.29
16 0.2
19 -0.1
2 -0.08
20 0.23
21 -0.14
22 0.18
23 0.38
24 -0.11
25 0.28
26 -0.11
27 0.71
28 0.28
29 0.28
3 -0.56
38 0.15
4 -0.36
45 0.15
46 0.15
47 0.15
5 -0.43
51 0.15
6 -0.57
7 -0.57
8 -0.57
9 0.14

> <PUBCHEM_EFFECTIVE_ROTOR_COUNT>
11

> <PUBCHEM_PHARMACOPHORE_FEATURES>
10
1 13 hydrophobe
1 17 hydrophobe
1 18 hydrophobe
1 3 acceptor
1 4 acceptor
1 6 acceptor
1 7 acceptor
1 8 acceptor
5 1 7 16 20 24 rings
5 2 8 22 23 26 rings

> <PUBCHEM_HEAVY_ATOM_COUNT>
29

> <PUBCHEM_ATOM_DEF_STEREO_COUNT>
0

> <PUBCHEM_ATOM_UDEF_STEREO_COUNT>
3

> <PUBCHEM_BOND_DEF_STEREO_COUNT>
2

> <PUBCHEM_BOND_UDEF_STEREO_COUNT>
0

> <PUBCHEM_ISOTOPIC_ATOM_COUNT>
0

> <PUBCHEM_COMPONENT_COUNT>
1

> <PUBCHEM_CACTVS_TAUTO_COUNT>
2

> <PUBCHEM_CONFORMER_ID>
0605C32000000001

> <PUBCHEM_MMFF94_ENERGY>
51.0988

> <PUBCHEM_FEATURE_SELFOVERLAP>
50.752

> <PUBCHEM_SHAPE_FINGERPRINT>
10299344 5 18131071536659335089
10391435 84 18260544571279989378
10595046 47 18334857170063402324
10883706 142 11602816887841566725
11315181 36 18412829101550275169
12522641 24 17846213419180626664
12643181 29 18187645838848426339
12760667 363 18411418402520342293
12778500 126 10663819681402148796
1361 4 18411136909805437678
13673619 4 18202560678917700881
14150022 121 17418101971168110457
14251764 18 17988925569909329367
14257110 125 9943809980599525101
14461889 52 18409163325720632474
15131766 46 15910765163879285465
15183329 4 18186793687514195743
15352257 5 18342737403473557719
15461852 350 8646762288537706689
18335252 98 18409731751313997222
18608769 82 18411979191172037215
20721686 124 11458415830774382280
21049683 271 18273214231705591328
21150785 3 17967531285593810744
21267235 1 18260550035517476729
22149856 69 17845939520472867794
23559900 14 18408877451964641973
2838139 119 8214142936786655459
3004659 81 17822005437216476941
3178227 256 17346595279752331482
335352 9 18334569162815643519
4017518 198 17561083631528038367
4149490 64 16951422085756047605
4325135 7 18335139813044377588
437795 51 17560515209991431280
439807 62 18410855443375788010
5283156 175 17967533467236574804
9663363 56 18187363242916548973
9962374 69 18339072809160211381

> <PUBCHEM_SHAPE_MULTIPOLES>
571.07
28.63
2.41
1.48
0.58
0.19
0.73
6.68
-0.61
-1.1
-0.43
0.79
-0.2
0.62

> <PUBCHEM_SHAPE_SELFOVERLAP>
1143.171

> <PUBCHEM_SHAPE_VOLUME>
340.5

> <PUBCHEM_COORDINATE_TYPE>
2
5
10

$$$$
