101024951
  -OEChem-03292013293D

 58 61  0     1  0  0  0  0  0999 V2000
    5.8047    1.2056    2.4892 Cl  0  0  0  0  0  0  0  0  0  0  0  0
   -1.6062    0.1509   -2.3566 O   0  0  0  0  0  0  0  0  0  0  0  0
    1.0225    0.8832   -0.1388 O   0  0  0  0  0  0  0  0  0  0  0  0
   -5.5682    1.0445   -0.4906 O   0  0  0  0  0  0  0  0  0  0  0  0
    0.3389   -1.8230   -1.7131 O   0  0  0  0  0  0  0  0  0  0  0  0
    1.9341    1.0421   -2.2465 O   0  0  0  0  0  0  0  0  0  0  0  0
    3.1740   -1.6824   -1.9111 O   0  0  0  0  0  0  0  0  0  0  0  0
    6.6737   -1.3759    1.2825 O   0  0  0  0  0  0  0  0  0  0  0  0
   -2.3765    1.4283   -0.2782 C   0  0  2  0  0  0  0  0  0  0  0  0
   -3.4441    0.8387    0.6650 C   0  0  2  0  0  0  0  0  0  0  0  0
   -1.3795    0.3811   -0.9419 C   0  0  2  0  0  0  0  0  0  0  0  0
   -2.8729   -0.2433    1.5905 C   0  0  1  0  0  0  0  0  0  0  0  0
   -1.1379    2.0606    0.4343 C   0  0  0  0  0  0  0  0  0  0  0  0
   -0.2262    1.4090   -0.6268 C   0  0  1  0  0  0  0  0  0  0  0  0
   -4.5754    0.1101   -0.0894 C   0  0  1  0  0  0  0  0  0  0  0  0
   -5.1343   -0.9558    0.8949 C   0  0  0  0  0  0  0  0  0  0  0  0
   -4.1320   -0.9723    2.0725 C   0  0  0  0  0  0  0  0  0  0  0  0
   -1.2302   -0.9149   -0.1995 C   0  0  0  0  0  0  0  0  0  0  0  0
   -2.9887    2.4650   -1.2411 C   0  0  0  0  0  0  0  0  0  0  0  0
   -1.8943   -1.1779    0.9335 C   0  0  0  0  0  0  0  0  0  0  0  0
   -6.5432   -0.6405    1.4242 C   0  0  0  0  0  0  0  0  0  0  0  0
   -5.1779   -2.3297    0.2043 C   0  0  0  0  0  0  0  0  0  0  0  0
   -0.3172   -1.9553   -0.6896 C   0  0  0  0  0  0  0  0  0  0  0  0
    2.0110    0.7554   -1.0620 C   0  0  0  0  0  0  0  0  0  0  0  0
    3.2396    0.2083   -0.4333 C   0  0  0  0  0  0  0  0  0  0  0  0
    3.8647    0.8913    0.6100 C   0  0  0  0  0  0  0  0  0  0  0  0
    3.7683   -0.9980   -0.8930 C   0  0  0  0  0  0  0  0  0  0  0  0
    5.0186    0.3682    1.1934 C   0  0  0  0  0  0  0  0  0  0  0  0
    4.9222   -1.5210   -0.3095 C   0  0  0  0  0  0  0  0  0  0  0  0
    3.2852    2.1856    1.0931 C   0  0  0  0  0  0  0  0  0  0  0  0
    5.5474   -0.8379    0.7337 C   0  0  0  0  0  0  0  0  0  0  0  0
   -3.8752    1.6488    1.2702 H   0  0  0  0  0  0  0  0  0  0  0  0
   -2.3665    0.2048    2.4538 H   0  0  0  0  0  0  0  0  0  0  0  0
   -0.9373    1.7095    1.4525 H   0  0  0  0  0  0  0  0  0  0  0  0
   -1.1056    3.1552    0.4592 H   0  0  0  0  0  0  0  0  0  0  0  0
   -0.0630    2.1168   -1.4529 H   0  0  0  0  0  0  0  0  0  0  0  0
   -4.1895   -0.3617   -0.9996 H   0  0  0  0  0  0  0  0  0  0  0  0
   -3.9259   -1.9848    2.4387 H   0  0  0  0  0  0  0  0  0  0  0  0
   -4.5420   -0.4121    2.9239 H   0  0  0  0  0  0  0  0  0  0  0  0
   -3.6666    1.9917   -1.9579 H   0  0  0  0  0  0  0  0  0  0  0  0
   -2.2223    2.9826   -1.8283 H   0  0  0  0  0  0  0  0  0  0  0  0
   -3.5482    3.2274   -0.6882 H   0  0  0  0  0  0  0  0  0  0  0  0
   -1.7183   -2.1164    1.4558 H   0  0  0  0  0  0  0  0  0  0  0  0
   -5.8578   -2.3135   -0.6549 H   0  0  0  0  0  0  0  0  0  0  0  0
   -5.5274   -3.1072    0.8929 H   0  0  0  0  0  0  0  0  0  0  0  0
   -4.1909   -2.6325   -0.1606 H   0  0  0  0  0  0  0  0  0  0  0  0
   -7.2881   -0.6616    0.6212 H   0  0  0  0  0  0  0  0  0  0  0  0
   -6.5807    0.3490    1.8934 H   0  0  0  0  0  0  0  0  0  0  0  0
   -6.8514   -1.3749    2.1773 H   0  0  0  0  0  0  0  0  0  0  0  0
   -2.4584   -0.3138   -2.4093 H   0  0  0  0  0  0  0  0  0  0  0  0
   -6.2161    0.5646   -1.0341 H   0  0  0  0  0  0  0  0  0  0  0  0
   -0.2493   -2.8751   -0.0850 H   0  0  0  0  0  0  0  0  0  0  0  0
    5.3337   -2.4614   -0.6685 H   0  0  0  0  0  0  0  0  0  0  0  0
    2.5901    2.0038    1.9191 H   0  0  0  0  0  0  0  0  0  0  0  0
    2.7618    2.7330    0.3024 H   0  0  0  0  0  0  0  0  0  0  0  0
    4.0546    2.8867    1.4311 H   0  0  0  0  0  0  0  0  0  0  0  0
    3.6806   -2.4933   -2.0888 H   0  0  0  0  0  0  0  0  0  0  0  0
    6.8828   -2.2115    0.8309 H   0  0  0  0  0  0  0  0  0  0  0  0
  1 28  1  0  0  0  0
  2 11  1  0  0  0  0
  2 50  1  0  0  0  0
  3 14  1  0  0  0  0
  3 24  1  0  0  0  0
  4 15  1  0  0  0  0
  4 51  1  0  0  0  0
  5 23  2  0  0  0  0
  6 24  2  0  0  0  0
  7 27  1  0  0  0  0
  7 57  1  0  0  0  0
  8 31  1  0  0  0  0
  8 58  1  0  0  0  0
  9 10  1  0  0  0  0
  9 11  1  0  0  0  0
  9 13  1  0  0  0  0
  9 19  1  0  0  0  0
 10 12  1  0  0  0  0
 10 15  1  0  0  0  0
 10 32  1  0  0  0  0
 11 14  1  0  0  0  0
 11 18  1  0  0  0  0
 12 17  1  0  0  0  0
 12 20  1  0  0  0  0
 12 33  1  0  0  0  0
 13 14  1  0  0  0  0
 13 34  1  0  0  0  0
 13 35  1  0  0  0  0
 14 36  1  0  0  0  0
 15 16  1  0  0  0  0
 15 37  1  0  0  0  0
 16 17  1  0  0  0  0
 16 21  1  0  0  0  0
 16 22  1  0  0  0  0
 17 38  1  0  0  0  0
 17 39  1  0  0  0  0
 18 20  2  0  0  0  0
 18 23  1  0  0  0  0
 19 40  1  0  0  0  0
 19 41  1  0  0  0  0
 19 42  1  0  0  0  0
 20 43  1  0  0  0  0
 21 47  1  0  0  0  0
 21 48  1  0  0  0  0
 21 49  1  0  0  0  0
 22 44  1  0  0  0  0
 22 45  1  0  0  0  0
 22 46  1  0  0  0  0
 23 52  1  0  0  0  0
 24 25  1  0  0  0  0
 25 26  2  0  0  0  0
 25 27  1  0  0  0  0
 26 28  1  0  0  0  0
 26 30  1  0  0  0  0
 27 29  2  0  0  0  0
 28 31  2  0  0  0  0
 29 31  1  0  0  0  0
 29 53  1  0  0  0  0
 30 54  1  0  0  0  0
 30 55  1  0  0  0  0
 30 56  1  0  0  0  0
M  END
> <PUBCHEM_COMPOUND_CID>
101024951

> <PUBCHEM_CONFORMER_RMSD>
0.8

> <PUBCHEM_CONFORMER_DIVERSEORDER>
1
43
44
33
32
26
46
17
42
13
20
35
38
41
47
3
16
25
14
36
49
12
48
51
31
22
40
39
34
37
19
50
24
21
10
11
28
15
8
7
29
45
30
27
5
9
23
2
18
6
4

> <PUBCHEM_MMFF94_PARTIAL_CHARGES>
30
1 -0.18
11 0.37
12 0.14
14 0.26
15 0.28
18 -0.1
2 -0.66
20 -0.29
23 0.5
24 0.63
25 0.09
26 -0.14
27 0.08
28 0.18
29 -0.15
3 -0.41
30 0.14
31 0.08
4 -0.68
43 0.15
5 -0.57
50 0.4
51 0.4
52 0.06
53 0.15
57 0.45
58 0.45
6 -0.57
7 -0.53
8 -0.53

> <PUBCHEM_EFFECTIVE_ROTOR_COUNT>
5

> <PUBCHEM_PHARMACOPHORE_FEATURES>
13
1 2 acceptor
1 2 donor
1 4 acceptor
1 4 donor
1 5 acceptor
1 6 acceptor
1 7 donor
1 8 donor
3 16 21 22 hydrophobe
4 9 11 13 14 rings
5 10 12 15 16 17 rings
6 25 26 27 28 29 31 rings
6 9 10 11 12 18 20 rings

> <PUBCHEM_HEAVY_ATOM_COUNT>
31

> <PUBCHEM_ATOM_DEF_STEREO_COUNT>
5

> <PUBCHEM_ATOM_UDEF_STEREO_COUNT>
1

> <PUBCHEM_BOND_DEF_STEREO_COUNT>
0

> <PUBCHEM_BOND_UDEF_STEREO_COUNT>
0

> <PUBCHEM_ISOTOPIC_ATOM_COUNT>
0

> <PUBCHEM_COMPONENT_COUNT>
1

> <PUBCHEM_CACTVS_TAUTO_COUNT>
14

> <PUBCHEM_CONFORMER_ID>
060584B700000001

> <PUBCHEM_MMFF94_ENERGY>
99.0666

> <PUBCHEM_FEATURE_SELFOVERLAP>
66.739

> <PUBCHEM_SHAPE_FINGERPRINT>
10 15 18339352055297179392
10076449 9 17915479224863356486
10319926 262 18187646873085686024
11545043 162 18334009458955995840
12107698 1 18259987085046980504
12236239 1 16153431640219455548
12403259 415 18201725020015514484
12422481 6 18342745121793513559
12596602 18 17967812752196968960
12633257 1 18060411439813344298
12925494 130 17913213061808660153
13583140 156 18271238335620144309
13782708 43 18408321077595309154
13811026 1 18412822487216243081
14790565 3 9942711547051517819
14840074 17 14045748144328939867
14931854 50 11242247399878271282
15183329 4 15140958457000282467
15188451 53 18186515518623118459
15475509 8 11891321042093468399
15484559 13 14946223243709269218
15840311 113 14979136704170330265
17349148 13 17604162492639963407
17857418 61 16515682234712606224
1813 80 17313387876034328693
19377110 9 15841548587364096997
1979834 28 17988932171527154038
21033648 29 18270385123398226664
21623969 137 18130786750785013922
21792934 111 18411989044802590513
22182313 1 18340210669838869215
23522609 53 15865217679490999909
23559900 14 17749675194091113101
24893992 56 17240771723039894171
2838139 119 14548732898704468090
3004659 81 16588027913829528242
3383291 50 17676772062895271219
3472631 163 12247673877272684232
392239 28 18202006546837606155
4340502 62 17274831267544928511
465052 167 17749404696913290539
474 4 16487255474078423628
5104073 3 18129948849409097034
57724786 102 16917068897793436336
7970288 3 16950557758343040946
960060 61 13551473687394637968

> <PUBCHEM_SHAPE_MULTIPOLES>
598.75
14.87
2.27
1.99
4.8
0.17
0.02
-4.08
8.31
-0.32
-0.33
0.97
0.03
1.95

> <PUBCHEM_SHAPE_SELFOVERLAP>
1295.984

> <PUBCHEM_SHAPE_VOLUME>
327.5

> <PUBCHEM_COORDINATE_TYPE>
2
5
10

$$$$
