10105820
  -OEChem-03292013303D

 30 31  0     1  0  0  0  0  0999 V2000
   -1.7357    0.5678   -0.9357 O   0  0  0  0  0  0  0  0  0  0  0  0
   -1.1110   -2.4654    0.8809 O   0  0  0  0  0  0  0  0  0  0  0  0
   -3.3831   -2.0153   -0.5627 O   0  0  0  0  0  0  0  0  0  0  0  0
   -3.3407    2.7195   -0.1320 O   0  0  0  0  0  0  0  0  0  0  0  0
    4.4907   -1.2420   -0.4835 O   0  0  0  0  0  0  0  0  0  0  0  0
    1.6581   -0.5808   -0.3836 N   0  0  0  0  0  0  0  0  0  0  0  0
    0.7390    1.3250    0.2911 N   0  0  0  0  0  0  0  0  0  0  0  0
    5.0182    0.8089    0.3601 N   0  0  0  0  0  0  0  0  0  0  0  0
   -1.5190   -1.1234    0.7060 C   0  0  2  0  0  0  0  0  0  0  0  0
   -2.9887   -0.9938    0.3531 C   0  0  1  0  0  0  0  0  0  0  0  0
   -0.8455   -0.4778   -0.4956 C   0  0  2  0  0  0  0  0  0  0  0  0
   -3.0402    0.3598   -0.3477 C   0  0  1  0  0  0  0  0  0  0  0  0
    0.5039    0.1230   -0.1844 C   0  0  0  0  0  0  0  0  0  0  0  0
   -3.3234    1.5109    0.6071 C   0  0  0  0  0  0  0  0  0  0  0  0
    2.6973    0.2246   -0.0114 C   0  0  0  0  0  0  0  0  0  0  0  0
    2.1051    1.3952    0.4009 C   0  0  0  0  0  0  0  0  0  0  0  0
    4.0751   -0.1362   -0.0627 C   0  0  0  0  0  0  0  0  0  0  0  0
   -1.3093   -0.5668    1.6278 H   0  0  0  0  0  0  0  0  0  0  0  0
   -3.6503   -1.0645    1.2217 H   0  0  0  0  0  0  0  0  0  0  0  0
   -0.7414   -1.1910   -1.3234 H   0  0  0  0  0  0  0  0  0  0  0  0
   -3.7624    0.3710   -1.1718 H   0  0  0  0  0  0  0  0  0  0  0  0
   -2.5420    1.5998    1.3685 H   0  0  0  0  0  0  0  0  0  0  0  0
   -4.2938    1.3840    1.0968 H   0  0  0  0  0  0  0  0  0  0  0  0
   -0.1522   -2.4631    1.0414 H   0  0  0  0  0  0  0  0  0  0  0  0
   -3.2234   -2.8698   -0.1267 H   0  0  0  0  0  0  0  0  0  0  0  0
    1.7303   -1.5252   -0.7390 H   0  0  0  0  0  0  0  0  0  0  0  0
    2.5793    2.2917    0.7742 H   0  0  0  0  0  0  0  0  0  0  0  0
   -3.5259    3.4377    0.4969 H   0  0  0  0  0  0  0  0  0  0  0  0
    4.7634    1.7281    0.7055 H   0  0  0  0  0  0  0  0  0  0  0  0
    6.0097    0.5946    0.3323 H   0  0  0  0  0  0  0  0  0  0  0  0
  1 11  1  0  0  0  0
  1 12  1  0  0  0  0
  2  9  1  0  0  0  0
  2 24  1  0  0  0  0
  3 10  1  0  0  0  0
  3 25  1  0  0  0  0
  4 14  1  0  0  0  0
  4 28  1  0  0  0  0
  5 17  2  0  0  0  0
  6 13  1  0  0  0  0
  6 15  1  0  0  0  0
  6 26  1  0  0  0  0
  7 13  2  0  0  0  0
  7 16  1  0  0  0  0
  8 17  1  0  0  0  0
  8 29  1  0  0  0  0
  8 30  1  0  0  0  0
  9 10  1  0  0  0  0
  9 11  1  0  0  0  0
  9 18  1  0  0  0  0
 10 12  1  0  0  0  0
 10 19  1  0  0  0  0
 11 13  1  0  0  0  0
 11 20  1  0  0  0  0
 12 14  1  0  0  0  0
 12 21  1  0  0  0  0
 14 22  1  0  0  0  0
 14 23  1  0  0  0  0
 15 16  2  0  0  0  0
 15 17  1  0  0  0  0
 16 27  1  0  0  0  0
M  END
> <PUBCHEM_COMPOUND_CID>
10105820

> <PUBCHEM_CONFORMER_RMSD>
0.6

> <PUBCHEM_CONFORMER_DIVERSEORDER>
1
57
55
20
33
27
46
13
10
22
35
53
12
8
48
21
36
15
62
17
3
42
28
59
37
43
6
18
31
11
61
16
19
9
58
4
51
7
24
50
47
52
23
5
44
30
60
56
54
14
26
38
40
45
49
29
25
41
39
2
32
34

> <PUBCHEM_MMFF94_PARTIAL_CHARGES>
24
1 -0.56
10 0.28
11 0.46
12 0.28
13 0.01
14 0.28
15 -0.24
16 0.08
17 0.71
2 -0.68
24 0.4
25 0.4
26 0.27
27 0.15
28 0.4
29 0.37
3 -0.68
30 0.37
4 -0.68
5 -0.57
6 0.03
7 -0.57
8 -0.8
9 0.28

> <PUBCHEM_EFFECTIVE_ROTOR_COUNT>
4

> <PUBCHEM_PHARMACOPHORE_FEATURES>
13
1 1 acceptor
1 2 acceptor
1 2 donor
1 3 acceptor
1 3 donor
1 4 acceptor
1 4 donor
1 5 acceptor
1 6 donor
1 8 donor
3 6 7 13 cation
5 1 9 10 11 12 rings
5 6 7 13 15 16 rings

> <PUBCHEM_HEAVY_ATOM_COUNT>
17

> <PUBCHEM_ATOM_DEF_STEREO_COUNT>
4

> <PUBCHEM_ATOM_UDEF_STEREO_COUNT>
0

> <PUBCHEM_BOND_DEF_STEREO_COUNT>
0

> <PUBCHEM_BOND_UDEF_STEREO_COUNT>
0

> <PUBCHEM_ISOTOPIC_ATOM_COUNT>
0

> <PUBCHEM_COMPONENT_COUNT>
1

> <PUBCHEM_CACTVS_TAUTO_COUNT>
12

> <PUBCHEM_CONFORMER_ID>
009A33DC00000001

> <PUBCHEM_MMFF94_ENERGY>
31.6235

> <PUBCHEM_FEATURE_SELFOVERLAP>
65.99

> <PUBCHEM_SHAPE_FINGERPRINT>
10608611 8 18341328989186852360
124424 183 18202281385863094676
12500047 106 18409726244591027744
13296908 3 18342457058479057534
13675066 3 17988922284422865184
14965852 173 18410857693632527005
15196674 1 18412545401490562542
15375358 24 18343301462034670798
15653759 3 18410856594184261264
16945 1 18191595344296118099
17804303 29 18408891762425731527
18186145 218 18186516584223452716
19422 9 18261397783982084764
1986462 14 18409167718401212950
200 152 17774716562992159759
20281475 54 18334010588758812590
20510252 161 18339080501256844953
20645477 56 18341900662614282769
20645477 70 17417817189055395502
21501502 16 18336554935463474133
21524375 3 18339925897013284685
22485316 2 18412261740370190966
2306618 200 17988651800325442361
23402539 116 18341608270168374559
23559900 14 18267577094969770240
305870 269 18189897500853301889
4214541 1 18411982455542036104
5104073 3 18412260632284304346
573450 72 18261661615370235282
77779 3 18411139147514280844
8809292 202 18410296908369074696
9709674 26 18411705417409265958

> <PUBCHEM_SHAPE_MULTIPOLES>
305.56
8.38
2.11
0.8
7.7
0.14
0.02
0.75
-0.05
-2.18
0.26
-0.25
-0.1
0.33

> <PUBCHEM_SHAPE_SELFOVERLAP>
646.171

> <PUBCHEM_SHAPE_VOLUME>
171.2

> <PUBCHEM_COORDINATE_TYPE>
2
5
10

$$$$
