101011058
  -OEChem-03292013293D

 53 54  0     1  0  0  0  0  0999 V2000
   -3.2467    2.2360   -0.2309 O   0  0  0  0  0  0  0  0  0  0  0  0
   -1.4508    1.6628    1.9130 O   0  0  0  0  0  0  0  0  0  0  0  0
   -5.5479    2.1799    0.0260 O   0  0  0  0  0  0  0  0  0  0  0  0
    2.6363   -2.1604   -1.8143 O   0  0  0  0  0  0  0  0  0  0  0  0
    3.5470   -3.6712   -0.3924 O   0  0  0  0  0  0  0  0  0  0  0  0
    5.0750    1.1722    0.3961 O   0  0  0  0  0  0  0  0  0  0  0  0
   -0.4220    0.0461    0.6183 N   0  0  0  0  0  0  0  0  0  0  0  0
    3.3119   -0.0788   -0.4467 N   0  0  0  0  0  0  0  0  0  0  0  0
    3.7561    3.4812   -0.3352 N   0  0  0  0  0  0  0  0  0  0  0  0
    1.4795   -1.4402    1.4776 C   0  0  2  0  0  0  0  0  0  0  0  0
    0.7145   -0.1411    1.4739 C   0  0  2  0  0  0  0  0  0  0  0  0
    0.6481   -1.0565    2.6690 C   0  0  0  0  0  0  0  0  0  0  0  0
    2.9665   -1.4333    1.5677 C   0  0  0  0  0  0  0  0  0  0  0  0
    3.6525   -1.3227    0.1986 C   0  0  1  0  0  0  0  0  0  0  0  0
   -2.5400    0.9595   -0.1546 C   0  0  2  0  0  0  0  0  0  0  0  0
   -3.8674    0.2469    0.1680 C   0  0  2  0  0  0  0  0  0  0  0  0
   -1.4363    0.9485    0.9058 C   0  0  0  0  0  0  0  0  0  0  0  0
   -4.3532   -0.8034   -0.8322 C   0  0  2  0  0  0  0  0  0  0  0  0
   -4.4558    1.6590   -0.0051 C   0  0  0  0  0  0  0  0  0  0  0  0
    3.2876   -2.5083   -0.6789 C   0  0  0  0  0  0  0  0  0  0  0  0
   -5.7383   -1.3265   -0.4208 C   0  0  0  0  0  0  0  0  0  0  0  0
   -3.3315   -1.9415   -0.8872 C   0  0  0  0  0  0  0  0  0  0  0  0
    4.0609    1.0816   -0.2929 C   0  0  0  0  0  0  0  0  0  0  0  0
   -6.3014   -2.3607   -1.3865 C   0  0  0  0  0  0  0  0  0  0  0  0
    3.4724    2.2517   -1.0710 C   0  0  2  0  0  0  0  0  0  0  0  0
    4.0829    2.3190   -2.4654 C   0  0  0  0  0  0  0  0  0  0  0  0
    1.1004   -2.2654    0.8853 H   0  0  0  0  0  0  0  0  0  0  0  0
    1.2878    0.7730    1.5958 H   0  0  0  0  0  0  0  0  0  0  0  0
   -0.2670   -1.6103    2.8424 H   0  0  0  0  0  0  0  0  0  0  0  0
    1.1522   -0.7381    3.5735 H   0  0  0  0  0  0  0  0  0  0  0  0
    3.2836   -2.3624    2.0577 H   0  0  0  0  0  0  0  0  0  0  0  0
    3.3079   -0.6113    2.2102 H   0  0  0  0  0  0  0  0  0  0  0  0
   -0.4667   -0.5091   -0.2316 H   0  0  0  0  0  0  0  0  0  0  0  0
    4.7408   -1.3491    0.3303 H   0  0  0  0  0  0  0  0  0  0  0  0
   -2.1463    0.7330   -1.1550 H   0  0  0  0  0  0  0  0  0  0  0  0
   -3.9320   -0.0972    1.2086 H   0  0  0  0  0  0  0  0  0  0  0  0
   -4.4217   -0.3584   -1.8335 H   0  0  0  0  0  0  0  0  0  0  0  0
    2.4812   -0.0574   -1.0315 H   0  0  0  0  0  0  0  0  0  0  0  0
   -6.4398   -0.4852   -0.3672 H   0  0  0  0  0  0  0  0  0  0  0  0
   -5.6992   -1.7583    0.5870 H   0  0  0  0  0  0  0  0  0  0  0  0
   -2.3391   -1.5784   -1.1695 H   0  0  0  0  0  0  0  0  0  0  0  0
   -3.6066   -2.6963   -1.6296 H   0  0  0  0  0  0  0  0  0  0  0  0
   -3.2355   -2.4352    0.0862 H   0  0  0  0  0  0  0  0  0  0  0  0
   -5.7462   -3.3019   -1.3420 H   0  0  0  0  0  0  0  0  0  0  0  0
   -7.3412   -2.5849   -1.1262 H   0  0  0  0  0  0  0  0  0  0  0  0
   -6.2841   -1.9906   -2.4163 H   0  0  0  0  0  0  0  0  0  0  0  0
    2.3855    2.1364   -1.1517 H   0  0  0  0  0  0  0  0  0  0  0  0
    2.4077   -2.9426   -2.3604 H   0  0  0  0  0  0  0  0  0  0  0  0
    5.1724    2.4320   -2.4223 H   0  0  0  0  0  0  0  0  0  0  0  0
    3.6740    3.1596   -3.0364 H   0  0  0  0  0  0  0  0  0  0  0  0
    3.8735    1.3998   -3.0237 H   0  0  0  0  0  0  0  0  0  0  0  0
    3.2714    3.4623    0.5614 H   0  0  0  0  0  0  0  0  0  0  0  0
    3.3798    4.2800   -0.8444 H   0  0  0  0  0  0  0  0  0  0  0  0
  1 15  1  0  0  0  0
  1 19  1  0  0  0  0
  2 17  2  0  0  0  0
  3 19  2  0  0  0  0
  4 20  1  0  0  0  0
  4 48  1  0  0  0  0
  5 20  2  0  0  0  0
  6 23  2  0  0  0  0
  7 11  1  0  0  0  0
  7 17  1  0  0  0  0
  7 33  1  0  0  0  0
  8 14  1  0  0  0  0
  8 23  1  0  0  0  0
  8 38  1  0  0  0  0
  9 25  1  0  0  0  0
  9 52  1  0  0  0  0
  9 53  1  0  0  0  0
 10 11  1  0  0  0  0
 10 12  1  0  0  0  0
 10 13  1  0  0  0  0
 10 27  1  0  0  0  0
 11 12  1  0  0  0  0
 11 28  1  0  0  0  0
 12 29  1  0  0  0  0
 12 30  1  0  0  0  0
 13 14  1  0  0  0  0
 13 31  1  0  0  0  0
 13 32  1  0  0  0  0
 14 20  1  0  0  0  0
 14 34  1  0  0  0  0
 15 16  1  0  0  0  0
 15 17  1  0  0  0  0
 15 35  1  0  0  0  0
 16 18  1  0  0  0  0
 16 19  1  0  0  0  0
 16 36  1  0  0  0  0
 18 21  1  0  0  0  0
 18 22  1  0  0  0  0
 18 37  1  0  0  0  0
 21 24  1  0  0  0  0
 21 39  1  0  0  0  0
 21 40  1  0  0  0  0
 22 41  1  0  0  0  0
 22 42  1  0  0  0  0
 22 43  1  0  0  0  0
 23 25  1  0  0  0  0
 24 44  1  0  0  0  0
 24 45  1  0  0  0  0
 24 46  1  0  0  0  0
 25 26  1  0  0  0  0
 25 47  1  0  0  0  0
 26 49  1  0  0  0  0
 26 50  1  0  0  0  0
 26 51  1  0  0  0  0
M  END
> <PUBCHEM_COMPOUND_CID>
101011058

> <PUBCHEM_CONFORMER_RMSD>
1

> <PUBCHEM_CONFORMER_DIVERSEORDER>
3
209
331
237
292
47
97
152
312
243
326
21
1
28
95
206
70
64
327
298
45
82
110
177
328
114
306
147
46
201
200
143
50
297
314
277
16
329
232
335
252
369
62
190
279
140
325
364
231
129
222
104
148
90
121
79
360
66
322
29
27
224
11
8
188
250
9
167
351
51
205
213
42
150
125
316
265
278
223
126
320
256
24
275
4
236
189
198
31
105
284
245
309
244
131
23
34
239
333
174
366
166
138
94
367
92
149
359
98
133
234
261
196
107
192
170
43
135
238
212
108
93
353
354
137
63
185
156
349
146
194
324
229
14
186
168
283
197
78
259
118
295
161
151
304
68
272
264
163
180
5
40
30
56
294
181
12
214
17
100
217
115
132
339
296
220
241
139
248
210
26
288
280
84
230
41
52
336
271
365
20
87
171
32
111
357
80
313
153
253
361
117
340
18
318
33
267
350
103
262
59
226
15
319
73
266
10
116
154
176
285
215
228
85
199
346
102
96
302
254
347
77
91
2
260
255
251
53
71
290
355
141
203
218
301
317
159
204
311
286
299
195
83
39
25
65
128
334
67
57
356
81
240
86
169
155
362
208
124
182
193
74
242
172
89
130
144
291
122
233
175
338
258
246
227
162
308
165
7
99
13
158
263
202
35
37
303
178
247
330
282
219
36
363
211
368
6
127
358
274
119
49
342
55
22
270
225
348
221
101
113
287
54
160
235
249
344
69
61
142
72
310
352
269
315
341
60
257
145
44
289
268
88
323
123
183
19
343
48
307
134
157
332
76
179
345
191
173
273
207
300
58
305
136
337
120
109
321
281
187
184
164
75
112
38
293
276
106
216

> <PUBCHEM_MMFF94_PARTIAL_CHARGES>
30
1 -0.41
10 -0.19
11 0.05
12 -0.2
13 0.09
14 0.36
15 0.31
16 0.05
17 0.58
19 0.67
2 -0.57
20 0.66
23 0.57
25 0.33
27 0.1
28 0.1
29 0.1
3 -0.57
30 0.1
33 0.37
38 0.37
4 -0.65
48 0.5
5 -0.57
52 0.36
53 0.36
6 -0.57
7 -0.58
8 -0.73
9 -0.99

> <PUBCHEM_EFFECTIVE_ROTOR_COUNT>
12.2

> <PUBCHEM_PHARMACOPHORE_FEATURES>
13
1 2 acceptor
1 22 hydrophobe
1 24 hydrophobe
1 3 acceptor
1 4 acceptor
1 5 acceptor
1 6 acceptor
1 7 donor
1 8 donor
1 9 cation
1 9 donor
3 4 5 20 anion
4 1 15 16 19 rings

> <PUBCHEM_HEAVY_ATOM_COUNT>
26

> <PUBCHEM_ATOM_DEF_STEREO_COUNT>
5

> <PUBCHEM_ATOM_UDEF_STEREO_COUNT>
2

> <PUBCHEM_BOND_DEF_STEREO_COUNT>
0

> <PUBCHEM_BOND_UDEF_STEREO_COUNT>
0

> <PUBCHEM_ISOTOPIC_ATOM_COUNT>
0

> <PUBCHEM_COMPONENT_COUNT>
1

> <PUBCHEM_CACTVS_TAUTO_COUNT>
8

> <PUBCHEM_CONFORMER_ID>
06054E7200000003

> <PUBCHEM_MMFF94_ENERGY>
32.1369

> <PUBCHEM_FEATURE_SELFOVERLAP>
66.032

> <PUBCHEM_SHAPE_FINGERPRINT>
10928967 22 17203316836883940551
12467345 10 18410572902856642221
12616971 3 18187923920235964433
12670546 177 18410291410689486643
1361 2 18194122047570851908
13617811 41 18268978960185476701
14251757 5 18200592613771541767
14251758 9 11743851244030283595
14251764 30 15554181349209563661
15799311 1 17917721205822314883
17980427 23 18192684887763671770
21860390 5 18260836964865153516
23559900 14 17986671472098600743
238 59 18268447857351374880
3004659 81 18270397187734345074
3737641 26 11815637263239407708
44317340 157 18186523185709681193
474 4 17749391502963622224
574716 61 18334859398592318217
633830 44 17894918395023147713

> <PUBCHEM_SHAPE_MULTIPOLES>
484.91
13.74
3.69
1.93
13.04
0.11
-0.35
0.45
6.24
-2.81
1.34
-1.23
-0.34
-2.62

> <PUBCHEM_SHAPE_SELFOVERLAP>
975.95

> <PUBCHEM_SHAPE_VOLUME>
282.5

> <PUBCHEM_COORDINATE_TYPE>
2
5
10

$$$$
