10109823
  -OEChem-03292013303D

 43 46  0     1  0  0  0  0  0999 V2000
   -2.0031    2.7127   -0.8344 S   0  0  0  0  0  0  0  0  0  0  0  0
   -0.8180   -3.3678   -0.7452 N   0  0  0  0  0  0  0  0  0  0  0  0
   -0.4111    1.5774    0.8477 N   0  0  0  0  0  0  0  0  0  0  0  0
   -1.7686   -1.3758    0.0507 N   0  0  0  0  0  0  0  0  0  0  0  0
   -3.0432   -2.8940   -1.3197 N   0  0  0  0  0  0  0  0  0  0  0  0
    4.9103   -2.4334   -0.0081 N   0  0  0  0  0  0  0  0  0  0  0  0
   -2.5065    0.2376    3.4982 N   0  0  0  0  0  0  0  0  0  0  0  0
   -2.7149    0.6877    0.8892 C   0  0  1  0  0  0  0  0  0  0  0  0
    1.2738   -2.1310   -0.9485 C   0  0  0  0  0  0  0  0  0  0  0  0
    0.4283   -3.0860   -0.1050 C   0  0  0  0  0  0  0  0  0  0  0  0
   -1.6445    1.5830    0.3988 C   0  0  0  0  0  0  0  0  0  0  0  0
   -2.8561   -0.6132    0.0784 C   0  0  0  0  0  0  0  0  0  0  0  0
   -0.3707    3.2662   -0.7881 C   0  0  0  0  0  0  0  0  0  0  0  0
    0.3319    2.5376    0.1765 C   0  0  0  0  0  0  0  0  0  0  0  0
    2.6017   -1.8428   -0.2945 C   0  0  0  0  0  0  0  0  0  0  0  0
   -1.9316   -2.5032   -0.6676 C   0  0  0  0  0  0  0  0  0  0  0  0
   -4.0489   -0.8585   -0.5206 C   0  0  0  0  0  0  0  0  0  0  0  0
    0.2438    4.2726   -1.5503 C   0  0  0  0  0  0  0  0  0  0  0  0
    1.6977    2.8287    0.3834 C   0  0  0  0  0  0  0  0  0  0  0  0
    2.7330   -0.7809    0.5771 C   0  0  0  0  0  0  0  0  0  0  0  0
   -4.0872   -2.0445   -1.2247 C   0  0  0  0  0  0  0  0  0  0  0  0
    3.6931   -2.6360   -0.5604 C   0  0  0  0  0  0  0  0  0  0  0  0
    1.5964    4.5408   -1.3258 C   0  0  0  0  0  0  0  0  0  0  0  0
    2.3159    3.8293   -0.3719 C   0  0  0  0  0  0  0  0  0  0  0  0
   -2.6084    0.4220    2.3568 C   0  0  0  0  0  0  0  0  0  0  0  0
    3.9698   -0.5404    1.1653 C   0  0  0  0  0  0  0  0  0  0  0  0
    5.0172   -1.3881    0.8426 C   0  0  0  0  0  0  0  0  0  0  0  0
   -3.6665    1.2339    0.7911 H   0  0  0  0  0  0  0  0  0  0  0  0
    0.7430   -1.1857   -1.1204 H   0  0  0  0  0  0  0  0  0  0  0  0
    1.4392   -2.5557   -1.9476 H   0  0  0  0  0  0  0  0  0  0  0  0
    0.2801   -2.6991    0.9114 H   0  0  0  0  0  0  0  0  0  0  0  0
    0.9714   -4.0316    0.0170 H   0  0  0  0  0  0  0  0  0  0  0  0
   -0.9252   -4.2071   -1.3023 H   0  0  0  0  0  0  0  0  0  0  0  0
   -4.9070   -0.2033   -0.4675 H   0  0  0  0  0  0  0  0  0  0  0  0
   -0.3116    4.8322   -2.2967 H   0  0  0  0  0  0  0  0  0  0  0  0
    2.2680    2.2906    1.1344 H   0  0  0  0  0  0  0  0  0  0  0  0
    1.8861   -0.1503    0.8216 H   0  0  0  0  0  0  0  0  0  0  0  0
   -4.9855   -2.3540   -1.7483 H   0  0  0  0  0  0  0  0  0  0  0  0
    3.6359   -3.4821   -1.2372 H   0  0  0  0  0  0  0  0  0  0  0  0
    2.0911    5.3164   -1.9045 H   0  0  0  0  0  0  0  0  0  0  0  0
    3.3665    4.0536   -0.2089 H   0  0  0  0  0  0  0  0  0  0  0  0
    4.1081    0.2816    1.8583 H   0  0  0  0  0  0  0  0  0  0  0  0
    6.0016   -1.2442    1.2756 H   0  0  0  0  0  0  0  0  0  0  0  0
  1 11  1  0  0  0  0
  1 13  1  0  0  0  0
  2 10  1  0  0  0  0
  2 16  1  0  0  0  0
  2 33  1  0  0  0  0
  3 11  2  0  0  0  0
  3 14  1  0  0  0  0
  4 12  2  0  0  0  0
  4 16  1  0  0  0  0
  5 16  2  0  0  0  0
  5 21  1  0  0  0  0
  6 22  1  0  0  0  0
  6 27  2  0  0  0  0
  7 25  3  0  0  0  0
  8 11  1  0  0  0  0
  8 12  1  0  0  0  0
  8 25  1  0  0  0  0
  8 28  1  0  0  0  0
  9 10  1  0  0  0  0
  9 15  1  0  0  0  0
  9 29  1  0  0  0  0
  9 30  1  0  0  0  0
 10 31  1  0  0  0  0
 10 32  1  0  0  0  0
 12 17  1  0  0  0  0
 13 14  1  0  0  0  0
 13 18  2  0  0  0  0
 14 19  2  0  0  0  0
 15 20  1  0  0  0  0
 15 22  2  0  0  0  0
 17 21  2  0  0  0  0
 17 34  1  0  0  0  0
 18 23  1  0  0  0  0
 18 35  1  0  0  0  0
 19 24  1  0  0  0  0
 19 36  1  0  0  0  0
 20 26  2  0  0  0  0
 20 37  1  0  0  0  0
 21 38  1  0  0  0  0
 22 39  1  0  0  0  0
 23 24  2  0  0  0  0
 23 40  1  0  0  0  0
 24 41  1  0  0  0  0
 26 27  1  0  0  0  0
 26 42  1  0  0  0  0
 27 43  1  0  0  0  0
M  END
> <PUBCHEM_COMPOUND_CID>
10109823

> <PUBCHEM_CONFORMER_RMSD>
1.2

> <PUBCHEM_CONFORMER_DIVERSEORDER>
1
299
77
5
235
11
372
57
328
491
178
586
181
89
427
38
500
4
32
39
98
471
119
488
84
569
146
19
218
2
385
6
182
34
348
423
252
41
506
71
180
193
49
489
476
255
388
43
174
591
359
381
24
7
494
58
28
214
93
110
333
76
409
505
514
70
400
448
363
457
567
94
231
468
445
453
416
155
86
79
298
81
253
139
97
26
56
547
274
14
184
215
115
259
282
433
387
311
375
237
50
191
243
85
295
20
406
33
528
176
116
227
13
90
435
133
284
402
78
322
420
533
3
581
68
242
352
247
195
465
169
330
69
40
383
136
10
245
105
226
179
59
421
111
21
132
203
309
232
46
150
449
414
9
36
42
365
134
101
55
350
22

> <PUBCHEM_MMFF94_PARTIAL_CHARGES>
38
1 -0.08
10 0.37
11 0.2
12 0.17
13 0.04
14 0.23
15 -0.14
16 0.72
17 -0.15
18 -0.15
19 -0.15
2 -0.87
20 -0.15
21 0.16
22 0.16
23 -0.15
24 -0.15
25 0.36
26 -0.15
27 0.16
3 -0.57
33 0.4
34 0.15
35 0.15
36 0.15
37 0.15
38 0.15
39 0.15
4 -0.62
40 0.15
41 0.15
42 0.15
43 0.15
5 -0.62
6 -0.62
7 -0.56
8 0.52
9 0.14

> <PUBCHEM_EFFECTIVE_ROTOR_COUNT>
6

> <PUBCHEM_PHARMACOPHORE_FEATURES>
10
1 2 donor
1 3 acceptor
1 4 acceptor
1 6 acceptor
1 7 acceptor
4 2 4 5 16 cation
5 1 3 11 13 14 rings
6 13 14 18 19 23 24 rings
6 4 5 12 16 17 21 rings
6 6 15 20 22 26 27 rings

> <PUBCHEM_HEAVY_ATOM_COUNT>
27

> <PUBCHEM_ATOM_DEF_STEREO_COUNT>
0

> <PUBCHEM_ATOM_UDEF_STEREO_COUNT>
1

> <PUBCHEM_BOND_DEF_STEREO_COUNT>
0

> <PUBCHEM_BOND_UDEF_STEREO_COUNT>
0

> <PUBCHEM_ISOTOPIC_ATOM_COUNT>
0

> <PUBCHEM_COMPONENT_COUNT>
1

> <PUBCHEM_CACTVS_TAUTO_COUNT>
9

> <PUBCHEM_CONFORMER_ID>
009A437F00000001

> <PUBCHEM_MMFF94_ENERGY>
66.3973

> <PUBCHEM_FEATURE_SELFOVERLAP>
50.819

> <PUBCHEM_SHAPE_FINGERPRINT>
10190108 129 16176505253002973983
10483366 6 17977358579142672997
10670039 82 18339935822973181630
11370993 70 16967445994720371060
11513181 2 17703229641306500230
12156800 1 15891561973828868236
12553582 1 18337690636622556892
12788726 201 17681550325306680032
133893 2 18192164895371693385
13402501 40 17979632330091004616
138480 1 14737039232568498558
13941206 138 17252872062260475124
14028597 1 17265565868305893411
14117953 113 18268990886697754261
14142880 1 17986396590424086771
14468879 13 17614006183545357105
15840311 113 16695846905045930737
15961568 22 18411415142576971774
16120349 306 17836367421091505984
167882 2 18192144017909954325
17138139 8 16834593666482476005
17627616 140 18118128198090222372
20642791 178 18342462586497924747
20764821 26 18337387128600982572
21796203 349 17903964094786860168
22113638 7 18339079281153771573
3187 122 17827664472803162201
3380486 145 18194691366939251785
4280585 95 18263904627722952826
4409770 3 17904471905828516644
445580 44 18264191544297095074
469060 322 18410579440119243803
5282940 2 18049445039148900684
9981440 41 17256516427525075674

> <PUBCHEM_SHAPE_MULTIPOLES>
529.61
7.65
6.5
1.76
5.83
5.93
1.55
-7.14
1.02
1.98
-3.81
-1.58
0.29
-1.15

> <PUBCHEM_SHAPE_SELFOVERLAP>
1145.848

> <PUBCHEM_SHAPE_VOLUME>
290.6

> <PUBCHEM_COORDINATE_TYPE>
2
5
10

$$$$
