101007098
  -OEChem-03292013293D

 43 47  0     1  0  0  0  0  0999 V2000
    2.9720   -1.9529   -0.1523 O   0  0  0  0  0  0  0  0  0  0  0  0
    7.4741   -0.0267   -0.0387 O   0  0  0  0  0  0  0  0  0  0  0  0
    1.0080    2.2851   -0.2041 O   0  0  0  0  0  0  0  0  0  0  0  0
   -1.5337    2.4409   -0.0665 O   0  0  0  0  0  0  0  0  0  0  0  0
   -2.0770   -2.8785    0.0121 O   0  0  0  0  0  0  0  0  0  0  0  0
   -4.0666    2.7850    0.0109 O   0  0  0  0  0  0  0  0  0  0  0  0
   -6.7854   -1.0907    0.1493 O   0  0  0  0  0  0  0  0  0  0  0  0
    3.3538    0.3950   -0.3275 C   0  0  2  0  0  0  0  0  0  0  0  0
    3.8666   -0.9112    0.2878 C   0  0  2  0  0  0  0  0  0  0  0  0
    4.0473    1.5723    0.3304 C   0  0  0  0  0  0  0  0  0  0  0  0
    5.3241   -1.1036   -0.0932 C   0  0  0  0  0  0  0  0  0  0  0  0
    6.1413    0.0794    0.4503 C   0  0  2  0  0  0  0  0  0  0  0  0
    5.5570    1.4536    0.0677 C   0  0  0  0  0  0  0  0  0  0  0  0
    1.9110    0.1080   -0.1636 C   0  0  0  0  0  0  0  0  0  0  0  0
    1.7609   -1.2805   -0.1352 C   0  0  0  0  0  0  0  0  0  0  0  0
    0.8122    0.9422   -0.1414 C   0  0  0  0  0  0  0  0  0  0  0  0
    0.5221   -1.8857   -0.0959 C   0  0  0  0  0  0  0  0  0  0  0  0
   -0.4599    0.3515   -0.0809 C   0  0  0  0  0  0  0  0  0  0  0  0
   -0.6036   -1.0504   -0.0621 C   0  0  0  0  0  0  0  0  0  0  0  0
   -1.6540    1.2219   -0.0503 C   0  0  0  0  0  0  0  0  0  0  0  0
   -1.9486   -1.6604   -0.0075 C   0  0  0  0  0  0  0  0  0  0  0  0
   -2.9945    0.6049    0.0018 C   0  0  0  0  0  0  0  0  0  0  0  0
   -3.1364   -0.7837    0.0229 C   0  0  0  0  0  0  0  0  0  0  0  0
   -4.1306    1.4231    0.0306 C   0  0  0  0  0  0  0  0  0  0  0  0
   -4.4144   -1.3540    0.0730 C   0  0  0  0  0  0  0  0  0  0  0  0
   -5.5435   -0.5352    0.1019 C   0  0  0  0  0  0  0  0  0  0  0  0
   -5.4019    0.8506    0.0807 C   0  0  0  0  0  0  0  0  0  0  0  0
    3.5499    0.4154   -1.4099 H   0  0  0  0  0  0  0  0  0  0  0  0
    3.8031   -0.8889    1.3890 H   0  0  0  0  0  0  0  0  0  0  0  0
    3.8542    1.5885    1.4100 H   0  0  0  0  0  0  0  0  0  0  0  0
    3.6781    2.5207   -0.0745 H   0  0  0  0  0  0  0  0  0  0  0  0
    5.7075   -2.0502    0.3062 H   0  0  0  0  0  0  0  0  0  0  0  0
    5.4371   -1.1899   -1.1815 H   0  0  0  0  0  0  0  0  0  0  0  0
    6.1845    0.0038    1.5439 H   0  0  0  0  0  0  0  0  0  0  0  0
    5.7558    1.6422   -0.9958 H   0  0  0  0  0  0  0  0  0  0  0  0
    6.0918    2.2433    0.6092 H   0  0  0  0  0  0  0  0  0  0  0  0
    0.4414   -2.9670   -0.0802 H   0  0  0  0  0  0  0  0  0  0  0  0
    7.9797    0.7200    0.3249 H   0  0  0  0  0  0  0  0  0  0  0  0
    0.1632    2.7570   -0.2461 H   0  0  0  0  0  0  0  0  0  0  0  0
   -4.5382   -2.4342    0.0896 H   0  0  0  0  0  0  0  0  0  0  0  0
   -6.2848    1.4850    0.1027 H   0  0  0  0  0  0  0  0  0  0  0  0
   -3.1471    3.0864   -0.0306 H   0  0  0  0  0  0  0  0  0  0  0  0
   -6.6983   -2.0594    0.1576 H   0  0  0  0  0  0  0  0  0  0  0  0
  1  9  1  0  0  0  0
  1 15  1  0  0  0  0
  2 12  1  0  0  0  0
  2 38  1  0  0  0  0
  3 16  1  0  0  0  0
  3 39  1  0  0  0  0
  4 20  2  0  0  0  0
  5 21  2  0  0  0  0
  6 24  1  0  0  0  0
  6 42  1  0  0  0  0
  7 26  1  0  0  0  0
  7 43  1  0  0  0  0
  8  9  1  0  0  0  0
  8 10  1  0  0  0  0
  8 14  1  0  0  0  0
  8 28  1  0  0  0  0
  9 11  1  0  0  0  0
  9 29  1  0  0  0  0
 10 13  1  0  0  0  0
 10 30  1  0  0  0  0
 10 31  1  0  0  0  0
 11 12  1  0  0  0  0
 11 32  1  0  0  0  0
 11 33  1  0  0  0  0
 12 13  1  0  0  0  0
 12 34  1  0  0  0  0
 13 35  1  0  0  0  0
 13 36  1  0  0  0  0
 14 15  2  0  0  0  0
 14 16  1  0  0  0  0
 15 17  1  0  0  0  0
 16 18  2  0  0  0  0
 17 19  2  0  0  0  0
 17 37  1  0  0  0  0
 18 19  1  0  0  0  0
 18 20  1  0  0  0  0
 19 21  1  0  0  0  0
 20 22  1  0  0  0  0
 21 23  1  0  0  0  0
 22 23  2  0  0  0  0
 22 24  1  0  0  0  0
 23 25  1  0  0  0  0
 24 27  2  0  0  0  0
 25 26  2  0  0  0  0
 25 40  1  0  0  0  0
 26 27  1  0  0  0  0
 27 41  1  0  0  0  0
M  END
> <PUBCHEM_COMPOUND_CID>
101007098

> <PUBCHEM_CONFORMER_RMSD>
0.6

> <PUBCHEM_CONFORMER_DIVERSEORDER>
1

> <PUBCHEM_MMFF94_PARTIAL_CHARGES>
31
1 -0.36
12 0.28
14 -0.14
15 0.08
16 0.08
17 -0.15
18 0.09
19 0.09
2 -0.68
20 0.4
21 0.4
22 0.09
23 0.09
24 0.08
25 -0.15
26 0.08
27 -0.15
3 -0.53
37 0.15
38 0.4
39 0.45
4 -0.57
40 0.15
41 0.15
42 0.45
43 0.45
5 -0.57
6 -0.53
7 -0.53
8 0.14
9 0.28

> <PUBCHEM_EFFECTIVE_ROTOR_COUNT>
1

> <PUBCHEM_PHARMACOPHORE_FEATURES>
13
1 1 acceptor
1 2 acceptor
1 2 donor
1 3 donor
1 4 acceptor
1 5 acceptor
1 6 donor
1 7 donor
5 1 8 9 14 15 rings
6 14 15 16 17 18 19 rings
6 18 19 20 21 22 23 rings
6 22 23 24 25 26 27 rings
6 8 9 10 11 12 13 rings

> <PUBCHEM_HEAVY_ATOM_COUNT>
27

> <PUBCHEM_ATOM_DEF_STEREO_COUNT>
3

> <PUBCHEM_ATOM_UDEF_STEREO_COUNT>
0

> <PUBCHEM_BOND_DEF_STEREO_COUNT>
0

> <PUBCHEM_BOND_UDEF_STEREO_COUNT>
0

> <PUBCHEM_ISOTOPIC_ATOM_COUNT>
0

> <PUBCHEM_COMPONENT_COUNT>
1

> <PUBCHEM_CACTVS_TAUTO_COUNT>
804

> <PUBCHEM_CONFORMER_ID>
06053EFA00000001

> <PUBCHEM_MMFF94_ENERGY>
90.2308

> <PUBCHEM_FEATURE_SELFOVERLAP>
66.211

> <PUBCHEM_SHAPE_FINGERPRINT>
10 15 18336538417926634944
10675989 125 16822481970984547821
10906281 52 18338536195218488998
1100329 8 18265334078295321601
11315181 36 18040438810314227269
11524674 6 16988562420152981334
11578080 2 13541089813746074641
12107183 9 17688305690329423314
12166972 35 18335704957547219444
12236239 1 17894911815518157490
12390115 104 18200889365667167801
12403259 415 18130496496784737984
12516196 113 18202281411843908264
12788726 201 17489028141253380041
12838862 33 18337654365998457365
13140716 1 18194120948121910195
13402501 40 18412825789471249744
13533116 47 13758086151971089196
13862211 1 18410009944656378687
14790565 3 18410296899710789068
15042514 8 18264773345400275491
15196674 1 18410856533891084829
1813 80 17022904540786380116
18336668 15 18113903766599233781
18608769 82 18339081605179978219
18681886 176 18411976992581012744
19611394 137 17970361505711916067
21033648 29 17774425136048496194
21236236 1 18412544293278269337
21267235 1 18410017640868520958
21279426 13 18268149760138955534
21421861 104 17823970148668651658
23402539 116 18341607131205254751
23559900 14 18342171189867146648
3004659 81 18333450946199279956
335352 9 18410293644251997798
3383291 50 18187368783124318131
34797466 226 17632585980635666580
34934 24 18410570691001699594
350125 39 18410856585425846349
3545911 37 18411981364852237150
4073 2 18041564754025675538
4214541 1 18410573985156751872
4325135 7 18412262843675528935
5104073 3 18336551504074456795
59755656 215 18411705361949088326
59755656 520 17168140169665795986
67856867 119 18261678180774817948
9709674 26 18412833460114477247

> <PUBCHEM_SHAPE_MULTIPOLES>
514.56
15.23
2.48
0.62
7.03
0.29
0.01
0.65
1.18
-1.31
-0.03
0.1
0
0.15

> <PUBCHEM_SHAPE_SELFOVERLAP>
1177.906

> <PUBCHEM_SHAPE_VOLUME>
263.5

> <PUBCHEM_COORDINATE_TYPE>
2
5
10

$$$$
