101086062
  -OEChem-03292013293D

 65 66  0     1  0  0  0  0  0999 V2000
   -2.0359    0.8579    2.9107 S   0  0  0  0  0  0  0  0  0  0  0  0
   -3.9752    0.7242    2.2264 S   0  0  0  0  0  0  0  0  0  0  0  0
    2.4926    2.4348    1.7057 O   0  0  0  0  0  0  0  0  0  0  0  0
    0.1398    1.8223   -1.8118 O   0  0  0  0  0  0  0  0  0  0  0  0
    1.2727    0.1357    3.1779 O   0  0  0  0  0  0  0  0  0  0  0  0
    0.0380    2.2440    0.4535 O   0  0  0  0  0  0  0  0  0  0  0  0
   -1.5524   -3.7328    1.1655 O   0  0  0  0  0  0  0  0  0  0  0  0
    0.2456   -1.4041   -2.7835 O   0  0  0  0  0  0  0  0  0  0  0  0
    1.5988   -0.3851    0.9462 N   0  0  0  0  0  0  0  0  0  0  0  0
   -0.8422   -1.5674    0.7739 N   0  0  0  0  0  0  0  0  0  0  0  0
   -1.8300   -1.6707   -1.7560 N   0  0  0  0  0  0  0  0  0  0  0  0
    2.9272    0.2089    0.7822 C   0  0  1  0  0  0  0  0  0  0  0  0
    3.6737   -0.5362   -0.3252 C   0  0  1  0  0  0  0  0  0  0  0  0
    2.9295    1.7384    0.5391 C   0  0  1  0  0  0  0  0  0  0  0  0
    5.1473   -0.1068   -0.4323 C   0  0  0  0  0  0  0  0  0  0  0  0
    3.5924   -2.0448   -0.0798 C   0  0  0  0  0  0  0  0  0  0  0  0
    2.1670    2.2616   -0.6872 C   0  0  0  0  0  0  0  0  0  0  0  0
    0.8866   -0.3979    2.1374 C   0  0  0  0  0  0  0  0  0  0  0  0
    5.9140   -0.8302   -1.5304 C   0  0  0  0  0  0  0  0  0  0  0  0
   -0.3552   -1.3069    2.1190 C   0  0  1  0  0  0  0  0  0  0  0  0
    0.6685    2.1124   -0.5864 C   0  0  0  0  0  0  0  0  0  0  0  0
   -1.4778   -0.8770    3.0748 C   0  0  0  0  0  0  0  0  0  0  0  0
   -1.2355    1.3787   -1.8297 C   0  0  2  0  0  0  0  0  0  0  0  0
   -1.5848   -2.9513   -1.1151 C   0  0  1  0  0  0  0  0  0  0  0  0
   -1.3861   -2.7864    0.3943 C   0  0  0  0  0  0  0  0  0  0  0  0
   -1.3743    0.3607   -2.9694 C   0  0  0  0  0  0  0  0  0  0  0  0
   -0.8824   -0.9989   -2.5153 C   0  0  0  0  0  0  0  0  0  0  0  0
   -2.1737    2.5312   -2.0543 C   0  0  0  0  0  0  0  0  0  0  0  0
   -2.7212   -3.9183   -1.4205 C   0  0  0  0  0  0  0  0  0  0  0  0
   -3.1000    2.9876   -1.1940 C   0  0  0  0  0  0  0  0  0  0  0  0
   -3.3169    2.5682    0.2357 C   0  0  0  0  0  0  0  0  0  0  0  0
   -3.8499    1.1480    0.4485 C   0  0  0  0  0  0  0  0  0  0  0  0
    3.4428    0.0367    1.7373 H   0  0  0  0  0  0  0  0  0  0  0  0
    3.1834   -0.3500   -1.2893 H   0  0  0  0  0  0  0  0  0  0  0  0
    3.9628    2.0755    0.4298 H   0  0  0  0  0  0  0  0  0  0  0  0
    5.6607   -0.2540    0.5254 H   0  0  0  0  0  0  0  0  0  0  0  0
    5.2160    0.9579   -0.6727 H   0  0  0  0  0  0  0  0  0  0  0  0
    1.1631   -0.7832    0.1206 H   0  0  0  0  0  0  0  0  0  0  0  0
    2.5636   -2.4167   -0.0492 H   0  0  0  0  0  0  0  0  0  0  0  0
    4.0734   -2.6108   -0.8834 H   0  0  0  0  0  0  0  0  0  0  0  0
    4.0786   -2.3202    0.8627 H   0  0  0  0  0  0  0  0  0  0  0  0
    2.5284    1.7687   -1.5949 H   0  0  0  0  0  0  0  0  0  0  0  0
    2.3522    3.3369   -0.8006 H   0  0  0  0  0  0  0  0  0  0  0  0
    5.3753   -0.7929   -2.4824 H   0  0  0  0  0  0  0  0  0  0  0  0
    6.1049   -1.8759   -1.2728 H   0  0  0  0  0  0  0  0  0  0  0  0
    6.8897   -0.3548   -1.6776 H   0  0  0  0  0  0  0  0  0  0  0  0
    0.0163   -2.2721    2.4920 H   0  0  0  0  0  0  0  0  0  0  0  0
    1.5817    2.1573    1.8984 H   0  0  0  0  0  0  0  0  0  0  0  0
   -2.3348   -1.5549    2.9980 H   0  0  0  0  0  0  0  0  0  0  0  0
   -1.1057   -0.9626    4.1025 H   0  0  0  0  0  0  0  0  0  0  0  0
   -0.7867   -0.8208    0.0921 H   0  0  0  0  0  0  0  0  0  0  0  0
   -1.4451    0.8884   -0.8804 H   0  0  0  0  0  0  0  0  0  0  0  0
   -0.6483   -3.3652   -1.5075 H   0  0  0  0  0  0  0  0  0  0  0  0
   -0.7867    0.6577   -3.8465 H   0  0  0  0  0  0  0  0  0  0  0  0
   -2.4189    0.2539   -3.2886 H   0  0  0  0  0  0  0  0  0  0  0  0
   -2.7216   -1.2205   -1.5721 H   0  0  0  0  0  0  0  0  0  0  0  0
   -2.1209    3.0089   -3.0312 H   0  0  0  0  0  0  0  0  0  0  0  0
   -3.6678   -3.5605   -0.9995 H   0  0  0  0  0  0  0  0  0  0  0  0
   -2.5230   -4.9093   -0.9987 H   0  0  0  0  0  0  0  0  0  0  0  0
   -2.8578   -4.0310   -2.5014 H   0  0  0  0  0  0  0  0  0  0  0  0
   -3.7227    3.8137   -1.5336 H   0  0  0  0  0  0  0  0  0  0  0  0
   -2.3791    2.7340    0.7719 H   0  0  0  0  0  0  0  0  0  0  0  0
   -4.0288    3.2786    0.6780 H   0  0  0  0  0  0  0  0  0  0  0  0
   -4.8563    1.0688    0.0224 H   0  0  0  0  0  0  0  0  0  0  0  0
   -3.2469    0.3799   -0.0347 H   0  0  0  0  0  0  0  0  0  0  0  0
  1  2  1  0  0  0  0
  1 22  1  0  0  0  0
  2 32  1  0  0  0  0
  3 14  1  0  0  0  0
  3 48  1  0  0  0  0
  4 21  1  0  0  0  0
  4 23  1  0  0  0  0
  5 18  2  0  0  0  0
  6 21  2  0  0  0  0
  7 25  2  0  0  0  0
  8 27  2  0  0  0  0
  9 12  1  0  0  0  0
  9 18  1  0  0  0  0
  9 38  1  0  0  0  0
 10 20  1  0  0  0  0
 10 25  1  0  0  0  0
 10 51  1  0  0  0  0
 11 24  1  0  0  0  0
 11 27  1  0  0  0  0
 11 56  1  0  0  0  0
 12 13  1  0  0  0  0
 12 14  1  0  0  0  0
 12 33  1  0  0  0  0
 13 15  1  0  0  0  0
 13 16  1  0  0  0  0
 13 34  1  0  0  0  0
 14 17  1  0  0  0  0
 14 35  1  0  0  0  0
 15 19  1  0  0  0  0
 15 36  1  0  0  0  0
 15 37  1  0  0  0  0
 16 39  1  0  0  0  0
 16 40  1  0  0  0  0
 16 41  1  0  0  0  0
 17 21  1  0  0  0  0
 17 42  1  0  0  0  0
 17 43  1  0  0  0  0
 18 20  1  0  0  0  0
 19 44  1  0  0  0  0
 19 45  1  0  0  0  0
 19 46  1  0  0  0  0
 20 22  1  0  0  0  0
 20 47  1  0  0  0  0
 22 49  1  0  0  0  0
 22 50  1  0  0  0  0
 23 26  1  0  0  0  0
 23 28  1  0  0  0  0
 23 52  1  0  0  0  0
 24 25  1  0  0  0  0
 24 29  1  0  0  0  0
 24 53  1  0  0  0  0
 26 27  1  0  0  0  0
 26 54  1  0  0  0  0
 26 55  1  0  0  0  0
 28 30  2  0  0  0  0
 28 57  1  0  0  0  0
 29 58  1  0  0  0  0
 29 59  1  0  0  0  0
 29 60  1  0  0  0  0
 30 31  1  0  0  0  0
 30 61  1  0  0  0  0
 31 32  1  0  0  0  0
 31 62  1  0  0  0  0
 31 63  1  0  0  0  0
 32 64  1  0  0  0  0
 32 65  1  0  0  0  0
M  END
> <PUBCHEM_COMPOUND_CID>
101086062

> <PUBCHEM_CONFORMER_RMSD>
0.8

> <PUBCHEM_CONFORMER_DIVERSEORDER>
1
48
63
25
61
47
13
17
58
46
60
44
32
36
18
21
40
28
39
29
45
56
62
26
57
23
15
41
30
10
4
50
51
22
19
20
35
24
49
11
53
42
3
34
33
54
55
14
52
12
9
31
2
43
5
37
7
59
27
16
38
6
8

> <PUBCHEM_MMFF94_PARTIAL_CHARGES>
33
1 -0.23
10 -0.73
11 -0.73
12 0.3
14 0.28
17 0.06
18 0.57
2 -0.23
20 0.36
21 0.66
22 0.23
23 0.42
24 0.36
25 0.57
26 0.06
27 0.57
28 -0.29
3 -0.68
30 -0.29
31 0.14
32 0.23
38 0.37
4 -0.43
48 0.4
5 -0.57
51 0.37
56 0.37
57 0.15
6 -0.57
61 0.15
7 -0.57
8 -0.57
9 -0.73

> <PUBCHEM_EFFECTIVE_ROTOR_COUNT>
4.8

> <PUBCHEM_PHARMACOPHORE_FEATURES>
11
1 10 donor
1 11 donor
1 16 hydrophobe
1 19 hydrophobe
1 3 acceptor
1 3 donor
1 5 acceptor
1 6 acceptor
1 7 acceptor
1 8 acceptor
1 9 donor

> <PUBCHEM_HEAVY_ATOM_COUNT>
32

> <PUBCHEM_ATOM_DEF_STEREO_COUNT>
2

> <PUBCHEM_ATOM_UDEF_STEREO_COUNT>
4

> <PUBCHEM_BOND_DEF_STEREO_COUNT>
1

> <PUBCHEM_BOND_UDEF_STEREO_COUNT>
0

> <PUBCHEM_ISOTOPIC_ATOM_COUNT>
0

> <PUBCHEM_COMPONENT_COUNT>
1

> <PUBCHEM_CACTVS_TAUTO_COUNT>
24

> <PUBCHEM_CONFORMER_ID>
0606736E00000001

> <PUBCHEM_MMFF94_ENERGY>
65.9079

> <PUBCHEM_FEATURE_SELFOVERLAP>
55.843

> <PUBCHEM_SHAPE_FINGERPRINT>
10032420 55 13045946845436565804
11112662 9 18411135810583232781
11244481 83 17329985799162724333
11578080 2 17774151452607060984
12156800 1 18121183620328092699
12596599 1 18191566739392018198
12788726 201 17905567272839349717
13583140 156 16988287590128857584
14114207 22 17982474619236412066
15351334 14 18057064591212968596
18603816 31 16629126443317075582
20905425 154 16887739535979134687
23419403 2 17469916301337934483
2818148 4 18042105609828562450
35225 105 17458333118306447557
469060 322 12901843756277937158
484985 159 17346323674421181046
57527306 92 15011978866777227641

> <PUBCHEM_SHAPE_MULTIPOLES>
616.09
7.48
4.12
3.54
9.48
2.4
-0.57
-1.4
0.21
-3.24
1.6
-2.23
0.34
0.42

> <PUBCHEM_SHAPE_SELFOVERLAP>
1210.463

> <PUBCHEM_SHAPE_VOLUME>
366.6

> <PUBCHEM_COORDINATE_TYPE>
2
5
10

$$$$
