101024062
  -OEChem-03292013293D

 49 49  0     0  0  0  0  0  0999 V2000
   -1.8825   -3.1276   -2.2371 Cl  0  0  0  0  0  0  0  0  0  0  0  0
   -4.1219   -1.9194    3.6034 Cl  0  0  0  0  0  0  0  0  0  0  0  0
    2.3648    0.3282    1.6851 O   0  0  0  0  0  0  0  0  0  0  0  0
   -3.8050    1.7202   -1.8861 O   0  5  0  0  0  0  0  0  0  0  0  0
   -4.1999    2.0510    0.2478 O   0  0  0  0  0  0  0  0  0  0  0  0
    1.5000    3.2198    1.1337 O   0  5  0  0  0  0  0  0  0  0  0  0
    1.9013    2.8905   -0.9992 O   0  0  0  0  0  0  0  0  0  0  0  0
   -2.9515   -1.0834   -0.1687 N   0  0  0  0  0  0  0  0  0  0  0  0
    2.4579   -1.0258   -0.0919 N   0  3  0  0  0  0  0  0  0  0  0  0
    6.1690   -1.2290   -0.2449 N   0  0  0  0  0  0  0  0  0  0  0  0
   -3.4477    1.6857   -0.6855 N   0  3  0  0  0  0  0  0  0  0  0  0
    1.2522    2.6495    0.0455 N   0  3  0  0  0  0  0  0  0  0  0  0
   -1.9038   -0.1360   -0.1175 C   0  0  0  0  0  0  0  0  0  0  0  0
   -3.7040   -1.2756   -1.3908 C   0  0  0  0  0  0  0  0  0  0  0  0
   -3.2876   -1.8655    1.0024 C   0  0  0  0  0  0  0  0  0  0  0  0
    0.4357    0.3448    0.2478 C   0  0  0  0  0  0  0  0  0  0  0  0
   -0.6150   -0.5710    0.1921 C   0  0  0  0  0  0  0  0  0  0  0  0
   -2.1418    1.2149   -0.3709 C   0  0  0  0  0  0  0  0  0  0  0  0
    0.1976    1.6956   -0.0057 C   0  0  0  0  0  0  0  0  0  0  0  0
   -1.0911    2.1307   -0.3149 C   0  0  0  0  0  0  0  0  0  0  0  0
    3.7888   -1.5730    0.1838 C   0  0  0  0  0  0  0  0  0  0  0  0
    1.7778   -0.1504    0.5725 C   0  0  0  0  0  0  0  0  0  0  0  0
    4.8314   -0.6831   -0.4728 C   0  0  0  0  0  0  0  0  0  0  0  0
   -3.6958   -0.9672    2.1594 C   0  0  0  0  0  0  0  0  0  0  0  0
   -3.5781   -2.7066   -1.8896 C   0  0  0  0  0  0  0  0  0  0  0  0
    6.6559   -0.8514    1.0814 C   0  0  0  0  0  0  0  0  0  0  0  0
    7.0931   -0.7659   -1.2795 C   0  0  0  0  0  0  0  0  0  0  0  0
   -4.7600   -1.0375   -1.2183 H   0  0  0  0  0  0  0  0  0  0  0  0
   -3.3479   -0.6297   -2.2002 H   0  0  0  0  0  0  0  0  0  0  0  0
   -2.4434   -2.5038    1.2897 H   0  0  0  0  0  0  0  0  0  0  0  0
   -4.1242   -2.5423    0.7927 H   0  0  0  0  0  0  0  0  0  0  0  0
   -0.4251   -1.6241    0.3872 H   0  0  0  0  0  0  0  0  0  0  0  0
   -1.2769    3.1851   -0.5120 H   0  0  0  0  0  0  0  0  0  0  0  0
    3.8069   -2.5908   -0.2206 H   0  0  0  0  0  0  0  0  0  0  0  0
    3.9088   -1.6366    1.2696 H   0  0  0  0  0  0  0  0  0  0  0  0
    4.7549    0.3591   -0.1332 H   0  0  0  0  0  0  0  0  0  0  0  0
    4.6163   -0.6639   -1.5510 H   0  0  0  0  0  0  0  0  0  0  0  0
    2.0245   -1.3851   -0.9498 H   0  0  0  0  0  0  0  0  0  0  0  0
   -2.8904   -0.2890    2.4562 H   0  0  0  0  0  0  0  0  0  0  0  0
   -4.5691   -0.3618    1.8970 H   0  0  0  0  0  0  0  0  0  0  0  0
   -3.9605   -3.4428   -1.1782 H   0  0  0  0  0  0  0  0  0  0  0  0
   -4.1382   -2.8273   -2.8221 H   0  0  0  0  0  0  0  0  0  0  0  0
    6.7680   -1.1051   -2.2694 H   0  0  0  0  0  0  0  0  0  0  0  0
    8.0921   -1.1873   -1.1203 H   0  0  0  0  0  0  0  0  0  0  0  0
    6.0158   -1.2491    1.8751 H   0  0  0  0  0  0  0  0  0  0  0  0
    6.7248    0.2357    1.2054 H   0  0  0  0  0  0  0  0  0  0  0  0
    7.6519   -1.2751    1.2550 H   0  0  0  0  0  0  0  0  0  0  0  0
    7.1788    0.3267   -1.2981 H   0  0  0  0  0  0  0  0  0  0  0  0
    1.8106    0.9544    2.1829 H   0  0  0  0  0  0  0  0  0  0  0  0
  1 25  1  0  0  0  0
  2 24  1  0  0  0  0
  3 22  1  0  0  0  0
  3 49  1  0  0  0  0
  4 11  1  0  0  0  0
  5 11  2  0  0  0  0
  6 12  1  0  0  0  0
  7 12  2  0  0  0  0
  8 13  1  0  0  0  0
  8 14  1  0  0  0  0
  8 15  1  0  0  0  0
  9 21  1  0  0  0  0
  9 22  2  0  0  0  0
  9 38  1  0  0  0  0
 10 23  1  0  0  0  0
 10 26  1  0  0  0  0
 10 27  1  0  0  0  0
 11 18  1  0  0  0  0
 12 19  1  0  0  0  0
 13 17  1  0  0  0  0
 13 18  2  0  0  0  0
 14 25  1  0  0  0  0
 14 28  1  0  0  0  0
 14 29  1  0  0  0  0
 15 24  1  0  0  0  0
 15 30  1  0  0  0  0
 15 31  1  0  0  0  0
 16 17  2  0  0  0  0
 16 19  1  0  0  0  0
 16 22  1  0  0  0  0
 17 32  1  0  0  0  0
 18 20  1  0  0  0  0
 19 20  2  0  0  0  0
 20 33  1  0  0  0  0
 21 23  1  0  0  0  0
 21 34  1  0  0  0  0
 21 35  1  0  0  0  0
 23 36  1  0  0  0  0
 23 37  1  0  0  0  0
 24 39  1  0  0  0  0
 24 40  1  0  0  0  0
 25 41  1  0  0  0  0
 25 42  1  0  0  0  0
 26 45  1  0  0  0  0
 26 46  1  0  0  0  0
 26 47  1  0  0  0  0
 27 43  1  0  0  0  0
 27 44  1  0  0  0  0
 27 48  1  0  0  0  0
M  CHG  5   4  -1   6  -1   9   1  11   1  12   1
M  END
> <PUBCHEM_COMPOUND_CID>
101024062

> <PUBCHEM_CONFORMER_RMSD>
1

> <PUBCHEM_CONFORMER_DIVERSEORDER>
1
11
5
33
34
43
39
52
53
20
18
28
22
49
2
8
51
19
9
6
17
40
25
45
27
14
35
41
7
12
15
16
46
42
31
47
23
21
24
30
36
50
44
13
48
37
4
26
32
29
38
3
10

> <PUBCHEM_MMFF94_PARTIAL_CHARGES>
31
1 -0.29
10 -0.81
11 0.91
12 0.91
13 0.1
14 0.37
15 0.37
16 0.09
17 -0.15
18 0.13
19 0.13
2 -0.29
20 -0.15
21 0.35
22 0.46
23 0.27
24 0.29
25 0.29
26 0.27
27 0.27
3 -0.6
32 0.15
33 0.15
38 0.4
4 -0.52
49 0.45
5 -0.52
6 -0.52
7 -0.52
8 -0.84
9 -0.15

> <PUBCHEM_EFFECTIVE_ROTOR_COUNT>
11

> <PUBCHEM_PHARMACOPHORE_FEATURES>
10
1 10 cation
1 4 acceptor
1 4 anion
1 5 acceptor
1 6 acceptor
1 6 anion
1 7 acceptor
1 8 cation
1 9 donor
6 13 16 17 18 19 20 rings

> <PUBCHEM_HEAVY_ATOM_COUNT>
27

> <PUBCHEM_ATOM_DEF_STEREO_COUNT>
0

> <PUBCHEM_ATOM_UDEF_STEREO_COUNT>
0

> <PUBCHEM_BOND_DEF_STEREO_COUNT>
0

> <PUBCHEM_BOND_UDEF_STEREO_COUNT>
0

> <PUBCHEM_ISOTOPIC_ATOM_COUNT>
0

> <PUBCHEM_COMPONENT_COUNT>
1

> <PUBCHEM_CACTVS_TAUTO_COUNT>
2

> <PUBCHEM_CONFORMER_ID>
0605813E00000001

> <PUBCHEM_MMFF94_ENERGY>
103.752

> <PUBCHEM_FEATURE_SELFOVERLAP>
50.909

> <PUBCHEM_SHAPE_FINGERPRINT>
107951 10 17823977832402014751
10906281 52 18125727777110404917
11578080 2 17485625355647059089
12553582 1 18336260219303401010
12788726 201 18049713032376724648
13009979 54 17702104870770606435
13140716 1 18408035221931525633
13540713 4 18189044455803176025
13631057 29 16950574331973333946
14790565 3 17765716815094883184
16114785 44 17201647631950705513
16945 1 17831013894854801245
20101258 96 18334303075557189385
23402539 116 18187363195529503414
23557571 272 18127413350627800068
23559900 14 18129924742053479152
23622692 118 18129085874789617719
2748010 2 18262226828866814965
329604 57 17822588186948189810
70251023 43 18266446784675145235
9709674 26 18263630935148016817

> <PUBCHEM_SHAPE_MULTIPOLES>
505.14
12.82
3.44
2.26
25.27
1.41
1.46
-7.5
0.73
-2.09
-1.19
-3.78
-1.83
0.69

> <PUBCHEM_SHAPE_SELFOVERLAP>
1007.999

> <PUBCHEM_SHAPE_VOLUME>
303.2

> <PUBCHEM_COORDINATE_TYPE>
2
5
10

$$$$
