101004432
  -OEChem-03292013293D

 44 45  0     1  0  0  0  0  0999 V2000
   -6.2267   -2.5881    1.4209 F   0  0  0  0  0  0  0  0  0  0  0  0
   -1.4947   -0.9936    1.0165 O   0  0  0  0  0  0  0  0  0  0  0  0
   -4.9777   -1.7301   -0.7435 O   0  0  0  0  0  0  0  0  0  0  0  0
    1.6518    0.3493   -2.5224 O   0  0  0  0  0  0  0  0  0  0  0  0
   -5.0946    3.7682   -0.0270 O   0  0  0  0  0  0  0  0  0  0  0  0
   -3.2512    2.8826    0.9592 O   0  0  0  0  0  0  0  0  0  0  0  0
   -2.8715    0.0011   -0.5655 N   0  0  0  0  0  0  0  0  0  0  0  0
    0.6385   -0.6286   -0.6793 N   0  0  0  0  0  0  0  0  0  0  0  0
    4.1633    0.4533   -1.1861 N   0  0  0  0  0  0  0  0  0  0  0  0
   -4.0028    0.2188    0.2989 C   0  0  1  0  0  0  0  0  0  0  0  0
   -0.6764   -0.7501   -1.2518 C   0  0  2  0  0  0  0  0  0  0  0  0
   -1.6942   -0.5956   -0.1293 C   0  0  0  0  0  0  0  0  0  0  0  0
   -4.8510    1.4095   -0.1421 C   0  0  0  0  0  0  0  0  0  0  0  0
    3.0079   -0.0506   -0.6518 C   0  0  0  0  0  0  0  0  0  0  0  0
    5.1938    0.3413   -0.2800 C   0  0  0  0  0  0  0  0  0  0  0  0
    4.6685   -0.2551    0.8682 C   0  0  0  0  0  0  0  0  0  0  0  0
   -0.8494   -2.0834   -1.9625 C   0  0  0  0  0  0  0  0  0  0  0  0
   -4.8303   -1.0571    0.2769 C   0  0  0  0  0  0  0  0  0  0  0  0
    1.7096   -0.0805   -1.3733 C   0  0  0  0  0  0  0  0  0  0  0  0
    3.2884   -0.4969    0.6191 C   0  0  0  0  0  0  0  0  0  0  0  0
    6.5370    0.7188   -0.3879 C   0  0  0  0  0  0  0  0  0  0  0  0
    5.5236   -0.4872    1.9638 C   0  0  0  0  0  0  0  0  0  0  0  0
   -5.5080   -1.4424    1.5666 C   0  0  0  0  0  0  0  0  0  0  0  0
   -4.2899    2.7331    0.3311 C   0  0  0  0  0  0  0  0  0  0  0  0
    7.3664    0.4784    0.7112 C   0  0  0  0  0  0  0  0  0  0  0  0
    6.8696   -0.1152    1.8700 C   0  0  0  0  0  0  0  0  0  0  0  0
   -3.6305    0.3549    1.3213 H   0  0  0  0  0  0  0  0  0  0  0  0
   -0.8117    0.0617   -1.9765 H   0  0  0  0  0  0  0  0  0  0  0  0
   -2.9749    0.2210   -1.5521 H   0  0  0  0  0  0  0  0  0  0  0  0
   -5.8595    1.3250    0.2808 H   0  0  0  0  0  0  0  0  0  0  0  0
   -4.9397    1.4431   -1.2343 H   0  0  0  0  0  0  0  0  0  0  0  0
    0.7731   -0.9869    0.2604 H   0  0  0  0  0  0  0  0  0  0  0  0
   -0.7133   -2.9219   -1.2698 H   0  0  0  0  0  0  0  0  0  0  0  0
   -1.8523   -2.1708   -2.3937 H   0  0  0  0  0  0  0  0  0  0  0  0
   -0.1182   -2.1971   -2.7698 H   0  0  0  0  0  0  0  0  0  0  0  0
    4.2502    0.8506   -2.1115 H   0  0  0  0  0  0  0  0  0  0  0  0
    2.5959   -0.9510    1.3145 H   0  0  0  0  0  0  0  0  0  0  0  0
    6.9246    1.1811   -1.2895 H   0  0  0  0  0  0  0  0  0  0  0  0
    5.1496   -0.9490    2.8731 H   0  0  0  0  0  0  0  0  0  0  0  0
   -6.1949   -0.6511    1.8757 H   0  0  0  0  0  0  0  0  0  0  0  0
   -4.7551   -1.6147    2.3396 H   0  0  0  0  0  0  0  0  0  0  0  0
    8.4152    0.7595    0.6600 H   0  0  0  0  0  0  0  0  0  0  0  0
    7.5339   -0.2918    2.7117 H   0  0  0  0  0  0  0  0  0  0  0  0
   -4.7385    4.6300    0.2776 H   0  0  0  0  0  0  0  0  0  0  0  0
  1 23  1  0  0  0  0
  2 12  2  0  0  0  0
  3 18  2  0  0  0  0
  4 19  2  0  0  0  0
  5 24  1  0  0  0  0
  5 44  1  0  0  0  0
  6 24  2  0  0  0  0
  7 10  1  0  0  0  0
  7 12  1  0  0  0  0
  7 29  1  0  0  0  0
  8 11  1  0  0  0  0
  8 19  1  0  0  0  0
  8 32  1  0  0  0  0
  9 14  1  0  0  0  0
  9 15  1  0  0  0  0
  9 36  1  0  0  0  0
 10 13  1  0  0  0  0
 10 18  1  0  0  0  0
 10 27  1  0  0  0  0
 11 12  1  0  0  0  0
 11 17  1  0  0  0  0
 11 28  1  0  0  0  0
 13 24  1  0  0  0  0
 13 30  1  0  0  0  0
 13 31  1  0  0  0  0
 14 19  1  0  0  0  0
 14 20  2  0  0  0  0
 15 16  1  0  0  0  0
 15 21  2  0  0  0  0
 16 20  1  0  0  0  0
 16 22  2  0  0  0  0
 17 33  1  0  0  0  0
 17 34  1  0  0  0  0
 17 35  1  0  0  0  0
 18 23  1  0  0  0  0
 20 37  1  0  0  0  0
 21 25  1  0  0  0  0
 21 38  1  0  0  0  0
 22 26  1  0  0  0  0
 22 39  1  0  0  0  0
 23 40  1  0  0  0  0
 23 41  1  0  0  0  0
 25 26  2  0  0  0  0
 25 42  1  0  0  0  0
 26 43  1  0  0  0  0
M  END
> <PUBCHEM_COMPOUND_CID>
101004432

> <PUBCHEM_CONFORMER_RMSD>
1

> <PUBCHEM_CONFORMER_DIVERSEORDER>
1
52
43
100
74
81
8
70
82
102
76
15
87
77
58
80
44
71
36
98
49
37
27
21
107
72
90
32
28
75
51
25
66
108
63
62
7
79
61
59
85
34
95
53
109
55
40
18
69
84
35
26
94
16
39
33
60
30
46
104
88
105
92
9
83
57
97
50
29
106
54
45
5
42
93
20
101
48
64
91
14
47
17
41
19
13
68
96
22
31
6
10
103
89
12
3
38
78
2
56
11
99
86
24
67
4
73
23
65

> <PUBCHEM_MMFF94_PARTIAL_CHARGES>
33
1 -0.34
10 0.36
11 0.36
12 0.57
13 0.06
14 -0.24
15 -0.15
18 0.45
19 0.71
2 -0.57
20 -0.15
21 -0.15
22 -0.15
23 0.4
24 0.66
25 -0.15
26 -0.15
29 0.37
3 -0.57
32 0.37
36 0.27
37 0.15
38 0.15
39 0.15
4 -0.57
42 0.15
43 0.15
44 0.5
5 -0.65
6 -0.57
7 -0.73
8 -0.73
9 0.03

> <PUBCHEM_EFFECTIVE_ROTOR_COUNT>
10

> <PUBCHEM_PHARMACOPHORE_FEATURES>
12
1 2 acceptor
1 3 acceptor
1 4 acceptor
1 5 acceptor
1 6 acceptor
1 7 donor
1 8 donor
1 9 cation
1 9 donor
3 5 6 24 anion
5 9 14 15 16 20 rings
6 15 16 21 22 25 26 rings

> <PUBCHEM_HEAVY_ATOM_COUNT>
26

> <PUBCHEM_ATOM_DEF_STEREO_COUNT>
1

> <PUBCHEM_ATOM_UDEF_STEREO_COUNT>
1

> <PUBCHEM_BOND_DEF_STEREO_COUNT>
0

> <PUBCHEM_BOND_UDEF_STEREO_COUNT>
0

> <PUBCHEM_ISOTOPIC_ATOM_COUNT>
0

> <PUBCHEM_COMPONENT_COUNT>
1

> <PUBCHEM_CACTVS_TAUTO_COUNT>
60

> <PUBCHEM_CONFORMER_ID>
0605349000000001

> <PUBCHEM_MMFF94_ENERGY>
43.049

> <PUBCHEM_FEATURE_SELFOVERLAP>
61.047

> <PUBCHEM_SHAPE_FINGERPRINT>
10 15 18271525394417959634
10554248 39 15195566810929179428
11315181 36 17822010934674232963
11646440 116 17418100948537872256
11796584 16 8070032159742452140
12107698 1 18338516442817057737
12236239 1 18113616785837815744
12403259 118 18409732859015036093
12403259 415 17632026259964629414
12596602 18 18186518808842627456
12633257 1 17095532781106052126
12760667 363 15285352907870346054
13073987 5 18408605833652779290
13103583 49 17748829600781637868
13403585 85 18342174466584275953
13540713 4 18057062215758105751
13690498 29 9943509818320648001
13782708 43 15285350709432594506
14251764 18 17603868935941276370
14466204 15 18410573950987404796
15188451 53 17967812795051819587
15238133 3 18335706018678136580
15484559 13 14034548235673747441
20281389 69 17846776317572457354
21033648 144 16559030489095715132
21033648 29 18060142007176079428
21130935 74 18040428876851795298
21267235 1 16877931708931455370
23081809 10 17458070365266234294
23522609 53 17096675152618852660
23569943 247 16444450305493624138
249057 25 17749400286082065893
2838139 119 15052014555019681730
312425 54 17895193242870595658
3663271 9 18040714766817177736
437815 12 14345788374759003631
5104073 3 18337394820623860363
59755656 520 16558753433577418974
6697151 62 16912012002676881422
8863177 126 12974187180421432576
9981440 41 18339085883109680475

> <PUBCHEM_SHAPE_MULTIPOLES>
483.5
19.86
2.42
1.81
13.16
2.14
-0.13
2.93
9.64
-7.29
0.19
1.15
-0.71
0.46

> <PUBCHEM_SHAPE_SELFOVERLAP>
1018.323

> <PUBCHEM_SHAPE_VOLUME>
271.3

> <PUBCHEM_COORDINATE_TYPE>
2
5
10

$$$$
