101080655
  -OEChem-03292013293D

 69 74  0     1  0  0  0  0  0999 V2000
    2.9480   -0.7828   -1.1797 O   0  0  0  0  0  0  0  0  0  0  0  0
    3.9737    2.1743    0.7411 O   0  0  0  0  0  0  0  0  0  0  0  0
    1.4659    0.6810   -2.1725 O   0  0  0  0  0  0  0  0  0  0  0  0
   -0.9131    2.7908    1.5257 O   0  0  0  0  0  0  0  0  0  0  0  0
   -4.9559    0.7012    0.1600 O   0  0  0  0  0  0  0  0  0  0  0  0
    2.2003    2.4351    2.0805 O   0  0  0  0  0  0  0  0  0  0  0  0
   -1.5599   -4.6346    0.7932 O   0  0  0  0  0  0  0  0  0  0  0  0
   -2.2647   -4.0359   -1.2985 O   0  0  0  0  0  0  0  0  0  0  0  0
   -5.2771    1.4731   -1.9936 O   0  0  0  0  0  0  0  0  0  0  0  0
    1.1656   -0.0833    0.9588 C   0  0  1  0  0  0  0  0  0  0  0  0
   -0.2917   -0.3883    0.5209 C   0  0  1  0  0  0  0  0  0  0  0  0
    1.9053   -1.4556    0.8686 C   0  0  1  0  0  0  0  0  0  0  0  0
   -0.4538   -1.8772    0.8619 C   0  0  2  0  0  0  0  0  0  0  0  0
   -1.4264    0.4212    1.1791 C   0  0  2  0  0  0  0  0  0  0  0  0
    1.8445    1.0455    0.1450 C   0  0  2  0  0  0  0  0  0  0  0  0
    0.8486   -2.4331    0.3077 C   0  0  0  0  0  0  0  0  0  0  0  0
    3.2195   -1.4038    0.0682 C   0  0  2  0  0  0  0  0  0  0  0  0
   -2.8331   -0.2072    0.9086 C   0  0  1  0  0  0  0  0  0  0  0  0
    2.4951    0.5657   -1.1753 C   0  0  1  0  0  0  0  0  0  0  0  0
   -1.5303    1.8654    0.6477 C   0  0  1  0  0  0  0  0  0  0  0  0
   -3.5506    0.8012    0.0006 C   0  0  2  0  0  0  0  0  0  0  0  0
    3.6740    1.4689   -1.5605 C   0  0  1  0  0  0  0  0  0  0  0  0
   -3.0280    2.1415    0.5124 C   0  0  2  0  0  0  0  0  0  0  0  0
   -1.7555   -2.3880    0.3372 C   0  0  0  0  0  0  0  0  0  0  0  0
    4.3485   -0.7157    0.8779 C   0  0  0  0  0  0  0  0  0  0  0  0
    4.6323    1.5389   -0.3739 C   0  0  2  0  0  0  0  0  0  0  0  0
   -2.8497   -1.6112    0.3532 C   0  0  0  0  0  0  0  0  0  0  0  0
    5.2690    0.2194    0.0907 C   0  0  0  0  0  0  0  0  0  0  0  0
    2.6861    1.9294    1.0689 C   0  0  0  0  0  0  0  0  0  0  0  0
    3.7107   -2.8199   -0.2917 C   0  0  0  0  0  0  0  0  0  0  0  0
    4.4073    1.0419   -2.8402 C   0  0  0  0  0  0  0  0  0  0  0  0
   -3.3321    3.3082   -0.4188 C   0  0  0  0  0  0  0  0  0  0  0  0
   -1.8968   -3.7520   -0.1715 C   0  0  0  0  0  0  0  0  0  0  0  0
   -5.7092    1.0711   -0.9218 C   0  0  0  0  0  0  0  0  0  0  0  0
   -7.1668    0.9147   -0.6099 C   0  0  0  0  0  0  0  0  0  0  0  0
    1.1371    0.1919    2.0217 H   0  0  0  0  0  0  0  0  0  0  0  0
   -0.3691   -0.2672   -0.5699 H   0  0  0  0  0  0  0  0  0  0  0  0
    2.1326   -1.7872    1.8926 H   0  0  0  0  0  0  0  0  0  0  0  0
   -0.4558   -2.0194    1.9533 H   0  0  0  0  0  0  0  0  0  0  0  0
   -1.2586    0.4304    2.2649 H   0  0  0  0  0  0  0  0  0  0  0  0
    1.0721    1.7644   -0.1550 H   0  0  0  0  0  0  0  0  0  0  0  0
    1.0343   -3.4581    0.6455 H   0  0  0  0  0  0  0  0  0  0  0  0
    0.8362   -2.4323   -0.7894 H   0  0  0  0  0  0  0  0  0  0  0  0
   -3.3749   -0.2510    1.8651 H   0  0  0  0  0  0  0  0  0  0  0  0
   -1.0557    1.9601   -0.3347 H   0  0  0  0  0  0  0  0  0  0  0  0
   -3.2490    0.6287   -1.0428 H   0  0  0  0  0  0  0  0  0  0  0  0
    3.2780    2.4781   -1.7453 H   0  0  0  0  0  0  0  0  0  0  0  0
   -3.4674    2.3800    1.4908 H   0  0  0  0  0  0  0  0  0  0  0  0
    4.9762   -1.4878    1.3453 H   0  0  0  0  0  0  0  0  0  0  0  0
    3.9399   -0.1855    1.7450 H   0  0  0  0  0  0  0  0  0  0  0  0
    5.4511    2.2161   -0.6482 H   0  0  0  0  0  0  0  0  0  0  0  0
   -3.8041   -1.9962    0.0024 H   0  0  0  0  0  0  0  0  0  0  0  0
    6.0907    0.4827    0.7709 H   0  0  0  0  0  0  0  0  0  0  0  0
    5.7308   -0.3135   -0.7468 H   0  0  0  0  0  0  0  0  0  0  0  0
    3.0309   -3.3238   -0.9874 H   0  0  0  0  0  0  0  0  0  0  0  0
    3.8277   -3.4463    0.5989 H   0  0  0  0  0  0  0  0  0  0  0  0
    4.6767   -2.7719   -0.8089 H   0  0  0  0  0  0  0  0  0  0  0  0
    4.7519    0.0045   -2.8002 H   0  0  0  0  0  0  0  0  0  0  0  0
    3.7653    1.1444   -3.7202 H   0  0  0  0  0  0  0  0  0  0  0  0
    5.2830    1.6781   -3.0096 H   0  0  0  0  0  0  0  0  0  0  0  0
    1.8759    0.7638   -3.0470 H   0  0  0  0  0  0  0  0  0  0  0  0
   -2.9980    3.1053   -1.4417 H   0  0  0  0  0  0  0  0  0  0  0  0
   -2.8235    4.2154   -0.0754 H   0  0  0  0  0  0  0  0  0  0  0  0
   -4.4040    3.5256   -0.4423 H   0  0  0  0  0  0  0  0  0  0  0  0
   -1.3494    2.7226    2.3918 H   0  0  0  0  0  0  0  0  0  0  0  0
   -1.6414   -5.5632    0.4878 H   0  0  0  0  0  0  0  0  0  0  0  0
   -7.3853   -0.1305   -0.3776 H   0  0  0  0  0  0  0  0  0  0  0  0
   -7.7581    1.2093   -1.4816 H   0  0  0  0  0  0  0  0  0  0  0  0
   -7.4367    1.5607    0.2292 H   0  0  0  0  0  0  0  0  0  0  0  0
  1 17  1  0  0  0  0
  1 19  1  0  0  0  0
  2 26  1  0  0  0  0
  2 29  1  0  0  0  0
  3 19  1  0  0  0  0
  3 61  1  0  0  0  0
  4 20  1  0  0  0  0
  4 65  1  0  0  0  0
  5 21  1  0  0  0  0
  5 34  1  0  0  0  0
  6 29  2  0  0  0  0
  7 33  1  0  0  0  0
  7 66  1  0  0  0  0
  8 33  2  0  0  0  0
  9 34  2  0  0  0  0
 10 11  1  0  0  0  0
 10 12  1  0  0  0  0
 10 15  1  0  0  0  0
 10 36  1  0  0  0  0
 11 13  1  0  0  0  0
 11 14  1  0  0  0  0
 11 37  1  0  0  0  0
 12 16  1  0  0  0  0
 12 17  1  0  0  0  0
 12 38  1  0  0  0  0
 13 16  1  0  0  0  0
 13 24  1  0  0  0  0
 13 39  1  0  0  0  0
 14 18  1  0  0  0  0
 14 20  1  0  0  0  0
 14 40  1  0  0  0  0
 15 19  1  0  0  0  0
 15 29  1  0  0  0  0
 15 41  1  0  0  0  0
 16 42  1  0  0  0  0
 16 43  1  0  0  0  0
 17 25  1  0  0  0  0
 17 30  1  0  0  0  0
 18 21  1  0  0  0  0
 18 27  1  0  0  0  0
 18 44  1  0  0  0  0
 19 22  1  0  0  0  0
 20 23  1  0  0  0  0
 20 45  1  0  0  0  0
 21 23  1  0  0  0  0
 21 46  1  0  0  0  0
 22 26  1  0  0  0  0
 22 31  1  0  0  0  0
 22 47  1  0  0  0  0
 23 32  1  0  0  0  0
 23 48  1  0  0  0  0
 24 27  2  0  0  0  0
 24 33  1  0  0  0  0
 25 28  1  0  0  0  0
 25 49  1  0  0  0  0
 25 50  1  0  0  0  0
 26 28  1  0  0  0  0
 26 51  1  0  0  0  0
 27 52  1  0  0  0  0
 28 53  1  0  0  0  0
 28 54  1  0  0  0  0
 30 55  1  0  0  0  0
 30 56  1  0  0  0  0
 30 57  1  0  0  0  0
 31 58  1  0  0  0  0
 31 59  1  0  0  0  0
 31 60  1  0  0  0  0
 32 62  1  0  0  0  0
 32 63  1  0  0  0  0
 32 64  1  0  0  0  0
 34 35  1  0  0  0  0
 35 67  1  0  0  0  0
 35 68  1  0  0  0  0
 35 69  1  0  0  0  0
M  END
> <PUBCHEM_COMPOUND_CID>
101080655

> <PUBCHEM_CONFORMER_RMSD>
0.8

> <PUBCHEM_CONFORMER_DIVERSEORDER>
1
3
2

> <PUBCHEM_MMFF94_PARTIAL_CHARGES>
27
1 -0.56
13 0.14
15 0.06
17 0.28
18 0.14
19 0.56
2 -0.43
20 0.28
21 0.28
24 -0.12
26 0.28
27 -0.29
29 0.66
3 -0.68
33 0.71
34 0.66
35 0.06
4 -0.68
5 -0.43
52 0.15
6 -0.57
61 0.4
65 0.4
66 0.5
7 -0.65
8 -0.57
9 -0.57

> <PUBCHEM_EFFECTIVE_ROTOR_COUNT>
4.8

> <PUBCHEM_PHARMACOPHORE_FEATURES>
16
1 1 acceptor
1 3 acceptor
1 3 donor
1 4 acceptor
1 4 donor
1 6 acceptor
1 7 acceptor
1 8 acceptor
1 9 acceptor
3 7 8 33 anion
5 10 11 12 13 16 rings
5 14 18 20 21 23 rings
6 1 10 12 15 17 19 rings
6 11 13 14 18 24 27 rings
6 2 15 19 22 26 29 rings
7 1 17 19 22 25 26 28 rings

> <PUBCHEM_HEAVY_ATOM_COUNT>
35

> <PUBCHEM_ATOM_DEF_STEREO_COUNT>
14

> <PUBCHEM_ATOM_UDEF_STEREO_COUNT>
0

> <PUBCHEM_BOND_DEF_STEREO_COUNT>
0

> <PUBCHEM_BOND_UDEF_STEREO_COUNT>
0

> <PUBCHEM_ISOTOPIC_ATOM_COUNT>
0

> <PUBCHEM_COMPONENT_COUNT>
1

> <PUBCHEM_CACTVS_TAUTO_COUNT>
4

> <PUBCHEM_CONFORMER_ID>
06065E4F00000001

> <PUBCHEM_MMFF94_ENERGY>
131.9615

> <PUBCHEM_FEATURE_SELFOVERLAP>
83.59

> <PUBCHEM_SHAPE_FINGERPRINT>
10498660 4 18410299150284143449
10930396 42 17905019497565691562
11285246 1 16838011580029451230
11370993 70 18337108968985355680
11513181 2 17768820762479516646
11578080 2 18265886046424107660
12166972 35 18191022292368483858
12788726 201 17972608950255176626
13140716 1 18268718370938998706
13224815 77 18261406562816129736
13583140 156 18131069385344858994
13617811 41 18261106384001494477
14068700 675 17839178507641918346
14790565 3 18270126704222666657
14931854 50 18342181016288349660
15131766 46 15938124281690025798
15324884 4 17700136796448366400
18681886 176 18194673779069384402
19319366 153 18261667091580800819
20511986 3 18040707100137134056
20715895 44 18115301164595147621
20775438 99 17699815644759168831
21344244 181 17846787312705086255
22149856 69 18335997385539420033
22393880 68 18269849764683525206
23559900 14 18342455997601582536
249057 3 18336547127804085322
3388396 114 16889785843336011405
350125 39 18336547123160374089
4066623 53 17619608616866201551
469060 322 17828796128060926435
474 4 17676215666860917264
484989 97 18409736157861448011
513532 50 17774724161036985924
6371009 1 18265037051542771153
6669772 16 18128796677319524185

> <PUBCHEM_SHAPE_MULTIPOLES>
667.46
11.63
4.29
1.68
9.48
4.12
-0.79
-6.1
-4.48
2.12
0.17
-1.1
-0.88
0.02

> <PUBCHEM_SHAPE_SELFOVERLAP>
1464.187

> <PUBCHEM_SHAPE_VOLUME>
357.3

> <PUBCHEM_COORDINATE_TYPE>
2
5
10

$$$$
