101111
  -OEChem-03292013323D

 38 38  0     1  0  0  0  0  0999 V2000
   -3.1077   -2.2917    1.1914 O   0  0  0  0  0  0  0  0  0  0  0  0
   -5.0923   -1.2126    1.2851 O   0  0  0  0  0  0  0  0  0  0  0  0
   -1.1266    1.4314    1.5285 O   0  0  0  0  0  0  0  0  0  0  0  0
    1.7044   -3.5489   -0.7448 O   0  5  0  0  0  0  0  0  0  0  0  0
    3.4729    3.0795    0.7734 O   0  5  0  0  0  0  0  0  0  0  0  0
    3.7991   -2.9099   -0.8968 O   0  0  0  0  0  0  0  0  0  0  0  0
    5.0155    1.6479    0.1489 O   0  0  0  0  0  0  0  0  0  0  0  0
   -1.8102   -0.2564    0.0920 N   0  0  0  0  0  0  0  0  0  0  0  0
    2.5937   -2.6692   -0.6450 N   0  3  0  0  0  0  0  0  0  0  0  0
    3.8210    1.9303    0.4093 N   0  3  0  0  0  0  0  0  0  0  0  0
   -3.3181    1.5605   -1.8167 C   0  0  0  0  0  0  0  0  0  0  0  0
   -3.9161    0.3625   -1.0444 C   0  0  0  0  0  0  0  0  0  0  0  0
   -3.2268   -0.0609    0.2614 C   0  0  1  0  0  0  0  0  0  0  0  0
   -3.3254    2.7985   -0.9119 C   0  0  0  0  0  0  0  0  0  0  0  0
   -1.9017    1.3173   -2.3327 C   0  0  0  0  0  0  0  0  0  0  0  0
   -3.9152   -1.2334    0.9419 C   0  0  0  0  0  0  0  0  0  0  0  0
   -0.8642    0.5183    0.7501 C   0  0  0  0  0  0  0  0  0  0  0  0
    0.5571    0.2082    0.4479 C   0  0  0  0  0  0  0  0  0  0  0  0
    1.4983    1.2086    0.5736 C   0  0  0  0  0  0  0  0  0  0  0  0
    0.8900   -1.0701    0.0502 C   0  0  0  0  0  0  0  0  0  0  0  0
    2.2242   -1.3610   -0.2347 C   0  0  0  0  0  0  0  0  0  0  0  0
    2.8325    0.9178    0.2888 C   0  0  0  0  0  0  0  0  0  0  0  0
    3.1956   -0.3669   -0.1153 C   0  0  0  0  0  0  0  0  0  0  0  0
   -3.9701    1.7507   -2.6786 H   0  0  0  0  0  0  0  0  0  0  0  0
   -4.9720    0.5777   -0.8304 H   0  0  0  0  0  0  0  0  0  0  0  0
   -3.9304   -0.5017   -1.7233 H   0  0  0  0  0  0  0  0  0  0  0  0
   -3.3564    0.7563    0.9824 H   0  0  0  0  0  0  0  0  0  0  0  0
   -4.3266    2.9792   -0.5065 H   0  0  0  0  0  0  0  0  0  0  0  0
   -2.6281    2.7210   -0.0760 H   0  0  0  0  0  0  0  0  0  0  0  0
   -3.0407    3.6854   -1.4892 H   0  0  0  0  0  0  0  0  0  0  0  0
   -1.1243    1.5566   -1.6070 H   0  0  0  0  0  0  0  0  0  0  0  0
   -1.7705    0.2920   -2.6923 H   0  0  0  0  0  0  0  0  0  0  0  0
   -1.7148    1.9794   -3.1872 H   0  0  0  0  0  0  0  0  0  0  0  0
   -1.5322   -0.9757   -0.5660 H   0  0  0  0  0  0  0  0  0  0  0  0
    1.1949    2.2051    0.8829 H   0  0  0  0  0  0  0  0  0  0  0  0
    0.1457   -1.8577   -0.0034 H   0  0  0  0  0  0  0  0  0  0  0  0
    4.2358   -0.5936   -0.3374 H   0  0  0  0  0  0  0  0  0  0  0  0
   -3.5832   -3.0154    1.6525 H   0  0  0  0  0  0  0  0  0  0  0  0
  1 16  1  0  0  0  0
  1 38  1  0  0  0  0
  2 16  2  0  0  0  0
  3 17  2  0  0  0  0
  4  9  1  0  0  0  0
  5 10  1  0  0  0  0
  6  9  2  0  0  0  0
  7 10  2  0  0  0  0
  8 13  1  0  0  0  0
  8 17  1  0  0  0  0
  8 34  1  0  0  0  0
  9 21  1  0  0  0  0
 10 22  1  0  0  0  0
 11 12  1  0  0  0  0
 11 14  1  0  0  0  0
 11 15  1  0  0  0  0
 11 24  1  0  0  0  0
 12 13  1  0  0  0  0
 12 25  1  0  0  0  0
 12 26  1  0  0  0  0
 13 16  1  0  0  0  0
 13 27  1  0  0  0  0
 14 28  1  0  0  0  0
 14 29  1  0  0  0  0
 14 30  1  0  0  0  0
 15 31  1  0  0  0  0
 15 32  1  0  0  0  0
 15 33  1  0  0  0  0
 17 18  1  0  0  0  0
 18 19  2  0  0  0  0
 18 20  1  0  0  0  0
 19 22  1  0  0  0  0
 19 35  1  0  0  0  0
 20 21  2  0  0  0  0
 20 36  1  0  0  0  0
 21 23  1  0  0  0  0
 22 23  2  0  0  0  0
 23 37  1  0  0  0  0
M  CHG  4   4  -1   5  -1   9   1  10   1
M  END
> <PUBCHEM_COMPOUND_CID>
101111

> <PUBCHEM_CONFORMER_RMSD>
0.8

> <PUBCHEM_CONFORMER_DIVERSEORDER>
2
5
4
15
8
10
17
7
16
6
13
12
11
14
1
3
9

> <PUBCHEM_MMFF94_PARTIAL_CHARGES>
24
1 -0.65
10 0.91
13 0.36
16 0.66
17 0.54
18 0.09
19 -0.15
2 -0.57
20 -0.15
21 0.13
22 0.13
23 -0.15
3 -0.57
34 0.37
35 0.15
36 0.15
37 0.15
38 0.5
4 -0.52
5 -0.52
6 -0.52
7 -0.52
8 -0.73
9 0.91

> <PUBCHEM_EFFECTIVE_ROTOR_COUNT>
8

> <PUBCHEM_PHARMACOPHORE_FEATURES>
13
1 1 acceptor
1 2 acceptor
1 3 acceptor
1 4 acceptor
1 4 anion
1 5 acceptor
1 5 anion
1 6 acceptor
1 7 acceptor
1 8 donor
3 1 2 16 anion
3 11 14 15 hydrophobe
6 18 19 20 21 22 23 rings

> <PUBCHEM_HEAVY_ATOM_COUNT>
23

> <PUBCHEM_ATOM_DEF_STEREO_COUNT>
1

> <PUBCHEM_ATOM_UDEF_STEREO_COUNT>
0

> <PUBCHEM_BOND_DEF_STEREO_COUNT>
0

> <PUBCHEM_BOND_UDEF_STEREO_COUNT>
0

> <PUBCHEM_ISOTOPIC_ATOM_COUNT>
0

> <PUBCHEM_COMPONENT_COUNT>
1

> <PUBCHEM_CACTVS_TAUTO_COUNT>
2

> <PUBCHEM_CONFORMER_ID>
00018AF700000002

> <PUBCHEM_MMFF94_ENERGY>
67.5303

> <PUBCHEM_FEATURE_SELFOVERLAP>
66.2

> <PUBCHEM_SHAPE_FINGERPRINT>
10369192 42 18267028452048752212
10646746 165 17967523554447125084
10871710 139 16241821719712217740
11370993 144 18339932519842247353
11405975 8 18189048703293145257
11578080 2 18188782642854249076
12166972 35 13190331426587333237
12403259 415 18338513166242684152
12553582 1 16271922710000038793
12596599 1 17313107419434385293
12788726 201 16751836144985292778
13911987 19 18197779023287181832
14251757 17 18264205825036765755
15502722 9 18342168947667117924
15961568 22 17386292115901960004
1813 80 17531824557749723027
18186145 218 18114464435908598553
18915476 22 18413102857611074246
20645477 56 18114461176413906437
20645477 70 18341888563327517070
20693207 138 18335717000266031679
21033650 10 16806175336906226508
221490 88 18339929208032071754
22182313 1 18261109668980581773
22943178 12 18334854991860673655
23114952 82 18265604403737775540
23402539 116 17386557106851508401
23557571 272 17894632582387956685
23559900 14 18268422439355187106
23598288 3 17131282238084837457
469060 322 17979334671740696863
5281201 14 18337951182097267725
6049 1 18261679181728388357
621550 34 18337393850171812481
6287921 2 18188218705174342469
633830 44 17631743788782820256
6913067 236 18192137411986612563
7399639 24 18335699511179976297
9709674 26 18337946797125295999
9925002 15 17182217457437725349

> <PUBCHEM_SHAPE_MULTIPOLES>
417.3
9.35
3.42
1.48
0.31
1.01
-0.46
-0.71
0.08
-2.21
-0.51
1.42
-0.26
3.39

> <PUBCHEM_SHAPE_SELFOVERLAP>
865.936

> <PUBCHEM_SHAPE_VOLUME>
237.9

> <PUBCHEM_COORDINATE_TYPE>
2
5
10

$$$$
