101174456
  -OEChem-03292013293D

 57 61  0     1  0  0  0  0  0999 V2000
   -0.9227    1.5217    0.0872 O   0  0  0  0  0  0  0  0  0  0  0  0
   -3.1090    2.1548    0.7597 O   0  0  0  0  0  0  0  0  0  0  0  0
    1.1983    0.8823    2.9783 O   0  0  0  0  0  0  0  0  0  0  0  0
   -4.5860    4.0445   -0.8954 O   0  0  0  0  0  0  0  0  0  0  0  0
   -2.4839   -1.1406    1.1940 O   0  0  0  0  0  0  0  0  0  0  0  0
    3.2492   -1.5110   -1.6426 O   0  0  0  0  0  0  0  0  0  0  0  0
    2.2028   -3.1672   -0.2273 O   0  0  0  0  0  0  0  0  0  0  0  0
    5.0056    3.6802   -1.0277 O   0  0  0  0  0  0  0  0  0  0  0  0
   -0.3844    0.7293    1.1454 C   0  0  2  0  0  0  0  0  0  0  0  0
   -1.7509    2.5653    0.5916 C   0  0  2  0  0  0  0  0  0  0  0  0
    0.9177    1.3566    1.6634 C   0  0  2  0  0  0  0  0  0  0  0  0
   -1.6593    3.7825   -0.3261 C   0  0  0  0  0  0  0  0  0  0  0  0
   -0.2098   -0.6933    0.6579 C   0  0  0  0  0  0  0  0  0  0  0  0
   -2.3614    3.5265   -1.6589 C   0  0  0  0  0  0  0  0  0  0  0  0
   -3.7772    2.9995   -1.4342 C   0  0  1  0  0  0  0  0  0  0  0  0
   -3.7646    1.8094   -0.4668 C   0  0  2  0  0  0  0  0  0  0  0  0
    2.0952    1.0040    0.7921 C   0  0  0  0  0  0  0  0  0  0  0  0
    0.9735   -1.1670    0.2176 C   0  0  0  0  0  0  0  0  0  0  0  0
    2.1142   -0.2157    0.0840 C   0  0  0  0  0  0  0  0  0  0  0  0
   -1.4267   -1.5550    0.7316 C   0  0  0  0  0  0  0  0  0  0  0  0
    1.1113   -2.6249   -0.0946 C   0  0  0  0  0  0  0  0  0  0  0  0
    3.1741    1.8985    0.6983 C   0  0  0  0  0  0  0  0  0  0  0  0
   -5.1699    1.3361   -0.1115 C   0  0  0  0  0  0  0  0  0  0  0  0
    3.2071   -0.4682   -0.7615 C   0  0  0  0  0  0  0  0  0  0  0  0
   -1.3379   -2.9230    0.2018 C   0  0  0  0  0  0  0  0  0  0  0  0
   -0.1113   -3.4380   -0.2031 C   0  0  0  0  0  0  0  0  0  0  0  0
    4.2597    1.6111   -0.1225 C   0  0  0  0  0  0  0  0  0  0  0  0
    4.2712    0.4331   -0.8594 C   0  0  0  0  0  0  0  0  0  0  0  0
   -2.4919   -3.7118    0.1154 C   0  0  0  0  0  0  0  0  0  0  0  0
   -0.0329   -4.7470   -0.6960 C   0  0  0  0  0  0  0  0  0  0  0  0
    5.3952    2.5714   -0.2263 C   0  0  0  0  0  0  0  0  0  0  0  0
   -2.4119   -5.0136   -0.3795 C   0  0  0  0  0  0  0  0  0  0  0  0
   -1.1836   -5.5305   -0.7849 C   0  0  0  0  0  0  0  0  0  0  0  0
   -1.0939    0.7026    1.9852 H   0  0  0  0  0  0  0  0  0  0  0  0
   -1.3988    2.8898    1.5783 H   0  0  0  0  0  0  0  0  0  0  0  0
    0.8246    2.4476    1.7136 H   0  0  0  0  0  0  0  0  0  0  0  0
   -0.6117    4.0445   -0.5123 H   0  0  0  0  0  0  0  0  0  0  0  0
   -2.1396    4.6390    0.1624 H   0  0  0  0  0  0  0  0  0  0  0  0
   -2.3847    4.4588   -2.2348 H   0  0  0  0  0  0  0  0  0  0  0  0
   -1.7866    2.7947   -2.2391 H   0  0  0  0  0  0  0  0  0  0  0  0
   -4.2226    2.7004   -2.3896 H   0  0  0  0  0  0  0  0  0  0  0  0
   -3.2274    0.9693   -0.9247 H   0  0  0  0  0  0  0  0  0  0  0  0
    3.1549    2.8276    1.2640 H   0  0  0  0  0  0  0  0  0  0  0  0
   -5.7219    2.0995    0.4473 H   0  0  0  0  0  0  0  0  0  0  0  0
   -5.1177    0.4557    0.5386 H   0  0  0  0  0  0  0  0  0  0  0  0
   -5.7387    1.0715   -1.0080 H   0  0  0  0  0  0  0  0  0  0  0  0
    0.4679    1.1661    3.5541 H   0  0  0  0  0  0  0  0  0  0  0  0
    5.1029    0.2289   -1.5303 H   0  0  0  0  0  0  0  0  0  0  0  0
   -4.5876    4.7746   -1.5376 H   0  0  0  0  0  0  0  0  0  0  0  0
   -3.4611   -3.3307    0.4259 H   0  0  0  0  0  0  0  0  0  0  0  0
    0.9136   -5.1733   -1.0179 H   0  0  0  0  0  0  0  0  0  0  0  0
    5.6829    2.9336    0.7670 H   0  0  0  0  0  0  0  0  0  0  0  0
    6.2773    2.1061   -0.6795 H   0  0  0  0  0  0  0  0  0  0  0  0
   -3.3074   -5.6243   -0.4478 H   0  0  0  0  0  0  0  0  0  0  0  0
   -1.1214   -6.5445   -1.1692 H   0  0  0  0  0  0  0  0  0  0  0  0
    4.0822   -1.4936   -2.1437 H   0  0  0  0  0  0  0  0  0  0  0  0
    5.7647    4.2868   -1.0630 H   0  0  0  0  0  0  0  0  0  0  0  0
  1  9  1  0  0  0  0
  1 10  1  0  0  0  0
  2 10  1  0  0  0  0
  2 16  1  0  0  0  0
  3 11  1  0  0  0  0
  3 47  1  0  0  0  0
  4 15  1  0  0  0  0
  4 49  1  0  0  0  0
  5 20  2  0  0  0  0
  6 24  1  0  0  0  0
  6 56  1  0  0  0  0
  7 21  2  0  0  0  0
  8 31  1  0  0  0  0
  8 57  1  0  0  0  0
  9 11  1  0  0  0  0
  9 13  1  0  0  0  0
  9 34  1  0  0  0  0
 10 12  1  0  0  0  0
 10 35  1  0  0  0  0
 11 17  1  0  0  0  0
 11 36  1  0  0  0  0
 12 14  1  0  0  0  0
 12 37  1  0  0  0  0
 12 38  1  0  0  0  0
 13 18  2  0  0  0  0
 13 20  1  0  0  0  0
 14 15  1  0  0  0  0
 14 39  1  0  0  0  0
 14 40  1  0  0  0  0
 15 16  1  0  0  0  0
 15 41  1  0  0  0  0
 16 23  1  0  0  0  0
 16 42  1  0  0  0  0
 17 19  2  0  0  0  0
 17 22  1  0  0  0  0
 18 19  1  0  0  0  0
 18 21  1  0  0  0  0
 19 24  1  0  0  0  0
 20 25  1  0  0  0  0
 21 26  1  0  0  0  0
 22 27  2  0  0  0  0
 22 43  1  0  0  0  0
 23 44  1  0  0  0  0
 23 45  1  0  0  0  0
 23 46  1  0  0  0  0
 24 28  2  0  0  0  0
 25 26  1  0  0  0  0
 25 29  2  0  0  0  0
 26 30  2  0  0  0  0
 27 28  1  0  0  0  0
 27 31  1  0  0  0  0
 28 48  1  0  0  0  0
 29 32  1  0  0  0  0
 29 50  1  0  0  0  0
 30 33  1  0  0  0  0
 30 51  1  0  0  0  0
 31 52  1  0  0  0  0
 31 53  1  0  0  0  0
 32 33  2  0  0  0  0
 32 54  1  0  0  0  0
 33 55  1  0  0  0  0
M  END
> <PUBCHEM_COMPOUND_CID>
101174456

> <PUBCHEM_CONFORMER_RMSD>
0.8

> <PUBCHEM_CONFORMER_DIVERSEORDER>
1
16
7
12
15
3
11
14
5
13
8
9
10
17
2
6
4

> <PUBCHEM_MMFF94_PARTIAL_CHARGES>
40
1 -0.56
10 0.56
11 0.42
13 -0.12
15 0.28
16 0.28
17 -0.14
18 -0.01
19 0.03
2 -0.56
20 0.47
21 0.47
22 -0.15
24 0.08
25 0.09
26 0.09
27 -0.14
28 -0.15
29 -0.15
3 -0.68
30 -0.15
31 0.42
32 -0.15
33 -0.15
4 -0.68
43 0.15
47 0.4
48 0.15
49 0.4
5 -0.57
50 0.15
51 0.15
54 0.15
55 0.15
56 0.45
57 0.4
6 -0.53
7 -0.57
8 -0.68
9 0.42

> <PUBCHEM_EFFECTIVE_ROTOR_COUNT>
4.6

> <PUBCHEM_PHARMACOPHORE_FEATURES>
16
1 1 acceptor
1 2 acceptor
1 3 acceptor
1 3 donor
1 4 acceptor
1 4 donor
1 5 acceptor
1 6 donor
1 7 acceptor
1 8 acceptor
1 8 donor
6 13 18 20 21 25 26 rings
6 17 19 22 24 27 28 rings
6 2 10 12 14 15 16 rings
6 25 26 29 30 32 33 rings
6 9 11 13 17 18 19 rings

> <PUBCHEM_HEAVY_ATOM_COUNT>
33

> <PUBCHEM_ATOM_DEF_STEREO_COUNT>
5

> <PUBCHEM_ATOM_UDEF_STEREO_COUNT>
0

> <PUBCHEM_BOND_DEF_STEREO_COUNT>
0

> <PUBCHEM_BOND_UDEF_STEREO_COUNT>
0

> <PUBCHEM_ISOTOPIC_ATOM_COUNT>
0

> <PUBCHEM_COMPONENT_COUNT>
1

> <PUBCHEM_CACTVS_TAUTO_COUNT>
6

> <PUBCHEM_CONFORMER_ID>
0607CCB800000001

> <PUBCHEM_MMFF94_ENERGY>
95.8958

> <PUBCHEM_FEATURE_SELFOVERLAP>
81.302

> <PUBCHEM_SHAPE_FINGERPRINT>
10675989 125 18051692135721033856
10930396 42 17188380195270794584
10940486 97 17263296522912694990
11045515 52 17833270100866653578
11421498 54 17754440567906788482
11582403 64 17677331602401786232
11720765 8 17042023681993883236
12156800 1 15873013457508434308
12788726 201 17973433597234703386
13590594 115 17687467183991169651
13642711 20 17981334391054582527
138480 1 17330556440964794227
13911987 19 17616840742256092862
14114211 80 18270695207510421849
14556957 393 17466242133590699636
14790565 3 18056227737317765939
15082195 135 17614541663479804293
15705408 1 17690838956461261532
15950262 2 15580120933306902782
15968369 26 17903335041049710225
16988056 13 17110142838245063741
1813 80 17402881719034598682
18681886 176 17905319637752345090
19319366 153 18127678345350733429
20775438 99 18058146402146134246
21033650 10 17971773300723367558
21285901 2 17912942856989365342
21641784 216 17688328084758773300
21857420 4 17763160833170362791
23559900 14 17616238192693515689
238 59 18122344575662845377
376196 1 18042405716747741625
4280585 95 17618780705805026008
4353968 344 17905336479195267700
4409770 3 18338227284011621618
46194498 28 17467074042838158029
463206 1 16896528585550252711
484989 97 18339372855270282075
6287921 2 17828496773309851165
6608658 132 17540836309470046540
6700243 42 17549863248288400660

> <PUBCHEM_SHAPE_MULTIPOLES>
632.17
8.41
7.85
1.42
10.04
0.21
-0.47
-3.26
2.34
-11.79
3.57
0.4
-0.69
0.89

> <PUBCHEM_SHAPE_SELFOVERLAP>
1404.043

> <PUBCHEM_SHAPE_VOLUME>
334.2

> <PUBCHEM_COORDINATE_TYPE>
2
5
10

$$$$
