101131483
  -OEChem-03292013293D

 29 32  0     1  0  0  0  0  0999 V2000
   -2.2704   -0.3153   -1.2642 O   0  0  0  0  0  0  0  0  0  0  0  0
   -4.3074   -0.9048    0.9693 O   0  0  0  0  0  0  0  0  0  0  0  0
   -1.6596    2.5544   -0.9751 O   0  0  0  0  0  0  0  0  0  0  0  0
   -0.1657   -0.3427   -0.2937 N   0  0  0  0  0  0  0  0  0  0  0  0
    0.8612    1.5188    0.3598 N   0  0  0  0  0  0  0  0  0  0  0  0
    1.7370   -1.8436   -0.4964 N   0  0  0  0  0  0  0  0  0  0  0  0
    3.8139   -0.6950    0.0698 N   0  0  0  0  0  0  0  0  0  0  0  0
    3.8736    1.6035    0.7303 N   0  0  0  0  0  0  0  0  0  0  0  0
   -2.7586    0.5391   -0.1960 C   0  0  1  0  0  0  0  0  0  0  0  0
   -1.3131   -1.1732   -0.6111 C   0  0  1  0  0  0  0  0  0  0  0  0
   -2.9611   -0.4391    0.9653 C   0  0  2  0  0  0  0  0  0  0  0  0
   -2.0431   -1.6203    0.6471 C   0  0  0  0  0  0  0  0  0  0  0  0
   -1.6630    1.5955    0.0779 C   0  0  1  0  0  0  0  0  0  0  0  0
   -0.3049    0.9770    0.0711 C   0  0  0  0  0  0  0  0  0  0  0  0
    1.1523   -0.6646   -0.2331 C   0  0  0  0  0  0  0  0  0  0  0  0
    1.7765    0.5075    0.1742 C   0  0  0  0  0  0  0  0  0  0  0  0
    3.1594    0.4636    0.3224 C   0  0  0  0  0  0  0  0  0  0  0  0
    3.0729   -1.7608   -0.3175 C   0  0  0  0  0  0  0  0  0  0  0  0
   -3.6909    1.0051   -0.5315 H   0  0  0  0  0  0  0  0  0  0  0  0
   -1.0053   -1.9869   -1.2729 H   0  0  0  0  0  0  0  0  0  0  0  0
   -2.7612    0.0159    1.9403 H   0  0  0  0  0  0  0  0  0  0  0  0
   -1.3587   -1.8453    1.4720 H   0  0  0  0  0  0  0  0  0  0  0  0
   -2.6276   -2.5242    0.4391 H   0  0  0  0  0  0  0  0  0  0  0  0
   -1.8461    2.1233    1.0193 H   0  0  0  0  0  0  0  0  0  0  0  0
   -4.3916   -1.5442    1.6973 H   0  0  0  0  0  0  0  0  0  0  0  0
   -2.5326    2.9829   -0.9830 H   0  0  0  0  0  0  0  0  0  0  0  0
    3.6298   -2.6716   -0.5099 H   0  0  0  0  0  0  0  0  0  0  0  0
    3.3880    2.4698    0.9201 H   0  0  0  0  0  0  0  0  0  0  0  0
    4.8778    1.5468    0.8314 H   0  0  0  0  0  0  0  0  0  0  0  0
  1  9  1  0  0  0  0
  1 10  1  0  0  0  0
  2 11  1  0  0  0  0
  2 25  1  0  0  0  0
  3 13  1  0  0  0  0
  3 26  1  0  0  0  0
  4 10  1  0  0  0  0
  4 14  1  0  0  0  0
  4 15  1  0  0  0  0
  5 14  2  0  0  0  0
  5 16  1  0  0  0  0
  6 15  2  0  0  0  0
  6 18  1  0  0  0  0
  7 17  1  0  0  0  0
  7 18  2  0  0  0  0
  8 17  1  0  0  0  0
  8 28  1  0  0  0  0
  8 29  1  0  0  0  0
  9 11  1  0  0  0  0
  9 13  1  0  0  0  0
  9 19  1  0  0  0  0
 10 12  1  0  0  0  0
 10 20  1  0  0  0  0
 11 12  1  0  0  0  0
 11 21  1  0  0  0  0
 12 22  1  0  0  0  0
 12 23  1  0  0  0  0
 13 14  1  0  0  0  0
 13 24  1  0  0  0  0
 15 16  1  0  0  0  0
 16 17  2  0  0  0  0
 18 27  1  0  0  0  0
M  END
> <PUBCHEM_COMPOUND_CID>
101131483

> <PUBCHEM_CONFORMER_RMSD>
0.6

> <PUBCHEM_CONFORMER_DIVERSEORDER>
1

> <PUBCHEM_MMFF94_PARTIAL_CHARGES>
22
1 -0.56
10 0.54
11 0.28
13 0.46
14 0.01
15 0.11
16 0.23
17 0.41
18 0.47
2 -0.68
25 0.4
26 0.4
27 0.15
28 0.4
29 0.4
3 -0.68
4 0.05
5 -0.57
6 -0.57
7 -0.62
8 -0.9
9 0.28

> <PUBCHEM_EFFECTIVE_ROTOR_COUNT>
0.8

> <PUBCHEM_PHARMACOPHORE_FEATURES>
13
1 1 acceptor
1 2 acceptor
1 2 donor
1 3 acceptor
1 3 donor
1 8 cation
1 8 donor
3 4 5 14 cation
3 4 6 15 cation
3 6 7 18 cation
5 4 5 14 15 16 rings
6 6 7 15 16 17 18 rings
8 1 4 9 10 11 12 13 14 rings

> <PUBCHEM_HEAVY_ATOM_COUNT>
18

> <PUBCHEM_ATOM_DEF_STEREO_COUNT>
3

> <PUBCHEM_ATOM_UDEF_STEREO_COUNT>
1

> <PUBCHEM_BOND_DEF_STEREO_COUNT>
0

> <PUBCHEM_BOND_UDEF_STEREO_COUNT>
0

> <PUBCHEM_ISOTOPIC_ATOM_COUNT>
0

> <PUBCHEM_COMPONENT_COUNT>
1

> <PUBCHEM_CACTVS_TAUTO_COUNT>
6

> <PUBCHEM_CONFORMER_ID>
060724DB00000001

> <PUBCHEM_MMFF94_ENERGY>
46.4075

> <PUBCHEM_FEATURE_SELFOVERLAP>
66.598

> <PUBCHEM_SHAPE_FINGERPRINT>
10608611 8 18339355275884321284
10618630 7 18408327691681096163
10922523 26 18338797814793362620
10967382 1 18341329002292936436
1100329 8 14158628840180762011
11132069 177 18270390698265218064
12032990 46 18339649949247936350
12251169 10 18200883971240738139
12382932 28 18341897432350580922
12730499 353 16962380562011594061
12892183 10 18129682875502315643
12932764 1 17917706911796347372
13024252 1 17894628132954617591
13140716 1 17979632665061329392
13296908 3 18335139769651495194
13581323 91 18040719172989399306
13583140 156 17170920877996659760
14144814 61 18413388722244749954
14223421 5 18410012104913937922
14790565 3 17906465676486921432
15219456 202 18411980247786232840
15309172 13 17846500322362411607
15375358 24 18335975432827088345
15375462 189 18060419135682757826
15653759 3 18260271828066613339
15775835 57 17775005734091211706
16945 1 18340201985436153636
17804303 29 18267314140134717518
17844478 74 18335145284384124497
19049666 15 18192430779432548538
19784866 170 18337961206619430192
200 152 17917139598588891159
20510252 161 18411982429756505937
20645477 70 18201429234186584022
21267235 1 18341903969644337070
21501502 16 18342732979836279108
221490 88 18339647733451123438
22721475 48 18411143549365083787
2334 1 17475788127416861276
23402539 116 18410565211208713231
23419403 2 14794930001576807339
23463225 33 18412261723079370116
23557571 272 17748826310725984516
23559900 14 18265328405271582818
25 1 17617931435878107949
2748010 2 18269269071734835940
5104073 3 18411418367379908912
598444 67 18192159204772154063
6049 1 18339368457117509630
81228 2 18114193994845705393
8809292 202 18335988575474844314
9709674 26 18340767035760795918

> <PUBCHEM_SHAPE_MULTIPOLES>
327.92
6.43
2.08
0.91
1.78
0.46
-0.03
-0.86
1.41
0.17
-0.2
-0.51
-0.01
0.93

> <PUBCHEM_SHAPE_SELFOVERLAP>
742.383

> <PUBCHEM_SHAPE_VOLUME>
167.8

> <PUBCHEM_COORDINATE_TYPE>
2
5
10

$$$$
