101182519
  -OEChem-03292013293D

 74 79  0     1  0  0  0  0  0999 V2000
    1.8455    1.9389    0.9019 O   0  0  0  0  0  0  0  0  0  0  0  0
   -0.2095    0.9474    2.5560 O   0  0  0  0  0  0  0  0  0  0  0  0
   -0.4422    2.5814   -0.3132 O   0  0  0  0  0  0  0  0  0  0  0  0
   -2.1858   -2.9434   -0.1456 O   0  0  0  0  0  0  0  0  0  0  0  0
    3.8863    0.4418   -0.7407 O   0  0  0  0  0  0  0  0  0  0  0  0
    3.9909   -1.9708    1.3307 O   0  0  0  0  0  0  0  0  0  0  0  0
   -5.3887    1.1286    0.2824 O   0  0  0  0  0  0  0  0  0  0  0  0
    4.0003    1.6763   -2.6903 O   0  0  0  0  0  0  0  0  0  0  0  0
   -2.0955   -0.8667    1.6947 N   0  0  0  0  0  0  0  0  0  0  0  0
   -0.9794   -0.8121   -0.5644 C   0  0  2  0  0  0  0  0  0  0  0  0
    0.4181   -0.7574   -1.2728 C   0  0  1  0  0  0  0  0  0  0  0  0
   -0.1523    0.5926    1.1770 C   0  0  1  0  0  0  0  0  0  0  0  0
   -1.7660    0.5461   -0.6798 C   0  0  2  0  0  0  0  0  0  0  0  0
    1.4140    0.3312   -0.8174 C   0  0  1  0  0  0  0  0  0  0  0  0
    1.3311    0.6054    0.7026 C   0  0  1  0  0  0  0  0  0  0  0  0
   -0.8050   -0.7947    0.9665 C   0  0  1  0  0  0  0  0  0  0  0  0
   -1.0897    1.5078    0.3465 C   0  0  2  0  0  0  0  0  0  0  0  0
   -3.2260    0.2538   -0.2388 C   0  0  1  0  0  0  0  0  0  0  0  0
    1.2404   -2.0702   -1.1490 C   0  0  0  0  0  0  0  0  0  0  0  0
    2.6326   -1.6632   -0.6458 C   0  0  1  0  0  0  0  0  0  0  0  0
   -1.7668   -2.0322   -1.1579 C   0  0  2  0  0  0  0  0  0  0  0  0
    2.7665   -0.2629   -1.2319 C   0  0  2  0  0  0  0  0  0  0  0  0
    2.2585   -0.3169    1.5415 C   0  0  0  0  0  0  0  0  0  0  0  0
    2.6654   -1.6495    0.8941 C   0  0  2  0  0  0  0  0  0  0  0  0
   -3.9311   -0.7281   -1.2005 C   0  0  0  0  0  0  0  0  0  0  0  0
   -2.9654   -1.5991   -1.9917 C   0  0  0  0  0  0  0  0  0  0  0  0
   -3.1621   -0.3928    1.1434 C   0  0  0  0  0  0  0  0  0  0  0  0
   -4.0980    1.5180   -0.1381 C   0  0  0  0  0  0  0  0  0  0  0  0
    1.8067    2.2887    2.2702 C   0  0  0  0  0  0  0  0  0  0  0  0
   -1.3623    3.5976   -0.6969 C   0  0  0  0  0  0  0  0  0  0  0  0
   -2.3490   -4.2533   -0.6661 C   0  0  0  0  0  0  0  0  0  0  0  0
    4.4154    1.3944   -1.5743 C   0  0  0  0  0  0  0  0  0  0  0  0
    3.9776   -2.5376    2.6295 C   0  0  0  0  0  0  0  0  0  0  0  0
   -6.2668    2.2439    0.4028 C   0  0  0  0  0  0  0  0  0  0  0  0
    5.5924    2.0570   -0.9247 C   0  0  0  0  0  0  0  0  0  0  0  0
    0.2292   -0.5957   -2.3450 H   0  0  0  0  0  0  0  0  0  0  0  0
   -1.7348    0.9390   -1.7024 H   0  0  0  0  0  0  0  0  0  0  0  0
    1.2606    1.2572   -1.3823 H   0  0  0  0  0  0  0  0  0  0  0  0
   -0.1842   -1.6151    1.3336 H   0  0  0  0  0  0  0  0  0  0  0  0
   -1.7940    1.9476    1.0586 H   0  0  0  0  0  0  0  0  0  0  0  0
    0.7760   -2.8272   -0.5100 H   0  0  0  0  0  0  0  0  0  0  0  0
    1.3355   -2.5189   -2.1466 H   0  0  0  0  0  0  0  0  0  0  0  0
    3.4071   -2.3360   -1.0308 H   0  0  0  0  0  0  0  0  0  0  0  0
   -1.1135   -2.5746   -1.8515 H   0  0  0  0  0  0  0  0  0  0  0  0
    2.8209   -0.3559   -2.3264 H   0  0  0  0  0  0  0  0  0  0  0  0
    1.8188   -0.5519    2.5177 H   0  0  0  0  0  0  0  0  0  0  0  0
    3.1934    0.2120    1.7800 H   0  0  0  0  0  0  0  0  0  0  0  0
    1.9954   -2.4420    1.2513 H   0  0  0  0  0  0  0  0  0  0  0  0
   -4.5500   -0.1892   -1.9299 H   0  0  0  0  0  0  0  0  0  0  0  0
   -4.6186   -1.3791   -0.6439 H   0  0  0  0  0  0  0  0  0  0  0  0
   -3.5170   -2.4505   -2.4025 H   0  0  0  0  0  0  0  0  0  0  0  0
   -2.6042   -1.0301   -2.8585 H   0  0  0  0  0  0  0  0  0  0  0  0
   -4.1071   -0.4919    1.7028 H   0  0  0  0  0  0  0  0  0  0  0  0
   -0.1089    0.1398    3.0871 H   0  0  0  0  0  0  0  0  0  0  0  0
   -3.7154    2.2348    0.5923 H   0  0  0  0  0  0  0  0  0  0  0  0
   -4.1600    2.0165   -1.1130 H   0  0  0  0  0  0  0  0  0  0  0  0
    2.6318    2.9983    2.4124 H   0  0  0  0  0  0  0  0  0  0  0  0
    1.9849    1.5168    3.0218 H   0  0  0  0  0  0  0  0  0  0  0  0
    0.9145    2.8858    2.4878 H   0  0  0  0  0  0  0  0  0  0  0  0
   -1.8891    3.9988    0.1742 H   0  0  0  0  0  0  0  0  0  0  0  0
   -2.0723    3.2287   -1.4408 H   0  0  0  0  0  0  0  0  0  0  0  0
   -0.7911    4.4116   -1.1522 H   0  0  0  0  0  0  0  0  0  0  0  0
   -2.6210   -4.9112    0.1645 H   0  0  0  0  0  0  0  0  0  0  0  0
   -1.4127   -4.6254   -1.0943 H   0  0  0  0  0  0  0  0  0  0  0  0
   -3.1523   -4.3036   -1.4047 H   0  0  0  0  0  0  0  0  0  0  0  0
    5.0092   -2.7737    2.9061 H   0  0  0  0  0  0  0  0  0  0  0  0
    3.4028   -3.4691    2.6439 H   0  0  0  0  0  0  0  0  0  0  0  0
    3.5828   -1.8369    3.3705 H   0  0  0  0  0  0  0  0  0  0  0  0
   -7.2458    1.8764    0.7213 H   0  0  0  0  0  0  0  0  0  0  0  0
   -6.3785    2.7484   -0.5617 H   0  0  0  0  0  0  0  0  0  0  0  0
   -5.8942    2.9449    1.1559 H   0  0  0  0  0  0  0  0  0  0  0  0
    6.3711    1.3162   -0.7273 H   0  0  0  0  0  0  0  0  0  0  0  0
    5.2773    2.5412    0.0031 H   0  0  0  0  0  0  0  0  0  0  0  0
    5.9968    2.8195   -1.5965 H   0  0  0  0  0  0  0  0  0  0  0  0
  1 15  1  0  0  0  0
  1 29  1  0  0  0  0
  2 12  1  0  0  0  0
  2 54  1  0  0  0  0
  3 17  1  0  0  0  0
  3 30  1  0  0  0  0
  4 21  1  0  0  0  0
  4 31  1  0  0  0  0
  5 22  1  0  0  0  0
  5 32  1  0  0  0  0
  6 24  1  0  0  0  0
  6 33  1  0  0  0  0
  7 28  1  0  0  0  0
  7 34  1  0  0  0  0
  8 32  2  0  0  0  0
  9 16  1  0  0  0  0
  9 27  2  0  0  0  0
 10 11  1  0  0  0  0
 10 13  1  0  0  0  0
 10 16  1  0  0  0  0
 10 21  1  0  0  0  0
 11 14  1  0  0  0  0
 11 19  1  0  0  0  0
 11 36  1  0  0  0  0
 12 15  1  0  0  0  0
 12 16  1  0  0  0  0
 12 17  1  0  0  0  0
 13 17  1  0  0  0  0
 13 18  1  0  0  0  0
 13 37  1  0  0  0  0
 14 15  1  0  0  0  0
 14 22  1  0  0  0  0
 14 38  1  0  0  0  0
 15 23  1  0  0  0  0
 16 39  1  0  0  0  0
 17 40  1  0  0  0  0
 18 25  1  0  0  0  0
 18 27  1  0  0  0  0
 18 28  1  0  0  0  0
 19 20  1  0  0  0  0
 19 41  1  0  0  0  0
 19 42  1  0  0  0  0
 20 22  1  0  0  0  0
 20 24  1  0  0  0  0
 20 43  1  0  0  0  0
 21 26  1  0  0  0  0
 21 44  1  0  0  0  0
 22 45  1  0  0  0  0
 23 24  1  0  0  0  0
 23 46  1  0  0  0  0
 23 47  1  0  0  0  0
 24 48  1  0  0  0  0
 25 26  1  0  0  0  0
 25 49  1  0  0  0  0
 25 50  1  0  0  0  0
 26 51  1  0  0  0  0
 26 52  1  0  0  0  0
 27 53  1  0  0  0  0
 28 55  1  0  0  0  0
 28 56  1  0  0  0  0
 29 57  1  0  0  0  0
 29 58  1  0  0  0  0
 29 59  1  0  0  0  0
 30 60  1  0  0  0  0
 30 61  1  0  0  0  0
 30 62  1  0  0  0  0
 31 63  1  0  0  0  0
 31 64  1  0  0  0  0
 31 65  1  0  0  0  0
 32 35  1  0  0  0  0
 33 66  1  0  0  0  0
 33 67  1  0  0  0  0
 33 68  1  0  0  0  0
 34 69  1  0  0  0  0
 34 70  1  0  0  0  0
 34 71  1  0  0  0  0
 35 72  1  0  0  0  0
 35 73  1  0  0  0  0
 35 74  1  0  0  0  0
M  END
> <PUBCHEM_COMPOUND_CID>
101182519

> <PUBCHEM_CONFORMER_RMSD>
1

> <PUBCHEM_CONFORMER_DIVERSEORDER>
1

> <PUBCHEM_MMFF94_PARTIAL_CHARGES>
28
1 -0.56
12 0.28
15 0.28
16 0.25
17 0.28
18 0.06
2 -0.68
21 0.28
22 0.28
24 0.28
27 0.33
28 0.28
29 0.28
3 -0.56
30 0.28
31 0.28
32 0.66
33 0.28
34 0.28
35 0.06
4 -0.56
5 -0.43
53 0.06
54 0.4
6 -0.56
7 -0.56
8 -0.57
9 -0.7

> <PUBCHEM_EFFECTIVE_ROTOR_COUNT>
9.6

> <PUBCHEM_PHARMACOPHORE_FEATURES>
13
1 1 acceptor
1 2 acceptor
1 2 donor
1 3 acceptor
1 4 acceptor
1 6 acceptor
1 7 acceptor
1 8 acceptor
1 9 acceptor
6 10 13 18 21 25 26 rings
8 10 11 12 13 14 15 16 17 rings
8 11 14 15 19 20 22 23 24 rings
8 9 10 12 13 16 17 18 27 rings

> <PUBCHEM_HEAVY_ATOM_COUNT>
35

> <PUBCHEM_ATOM_DEF_STEREO_COUNT>
12

> <PUBCHEM_ATOM_UDEF_STEREO_COUNT>
1

> <PUBCHEM_BOND_DEF_STEREO_COUNT>
0

> <PUBCHEM_BOND_UDEF_STEREO_COUNT>
0

> <PUBCHEM_ISOTOPIC_ATOM_COUNT>
0

> <PUBCHEM_COMPONENT_COUNT>
1

> <PUBCHEM_CACTVS_TAUTO_COUNT>
2

> <PUBCHEM_CONFORMER_ID>
0607EC3700000001

> <PUBCHEM_MMFF94_ENERGY>
203.0905

> <PUBCHEM_FEATURE_SELFOVERLAP>
67.401

> <PUBCHEM_SHAPE_FINGERPRINT>
10863032 1 17749399160726728802
11578080 2 17386875904846199024
12035758 1 18057588890121995137
12156800 1 15325238718628707470
12422481 6 17762066432764918409
12553582 1 17703240549948093674
12633257 1 18129929105528943563
12788726 201 18270408165723865465
13140716 1 18200296818956810307
13224815 77 18272089443598561902
13726171 33 18199764681019792256
14223421 5 17771055287734289747
14790565 3 18197792011558409333
15238133 3 18200869591458135386
16728300 4 17322652095134174979
16945 1 17917715681993004363
1813 80 17898845743885650594
19319366 153 18040150695513451339
20642791 239 18200046147581018440
20691752 17 18266440152680592109
22182313 1 17629760334003481074
22393880 68 17916864745713279108
23419403 2 16553346026785893707
23559900 14 17916586423728321934
34934 24 18335428983979983804
4340502 62 16226060989268762873
70251023 43 17412465010716690687

> <PUBCHEM_SHAPE_MULTIPOLES>
668.35
9.31
3.66
2.17
1.71
1
0.6
-3.62
-1.23
0.96
-0.25
-2.14
0.07
-2.35

> <PUBCHEM_SHAPE_SELFOVERLAP>
1466.963

> <PUBCHEM_SHAPE_VOLUME>
356.6

> <PUBCHEM_COORDINATE_TYPE>
2
5
10

$$$$
