101105
  -OEChem-03292013323D

 37 38  0     1  0  0  0  0  0999 V2000
    0.2203   -2.3534   -0.4077 S   0  0  0  0  0  0  0  0  0  0  0  0
    0.4637    2.3236   -0.2892 O   0  0  0  0  0  0  0  0  0  0  0  0
    4.7897   -2.0618    0.1130 O   0  0  0  0  0  0  0  0  0  0  0  0
   -1.1647    2.0748    1.3204 O   0  0  0  0  0  0  0  0  0  0  0  0
    4.2672    0.1226   -0.2764 O   0  0  0  0  0  0  0  0  0  0  0  0
    1.6922   -0.2424    0.2920 N   0  0  0  0  0  0  0  0  0  0  0  0
    0.3079   -0.7256    0.4045 C   0  0  1  0  0  0  0  0  0  0  0  0
   -0.6695    0.2502   -0.2353 C   0  0  1  0  0  0  0  0  0  0  0  0
    2.5463   -1.4348    0.3825 C   0  0  1  0  0  0  0  0  0  0  0  0
    2.0143   -2.4707   -0.5971 C   0  0  0  0  0  0  0  0  0  0  0  0
   -2.1130   -0.2344   -0.1693 C   0  0  0  0  0  0  0  0  0  0  0  0
   -0.5188    1.6424    0.3746 C   0  0  0  0  0  0  0  0  0  0  0  0
    3.9362   -1.0115    0.0363 C   0  0  0  0  0  0  0  0  0  0  0  0
   -2.5266   -0.9426    0.9392 C   0  0  0  0  0  0  0  0  0  0  0  0
   -2.9588    0.0506   -1.2203 C   0  0  0  0  0  0  0  0  0  0  0  0
   -3.8476   -1.3866    0.9995 C   0  0  0  0  0  0  0  0  0  0  0  0
   -4.2798   -0.3931   -1.1600 C   0  0  0  0  0  0  0  0  0  0  0  0
   -4.7241   -1.1119   -0.0501 C   0  0  0  0  0  0  0  0  0  0  0  0
    0.7304    3.6460    0.1889 C   0  0  0  0  0  0  0  0  0  0  0  0
    1.8348    4.2588   -0.6456 C   0  0  0  0  0  0  0  0  0  0  0  0
    0.1161   -0.8678    1.4734 H   0  0  0  0  0  0  0  0  0  0  0  0
   -0.4188    0.3518   -1.3036 H   0  0  0  0  0  0  0  0  0  0  0  0
    2.5461   -1.8110    1.4143 H   0  0  0  0  0  0  0  0  0  0  0  0
    1.9034    0.4099    1.0461 H   0  0  0  0  0  0  0  0  0  0  0  0
    2.2865   -2.2461   -1.6340 H   0  0  0  0  0  0  0  0  0  0  0  0
    2.3601   -3.4800   -0.3552 H   0  0  0  0  0  0  0  0  0  0  0  0
   -1.8934   -1.1474    1.7938 H   0  0  0  0  0  0  0  0  0  0  0  0
   -2.6226    0.6115   -2.0869 H   0  0  0  0  0  0  0  0  0  0  0  0
   -4.1965   -1.9388    1.8672 H   0  0  0  0  0  0  0  0  0  0  0  0
   -4.9628   -0.1782   -1.9766 H   0  0  0  0  0  0  0  0  0  0  0  0
   -5.7533   -1.4556   -0.0022 H   0  0  0  0  0  0  0  0  0  0  0  0
   -0.1772    4.2542    0.1062 H   0  0  0  0  0  0  0  0  0  0  0  0
    1.0426    3.5981    1.2381 H   0  0  0  0  0  0  0  0  0  0  0  0
    5.7089   -1.8043   -0.1128 H   0  0  0  0  0  0  0  0  0  0  0  0
    2.0658    5.2722   -0.3058 H   0  0  0  0  0  0  0  0  0  0  0  0
    2.7435    3.6503   -0.5879 H   0  0  0  0  0  0  0  0  0  0  0  0
    1.5445    4.2968   -1.7007 H   0  0  0  0  0  0  0  0  0  0  0  0
  1  7  1  0  0  0  0
  1 10  1  0  0  0  0
  2 12  1  0  0  0  0
  2 19  1  0  0  0  0
  3 13  1  0  0  0  0
  3 34  1  0  0  0  0
  4 12  2  0  0  0  0
  5 13  2  0  0  0  0
  6  7  1  0  0  0  0
  6  9  1  0  0  0  0
  6 24  1  0  0  0  0
  7  8  1  0  0  0  0
  7 21  1  0  0  0  0
  8 11  1  0  0  0  0
  8 12  1  0  0  0  0
  8 22  1  0  0  0  0
  9 10  1  0  0  0  0
  9 13  1  0  0  0  0
  9 23  1  0  0  0  0
 10 25  1  0  0  0  0
 10 26  1  0  0  0  0
 11 14  2  0  0  0  0
 11 15  1  0  0  0  0
 14 16  1  0  0  0  0
 14 27  1  0  0  0  0
 15 17  2  0  0  0  0
 15 28  1  0  0  0  0
 16 18  2  0  0  0  0
 16 29  1  0  0  0  0
 17 18  1  0  0  0  0
 17 30  1  0  0  0  0
 18 31  1  0  0  0  0
 19 20  1  0  0  0  0
 19 32  1  0  0  0  0
 19 33  1  0  0  0  0
 20 35  1  0  0  0  0
 20 36  1  0  0  0  0
 20 37  1  0  0  0  0
M  END
> <PUBCHEM_COMPOUND_CID>
101105

> <PUBCHEM_CONFORMER_RMSD>
0.8

> <PUBCHEM_CONFORMER_DIVERSEORDER>
1
134
79
60
112
101
9
13
30
33
128
27
113
124
74
93
110
42
94
85
28
34
129
98
108
57
73
62
95
81
83
96
106
120
69
122
118
86
47
116
31
22
119
117
72
87
141
135
143
64
82
40
38
103
76
32
140
92
46
105
123
139
125
49
78
121
4
99
142
68
26
50
17
84
71
109
5
130
114
44
104
138
39
58
136
53
70
127
48
19
133
52
10
11
126
115
56
137
16
15
63
25
65
54
75
7
24
36
45
29
88
67
21
107
43
59
91
18
51
12
6
2
37
90
61
35
97
80
131
23
100
41
77
20
66
3
89
111
132
102
14
8
55

> <PUBCHEM_MMFF94_PARTIAL_CHARGES>
26
1 -0.46
10 0.23
11 -0.14
12 0.66
13 0.66
14 -0.15
15 -0.15
16 -0.15
17 -0.15
18 -0.15
19 0.28
2 -0.43
24 0.36
27 0.15
28 0.15
29 0.15
3 -0.65
30 0.15
31 0.15
34 0.5
4 -0.57
5 -0.57
6 -0.9
7 0.5
8 0.2
9 0.33

> <PUBCHEM_EFFECTIVE_ROTOR_COUNT>
7

> <PUBCHEM_PHARMACOPHORE_FEATURES>
8
1 3 acceptor
1 4 acceptor
1 5 acceptor
1 6 cation
1 6 donor
3 3 5 13 anion
5 1 6 7 9 10 rings
6 11 14 15 16 17 18 rings

> <PUBCHEM_HEAVY_ATOM_COUNT>
20

> <PUBCHEM_ATOM_DEF_STEREO_COUNT>
0

> <PUBCHEM_ATOM_UDEF_STEREO_COUNT>
3

> <PUBCHEM_BOND_DEF_STEREO_COUNT>
0

> <PUBCHEM_BOND_UDEF_STEREO_COUNT>
0

> <PUBCHEM_ISOTOPIC_ATOM_COUNT>
0

> <PUBCHEM_COMPONENT_COUNT>
1

> <PUBCHEM_CACTVS_TAUTO_COUNT>
1

> <PUBCHEM_CONFORMER_ID>
00018AF100000001

> <PUBCHEM_MMFF94_ENERGY>
42.1274

> <PUBCHEM_FEATURE_SELFOVERLAP>
40.652

> <PUBCHEM_SHAPE_FINGERPRINT>
10670039 82 18265067864587543622
1100329 8 18123190362461587240
11045515 52 18261108526266437380
12236239 1 17275383218678032831
12553582 1 18340223911312985723
12788726 201 17903342720003076553
13140716 1 17764022863161222160
13911987 19 18408608071504950766
14787075 74 18115033025091432090
15230672 131 17541383883921310404
15502722 9 18191868040259689429
15927050 60 17692821797228658966
167882 2 18192428799479206852
17357779 13 18270667684879694109
1813 80 18130799940086313175
18785283 64 18044941422262948801
19591789 44 17474113575339084992
200 152 18411413977707514855
20645477 70 18192136304275375423
20671657 53 18410857659288762277
21029758 11 18410007728379193067
21029758 27 18411139129928229791
21041028 32 18341901792375506081
21304303 282 16890846382377749420
221490 88 18119812658235706299
22182313 1 18266713884048208576
23175994 123 18408887317598998703
23402539 116 18341607062591753454
23419403 2 17969482952786903677
23526113 38 18187919561018615419
23557571 272 18194964037380523470
23558518 356 17830182303091771066
23559900 14 18337380639137266193
2748010 2 18268406002304471984
312423 11 18194691367287833310
3298306 158 17974574898810373436
3729539 64 18047216273609458228
458136 41 17904211673702445425
532947 4 18195525015991908972
7364860 26 18266177416783655773
81228 2 18052253999384787313
9981440 41 13845103885098888783

> <PUBCHEM_SHAPE_MULTIPOLES>
386.98
7.95
4.03
1.01
0.91
5.34
0
-4.95
0.65
-4.36
0.32
0.8
0.05
-0.01

> <PUBCHEM_SHAPE_SELFOVERLAP>
794.379

> <PUBCHEM_SHAPE_VOLUME>
223.5

> <PUBCHEM_COORDINATE_TYPE>
2
5
10

$$$$
