101194921
  -OEChem-03292013293D

 44 47  0     1  0  0  0  0  0999 V2000
    0.3428    2.6192   -1.1681 S   0  0  0  0  0  0  0  0  0  0  0  0
    3.4082    2.6235   -1.2676 S   0  0  0  0  0  0  0  0  0  0  0  0
   -3.8891    0.3637    1.8470 O   0  0  0  0  0  0  0  0  0  0  0  0
   -3.8272   -2.9133   -1.4927 O   0  0  0  0  0  0  0  0  0  0  0  0
   -1.3330    3.1750    1.7033 O   0  5  0  0  0  0  0  0  0  0  0  0
   -0.2915    1.4309    2.7553 O   0  0  0  0  0  0  0  0  0  0  0  0
   -1.9008   -0.0047    0.6357 N   0  0  0  0  0  0  0  0  0  0  0  0
    2.0109    0.6001   -0.4701 N   0  0  0  0  0  0  0  0  0  0  0  0
    5.0702   -2.9040    0.8506 N   0  0  0  0  0  0  0  0  0  0  0  0
   -1.9715   -0.6703   -0.6778 C   0  0  1  0  0  0  0  0  0  0  0  0
   -3.5158   -0.7879   -0.4099 C   0  0  2  0  0  0  0  0  0  0  0  0
   -1.2321    0.3003   -1.6215 C   0  0  2  0  0  0  0  0  0  0  0  0
   -3.2250   -0.0734    0.9347 C   0  0  0  0  0  0  0  0  0  0  0  0
   -4.0746   -2.1928   -0.2886 C   0  0  1  0  0  0  0  0  0  0  0  0
   -0.6853    1.3401   -0.6590 C   0  0  0  0  0  0  0  0  0  0  0  0
   -1.1306    1.1211    0.5852 C   0  0  0  0  0  0  0  0  0  0  0  0
   -2.1632    0.8603   -2.6889 C   0  0  0  0  0  0  0  0  0  0  0  0
   -5.5762   -2.1606   -0.0347 C   0  0  0  0  0  0  0  0  0  0  0  0
   -0.8948    1.9957    1.8018 C   0  0  0  0  0  0  0  0  0  0  0  0
    1.9254    1.8304   -0.9252 C   0  0  0  0  0  0  0  0  0  0  0  0
    3.3437    0.2485   -0.3816 C   0  0  0  0  0  0  0  0  0  0  0  0
    3.7060   -1.0930    0.1081 C   0  0  0  0  0  0  0  0  0  0  0  0
    5.1225   -1.5698    0.2226 C   0  0  0  0  0  0  0  0  0  0  0  0
    4.2488    1.2140   -0.7697 C   0  0  0  0  0  0  0  0  0  0  0  0
    3.6496   -3.2799    0.9119 C   0  0  0  0  0  0  0  0  0  0  0  0
    2.8827   -2.0731    0.4992 C   0  0  0  0  0  0  0  0  0  0  0  0
   -1.4517   -1.6390   -0.6400 H   0  0  0  0  0  0  0  0  0  0  0  0
   -4.1210   -0.1652   -1.0804 H   0  0  0  0  0  0  0  0  0  0  0  0
   -0.4010   -0.2295   -2.1039 H   0  0  0  0  0  0  0  0  0  0  0  0
   -3.5757   -2.7367    0.5221 H   0  0  0  0  0  0  0  0  0  0  0  0
   -2.6472    0.0498   -3.2443 H   0  0  0  0  0  0  0  0  0  0  0  0
   -1.6096    1.4737   -3.4078 H   0  0  0  0  0  0  0  0  0  0  0  0
   -2.9498    1.4884   -2.2565 H   0  0  0  0  0  0  0  0  0  0  0  0
   -6.1031   -1.6757   -0.8642 H   0  0  0  0  0  0  0  0  0  0  0  0
   -5.8156   -1.6210    0.8864 H   0  0  0  0  0  0  0  0  0  0  0  0
   -5.9756   -3.1775    0.0421 H   0  0  0  0  0  0  0  0  0  0  0  0
   -4.1848   -3.8102   -1.3775 H   0  0  0  0  0  0  0  0  0  0  0  0
    5.5887   -1.6497   -0.7653 H   0  0  0  0  0  0  0  0  0  0  0  0
    5.7236   -0.8950    0.8417 H   0  0  0  0  0  0  0  0  0  0  0  0
    5.3290    1.1738   -0.7893 H   0  0  0  0  0  0  0  0  0  0  0  0
    3.3787   -3.5847    1.9278 H   0  0  0  0  0  0  0  0  0  0  0  0
    3.4510   -4.1136    0.2312 H   0  0  0  0  0  0  0  0  0  0  0  0
    1.8034   -2.0175    0.5100 H   0  0  0  0  0  0  0  0  0  0  0  0
    5.4377   -2.8376    1.8001 H   0  0  0  0  0  0  0  0  0  0  0  0
  1 15  1  0  0  0  0
  1 20  1  0  0  0  0
  2 20  1  0  0  0  0
  2 24  1  0  0  0  0
  3 13  2  0  0  0  0
  4 14  1  0  0  0  0
  4 37  1  0  0  0  0
  5 19  1  0  0  0  0
  6 19  2  0  0  0  0
  7 10  1  0  0  0  0
  7 13  1  0  0  0  0
  7 16  1  0  0  0  0
  8 20  2  0  0  0  0
  8 21  1  0  0  0  0
  9 23  1  0  0  0  0
  9 25  1  0  0  0  0
  9 44  1  0  0  0  0
 10 11  1  0  0  0  0
 10 12  1  0  0  0  0
 10 27  1  0  0  0  0
 11 13  1  0  0  0  0
 11 14  1  0  0  0  0
 11 28  1  0  0  0  0
 12 15  1  0  0  0  0
 12 17  1  0  0  0  0
 12 29  1  0  0  0  0
 14 18  1  0  0  0  0
 14 30  1  0  0  0  0
 15 16  2  0  0  0  0
 16 19  1  0  0  0  0
 17 31  1  0  0  0  0
 17 32  1  0  0  0  0
 17 33  1  0  0  0  0
 18 34  1  0  0  0  0
 18 35  1  0  0  0  0
 18 36  1  0  0  0  0
 21 22  1  0  0  0  0
 21 24  2  0  0  0  0
 22 23  1  0  0  0  0
 22 26  2  0  0  0  0
 23 38  1  0  0  0  0
 23 39  1  0  0  0  0
 24 40  1  0  0  0  0
 25 26  1  0  0  0  0
 25 41  1  0  0  0  0
 25 42  1  0  0  0  0
 26 43  1  0  0  0  0
M  CHG  1   5  -1
M  END
> <PUBCHEM_COMPOUND_CID>
101194921

> <PUBCHEM_CONFORMER_RMSD>
0.8

> <PUBCHEM_CONFORMER_DIVERSEORDER>
1
67
57
9
61
89
125
28
32
77
107
118
66
60
103
5
93
104
21
23
38
91
106
90
45
44
25
54
20
113
117
26
122
102
65
114
48
22
19
50
109
11
41
99
16
47
14
84
112
95
97
59
2
119
83
85
30
123
120
56
100
68
51
79
87
86
62
52
70
71
43
105
3
76
35
40
37
121
75
49
115
92
46
29
96
13
36
81
116
108
94
7
73
63
24
88
58
53
34
78
12
18
42
4
10
111
6
110
124
64
80
8
74
31
27
69
101
39
82
15
98
72
17
55
33

> <PUBCHEM_MMFF94_PARTIAL_CHARGES>
28
1 -0.16
10 0.22
11 0.05
12 0.14
13 0.58
14 0.28
15 -0.04
16 -0.14
19 1.05
2 -0.08
20 0.43
21 0.18
22 -0.09
23 0.41
24 -0.11
25 0.41
26 -0.29
3 -0.57
37 0.4
4 -0.68
40 0.15
43 0.15
44 0.36
5 -0.9
6 -0.9
7 -0.39
8 -0.57
9 -0.9

> <PUBCHEM_EFFECTIVE_ROTOR_COUNT>
6

> <PUBCHEM_PHARMACOPHORE_FEATURES>
12
1 3 acceptor
1 4 acceptor
1 4 donor
1 5 acceptor
1 6 acceptor
1 8 acceptor
1 9 cation
1 9 donor
3 5 6 19 anion
5 2 8 20 21 24 rings
5 9 22 23 25 26 rings
7 7 10 11 12 13 15 16 rings

> <PUBCHEM_HEAVY_ATOM_COUNT>
26

> <PUBCHEM_ATOM_DEF_STEREO_COUNT>
4

> <PUBCHEM_ATOM_UDEF_STEREO_COUNT>
0

> <PUBCHEM_BOND_DEF_STEREO_COUNT>
0

> <PUBCHEM_BOND_UDEF_STEREO_COUNT>
0

> <PUBCHEM_ISOTOPIC_ATOM_COUNT>
0

> <PUBCHEM_COMPONENT_COUNT>
1

> <PUBCHEM_CACTVS_TAUTO_COUNT>
2

> <PUBCHEM_CONFORMER_ID>
06081CA900000001

> <PUBCHEM_MMFF94_ENERGY>
67.0269

> <PUBCHEM_FEATURE_SELFOVERLAP>
60.951

> <PUBCHEM_SHAPE_FINGERPRINT>
10074138 170 17559687139832467889
10764073 3 16380884050188598065
11552529 35 18126840496273923034
11578080 2 18200008742632047377
11796584 16 17985560076887069823
12107183 9 18265340495530811233
12553582 1 17973170522330534966
12596599 1 18197789791086132462
12596602 18 18060144267035739232
12788726 201 18059591199184783745
12824470 246 18412826884661659816
13009979 54 18272654494249790466
13533116 47 18338237192992037191
13726171 33 17058960877178650088
13911987 19 17535210039830484964
14787075 74 17769945897745289748
14844126 61 16887780914532971338
15099037 8 18410577245416809304
15475509 35 17982450700895720315
15475509 8 17240473698989696311
16728300 4 18191319182610697875
17138139 8 17623851631720551494
19319366 153 18051693545039200916
20645477 70 17822847701398173076
20775530 9 18338221709424282794
21033648 29 14836138645282647771
21285901 2 17023454377998853647
21421861 104 18196960844706185569
23559900 14 18115009836958451924
23598288 3 17988082184177128036
345986 75 18201723976533309281
463206 1 18187928455595464526
484985 159 17901098621128972142
56633871 153 17905051352567121506
57527295 17 16878774994624232354
70251023 43 18040432170458357130
9709674 26 17749107803088143092

> <PUBCHEM_SHAPE_MULTIPOLES>
504.35
10.37
3.87
1.97
1.06
1.34
-0.59
9.88
0.68
2.92
-0.17
-1.76
-1.26
-2.44

> <PUBCHEM_SHAPE_SELFOVERLAP>
1063.614

> <PUBCHEM_SHAPE_VOLUME>
286.6

> <PUBCHEM_COORDINATE_TYPE>
2
5
10

$$$$
