101109862
  -OEChem-03292013293D

 52 55  0     1  0  0  0  0  0999 V2000
    2.9154   -0.8855    0.4899 O   0  0  0  0  0  0  0  0  0  0  0  0
   -2.8097   -2.1189    0.7033 O   0  0  0  0  0  0  0  0  0  0  0  0
    0.2167    1.1591    2.5392 O   0  0  0  0  0  0  0  0  0  0  0  0
   -4.1413    1.7802   -0.0940 O   0  0  0  0  0  0  0  0  0  0  0  0
    1.2268   -1.4304    1.9285 O   0  0  0  0  0  0  0  0  0  0  0  0
    6.5102    1.3360   -1.3610 O   0  0  0  0  0  0  0  0  0  0  0  0
   -2.4501   -4.1991   -1.3037 O   0  0  0  0  0  0  0  0  0  0  0  0
   -3.8357    3.4588   -1.6512 O   0  0  0  0  0  0  0  0  0  0  0  0
    0.9349    0.4179    0.3465 C   0  0  2  0  0  0  0  0  0  0  0  0
    2.1134    1.1645   -0.2805 C   0  0  0  0  0  0  0  0  0  0  0  0
   -0.0134   -0.1625   -0.7268 C   0  0  0  0  0  0  0  0  0  0  0  0
    3.1195    0.0666   -0.5630 C   0  0  1  0  0  0  0  0  0  0  0  0
    0.2056    1.3520    1.3216 C   0  0  0  0  0  0  0  0  0  0  0  0
   -1.2924   -0.6962   -0.1633 C   0  0  0  0  0  0  0  0  0  0  0  0
    1.6694   -0.7259    1.0330 C   0  0  0  0  0  0  0  0  0  0  0  0
   -0.5438    2.5400    0.7471 C   0  0  0  0  0  0  0  0  0  0  0  0
   -2.7363    1.5000   -0.1138 C   0  0  1  0  0  0  0  0  0  0  0  0
   -2.0570    2.4158    0.9179 C   0  0  0  0  0  0  0  0  0  0  0  0
   -2.4887    0.0409    0.1236 C   0  0  0  0  0  0  0  0  0  0  0  0
    4.5441    0.5589   -0.5978 C   0  0  0  0  0  0  0  0  0  0  0  0
   -1.5573   -2.0004    0.2009 C   0  0  0  0  0  0  0  0  0  0  0  0
   -3.3655   -0.8839    0.6580 C   0  0  0  0  0  0  0  0  0  0  0  0
   -0.7706   -3.2427    0.1501 C   0  0  0  0  0  0  0  0  0  0  0  0
    5.4197    0.7138    0.5034 C   0  0  0  0  0  0  0  0  0  0  0  0
    5.2545    0.9505   -1.7087 C   0  0  0  0  0  0  0  0  0  0  0  0
    6.6026    1.1890   -0.0131 C   0  0  0  0  0  0  0  0  0  0  0  0
   -1.4032   -4.3636   -0.6787 C   0  0  0  0  0  0  0  0  0  0  0  0
   -4.5475    2.7883   -0.9159 C   0  0  0  0  0  0  0  0  0  0  0  0
   -0.6901   -5.6911   -0.7006 C   0  0  0  0  0  0  0  0  0  0  0  0
   -6.0302    2.9680   -0.7908 C   0  0  0  0  0  0  0  0  0  0  0  0
    2.5233    1.8941    0.4319 H   0  0  0  0  0  0  0  0  0  0  0  0
    1.8525    1.7222   -1.1868 H   0  0  0  0  0  0  0  0  0  0  0  0
    0.4871   -0.9568   -1.2955 H   0  0  0  0  0  0  0  0  0  0  0  0
   -0.2572    0.6099   -1.4673 H   0  0  0  0  0  0  0  0  0  0  0  0
    2.8931   -0.4426   -1.5084 H   0  0  0  0  0  0  0  0  0  0  0  0
   -0.1856    3.4221    1.2923 H   0  0  0  0  0  0  0  0  0  0  0  0
   -0.2757    2.7020   -0.3010 H   0  0  0  0  0  0  0  0  0  0  0  0
   -2.3416    1.7236   -1.1141 H   0  0  0  0  0  0  0  0  0  0  0  0
   -2.3053    2.0804    1.9335 H   0  0  0  0  0  0  0  0  0  0  0  0
   -2.4814    3.4245    0.8320 H   0  0  0  0  0  0  0  0  0  0  0  0
   -4.3788   -0.8196    1.0278 H   0  0  0  0  0  0  0  0  0  0  0  0
    0.2231   -3.0584   -0.2706 H   0  0  0  0  0  0  0  0  0  0  0  0
   -0.6377   -3.6229    1.1695 H   0  0  0  0  0  0  0  0  0  0  0  0
    5.2186    0.5086    1.5452 H   0  0  0  0  0  0  0  0  0  0  0  0
    5.0232    1.0115   -2.7623 H   0  0  0  0  0  0  0  0  0  0  0  0
    7.5536    1.4588    0.4223 H   0  0  0  0  0  0  0  0  0  0  0  0
   -0.6364   -6.0931    0.3140 H   0  0  0  0  0  0  0  0  0  0  0  0
   -1.2382   -6.3952   -1.3328 H   0  0  0  0  0  0  0  0  0  0  0  0
    0.3152   -5.5583   -1.1078 H   0  0  0  0  0  0  0  0  0  0  0  0
   -6.5414    2.0482   -1.0860 H   0  0  0  0  0  0  0  0  0  0  0  0
   -6.3549    3.7749   -1.4540 H   0  0  0  0  0  0  0  0  0  0  0  0
   -6.2854    3.2380    0.2370 H   0  0  0  0  0  0  0  0  0  0  0  0
  1 12  1  0  0  0  0
  1 15  1  0  0  0  0
  2 21  1  0  0  0  0
  2 22  1  0  0  0  0
  3 13  2  0  0  0  0
  4 17  1  0  0  0  0
  4 28  1  0  0  0  0
  5 15  2  0  0  0  0
  6 25  1  0  0  0  0
  6 26  1  0  0  0  0
  7 27  2  0  0  0  0
  8 28  2  0  0  0  0
  9 10  1  0  0  0  0
  9 11  1  0  0  0  0
  9 13  1  0  0  0  0
  9 15  1  0  0  0  0
 10 12  1  0  0  0  0
 10 31  1  0  0  0  0
 10 32  1  0  0  0  0
 11 14  1  0  0  0  0
 11 33  1  0  0  0  0
 11 34  1  0  0  0  0
 12 20  1  0  0  0  0
 12 35  1  0  0  0  0
 13 16  1  0  0  0  0
 14 19  1  0  0  0  0
 14 21  2  0  0  0  0
 16 18  1  0  0  0  0
 16 36  1  0  0  0  0
 16 37  1  0  0  0  0
 17 18  1  0  0  0  0
 17 19  1  0  0  0  0
 17 38  1  0  0  0  0
 18 39  1  0  0  0  0
 18 40  1  0  0  0  0
 19 22  2  0  0  0  0
 20 24  1  0  0  0  0
 20 25  2  0  0  0  0
 21 23  1  0  0  0  0
 22 41  1  0  0  0  0
 23 27  1  0  0  0  0
 23 42  1  0  0  0  0
 23 43  1  0  0  0  0
 24 26  2  0  0  0  0
 24 44  1  0  0  0  0
 25 45  1  0  0  0  0
 26 46  1  0  0  0  0
 27 29  1  0  0  0  0
 28 30  1  0  0  0  0
 29 47  1  0  0  0  0
 29 48  1  0  0  0  0
 29 49  1  0  0  0  0
 30 50  1  0  0  0  0
 30 51  1  0  0  0  0
 30 52  1  0  0  0  0
M  END
> <PUBCHEM_COMPOUND_CID>
101109862

> <PUBCHEM_CONFORMER_RMSD>
0.8

> <PUBCHEM_CONFORMER_DIVERSEORDER>
1
167
27
117
183
57
41
91
136
160
116
54
179
83
108
11
106
7
170
103
154
168
68
182
88
133
80
58
126
166
109
150
161
47
84
94
99
115
172
17
163
177
159
60
92
65
171
148
101
43
55
15
72
48
175
25
95
98
4
128
73
19
21
178
144
44
46
114
125
45
180
74
100
75
137
52
129
176
3
145
110
127
152
134
132
86
8
153
10
156
42
29
155
78
71
93
38
6
102
130
140
147
149
53
181
22
31
139
120
20
121
2
18
96
49
157
50
138
63
76
39
124
13
162
97
131
104
151
28
12
87
77
51
164
119
70
123
135
56
64
9
37
69
79
40
105
146
112
174
85
107
16
5
111
30
118
66
90
143
67
26
14
113
173
61
59
24
158
34
36
165
82
32
142
35
89
184
81
169
23
33
122
62
141

> <PUBCHEM_MMFF94_PARTIAL_CHARGES>
32
1 -0.43
11 0.18
12 0.46
13 0.45
14 -0.18
15 0.66
16 0.06
17 0.46
19 -0.18
2 -0.28
20 -0.18
21 -0.04
22 -0.01
23 0.24
24 -0.15
25 -0.01
26 -0.01
27 0.45
28 0.66
29 0.06
3 -0.57
30 0.06
4 -0.43
41 0.15
44 0.15
45 0.15
46 0.15
5 -0.57
6 -0.28
7 -0.57
8 -0.57
9 0.12

> <PUBCHEM_EFFECTIVE_ROTOR_COUNT>
6.4

> <PUBCHEM_PHARMACOPHORE_FEATURES>
9
1 2 acceptor
1 3 acceptor
1 5 acceptor
1 6 acceptor
1 7 acceptor
1 8 acceptor
5 1 9 10 12 15 rings
5 2 14 19 21 22 rings
5 6 20 24 25 26 rings

> <PUBCHEM_HEAVY_ATOM_COUNT>
30

> <PUBCHEM_ATOM_DEF_STEREO_COUNT>
2

> <PUBCHEM_ATOM_UDEF_STEREO_COUNT>
1

> <PUBCHEM_BOND_DEF_STEREO_COUNT>
0

> <PUBCHEM_BOND_UDEF_STEREO_COUNT>
0

> <PUBCHEM_ISOTOPIC_ATOM_COUNT>
0

> <PUBCHEM_COMPONENT_COUNT>
1

> <PUBCHEM_CACTVS_TAUTO_COUNT>
12

> <PUBCHEM_CONFORMER_ID>
0606D06600000001

> <PUBCHEM_MMFF94_ENERGY>
42.8026

> <PUBCHEM_FEATURE_SELFOVERLAP>
45.681

> <PUBCHEM_SHAPE_FINGERPRINT>
10165383 225 18341060640426783617
10290309 65 18341345404662939342
10411042 1 17763464315127779446
10675989 125 17979075985480624092
11297750 10 17841424040522779851
12293681 160 18060135388605492720
12553582 1 18123745615180357202
12788726 201 18263634233440996011
12895836 83 18334854996177324661
12895837 130 18041009487484157116
13690498 29 18124042492336643686
13911987 19 18339640032569993837
14114206 34 17899963117485864571
14114211 80 18271531875766527329
14251757 5 18269844258145327634
14659021 117 17978221987685782506
14790565 3 18196376926718060089
14856354 85 17533238559040204179
15463212 79 18187079564051715296
16087824 20 18337390557019489287
16988056 13 16677239774266602517
19427546 20 18266185109587086972
19958102 18 18198920123546762308
20511986 3 17895182304058754680
20775438 99 16977261833554635463
23559900 14 18201444654079128940
249057 3 18265051337268960446
255183 451 17407121431302776270
34934 24 17968095278960937304
394222 165 17897439493380715594
4015057 19 16630520773941618064
4409770 3 18410576227641545799
484989 97 18265890458004133487
5265222 85 18411140255537014421
6898599 12 18336270149362514228
70251023 43 17692813009383634842
9981440 41 18337958874747405969

> <PUBCHEM_SHAPE_MULTIPOLES>
570.43
11.52
5.51
1.46
14.57
9.15
-0.3
-11.96
5.08
-8.18
2.05
0.36
-0.45
0.3

> <PUBCHEM_SHAPE_SELFOVERLAP>
1238.05

> <PUBCHEM_SHAPE_VOLUME>
311.5

> <PUBCHEM_COORDINATE_TYPE>
2
5
10

$$$$
