10110427
  -OEChem-03292013303D

 39 41  0     0  0  0  0  0  0999 V2000
    4.7737   -1.6030   -0.0542 S   0  0  0  0  0  0  0  0  0  0  0  0
   -5.4724   -1.1541    0.0585 F   0  0  0  0  0  0  0  0  0  0  0  0
   -4.4310   -2.7297   -1.0180 F   0  0  0  0  0  0  0  0  0  0  0  0
   -4.3817   -2.6866    1.1608 F   0  0  0  0  0  0  0  0  0  0  0  0
    5.0781   -2.4889   -1.1690 O   0  0  0  0  0  0  0  0  0  0  0  0
    5.4614   -0.3247    0.0625 O   0  0  0  0  0  0  0  0  0  0  0  0
   -1.0605   -0.6094    0.0013 N   0  0  0  0  0  0  0  0  0  0  0  0
   -1.9087   -1.6518    0.0237 N   0  0  0  0  0  0  0  0  0  0  0  0
    4.9709   -2.4671    1.4066 N   0  0  0  0  0  0  0  0  0  0  0  0
    1.0070    5.5691   -0.0987 N   0  0  0  0  0  0  0  0  0  0  0  0
   -1.6793    0.6079   -0.0068 C   0  0  0  0  0  0  0  0  0  0  0  0
    0.3157   -0.8440   -0.0111 C   0  0  0  0  0  0  0  0  0  0  0  0
   -0.9927    1.8762   -0.0299 C   0  0  0  0  0  0  0  0  0  0  0  0
   -3.0279    0.3394    0.0111 C   0  0  0  0  0  0  0  0  0  0  0  0
   -3.1090   -1.0659    0.0296 C   0  0  0  0  0  0  0  0  0  0  0  0
    1.1723    0.0796    0.5722 C   0  0  0  0  0  0  0  0  0  0  0  0
    0.8074   -1.9971   -0.6074 C   0  0  0  0  0  0  0  0  0  0  0  0
    3.0524   -1.3100   -0.0375 C   0  0  0  0  0  0  0  0  0  0  0  0
    2.5473   -0.1545    0.5588 C   0  0  0  0  0  0  0  0  0  0  0  0
    2.1823   -2.2313   -0.6206 C   0  0  0  0  0  0  0  0  0  0  0  0
   -0.6476    2.5046    1.1666 C   0  0  0  0  0  0  0  0  0  0  0  0
   -0.6738    2.4742   -1.2491 C   0  0  0  0  0  0  0  0  0  0  0  0
   -4.3265   -1.8936    0.0542 C   0  0  0  0  0  0  0  0  0  0  0  0
    0.0165    3.7311    1.1437 C   0  0  0  0  0  0  0  0  0  0  0  0
   -0.0096    3.7005   -1.2719 C   0  0  0  0  0  0  0  0  0  0  0  0
    0.3355    4.3291   -0.0754 C   0  0  0  0  0  0  0  0  0  0  0  0
   -3.8356    1.0577    0.0112 H   0  0  0  0  0  0  0  0  0  0  0  0
    0.8809    0.8881    1.2094 H   0  0  0  0  0  0  0  0  0  0  0  0
    0.1561   -2.7282   -1.0789 H   0  0  0  0  0  0  0  0  0  0  0  0
    3.2049    0.5523    1.0576 H   0  0  0  0  0  0  0  0  0  0  0  0
    2.5535   -3.1395   -1.0870 H   0  0  0  0  0  0  0  0  0  0  0  0
   -0.9054    2.0632    2.1272 H   0  0  0  0  0  0  0  0  0  0  0  0
   -0.9351    1.9968   -2.1906 H   0  0  0  0  0  0  0  0  0  0  0  0
    0.2766    4.2128    2.0829 H   0  0  0  0  0  0  0  0  0  0  0  0
    0.2339    4.1561   -2.2283 H   0  0  0  0  0  0  0  0  0  0  0  0
    5.1853   -3.4697    1.3421 H   0  0  0  0  0  0  0  0  0  0  0  0
    5.4454   -1.9896    2.1826 H   0  0  0  0  0  0  0  0  0  0  0  0
    1.2391    6.0026   -0.9824 H   0  0  0  0  0  0  0  0  0  0  0  0
    1.2582    6.0250    0.7684 H   0  0  0  0  0  0  0  0  0  0  0  0
  1  5  2  0  0  0  0
  1  6  2  0  0  0  0
  1  9  1  0  0  0  0
  1 18  1  0  0  0  0
  2 23  1  0  0  0  0
  3 23  1  0  0  0  0
  4 23  1  0  0  0  0
  7  8  1  0  0  0  0
  7 11  1  0  0  0  0
  7 12  1  0  0  0  0
  8 15  2  0  0  0  0
  9 36  1  0  0  0  0
  9 37  1  0  0  0  0
 10 26  1  0  0  0  0
 10 38  1  0  0  0  0
 10 39  1  0  0  0  0
 11 13  1  0  0  0  0
 11 14  2  0  0  0  0
 12 16  2  0  0  0  0
 12 17  1  0  0  0  0
 13 21  2  0  0  0  0
 13 22  1  0  0  0  0
 14 15  1  0  0  0  0
 14 27  1  0  0  0  0
 15 23  1  0  0  0  0
 16 19  1  0  0  0  0
 16 28  1  0  0  0  0
 17 20  2  0  0  0  0
 17 29  1  0  0  0  0
 18 19  2  0  0  0  0
 18 20  1  0  0  0  0
 19 30  1  0  0  0  0
 20 31  1  0  0  0  0
 21 24  1  0  0  0  0
 21 32  1  0  0  0  0
 22 25  2  0  0  0  0
 22 33  1  0  0  0  0
 24 26  2  0  0  0  0
 24 34  1  0  0  0  0
 25 26  1  0  0  0  0
 25 35  1  0  0  0  0
M  END
> <PUBCHEM_COMPOUND_CID>
10110427

> <PUBCHEM_CONFORMER_RMSD>
0.8

> <PUBCHEM_CONFORMER_DIVERSEORDER>
2
4
3
1

> <PUBCHEM_MMFF94_PARTIAL_CHARGES>
39
1 1.45
10 -0.9
11 -0.2
12 -0.02
13 0.05
14 -0.15
15 0.11
16 -0.15
17 -0.15
18 -0.01
19 -0.15
2 -0.34
20 -0.15
21 -0.15
22 -0.15
23 1.2
24 -0.15
25 -0.15
26 0.1
27 0.15
28 0.15
29 0.15
3 -0.34
30 0.15
31 0.15
32 0.15
33 0.15
34 0.15
35 0.15
36 0.42
37 0.42
38 0.4
39 0.4
4 -0.34
5 -0.65
6 -0.65
7 0.59
8 -0.71
9 -0.98

> <PUBCHEM_EFFECTIVE_ROTOR_COUNT>
4

> <PUBCHEM_PHARMACOPHORE_FEATURES>
9
1 10 cation
1 10 donor
1 5 acceptor
1 6 acceptor
1 8 acceptor
1 9 donor
5 7 8 11 14 15 rings
6 12 16 17 18 19 20 rings
6 13 21 22 24 25 26 rings

> <PUBCHEM_HEAVY_ATOM_COUNT>
26

> <PUBCHEM_ATOM_DEF_STEREO_COUNT>
0

> <PUBCHEM_ATOM_UDEF_STEREO_COUNT>
0

> <PUBCHEM_BOND_DEF_STEREO_COUNT>
0

> <PUBCHEM_BOND_UDEF_STEREO_COUNT>
0

> <PUBCHEM_ISOTOPIC_ATOM_COUNT>
0

> <PUBCHEM_COMPONENT_COUNT>
1

> <PUBCHEM_CACTVS_TAUTO_COUNT>
2

> <PUBCHEM_CONFORMER_ID>
009A45DB00000002

> <PUBCHEM_MMFF94_ENERGY>
70.1399

> <PUBCHEM_FEATURE_SELFOVERLAP>
45.689

> <PUBCHEM_SHAPE_FINGERPRINT>
10165383 225 16539364332000707884
10411042 1 18410856563951061831
10670039 82 18337970995904679940
1100329 8 18338524041152560217
11045515 52 18334857212343116989
11056379 131 18122069706488630966
12107183 9 17036122608115995226
12160290 23 17767377129270884737
12173636 292 17474391275135176884
12342043 65 17631462163920468326
12403259 226 18271802377027859338
12788726 201 18044654204883029715
13009979 54 18188787041333172814
13140716 1 18411135796949264256
133893 2 17973181783386885481
13690498 29 18127708028202649630
138480 1 14735918830056640980
14028597 1 17340438168823560721
14347332 77 18265614273915934958
14508225 48 18411973642232143957
14713325 29 18125444107784830718
14790565 3 17330273282398106249
15042514 8 18266460901899811779
15131766 46 15265050473504397418
15439362 3 18049154764196066413
15927050 60 17476647945430706646
15961568 22 18411421735399412716
16087824 20 18122910829285744545
167882 2 18049722124843341909
17980427 23 17846508015413625745
1813 80 18271542964897423063
19611394 137 17899145081588868730
20238998 120 18412824668669895473
20600515 1 18200044928026343461
21033650 10 17830765083505433678
21049683 271 18116725203371534941
21120745 212 18268452169140305180
21304253 13 18413112736742944689
21304303 172 18201164239774971257
21304303 282 17254515372028468668
21641784 216 18337691732319395828
21796203 349 17977139973269792395
22907989 373 18192426377523658980
22956985 138 17756148143471353058
23366157 5 18045778159475544271
23402539 116 18409725136563877095
23557571 272 18269280058092530150
23559900 14 18337101393422986755
23845131 108 17187015189791313817
283562 15 18263364702968373266
3091708 16 9210391756786406209
3380486 145 18266753389547215873
4409770 3 17973713693516680549
46194498 28 17832666392439031279
469060 322 18340217297347882000
5385378 56 17906464577623159609
621550 5 18059858337882349080
6442390 28 17331974824055710369
6669772 16 17619639415675773732
6679774 75 17540239274882699368
6700243 42 17770814271919052078
7364860 26 18123753320825770513
7399639 24 18130216082992191582
81228 2 18194417593107700699
9981440 41 17183055843728949848

> <PUBCHEM_SHAPE_MULTIPOLES>
485.43
9.07
5.94
1.06
6.97
9.2
0.01
-12.62
0.42
-2.9
-0.36
0.21
0.27
0.24

> <PUBCHEM_SHAPE_SELFOVERLAP>
1057.899

> <PUBCHEM_SHAPE_VOLUME>
269.6

> <PUBCHEM_COORDINATE_TYPE>
2
5
10

$$$$
