101182124
  -OEChem-03292013293D

 54 55  0     1  0  0  0  0  0999 V2000
   -0.7093    2.5219    0.0912 O   0  0  0  0  0  0  0  0  0  0  0  0
   -4.0773   -1.3455   -1.9464 O   0  0  0  0  0  0  0  0  0  0  0  0
   -1.8612   -4.3018    0.5643 O   0  0  0  0  0  0  0  0  0  0  0  0
   -3.6735   -2.3501    0.7587 O   0  0  0  0  0  0  0  0  0  0  0  0
    2.8421   -1.9888    0.4541 O   0  0  0  0  0  0  0  0  0  0  0  0
   -0.2337    1.9989    2.2975 O   0  0  0  0  0  0  0  0  0  0  0  0
    4.4475   -0.5637   -1.2417 O   0  0  0  0  0  0  0  0  0  0  0  0
    1.8167    3.3296   -0.6071 O   0  0  0  0  0  0  0  0  0  0  0  0
   -2.8531    1.4264   -1.4304 C   0  0  0  0  0  0  0  0  0  0  0  0
   -3.0626    0.2726   -0.4454 C   0  0  0  0  0  0  0  0  0  0  0  0
   -2.9370    2.8208   -0.7934 C   0  0  0  0  0  0  0  0  0  0  0  0
   -2.9388   -1.0824   -1.1436 C   0  0  1  0  0  0  0  0  0  0  0  0
   -2.0173    3.0315    0.4183 C   0  0  2  0  0  0  0  0  0  0  0  0
   -2.8301   -2.2087   -0.1283 C   0  0  0  0  0  0  0  0  0  0  0  0
   -1.6721   -3.1885   -0.2968 C   0  0  1  0  0  0  0  0  0  0  0  0
   -1.9041    4.5083    0.7764 C   0  0  0  0  0  0  0  0  0  0  0  0
   -0.2945   -2.5703   -0.0214 C   0  0  0  0  0  0  0  0  0  0  0  0
    1.1659    1.2835    0.5059 C   0  0  0  0  0  0  0  0  0  0  0  0
    1.4092   -0.0751    0.7796 C   0  0  0  0  0  0  0  0  0  0  0  0
   -0.1609   -1.9512    1.3467 C   0  0  0  0  0  0  0  0  0  0  0  0
    0.0173    1.9883    1.1052 C   0  0  0  0  0  0  0  0  0  0  0  0
    0.5574   -0.8664    1.6799 C   0  0  0  0  0  0  0  0  0  0  0  0
    2.5250   -0.6859    0.1849 C   0  0  0  0  0  0  0  0  0  0  0  0
    2.0105    2.0041   -0.3496 C   0  0  0  0  0  0  0  0  0  0  0  0
    3.3640    0.0331   -0.6694 C   0  0  0  0  0  0  0  0  0  0  0  0
    3.1064    1.3752   -0.9367 C   0  0  0  0  0  0  0  0  0  0  0  0
    3.7163   -2.2233    1.5533 C   0  0  0  0  0  0  0  0  0  0  0  0
    4.2474   -1.1926   -2.5059 C   0  0  0  0  0  0  0  0  0  0  0  0
   -1.8758    1.3143   -1.9166 H   0  0  0  0  0  0  0  0  0  0  0  0
   -3.6020    1.3675   -2.2297 H   0  0  0  0  0  0  0  0  0  0  0  0
   -2.3229    0.3236    0.3594 H   0  0  0  0  0  0  0  0  0  0  0  0
   -4.0523    0.3755    0.0166 H   0  0  0  0  0  0  0  0  0  0  0  0
   -2.6786    3.5461   -1.5759 H   0  0  0  0  0  0  0  0  0  0  0  0
   -3.9729    3.0316   -0.5008 H   0  0  0  0  0  0  0  0  0  0  0  0
   -2.0601   -1.0989   -1.7951 H   0  0  0  0  0  0  0  0  0  0  0  0
   -2.4332    2.4844    1.2737 H   0  0  0  0  0  0  0  0  0  0  0  0
   -1.7001   -3.5702   -1.3239 H   0  0  0  0  0  0  0  0  0  0  0  0
   -1.4457    5.0757   -0.0410 H   0  0  0  0  0  0  0  0  0  0  0  0
   -1.2597    4.6445    1.6512 H   0  0  0  0  0  0  0  0  0  0  0  0
   -2.8853    4.9390    0.9979 H   0  0  0  0  0  0  0  0  0  0  0  0
   -0.0711   -1.8319   -0.7987 H   0  0  0  0  0  0  0  0  0  0  0  0
    0.4552   -3.3681   -0.0930 H   0  0  0  0  0  0  0  0  0  0  0  0
   -0.6998   -2.4452    2.1534 H   0  0  0  0  0  0  0  0  0  0  0  0
   -4.8688   -1.2519   -1.3891 H   0  0  0  0  0  0  0  0  0  0  0  0
    0.5456   -0.5344    2.7153 H   0  0  0  0  0  0  0  0  0  0  0  0
   -2.6757   -4.7533    0.2840 H   0  0  0  0  0  0  0  0  0  0  0  0
    3.7715    1.9273   -1.5964 H   0  0  0  0  0  0  0  0  0  0  0  0
    2.5077    3.6442   -1.2148 H   0  0  0  0  0  0  0  0  0  0  0  0
    3.8254   -3.3041    1.6784 H   0  0  0  0  0  0  0  0  0  0  0  0
    3.3061   -1.8061    2.4783 H   0  0  0  0  0  0  0  0  0  0  0  0
    4.7042   -1.7950    1.3572 H   0  0  0  0  0  0  0  0  0  0  0  0
    5.1969   -1.6314   -2.8244 H   0  0  0  0  0  0  0  0  0  0  0  0
    3.9327   -0.4578   -3.2537 H   0  0  0  0  0  0  0  0  0  0  0  0
    3.5023   -1.9905   -2.4262 H   0  0  0  0  0  0  0  0  0  0  0  0
  1 13  1  0  0  0  0
  1 21  1  0  0  0  0
  2 12  1  0  0  0  0
  2 44  1  0  0  0  0
  3 15  1  0  0  0  0
  3 46  1  0  0  0  0
  4 14  2  0  0  0  0
  5 23  1  0  0  0  0
  5 27  1  0  0  0  0
  6 21  2  0  0  0  0
  7 25  1  0  0  0  0
  7 28  1  0  0  0  0
  8 24  1  0  0  0  0
  8 48  1  0  0  0  0
  9 10  1  0  0  0  0
  9 11  1  0  0  0  0
  9 29  1  0  0  0  0
  9 30  1  0  0  0  0
 10 12  1  0  0  0  0
 10 31  1  0  0  0  0
 10 32  1  0  0  0  0
 11 13  1  0  0  0  0
 11 33  1  0  0  0  0
 11 34  1  0  0  0  0
 12 14  1  0  0  0  0
 12 35  1  0  0  0  0
 13 16  1  0  0  0  0
 13 36  1  0  0  0  0
 14 15  1  0  0  0  0
 15 17  1  0  0  0  0
 15 37  1  0  0  0  0
 16 38  1  0  0  0  0
 16 39  1  0  0  0  0
 16 40  1  0  0  0  0
 17 20  1  0  0  0  0
 17 41  1  0  0  0  0
 17 42  1  0  0  0  0
 18 19  2  0  0  0  0
 18 21  1  0  0  0  0
 18 24  1  0  0  0  0
 19 22  1  0  0  0  0
 19 23  1  0  0  0  0
 20 22  2  0  0  0  0
 20 43  1  0  0  0  0
 22 45  1  0  0  0  0
 23 25  2  0  0  0  0
 24 26  2  0  0  0  0
 25 26  1  0  0  0  0
 26 47  1  0  0  0  0
 27 49  1  0  0  0  0
 27 50  1  0  0  0  0
 27 51  1  0  0  0  0
 28 52  1  0  0  0  0
 28 53  1  0  0  0  0
 28 54  1  0  0  0  0
M  END
> <PUBCHEM_COMPOUND_CID>
101182124

> <PUBCHEM_CONFORMER_RMSD>
0.8

> <PUBCHEM_CONFORMER_DIVERSEORDER>
1
8
2
9
10
5
7
6
12
3
11
4

> <PUBCHEM_MMFF94_PARTIAL_CHARGES>
30
1 -0.43
12 0.34
13 0.28
14 0.45
15 0.34
17 0.14
18 0.09
19 0.03
2 -0.68
20 -0.29
21 0.63
22 -0.18
23 0.08
24 0.08
25 0.08
26 -0.15
27 0.28
28 0.28
3 -0.68
4 -0.57
43 0.15
44 0.4
45 0.15
46 0.4
47 0.15
48 0.45
5 -0.36
6 -0.57
7 -0.36
8 -0.53

> <PUBCHEM_EFFECTIVE_ROTOR_COUNT>
3.6

> <PUBCHEM_PHARMACOPHORE_FEATURES>
10
1 2 acceptor
1 2 donor
1 3 acceptor
1 3 donor
1 4 acceptor
1 5 acceptor
1 6 acceptor
1 7 acceptor
1 8 donor
6 18 19 23 24 25 26 rings

> <PUBCHEM_HEAVY_ATOM_COUNT>
28

> <PUBCHEM_ATOM_DEF_STEREO_COUNT>
3

> <PUBCHEM_ATOM_UDEF_STEREO_COUNT>
0

> <PUBCHEM_BOND_DEF_STEREO_COUNT>
1

> <PUBCHEM_BOND_UDEF_STEREO_COUNT>
0

> <PUBCHEM_ISOTOPIC_ATOM_COUNT>
0

> <PUBCHEM_COMPONENT_COUNT>
1

> <PUBCHEM_CACTVS_TAUTO_COUNT>
13

> <PUBCHEM_CONFORMER_ID>
0607EAAC00000001

> <PUBCHEM_MMFF94_ENERGY>
88.0219

> <PUBCHEM_FEATURE_SELFOVERLAP>
50.765

> <PUBCHEM_SHAPE_FINGERPRINT>
10498660 4 17827341487247286031
10764073 3 17547794912187013400
107951 10 17911254823009383717
11578080 2 17418095442511293864
116883 192 18341343283233191172
12035759 4 18335431153560927754
12054548 360 18121497118422511627
12553582 1 18340204188991928731
12712778 12 18193809631855209538
12788726 201 18342176639568429502
13122387 1 18191859248492951751
13140716 1 18339347613899873545
13402501 40 17109872899740062853
14251740 79 18199197204128311702
14251751 93 18337964380547533949
14251757 17 18411421739045377734
14251757 5 18339374010357736438
14289585 56 17027424470116767902
14931854 50 18335692849659307935
15210252 30 17535465147511938693
19930381 70 17112694250845620527
20465049 17 18338801118055801461
20600515 1 17913465988164121272
20775438 99 17190895821634642615
21141583 151 18120651589738616581
21634736 98 18410009953067114748
22907989 373 17900016912219623220
23419403 2 17270320139098780384
23566358 2 18339368573271901076
238 59 17189230121272758039
3052486 1 18194395585505729086
38695281 34 17618520782700497536
484985 159 15767552429746033910
5895379 119 18338226073427092714

> <PUBCHEM_SHAPE_MULTIPOLES>
529.27
7.1
5.32
1.78
3.21
0.15
-0.24
-1.27
-3.65
-4.72
1.01
0.84
-0.17
-0.97

> <PUBCHEM_SHAPE_SELFOVERLAP>
1101.564

> <PUBCHEM_SHAPE_VOLUME>
299.3

> <PUBCHEM_COORDINATE_TYPE>
2
5
10

$$$$
