101187
  -OEChem-03292013323D

 32 32  0     1  0  0  0  0  0999 V2000
   -3.0024    1.9836   -0.9231 O   0  0  0  0  0  0  0  0  0  0  0  0
   -2.4140   -1.0967    1.5197 O   0  0  0  0  0  0  0  0  0  0  0  0
    4.9657   -1.2605    0.5237 O   0  0  0  0  0  0  0  0  0  0  0  0
   -1.5545   -0.3106   -0.4902 N   0  0  0  0  0  0  0  0  0  0  0  0
   -2.1176    2.8275    1.0215 N   0  0  0  0  0  0  0  0  0  0  0  0
   -3.8360   -3.0150    0.1639 N   0  0  0  0  0  0  0  0  0  0  0  0
   -1.0167    0.9323    0.0026 C   0  0  1  0  0  0  0  0  0  0  0  0
    0.1828    1.4123   -0.8223 C   0  0  0  0  0  0  0  0  0  0  0  0
    1.4624    0.6972   -0.4629 C   0  0  0  0  0  0  0  0  0  0  0  0
   -2.1397    1.9578   -0.0486 C   0  0  0  0  0  0  0  0  0  0  0  0
    2.2740    1.2170    0.5330 C   0  0  0  0  0  0  0  0  0  0  0  0
    1.8024   -0.4665   -1.1342 C   0  0  0  0  0  0  0  0  0  0  0  0
   -2.2146   -1.2314    0.3144 C   0  0  0  0  0  0  0  0  0  0  0  0
    3.4563    0.5561    0.8661 C   0  0  0  0  0  0  0  0  0  0  0  0
    2.9847   -1.1275   -0.8012 C   0  0  0  0  0  0  0  0  0  0  0  0
    3.8117   -0.6162    0.1990 C   0  0  0  0  0  0  0  0  0  0  0  0
   -2.6445   -2.4595   -0.4616 C   0  0  0  0  0  0  0  0  0  0  0  0
   -0.7264    0.7834    1.0507 H   0  0  0  0  0  0  0  0  0  0  0  0
    0.3353    2.4902   -0.6726 H   0  0  0  0  0  0  0  0  0  0  0  0
   -0.0138    1.3022   -1.8976 H   0  0  0  0  0  0  0  0  0  0  0  0
   -1.4873   -0.4921   -1.4877 H   0  0  0  0  0  0  0  0  0  0  0  0
    2.0043    2.1278    1.0601 H   0  0  0  0  0  0  0  0  0  0  0  0
    1.1656   -0.8728   -1.9148 H   0  0  0  0  0  0  0  0  0  0  0  0
    4.0915    0.9645    1.6476 H   0  0  0  0  0  0  0  0  0  0  0  0
    3.2563   -2.0402   -1.3245 H   0  0  0  0  0  0  0  0  0  0  0  0
   -1.8262   -3.1861   -0.4512 H   0  0  0  0  0  0  0  0  0  0  0  0
   -2.8704   -2.1976   -1.4998 H   0  0  0  0  0  0  0  0  0  0  0  0
   -2.8214    3.5521    1.1174 H   0  0  0  0  0  0  0  0  0  0  0  0
   -1.4005    2.7933    1.7390 H   0  0  0  0  0  0  0  0  0  0  0  0
   -3.6128   -3.3279    1.1082 H   0  0  0  0  0  0  0  0  0  0  0  0
   -4.1265   -3.8482   -0.3464 H   0  0  0  0  0  0  0  0  0  0  0  0
    5.4123   -0.7684    1.2340 H   0  0  0  0  0  0  0  0  0  0  0  0
  1 10  2  0  0  0  0
  2 13  2  0  0  0  0
  3 16  1  0  0  0  0
  3 32  1  0  0  0  0
  4  7  1  0  0  0  0
  4 13  1  0  0  0  0
  4 21  1  0  0  0  0
  5 10  1  0  0  0  0
  5 28  1  0  0  0  0
  5 29  1  0  0  0  0
  6 17  1  0  0  0  0
  6 30  1  0  0  0  0
  6 31  1  0  0  0  0
  7  8  1  0  0  0  0
  7 10  1  0  0  0  0
  7 18  1  0  0  0  0
  8  9  1  0  0  0  0
  8 19  1  0  0  0  0
  8 20  1  0  0  0  0
  9 11  2  0  0  0  0
  9 12  1  0  0  0  0
 11 14  1  0  0  0  0
 11 22  1  0  0  0  0
 12 15  2  0  0  0  0
 12 23  1  0  0  0  0
 13 17  1  0  0  0  0
 14 16  2  0  0  0  0
 14 24  1  0  0  0  0
 15 16  1  0  0  0  0
 15 25  1  0  0  0  0
 17 26  1  0  0  0  0
 17 27  1  0  0  0  0
M  END
> <PUBCHEM_COMPOUND_CID>
101187

> <PUBCHEM_CONFORMER_RMSD>
0.8

> <PUBCHEM_CONFORMER_DIVERSEORDER>
1
16
7
5
13
3
6
8
21
11
15
17
2
9
19
12
4
20
14
18
10

> <PUBCHEM_MMFF94_PARTIAL_CHARGES>
27
1 -0.57
10 0.57
11 -0.15
12 -0.15
13 0.57
14 -0.15
15 -0.15
16 0.08
17 0.33
2 -0.57
21 0.37
22 0.15
23 0.15
24 0.15
25 0.15
28 0.37
29 0.37
3 -0.53
30 0.36
31 0.36
32 0.45
4 -0.73
5 -0.8
6 -0.99
7 0.36
8 0.14
9 -0.14

> <PUBCHEM_EFFECTIVE_ROTOR_COUNT>
6

> <PUBCHEM_PHARMACOPHORE_FEATURES>
8
1 1 acceptor
1 2 acceptor
1 3 donor
1 4 donor
1 5 donor
1 6 cation
1 6 donor
6 9 11 12 14 15 16 rings

> <PUBCHEM_HEAVY_ATOM_COUNT>
17

> <PUBCHEM_ATOM_DEF_STEREO_COUNT>
1

> <PUBCHEM_ATOM_UDEF_STEREO_COUNT>
0

> <PUBCHEM_BOND_DEF_STEREO_COUNT>
0

> <PUBCHEM_BOND_UDEF_STEREO_COUNT>
0

> <PUBCHEM_ISOTOPIC_ATOM_COUNT>
0

> <PUBCHEM_COMPONENT_COUNT>
1

> <PUBCHEM_CACTVS_TAUTO_COUNT>
8

> <PUBCHEM_CONFORMER_ID>
00018B4300000001

> <PUBCHEM_MMFF94_ENERGY>
37.648

> <PUBCHEM_FEATURE_SELFOVERLAP>
40.597

> <PUBCHEM_SHAPE_FINGERPRINT>
10366900 7 17845642660707193504
10618630 7 18336549442237167263
12346177 29 18260822674780985189
12363563 72 18189058774991876443
12500047 106 18264201405478559748
12553582 1 18121799462624559015
12633257 1 17845673515387952979
12824470 246 17895460514216436850
13083527 12 18050277365003523260
13693222 15 18271806877710402134
14178342 30 18337669724616820066
15885798 251 18263650735274493955
17834072 14 18339631364945571927
20279233 1 18201999872516378836
20361792 2 16877947139577948540
20524608 308 18338235960098897013
20671657 53 17024573697889249583
20681677 76 18271793670860423744
21501502 16 18335428984460226604
23184049 29 18338239361443866260
23559900 14 18340193168137807400
257057 1 18123750017985240575
3086196 2 18411133658071199378
31174 14 17701537543960226104
5104073 3 18342165649664939770
6049 1 17988658380046670956
69090 78 18340200783225333301
74978 22 18335422331286989620
81228 2 18335148621890348193
8809292 202 18339642218491393916
9709674 26 18200873976646027870

> <PUBCHEM_SHAPE_MULTIPOLES>
317.3
7.58
2.93
1.08
4.36
0.22
-0.07
4.07
-1.35
-4.1
-0.2
-0.01
-0.07
0.38

> <PUBCHEM_SHAPE_SELFOVERLAP>
650.833

> <PUBCHEM_SHAPE_VOLUME>
182

> <PUBCHEM_COORDINATE_TYPE>
2
5
10

$$$$
