101149681
  -OEChem-03292013293D

 81 82  0     1  0  0  0  0  0999 V2000
   -0.5478   -0.1179   -1.0881 O   0  0  0  0  0  0  0  0  0  0  0  0
   -2.6802   -0.0934   -0.1413 O   0  0  0  0  0  0  0  0  0  0  0  0
   -1.5726   -1.5468   -3.3053 O   0  0  0  0  0  0  0  0  0  0  0  0
   -3.9415   -3.1439   -2.5849 O   0  0  0  0  0  0  0  0  0  0  0  0
   -5.8860   -1.5063   -1.2092 O   0  0  0  0  0  0  0  0  0  0  0  0
   -4.3445    1.3697    1.4850 O   0  0  0  0  0  0  0  0  0  0  0  0
   -5.6361    1.0980    3.3811 O   0  0  0  0  0  0  0  0  0  0  0  0
   -0.0890    1.2312   -1.1297 C   0  0  0  0  0  0  0  0  0  0  0  0
    1.2387    1.3116   -0.3615 C   0  0  1  0  0  0  0  0  0  0  0  0
   -1.9467   -0.1999   -1.3592 C   0  0  2  0  0  0  0  0  0  0  0  0
   -2.2175   -1.5457   -2.0319 C   0  0  1  0  0  0  0  0  0  0  0  0
    1.7945    2.7502   -0.4892 C   0  0  0  0  0  0  0  0  0  0  0  0
   -3.7161   -1.7808   -2.2219 C   0  0  2  0  0  0  0  0  0  0  0  0
   -4.4880   -1.5012   -0.9322 C   0  0  1  0  0  0  0  0  0  0  0  0
   -4.0931   -0.1435   -0.3464 C   0  0  1  0  0  0  0  0  0  0  0  0
    1.0679    0.9260    1.1284 C   0  0  0  0  0  0  0  0  0  0  0  0
   -1.1386    2.1291   -0.4829 C   0  0  0  0  0  0  0  0  0  0  0  0
    0.1217    1.6074   -2.5919 C   0  0  0  0  0  0  0  0  0  0  0  0
    3.2874    2.9088   -0.1637 C   0  0  0  0  0  0  0  0  0  0  0  0
   -4.7627    0.1064    1.0013 C   0  0  0  0  0  0  0  0  0  0  0  0
    0.3991   -0.4034    1.3624 C   0  0  0  0  0  0  0  0  0  0  0  0
    4.2266    2.3869   -1.2325 C   0  0  0  0  0  0  0  0  0  0  0  0
    0.9348   -1.5424    1.8426 C   0  0  0  0  0  0  0  0  0  0  0  0
    2.3794   -1.7138    2.2521 C   0  0  0  0  0  0  0  0  0  0  0  0
    5.1064    1.3796   -1.0684 C   0  0  0  0  0  0  0  0  0  0  0  0
    4.2003    3.1387   -2.5410 C   0  0  0  0  0  0  0  0  0  0  0  0
    5.3110    0.5182    0.1455 C   0  0  0  0  0  0  0  0  0  0  0  0
    0.0714   -2.7659    2.0188 C   0  0  0  0  0  0  0  0  0  0  0  0
    3.1942   -2.4272    1.1692 C   0  0  0  0  0  0  0  0  0  0  0  0
    5.5250   -0.9471   -0.2546 C   0  0  0  0  0  0  0  0  0  0  0  0
    5.6713   -1.8464    0.9516 C   0  0  0  0  0  0  0  0  0  0  0  0
    4.6478   -2.4884    1.5469 C   0  0  0  0  0  0  0  0  0  0  0  0
   -4.8592    1.7497    2.6965 C   0  0  0  0  0  0  0  0  0  0  0  0
    7.0748   -1.9970    1.4753 C   0  0  0  0  0  0  0  0  0  0  0  0
   -4.3323    3.0995    3.0795 C   0  0  0  0  0  0  0  0  0  0  0  0
    1.9442    0.5985   -0.8095 H   0  0  0  0  0  0  0  0  0  0  0  0
   -2.2796    0.5640   -2.0721 H   0  0  0  0  0  0  0  0  0  0  0  0
   -1.7710   -2.3608   -1.4501 H   0  0  0  0  0  0  0  0  0  0  0  0
    1.2612    3.4033    0.2140 H   0  0  0  0  0  0  0  0  0  0  0  0
    1.6333    3.1921   -1.4724 H   0  0  0  0  0  0  0  0  0  0  0  0
   -4.1063   -1.1765   -3.0492 H   0  0  0  0  0  0  0  0  0  0  0  0
   -4.2952   -2.3011   -0.2069 H   0  0  0  0  0  0  0  0  0  0  0  0
   -4.3772    0.6752   -1.0217 H   0  0  0  0  0  0  0  0  0  0  0  0
    0.4909    1.6900    1.6641 H   0  0  0  0  0  0  0  0  0  0  0  0
    2.0518    0.9454    1.6034 H   0  0  0  0  0  0  0  0  0  0  0  0
   -2.0503    2.2598   -1.0753 H   0  0  0  0  0  0  0  0  0  0  0  0
   -1.4389    1.8105    0.5192 H   0  0  0  0  0  0  0  0  0  0  0  0
   -0.7736    3.1566   -0.3783 H   0  0  0  0  0  0  0  0  0  0  0  0
    1.0375    1.1508   -2.9863 H   0  0  0  0  0  0  0  0  0  0  0  0
   -0.6790    1.2434   -3.2433 H   0  0  0  0  0  0  0  0  0  0  0  0
    0.1721    2.6875   -2.7585 H   0  0  0  0  0  0  0  0  0  0  0  0
    3.5057    2.4799    0.8178 H   0  0  0  0  0  0  0  0  0  0  0  0
    3.4950    3.9815   -0.0464 H   0  0  0  0  0  0  0  0  0  0  0  0
   -4.4551   -0.6631    1.7200 H   0  0  0  0  0  0  0  0  0  0  0  0
   -5.8536    0.0942    0.8991 H   0  0  0  0  0  0  0  0  0  0  0  0
   -0.6771   -0.4048    1.2306 H   0  0  0  0  0  0  0  0  0  0  0  0
   -1.9703   -0.8439   -3.8469 H   0  0  0  0  0  0  0  0  0  0  0  0
   -3.5885   -3.7080   -1.8759 H   0  0  0  0  0  0  0  0  0  0  0  0
   -6.0696   -0.7906   -1.8414 H   0  0  0  0  0  0  0  0  0  0  0  0
    2.8408   -0.7497    2.4894 H   0  0  0  0  0  0  0  0  0  0  0  0
    2.4205   -2.2843    3.1897 H   0  0  0  0  0  0  0  0  0  0  0  0
    5.7687    1.1467   -1.9019 H   0  0  0  0  0  0  0  0  0  0  0  0
    5.0086    2.8326   -3.2139 H   0  0  0  0  0  0  0  0  0  0  0  0
    4.3137    4.2136   -2.3659 H   0  0  0  0  0  0  0  0  0  0  0  0
    3.2561    2.9667   -3.0664 H   0  0  0  0  0  0  0  0  0  0  0  0
    6.1926    0.8850    0.6845 H   0  0  0  0  0  0  0  0  0  0  0  0
    4.4596    0.5824    0.8291 H   0  0  0  0  0  0  0  0  0  0  0  0
    0.4451   -3.5918    1.4057 H   0  0  0  0  0  0  0  0  0  0  0  0
   -0.9696   -2.5880    1.7278 H   0  0  0  0  0  0  0  0  0  0  0  0
    0.0712   -3.0819    3.0671 H   0  0  0  0  0  0  0  0  0  0  0  0
    3.0408   -1.9265    0.2087 H   0  0  0  0  0  0  0  0  0  0  0  0
    2.8345   -3.4551    1.0387 H   0  0  0  0  0  0  0  0  0  0  0  0
    6.4241   -1.0376   -0.8793 H   0  0  0  0  0  0  0  0  0  0  0  0
    4.7051   -1.2862   -0.8981 H   0  0  0  0  0  0  0  0  0  0  0  0
    4.8647   -3.1174    2.4091 H   0  0  0  0  0  0  0  0  0  0  0  0
    7.7226   -2.4286    0.7053 H   0  0  0  0  0  0  0  0  0  0  0  0
    7.1239   -2.6501    2.3530 H   0  0  0  0  0  0  0  0  0  0  0  0
    7.4805   -1.0226    1.7656 H   0  0  0  0  0  0  0  0  0  0  0  0
   -3.2424    3.0640    3.1519 H   0  0  0  0  0  0  0  0  0  0  0  0
   -4.7372    3.3842    4.0548 H   0  0  0  0  0  0  0  0  0  0  0  0
   -4.6451    3.8417    2.3409 H   0  0  0  0  0  0  0  0  0  0  0  0
  1  8  1  0  0  0  0
  1 10  1  0  0  0  0
  2 10  1  0  0  0  0
  2 15  1  0  0  0  0
  3 11  1  0  0  0  0
  3 57  1  0  0  0  0
  4 13  1  0  0  0  0
  4 58  1  0  0  0  0
  5 14  1  0  0  0  0
  5 59  1  0  0  0  0
  6 20  1  0  0  0  0
  6 33  1  0  0  0  0
  7 33  2  0  0  0  0
  8  9  1  0  0  0  0
  8 17  1  0  0  0  0
  8 18  1  0  0  0  0
  9 12  1  0  0  0  0
  9 16  1  0  0  0  0
  9 36  1  0  0  0  0
 10 11  1  0  0  0  0
 10 37  1  0  0  0  0
 11 13  1  0  0  0  0
 11 38  1  0  0  0  0
 12 19  1  0  0  0  0
 12 39  1  0  0  0  0
 12 40  1  0  0  0  0
 13 14  1  0  0  0  0
 13 41  1  0  0  0  0
 14 15  1  0  0  0  0
 14 42  1  0  0  0  0
 15 20  1  0  0  0  0
 15 43  1  0  0  0  0
 16 21  1  0  0  0  0
 16 44  1  0  0  0  0
 16 45  1  0  0  0  0
 17 46  1  0  0  0  0
 17 47  1  0  0  0  0
 17 48  1  0  0  0  0
 18 49  1  0  0  0  0
 18 50  1  0  0  0  0
 18 51  1  0  0  0  0
 19 22  1  0  0  0  0
 19 52  1  0  0  0  0
 19 53  1  0  0  0  0
 20 54  1  0  0  0  0
 20 55  1  0  0  0  0
 21 23  2  0  0  0  0
 21 56  1  0  0  0  0
 22 25  2  0  0  0  0
 22 26  1  0  0  0  0
 23 24  1  0  0  0  0
 23 28  1  0  0  0  0
 24 29  1  0  0  0  0
 24 60  1  0  0  0  0
 24 61  1  0  0  0  0
 25 27  1  0  0  0  0
 25 62  1  0  0  0  0
 26 63  1  0  0  0  0
 26 64  1  0  0  0  0
 26 65  1  0  0  0  0
 27 30  1  0  0  0  0
 27 66  1  0  0  0  0
 27 67  1  0  0  0  0
 28 68  1  0  0  0  0
 28 69  1  0  0  0  0
 28 70  1  0  0  0  0
 29 32  1  0  0  0  0
 29 71  1  0  0  0  0
 29 72  1  0  0  0  0
 30 31  1  0  0  0  0
 30 73  1  0  0  0  0
 30 74  1  0  0  0  0
 31 32  2  0  0  0  0
 31 34  1  0  0  0  0
 32 75  1  0  0  0  0
 33 35  1  0  0  0  0
 34 76  1  0  0  0  0
 34 77  1  0  0  0  0
 34 78  1  0  0  0  0
 35 79  1  0  0  0  0
 35 80  1  0  0  0  0
 35 81  1  0  0  0  0
M  END
> <PUBCHEM_COMPOUND_CID>
101149681

> <PUBCHEM_CONFORMER_RMSD>
1.2

> <PUBCHEM_CONFORMER_DIVERSEORDER>
1
182
176
32
186
65
129
19
7
162
23
82
109
51
46
17
15
69
121
50
77
166
43
152
5
111
89
173
126
157
31
16
75
175
174
155
131
79
134
63
87
128
35
21
26
181
97
187
91
153
127
154
184
59
72
81
28
147
55
84
2
70
18
39
44
9
183
36
6
56
110
20
80
85
100
185
112
177
122
68
120
180
170
40
168
158
3
78
104
144
48
163
47
12
113
102
67
159
34
135
58
142
73
146
172
95
118
61
53
94
83
24
143
160
92
150
132
165
124
140
42
119
74
76
30
141
33
93
151
171
54
145
116
148
114
149
130
45
125
27
156
108
25
139
101
90
13
29
117
57
167
14
49
96
105
71
115
41
98
123
136
4
8
161
60
164
38
137
103
62
86
37
64
88
178
169
22
179
133
66
138
107
106
52
10
11
99

> <PUBCHEM_MMFF94_PARTIAL_CHARGES>
37
1 -0.56
10 0.56
11 0.28
13 0.28
14 0.28
15 0.28
16 0.14
19 0.14
2 -0.56
20 0.28
21 -0.29
22 -0.28
23 -0.28
24 0.14
25 -0.29
26 0.14
27 0.14
28 0.14
29 0.14
3 -0.68
30 0.14
31 -0.28
32 -0.29
33 0.66
34 0.14
35 0.06
4 -0.68
5 -0.68
56 0.15
57 0.4
58 0.4
59 0.4
6 -0.43
62 0.15
7 -0.57
75 0.15
8 0.28

> <PUBCHEM_EFFECTIVE_ROTOR_COUNT>
8.8

> <PUBCHEM_PHARMACOPHORE_FEATURES>
11
1 1 acceptor
1 2 acceptor
1 3 acceptor
1 3 donor
1 4 acceptor
1 4 donor
1 5 acceptor
1 5 donor
1 7 acceptor
3 8 17 18 hydrophobe
6 2 10 11 13 14 15 rings

> <PUBCHEM_HEAVY_ATOM_COUNT>
35

> <PUBCHEM_ATOM_DEF_STEREO_COUNT>
6

> <PUBCHEM_ATOM_UDEF_STEREO_COUNT>
0

> <PUBCHEM_BOND_DEF_STEREO_COUNT>
3

> <PUBCHEM_BOND_UDEF_STEREO_COUNT>
0

> <PUBCHEM_ISOTOPIC_ATOM_COUNT>
0

> <PUBCHEM_COMPONENT_COUNT>
1

> <PUBCHEM_CACTVS_TAUTO_COUNT>
2

> <PUBCHEM_CONFORMER_ID>
06076BF100000001

> <PUBCHEM_MMFF94_ENERGY>
92.6885

> <PUBCHEM_FEATURE_SELFOVERLAP>
55.878

> <PUBCHEM_SHAPE_FINGERPRINT>
11135926 11 17823144591899349924
12422481 6 18199760141218118412
12717326 135 16987724476603058833
12717326 68 13825022456442349286
13009979 54 18129082576613852079
13383661 66 16746489816908619898
13782708 43 16370729206086604040
14931854 50 17895192161509761734
15328829 1 18342458127604193817
16067689 68 17845358965633941282
20764821 26 17823698754048547854
20775438 99 17901638765371151446
21033648 29 15410897353290829217
22182313 1 16588020229689975952
23569943 247 18187353299450568098
392239 28 18040158400790301274
46194498 28 15719687532510583924
463206 1 18335129947747202014
484989 97 17531249487304232074
513202 73 18040995112028020917
563151 248 18270975560893772947
57527573 199 16056319385031498849
581034 39 17917149399282234739
6009941 240 16558743469559344666
6201320 77 16444770232758894289
6669772 16 17677320758231485258

> <PUBCHEM_SHAPE_MULTIPOLES>
679.2
14.57
4.03
3.4
3.59
0.79
0.36
-4.15
3.76
6.22
0.12
-8.13
0.01
-5.08

> <PUBCHEM_SHAPE_SELFOVERLAP>
1363.604

> <PUBCHEM_SHAPE_VOLUME>
395.4

> <PUBCHEM_COORDINATE_TYPE>
2
5
10

$$$$
