101170461
  -OEChem-03292013293D

 48 54  0     1  0  0  0  0  0999 V2000
   -0.0563   -0.5873    1.9988 O   0  0  0  0  0  0  0  0  0  0  0  0
   -1.8147    3.0712    0.1257 O   0  0  0  0  0  0  0  0  0  0  0  0
    4.5550    0.6633    0.8159 O   0  0  0  0  0  0  0  0  0  0  0  0
   -2.4738   -2.4633   -0.3220 O   0  0  0  0  0  0  0  0  0  0  0  0
   -4.3648    0.7996    1.3328 O   0  0  0  0  0  0  0  0  0  0  0  0
   -0.1600    1.3244   -2.1378 O   0  0  0  0  0  0  0  0  0  0  0  0
    1.6879    2.8156   -0.0296 O   0  0  0  0  0  0  0  0  0  0  0  0
    3.6334   -1.9497   -0.9922 O   0  0  0  0  0  0  0  0  0  0  0  0
   -0.9300    0.0688   -0.1816 C   0  0  2  0  0  0  0  0  0  0  0  0
   -0.3412   -1.2365   -0.8385 C   0  0  1  0  0  0  0  0  0  0  0  0
    0.8378   -1.7703    0.0400 C   0  0  1  0  0  0  0  0  0  0  0  0
    0.0434    0.4592    0.9918 C   0  0  2  0  0  0  0  0  0  0  0  0
    1.4831    0.5010    0.5014 C   0  0  0  0  0  0  0  0  0  0  0  0
    1.8878   -0.6692   -0.0241 C   0  0  0  0  0  0  0  0  0  0  0  0
   -2.3494   -0.1372    0.3376 C   0  0  0  0  0  0  0  0  0  0  0  0
   -0.9681    1.2186   -1.2201 C   0  0  0  0  0  0  0  0  0  0  0  0
    0.5259   -1.8344    1.5542 C   0  0  2  0  0  0  0  0  0  0  0  0
   -1.9862    2.2878   -1.0632 C   0  0  1  0  0  0  0  0  0  0  0  0
   -2.9940    2.2581    0.0491 C   0  0  1  0  0  0  0  0  0  0  0  0
   -1.3889   -2.2958   -1.2305 C   0  0  2  0  0  0  0  0  0  0  0  0
   -3.0113    1.0780    0.9696 C   0  0  1  0  0  0  0  0  0  0  0  0
    2.3295    1.7301    0.6410 C   0  0  1  0  0  0  0  0  0  0  0  0
    3.7241    1.5942    0.1068 C   0  0  2  0  0  0  0  0  0  0  0  0
    4.1582    0.2934   -0.5143 C   0  0  2  0  0  0  0  0  0  0  0  0
    3.2518   -0.8747   -0.5495 C   0  0  0  0  0  0  0  0  0  0  0  0
   -2.9644   -1.3253    0.2437 C   0  0  0  0  0  0  0  0  0  0  0  0
   -0.3313   -3.0016    2.0123 C   0  0  0  0  0  0  0  0  0  0  0  0
   -1.9836   -2.0176   -2.6176 C   0  0  0  0  0  0  0  0  0  0  0  0
    0.1448   -0.9762   -1.7910 H   0  0  0  0  0  0  0  0  0  0  0  0
    1.2294   -2.7215   -0.3340 H   0  0  0  0  0  0  0  0  0  0  0  0
   -0.2272    1.4047    1.4706 H   0  0  0  0  0  0  0  0  0  0  0  0
    1.4752   -1.9365    2.1010 H   0  0  0  0  0  0  0  0  0  0  0  0
   -2.2702    2.8115   -1.9690 H   0  0  0  0  0  0  0  0  0  0  0  0
   -3.9406    2.7637   -0.0789 H   0  0  0  0  0  0  0  0  0  0  0  0
   -0.8928   -3.2719   -1.2955 H   0  0  0  0  0  0  0  0  0  0  0  0
   -2.4914    1.3223    1.9028 H   0  0  0  0  0  0  0  0  0  0  0  0
    2.3837    1.9951    1.7037 H   0  0  0  0  0  0  0  0  0  0  0  0
    4.1862    2.5215   -0.2012 H   0  0  0  0  0  0  0  0  0  0  0  0
    4.9112    0.3432   -1.2922 H   0  0  0  0  0  0  0  0  0  0  0  0
   -3.9424   -1.5334    0.6569 H   0  0  0  0  0  0  0  0  0  0  0  0
   -1.3925   -2.8453    1.8294 H   0  0  0  0  0  0  0  0  0  0  0  0
   -0.2430   -3.1144    3.0994 H   0  0  0  0  0  0  0  0  0  0  0  0
   -0.0128   -3.9401    1.5497 H   0  0  0  0  0  0  0  0  0  0  0  0
   -2.5090   -1.0573   -2.6457 H   0  0  0  0  0  0  0  0  0  0  0  0
   -2.7195   -2.7867   -2.8770 H   0  0  0  0  0  0  0  0  0  0  0  0
   -1.2068   -2.0099   -3.3885 H   0  0  0  0  0  0  0  0  0  0  0  0
   -4.6977    1.5653    1.8318 H   0  0  0  0  0  0  0  0  0  0  0  0
    2.1649    3.6298    0.2059 H   0  0  0  0  0  0  0  0  0  0  0  0
  1 12  1  0  0  0  0
  1 17  1  0  0  0  0
  2 18  1  0  0  0  0
  2 19  1  0  0  0  0
  3 23  1  0  0  0  0
  3 24  1  0  0  0  0
  4 20  1  0  0  0  0
  4 26  1  0  0  0  0
  5 21  1  0  0  0  0
  5 47  1  0  0  0  0
  6 16  2  0  0  0  0
  7 22  1  0  0  0  0
  7 48  1  0  0  0  0
  8 25  2  0  0  0  0
  9 10  1  0  0  0  0
  9 12  1  0  0  0  0
  9 15  1  0  0  0  0
  9 16  1  0  0  0  0
 10 11  1  0  0  0  0
 10 20  1  0  0  0  0
 10 29  1  0  0  0  0
 11 14  1  0  0  0  0
 11 17  1  0  0  0  0
 11 30  1  0  0  0  0
 12 13  1  0  0  0  0
 12 31  1  0  0  0  0
 13 14  2  0  0  0  0
 13 22  1  0  0  0  0
 14 25  1  0  0  0  0
 15 21  1  0  0  0  0
 15 26  2  0  0  0  0
 16 18  1  0  0  0  0
 17 27  1  0  0  0  0
 17 32  1  0  0  0  0
 18 19  1  0  0  0  0
 18 33  1  0  0  0  0
 19 21  1  0  0  0  0
 19 34  1  0  0  0  0
 20 28  1  0  0  0  0
 20 35  1  0  0  0  0
 21 36  1  0  0  0  0
 22 23  1  0  0  0  0
 22 37  1  0  0  0  0
 23 24  1  0  0  0  0
 23 38  1  0  0  0  0
 24 25  1  0  0  0  0
 24 39  1  0  0  0  0
 26 40  1  0  0  0  0
 27 41  1  0  0  0  0
 27 42  1  0  0  0  0
 27 43  1  0  0  0  0
 28 44  1  0  0  0  0
 28 45  1  0  0  0  0
 28 46  1  0  0  0  0
M  END
> <PUBCHEM_COMPOUND_CID>
101170461

> <PUBCHEM_CONFORMER_RMSD>
0.6

> <PUBCHEM_CONFORMER_DIVERSEORDER>
1

> <PUBCHEM_MMFF94_PARTIAL_CHARGES>
32
1 -0.56
11 0.14
12 0.42
13 -0.28
14 -0.12
15 -0.28
16 0.51
17 0.28
18 0.05
19 -0.05
2 -0.3
20 0.28
21 0.51
22 0.51
23 -0.05
24 0.05
25 0.56
26 -0.07
3 -0.3
33 0.1
34 0.1
38 0.1
39 0.1
4 -0.36
40 0.15
47 0.4
48 0.4
5 -0.68
6 -0.57
7 -0.68
8 -0.57
9 0.2

> <PUBCHEM_EFFECTIVE_ROTOR_COUNT>
1.6

> <PUBCHEM_PHARMACOPHORE_FEATURES>
14
1 1 acceptor
1 2 acceptor
1 3 acceptor
1 4 acceptor
1 5 acceptor
1 5 donor
1 6 acceptor
1 7 acceptor
1 7 donor
1 8 acceptor
6 4 9 10 15 20 26 rings
7 2 9 15 16 18 19 21 rings
7 3 13 14 22 23 24 25 rings
8 1 9 10 11 12 13 14 17 rings

> <PUBCHEM_HEAVY_ATOM_COUNT>
28

> <PUBCHEM_ATOM_DEF_STEREO_COUNT>
12

> <PUBCHEM_ATOM_UDEF_STEREO_COUNT>
0

> <PUBCHEM_BOND_DEF_STEREO_COUNT>
0

> <PUBCHEM_BOND_UDEF_STEREO_COUNT>
0

> <PUBCHEM_ISOTOPIC_ATOM_COUNT>
0

> <PUBCHEM_COMPONENT_COUNT>
1

> <PUBCHEM_CACTVS_TAUTO_COUNT>
1

> <PUBCHEM_CONFORMER_ID>
0607BD1D00000001

> <PUBCHEM_MMFF94_ENERGY>
92.6231

> <PUBCHEM_FEATURE_SELFOVERLAP>
71.097

> <PUBCHEM_SHAPE_FINGERPRINT>
10165383 225 18059583459859659161
10863032 1 17989211459817001698
10948715 1 18266746783449625563
11578080 2 16844715577428359522
12011746 2 18263929834981322413
12035759 4 18194935583248541815
12173636 292 18201154356290312581
12403814 3 18412826914816049723
12422481 6 18126879125268046219
13140716 1 18190730939267672856
13224815 77 17822004311576316724
133893 2 16372946847772566274
13583140 156 17677603164372184520
14223421 5 18341610472853483980
14251751 93 18410851036433198824
15209289 33 18260551142827599240
16945 1 18338514145088493467
18393751 57 17192890383124237072
18981168 100 17987209231978815952
19591789 44 18264775346084284978
19930381 70 17697331611352356374
20600515 1 17175423476284694472
20691752 17 18040997366553196930
20905425 154 17684939002868274508
23227448 37 18413389843173198517
23402539 116 18116418410047696238
23419403 2 17408020552794078283
23558518 356 18191015905763112136
23559900 14 17561365055233652266
238 59 17469850343720453533
350125 39 18270682098800865712
392239 28 17969519258535886147
469060 322 17385998516268832631
5845 1 15906802558226366999
6287921 2 18263655107261324212
70251023 43 18128516327508772375
81228 2 18118956125449472736
9709674 26 18339086011847682410

> <PUBCHEM_SHAPE_MULTIPOLES>
529.27
6.22
3.32
1.76
4.08
0.12
-0.33
1.85
0.24
-1.33
-0.07
-0.84
-0.96
-0.2

> <PUBCHEM_SHAPE_SELFOVERLAP>
1198.89

> <PUBCHEM_SHAPE_VOLUME>
272.5

> <PUBCHEM_COORDINATE_TYPE>
2
5
10

$$$$
