101168039
  -OEChem-03292013293D

 66 68  0     1  0  0  0  0  0999 V2000
    3.1638   -0.6598    0.0186 O   0  0  0  0  0  0  0  0  0  0  0  0
    2.9029    1.4417    0.9981 O   0  0  0  0  0  0  0  0  0  0  0  0
    7.2571   -0.3825    0.2062 O   0  0  0  0  0  0  0  0  0  0  0  0
    6.0267   -2.3369   -1.5323 O   0  0  0  0  0  0  0  0  0  0  0  0
    5.5952    2.0449    0.3689 O   0  0  0  0  0  0  0  0  0  0  0  0
    1.8112   -2.6400   -1.3248 O   0  0  0  0  0  0  0  0  0  0  0  0
   -2.9040    1.3827   -1.1115 O   0  0  0  0  0  0  0  0  0  0  0  0
   -0.7028    2.8516   -1.7500 O   0  0  0  0  0  0  0  0  0  0  0  0
   -4.6860   -3.4948   -0.8724 O   0  0  0  0  0  0  0  0  0  0  0  0
   -3.4029    2.4622    0.8769 O   0  0  0  0  0  0  0  0  0  0  0  0
    5.9712   -0.2139   -0.3926 C   0  0  1  0  0  0  0  0  0  0  0  0
    5.3308   -1.5948   -0.5341 C   0  0  1  0  0  0  0  0  0  0  0  0
    5.1184    0.7044    0.4831 C   0  0  2  0  0  0  0  0  0  0  0  0
    3.8575   -1.4722   -0.9301 C   0  0  1  0  0  0  0  0  0  0  0  0
    3.6520    0.6793    0.0522 C   0  0  1  0  0  0  0  0  0  0  0  0
    3.1667   -2.8319   -0.9635 C   0  0  0  0  0  0  0  0  0  0  0  0
    1.5623    1.5468    0.7857 C   0  0  0  0  0  0  0  0  0  0  0  0
   -4.9185    0.0843   -1.5089 C   0  0  0  0  0  0  0  0  0  0  0  0
   -5.3777   -0.2230   -0.0782 C   0  0  0  0  0  0  0  0  0  0  0  0
    0.6661    1.0755    1.7467 C   0  0  0  0  0  0  0  0  0  0  0  0
   -4.2545    1.4632   -1.6226 C   0  0  2  0  0  0  0  0  0  0  0  0
    1.0874    2.1249   -0.3891 C   0  0  0  0  0  0  0  0  0  0  0  0
   -0.7188    1.1740    1.5429 C   0  0  0  0  0  0  0  0  0  0  0  0
   -5.8990   -1.6505    0.0692 C   0  0  0  0  0  0  0  0  0  0  0  0
   -1.1876    1.7609    0.3548 C   0  0  0  0  0  0  0  0  0  0  0  0
   -0.2848    2.2363   -0.6064 C   0  0  0  0  0  0  0  0  0  0  0  0
   -3.7953   -2.6705    1.1965 C   0  0  0  0  0  0  0  0  0  0  0  0
   -2.4343   -2.1653    0.7227 C   0  0  0  0  0  0  0  0  0  0  0  0
   -4.7858   -2.6830    0.0482 C   0  0  0  0  0  0  0  0  0  0  0  0
   -1.4774   -1.8126    1.8638 C   0  0  0  0  0  0  0  0  0  0  0  0
   -1.6190    0.6381    2.5687 C   0  0  0  0  0  0  0  0  0  0  0  0
   -4.1350    1.8848   -3.0832 C   0  0  0  0  0  0  0  0  0  0  0  0
   -2.6317    1.9312    0.0975 C   0  0  0  0  0  0  0  0  0  0  0  0
   -1.9542   -0.6551    2.6989 C   0  0  0  0  0  0  0  0  0  0  0  0
    6.1493    0.2369   -1.3759 H   0  0  0  0  0  0  0  0  0  0  0  0
    5.4284   -2.1449    0.4098 H   0  0  0  0  0  0  0  0  0  0  0  0
    5.2126    0.4242    1.5390 H   0  0  0  0  0  0  0  0  0  0  0  0
    3.7526   -1.0145   -1.9233 H   0  0  0  0  0  0  0  0  0  0  0  0
    3.5534    1.1363   -0.9412 H   0  0  0  0  0  0  0  0  0  0  0  0
    3.1844   -3.3025    0.0252 H   0  0  0  0  0  0  0  0  0  0  0  0
    3.6331   -3.5020   -1.6919 H   0  0  0  0  0  0  0  0  0  0  0  0
    7.1310   -0.7661    1.0908 H   0  0  0  0  0  0  0  0  0  0  0  0
    5.9344   -1.8641   -2.3770 H   0  0  0  0  0  0  0  0  0  0  0  0
    5.5201    2.3135   -0.5627 H   0  0  0  0  0  0  0  0  0  0  0  0
    1.3885   -3.5157   -1.3304 H   0  0  0  0  0  0  0  0  0  0  0  0
   -4.2119   -0.6854   -1.8419 H   0  0  0  0  0  0  0  0  0  0  0  0
   -5.7938    0.0366   -2.1683 H   0  0  0  0  0  0  0  0  0  0  0  0
   -6.1831    0.4732    0.1866 H   0  0  0  0  0  0  0  0  0  0  0  0
   -4.5655   -0.0450    0.6319 H   0  0  0  0  0  0  0  0  0  0  0  0
   -4.8370    2.2219   -1.0865 H   0  0  0  0  0  0  0  0  0  0  0  0
    1.0556    0.6237    2.6573 H   0  0  0  0  0  0  0  0  0  0  0  0
    1.7844    2.5154   -1.1261 H   0  0  0  0  0  0  0  0  0  0  0  0
   -6.6162   -1.8868   -0.7250 H   0  0  0  0  0  0  0  0  0  0  0  0
   -6.4312   -1.7610    1.0209 H   0  0  0  0  0  0  0  0  0  0  0  0
   -4.2057   -2.0509    1.9997 H   0  0  0  0  0  0  0  0  0  0  0  0
   -3.7164   -3.6883    1.5945 H   0  0  0  0  0  0  0  0  0  0  0  0
   -2.5549   -1.2950    0.0675 H   0  0  0  0  0  0  0  0  0  0  0  0
   -1.9690   -2.9415    0.1015 H   0  0  0  0  0  0  0  0  0  0  0  0
   -0.4890   -1.6026    1.4400 H   0  0  0  0  0  0  0  0  0  0  0  0
   -1.3416   -2.6824    2.5180 H   0  0  0  0  0  0  0  0  0  0  0  0
   -3.6240    2.8508   -3.1597 H   0  0  0  0  0  0  0  0  0  0  0  0
   -5.1188    1.9737   -3.5540 H   0  0  0  0  0  0  0  0  0  0  0  0
   -3.5356    1.1657   -3.6526 H   0  0  0  0  0  0  0  0  0  0  0  0
   -2.0471    1.3716    3.2467 H   0  0  0  0  0  0  0  0  0  0  0  0
   -2.6477   -0.9076    3.4992 H   0  0  0  0  0  0  0  0  0  0  0  0
    0.0707    3.1107   -2.2793 H   0  0  0  0  0  0  0  0  0  0  0  0
  1 14  1  0  0  0  0
  1 15  1  0  0  0  0
  2 15  1  0  0  0  0
  2 17  1  0  0  0  0
  3 11  1  0  0  0  0
  3 42  1  0  0  0  0
  4 12  1  0  0  0  0
  4 43  1  0  0  0  0
  5 13  1  0  0  0  0
  5 44  1  0  0  0  0
  6 16  1  0  0  0  0
  6 45  1  0  0  0  0
  7 21  1  0  0  0  0
  7 33  1  0  0  0  0
  8 26  1  0  0  0  0
  8 66  1  0  0  0  0
  9 29  2  0  0  0  0
 10 33  2  0  0  0  0
 11 12  1  0  0  0  0
 11 13  1  0  0  0  0
 11 35  1  0  0  0  0
 12 14  1  0  0  0  0
 12 36  1  0  0  0  0
 13 15  1  0  0  0  0
 13 37  1  0  0  0  0
 14 16  1  0  0  0  0
 14 38  1  0  0  0  0
 15 39  1  0  0  0  0
 16 40  1  0  0  0  0
 16 41  1  0  0  0  0
 17 20  2  0  0  0  0
 17 22  1  0  0  0  0
 18 19  1  0  0  0  0
 18 21  1  0  0  0  0
 18 46  1  0  0  0  0
 18 47  1  0  0  0  0
 19 24  1  0  0  0  0
 19 48  1  0  0  0  0
 19 49  1  0  0  0  0
 20 23  1  0  0  0  0
 20 51  1  0  0  0  0
 21 32  1  0  0  0  0
 21 50  1  0  0  0  0
 22 26  2  0  0  0  0
 22 52  1  0  0  0  0
 23 25  2  0  0  0  0
 23 31  1  0  0  0  0
 24 29  1  0  0  0  0
 24 53  1  0  0  0  0
 24 54  1  0  0  0  0
 25 26  1  0  0  0  0
 25 33  1  0  0  0  0
 27 28  1  0  0  0  0
 27 29  1  0  0  0  0
 27 55  1  0  0  0  0
 27 56  1  0  0  0  0
 28 30  1  0  0  0  0
 28 57  1  0  0  0  0
 28 58  1  0  0  0  0
 30 34  1  0  0  0  0
 30 59  1  0  0  0  0
 30 60  1  0  0  0  0
 31 34  2  0  0  0  0
 31 64  1  0  0  0  0
 32 61  1  0  0  0  0
 32 62  1  0  0  0  0
 32 63  1  0  0  0  0
 34 65  1  0  0  0  0
M  END
> <PUBCHEM_COMPOUND_CID>
101168039

> <PUBCHEM_CONFORMER_RMSD>
1

> <PUBCHEM_CONFORMER_DIVERSEORDER>
1
86
49
62
76
130
225
90
146
273
187
56
39
101
35
230
275
23
243
117
13
151
60
181
177
205
271
107
120
202
250
106
137
213
78
246
102
158
258
200
233
128
129
253
72
191
179
254
148
197
16
256
47
272
64
112
28
44
93
182
185
226
54
50
160
159
155
199
167
8
198
69
95
6
195
204
79
251
222
31
2
228
154
122
15
237
269
242
165
135
27
113
142
189
248
17
87
82
126
234
127
77
153
4
96
10
240
214
103
152
114
231
98
68
123
57
105
124
268
88
145
175
73
266
63
262
162
48
220
116
257
139
252
52
7
75
193
215
66
188
229
11
144
192
5
164
206
163
224
134
45
22
241
267
25
223
245
84
277
9
260
104
41
43
53
97
111
169
12
40
99
265
150
236
149
217
161
71
59
274
263
174
264
14
210
232
3
24
91
170
85
203
19
94
190
38
180
157
244
89
171
186
183
110
201
70
184
51
255
83
133
227
131
132
46
219
276
125
143
235
270
30
37
172
147
100
136
208
33
221
121
42
249
212
67
36
216
259
32
140
108
61
156
176
173
21
261
141
115
207
18
196
26
65
178
138
166
55
247
194
74
168
239
119
81
80
58
92
20
218
34
109
238
118
29
211
209

> <PUBCHEM_MMFF94_PARTIAL_CHARGES>
39
1 -0.56
10 -0.57
11 0.28
12 0.28
13 0.28
14 0.28
15 0.56
16 0.28
17 0.08
2 -0.36
20 -0.15
21 0.28
22 -0.15
23 0.03
24 0.06
25 0.09
26 0.08
27 0.06
29 0.45
3 -0.68
30 0.14
31 -0.18
33 0.63
34 -0.29
4 -0.68
42 0.4
43 0.4
44 0.4
45 0.4
5 -0.68
51 0.15
52 0.15
6 -0.68
64 0.15
65 0.15
66 0.45
7 -0.43
8 -0.53
9 -0.57

> <PUBCHEM_EFFECTIVE_ROTOR_COUNT>
5.8

> <PUBCHEM_PHARMACOPHORE_FEATURES>
15
1 1 acceptor
1 10 acceptor
1 2 acceptor
1 3 acceptor
1 3 donor
1 4 acceptor
1 4 donor
1 5 acceptor
1 5 donor
1 6 acceptor
1 6 donor
1 8 donor
1 9 acceptor
6 1 11 12 13 14 15 rings
6 17 20 22 23 25 26 rings

> <PUBCHEM_HEAVY_ATOM_COUNT>
34

> <PUBCHEM_ATOM_DEF_STEREO_COUNT>
6

> <PUBCHEM_ATOM_UDEF_STEREO_COUNT>
0

> <PUBCHEM_BOND_DEF_STEREO_COUNT>
1

> <PUBCHEM_BOND_UDEF_STEREO_COUNT>
0

> <PUBCHEM_ISOTOPIC_ATOM_COUNT>
0

> <PUBCHEM_COMPONENT_COUNT>
1

> <PUBCHEM_CACTVS_TAUTO_COUNT>
54

> <PUBCHEM_CONFORMER_ID>
0607B3A700000001

> <PUBCHEM_MMFF94_ENERGY>
96.0725

> <PUBCHEM_FEATURE_SELFOVERLAP>
76.189

> <PUBCHEM_SHAPE_FINGERPRINT>
10577160 183 17168970219841093608
11227688 84 17628089888838314846
117089 54 17901675087867571107
11828532 37 17243304000834258323
12373685 5 17458617901331298794
12596602 18 15051435146466784194
13383661 66 18268719474793371699
13402501 40 18410856585447016919
13782708 43 18412260615178365520
14251757 17 18336256869597778679
15082195 135 17969796352994575380
15183329 4 17894622686382536571
17627616 140 17823126827133982947
19958102 18 18186514423507087595
21033650 10 17530964653029878249
23379529 103 18045785843362265995
23559900 14 18268141131735027945
244849 19 17702363200284364249
2838139 119 13190337937530979228
392239 28 14907892782258054184
4015057 19 18413105061404791656
4073 2 18342455928665834208
437795 70 18113894992360452863
46194498 28 18116151262712899365
508706 21 18113619019052589435
563151 248 18197799738626218161
6608658 132 16298374735092726581

> <PUBCHEM_SHAPE_MULTIPOLES>
641.01
14.96
3.82
2.22
14.69
1.51
-0.15
7.13
5.46
-2.46
1.13
-2.14
-0.41
3.04

> <PUBCHEM_SHAPE_SELFOVERLAP>
1337.574

> <PUBCHEM_SHAPE_VOLUME>
359.9

> <PUBCHEM_COORDINATE_TYPE>
2
5
10

$$$$
