101115422
  -OEChem-03292013293D

 35 35  0     1  0  0  0  0  0999 V2000
   -6.3900    0.9907    1.2417 Cl  0  0  0  0  0  0  0  0  0  0  0  0
    2.9845   -1.0354    0.5115 O   0  0  0  0  0  0  0  0  0  0  0  0
    0.6418    2.2916   -0.0431 O   0  0  0  0  0  0  0  0  0  0  0  0
    3.4020    2.3523   -0.8365 O   0  0  0  0  0  0  0  0  0  0  0  0
    1.1985   -2.3181    0.8093 O   0  5  0  0  0  0  0  0  0  0  0  0
    5.6955   -1.1252    0.0957 O   0  0  0  0  0  0  0  0  0  0  0  0
   -1.6789    0.0306    1.6328 O   0  0  0  0  0  0  0  0  0  0  0  0
   -4.0234   -0.9960   -2.1915 O   0  0  0  0  0  0  0  0  0  0  0  0
   -0.5695   -0.3278   -0.3482 N   0  0  0  0  0  0  0  0  0  0  0  0
   -2.9193   -0.4846   -0.2560 N   0  0  0  0  0  0  0  0  0  0  0  0
   -2.9005   -0.8041   -1.7124 N   0  0  0  0  0  0  0  0  0  0  0  0
    1.3802    1.1357   -0.4468 C   0  0  2  0  0  0  0  0  0  0  0  0
    0.7514   -0.1019    0.2134 C   0  0  2  0  0  0  0  0  0  0  0  0
    2.8411    1.3175   -0.0330 C   0  0  1  0  0  0  0  0  0  0  0  0
    3.6201    0.0152   -0.2199 C   0  0  1  0  0  0  0  0  0  0  0  0
    1.6622   -1.3495    0.0370 C   0  0  1  0  0  0  0  0  0  0  0  0
    5.0519    0.1201    0.2962 C   0  0  0  0  0  0  0  0  0  0  0  0
   -1.7180   -0.2415    0.4284 C   0  0  0  0  0  0  0  0  0  0  0  0
   -4.2059   -0.4287    0.4266 C   0  0  0  0  0  0  0  0  0  0  0  0
   -4.8236    0.9591    0.3947 C   0  0  0  0  0  0  0  0  0  0  0  0
    1.2974    1.0775   -1.5392 H   0  0  0  0  0  0  0  0  0  0  0  0
    0.6503    0.1267    1.2851 H   0  0  0  0  0  0  0  0  0  0  0  0
    2.8904    1.6494    1.0111 H   0  0  0  0  0  0  0  0  0  0  0  0
    3.6632   -0.2705   -1.2796 H   0  0  0  0  0  0  0  0  0  0  0  0
    1.7578   -1.5321   -1.0440 H   0  0  0  0  0  0  0  0  0  0  0  0
    5.0651    0.3339    1.3702 H   0  0  0  0  0  0  0  0  0  0  0  0
    5.6119    0.8961   -0.2344 H   0  0  0  0  0  0  0  0  0  0  0  0
   -0.6218   -0.5489   -1.3359 H   0  0  0  0  0  0  0  0  0  0  0  0
    0.7050    2.3682    0.9242 H   0  0  0  0  0  0  0  0  0  0  0  0
    3.4001    2.0500   -1.7607 H   0  0  0  0  0  0  0  0  0  0  0  0
    6.6031   -1.0368    0.4334 H   0  0  0  0  0  0  0  0  0  0  0  0
   -4.8850   -1.1799    0.0068 H   0  0  0  0  0  0  0  0  0  0  0  0
   -4.0452   -0.7209    1.4720 H   0  0  0  0  0  0  0  0  0  0  0  0
   -4.9982    1.2904   -0.6337 H   0  0  0  0  0  0  0  0  0  0  0  0
   -4.1700    1.6928    0.8770 H   0  0  0  0  0  0  0  0  0  0  0  0
  1 20  1  0  0  0  0
  2 15  1  0  0  0  0
  2 16  1  0  0  0  0
  3 12  1  0  0  0  0
  3 29  1  0  0  0  0
  4 14  1  0  0  0  0
  4 30  1  0  0  0  0
  5 16  1  0  0  0  0
  6 17  1  0  0  0  0
  6 31  1  0  0  0  0
  7 18  2  0  0  0  0
  8 11  2  0  0  0  0
  9 13  1  0  0  0  0
  9 18  1  0  0  0  0
  9 28  1  0  0  0  0
 10 11  1  0  0  0  0
 10 18  1  0  0  0  0
 10 19  1  0  0  0  0
 12 13  1  0  0  0  0
 12 14  1  0  0  0  0
 12 21  1  0  0  0  0
 13 16  1  0  0  0  0
 13 22  1  0  0  0  0
 14 15  1  0  0  0  0
 14 23  1  0  0  0  0
 15 17  1  0  0  0  0
 15 24  1  0  0  0  0
 16 25  1  0  0  0  0
 17 26  1  0  0  0  0
 17 27  1  0  0  0  0
 19 20  1  0  0  0  0
 19 32  1  0  0  0  0
 19 33  1  0  0  0  0
 20 34  1  0  0  0  0
 20 35  1  0  0  0  0
M  CHG  1   5  -1
M  END
> <PUBCHEM_COMPOUND_CID>
101115422

> <PUBCHEM_CONFORMER_RMSD>
0.8

> <PUBCHEM_CONFORMER_DIVERSEORDER>
1
72
157
206
176
171
137
162
105
41
194
40
121
186
138
118
184
84
180
42
129
116
190
47
130
60
55
160
89
54
31
131
185
15
164
148
143
182
85
181
71
188
24
101
46
122
79
91
152
128
125
175
207
16
117
169
120
132
96
59
177
149
33
155
161
187
126
17
189
199
103
153
107
76
102
77
179
75
99
6
150
127
183
191
159
133
66
100
151
12
173
48
163
2
30
145
140
166
74
139
205
168
34
45
92
18
108
14
4
80
167
50
203
36
90
53
170
61
83
98
58
111
106
22
146
28
10
172
97
193
95
88
158
56
94
81
65
43
113
123
78
3
93
114
174
9
26
195
178
198
136
73
51
44
154
86
209
7
142
110
147
21
135
208
37
68
196
115
134
49
197
165
202
23
69
87
201
39
64
19
156
25
192
32
141
144
62
112
204
119
11
8
27
52
63
38
124
5
70
29
200
67
57
35
109
104
82
13
20

> <PUBCHEM_MMFF94_PARTIAL_CHARGES>
24
1 -0.29
10 -0.18
11 -0.02
12 0.28
13 0.3
14 0.28
15 0.28
16 0.21
17 0.28
18 0.69
19 0.3
2 -0.56
20 0.29
28 0.37
29 0.4
3 -0.68
30 0.4
31 0.4
4 -0.68
5 -0.93
6 -0.68
7 -0.57
8 -0.16
9 -0.73

> <PUBCHEM_EFFECTIVE_ROTOR_COUNT>
8.2

> <PUBCHEM_PHARMACOPHORE_FEATURES>
11
1 2 acceptor
1 3 acceptor
1 3 donor
1 4 acceptor
1 4 donor
1 5 acceptor
1 6 acceptor
1 6 donor
1 7 acceptor
1 9 donor
6 2 12 13 14 15 16 rings

> <PUBCHEM_HEAVY_ATOM_COUNT>
20

> <PUBCHEM_ATOM_DEF_STEREO_COUNT>
4

> <PUBCHEM_ATOM_UDEF_STEREO_COUNT>
1

> <PUBCHEM_BOND_DEF_STEREO_COUNT>
0

> <PUBCHEM_BOND_UDEF_STEREO_COUNT>
0

> <PUBCHEM_ISOTOPIC_ATOM_COUNT>
0

> <PUBCHEM_COMPONENT_COUNT>
1

> <PUBCHEM_CACTVS_TAUTO_COUNT>
2

> <PUBCHEM_CONFORMER_ID>
0606E61E00000001

> <PUBCHEM_MMFF94_ENERGY>
46.8363

> <PUBCHEM_FEATURE_SELFOVERLAP>
55.911

> <PUBCHEM_SHAPE_FINGERPRINT>
10354089 29 18409737244382068153
10366900 7 13045947927947697901
11089746 13 17560794425229943937
11471102 20 18261107504797079932
11796584 16 16200435758360267622
12236239 1 18131632291900415907
12403259 415 17022899068734287501
12616971 3 18342176686865875925
13760787 5 18335699476825545508
13862211 1 18335973204414814730
18186145 218 17749383797428114497
19433438 15 18201721777657961005
200 152 18342454854654413042
20645477 56 17312817174329725263
20645477 70 18259987102295460274
20681677 155 17775564239133647015
21033648 29 16805591599347957549
21267235 1 18335995176754902864
21709351 56 18410568491951661493
2297311 6 15068628171320254191
23402539 116 17561358491552705932
23402655 69 18273498987356015157
23557571 272 14979684255969637402
23559900 14 18335421327108089392
23598291 2 18272362105597449407
5104073 3 18261393420031536121
633830 44 18338804510457414718
7495541 125 16660655080169954324
8272917 22 18410019797016021539
9981440 41 17048497039659748040
9999458 23 17603871135096400758

> <PUBCHEM_SHAPE_MULTIPOLES>
357.43
12.44
1.82
1.22
7.57
0.44
0.45
1.59
-1.82
-1.2
0.14
1.64
-0.29
-1.63

> <PUBCHEM_SHAPE_SELFOVERLAP>
700.269

> <PUBCHEM_SHAPE_VOLUME>
213.6

> <PUBCHEM_COORDINATE_TYPE>
2
5
10

$$$$
