101124022
  -OEChem-03292013293D

 58 62  0     1  0  0  0  0  0999 V2000
   -0.7887   -2.6787    0.3164 O   0  0  0  0  0  0  0  0  0  0  0  0
    1.8951    0.4708    1.7121 O   0  0  0  0  0  0  0  0  0  0  0  0
    2.1190   -2.1152    0.4563 O   0  0  0  0  0  0  0  0  0  0  0  0
    1.0672    3.1241    1.4061 O   0  0  0  0  0  0  0  0  0  0  0  0
    2.2825    4.3832   -0.7237 O   0  0  0  0  0  0  0  0  0  0  0  0
   -4.0292    1.9166   -0.4721 O   0  0  0  0  0  0  0  0  0  0  0  0
   -2.6985   -2.9107   -0.9077 O   0  0  0  0  0  0  0  0  0  0  0  0
    1.2670   -3.6038   -1.0912 O   0  0  0  0  0  0  0  0  0  0  0  0
    0.2643    1.2205    0.0339 C   0  0  1  0  0  0  0  0  0  0  0  0
    1.5263    0.2741    0.3253 C   0  0  1  0  0  0  0  0  0  0  0  0
   -0.8426    0.9368    1.1457 C   0  0  2  0  0  0  0  0  0  0  0  0
   -1.2010   -0.5797    1.3624 C   0  0  2  0  0  0  0  0  0  0  0  0
    2.8661    0.6369   -0.4805 C   0  0  0  0  0  0  0  0  0  0  0  0
    1.0652   -1.1952    0.1603 C   0  0  2  0  0  0  0  0  0  0  0  0
   -0.1273   -1.6128    1.0306 C   0  0  2  0  0  0  0  0  0  0  0  0
    0.7142    2.7245    0.0787 C   0  0  2  0  0  0  0  0  0  0  0  0
   -2.5016   -1.1598    0.7661 C   0  0  1  0  0  0  0  0  0  0  0  0
    3.1230    2.1672   -0.4320 C   0  0  0  0  0  0  0  0  0  0  0  0
    1.9167    3.0057   -0.8262 C   0  0  2  0  0  0  0  0  0  0  0  0
   -2.1157    1.8347    1.0633 C   0  0  0  0  0  0  0  0  0  0  0  0
   -0.3724    0.9774   -1.3599 C   0  0  0  0  0  0  0  0  0  0  0  0
   -3.3379   -0.1661    0.0639 C   0  0  0  0  0  0  0  0  0  0  0  0
    2.8837    0.1666   -1.9526 C   0  0  0  0  0  0  0  0  0  0  0  0
    4.1396    0.0005    0.1607 C   0  0  0  0  0  0  0  0  0  0  0  0
   -3.1433    1.1808    0.2367 C   0  0  0  0  0  0  0  0  0  0  0  0
   -2.0413   -2.3115   -0.0706 C   0  0  0  0  0  0  0  0  0  0  0  0
   -4.4476   -0.2760   -0.8073 C   0  0  0  0  0  0  0  0  0  0  0  0
    2.0935   -3.2829   -0.2480 C   0  0  0  0  0  0  0  0  0  0  0  0
   -4.8257    1.0152   -1.1113 C   0  0  0  0  0  0  0  0  0  0  0  0
    3.2493   -4.1432    0.1644 C   0  0  0  0  0  0  0  0  0  0  0  0
   -0.3792    1.2409    2.0950 H   0  0  0  0  0  0  0  0  0  0  0  0
   -1.3538   -0.6466    2.4528 H   0  0  0  0  0  0  0  0  0  0  0  0
    0.7944   -1.3241   -0.8938 H   0  0  0  0  0  0  0  0  0  0  0  0
    0.2361   -2.0608    1.9647 H   0  0  0  0  0  0  0  0  0  0  0  0
   -0.0938    3.3931   -0.2387 H   0  0  0  0  0  0  0  0  0  0  0  0
   -3.0958   -1.5978    1.5804 H   0  0  0  0  0  0  0  0  0  0  0  0
    3.9684    2.4303   -1.0833 H   0  0  0  0  0  0  0  0  0  0  0  0
    3.4520    2.4636    0.5741 H   0  0  0  0  0  0  0  0  0  0  0  0
    1.6536    2.8353   -1.8739 H   0  0  0  0  0  0  0  0  0  0  0  0
   -1.9013    2.8418    0.7015 H   0  0  0  0  0  0  0  0  0  0  0  0
   -2.5237    1.9513    2.0759 H   0  0  0  0  0  0  0  0  0  0  0  0
    0.3280    1.0861   -2.1821 H   0  0  0  0  0  0  0  0  0  0  0  0
   -1.1612    1.7099   -1.5634 H   0  0  0  0  0  0  0  0  0  0  0  0
   -0.8229   -0.0126   -1.4552 H   0  0  0  0  0  0  0  0  0  0  0  0
    4.1801   -1.0821    0.0279 H   0  0  0  0  0  0  0  0  0  0  0  0
    2.6807   -0.9037   -2.0460 H   0  0  0  0  0  0  0  0  0  0  0  0
    4.2240    0.2184    1.2300 H   0  0  0  0  0  0  0  0  0  0  0  0
    5.0489    0.3965   -0.3099 H   0  0  0  0  0  0  0  0  0  0  0  0
    3.8738    0.3328   -2.3968 H   0  0  0  0  0  0  0  0  0  0  0  0
    2.1884    0.7046   -2.5928 H   0  0  0  0  0  0  0  0  0  0  0  0
    1.3323   -0.0752    2.2829 H   0  0  0  0  0  0  0  0  0  0  0  0
    0.2437    3.2912    1.8943 H   0  0  0  0  0  0  0  0  0  0  0  0
    3.0248    4.5364   -1.3330 H   0  0  0  0  0  0  0  0  0  0  0  0
   -4.9209   -1.1767   -1.1708 H   0  0  0  0  0  0  0  0  0  0  0  0
   -5.6046    1.4385   -1.7286 H   0  0  0  0  0  0  0  0  0  0  0  0
    3.2178   -4.3156    1.2433 H   0  0  0  0  0  0  0  0  0  0  0  0
    3.1791   -5.1106   -0.3411 H   0  0  0  0  0  0  0  0  0  0  0  0
    4.1888   -3.6647   -0.1222 H   0  0  0  0  0  0  0  0  0  0  0  0
  1 15  1  0  0  0  0
  1 26  1  0  0  0  0
  2 10  1  0  0  0  0
  2 51  1  0  0  0  0
  3 14  1  0  0  0  0
  3 28  1  0  0  0  0
  4 16  1  0  0  0  0
  4 52  1  0  0  0  0
  5 19  1  0  0  0  0
  5 53  1  0  0  0  0
  6 25  1  0  0  0  0
  6 29  1  0  0  0  0
  7 26  2  0  0  0  0
  8 28  2  0  0  0  0
  9 10  1  0  0  0  0
  9 11  1  0  0  0  0
  9 16  1  0  0  0  0
  9 21  1  0  0  0  0
 10 13  1  0  0  0  0
 10 14  1  0  0  0  0
 11 12  1  0  0  0  0
 11 20  1  0  0  0  0
 11 31  1  0  0  0  0
 12 15  1  0  0  0  0
 12 17  1  0  0  0  0
 12 32  1  0  0  0  0
 13 18  1  0  0  0  0
 13 23  1  0  0  0  0
 13 24  1  0  0  0  0
 14 15  1  0  0  0  0
 14 33  1  0  0  0  0
 15 34  1  0  0  0  0
 16 19  1  0  0  0  0
 16 35  1  0  0  0  0
 17 22  1  0  0  0  0
 17 26  1  0  0  0  0
 17 36  1  0  0  0  0
 18 19  1  0  0  0  0
 18 37  1  0  0  0  0
 18 38  1  0  0  0  0
 19 39  1  0  0  0  0
 20 25  1  0  0  0  0
 20 40  1  0  0  0  0
 20 41  1  0  0  0  0
 21 42  1  0  0  0  0
 21 43  1  0  0  0  0
 21 44  1  0  0  0  0
 22 25  2  0  0  0  0
 22 27  1  0  0  0  0
 23 46  1  0  0  0  0
 23 49  1  0  0  0  0
 23 50  1  0  0  0  0
 24 45  1  0  0  0  0
 24 47  1  0  0  0  0
 24 48  1  0  0  0  0
 27 29  2  0  0  0  0
 27 54  1  0  0  0  0
 28 30  1  0  0  0  0
 29 55  1  0  0  0  0
 30 56  1  0  0  0  0
 30 57  1  0  0  0  0
 30 58  1  0  0  0  0
M  END
> <PUBCHEM_COMPOUND_CID>
101124022

> <PUBCHEM_CONFORMER_RMSD>
0.8

> <PUBCHEM_CONFORMER_DIVERSEORDER>
1
2
3

> <PUBCHEM_MMFF94_PARTIAL_CHARGES>
27
1 -0.43
10 0.28
14 0.28
15 0.28
16 0.28
17 0.24
19 0.28
2 -0.68
20 0.18
22 -0.18
25 -0.04
26 0.66
27 -0.15
28 0.66
29 -0.01
3 -0.43
30 0.06
4 -0.68
5 -0.68
51 0.4
52 0.4
53 0.4
54 0.15
55 0.15
6 -0.28
7 -0.57
8 -0.57

> <PUBCHEM_EFFECTIVE_ROTOR_COUNT>
3.4

> <PUBCHEM_PHARMACOPHORE_FEATURES>
15
1 2 acceptor
1 2 donor
1 4 acceptor
1 4 donor
1 5 acceptor
1 5 donor
1 6 acceptor
1 7 acceptor
1 8 acceptor
3 13 23 24 hydrophobe
5 1 12 15 17 26 rings
5 6 22 25 27 29 rings
6 11 12 17 20 22 25 rings
6 9 10 11 12 14 15 rings
6 9 10 13 16 18 19 rings

> <PUBCHEM_HEAVY_ATOM_COUNT>
30

> <PUBCHEM_ATOM_DEF_STEREO_COUNT>
9

> <PUBCHEM_ATOM_UDEF_STEREO_COUNT>
0

> <PUBCHEM_BOND_DEF_STEREO_COUNT>
0

> <PUBCHEM_BOND_UDEF_STEREO_COUNT>
0

> <PUBCHEM_ISOTOPIC_ATOM_COUNT>
0

> <PUBCHEM_COMPONENT_COUNT>
1

> <PUBCHEM_CACTVS_TAUTO_COUNT>
4

> <PUBCHEM_CONFORMER_ID>
060707B600000001

> <PUBCHEM_MMFF94_ENERGY>
122.8257

> <PUBCHEM_FEATURE_SELFOVERLAP>
76.497

> <PUBCHEM_SHAPE_FINGERPRINT>
10675989 125 18409164385882124737
10863032 1 18409732833382284487
10948715 1 18187643660809058905
10967382 1 18338240358024004546
11370993 70 18264204892897194925
11578080 2 17200507717871245353
12156800 1 13430897063089473389
12422481 6 18118377619720695866
12553582 1 18122929545982307666
12788726 201 17616272285906366038
13004483 165 17902779770266355418
13140716 1 18124608731965605227
13583140 156 17458344156567811641
138480 1 18265333906644589102
14790565 3 15889684820082215600
14955137 171 17834700205286940985
15081414 286 18337113341483953457
16945 1 18339935882210634137
17980427 23 18046591699105953818
19591789 44 17907587174252187267
20691752 17 17387138572356364083
20739085 24 17763498048006216001
20775438 99 17838858807540696095
22149856 69 18267591398535205947
22393880 68 18267030637896565700
22907989 373 17248953346630942373
2334 1 17835248122168900441
23559900 14 18341047505883983840
23566358 2 18053116295389209140
238 59 18410857689427217639
350125 39 18120664775188034177
4280585 95 18123188996494026822
5265222 85 17974026216907186380
59554788 191 18337386170865226322
9981440 41 18120086449124950240

> <PUBCHEM_SHAPE_MULTIPOLES>
570.43
6.95
4.81
1.33
4.75
1.17
-0.04
-0.06
-2.05
-4.19
-0.56
-0.02
-0.25
-0.28

> <PUBCHEM_SHAPE_SELFOVERLAP>
1254.005

> <PUBCHEM_SHAPE_VOLUME>
302.9

> <PUBCHEM_COORDINATE_TYPE>
2
5
10

$$$$
