101184928
  -OEChem-03292013293D

 65 67  0     1  0  0  0  0  0999 V2000
   -0.6915    1.5260    1.0254 O   0  0  0  0  0  0  0  0  0  0  0  0
    0.5944   -3.4241    1.7656 O   0  0  0  0  0  0  0  0  0  0  0  0
    1.0544   -3.6517   -1.0566 O   0  0  0  0  0  0  0  0  0  0  0  0
   -1.5870   -0.4598   -2.1734 O   0  0  0  0  0  0  0  0  0  0  0  0
    2.3558    1.3583    2.9208 O   0  0  0  0  0  0  0  0  0  0  0  0
    3.0778   -1.4061    0.7598 O   0  0  0  0  0  0  0  0  0  0  0  0
   -3.6160   -0.6070    1.5893 O   0  0  0  0  0  0  0  0  0  0  0  0
   -0.5153    3.5127   -0.1177 O   0  0  0  0  0  0  0  0  0  0  0  0
    0.4644   -0.5557    1.3458 C   0  0  1  0  0  0  0  0  0  0  0  0
   -0.7899   -1.4890    1.2473 C   0  0  2  0  0  0  0  0  0  0  0  0
    1.0948   -0.3823   -0.0694 C   0  0  2  0  0  0  0  0  0  0  0  0
    0.4043   -1.3203   -1.0812 C   0  0  1  0  0  0  0  0  0  0  0  0
   -0.3204   -2.9097    0.8068 C   0  0  1  0  0  0  0  0  0  0  0  0
    0.1256    0.8051    1.9644 C   0  0  1  0  0  0  0  0  0  0  0  0
    0.4384   -2.7389   -0.5136 C   0  0  0  0  0  0  0  0  0  0  0  0
   -1.7231   -0.9292    0.1867 C   0  0  0  0  0  0  0  0  0  0  0  0
   -1.0444   -0.8540   -1.1507 C   0  0  0  0  0  0  0  0  0  0  0  0
   -1.4663   -3.9072    0.6437 C   0  0  0  0  0  0  0  0  0  0  0  0
    2.5731   -0.6363   -0.0543 C   0  0  0  0  0  0  0  0  0  0  0  0
    1.3099    1.6828    2.1032 C   0  0  0  0  0  0  0  0  0  0  0  0
   -0.6618    0.6461    3.2608 C   0  0  0  0  0  0  0  0  0  0  0  0
   -2.9889   -0.5388    0.3576 C   0  0  0  0  0  0  0  0  0  0  0  0
    1.2221    2.7851    1.3589 C   0  0  0  0  0  0  0  0  0  0  0  0
   -0.0696    2.6877    0.6617 C   0  0  0  0  0  0  0  0  0  0  0  0
    3.3889    0.1150   -1.0486 C   0  0  0  0  0  0  0  0  0  0  0  0
   -3.7999   -0.0155   -0.7292 C   0  0  0  0  0  0  0  0  0  0  0  0
    2.1566    3.9196    1.1954 C   0  0  0  0  0  0  0  0  0  0  0  0
    4.7171   -0.0512   -1.1047 C   0  0  0  0  0  0  0  0  0  0  0  0
   -5.0750    0.3937   -0.6269 C   0  0  0  0  0  0  0  0  0  0  0  0
    5.5525    0.6552   -2.0506 C   0  0  0  0  0  0  0  0  0  0  0  0
   -5.8282    0.9067   -1.7507 C   0  0  0  0  0  0  0  0  0  0  0  0
    6.8826    0.4970   -2.1161 C   0  0  0  0  0  0  0  0  0  0  0  0
   -7.1015    1.3168   -1.6548 C   0  0  0  0  0  0  0  0  0  0  0  0
    7.7558    1.2205   -3.0881 C   0  0  0  0  0  0  0  0  0  0  0  0
   -7.8896    1.8484   -2.8067 C   0  0  0  0  0  0  0  0  0  0  0  0
    1.1684   -1.0422    2.0325 H   0  0  0  0  0  0  0  0  0  0  0  0
   -1.2448   -1.6013    2.2331 H   0  0  0  0  0  0  0  0  0  0  0  0
    0.9593    0.6331   -0.4508 H   0  0  0  0  0  0  0  0  0  0  0  0
    0.8607   -1.2992   -2.0750 H   0  0  0  0  0  0  0  0  0  0  0  0
   -2.0397   -3.9920    1.5734 H   0  0  0  0  0  0  0  0  0  0  0  0
   -1.0816   -4.9097    0.4217 H   0  0  0  0  0  0  0  0  0  0  0  0
   -2.1489   -3.6347   -0.1671 H   0  0  0  0  0  0  0  0  0  0  0  0
   -1.7028    0.3635    3.0941 H   0  0  0  0  0  0  0  0  0  0  0  0
   -0.7179    1.6041    3.7941 H   0  0  0  0  0  0  0  0  0  0  0  0
   -0.1928   -0.0735    3.9403 H   0  0  0  0  0  0  0  0  0  0  0  0
    0.8618   -4.3153    1.4832 H   0  0  0  0  0  0  0  0  0  0  0  0
    2.8697    0.7908   -1.7202 H   0  0  0  0  0  0  0  0  0  0  0  0
    2.1390    0.5196    3.3621 H   0  0  0  0  0  0  0  0  0  0  0  0
   -3.4240    0.0946   -1.7292 H   0  0  0  0  0  0  0  0  0  0  0  0
    2.4706    4.0082    0.1506 H   0  0  0  0  0  0  0  0  0  0  0  0
    3.0558    3.7933    1.8066 H   0  0  0  0  0  0  0  0  0  0  0  0
    1.6766    4.8571    1.4928 H   0  0  0  0  0  0  0  0  0  0  0  0
   -3.0825   -1.1263    2.2084 H   0  0  0  0  0  0  0  0  0  0  0  0
    5.2171   -0.7357   -0.4244 H   0  0  0  0  0  0  0  0  0  0  0  0
   -5.5936    0.3481    0.3275 H   0  0  0  0  0  0  0  0  0  0  0  0
    5.0608    1.3435   -2.7335 H   0  0  0  0  0  0  0  0  0  0  0  0
   -5.3247    0.9566   -2.7130 H   0  0  0  0  0  0  0  0  0  0  0  0
    7.3840   -0.1891   -1.4375 H   0  0  0  0  0  0  0  0  0  0  0  0
   -7.6177    1.2728   -0.6986 H   0  0  0  0  0  0  0  0  0  0  0  0
    8.2846    0.5010   -3.7207 H   0  0  0  0  0  0  0  0  0  0  0  0
    8.4989    1.8161   -2.5492 H   0  0  0  0  0  0  0  0  0  0  0  0
    7.1864    1.8923   -3.7382 H   0  0  0  0  0  0  0  0  0  0  0  0
   -7.3097    1.8646   -3.7349 H   0  0  0  0  0  0  0  0  0  0  0  0
   -8.2191    2.8697   -2.5927 H   0  0  0  0  0  0  0  0  0  0  0  0
   -8.7761    1.2278   -2.9693 H   0  0  0  0  0  0  0  0  0  0  0  0
  1 14  1  0  0  0  0
  1 24  1  0  0  0  0
  2 13  1  0  0  0  0
  2 46  1  0  0  0  0
  3 15  2  0  0  0  0
  4 17  2  0  0  0  0
  5 20  1  0  0  0  0
  5 48  1  0  0  0  0
  6 19  2  0  0  0  0
  7 22  1  0  0  0  0
  7 53  1  0  0  0  0
  8 24  2  0  0  0  0
  9 10  1  0  0  0  0
  9 11  1  0  0  0  0
  9 14  1  0  0  0  0
  9 36  1  0  0  0  0
 10 13  1  0  0  0  0
 10 16  1  0  0  0  0
 10 37  1  0  0  0  0
 11 12  1  0  0  0  0
 11 19  1  0  0  0  0
 11 38  1  0  0  0  0
 12 15  1  0  0  0  0
 12 17  1  0  0  0  0
 12 39  1  0  0  0  0
 13 15  1  0  0  0  0
 13 18  1  0  0  0  0
 14 20  1  0  0  0  0
 14 21  1  0  0  0  0
 16 17  1  0  0  0  0
 16 22  2  0  0  0  0
 18 40  1  0  0  0  0
 18 41  1  0  0  0  0
 18 42  1  0  0  0  0
 19 25  1  0  0  0  0
 20 23  2  0  0  0  0
 21 43  1  0  0  0  0
 21 44  1  0  0  0  0
 21 45  1  0  0  0  0
 22 26  1  0  0  0  0
 23 24  1  0  0  0  0
 23 27  1  0  0  0  0
 25 28  2  0  0  0  0
 25 47  1  0  0  0  0
 26 29  2  0  0  0  0
 26 49  1  0  0  0  0
 27 50  1  0  0  0  0
 27 51  1  0  0  0  0
 27 52  1  0  0  0  0
 28 30  1  0  0  0  0
 28 54  1  0  0  0  0
 29 31  1  0  0  0  0
 29 55  1  0  0  0  0
 30 32  2  0  0  0  0
 30 56  1  0  0  0  0
 31 33  2  0  0  0  0
 31 57  1  0  0  0  0
 32 34  1  0  0  0  0
 32 58  1  0  0  0  0
 33 35  1  0  0  0  0
 33 59  1  0  0  0  0
 34 60  1  0  0  0  0
 34 61  1  0  0  0  0
 34 62  1  0  0  0  0
 35 63  1  0  0  0  0
 35 64  1  0  0  0  0
 35 65  1  0  0  0  0
M  END
> <PUBCHEM_COMPOUND_CID>
101184928

> <PUBCHEM_CONFORMER_RMSD>
1

> <PUBCHEM_CONFORMER_DIVERSEORDER>
1
12
8
7
11
10
9
6
3
4
2
5

> <PUBCHEM_MMFF94_PARTIAL_CHARGES>
43
1 -0.43
10 0.14
11 0.06
12 0.12
13 0.34
14 0.42
15 0.45
16 -0.12
17 0.49
19 0.49
2 -0.68
20 -0.06
22 0.08
23 -0.12
24 0.71
25 -0.14
26 -0.15
27 0.14
28 -0.15
29 -0.15
3 -0.57
30 -0.15
31 -0.15
32 -0.29
33 -0.29
34 0.14
35 0.14
4 -0.57
46 0.4
47 0.15
48 0.45
49 0.15
5 -0.53
53 0.45
54 0.15
55 0.15
56 0.15
57 0.15
58 0.15
59 0.15
6 -0.57
7 -0.53
8 -0.57

> <PUBCHEM_EFFECTIVE_ROTOR_COUNT>
7

> <PUBCHEM_PHARMACOPHORE_FEATURES>
13
1 12 anion
1 2 acceptor
1 2 donor
1 3 acceptor
1 34 hydrophobe
1 35 hydrophobe
1 4 acceptor
1 5 donor
1 6 acceptor
1 7 donor
1 8 acceptor
5 1 14 20 23 24 rings
8 9 10 11 12 13 15 16 17 rings

> <PUBCHEM_HEAVY_ATOM_COUNT>
35

> <PUBCHEM_ATOM_DEF_STEREO_COUNT>
6

> <PUBCHEM_ATOM_UDEF_STEREO_COUNT>
0

> <PUBCHEM_BOND_DEF_STEREO_COUNT>
5

> <PUBCHEM_BOND_UDEF_STEREO_COUNT>
0

> <PUBCHEM_ISOTOPIC_ATOM_COUNT>
0

> <PUBCHEM_COMPONENT_COUNT>
1

> <PUBCHEM_CACTVS_TAUTO_COUNT>
1001

> <PUBCHEM_CONFORMER_ID>
0607F5A000000001

> <PUBCHEM_MMFF94_ENERGY>
91.4449

> <PUBCHEM_FEATURE_SELFOVERLAP>
65.974

> <PUBCHEM_SHAPE_FINGERPRINT>
10165383 225 18261408762277358307
10483366 6 18410296891258394780
11115154 58 16845293813798245073
11445158 3 17689762865395813721
11578080 2 18047476900609016140
11607047 141 15576104353074808081
12788726 201 18270411499192726528
12895836 83 17894634794063901966
13149001 5 18200036294862276418
13540713 4 17984702487175183146
13911987 19 18411146822177948327
14068700 675 14333415532194277486
15439362 3 18196916963089561481
16945 1 17918281930481731643
16994733 274 16732987547994485220
17492 54 18410578366123770080
18365409 1 16270261245395139401
19958102 18 18127159449620633918
20642791 239 18337399335140708656
20691752 17 18121746600214195229
3633792 109 18188777137423574414
484989 97 18125732415880929871

> <PUBCHEM_SHAPE_MULTIPOLES>
673.33
13.28
4.02
3.06
3.4
1.08
0.15
-10.02
-20.3
-0.04
1.45
-1.13
-1.6
1.79

> <PUBCHEM_SHAPE_SELFOVERLAP>
1442.866

> <PUBCHEM_SHAPE_VOLUME>
367.4

> <PUBCHEM_COORDINATE_TYPE>
2
5
10

$$$$
