101158593
  -OEChem-03292013293D

 64 68  0     1  0  0  0  0  0999 V2000
    0.4095    0.8747    2.2433 O   0  0  0  0  0  0  0  0  0  0  0  0
    0.3877   -3.0831    0.6317 O   0  0  0  0  0  0  0  0  0  0  0  0
    0.3856    1.3199   -1.8028 O   0  0  0  0  0  0  0  0  0  0  0  0
    3.4655    0.9097   -0.6748 O   0  0  0  0  0  0  0  0  0  0  0  0
   -0.1008   -2.8552   -1.6544 O   0  0  0  0  0  0  0  0  0  0  0  0
   -3.3960   -0.6142    1.4768 O   0  0  0  0  0  0  0  0  0  0  0  0
   -1.6424    1.1585    3.1212 O   0  0  0  0  0  0  0  0  0  0  0  0
   -5.8396   -0.2338   -0.3225 O   0  0  0  0  0  0  0  0  0  0  0  0
    5.2064    2.0661    0.3097 O   0  0  0  0  0  0  0  0  0  0  0  0
    0.6004   -0.6930    0.3822 C   0  0  1  0  0  0  0  0  0  0  0  0
   -0.7677   -0.2017   -0.2425 C   0  0  1  0  0  0  0  0  0  0  0  0
   -1.5196    0.7684    0.7405 C   0  0  1  0  0  0  0  0  0  0  0  0
    1.5534   -1.4227   -0.6020 C   0  0  1  0  0  0  0  0  0  0  0  0
    1.1953    0.5377    1.0852 C   0  0  2  0  0  0  0  0  0  0  0  0
    3.0825   -1.4544   -0.1919 C   0  0  0  0  0  0  0  0  0  0  0  0
   -0.6963    0.3980   -1.6808 C   0  0  1  0  0  0  0  0  0  0  0  0
   -2.7353    1.8526   -0.9973 C   0  0  1  0  0  0  0  0  0  0  0  0
   -1.7620    2.1677    0.1378 C   0  0  0  0  0  0  0  0  0  0  0  0
    0.2672   -1.8479    1.3552 C   0  0  0  0  0  0  0  0  0  0  0  0
   -1.9964    1.1000   -2.1238 C   0  0  0  0  0  0  0  0  0  0  0  0
    2.6465    0.3765    1.5251 C   0  0  0  0  0  0  0  0  0  0  0  0
   -3.8175    1.0362   -0.2501 C   0  0  2  0  0  0  0  0  0  0  0  0
    3.5244   -0.0740    0.3601 C   0  0  2  0  0  0  0  0  0  0  0  0
    0.9277   -2.8232   -0.6692 C   0  0  1  0  0  0  0  0  0  0  0  0
   -2.9713    0.2796    0.7552 C   0  0  0  0  0  0  0  0  0  0  0  0
   -0.9407    0.9335    2.1382 C   0  0  0  0  0  0  0  0  0  0  0  0
    3.4704   -2.5394    0.8441 C   0  0  0  0  0  0  0  0  0  0  0  0
    3.9066   -1.7741   -1.4684 C   0  0  0  0  0  0  0  0  0  0  0  0
   -4.6968    0.1254   -1.0833 C   0  0  0  0  0  0  0  0  0  0  0  0
    4.3693    1.9269   -0.5719 C   0  0  0  0  0  0  0  0  0  0  0  0
   -6.7071   -1.0914   -1.0531 C   0  0  0  0  0  0  0  0  0  0  0  0
    4.1912    2.8765   -1.7176 C   0  0  0  0  0  0  0  0  0  0  0  0
   -1.4004   -1.0935   -0.3650 H   0  0  0  0  0  0  0  0  0  0  0  0
    1.5087   -0.9505   -1.5878 H   0  0  0  0  0  0  0  0  0  0  0  0
    1.1734    1.4169    0.4337 H   0  0  0  0  0  0  0  0  0  0  0  0
   -0.4913   -0.4023   -2.3996 H   0  0  0  0  0  0  0  0  0  0  0  0
   -3.1854    2.7636   -1.4078 H   0  0  0  0  0  0  0  0  0  0  0  0
   -0.8490    2.6705   -0.1927 H   0  0  0  0  0  0  0  0  0  0  0  0
   -2.2344    2.8404    0.8678 H   0  0  0  0  0  0  0  0  0  0  0  0
    0.9465   -1.8928    2.2099 H   0  0  0  0  0  0  0  0  0  0  0  0
   -0.7454   -1.8027    1.7677 H   0  0  0  0  0  0  0  0  0  0  0  0
   -2.6556    0.3702   -2.6022 H   0  0  0  0  0  0  0  0  0  0  0  0
   -1.7507    1.8314   -2.9052 H   0  0  0  0  0  0  0  0  0  0  0  0
    2.9949    1.3444    1.9087 H   0  0  0  0  0  0  0  0  0  0  0  0
    2.7207   -0.3082    2.3766 H   0  0  0  0  0  0  0  0  0  0  0  0
   -4.4385    1.7266    0.3373 H   0  0  0  0  0  0  0  0  0  0  0  0
    4.5591   -0.1698    0.7168 H   0  0  0  0  0  0  0  0  0  0  0  0
    1.6425   -3.6061   -0.9338 H   0  0  0  0  0  0  0  0  0  0  0  0
    4.5422   -2.4862    1.0729 H   0  0  0  0  0  0  0  0  0  0  0  0
    4.9825   -1.7369   -1.2616 H   0  0  0  0  0  0  0  0  0  0  0  0
    3.2891   -3.5526    0.4729 H   0  0  0  0  0  0  0  0  0  0  0  0
    2.9459   -2.4361    1.7940 H   0  0  0  0  0  0  0  0  0  0  0  0
    3.7029   -1.0623   -2.2759 H   0  0  0  0  0  0  0  0  0  0  0  0
    3.6780   -2.7748   -1.8509 H   0  0  0  0  0  0  0  0  0  0  0  0
   -4.1613   -0.7869   -1.3714 H   0  0  0  0  0  0  0  0  0  0  0  0
   -5.0269    0.6510   -1.9868 H   0  0  0  0  0  0  0  0  0  0  0  0
    0.4498    1.5806   -2.7372 H   0  0  0  0  0  0  0  0  0  0  0  0
   -0.2333   -3.7863   -1.9006 H   0  0  0  0  0  0  0  0  0  0  0  0
   -7.5662   -1.3309   -0.4208 H   0  0  0  0  0  0  0  0  0  0  0  0
   -6.1952   -2.0228   -1.3138 H   0  0  0  0  0  0  0  0  0  0  0  0
   -7.0675   -0.5925   -1.9579 H   0  0  0  0  0  0  0  0  0  0  0  0
    4.3698    2.3554   -2.6614 H   0  0  0  0  0  0  0  0  0  0  0  0
    4.9127    3.6935   -1.6276 H   0  0  0  0  0  0  0  0  0  0  0  0
    3.1830    3.2980   -1.6952 H   0  0  0  0  0  0  0  0  0  0  0  0
  1 14  1  0  0  0  0
  1 26  1  0  0  0  0
  2 19  1  0  0  0  0
  2 24  1  0  0  0  0
  3 16  1  0  0  0  0
  3 57  1  0  0  0  0
  4 23  1  0  0  0  0
  4 30  1  0  0  0  0
  5 24  1  0  0  0  0
  5 58  1  0  0  0  0
  6 25  2  0  0  0  0
  7 26  2  0  0  0  0
  8 29  1  0  0  0  0
  8 31  1  0  0  0  0
  9 30  2  0  0  0  0
 10 11  1  0  0  0  0
 10 13  1  0  0  0  0
 10 14  1  0  0  0  0
 10 19  1  0  0  0  0
 11 12  1  0  0  0  0
 11 16  1  0  0  0  0
 11 33  1  0  0  0  0
 12 18  1  0  0  0  0
 12 25  1  0  0  0  0
 12 26  1  0  0  0  0
 13 15  1  0  0  0  0
 13 24  1  0  0  0  0
 13 34  1  0  0  0  0
 14 21  1  0  0  0  0
 14 35  1  0  0  0  0
 15 23  1  0  0  0  0
 15 27  1  0  0  0  0
 15 28  1  0  0  0  0
 16 20  1  0  0  0  0
 16 36  1  0  0  0  0
 17 18  1  0  0  0  0
 17 20  1  0  0  0  0
 17 22  1  0  0  0  0
 17 37  1  0  0  0  0
 18 38  1  0  0  0  0
 18 39  1  0  0  0  0
 19 40  1  0  0  0  0
 19 41  1  0  0  0  0
 20 42  1  0  0  0  0
 20 43  1  0  0  0  0
 21 23  1  0  0  0  0
 21 44  1  0  0  0  0
 21 45  1  0  0  0  0
 22 25  1  0  0  0  0
 22 29  1  0  0  0  0
 22 46  1  0  0  0  0
 23 47  1  0  0  0  0
 24 48  1  0  0  0  0
 27 49  1  0  0  0  0
 27 51  1  0  0  0  0
 27 52  1  0  0  0  0
 28 50  1  0  0  0  0
 28 53  1  0  0  0  0
 28 54  1  0  0  0  0
 29 55  1  0  0  0  0
 29 56  1  0  0  0  0
 30 32  1  0  0  0  0
 31 59  1  0  0  0  0
 31 60  1  0  0  0  0
 31 61  1  0  0  0  0
 32 62  1  0  0  0  0
 32 63  1  0  0  0  0
 32 64  1  0  0  0  0
M  END
> <PUBCHEM_COMPOUND_CID>
101158593

> <PUBCHEM_CONFORMER_RMSD>
0.8

> <PUBCHEM_CONFORMER_DIVERSEORDER>
1
3
2

> <PUBCHEM_MMFF94_PARTIAL_CHARGES>
24
1 -0.43
12 0.12
14 0.28
16 0.28
19 0.28
2 -0.56
22 0.06
23 0.28
24 0.56
25 0.45
26 0.66
29 0.28
3 -0.68
30 0.66
31 0.28
32 0.06
4 -0.43
5 -0.68
57 0.4
58 0.4
6 -0.57
7 -0.57
8 -0.56
9 -0.57

> <PUBCHEM_EFFECTIVE_ROTOR_COUNT>
6.2

> <PUBCHEM_PHARMACOPHORE_FEATURES>
14
1 2 acceptor
1 3 acceptor
1 3 donor
1 5 acceptor
1 5 donor
1 6 acceptor
1 7 acceptor
1 8 acceptor
1 9 acceptor
3 15 27 28 hydrophobe
5 2 10 13 19 24 rings
6 1 10 11 12 14 26 rings
6 10 13 14 15 21 23 rings
8 11 12 16 17 18 20 22 25 rings

> <PUBCHEM_HEAVY_ATOM_COUNT>
32

> <PUBCHEM_ATOM_DEF_STEREO_COUNT>
9

> <PUBCHEM_ATOM_UDEF_STEREO_COUNT>
1

> <PUBCHEM_BOND_DEF_STEREO_COUNT>
0

> <PUBCHEM_BOND_UDEF_STEREO_COUNT>
0

> <PUBCHEM_ISOTOPIC_ATOM_COUNT>
0

> <PUBCHEM_COMPONENT_COUNT>
1

> <PUBCHEM_CACTVS_TAUTO_COUNT>
4

> <PUBCHEM_CONFORMER_ID>
06078EC100000001

> <PUBCHEM_MMFF94_ENERGY>
126.8972

> <PUBCHEM_FEATURE_SELFOVERLAP>
71.299

> <PUBCHEM_SHAPE_FINGERPRINT>
10165383 225 18340203102608094616
10366900 7 17386580033297464870
10863032 1 18113905922556212754
10871710 139 17178302054188554380
10906281 52 17313399906813082005
11370993 70 18408608071636357624
11421498 54 18131351886771670713
11578080 2 17540286175049766893
11582403 64 16518456306786391566
12107698 1 17749660797518673980
12166972 35 18268703918901347058
12403260 363 18263640671759716898
12553582 1 16200138885741287641
12788726 201 16774085059046222216
13224815 77 18341610360999600998
13583140 156 17749117660391723578
1361 2 18188209909065547813
13911987 19 18264785422384283188
14142880 1 17901383712911160324
14787075 74 18130786776391540499
15840311 113 18190754029582549005
16752209 62 15983117156291955713
16945 1 16558745672697627872
17349148 13 13479143362902044873
17492 54 18341615974600939257
1813 80 15697988635575591353
19319366 153 18201423788184435750
19930381 70 18334858299007175476
20691752 17 16081653249247665853
22149856 69 18272658948405228939
23227448 37 17971200459112168564
23419403 2 16982946308010710704
23557571 272 16516557441478137769
23559900 14 18045772386865561571
238 59 18264206920358752166
3027735 51 16608583605396485436
34797466 226 18260266365401105917
4340502 62 18343012324577724224
465052 167 16988838411120800207
469060 322 17900260002894345546
484989 97 18270970145173017582
57527293 21 17968675911167700746
6669772 16 17629184181315908760
8509985 295 8070024489099608175

> <PUBCHEM_SHAPE_MULTIPOLES>
605.72
9.77
2.99
2.15
7.72
0.85
0.79
-1.54
-3.29
-3.13
-0.94
0.45
-0.49
-0.54

> <PUBCHEM_SHAPE_SELFOVERLAP>
1315.785

> <PUBCHEM_SHAPE_VOLUME>
324.3

> <PUBCHEM_COORDINATE_TYPE>
2
5
10

$$$$
