10110873
  -OEChem-03292013303D

 51 52  0     1  0  0  0  0  0999 V2000
   -1.8160    2.6208    0.1934 O   0  0  0  0  0  0  0  0  0  0  0  0
    0.7827   -2.2165    0.5324 O   0  0  0  0  0  0  0  0  0  0  0  0
   -4.1147   -1.4289    1.9405 O   0  0  0  0  0  0  0  0  0  0  0  0
   -5.5825    0.4280    0.4841 O   0  0  0  0  0  0  0  0  0  0  0  0
    6.8768   -0.0524    0.2934 O   0  5  0  0  0  0  0  0  0  0  0  0
    5.9958   -2.0463    0.0348 O   0  0  0  0  0  0  0  0  0  0  0  0
    0.7896    1.5011   -0.0653 N   0  0  0  0  0  0  0  0  0  0  0  0
    0.2511   -1.1250   -1.4431 N   0  0  0  0  0  0  0  0  0  0  0  0
    5.8817   -0.8012    0.1410 N   0  3  0  0  0  0  0  0  0  0  0  0
    0.5672    2.9287    0.0496 C   0  0  1  0  0  0  0  0  0  0  0  0
    2.0418    0.9170   -0.0162 C   0  0  0  0  0  0  0  0  0  0  0  0
    2.1926   -0.4648   -0.1326 C   0  0  0  0  0  0  0  0  0  0  0  0
   -0.7945    3.2847   -0.5421 C   0  0  0  0  0  0  0  0  0  0  0  0
    0.6503    3.3218    1.5188 C   0  0  0  0  0  0  0  0  0  0  0  0
    3.1632    1.7296    0.1516 C   0  0  0  0  0  0  0  0  0  0  0  0
   -0.9350   -1.8936   -1.7454 C   0  0  0  0  0  0  0  0  0  0  0  0
    1.0409   -1.3406   -0.3096 C   0  0  0  0  0  0  0  0  0  0  0  0
    3.4649   -1.0343   -0.0810 C   0  0  0  0  0  0  0  0  0  0  0  0
   -2.1692   -1.2795   -1.1504 C   0  0  0  0  0  0  0  0  0  0  0  0
    4.5863   -0.2219    0.0874 C   0  0  0  0  0  0  0  0  0  0  0  0
    4.4354    1.1600    0.2036 C   0  0  0  0  0  0  0  0  0  0  0  0
   -2.5791   -1.6409    0.1330 C   0  0  0  0  0  0  0  0  0  0  0  0
   -2.9051   -0.3467   -1.8813 C   0  0  0  0  0  0  0  0  0  0  0  0
   -3.7255   -1.0697    0.6855 C   0  0  0  0  0  0  0  0  0  0  0  0
   -4.4619   -0.1374   -0.0452 C   0  0  0  0  0  0  0  0  0  0  0  0
   -4.0517    0.2242   -1.3287 C   0  0  0  0  0  0  0  0  0  0  0  0
   -3.3071   -2.3882    2.6201 C   0  0  0  0  0  0  0  0  0  0  0  0
   -6.2780    1.3720   -0.3282 C   0  0  0  0  0  0  0  0  0  0  0  0
    1.2987    3.4954   -0.5379 H   0  0  0  0  0  0  0  0  0  0  0  0
   -0.0246    0.8979   -0.0952 H   0  0  0  0  0  0  0  0  0  0  0  0
   -0.9741    4.3635   -0.4902 H   0  0  0  0  0  0  0  0  0  0  0  0
   -0.8617    2.9645   -1.5875 H   0  0  0  0  0  0  0  0  0  0  0  0
    1.6434    3.1566    1.9461 H   0  0  0  0  0  0  0  0  0  0  0  0
    0.4172    4.3848    1.6455 H   0  0  0  0  0  0  0  0  0  0  0  0
   -0.0558    2.7495    2.1317 H   0  0  0  0  0  0  0  0  0  0  0  0
    3.1170    2.8094    0.2388 H   0  0  0  0  0  0  0  0  0  0  0  0
   -0.8059   -2.9212   -1.3857 H   0  0  0  0  0  0  0  0  0  0  0  0
   -1.0213   -1.9486   -2.8365 H   0  0  0  0  0  0  0  0  0  0  0  0
    3.5595   -2.1140   -0.1760 H   0  0  0  0  0  0  0  0  0  0  0  0
    0.5079   -0.3820   -2.0869 H   0  0  0  0  0  0  0  0  0  0  0  0
    5.2870    1.8231    0.3336 H   0  0  0  0  0  0  0  0  0  0  0  0
   -1.9713   -2.3731    0.6528 H   0  0  0  0  0  0  0  0  0  0  0  0
   -2.5929   -0.0551   -2.8807 H   0  0  0  0  0  0  0  0  0  0  0  0
   -4.5723    0.9422   -1.9528 H   0  0  0  0  0  0  0  0  0  0  0  0
   -2.6648    2.8653   -0.2133 H   0  0  0  0  0  0  0  0  0  0  0  0
   -3.7626   -2.5545    3.6020 H   0  0  0  0  0  0  0  0  0  0  0  0
   -2.2952   -2.0093    2.8002 H   0  0  0  0  0  0  0  0  0  0  0  0
   -3.3061   -3.3540    2.1033 H   0  0  0  0  0  0  0  0  0  0  0  0
   -5.6622    2.2530   -0.5395 H   0  0  0  0  0  0  0  0  0  0  0  0
   -6.6700    0.9086   -1.2400 H   0  0  0  0  0  0  0  0  0  0  0  0
   -7.1417    1.7189    0.2487 H   0  0  0  0  0  0  0  0  0  0  0  0
  1 13  1  0  0  0  0
  1 45  1  0  0  0  0
  2 17  2  0  0  0  0
  3 24  1  0  0  0  0
  3 27  1  0  0  0  0
  4 25  1  0  0  0  0
  4 28  1  0  0  0  0
  5  9  1  0  0  0  0
  6  9  2  0  0  0  0
  7 10  1  0  0  0  0
  7 11  1  0  0  0  0
  7 30  1  0  0  0  0
  8 16  1  0  0  0  0
  8 17  1  0  0  0  0
  8 40  1  0  0  0  0
  9 20  1  0  0  0  0
 10 13  1  0  0  0  0
 10 14  1  0  0  0  0
 10 29  1  0  0  0  0
 11 12  2  0  0  0  0
 11 15  1  0  0  0  0
 12 17  1  0  0  0  0
 12 18  1  0  0  0  0
 13 31  1  0  0  0  0
 13 32  1  0  0  0  0
 14 33  1  0  0  0  0
 14 34  1  0  0  0  0
 14 35  1  0  0  0  0
 15 21  2  0  0  0  0
 15 36  1  0  0  0  0
 16 19  1  0  0  0  0
 16 37  1  0  0  0  0
 16 38  1  0  0  0  0
 18 20  2  0  0  0  0
 18 39  1  0  0  0  0
 19 22  2  0  0  0  0
 19 23  1  0  0  0  0
 20 21  1  0  0  0  0
 21 41  1  0  0  0  0
 22 24  1  0  0  0  0
 22 42  1  0  0  0  0
 23 26  2  0  0  0  0
 23 43  1  0  0  0  0
 24 25  2  0  0  0  0
 25 26  1  0  0  0  0
 26 44  1  0  0  0  0
 27 46  1  0  0  0  0
 27 47  1  0  0  0  0
 27 48  1  0  0  0  0
 28 49  1  0  0  0  0
 28 50  1  0  0  0  0
 28 51  1  0  0  0  0
M  CHG  2   5  -1   9   1
M  END
> <PUBCHEM_COMPOUND_CID>
10110873

> <PUBCHEM_CONFORMER_RMSD>
1

> <PUBCHEM_CONFORMER_DIVERSEORDER>
2
40
61
92
45
43
38
113
97
34
71
73
65
66
68
58
44
26
105
86
48
15
7
56
41
20
87
98
62
70
101
67
74
30
57
80
9
109
85
59
99
91
54
69
96
49
12
21
55
89
63
100
27
47
14
42
13
94
90
76
29
1
51
112
106
32
3
83
82
104
64
23
28
60
108
88
31
5
46
79
111
35
78
6
36
16
50
24
52
77
39
102
81
75
37
72
93
33
22
4
8
110
103
19
107
53
11
18
84
10
17
25
95

> <PUBCHEM_MMFF94_PARTIAL_CHARGES>
36
1 -0.68
10 0.37
11 0.1
12 0.09
13 0.28
15 -0.15
16 0.44
17 0.54
18 -0.15
19 -0.14
2 -0.57
20 0.13
21 -0.15
22 -0.15
23 -0.15
24 0.08
25 0.08
26 -0.15
27 0.28
28 0.28
3 -0.36
30 0.4
36 0.15
39 0.15
4 -0.36
40 0.37
41 0.15
42 0.15
43 0.15
44 0.15
45 0.4
5 -0.52
6 -0.52
7 -0.87
8 -0.73
9 0.91

> <PUBCHEM_EFFECTIVE_ROTOR_COUNT>
10

> <PUBCHEM_PHARMACOPHORE_FEATURES>
13
1 1 acceptor
1 1 donor
1 2 acceptor
1 3 acceptor
1 4 acceptor
1 5 acceptor
1 5 anion
1 6 acceptor
1 7 cation
1 7 donor
1 8 donor
6 11 12 15 18 20 21 rings
6 19 22 23 24 25 26 rings

> <PUBCHEM_HEAVY_ATOM_COUNT>
28

> <PUBCHEM_ATOM_DEF_STEREO_COUNT>
0

> <PUBCHEM_ATOM_UDEF_STEREO_COUNT>
1

> <PUBCHEM_BOND_DEF_STEREO_COUNT>
0

> <PUBCHEM_BOND_UDEF_STEREO_COUNT>
0

> <PUBCHEM_ISOTOPIC_ATOM_COUNT>
0

> <PUBCHEM_COMPONENT_COUNT>
1

> <PUBCHEM_CACTVS_TAUTO_COUNT>
3

> <PUBCHEM_CONFORMER_ID>
009A479900000002

> <PUBCHEM_MMFF94_ENERGY>
104.3797

> <PUBCHEM_FEATURE_SELFOVERLAP>
66.063

> <PUBCHEM_SHAPE_FINGERPRINT>
10165383 225 17386002837354182603
10366900 7 17895741994042255991
10675989 125 16754930166590709636
11045977 3 18113619027621223539
11370993 144 18187082862476400155
11578080 2 14202835414140570924
12166972 35 17703216442776799747
12293681 4 18334019384456358691
12422481 6 17988657246217586950
12633257 1 17203332251278491248
12788726 201 18265320716726144560
12838862 33 18198320919490051973
13402501 40 18410289186582684389
14279260 333 18116423744788248074
14790565 3 17402889415933445760
15042514 8 18196931064273425484
15238133 3 18261684700861746853
16087824 20 18270399386816155565
17980427 23 16414923062136604200
20721686 56 18338791333598295360
21236236 1 18342173307338647452
21298829 104 17774444872399790697
22122407 14 18272941518292586601
22182313 1 17844535405527436782
350125 39 18341890801786394860
5081480 168 16841957886449389005
59755656 215 18341896234571631358
6009941 240 17967813846790968258
602551 16 16515964877825781258

> <PUBCHEM_SHAPE_MULTIPOLES>
526.07
13.05
3.39
1.55
6.9
2.67
0.48
-2.73
1.73
-0.09
0.84
-2.27
-0.88
1.25

> <PUBCHEM_SHAPE_SELFOVERLAP>
1107.962

> <PUBCHEM_SHAPE_VOLUME>
296.5

> <PUBCHEM_COORDINATE_TYPE>
2
5
10

$$$$
