101170
  -OEChem-03292013323D

 39 43  0     0  0  0  0  0  0999 V2000
   -0.0003    0.9720    1.6620 O   0  0  0  0  0  0  0  0  0  0  0  0
   -0.0003   -2.4126   -0.6086 O   0  0  0  0  0  0  0  0  0  0  0  0
   -0.0015    3.1039    2.5638 O   0  0  0  0  0  0  0  0  0  0  0  0
    4.8904   -0.2019    0.6827 O   0  0  0  0  0  0  0  0  0  0  0  0
   -4.8908   -0.1999    0.6807 O   0  0  0  0  0  0  0  0  0  0  0  0
    4.6986   -2.8011   -0.2806 O   0  0  0  0  0  0  0  0  0  0  0  0
   -4.6993   -2.8002   -0.2801 O   0  0  0  0  0  0  0  0  0  0  0  0
   -0.0001    0.3515    0.3370 C   0  0  0  0  0  0  0  0  0  0  0  0
    0.0005    1.5503   -0.5561 C   0  0  0  0  0  0  0  0  0  0  0  0
    1.2586   -0.4832    0.2061 C   0  0  0  0  0  0  0  0  0  0  0  0
   -1.2590   -0.4826    0.2055 C   0  0  0  0  0  0  0  0  0  0  0  0
    0.0005    2.7036    0.2077 C   0  0  0  0  0  0  0  0  0  0  0  0
    1.1804   -1.7963   -0.2717 C   0  0  0  0  0  0  0  0  0  0  0  0
   -1.1810   -1.7960   -0.2718 C   0  0  0  0  0  0  0  0  0  0  0  0
   -0.0002    2.3428    1.6172 C   0  0  0  0  0  0  0  0  0  0  0  0
    2.5259    0.0360    0.5247 C   0  0  0  0  0  0  0  0  0  0  0  0
   -2.5263    0.0371    0.5234 C   0  0  0  0  0  0  0  0  0  0  0  0
    0.0010    1.6309   -1.9398 C   0  0  0  0  0  0  0  0  0  0  0  0
    0.0013    3.9694   -0.3488 C   0  0  0  0  0  0  0  0  0  0  0  0
    2.3355   -2.5677   -0.4379 C   0  0  0  0  0  0  0  0  0  0  0  0
   -2.3364   -2.5673   -0.4375 C   0  0  0  0  0  0  0  0  0  0  0  0
    3.6780   -0.7361    0.3657 C   0  0  0  0  0  0  0  0  0  0  0  0
   -3.6786   -0.7349    0.3646 C   0  0  0  0  0  0  0  0  0  0  0  0
    0.0017    2.8974   -2.5318 C   0  0  0  0  0  0  0  0  0  0  0  0
    3.5828   -2.0374   -0.1176 C   0  0  0  0  0  0  0  0  0  0  0  0
   -3.5836   -2.0366   -0.1177 C   0  0  0  0  0  0  0  0  0  0  0  0
    0.0020    4.0588   -1.7410 C   0  0  0  0  0  0  0  0  0  0  0  0
    2.6240    1.0538    0.8954 H   0  0  0  0  0  0  0  0  0  0  0  0
   -2.6162    1.0561    0.8930 H   0  0  0  0  0  0  0  0  0  0  0  0
    0.0008    0.7379   -2.5557 H   0  0  0  0  0  0  0  0  0  0  0  0
    0.0014    4.8633    0.2644 H   0  0  0  0  0  0  0  0  0  0  0  0
    2.2531   -3.5848   -0.8143 H   0  0  0  0  0  0  0  0  0  0  0  0
   -2.2617   -3.5853   -0.8127 H   0  0  0  0  0  0  0  0  0  0  0  0
    0.0021    2.9859   -3.6149 H   0  0  0  0  0  0  0  0  0  0  0  0
    0.0027    5.0342   -2.2199 H   0  0  0  0  0  0  0  0  0  0  0  0
    5.5745   -0.8720    0.5105 H   0  0  0  0  0  0  0  0  0  0  0  0
   -4.7637    0.7109    0.9974 H   0  0  0  0  0  0  0  0  0  0  0  0
    4.4389   -3.6730   -0.6244 H   0  0  0  0  0  0  0  0  0  0  0  0
   -5.4721   -2.2742   -0.0102 H   0  0  0  0  0  0  0  0  0  0  0  0
  1  8  1  0  0  0  0
  1 15  1  0  0  0  0
  2 13  1  0  0  0  0
  2 14  1  0  0  0  0
  3 15  2  0  0  0  0
  4 22  1  0  0  0  0
  4 36  1  0  0  0  0
  5 23  1  0  0  0  0
  5 37  1  0  0  0  0
  6 25  1  0  0  0  0
  6 38  1  0  0  0  0
  7 26  1  0  0  0  0
  7 39  1  0  0  0  0
  8  9  1  0  0  0  0
  8 10  1  0  0  0  0
  8 11  1  0  0  0  0
  9 12  1  0  0  0  0
  9 18  2  0  0  0  0
 10 13  1  0  0  0  0
 10 16  2  0  0  0  0
 11 14  1  0  0  0  0
 11 17  2  0  0  0  0
 12 15  1  0  0  0  0
 12 19  2  0  0  0  0
 13 20  2  0  0  0  0
 14 21  2  0  0  0  0
 16 22  1  0  0  0  0
 16 28  1  0  0  0  0
 17 23  1  0  0  0  0
 17 29  1  0  0  0  0
 18 24  1  0  0  0  0
 18 30  1  0  0  0  0
 19 27  1  0  0  0  0
 19 31  1  0  0  0  0
 20 25  1  0  0  0  0
 20 32  1  0  0  0  0
 21 26  1  0  0  0  0
 21 33  1  0  0  0  0
 22 25  2  0  0  0  0
 23 26  2  0  0  0  0
 24 27  2  0  0  0  0
 24 34  1  0  0  0  0
 27 35  1  0  0  0  0
M  END
> <PUBCHEM_COMPOUND_CID>
101170

> <PUBCHEM_CONFORMER_RMSD>
0.6

> <PUBCHEM_CONFORMER_DIVERSEORDER>
1

> <PUBCHEM_MMFF94_PARTIAL_CHARGES>
39
1 -0.43
10 -0.14
11 -0.14
12 0.09
13 0.08
14 0.08
15 0.63
16 -0.15
17 -0.15
18 -0.15
19 -0.15
2 -0.17
20 -0.15
21 -0.15
22 0.08
23 0.08
24 -0.15
25 0.08
26 0.08
27 -0.15
28 0.15
29 0.15
3 -0.57
30 0.15
31 0.15
32 0.15
33 0.15
34 0.15
35 0.15
36 0.45
37 0.45
38 0.45
39 0.45
4 -0.53
5 -0.53
6 -0.53
7 -0.53
8 0.71
9 -0.14

> <PUBCHEM_EFFECTIVE_ROTOR_COUNT>
0.4

> <PUBCHEM_PHARMACOPHORE_FEATURES>
11
1 2 acceptor
1 3 acceptor
1 4 donor
1 5 donor
1 6 donor
1 7 donor
5 1 8 9 12 15 rings
6 10 13 16 20 22 25 rings
6 11 14 17 21 23 26 rings
6 2 8 10 11 13 14 rings
6 9 12 18 19 24 27 rings

> <PUBCHEM_HEAVY_ATOM_COUNT>
27

> <PUBCHEM_ATOM_DEF_STEREO_COUNT>
0

> <PUBCHEM_ATOM_UDEF_STEREO_COUNT>
0

> <PUBCHEM_BOND_DEF_STEREO_COUNT>
0

> <PUBCHEM_BOND_UDEF_STEREO_COUNT>
0

> <PUBCHEM_ISOTOPIC_ATOM_COUNT>
0

> <PUBCHEM_COMPONENT_COUNT>
1

> <PUBCHEM_CACTVS_TAUTO_COUNT>
21

> <PUBCHEM_CONFORMER_ID>
00018B3200000001

> <PUBCHEM_MMFF94_ENERGY>
80.4132

> <PUBCHEM_FEATURE_SELFOVERLAP>
55.978

> <PUBCHEM_SHAPE_FINGERPRINT>
10165383 225 16756385963071382980
10948715 1 8935001472981234690
11045515 52 18261114053873139654
11640471 11 15949615496634418413
12035759 4 18119561866483688204
12788726 201 17969218928378432402
13004483 165 18262795159944655874
13132413 78 18342741857370097725
13140716 1 18271808977712747907
133893 2 17901097839434348591
13681431 1 18188783871219754260
14181834 199 18193285306204739293
14790565 3 17908141336876834696
14955137 171 18122939608795270458
17357779 13 18266155310739769815
17980427 23 17917993897643607383
17980427 26 17270019972128945809
1813 80 18187363254925692690
18336668 15 18338796839608965481
18785283 64 17900550282728196611
20600515 1 18412271648322173214
20642791 178 17757835902483308764
20739085 24 18267892556154797035
22907989 373 18118687621674708972
23366157 5 17973720569569553555
23419403 2 18126255718700915973
23559900 14 18119521283702360619
24893989 43 14464285290359901711
25222932 49 15041845476886055351
283562 15 18263925449735732826
350125 39 18268432524397463675
4409770 3 18046612413717631727
46194498 28 17824811472611264423
497634 4 18128269900355772334
58260988 587 16665752532700025345
6443956 14 18411699932587907059
7364860 26 18053662757152701771
81228 2 18119269271504559082

> <PUBCHEM_SHAPE_MULTIPOLES>
514.56
6.52
5.04
1.61
0.01
4.06
-0.01
-8.38
-0.87
-0.01
1.65
0
2.15
0

> <PUBCHEM_SHAPE_SELFOVERLAP>
1189.848

> <PUBCHEM_SHAPE_VOLUME>
262.5

> <PUBCHEM_COORDINATE_TYPE>
2
5
10

$$$$
