101205
  -OEChem-03292013323D

 29 30  0     1  0  0  0  0  0999 V2000
    1.4981    2.2883    0.8567 S   0  0  0  0  0  0  0  0  0  0  0  0
   -1.5353   -0.2012    1.0163 O   0  0  0  0  0  0  0  0  0  0  0  0
   -1.5715   -0.5872   -1.9649 O   0  0  0  0  0  0  0  0  0  0  0  0
   -2.5940    2.5099   -0.4895 O   0  0  0  0  0  0  0  0  0  0  0  0
   -3.1091   -2.4745    1.4637 O   0  0  0  0  0  0  0  0  0  0  0  0
    4.6534   -0.8108   -0.2641 O   0  0  0  0  0  0  0  0  0  0  0  0
    1.1348   -0.1580    0.1043 N   0  0  0  0  0  0  0  0  0  0  0  0
    2.8791   -2.1941   -0.6305 N   0  0  0  0  0  0  0  0  0  0  0  0
   -2.4209    0.1932   -1.1337 C   0  0  2  0  0  0  0  0  0  0  0  0
   -1.6719    1.4464   -0.7200 C   0  0  2  0  0  0  0  0  0  0  0  0
   -2.6836   -0.4910    0.2024 C   0  0  1  0  0  0  0  0  0  0  0  0
   -0.9928    1.0664    0.5997 C   0  0  2  0  0  0  0  0  0  0  0  0
   -2.8889   -1.9937    0.1477 C   0  0  0  0  0  0  0  0  0  0  0  0
    0.5091    0.9357    0.4823 C   0  0  0  0  0  0  0  0  0  0  0  0
    2.4953    0.0802    0.1084 C   0  0  0  0  0  0  0  0  0  0  0  0
    2.8841    1.3476    0.4887 C   0  0  0  0  0  0  0  0  0  0  0  0
    3.4140   -0.9574   -0.2675 C   0  0  0  0  0  0  0  0  0  0  0  0
   -3.3493    0.3869   -1.6787 H   0  0  0  0  0  0  0  0  0  0  0  0
   -0.9592    1.7921   -1.4769 H   0  0  0  0  0  0  0  0  0  0  0  0
   -3.5362   -0.0183    0.7071 H   0  0  0  0  0  0  0  0  0  0  0  0
   -1.2401    1.7851    1.3909 H   0  0  0  0  0  0  0  0  0  0  0  0
   -2.0085   -2.5132   -0.2436 H   0  0  0  0  0  0  0  0  0  0  0  0
   -3.7554   -2.2522   -0.4675 H   0  0  0  0  0  0  0  0  0  0  0  0
   -0.7638   -0.7985   -1.4668 H   0  0  0  0  0  0  0  0  0  0  0  0
   -3.0387    2.6969   -1.3338 H   0  0  0  0  0  0  0  0  0  0  0  0
   -2.3343   -2.2307    1.9986 H   0  0  0  0  0  0  0  0  0  0  0  0
    3.8797    1.7615    0.5675 H   0  0  0  0  0  0  0  0  0  0  0  0
    1.8788   -2.3666   -0.6406 H   0  0  0  0  0  0  0  0  0  0  0  0
    3.4822   -2.9650   -0.8975 H   0  0  0  0  0  0  0  0  0  0  0  0
  1 14  1  0  0  0  0
  1 16  1  0  0  0  0
  2 11  1  0  0  0  0
  2 12  1  0  0  0  0
  3  9  1  0  0  0  0
  3 24  1  0  0  0  0
  4 10  1  0  0  0  0
  4 25  1  0  0  0  0
  5 13  1  0  0  0  0
  5 26  1  0  0  0  0
  6 17  2  0  0  0  0
  7 14  2  0  0  0  0
  7 15  1  0  0  0  0
  8 17  1  0  0  0  0
  8 28  1  0  0  0  0
  8 29  1  0  0  0  0
  9 10  1  0  0  0  0
  9 11  1  0  0  0  0
  9 18  1  0  0  0  0
 10 12  1  0  0  0  0
 10 19  1  0  0  0  0
 11 13  1  0  0  0  0
 11 20  1  0  0  0  0
 12 14  1  0  0  0  0
 12 21  1  0  0  0  0
 13 22  1  0  0  0  0
 13 23  1  0  0  0  0
 15 16  2  0  0  0  0
 15 17  1  0  0  0  0
 16 27  1  0  0  0  0
M  END
> <PUBCHEM_COMPOUND_CID>
101205

> <PUBCHEM_CONFORMER_RMSD>
0.6

> <PUBCHEM_CONFORMER_DIVERSEORDER>
4
33
40
7
45
14
20
42
49
34
13
46
3
39
16
50
37
31
12
27
41
30
15
48
22
38
9
8
11
35
32
26
47
43
21
28
44
1
18
23
5
36
19
2
6
29
53
10
52
17
54
24
51
25

> <PUBCHEM_MMFF94_PARTIAL_CHARGES>
23
1 -0.08
10 0.28
11 0.28
12 0.46
13 0.28
14 0.2
15 0.14
16 -0.11
17 0.72
2 -0.56
24 0.4
25 0.4
26 0.4
27 0.15
28 0.37
29 0.37
3 -0.68
4 -0.68
5 -0.68
6 -0.57
7 -0.57
8 -0.8
9 0.28

> <PUBCHEM_EFFECTIVE_ROTOR_COUNT>
4

> <PUBCHEM_PHARMACOPHORE_FEATURES>
12
1 2 acceptor
1 3 acceptor
1 3 donor
1 4 acceptor
1 4 donor
1 5 acceptor
1 5 donor
1 6 acceptor
1 7 acceptor
1 8 donor
5 1 7 14 15 16 rings
5 2 9 10 11 12 rings

> <PUBCHEM_HEAVY_ATOM_COUNT>
17

> <PUBCHEM_ATOM_DEF_STEREO_COUNT>
4

> <PUBCHEM_ATOM_UDEF_STEREO_COUNT>
0

> <PUBCHEM_BOND_DEF_STEREO_COUNT>
0

> <PUBCHEM_BOND_UDEF_STEREO_COUNT>
0

> <PUBCHEM_ISOTOPIC_ATOM_COUNT>
0

> <PUBCHEM_COMPONENT_COUNT>
1

> <PUBCHEM_CACTVS_TAUTO_COUNT>
2

> <PUBCHEM_CONFORMER_ID>
00018B5500000004

> <PUBCHEM_MMFF94_ENERGY>
31.7717

> <PUBCHEM_FEATURE_SELFOVERLAP>
60.908

> <PUBCHEM_SHAPE_FINGERPRINT>
10922049 32 18194681459014494373
11127187 94 18114176428365836407
11137873 295 18271806778746786780
11322862 65 18260830341809356775
12892183 10 17842293737515319979
12932764 1 17095796646780373456
13296908 3 18343015593037475432
14115302 16 18261402083012538429
14251705 54 18340772627950496946
14252887 29 17974857469061377443
15375462 189 17488183888195603912
15422964 175 18120091942757412291
16945 1 18055902436495123344
17844478 74 18337952427801183617
18522851 268 18040715908898540380
200 152 17632003204527540469
20645477 70 18196921374189071239
20871998 22 18046352096092504531
21524375 3 17910950245657320869
21665056 4 18117556215493230539
221490 88 18411704318118638594
22802520 49 18410002256401395625
23557571 272 17896308297974719153
23559900 14 18336818775605290656
2748010 2 18342727529533661296
3084891 72 17835229048187964384
31174 14 18126288772768920953
458136 41 17766844209840015240
4921388 177 17676777499859357235
5262128 65 17604437408711126252
6049 1 18409445924939797520
633830 44 13623813757358488422
74978 22 18336540517353239496
81228 2 18114177579744483201
8809292 202 18410012104713503936
9709674 26 18339350946288001797

> <PUBCHEM_SHAPE_MULTIPOLES>
314.39
6.63
2.57
1.18
3.75
0.01
0.16
3.34
0.17
-0.43
-0.31
-0.92
0.22
1.51

> <PUBCHEM_SHAPE_SELFOVERLAP>
649.149

> <PUBCHEM_SHAPE_VOLUME>
183.1

> <PUBCHEM_COORDINATE_TYPE>
2
5
10

$$$$
