101232078
  -OEChem-03292013293D

 78 83  0     1  0  0  0  0  0999 V2000
   -0.7194   -0.0034   -2.7953 O   0  0  0  0  0  0  0  0  0  0  0  0
    0.0721   -1.2182    2.4496 O   0  0  0  0  0  0  0  0  0  0  0  0
   -1.8190   -2.5279    0.9563 O   0  0  0  0  0  0  0  0  0  0  0  0
    0.4346   -2.8307   -0.4347 O   0  0  0  0  0  0  0  0  0  0  0  0
    0.3884    3.0424   -1.0782 O   0  0  0  0  0  0  0  0  0  0  0  0
   -4.1001   -1.5342   -0.7027 O   0  0  0  0  0  0  0  0  0  0  0  0
   -4.6735    0.8106    1.2118 O   0  0  0  0  0  0  0  0  0  0  0  0
    5.1894   -0.8434    0.0125 O   0  0  0  0  0  0  0  0  0  0  0  0
    1.6036    1.0878    1.4308 N   0  0  2  0  0  0  0  0  0  0  0  0
    0.4987    0.5705   -0.7312 C   0  0  2  0  0  0  0  0  0  0  0  0
   -0.9231    0.2664   -1.3948 C   0  0  2  0  0  0  0  0  0  0  0  0
    1.4983   -0.6537   -0.8047 C   0  0  2  0  0  0  0  0  0  0  0  0
    0.3446    0.6128    0.8174 C   0  0  1  0  0  0  0  0  0  0  0  0
   -0.0701   -0.8788    1.0742 C   0  0  2  0  0  0  0  0  0  0  0  0
   -1.7096   -0.9580   -0.8648 C   0  0  1  0  0  0  0  0  0  0  0  0
   -1.5490   -1.1402    0.6582 C   0  0  1  0  0  0  0  0  0  0  0  0
    0.9517   -1.6867    0.2237 C   0  0  1  0  0  0  0  0  0  0  0  0
    2.9138   -0.1953   -0.3154 C   0  0  2  0  0  0  0  0  0  0  0  0
    1.1089    1.8581   -1.4105 C   0  0  2  0  0  0  0  0  0  0  0  0
   -1.9710    1.4154   -1.2700 C   0  0  0  0  0  0  0  0  0  0  0  0
   -3.2681    0.7792   -0.7370 C   0  0  1  0  0  0  0  0  0  0  0  0
   -3.1592   -0.6421   -1.2614 C   0  0  2  0  0  0  0  0  0  0  0  0
   -2.5769   -0.3391    1.5049 C   0  0  0  0  0  0  0  0  0  0  0  0
    2.8029    0.2793    1.1693 C   0  0  0  0  0  0  0  0  0  0  0  0
    3.4363    0.9340   -1.2249 C   0  0  0  0  0  0  0  0  0  0  0  0
   -3.3012    0.8213    0.8013 C   0  0  2  0  0  0  0  0  0  0  0  0
    2.5784    2.1734   -1.1639 C   0  0  0  0  0  0  0  0  0  0  0  0
    3.9438   -1.3428   -0.4187 C   0  0  0  0  0  0  0  0  0  0  0  0
    1.4817    1.4518    2.8354 C   0  0  0  0  0  0  0  0  0  0  0  0
    1.4693   -3.7262   -0.8247 C   0  0  0  0  0  0  0  0  0  0  0  0
    2.6798    2.2635    3.2982 C   0  0  0  0  0  0  0  0  0  0  0  0
    0.4413    3.9917   -2.1317 C   0  0  0  0  0  0  0  0  0  0  0  0
   -5.3789   -1.4118   -1.3187 C   0  0  0  0  0  0  0  0  0  0  0  0
   -4.8298    1.4098    2.4866 C   0  0  0  0  0  0  0  0  0  0  0  0
    6.2114   -1.8354   -0.0467 C   0  0  0  0  0  0  0  0  0  0  0  0
    1.5632   -1.0520   -1.8218 H   0  0  0  0  0  0  0  0  0  0  0  0
   -0.4488    1.3071    1.1065 H   0  0  0  0  0  0  0  0  0  0  0  0
   -1.4470   -1.8810   -1.3933 H   0  0  0  0  0  0  0  0  0  0  0  0
    1.7194   -2.0644    0.9024 H   0  0  0  0  0  0  0  0  0  0  0  0
    1.0253    1.6808   -2.4923 H   0  0  0  0  0  0  0  0  0  0  0  0
   -2.1597    1.8605   -2.2549 H   0  0  0  0  0  0  0  0  0  0  0  0
   -1.6722    2.2215   -0.6003 H   0  0  0  0  0  0  0  0  0  0  0  0
   -4.1446    1.2979   -1.1410 H   0  0  0  0  0  0  0  0  0  0  0  0
   -3.2430   -0.6608   -2.3574 H   0  0  0  0  0  0  0  0  0  0  0  0
   -2.1031    0.0521    2.4143 H   0  0  0  0  0  0  0  0  0  0  0  0
   -3.3337   -1.0373    1.8925 H   0  0  0  0  0  0  0  0  0  0  0  0
    2.8501   -0.5737    1.8559 H   0  0  0  0  0  0  0  0  0  0  0  0
    3.7006    0.8721    1.3825 H   0  0  0  0  0  0  0  0  0  0  0  0
    3.4814    0.5790   -2.2634 H   0  0  0  0  0  0  0  0  0  0  0  0
    4.4586    1.2276   -0.9574 H   0  0  0  0  0  0  0  0  0  0  0  0
   -2.8592    1.7719    1.1270 H   0  0  0  0  0  0  0  0  0  0  0  0
    2.7171    2.7077   -0.2168 H   0  0  0  0  0  0  0  0  0  0  0  0
    2.9479    2.8744   -1.9225 H   0  0  0  0  0  0  0  0  0  0  0  0
    4.0239   -1.6918   -1.4556 H   0  0  0  0  0  0  0  0  0  0  0  0
    3.6768   -2.1955    0.2107 H   0  0  0  0  0  0  0  0  0  0  0  0
   -0.2269   -0.8360   -2.8813 H   0  0  0  0  0  0  0  0  0  0  0  0
    1.0133   -1.3118    2.6638 H   0  0  0  0  0  0  0  0  0  0  0  0
   -1.6268   -2.6697    1.8993 H   0  0  0  0  0  0  0  0  0  0  0  0
    1.3696    0.5865    3.4944 H   0  0  0  0  0  0  0  0  0  0  0  0
    0.5916    2.0775    2.9746 H   0  0  0  0  0  0  0  0  0  0  0  0
    0.9977   -4.6007   -1.2823 H   0  0  0  0  0  0  0  0  0  0  0  0
    2.0421   -4.0689    0.0424 H   0  0  0  0  0  0  0  0  0  0  0  0
    2.1270   -3.2747   -1.5708 H   0  0  0  0  0  0  0  0  0  0  0  0
    2.8964    3.0908    2.6135 H   0  0  0  0  0  0  0  0  0  0  0  0
    2.4704    2.6994    4.2814 H   0  0  0  0  0  0  0  0  0  0  0  0
    3.5800    1.6513    3.4098 H   0  0  0  0  0  0  0  0  0  0  0  0
   -0.2019    4.8323   -1.8548 H   0  0  0  0  0  0  0  0  0  0  0  0
    0.0551    3.5698   -3.0651 H   0  0  0  0  0  0  0  0  0  0  0  0
    1.4506    4.3840   -2.2770 H   0  0  0  0  0  0  0  0  0  0  0  0
   -5.3170   -1.6545   -2.3840 H   0  0  0  0  0  0  0  0  0  0  0  0
   -5.7884   -0.4072   -1.1823 H   0  0  0  0  0  0  0  0  0  0  0  0
   -6.0547   -2.1265   -0.8410 H   0  0  0  0  0  0  0  0  0  0  0  0
   -5.8893    1.3658    2.7544 H   0  0  0  0  0  0  0  0  0  0  0  0
   -4.5306    2.4624    2.4605 H   0  0  0  0  0  0  0  0  0  0  0  0
   -4.2639    0.8751    3.2548 H   0  0  0  0  0  0  0  0  0  0  0  0
    7.1470   -1.3840    0.2934 H   0  0  0  0  0  0  0  0  0  0  0  0
    6.3440   -2.1859   -1.0748 H   0  0  0  0  0  0  0  0  0  0  0  0
    5.9674   -2.6749    0.6113 H   0  0  0  0  0  0  0  0  0  0  0  0
  1 11  1  0  0  0  0
  1 56  1  0  0  0  0
  2 14  1  0  0  0  0
  2 57  1  0  0  0  0
  3 16  1  0  0  0  0
  3 58  1  0  0  0  0
  4 17  1  0  0  0  0
  4 30  1  0  0  0  0
  5 19  1  0  0  0  0
  5 32  1  0  0  0  0
  6 22  1  0  0  0  0
  6 33  1  0  0  0  0
  7 26  1  0  0  0  0
  7 34  1  0  0  0  0
  8 28  1  0  0  0  0
  8 35  1  0  0  0  0
  9 13  1  0  0  0  0
  9 24  1  0  0  0  0
  9 29  1  0  0  0  0
 10 11  1  0  0  0  0
 10 12  1  0  0  0  0
 10 13  1  0  0  0  0
 10 19  1  0  0  0  0
 11 15  1  0  0  0  0
 11 20  1  0  0  0  0
 12 17  1  0  0  0  0
 12 18  1  0  0  0  0
 12 36  1  0  0  0  0
 13 14  1  0  0  0  0
 13 37  1  0  0  0  0
 14 16  1  0  0  0  0
 14 17  1  0  0  0  0
 15 16  1  0  0  0  0
 15 22  1  0  0  0  0
 15 38  1  0  0  0  0
 16 23  1  0  0  0  0
 17 39  1  0  0  0  0
 18 24  1  0  0  0  0
 18 25  1  0  0  0  0
 18 28  1  0  0  0  0
 19 27  1  0  0  0  0
 19 40  1  0  0  0  0
 20 21  1  0  0  0  0
 20 41  1  0  0  0  0
 20 42  1  0  0  0  0
 21 22  1  0  0  0  0
 21 26  1  0  0  0  0
 21 43  1  0  0  0  0
 22 44  1  0  0  0  0
 23 26  1  0  0  0  0
 23 45  1  0  0  0  0
 23 46  1  0  0  0  0
 24 47  1  0  0  0  0
 24 48  1  0  0  0  0
 25 27  1  0  0  0  0
 25 49  1  0  0  0  0
 25 50  1  0  0  0  0
 26 51  1  0  0  0  0
 27 52  1  0  0  0  0
 27 53  1  0  0  0  0
 28 54  1  0  0  0  0
 28 55  1  0  0  0  0
 29 31  1  0  0  0  0
 29 59  1  0  0  0  0
 29 60  1  0  0  0  0
 30 61  1  0  0  0  0
 30 62  1  0  0  0  0
 30 63  1  0  0  0  0
 31 64  1  0  0  0  0
 31 65  1  0  0  0  0
 31 66  1  0  0  0  0
 32 67  1  0  0  0  0
 32 68  1  0  0  0  0
 32 69  1  0  0  0  0
 33 70  1  0  0  0  0
 33 71  1  0  0  0  0
 33 72  1  0  0  0  0
 34 73  1  0  0  0  0
 34 74  1  0  0  0  0
 34 75  1  0  0  0  0
 35 76  1  0  0  0  0
 35 77  1  0  0  0  0
 35 78  1  0  0  0  0
M  END
> <PUBCHEM_COMPOUND_CID>
101232078

> <PUBCHEM_CONFORMER_RMSD>
1

> <PUBCHEM_CONFORMER_DIVERSEORDER>
1

> <PUBCHEM_MMFF94_PARTIAL_CHARGES>
28
1 -0.68
11 0.28
13 0.27
14 0.28
16 0.28
17 0.28
19 0.28
2 -0.68
22 0.28
24 0.27
26 0.28
28 0.28
29 0.27
3 -0.68
30 0.28
32 0.28
33 0.28
34 0.28
35 0.28
4 -0.56
5 -0.56
56 0.4
57 0.4
58 0.4
6 -0.56
7 -0.56
8 -0.56
9 -0.81

> <PUBCHEM_EFFECTIVE_ROTOR_COUNT>
9

> <PUBCHEM_PHARMACOPHORE_FEATURES>
16
1 1 acceptor
1 1 donor
1 2 acceptor
1 2 donor
1 3 acceptor
1 3 donor
1 4 acceptor
1 5 acceptor
1 6 acceptor
1 7 acceptor
1 8 acceptor
1 9 cation
6 10 12 18 19 25 27 rings
8 10 11 12 13 14 15 16 17 rings
8 11 15 16 20 21 22 23 26 rings
8 9 10 12 13 14 17 18 24 rings

> <PUBCHEM_HEAVY_ATOM_COUNT>
35

> <PUBCHEM_ATOM_DEF_STEREO_COUNT>
13

> <PUBCHEM_ATOM_UDEF_STEREO_COUNT>
0

> <PUBCHEM_BOND_DEF_STEREO_COUNT>
0

> <PUBCHEM_BOND_UDEF_STEREO_COUNT>
0

> <PUBCHEM_ISOTOPIC_ATOM_COUNT>
0

> <PUBCHEM_COMPONENT_COUNT>
1

> <PUBCHEM_CACTVS_TAUTO_COUNT>
1

> <PUBCHEM_CONFORMER_ID>
0608ADCE00000001

> <PUBCHEM_MMFF94_ENERGY>
200.0646

> <PUBCHEM_FEATURE_SELFOVERLAP>
82.707

> <PUBCHEM_SHAPE_FINGERPRINT>
10076449 9 17678200247311792022
10675989 125 16019409698362355860
10863032 1 18191601941044047092
10930396 42 18046030936245558232
11578080 2 17768811219098815672
12011746 2 17240195530568279207
12035758 1 18187656773449709082
12422481 6 18051133588488106626
12633257 1 18187373129171609179
12788726 201 18118141198967030332
13140716 1 18189067519550227950
13224815 77 17023181669261415797
13583140 156 17917700280577871725
14955137 171 17822875124601106873
15238133 3 17702680855638333832
16945 1 17967524701187334939
20600515 1 18201733846848183628
20775438 99 17543888557780151095
21857420 4 16330147614521683415
22149856 69 18196941187960638315
23559900 14 18190172563190710175
3286 77 17989199386695522742
484985 159 16980699563990984710
57527452 28 17704351074231473278
6086070 43 17559937850090558473
9981440 41 17182496733423575416

> <PUBCHEM_SHAPE_MULTIPOLES>
668.35
8.53
3.29
2.62
0.46
0.25
-1.32
-2.69
-1
-1.49
0.91
0.29
2.08
-0.36

> <PUBCHEM_SHAPE_SELFOVERLAP>
1452.938

> <PUBCHEM_SHAPE_VOLUME>
361.2

> <PUBCHEM_COORDINATE_TYPE>
2
5
10

$$$$
