101270665
  -OEChem-03292013293D

 25 25  0     1  0  0  0  0  0999 V2000
    2.1367    1.9718    0.1186 S   0  0  0  0  0  0  0  0  0  0  0  0
    1.2112   -1.4820   -1.0885 O   0  0  0  0  0  0  0  0  0  0  0  0
   -2.8005   -0.1647    0.4197 O   0  0  0  0  0  0  0  0  0  0  0  0
    4.3002    1.1450   -1.1441 O   0  0  0  0  0  0  0  0  0  0  0  0
   -4.2685    1.7758    0.7351 O   0  0  0  0  0  0  0  0  0  0  0  0
   -3.9261    0.8964   -1.3829 O   0  0  0  0  0  0  0  0  0  0  0  0
    3.1515   -0.3840    0.1898 N   0  0  0  0  0  0  0  0  0  0  0  0
   -0.2493   -1.4450    0.7240 N   0  0  0  0  0  0  0  0  0  0  0  0
   -3.6674    0.8326   -0.1385 N   0  3  0  0  0  0  0  0  0  0  0  0
    1.9475   -0.5257    0.9702 C   0  0  1  0  0  0  0  0  0  0  0  0
    1.4951    0.8551    1.4051 C   0  0  0  0  0  0  0  0  0  0  0  0
    0.9526   -1.2056    0.0799 C   0  0  0  0  0  0  0  0  0  0  0  0
   -1.3815   -2.0695    0.0786 C   0  0  0  0  0  0  0  0  0  0  0  0
    3.3860    0.8419   -0.3926 C   0  0  0  0  0  0  0  0  0  0  0  0
   -2.2877   -1.0420   -0.5745 C   0  0  0  0  0  0  0  0  0  0  0  0
    2.1567   -1.1748    1.8272 H   0  0  0  0  0  0  0  0  0  0  0  0
    0.4148    0.9774    1.5149 H   0  0  0  0  0  0  0  0  0  0  0  0
    1.9756    1.1324    2.3492 H   0  0  0  0  0  0  0  0  0  0  0  0
    3.7598   -1.1763    0.0067 H   0  0  0  0  0  0  0  0  0  0  0  0
   -0.3519   -1.1851    1.7006 H   0  0  0  0  0  0  0  0  0  0  0  0
   -1.9229   -2.6134    0.8596 H   0  0  0  0  0  0  0  0  0  0  0  0
   -1.0219   -2.7867   -0.6663 H   0  0  0  0  0  0  0  0  0  0  0  0
   -3.1173   -1.5587   -1.0703 H   0  0  0  0  0  0  0  0  0  0  0  0
   -1.7244   -0.4646   -1.3174 H   0  0  0  0  0  0  0  0  0  0  0  0
   -4.7904    2.3118    0.1146 H   0  0  0  0  0  0  0  0  0  0  0  0
  1 11  1  0  0  0  0
  1 14  1  0  0  0  0
  2 12  2  0  0  0  0
  3  9  1  0  0  0  0
  3 15  1  0  0  0  0
  4 14  2  0  0  0  0
  5  9  1  0  0  0  0
  5 25  1  0  0  0  0
  6  9  2  0  0  0  0
  7 10  1  0  0  0  0
  7 14  1  0  0  0  0
  7 19  1  0  0  0  0
  8 12  1  0  0  0  0
  8 13  1  0  0  0  0
  8 20  1  0  0  0  0
 10 11  1  0  0  0  0
 10 12  1  0  0  0  0
 10 16  1  0  0  0  0
 11 17  1  0  0  0  0
 11 18  1  0  0  0  0
 13 15  1  0  0  0  0
 13 21  1  0  0  0  0
 13 22  1  0  0  0  0
 15 23  1  0  0  0  0
 15 24  1  0  0  0  0
M  CHG  1   9   1
M  END
> <PUBCHEM_COMPOUND_CID>
101270665

> <PUBCHEM_CONFORMER_RMSD>
0.8

> <PUBCHEM_CONFORMER_DIVERSEORDER>
1
37
49
41
26
98
27
30
70
36
89
31
57
77
62
71
88
19
48
12
81
17
67
96
35
64
39
80
82
44
86
14
51
3
66
53
6
73
83
79
56
91
33
46
11
34
54
85
74
38
13
52
72
20
76
55
90
42
25
50
92
5
95
43
2
18
32
4
10
75
65
63
58
40
7
59
61
24
93
15
47
22
29
84
68
8
87
45
69
21
60
94
16
9
23
97
28
78

> <PUBCHEM_MMFF94_PARTIAL_CHARGES>
18
1 -0.37
10 0.36
11 0.23
12 0.57
13 0.3
14 0.77
15 0.28
19 0.37
2 -0.57
20 0.37
25 0.4
3 -0.42
4 -0.57
5 -0.54
6 -0.63
7 -0.73
8 -0.73
9 0.92

> <PUBCHEM_EFFECTIVE_ROTOR_COUNT>
6.8

> <PUBCHEM_PHARMACOPHORE_FEATURES>
6
1 2 acceptor
1 5 acceptor
1 6 acceptor
1 7 donor
1 8 donor
5 1 7 10 11 14 rings

> <PUBCHEM_HEAVY_ATOM_COUNT>
15

> <PUBCHEM_ATOM_DEF_STEREO_COUNT>
1

> <PUBCHEM_ATOM_UDEF_STEREO_COUNT>
0

> <PUBCHEM_BOND_DEF_STEREO_COUNT>
0

> <PUBCHEM_BOND_UDEF_STEREO_COUNT>
0

> <PUBCHEM_ISOTOPIC_ATOM_COUNT>
0

> <PUBCHEM_COMPONENT_COUNT>
1

> <PUBCHEM_CACTVS_TAUTO_COUNT>
4

> <PUBCHEM_CONFORMER_ID>
0609448900000001

> <PUBCHEM_MMFF94_ENERGY>
19.6519

> <PUBCHEM_FEATURE_SELFOVERLAP>
30.494

> <PUBCHEM_SHAPE_FINGERPRINT>
10498660 4 18261944224213342533
10681291 71 18339655472707864937
11615756 256 18336550520384767301
11769659 78 11383848060073641382
12491281 212 17968376878675952130
13464514 151 18340496590370753990
13549 16 18200605795110043190
13618510 140 18410290298667750073
13705890 14 13182739264501157154
14123260 362 18260828241269643031
14252887 29 13118272660171026826
14957384 54 17241866736518274949
15279308 100 18199186364000108402
15775835 57 18187363237740438257
17041 50 17916872442721791920
17834072 14 10952054433191929964
17834072 32 18408324414668918469
18186145 218 17489028274481755210
19107657 9 18411697673572279001
201361 129 17822284713027643938
20233049 118 18342734135383104528
20304884 271 18340204193270909395
20671657 1 18340194215798351075
20671657 53 13542459890954371867
20711983 171 18334856164550412358
21524375 3 18337941325543254195
22182937 141 18337961185524174665
22485316 2 10015866483299385643
22926399 65 18410578430827769888
231179 274 18259701194501049956
23402655 69 18342178881921380540
23557571 272 18120378911103530199
25 1 18413392020579348627
76465 3 12319190473051195468
9882013 296 11818992989273804748

> <PUBCHEM_SHAPE_MULTIPOLES>
268.25
7.67
2.15
1.15
4.37
0.09
0.03
4.75
1.82
0.79
-0.03
-0.2
0.16
-0.25

> <PUBCHEM_SHAPE_SELFOVERLAP>
518.631

> <PUBCHEM_SHAPE_VOLUME>
163.8

> <PUBCHEM_COORDINATE_TYPE>
2
5
10

$$$$
