101283368
  -OEChem-03292013293D

 62 63  0     1  0  0  0  0  0999 V2000
   -3.5666   -0.1397   -0.5640 O   0  0  0  0  0  0  0  0  0  0  0  0
   -2.1378   -0.1927    1.2845 O   0  0  0  0  0  0  0  0  0  0  0  0
   -1.6199    2.0658   -2.3422 O   0  0  0  0  0  0  0  0  0  0  0  0
    1.9852    1.2185   -0.1412 O   0  0  0  0  0  0  0  0  0  0  0  0
   -1.9826    2.8798    0.9178 O   0  0  0  0  0  0  0  0  0  0  0  0
    1.5690   -1.2886    1.4405 O   0  0  0  0  0  0  0  0  0  0  0  0
    0.9681    1.5753    1.9012 O   0  0  0  0  0  0  0  0  0  0  0  0
   -2.3075   -0.6195   -0.0689 C   0  0  2  0  0  0  0  0  0  0  0  0
   -1.8797    1.4943   -1.0711 C   0  0  2  0  0  0  0  0  0  0  0  0
   -1.3098    0.0905   -0.9640 C   0  0  0  0  0  0  0  0  0  0  0  0
   -2.2247   -2.1552   -0.1581 C   0  0  0  0  0  0  0  0  0  0  0  0
   -3.3860    1.2392   -0.9553 C   0  0  0  0  0  0  0  0  0  0  0  0
   -1.0346   -2.7770    0.6180 C   0  0  2  0  0  0  0  0  0  0  0  0
   -1.2895    2.4334    0.0013 C   0  0  0  0  0  0  0  0  0  0  0  0
    0.1374   -3.3283   -0.2330 C   0  0  0  0  0  0  0  0  0  0  0  0
    0.2075    2.7616   -0.0780 C   0  0  2  0  0  0  0  0  0  0  0  0
   -1.5543   -3.9227    1.5053 C   0  0  0  0  0  0  0  0  0  0  0  0
    0.8458   -2.4205   -1.2174 C   0  0  0  0  0  0  0  0  0  0  0  0
    2.5071   -1.1632    0.3721 C   0  0  2  0  0  0  0  0  0  0  0  0
    3.0018    0.3207    0.3846 C   0  0  1  0  0  0  0  0  0  0  0  0
    1.8555   -1.5627   -0.9436 C   0  0  0  0  0  0  0  0  0  0  0  0
    1.0777    1.7904    0.7018 C   0  0  0  0  0  0  0  0  0  0  0  0
   -3.3391   -0.3370    2.0270 C   0  0  0  0  0  0  0  0  0  0  0  0
    0.4768    4.1772    0.4293 C   0  0  0  0  0  0  0  0  0  0  0  0
    4.2530    0.5869   -0.4537 C   0  0  0  0  0  0  0  0  0  0  0  0
    0.4477   -2.6382   -2.6598 C   0  0  0  0  0  0  0  0  0  0  0  0
    3.6532   -2.1390    0.6763 C   0  0  0  0  0  0  0  0  0  0  0  0
    4.6466    2.0505   -0.4095 C   0  0  0  0  0  0  0  0  0  0  0  0
   -1.2767   -0.3664   -1.9591 H   0  0  0  0  0  0  0  0  0  0  0  0
   -0.3104    0.0669   -0.5430 H   0  0  0  0  0  0  0  0  0  0  0  0
   -2.2220   -2.4729   -1.2066 H   0  0  0  0  0  0  0  0  0  0  0  0
   -3.1674   -2.5633    0.2293 H   0  0  0  0  0  0  0  0  0  0  0  0
   -3.8807    1.8679   -0.2095 H   0  0  0  0  0  0  0  0  0  0  0  0
   -3.9150    1.3791   -1.9040 H   0  0  0  0  0  0  0  0  0  0  0  0
   -0.6337   -2.0331    1.3085 H   0  0  0  0  0  0  0  0  0  0  0  0
   -0.2200   -4.2128   -0.7793 H   0  0  0  0  0  0  0  0  0  0  0  0
    0.8960   -3.7308    0.4525 H   0  0  0  0  0  0  0  0  0  0  0  0
    0.4980    2.7363   -1.1349 H   0  0  0  0  0  0  0  0  0  0  0  0
   -1.9945   -4.7236    0.9014 H   0  0  0  0  0  0  0  0  0  0  0  0
   -2.3183   -3.5604    2.2014 H   0  0  0  0  0  0  0  0  0  0  0  0
   -0.7437   -4.3529    2.1034 H   0  0  0  0  0  0  0  0  0  0  0  0
   -1.8998    1.4371   -3.0290 H   0  0  0  0  0  0  0  0  0  0  0  0
    3.2184    0.6177    1.4201 H   0  0  0  0  0  0  0  0  0  0  0  0
    2.3042   -1.0714   -1.8074 H   0  0  0  0  0  0  0  0  0  0  0  0
   -3.0963   -0.1599    3.0793 H   0  0  0  0  0  0  0  0  0  0  0  0
   -3.7613   -1.3424    1.9535 H   0  0  0  0  0  0  0  0  0  0  0  0
   -4.0814    0.4134    1.7408 H   0  0  0  0  0  0  0  0  0  0  0  0
    1.5327    4.4404    0.3027 H   0  0  0  0  0  0  0  0  0  0  0  0
    0.2383    4.2769    1.4943 H   0  0  0  0  0  0  0  0  0  0  0  0
   -0.1272    4.9091   -0.1176 H   0  0  0  0  0  0  0  0  0  0  0  0
    4.0871    0.3143   -1.5016 H   0  0  0  0  0  0  0  0  0  0  0  0
    5.0956   -0.0075   -0.0857 H   0  0  0  0  0  0  0  0  0  0  0  0
    0.7056   -3.6563   -2.9707 H   0  0  0  0  0  0  0  0  0  0  0  0
    0.9508   -1.9464   -3.3437 H   0  0  0  0  0  0  0  0  0  0  0  0
   -0.6278   -2.5014   -2.7962 H   0  0  0  0  0  0  0  0  0  0  0  0
    4.1882   -1.8399    1.5853 H   0  0  0  0  0  0  0  0  0  0  0  0
    4.3742   -2.2064   -0.1451 H   0  0  0  0  0  0  0  0  0  0  0  0
    3.2698   -3.1482    0.8688 H   0  0  0  0  0  0  0  0  0  0  0  0
    2.0294   -1.1020    2.2764 H   0  0  0  0  0  0  0  0  0  0  0  0
    3.8943    2.6912   -0.8801 H   0  0  0  0  0  0  0  0  0  0  0  0
    5.5875    2.2015   -0.9490 H   0  0  0  0  0  0  0  0  0  0  0  0
    4.7937    2.3903    0.6209 H   0  0  0  0  0  0  0  0  0  0  0  0
  1  8  1  0  0  0  0
  1 12  1  0  0  0  0
  2  8  1  0  0  0  0
  2 23  1  0  0  0  0
  3  9  1  0  0  0  0
  3 42  1  0  0  0  0
  4 20  1  0  0  0  0
  4 22  1  0  0  0  0
  5 14  2  0  0  0  0
  6 19  1  0  0  0  0
  6 59  1  0  0  0  0
  7 22  2  0  0  0  0
  8 10  1  0  0  0  0
  8 11  1  0  0  0  0
  9 10  1  0  0  0  0
  9 12  1  0  0  0  0
  9 14  1  0  0  0  0
 10 29  1  0  0  0  0
 10 30  1  0  0  0  0
 11 13  1  0  0  0  0
 11 31  1  0  0  0  0
 11 32  1  0  0  0  0
 12 33  1  0  0  0  0
 12 34  1  0  0  0  0
 13 15  1  0  0  0  0
 13 17  1  0  0  0  0
 13 35  1  0  0  0  0
 14 16  1  0  0  0  0
 15 18  1  0  0  0  0
 15 36  1  0  0  0  0
 15 37  1  0  0  0  0
 16 22  1  0  0  0  0
 16 24  1  0  0  0  0
 16 38  1  0  0  0  0
 17 39  1  0  0  0  0
 17 40  1  0  0  0  0
 17 41  1  0  0  0  0
 18 21  2  0  0  0  0
 18 26  1  0  0  0  0
 19 20  1  0  0  0  0
 19 21  1  0  0  0  0
 19 27  1  0  0  0  0
 20 25  1  0  0  0  0
 20 43  1  0  0  0  0
 21 44  1  0  0  0  0
 23 45  1  0  0  0  0
 23 46  1  0  0  0  0
 23 47  1  0  0  0  0
 24 48  1  0  0  0  0
 24 49  1  0  0  0  0
 24 50  1  0  0  0  0
 25 28  1  0  0  0  0
 25 51  1  0  0  0  0
 25 52  1  0  0  0  0
 26 53  1  0  0  0  0
 26 54  1  0  0  0  0
 26 55  1  0  0  0  0
 27 56  1  0  0  0  0
 27 57  1  0  0  0  0
 27 58  1  0  0  0  0
 28 60  1  0  0  0  0
 28 61  1  0  0  0  0
 28 62  1  0  0  0  0
M  END
> <PUBCHEM_COMPOUND_CID>
101283368

> <PUBCHEM_CONFORMER_RMSD>
0.8

> <PUBCHEM_CONFORMER_DIVERSEORDER>
1
7
8
2
3
5
4
6

> <PUBCHEM_MMFF94_PARTIAL_CHARGES>
23
1 -0.56
12 0.28
14 0.45
15 0.14
16 0.12
18 -0.28
19 0.42
2 -0.56
20 0.28
21 -0.29
22 0.66
23 0.28
26 0.14
3 -0.68
4 -0.43
42 0.4
44 0.15
5 -0.57
59 0.4
6 -0.68
7 -0.57
8 0.56
9 0.34

> <PUBCHEM_EFFECTIVE_ROTOR_COUNT>
4

> <PUBCHEM_PHARMACOPHORE_FEATURES>
11
1 1 acceptor
1 16 anion
1 2 acceptor
1 28 hydrophobe
1 3 acceptor
1 3 donor
1 5 acceptor
1 6 acceptor
1 6 donor
1 7 acceptor
5 1 8 9 10 12 rings

> <PUBCHEM_HEAVY_ATOM_COUNT>
28

> <PUBCHEM_ATOM_DEF_STEREO_COUNT>
6

> <PUBCHEM_ATOM_UDEF_STEREO_COUNT>
0

> <PUBCHEM_BOND_DEF_STEREO_COUNT>
1

> <PUBCHEM_BOND_UDEF_STEREO_COUNT>
0

> <PUBCHEM_ISOTOPIC_ATOM_COUNT>
0

> <PUBCHEM_COMPONENT_COUNT>
1

> <PUBCHEM_CACTVS_TAUTO_COUNT>
3

> <PUBCHEM_CONFORMER_ID>
0609762800000001

> <PUBCHEM_MMFF94_ENERGY>
87.4352

> <PUBCHEM_FEATURE_SELFOVERLAP>
55.868

> <PUBCHEM_SHAPE_FINGERPRINT>
10616163 171 18341611452280315284
10675989 125 17758378696013617173
10759866 29 18186802470400640718
12011746 2 18267018547400084159
12054548 360 18121779701785718696
12156800 1 15298655053093937038
12422481 6 17688612858476524603
12539773 59 15826099675652350054
12553582 1 18411984701678180376
12633257 1 18339648849504531651
12788726 201 18131071485299816689
13122387 1 18340768156799669638
13140716 1 18193281788568735505
13402501 40 18339643437908769247
14178342 30 17548680895373642384
14251751 93 18190736638826671332
14790565 3 18266744580338046977
17492 54 18266719437472181799
19930381 70 18267580209300847767
20905425 154 18336829817670705734
23558518 356 17764305037927509812
238 59 18051375639749154077
35225 105 18195788864148303454
469060 322 17753900716165795120
70251023 43 17480567683342168582

> <PUBCHEM_SHAPE_MULTIPOLES>
535.14
5.97
5.05
1.79
4.16
0.06
-0.41
0.82
0.49
-0.47
0.25
-0.84
-0.61
0.81

> <PUBCHEM_SHAPE_SELFOVERLAP>
1091.422

> <PUBCHEM_SHAPE_VOLUME>
309.4

> <PUBCHEM_COORDINATE_TYPE>
2
5
10

$$$$
