101239150
  -OEChem-03292013293D

 39 42  0     1  0  0  0  0  0999 V2000
   -6.5890    0.8643    0.1316 Cl  0  0  0  0  0  0  0  0  0  0  0  0
    3.3936    2.9747    0.1801 O   0  0  0  0  0  0  0  0  0  0  0  0
    1.4522   -2.7271    0.0057 O   0  0  0  0  0  0  0  0  0  0  0  0
    3.9031   -2.4464   -0.2106 O   0  0  0  0  0  0  0  0  0  0  0  0
   -1.5113    2.4523   -0.2509 O   0  0  0  0  0  0  0  0  0  0  0  0
   -1.0287   -2.8533    0.1526 O   0  0  0  0  0  0  0  0  0  0  0  0
   -4.0320    2.3244   -0.1133 O   0  0  0  0  0  0  0  0  0  0  0  0
    4.8531    1.0440    0.1514 C   0  0  2  0  0  0  0  0  0  0  0  0
    3.5907    1.7013   -0.4303 C   0  0  1  0  0  0  0  0  0  0  0  0
    2.3635    0.8295   -0.2812 C   0  0  0  0  0  0  0  0  0  0  0  0
    5.0293   -0.3516   -0.4406 C   0  0  0  0  0  0  0  0  0  0  0  0
    2.4733   -0.5681   -0.2042 C   0  0  0  0  0  0  0  0  0  0  0  0
    3.8067   -1.2231   -0.2587 C   0  0  0  0  0  0  0  0  0  0  0  0
    4.8726    1.0126    1.6872 C   0  0  0  0  0  0  0  0  0  0  0  0
    1.0800    1.4014   -0.2802 C   0  0  0  0  0  0  0  0  0  0  0  0
   -0.0650    0.6019   -0.1635 C   0  0  0  0  0  0  0  0  0  0  0  0
    1.3296   -1.3700   -0.0851 C   0  0  0  0  0  0  0  0  0  0  0  0
    0.0604   -0.7818   -0.0607 C   0  0  0  0  0  0  0  0  0  0  0  0
   -1.3997    1.2364   -0.1544 C   0  0  0  0  0  0  0  0  0  0  0  0
   -1.1385   -1.6367    0.0638 C   0  0  0  0  0  0  0  0  0  0  0  0
   -2.5987    0.3834   -0.0270 C   0  0  0  0  0  0  0  0  0  0  0  0
   -2.4728   -1.0031    0.0791 C   0  0  0  0  0  0  0  0  0  0  0  0
   -3.8688    0.9724   -0.0125 C   0  0  0  0  0  0  0  0  0  0  0  0
   -3.6167   -1.8010    0.1996 C   0  0  0  0  0  0  0  0  0  0  0  0
   -5.0063    0.1736    0.1082 C   0  0  0  0  0  0  0  0  0  0  0  0
   -4.8806   -1.2102    0.2139 C   0  0  0  0  0  0  0  0  0  0  0  0
    5.7176    1.6533   -0.1461 H   0  0  0  0  0  0  0  0  0  0  0  0
    3.7342    1.8749   -1.5046 H   0  0  0  0  0  0  0  0  0  0  0  0
    5.8835   -0.8515    0.0305 H   0  0  0  0  0  0  0  0  0  0  0  0
    5.2310   -0.2876   -1.5165 H   0  0  0  0  0  0  0  0  0  0  0  0
    0.9787    2.4804   -0.3735 H   0  0  0  0  0  0  0  0  0  0  0  0
    4.0266    0.4568    2.1028 H   0  0  0  0  0  0  0  0  0  0  0  0
    5.7924    0.5399    2.0487 H   0  0  0  0  0  0  0  0  0  0  0  0
    4.8439    2.0260    2.1008 H   0  0  0  0  0  0  0  0  0  0  0  0
    4.1894    3.5071    0.0100 H   0  0  0  0  0  0  0  0  0  0  0  0
   -3.5452   -2.8821    0.2834 H   0  0  0  0  0  0  0  0  0  0  0  0
    0.6332   -3.1647   -0.2718 H   0  0  0  0  0  0  0  0  0  0  0  0
   -5.7584   -1.8446    0.3085 H   0  0  0  0  0  0  0  0  0  0  0  0
   -3.1828    2.7857   -0.0550 H   0  0  0  0  0  0  0  0  0  0  0  0
  1 25  1  0  0  0  0
  2  9  1  0  0  0  0
  2 35  1  0  0  0  0
  3 17  1  0  0  0  0
  3 37  1  0  0  0  0
  4 13  2  0  0  0  0
  5 19  2  0  0  0  0
  6 20  2  0  0  0  0
  7 23  1  0  0  0  0
  7 39  1  0  0  0  0
  8  9  1  0  0  0  0
  8 11  1  0  0  0  0
  8 14  1  0  0  0  0
  8 27  1  0  0  0  0
  9 10  1  0  0  0  0
  9 28  1  0  0  0  0
 10 12  1  0  0  0  0
 10 15  2  0  0  0  0
 11 13  1  0  0  0  0
 11 29  1  0  0  0  0
 11 30  1  0  0  0  0
 12 13  1  0  0  0  0
 12 17  2  0  0  0  0
 14 32  1  0  0  0  0
 14 33  1  0  0  0  0
 14 34  1  0  0  0  0
 15 16  1  0  0  0  0
 15 31  1  0  0  0  0
 16 18  2  0  0  0  0
 16 19  1  0  0  0  0
 17 18  1  0  0  0  0
 18 20  1  0  0  0  0
 19 21  1  0  0  0  0
 20 22  1  0  0  0  0
 21 22  2  0  0  0  0
 21 23  1  0  0  0  0
 22 24  1  0  0  0  0
 23 25  2  0  0  0  0
 24 26  2  0  0  0  0
 24 36  1  0  0  0  0
 25 26  1  0  0  0  0
 26 38  1  0  0  0  0
M  END
> <PUBCHEM_COMPOUND_CID>
101239150

> <PUBCHEM_CONFORMER_RMSD>
0.6

> <PUBCHEM_CONFORMER_DIVERSEORDER>
1
2

> <PUBCHEM_MMFF94_PARTIAL_CHARGES>
30
1 -0.18
10 -0.14
11 0.06
12 0.09
13 0.42
15 -0.15
16 0.09
17 0.08
18 0.09
19 0.4
2 -0.68
20 0.4
21 0.09
22 0.09
23 0.08
24 -0.15
25 0.18
26 -0.15
3 -0.53
31 0.15
35 0.4
36 0.15
37 0.45
38 0.15
39 0.45
4 -0.57
5 -0.57
6 -0.57
7 -0.53
9 0.42

> <PUBCHEM_EFFECTIVE_ROTOR_COUNT>
0.6

> <PUBCHEM_PHARMACOPHORE_FEATURES>
11
1 2 acceptor
1 2 donor
1 3 donor
1 4 acceptor
1 5 acceptor
1 6 acceptor
1 7 donor
6 10 12 15 16 17 18 rings
6 16 18 19 20 21 22 rings
6 21 22 23 24 25 26 rings
6 8 9 10 11 12 13 rings

> <PUBCHEM_HEAVY_ATOM_COUNT>
26

> <PUBCHEM_ATOM_DEF_STEREO_COUNT>
2

> <PUBCHEM_ATOM_UDEF_STEREO_COUNT>
0

> <PUBCHEM_BOND_DEF_STEREO_COUNT>
0

> <PUBCHEM_BOND_UDEF_STEREO_COUNT>
0

> <PUBCHEM_ISOTOPIC_ATOM_COUNT>
0

> <PUBCHEM_COMPONENT_COUNT>
1

> <PUBCHEM_CACTVS_TAUTO_COUNT>
554

> <PUBCHEM_CONFORMER_ID>
0608C96E00000001

> <PUBCHEM_MMFF94_ENERGY>
81.6224

> <PUBCHEM_FEATURE_SELFOVERLAP>
55.885

> <PUBCHEM_SHAPE_FINGERPRINT>
10 15 18187365466860516537
10411042 1 17762057636192666246
10906281 52 18263100910339897253
10967382 1 18337956791561757454
11112241 14 16628252562904907936
11578080 2 17058915861567793786
11595378 159 17313090926359281604
12107183 9 17835243341991762489
12236239 1 17603865636878885329
12403259 226 18263641767192882564
12403259 415 18259982639655862493
12788726 201 17417544539756859017
12838862 33 18337654378435193741
12925494 130 18196650692782479361
13140716 1 18120933069078866464
13224815 77 18410574002352419338
13402501 40 18411139134138703501
13533116 47 18059576841262236618
138480 1 17833551189149407038
14341114 176 18410018710689644721
14790565 3 18410862074768499565
15196674 1 18410014347024178895
15256400 18 18410012126235936540
15536298 74 18412829079379307734
17349148 13 17895194441055668500
17492 89 18410294696466990922
1813 80 16950566588125660868
19591789 44 18410012126172542103
200 152 18131069333810649647
21033648 29 18059563737142736162
21267235 1 18409459084809191751
21279426 13 18338518512859016423
21421861 104 17968362482330782818
21452121 103 18413101775843746714
21792934 111 18337663110530734385
21859007 373 17678154037157736029
22149856 69 18267887085194312635
23227448 37 18341612671692311950
23402539 116 18341609360789244511
23559900 14 18341332210934316902
239999 70 18272095993929830998
3004659 81 18259987084978649012
335352 9 18410295796315534222
338550 245 18334299798576101764
34797466 226 16415484895176981993
34934 24 18411697724727031023
350125 39 18409452461932607180
3545911 37 18411139130060183004
3633792 109 18339073793130195949
3680242 22 18334292037628148954
3886686 26 16962914950389149498
4073 2 18114188574285618387
4093350 32 17274829016929038807
4214541 1 18410294692292771325
4340502 62 18413106169046716072
495365 180 17561074831097180506
5104073 3 18410294674970309235
59755656 215 18408888399492803758
9709674 26 18410863169790163294

> <PUBCHEM_SHAPE_MULTIPOLES>
501.72
12.48
2.82
0.75
5.65
0.36
0.19
-2.96
1.36
-0.65
-0.03
-0.64
-0.13
0.58

> <PUBCHEM_SHAPE_SELFOVERLAP>
1129.515

> <PUBCHEM_SHAPE_VOLUME>
263.5

> <PUBCHEM_COORDINATE_TYPE>
2
5
10

$$$$
