101291617
  -OEChem-03292013293D

 53 56  0     1  0  0  0  0  0999 V2000
    1.7576   -0.9315   -1.5060 O   0  0  0  0  0  0  0  0  0  0  0  0
    3.0589    0.3817   -0.0854 O   0  0  0  0  0  0  0  0  0  0  0  0
    0.1555    3.0145   -0.3431 O   0  0  0  0  0  0  0  0  0  0  0  0
    1.2279   -2.8718    3.4600 O   0  0  0  0  0  0  0  0  0  0  0  0
   -1.9428    1.8561    0.4774 O   0  0  0  0  0  0  0  0  0  0  0  0
    4.1721   -1.3770   -1.0873 O   0  0  0  0  0  0  0  0  0  0  0  0
    1.7432    4.5593   -0.9703 O   0  0  0  0  0  0  0  0  0  0  0  0
   -4.3719   -2.7347   -2.4476 O   0  0  0  0  0  0  0  0  0  0  0  0
   -3.1789    0.7093    2.1009 O   0  0  0  0  0  0  0  0  0  0  0  0
    0.5989   -1.9533    1.4087 N   0  0  0  0  0  0  0  0  0  0  0  0
    0.5987   -1.7275   -1.5400 N   0  0  1  0  0  0  0  0  0  0  0  0
   -0.1763    5.2086    0.1162 N   0  0  0  0  0  0  0  0  0  0  0  0
    1.8271   -1.4161    0.8876 C   0  0  1  0  0  0  0  0  0  0  0  0
    1.3547   -2.7791    0.5179 C   0  0  2  0  0  0  0  0  0  0  0  0
    1.8221   -0.3373   -0.1897 C   0  0  2  0  0  0  0  0  0  0  0  0
    0.8344   -3.0131   -0.8736 C   0  0  0  0  0  0  0  0  0  0  0  0
    0.6553    0.6961   -0.0751 C   0  0  2  0  0  0  0  0  0  0  0  0
   -0.6618    0.0979   -0.5581 C   0  0  0  0  0  0  0  0  0  0  0  0
   -0.6452   -1.1118   -1.2845 C   0  0  0  0  0  0  0  0  0  0  0  0
    0.4346   -2.2600    2.7492 C   0  0  0  0  0  0  0  0  0  0  0  0
    0.9368    1.9732   -0.8868 C   0  0  0  0  0  0  0  0  0  0  0  0
   -1.8862    0.7079   -0.2554 C   0  0  0  0  0  0  0  0  0  0  0  0
   -1.8544   -1.6901   -1.6900 C   0  0  0  0  0  0  0  0  0  0  0  0
   -0.8873   -1.7705    3.2746 C   0  0  0  0  0  0  0  0  0  0  0  0
    4.1519   -0.2651   -0.5772 C   0  0  0  0  0  0  0  0  0  0  0  0
   -3.0826    0.1267   -0.6734 C   0  0  0  0  0  0  0  0  0  0  0  0
   -3.0666   -1.0693   -1.3889 C   0  0  0  0  0  0  0  0  0  0  0  0
    5.3632    0.5997   -0.4013 C   0  0  0  0  0  0  0  0  0  0  0  0
    0.6694    4.2843   -0.4456 C   0  0  0  0  0  0  0  0  0  0  0  0
   -4.3176   -1.6754   -1.8166 C   0  0  0  0  0  0  0  0  0  0  0  0
   -2.6427    1.7286    1.6875 C   0  0  0  0  0  0  0  0  0  0  0  0
   -2.6482    3.0397    2.4160 C   0  0  0  0  0  0  0  0  0  0  0  0
    2.6067   -1.3045    1.6301 H   0  0  0  0  0  0  0  0  0  0  0  0
    1.8130   -3.6507    0.9636 H   0  0  0  0  0  0  0  0  0  0  0  0
    1.5952   -3.5606   -1.4422 H   0  0  0  0  0  0  0  0  0  0  0  0
   -0.0595   -3.6466   -0.8505 H   0  0  0  0  0  0  0  0  0  0  0  0
    0.5521    0.9668    0.9853 H   0  0  0  0  0  0  0  0  0  0  0  0
    0.6764    1.8461   -1.9446 H   0  0  0  0  0  0  0  0  0  0  0  0
    1.9949    2.2428   -0.8347 H   0  0  0  0  0  0  0  0  0  0  0  0
   -1.8360   -2.6243   -2.2469 H   0  0  0  0  0  0  0  0  0  0  0  0
   -1.6471   -1.7783    2.4877 H   0  0  0  0  0  0  0  0  0  0  0  0
   -0.7682   -0.7511    3.6513 H   0  0  0  0  0  0  0  0  0  0  0  0
   -1.2219   -2.4226    4.0860 H   0  0  0  0  0  0  0  0  0  0  0  0
   -4.0315    0.6108   -0.4525 H   0  0  0  0  0  0  0  0  0  0  0  0
    5.2306    1.5383   -0.9453 H   0  0  0  0  0  0  0  0  0  0  0  0
    6.2388    0.0839   -0.8058 H   0  0  0  0  0  0  0  0  0  0  0  0
    5.5311    0.7905    0.6616 H   0  0  0  0  0  0  0  0  0  0  0  0
   -5.2446   -1.1403   -1.5493 H   0  0  0  0  0  0  0  0  0  0  0  0
    0.0522    6.1969    0.1260 H   0  0  0  0  0  0  0  0  0  0  0  0
   -1.0563    4.9316    0.5380 H   0  0  0  0  0  0  0  0  0  0  0  0
   -3.1964    2.9303    3.3560 H   0  0  0  0  0  0  0  0  0  0  0  0
   -3.1456    3.7982    1.8068 H   0  0  0  0  0  0  0  0  0  0  0  0
   -1.6220    3.3391    2.6426 H   0  0  0  0  0  0  0  0  0  0  0  0
  1 11  1  0  0  0  0
  1 15  1  0  0  0  0
  2 15  1  0  0  0  0
  2 25  1  0  0  0  0
  3 21  1  0  0  0  0
  3 29  1  0  0  0  0
  4 20  2  0  0  0  0
  5 22  1  0  0  0  0
  5 31  1  0  0  0  0
  6 25  2  0  0  0  0
  7 29  2  0  0  0  0
  8 30  2  0  0  0  0
  9 31  2  0  0  0  0
 10 13  1  0  0  0  0
 10 14  1  0  0  0  0
 10 20  1  0  0  0  0
 11 16  1  0  0  0  0
 11 19  1  0  0  0  0
 12 29  1  0  0  0  0
 12 49  1  0  0  0  0
 12 50  1  0  0  0  0
 13 14  1  0  0  0  0
 13 15  1  0  0  0  0
 13 33  1  0  0  0  0
 14 16  1  0  0  0  0
 14 34  1  0  0  0  0
 15 17  1  0  0  0  0
 16 35  1  0  0  0  0
 16 36  1  0  0  0  0
 17 18  1  0  0  0  0
 17 21  1  0  0  0  0
 17 37  1  0  0  0  0
 18 19  2  0  0  0  0
 18 22  1  0  0  0  0
 19 23  1  0  0  0  0
 20 24  1  0  0  0  0
 21 38  1  0  0  0  0
 21 39  1  0  0  0  0
 22 26  2  0  0  0  0
 23 27  2  0  0  0  0
 23 40  1  0  0  0  0
 24 41  1  0  0  0  0
 24 42  1  0  0  0  0
 24 43  1  0  0  0  0
 25 28  1  0  0  0  0
 26 27  1  0  0  0  0
 26 44  1  0  0  0  0
 27 30  1  0  0  0  0
 28 45  1  0  0  0  0
 28 46  1  0  0  0  0
 28 47  1  0  0  0  0
 30 48  1  0  0  0  0
 31 32  1  0  0  0  0
 32 51  1  0  0  0  0
 32 52  1  0  0  0  0
 32 53  1  0  0  0  0
M  END
> <PUBCHEM_COMPOUND_CID>
101291617

> <PUBCHEM_CONFORMER_RMSD>
1

> <PUBCHEM_CONFORMER_DIVERSEORDER>
1
20
13
17
8
34
31
10
18
29
9
24
21
12
5
15
2
25
28
11
14
6
30
4
16
22
7
33
3
26
27
32
23
19

> <PUBCHEM_MMFF94_PARTIAL_CHARGES>
39
1 -0.26
10 -0.36
11 -0.49
12 -0.8
13 -0.05
14 -0.05
15 0.65
16 0.46
17 0.14
18 -0.14
19 0.1
2 -0.43
20 0.57
21 0.28
22 0.08
23 -0.15
24 0.06
25 0.66
26 -0.15
27 0.09
28 0.06
29 0.78
3 -0.43
30 0.42
31 0.66
32 0.06
33 0.1
34 0.1
4 -0.57
40 0.15
44 0.15
48 0.06
49 0.37
5 -0.23
50 0.37
6 -0.57
7 -0.57
8 -0.57
9 -0.57

> <PUBCHEM_EFFECTIVE_ROTOR_COUNT>
9.8

> <PUBCHEM_PHARMACOPHORE_FEATURES>
9
1 12 donor
1 4 acceptor
1 6 acceptor
1 7 acceptor
1 8 acceptor
1 9 acceptor
6 1 11 15 17 18 19 rings
6 18 19 22 23 26 27 rings
7 1 10 11 13 14 15 16 rings

> <PUBCHEM_HEAVY_ATOM_COUNT>
32

> <PUBCHEM_ATOM_DEF_STEREO_COUNT>
2

> <PUBCHEM_ATOM_UDEF_STEREO_COUNT>
2

> <PUBCHEM_BOND_DEF_STEREO_COUNT>
0

> <PUBCHEM_BOND_UDEF_STEREO_COUNT>
0

> <PUBCHEM_ISOTOPIC_ATOM_COUNT>
0

> <PUBCHEM_COMPONENT_COUNT>
1

> <PUBCHEM_CACTVS_TAUTO_COUNT>
48

> <PUBCHEM_CONFORMER_ID>
0609966100000001

> <PUBCHEM_MMFF94_ENERGY>
115.6591

> <PUBCHEM_FEATURE_SELFOVERLAP>
46.711

> <PUBCHEM_SHAPE_FINGERPRINT>
10006869 2 17612602124503910481
10165383 225 17199959842852099241
10863032 1 17774442664116401550
1100329 8 18123177176400565454
11578080 2 16766155213835964392
12156800 1 16541264876688394307
12160290 23 17484769685959471317
12633257 1 17755345349521681889
12788726 201 18272079471333360011
13140716 1 18057608870294044399
13149001 5 17898009277165174470
13583140 156 16812372034042773940
13965767 371 17840030641262659584
14955137 171 18195556781316595420
15420108 30 17912940395804806225
16945 1 17834956369425491614
17921350 177 16461941091149018384
18681886 176 18056459854667883191
20600515 1 17838570644951368375
23419403 2 17681569347716567467
25222932 49 17612073345927287033
34934 24 18265617585082045061
3493558 16 17345177003983663384
35225 105 17170671361423050530
392239 28 17680451973583279362
394222 165 17975107032547129131
57527306 92 18055889199326471284
57527585 103 17464254203513381856
70251023 43 18270677696760256335
9981440 41 16826415520712929248

> <PUBCHEM_SHAPE_MULTIPOLES>
590.78
6.36
5.26
2.79
2.22
7.32
2.84
-1.43
-2.76
-0.26
0.33
-1.89
-2.29
-3.14

> <PUBCHEM_SHAPE_SELFOVERLAP>
1280.867

> <PUBCHEM_SHAPE_VOLUME>
318.9

> <PUBCHEM_COORDINATE_TYPE>
2
5
10

$$$$
