101288424
  -OEChem-03292013293D

 52 57  0     1  0  0  0  0  0999 V2000
    1.3258   -1.5678   -1.4939 S   0  0  0  0  0  0  0  0  0  0  0  0
   -0.2812   -0.3011   -1.5450 S   0  0  0  0  0  0  0  0  0  0  0  0
    4.4631   -0.4514   -1.8741 O   0  0  0  0  0  0  0  0  0  0  0  0
    2.7470    0.8483    1.0719 O   0  0  0  0  0  0  0  0  0  0  0  0
    4.0058    3.3616   -0.1981 O   0  0  0  0  0  0  0  0  0  0  0  0
    1.8522   -3.5692    1.1761 O   0  0  0  0  0  0  0  0  0  0  0  0
    0.2089    1.3762    1.8548 O   0  0  0  0  0  0  0  0  0  0  0  0
   -3.7877   -2.2237   -0.5301 O   0  0  0  0  0  0  0  0  0  0  0  0
   -6.1963   -0.8840   -0.4508 O   0  0  0  0  0  0  0  0  0  0  0  0
   -6.2431    1.8402    0.0413 O   0  0  0  0  0  0  0  0  0  0  0  0
    1.7086   -0.0814    0.8626 N   0  0  0  0  0  0  0  0  0  0  0  0
    0.1523   -2.0750    1.5766 N   0  0  0  0  0  0  0  0  0  0  0  0
    4.1978   -0.3145   -0.4641 C   0  0  1  0  0  0  0  0  0  0  0  0
    5.6081   -0.3610   -1.0216 C   0  0  2  0  0  0  0  0  0  0  0  0
    3.5592    1.0078   -0.1080 C   0  0  2  0  0  0  0  0  0  0  0  0
    3.5636   -1.5392    0.1338 C   0  0  0  0  0  0  0  0  0  0  0  0
    2.0396   -1.3525    0.1982 C   0  0  2  0  0  0  0  0  0  0  0  0
    4.5765    2.1224    0.2359 C   0  0  1  0  0  0  0  0  0  0  0  0
    6.3976    0.8631   -0.9194 C   0  0  0  0  0  0  0  0  0  0  0  0
    5.9504    1.9944   -0.3594 C   0  0  0  0  0  0  0  0  0  0  0  0
    1.3853   -2.4377    1.0540 C   0  0  0  0  0  0  0  0  0  0  0  0
   -0.5516   -0.8320    1.2426 C   0  0  1  0  0  0  0  0  0  0  0  0
    0.4862    0.2749    1.3865 C   0  0  0  0  0  0  0  0  0  0  0  0
   -1.2802   -0.9066   -0.1232 C   0  0  1  0  0  0  0  0  0  0  0  0
   -2.6210   -0.1854   -0.0824 C   0  0  0  0  0  0  0  0  0  0  0  0
   -3.8119   -0.8815   -0.2890 C   0  0  0  0  0  0  0  0  0  0  0  0
   -2.6492    1.1872    0.1646 C   0  0  0  0  0  0  0  0  0  0  0  0
   -5.0310   -0.2051   -0.2486 C   0  0  0  0  0  0  0  0  0  0  0  0
   -3.8684    1.8637    0.2050 C   0  0  0  0  0  0  0  0  0  0  0  0
   -5.0594    1.1674   -0.0016 C   0  0  0  0  0  0  0  0  0  0  0  0
   -6.6641   -0.9796   -1.7942 C   0  0  0  0  0  0  0  0  0  0  0  0
   -6.1828    3.2417    0.2996 C   0  0  0  0  0  0  0  0  0  0  0  0
    6.1781   -1.2710   -0.8710 H   0  0  0  0  0  0  0  0  0  0  0  0
    2.9001    1.3416   -0.9212 H   0  0  0  0  0  0  0  0  0  0  0  0
    3.9650   -1.6614    1.1492 H   0  0  0  0  0  0  0  0  0  0  0  0
    3.8420   -2.4518   -0.4096 H   0  0  0  0  0  0  0  0  0  0  0  0
    4.6901    2.2007    1.3245 H   0  0  0  0  0  0  0  0  0  0  0  0
    7.4068    0.8404   -1.3198 H   0  0  0  0  0  0  0  0  0  0  0  0
    6.6145    2.8526   -0.3042 H   0  0  0  0  0  0  0  0  0  0  0  0
   -1.2762   -0.7128    2.0583 H   0  0  0  0  0  0  0  0  0  0  0  0
   -0.3513   -2.7709    2.1184 H   0  0  0  0  0  0  0  0  0  0  0  0
   -1.4702   -1.9634   -0.3431 H   0  0  0  0  0  0  0  0  0  0  0  0
    4.5958    4.0789    0.0907 H   0  0  0  0  0  0  0  0  0  0  0  0
   -1.7395    1.7594    0.3094 H   0  0  0  0  0  0  0  0  0  0  0  0
   -3.8134    2.9296    0.3975 H   0  0  0  0  0  0  0  0  0  0  0  0
   -4.7034   -2.5437   -0.6006 H   0  0  0  0  0  0  0  0  0  0  0  0
   -7.5774   -1.5808   -1.7966 H   0  0  0  0  0  0  0  0  0  0  0  0
   -5.9214   -1.4699   -2.4315 H   0  0  0  0  0  0  0  0  0  0  0  0
   -6.8989    0.0137   -2.1896 H   0  0  0  0  0  0  0  0  0  0  0  0
   -5.6517    3.7761   -0.4955 H   0  0  0  0  0  0  0  0  0  0  0  0
   -5.7697    3.4520    1.2920 H   0  0  0  0  0  0  0  0  0  0  0  0
   -7.2126    3.6138    0.2990 H   0  0  0  0  0  0  0  0  0  0  0  0
  1  2  1  0  0  0  0
  1 17  1  0  0  0  0
  2 24  1  0  0  0  0
  3 13  1  0  0  0  0
  3 14  1  0  0  0  0
  4 11  1  0  0  0  0
  4 15  1  0  0  0  0
  5 18  1  0  0  0  0
  5 43  1  0  0  0  0
  6 21  2  0  0  0  0
  7 23  2  0  0  0  0
  8 26  1  0  0  0  0
  8 46  1  0  0  0  0
  9 28  1  0  0  0  0
  9 31  1  0  0  0  0
 10 30  1  0  0  0  0
 10 32  1  0  0  0  0
 11 17  1  0  0  0  0
 11 23  1  0  0  0  0
 12 21  1  0  0  0  0
 12 22  1  0  0  0  0
 12 41  1  0  0  0  0
 13 14  1  0  0  0  0
 13 15  1  0  0  0  0
 13 16  1  0  0  0  0
 14 19  1  0  0  0  0
 14 33  1  0  0  0  0
 15 18  1  0  0  0  0
 15 34  1  0  0  0  0
 16 17  1  0  0  0  0
 16 35  1  0  0  0  0
 16 36  1  0  0  0  0
 17 21  1  0  0  0  0
 18 20  1  0  0  0  0
 18 37  1  0  0  0  0
 19 20  2  0  0  0  0
 19 38  1  0  0  0  0
 20 39  1  0  0  0  0
 22 23  1  0  0  0  0
 22 24  1  0  0  0  0
 22 40  1  0  0  0  0
 24 25  1  0  0  0  0
 24 42  1  0  0  0  0
 25 26  2  0  0  0  0
 25 27  1  0  0  0  0
 26 28  1  0  0  0  0
 27 29  2  0  0  0  0
 27 44  1  0  0  0  0
 28 30  2  0  0  0  0
 29 30  1  0  0  0  0
 29 45  1  0  0  0  0
 31 47  1  0  0  0  0
 31 48  1  0  0  0  0
 31 49  1  0  0  0  0
 32 50  1  0  0  0  0
 32 51  1  0  0  0  0
 32 52  1  0  0  0  0
M  END
> <PUBCHEM_COMPOUND_CID>
101288424

> <PUBCHEM_CONFORMER_RMSD>
0.8

> <PUBCHEM_CONFORMER_DIVERSEORDER>
1
9
14
6
3
4
13
12
5
11
15
2
10
8
7

> <PUBCHEM_MMFF94_PARTIAL_CHARGES>
40
1 -0.23
10 -0.36
11 -0.32
12 -0.73
13 -0.04
14 0.09
15 0.38
16 0.09
17 0.59
18 0.42
19 -0.19
2 -0.23
20 -0.29
21 0.57
22 0.36
23 0.57
24 0.37
25 -0.14
26 0.08
27 -0.15
28 0.08
29 -0.15
3 -0.3
30 0.08
31 0.28
32 0.28
33 0.1
38 0.15
39 0.15
4 -0.32
41 0.37
43 0.4
44 0.15
45 0.15
46 0.45
5 -0.68
6 -0.57
7 -0.57
8 -0.53
9 -0.36

> <PUBCHEM_EFFECTIVE_ROTOR_COUNT>
4.6

> <PUBCHEM_PHARMACOPHORE_FEATURES>
13
1 10 acceptor
1 12 donor
1 3 acceptor
1 5 acceptor
1 5 donor
1 6 acceptor
1 7 acceptor
1 8 donor
1 9 acceptor
6 25 26 27 28 29 30 rings
6 4 11 13 15 16 17 rings
7 3 13 14 15 18 19 20 rings
9 1 2 11 12 17 21 22 23 24 rings

> <PUBCHEM_HEAVY_ATOM_COUNT>
32

> <PUBCHEM_ATOM_DEF_STEREO_COUNT>
7

> <PUBCHEM_ATOM_UDEF_STEREO_COUNT>
0

> <PUBCHEM_BOND_DEF_STEREO_COUNT>
0

> <PUBCHEM_BOND_UDEF_STEREO_COUNT>
0

> <PUBCHEM_ISOTOPIC_ATOM_COUNT>
0

> <PUBCHEM_COMPONENT_COUNT>
1

> <PUBCHEM_CACTVS_TAUTO_COUNT>
4

> <PUBCHEM_CONFORMER_ID>
060989E800000001

> <PUBCHEM_MMFF94_ENERGY>
125.7223

> <PUBCHEM_FEATURE_SELFOVERLAP>
66.029

> <PUBCHEM_SHAPE_FINGERPRINT>
10165383 225 17967259685263859238
10554248 39 18123173612242140463
10595046 47 18410851045614113391
10693767 8 18128822941762587814
11456790 92 18186800249981904464
12236239 1 18334858277716649895
12730499 353 18260839189104688714
12788726 201 17631171871100904113
13690498 29 17845084255135387015
13726171 33 18131079203735440185
13782708 43 15769481141230426807
14528608 73 18409446985864875623
14840074 17 17095245830235826727
15183329 4 17632302250505713497
15238133 3 18199455597908777187
17980427 23 16443920490712237078
1813 80 13110968625976563130
18365409 1 18044377351798635863
18608769 82 18264495151773382603
20511986 3 18187635882960864071
21033648 29 18261397814590441320
221357 26 18131068263836564752
22393880 68 18272647956618437019
23522609 53 17702688651726721425
23559900 14 17630605605538575655
23569914 2 17689100834800961565
2838139 119 18411981390321640116
3004659 81 18202847647721513456
32027 91 16010421354393573171
335352 9 18335143103606374774
34797466 226 18060146456867660887
4058900 60 18129672902414557183
4073 2 18187372059656460386
474 4 17968099749905250284
504579 68 18340476795425383821
5104073 3 17822011986825488675
5283173 99 18339646766951496306
53794403 172 18044103573276524412
6328613 192 18340770343407957025
633830 44 18410849992898726750
6669772 16 16843588608470474272

> <PUBCHEM_SHAPE_MULTIPOLES>
609.33
16.15
3.05
1.45
10.15
0.73
0.07
8.9
6.04
0.02
-0.69
-0.37
-0.57
-1.21

> <PUBCHEM_SHAPE_SELFOVERLAP>
1318.789

> <PUBCHEM_SHAPE_VOLUME>
333.8

> <PUBCHEM_COORDINATE_TYPE>
2
5
10

$$$$
