101232079
  -OEChem-03292013293D

 71 76  0     1  0  0  0  0  0999 V2000
   -0.3722   -0.1341    2.8626 O   0  0  0  0  0  0  0  0  0  0  0  0
   -0.0129    1.5408   -2.3023 O   0  0  0  0  0  0  0  0  0  0  0  0
   -1.9288    2.5400   -0.6134 O   0  0  0  0  0  0  0  0  0  0  0  0
    0.3640    2.9623    0.6789 O   0  0  0  0  0  0  0  0  0  0  0  0
    0.9182   -2.9175    0.8527 O   0  0  0  0  0  0  0  0  0  0  0  0
   -4.0020    1.2025    1.0766 O   0  0  0  0  0  0  0  0  0  0  0  0
   -4.4608   -1.0389   -0.9869 O   0  0  0  0  0  0  0  0  0  0  0  0
    1.7900   -0.6700   -1.5515 N   0  0  2  0  0  0  0  0  0  0  0  0
    0.7708   -0.4281    0.6991 C   0  0  2  0  0  0  0  0  0  0  0  0
   -0.6318   -0.3179    1.4575 C   0  0  2  0  0  0  0  0  0  0  0  0
    1.6512    0.8810    0.8184 C   0  0  2  0  0  0  0  0  0  0  0  0
    0.5299   -0.3703   -0.8379 C   0  0  1  0  0  0  0  0  0  0  0  0
   -0.0401    1.0873   -0.9529 C   0  0  2  0  0  0  0  0  0  0  0  0
   -1.5619    0.8578    1.0684 C   0  0  1  0  0  0  0  0  0  0  0  0
   -1.5100    1.1679   -0.4415 C   0  0  1  0  0  0  0  0  0  0  0  0
    0.9483    1.9278   -0.0946 C   0  0  1  0  0  0  0  0  0  0  0  0
    3.0725    0.6042    0.2215 C   0  0  2  0  0  0  0  0  0  0  0  0
    1.5405   -1.6952    1.2409 C   0  0  2  0  0  0  0  0  0  0  0  0
   -1.5705   -1.5534    1.2956 C   0  0  0  0  0  0  0  0  0  0  0  0
   -2.9518   -1.0122    0.8829 C   0  0  1  0  0  0  0  0  0  0  0  0
   -2.9486    0.3698    1.5128 C   0  0  2  0  0  0  0  0  0  0  0  0
   -2.5050    0.3333   -1.2952 C   0  0  0  0  0  0  0  0  0  0  0  0
    2.9197    0.2327   -1.2886 C   0  0  0  0  0  0  0  0  0  0  0  0
    3.7537   -0.5318    1.0097 C   0  0  0  0  0  0  0  0  0  0  0  0
   -3.0719   -0.9428   -0.6500 C   0  0  2  0  0  0  0  0  0  0  0  0
    3.0163   -1.8428    0.8943 C   0  0  0  0  0  0  0  0  0  0  0  0
    3.9924    1.8380    0.3628 C   0  0  0  0  0  0  0  0  0  0  0  0
    1.6204   -0.9388   -2.9725 C   0  0  0  0  0  0  0  0  0  0  0  0
    1.3295    3.9252    1.0853 C   0  0  0  0  0  0  0  0  0  0  0  0
    2.8611   -1.5900   -3.5600 C   0  0  0  0  0  0  0  0  0  0  0  0
    1.1240   -3.9326    1.8229 C   0  0  0  0  0  0  0  0  0  0  0  0
   -4.6344   -1.5541   -2.2957 C   0  0  0  0  0  0  0  0  0  0  0  0
    1.7377    1.2069    1.8594 H   0  0  0  0  0  0  0  0  0  0  0  0
   -0.2092   -1.1169   -1.1401 H   0  0  0  0  0  0  0  0  0  0  0  0
   -1.3571    1.7600    1.6550 H   0  0  0  0  0  0  0  0  0  0  0  0
    1.6368    2.4298   -0.7779 H   0  0  0  0  0  0  0  0  0  0  0  0
    1.5046   -1.6082    2.3363 H   0  0  0  0  0  0  0  0  0  0  0  0
   -1.6574   -2.0873    2.2502 H   0  0  0  0  0  0  0  0  0  0  0  0
   -1.2363   -2.2737    0.5492 H   0  0  0  0  0  0  0  0  0  0  0  0
   -3.7572   -1.6341    1.2901 H   0  0  0  0  0  0  0  0  0  0  0  0
   -3.0085    0.2937    2.6057 H   0  0  0  0  0  0  0  0  0  0  0  0
   -2.0504    0.0601   -2.2561 H   0  0  0  0  0  0  0  0  0  0  0  0
   -3.3465    0.9793   -1.5865 H   0  0  0  0  0  0  0  0  0  0  0  0
    3.8604   -0.2430   -1.5920 H   0  0  0  0  0  0  0  0  0  0  0  0
    2.8432    1.1352   -1.9056 H   0  0  0  0  0  0  0  0  0  0  0  0
    3.8277   -0.2520    2.0692 H   0  0  0  0  0  0  0  0  0  0  0  0
    4.7832   -0.6786    0.6585 H   0  0  0  0  0  0  0  0  0  0  0  0
   -2.5612   -1.8177   -1.0730 H   0  0  0  0  0  0  0  0  0  0  0  0
    3.1490   -2.2881   -0.0985 H   0  0  0  0  0  0  0  0  0  0  0  0
    3.4960   -2.5578    1.5738 H   0  0  0  0  0  0  0  0  0  0  0  0
    3.6546    2.6944   -0.2258 H   0  0  0  0  0  0  0  0  0  0  0  0
    5.0062    1.6058    0.0152 H   0  0  0  0  0  0  0  0  0  0  0  0
    4.0685    2.1547    1.4087 H   0  0  0  0  0  0  0  0  0  0  0  0
    0.0429    0.7347    2.9893 H   0  0  0  0  0  0  0  0  0  0  0  0
    0.9006    1.7448   -2.5563 H   0  0  0  0  0  0  0  0  0  0  0  0
   -1.8071    2.7701   -1.5507 H   0  0  0  0  0  0  0  0  0  0  0  0
    1.3872   -0.0423   -3.5535 H   0  0  0  0  0  0  0  0  0  0  0  0
    0.7875   -1.6382   -3.1152 H   0  0  0  0  0  0  0  0  0  0  0  0
   -3.8358    2.0928    1.4304 H   0  0  0  0  0  0  0  0  0  0  0  0
    0.8033    4.7155    1.6284 H   0  0  0  0  0  0  0  0  0  0  0  0
    1.8208    4.3816    0.2205 H   0  0  0  0  0  0  0  0  0  0  0  0
    2.0655    3.4888    1.7641 H   0  0  0  0  0  0  0  0  0  0  0  0
    3.6909   -0.8846   -3.6672 H   0  0  0  0  0  0  0  0  0  0  0  0
    3.1952   -2.4409   -2.9563 H   0  0  0  0  0  0  0  0  0  0  0  0
    2.6369   -1.9689   -4.5633 H   0  0  0  0  0  0  0  0  0  0  0  0
    0.7551   -3.6222    2.8057 H   0  0  0  0  0  0  0  0  0  0  0  0
    2.1732   -4.2316    1.8842 H   0  0  0  0  0  0  0  0  0  0  0  0
    0.5492   -4.8104    1.5132 H   0  0  0  0  0  0  0  0  0  0  0  0
   -5.7072   -1.5965   -2.5042 H   0  0  0  0  0  0  0  0  0  0  0  0
   -4.2348   -2.5706   -2.3693 H   0  0  0  0  0  0  0  0  0  0  0  0
   -4.1686   -0.9099   -3.0470 H   0  0  0  0  0  0  0  0  0  0  0  0
  1 10  1  0  0  0  0
  1 54  1  0  0  0  0
  2 13  1  0  0  0  0
  2 55  1  0  0  0  0
  3 15  1  0  0  0  0
  3 56  1  0  0  0  0
  4 16  1  0  0  0  0
  4 29  1  0  0  0  0
  5 18  1  0  0  0  0
  5 31  1  0  0  0  0
  6 21  1  0  0  0  0
  6 59  1  0  0  0  0
  7 25  1  0  0  0  0
  7 32  1  0  0  0  0
  8 12  1  0  0  0  0
  8 23  1  0  0  0  0
  8 28  1  0  0  0  0
  9 10  1  0  0  0  0
  9 11  1  0  0  0  0
  9 12  1  0  0  0  0
  9 18  1  0  0  0  0
 10 14  1  0  0  0  0
 10 19  1  0  0  0  0
 11 16  1  0  0  0  0
 11 17  1  0  0  0  0
 11 33  1  0  0  0  0
 12 13  1  0  0  0  0
 12 34  1  0  0  0  0
 13 15  1  0  0  0  0
 13 16  1  0  0  0  0
 14 15  1  0  0  0  0
 14 21  1  0  0  0  0
 14 35  1  0  0  0  0
 15 22  1  0  0  0  0
 16 36  1  0  0  0  0
 17 23  1  0  0  0  0
 17 24  1  0  0  0  0
 17 27  1  0  0  0  0
 18 26  1  0  0  0  0
 18 37  1  0  0  0  0
 19 20  1  0  0  0  0
 19 38  1  0  0  0  0
 19 39  1  0  0  0  0
 20 21  1  0  0  0  0
 20 25  1  0  0  0  0
 20 40  1  0  0  0  0
 21 41  1  0  0  0  0
 22 25  1  0  0  0  0
 22 42  1  0  0  0  0
 22 43  1  0  0  0  0
 23 44  1  0  0  0  0
 23 45  1  0  0  0  0
 24 26  1  0  0  0  0
 24 46  1  0  0  0  0
 24 47  1  0  0  0  0
 25 48  1  0  0  0  0
 26 49  1  0  0  0  0
 26 50  1  0  0  0  0
 27 51  1  0  0  0  0
 27 52  1  0  0  0  0
 27 53  1  0  0  0  0
 28 30  1  0  0  0  0
 28 57  1  0  0  0  0
 28 58  1  0  0  0  0
 29 60  1  0  0  0  0
 29 61  1  0  0  0  0
 29 62  1  0  0  0  0
 30 63  1  0  0  0  0
 30 64  1  0  0  0  0
 30 65  1  0  0  0  0
 31 66  1  0  0  0  0
 31 67  1  0  0  0  0
 31 68  1  0  0  0  0
 32 69  1  0  0  0  0
 32 70  1  0  0  0  0
 32 71  1  0  0  0  0
M  END
> <PUBCHEM_COMPOUND_CID>
101232079

> <PUBCHEM_CONFORMER_RMSD>
0.8

> <PUBCHEM_CONFORMER_DIVERSEORDER>
1

> <PUBCHEM_MMFF94_PARTIAL_CHARGES>
25
1 -0.68
10 0.28
12 0.27
13 0.28
15 0.28
16 0.28
18 0.28
2 -0.68
21 0.28
23 0.27
25 0.28
28 0.27
29 0.28
3 -0.68
31 0.28
32 0.28
4 -0.56
5 -0.56
54 0.4
55 0.4
56 0.4
59 0.4
6 -0.68
7 -0.56
8 -0.81

> <PUBCHEM_EFFECTIVE_ROTOR_COUNT>
6

> <PUBCHEM_PHARMACOPHORE_FEATURES>
16
1 1 acceptor
1 1 donor
1 2 acceptor
1 2 donor
1 3 acceptor
1 3 donor
1 4 acceptor
1 5 acceptor
1 6 acceptor
1 6 donor
1 7 acceptor
1 8 cation
6 9 11 17 18 24 26 rings
8 10 14 15 19 20 21 22 25 rings
8 8 9 11 12 13 16 17 23 rings
8 9 10 11 12 13 14 15 16 rings

> <PUBCHEM_HEAVY_ATOM_COUNT>
32

> <PUBCHEM_ATOM_DEF_STEREO_COUNT>
13

> <PUBCHEM_ATOM_UDEF_STEREO_COUNT>
0

> <PUBCHEM_BOND_DEF_STEREO_COUNT>
0

> <PUBCHEM_BOND_UDEF_STEREO_COUNT>
0

> <PUBCHEM_ISOTOPIC_ATOM_COUNT>
0

> <PUBCHEM_COMPONENT_COUNT>
1

> <PUBCHEM_CACTVS_TAUTO_COUNT>
1

> <PUBCHEM_CONFORMER_ID>
0608ADCF00000001

> <PUBCHEM_MMFF94_ENERGY>
184.9114

> <PUBCHEM_FEATURE_SELFOVERLAP>
82.706

> <PUBCHEM_SHAPE_FINGERPRINT>
10863032 1 18121757466228278984
10948715 1 18058172911121939560
11578080 2 17770179900564523121
11796584 16 17987783238106972743
12011746 2 18189045555435746264
12788726 201 18053399712007876088
13140716 1 18117287067014644289
13224815 77 17676779720362574594
14787075 74 18268713977546137292
16945 1 18041007244951578073
17349148 13 17458058244604878011
18981168 100 7996526504601050878
20600515 1 18190203311104493708
20691752 17 18334869306812780038
20715895 44 15503195844411015175
23419403 2 17118086187290980836
23559900 14 17676479597218373192
238 59 18188474895551577573
35225 105 17618242610363811456
463206 1 18335411349087619779
5845 1 18198364895285551900

> <PUBCHEM_SHAPE_MULTIPOLES>
612.48
6.35
3.3
2.73
3.96
0.56
1.83
-1.19
1.67
-1.54
-1.24
-0.57
-1.69
-0.19

> <PUBCHEM_SHAPE_SELFOVERLAP>
1345.466

> <PUBCHEM_SHAPE_VOLUME>
326.4

> <PUBCHEM_COORDINATE_TYPE>
2
5
10

$$$$
