101268765
  -OEChem-03292013293D

 55 57  0     1  0  0  0  0  0999 V2000
   -2.5198    3.3234    0.6763 O   0  0  0  0  0  0  0  0  0  0  0  0
   -1.8806    0.2471    0.7345 O   0  0  0  0  0  0  0  0  0  0  0  0
   -3.6601   -0.1753    2.1674 O   0  0  0  0  0  0  0  0  0  0  0  0
   -2.1036   -2.9255    0.9088 O   0  0  0  0  0  0  0  0  0  0  0  0
    4.9008   -0.2644    1.8790 O   0  0  0  0  0  0  0  0  0  0  0  0
    8.0047   -0.0900   -1.5525 O   0  0  0  0  0  0  0  0  0  0  0  0
    2.9286   -1.0695    0.9340 N   0  0  0  0  0  0  0  0  0  0  0  0
    7.0924    0.8840   -1.1229 N   0  0  0  0  0  0  0  0  0  0  0  0
   -1.0938    3.3763    0.5838 C   0  0  2  0  0  0  0  0  0  0  0  0
   -1.9845    3.5318   -0.6397 C   0  0  1  0  0  0  0  0  0  0  0  0
   -0.3553    2.1122    0.9396 C   0  0  0  0  0  0  0  0  0  0  0  0
   -1.1809    1.0636    1.7011 C   0  0  2  0  0  0  0  0  0  0  0  0
   -1.9991    2.4974   -1.6794 C   0  0  0  0  0  0  0  0  0  0  0  0
   -0.2677    0.1393    2.5044 C   0  0  0  0  0  0  0  0  0  0  0  0
   -3.0071    1.6694   -1.9920 C   0  0  0  0  0  0  0  0  0  0  0  0
    0.7184   -0.5533    1.6151 C   0  0  0  0  0  0  0  0  0  0  0  0
   -3.0540   -0.3115    1.1197 C   0  0  0  0  0  0  0  0  0  0  0  0
   -4.3102    1.6995   -1.3661 C   0  0  0  0  0  0  0  0  0  0  0  0
   -3.5108   -1.1813    0.0276 C   0  0  0  0  0  0  0  0  0  0  0  0
   -4.4509   -0.7396   -0.9185 C   0  0  0  0  0  0  0  0  0  0  0  0
    2.0444   -0.4252    1.7435 C   0  0  0  0  0  0  0  0  0  0  0  0
   -4.9818    0.6279   -0.9180 C   0  0  0  0  0  0  0  0  0  0  0  0
   -3.0072   -2.4849   -0.0106 C   0  0  0  0  0  0  0  0  0  0  0  0
   -4.8775   -1.6327   -1.9094 C   0  0  0  0  0  0  0  0  0  0  0  0
   -3.4395   -3.3589   -1.0061 C   0  0  0  0  0  0  0  0  0  0  0  0
   -4.3728   -2.9348   -1.9521 C   0  0  0  0  0  0  0  0  0  0  0  0
    4.3069   -0.9492    1.0515 C   0  0  0  0  0  0  0  0  0  0  0  0
    5.0233   -1.7677    0.0328 C   0  0  0  0  0  0  0  0  0  0  0  0
    5.8374   -1.1704   -0.8442 C   0  0  0  0  0  0  0  0  0  0  0  0
    5.9979    0.2954   -0.7692 C   0  0  0  0  0  0  0  0  0  0  0  0
    9.2025    0.5668   -1.9385 C   0  0  0  0  0  0  0  0  0  0  0  0
   -0.5987    4.2652    0.9556 H   0  0  0  0  0  0  0  0  0  0  0  0
   -2.0832    4.5358   -1.0400 H   0  0  0  0  0  0  0  0  0  0  0  0
    0.0758    1.6863    0.0260 H   0  0  0  0  0  0  0  0  0  0  0  0
    0.4877    2.4272    1.5682 H   0  0  0  0  0  0  0  0  0  0  0  0
   -1.8894    1.5516    2.3815 H   0  0  0  0  0  0  0  0  0  0  0  0
   -1.0688    2.3732   -2.2298 H   0  0  0  0  0  0  0  0  0  0  0  0
   -0.8649   -0.6332    3.0036 H   0  0  0  0  0  0  0  0  0  0  0  0
    0.2394    0.7097    3.2920 H   0  0  0  0  0  0  0  0  0  0  0  0
   -2.8398    0.9066   -2.7482 H   0  0  0  0  0  0  0  0  0  0  0  0
    0.3205   -1.2086    0.8435 H   0  0  0  0  0  0  0  0  0  0  0  0
   -4.7663    2.6797   -1.2471 H   0  0  0  0  0  0  0  0  0  0  0  0
    2.4691    0.2123    2.5117 H   0  0  0  0  0  0  0  0  0  0  0  0
   -5.9648    0.7540   -0.4731 H   0  0  0  0  0  0  0  0  0  0  0  0
   -5.6015   -1.3239   -2.6601 H   0  0  0  0  0  0  0  0  0  0  0  0
    2.5452   -1.6687    0.2066 H   0  0  0  0  0  0  0  0  0  0  0  0
   -3.0608   -4.3764   -1.0560 H   0  0  0  0  0  0  0  0  0  0  0  0
   -4.7085   -3.6193   -2.7260 H   0  0  0  0  0  0  0  0  0  0  0  0
   -1.8756   -3.8506    0.7137 H   0  0  0  0  0  0  0  0  0  0  0  0
    4.8328   -2.8340    0.0017 H   0  0  0  0  0  0  0  0  0  0  0  0
    6.3640   -1.7562   -1.5872 H   0  0  0  0  0  0  0  0  0  0  0  0
    5.1588    0.9033   -0.3993 H   0  0  0  0  0  0  0  0  0  0  0  0
    9.9184   -0.1879   -2.2747 H   0  0  0  0  0  0  0  0  0  0  0  0
    9.6327    1.1049   -1.0881 H   0  0  0  0  0  0  0  0  0  0  0  0
    9.0082    1.2590   -2.7637 H   0  0  0  0  0  0  0  0  0  0  0  0
  1  9  1  0  0  0  0
  1 10  1  0  0  0  0
  2 12  1  0  0  0  0
  2 17  1  0  0  0  0
  3 17  2  0  0  0  0
  4 23  1  0  0  0  0
  4 49  1  0  0  0  0
  5 27  2  0  0  0  0
  6  8  1  0  0  0  0
  6 31  1  0  0  0  0
  7 21  1  0  0  0  0
  7 27  1  0  0  0  0
  7 46  1  0  0  0  0
  8 30  2  0  0  0  0
  9 10  1  0  0  0  0
  9 11  1  0  0  0  0
  9 32  1  0  0  0  0
 10 13  1  0  0  0  0
 10 33  1  0  0  0  0
 11 12  1  0  0  0  0
 11 34  1  0  0  0  0
 11 35  1  0  0  0  0
 12 14  1  0  0  0  0
 12 36  1  0  0  0  0
 13 15  2  0  0  0  0
 13 37  1  0  0  0  0
 14 16  1  0  0  0  0
 14 38  1  0  0  0  0
 14 39  1  0  0  0  0
 15 18  1  0  0  0  0
 15 40  1  0  0  0  0
 16 21  2  0  0  0  0
 16 41  1  0  0  0  0
 17 19  1  0  0  0  0
 18 22  2  0  0  0  0
 18 42  1  0  0  0  0
 19 20  2  0  0  0  0
 19 23  1  0  0  0  0
 20 22  1  0  0  0  0
 20 24  1  0  0  0  0
 21 43  1  0  0  0  0
 22 44  1  0  0  0  0
 23 25  2  0  0  0  0
 24 26  2  0  0  0  0
 24 45  1  0  0  0  0
 25 26  1  0  0  0  0
 25 47  1  0  0  0  0
 26 48  1  0  0  0  0
 27 28  1  0  0  0  0
 28 29  2  0  0  0  0
 28 50  1  0  0  0  0
 29 30  1  0  0  0  0
 29 51  1  0  0  0  0
 30 52  1  0  0  0  0
 31 53  1  0  0  0  0
 31 54  1  0  0  0  0
 31 55  1  0  0  0  0
M  END
> <PUBCHEM_COMPOUND_CID>
101268765

> <PUBCHEM_CONFORMER_RMSD>
1

> <PUBCHEM_CONFORMER_DIVERSEORDER>
1
54
89
176
167
129
218
109
61
84
46
67
24
198
155
72
166
87
86
122
21
71
146
210
148
116
29
103
139
22
51
95
205
151
63
96
213
156
164
33
153
9
73
171
80
150
200
18
175
154
199
50
3
83
187
168
15
136
178
113
163
144
8
133
94
37
194
40
44
188
112
59
219
57
117
196
174
12
123
102
97
120
56
115
124
4
134
141
13
131
108
138
130
208
211
195
82
43
48
182
181
158
147
107
126
157
135
75
92
186
125
66
100
160
55
31
128
161
39
217
58
172
104
20
170
5
98
78
204
190
149
28
173
191
79
162
169
81
32
206
36
101
106
65
60
7
30
179
193
6
25
90
185
183
165
38
17
180
207
47
2
132
27
99
119
143
142
111
152
203
19
49
62
91
127
69
16
74
145
114
42
41
52
121
53
34
140
11
159
197
26
45
212
77
202
216
23
14
189
177
209
137
85
201
105
64
192
184
76
68
118
35
10
70
110
215
88
214
93

> <PUBCHEM_MMFF94_PARTIAL_CHARGES>
47
1 -0.3
10 0.09
11 0.09
12 0.28
13 -0.19
14 0.14
15 -0.15
16 -0.29
17 0.63
18 -0.15
19 0.09
2 -0.43
20 0.03
21 -0.04
22 -0.18
23 0.08
24 -0.15
25 -0.15
26 -0.15
27 0.62
28 -0.14
29 -0.14
3 -0.57
30 0.38
31 0.28
32 0.1
33 0.1
37 0.15
4 -0.53
40 0.15
41 0.15
42 0.15
43 0.15
44 0.15
45 0.15
46 0.37
47 0.15
48 0.15
49 0.45
5 -0.57
50 0.15
51 0.15
52 0.06
6 -0.22
7 -0.54
8 -0.51
9 -0.05

> <PUBCHEM_EFFECTIVE_ROTOR_COUNT>
7.8

> <PUBCHEM_PHARMACOPHORE_FEATURES>
7
1 1 acceptor
1 3 acceptor
1 4 donor
1 5 acceptor
1 7 donor
1 8 acceptor
6 19 20 23 24 25 26 rings

> <PUBCHEM_HEAVY_ATOM_COUNT>
31

> <PUBCHEM_ATOM_DEF_STEREO_COUNT>
3

> <PUBCHEM_ATOM_UDEF_STEREO_COUNT>
0

> <PUBCHEM_BOND_DEF_STEREO_COUNT>
5

> <PUBCHEM_BOND_UDEF_STEREO_COUNT>
0

> <PUBCHEM_ISOTOPIC_ATOM_COUNT>
0

> <PUBCHEM_COMPONENT_COUNT>
1

> <PUBCHEM_CACTVS_TAUTO_COUNT>
28

> <PUBCHEM_CONFORMER_ID>
06093D1D00000001

> <PUBCHEM_MMFF94_ENERGY>
91.5073

> <PUBCHEM_FEATURE_SELFOVERLAP>
35.523

> <PUBCHEM_SHAPE_FINGERPRINT>
11200772 71 18334009454539455876
11315621 246 18201443601358688350
11387372 6 15267338556589927756
11477941 20 18334579062072306180
12422481 6 12391516399334454984
12788726 201 18191850259311050529
13008946 62 17688316685521035348
13690498 29 18339358668877142159
14251757 5 18335693936428763067
14289278 72 9871479772329596640
14930077 153 17967530130216278701
14950920 106 10159688101929212186
15950262 2 15650696252864530669
19438510 23 12325338890666259919
21599406 157 18059028181435169478
255183 451 17980190117969029423
4280585 95 18266715017686849771
437795 83 18041293131920180916
484985 159 15194992804907070685
497634 4 17917997174118014160
513202 73 15051737481941545872
5265222 85 18260823749045562149
7237137 82 18335411348812546320
999808 66 15051744079728522654

> <PUBCHEM_SHAPE_MULTIPOLES>
592.79
17.91
3.87
2.43
54.23
1.12
0.3
-4.53
-14.14
-6.16
-1.12
0.35
0.09
-1.32

> <PUBCHEM_SHAPE_SELFOVERLAP>
1244.531

> <PUBCHEM_SHAPE_VOLUME>
329.8

> <PUBCHEM_COORDINATE_TYPE>
2
5
10

$$$$
