101284892
  -OEChem-03292013293D

 73 77  0     1  0  0  0  0  0999 V2000
    0.3405    0.7331    0.9995 O   0  0  0  0  0  0  0  0  0  0  0  0
    0.1951   -3.0617   -0.1127 O   0  0  0  0  0  0  0  0  0  0  0  0
    3.7911   -0.2872    0.3349 O   0  0  0  0  0  0  0  0  0  0  0  0
   -4.2627    3.2313    0.6969 O   0  0  0  0  0  0  0  0  0  0  0  0
   -4.3715    0.1852   -1.0190 O   0  0  0  0  0  0  0  0  0  0  0  0
    4.5434    1.3715    1.7428 O   0  0  0  0  0  0  0  0  0  0  0  0
   -4.8511    0.6140    1.2044 O   0  0  0  0  0  0  0  0  0  0  0  0
    6.1582   -0.3362   -1.0229 N   0  0  0  0  0  0  0  0  0  0  0  0
    0.3119   -0.7512   -0.8416 C   0  0  1  0  0  0  0  0  0  0  0  0
   -0.6195    0.0152    0.1517 C   0  0  2  0  0  0  0  0  0  0  0  0
    1.3353    0.3570   -1.1114 C   0  0  2  0  0  0  0  0  0  0  0  0
    1.6300    0.7420    0.3383 C   0  0  2  0  0  0  0  0  0  0  0  0
    1.0962   -1.9770   -0.3052 C   0  0  1  0  0  0  0  0  0  0  0  0
   -1.4139    1.1256   -0.6623 C   0  0  2  0  0  0  0  0  0  0  0  0
    2.5339   -0.3044    1.0053 C   0  0  1  0  0  0  0  0  0  0  0  0
    1.8943   -1.7104    0.9904 C   0  0  2  0  0  0  0  0  0  0  0  0
    0.7395    1.5306   -1.8375 C   0  0  0  0  0  0  0  0  0  0  0  0
   -1.5591   -0.8293    1.0378 C   0  0  0  0  0  0  0  0  0  0  0  0
   -0.5344    1.8846   -1.6336 C   0  0  0  0  0  0  0  0  0  0  0  0
   -2.1932    2.1229    0.2304 C   0  0  0  0  0  0  0  0  0  0  0  0
    2.9119   -2.8246    1.2625 C   0  0  0  0  0  0  0  0  0  0  0  0
   -2.5762   -1.6234    0.6288 C   0  0  0  0  0  0  0  0  0  0  0  0
   -1.3906   -0.6765    2.5408 C   0  0  0  0  0  0  0  0  0  0  0  0
   -3.6785    2.2485   -0.1476 C   0  0  1  0  0  0  0  0  0  0  0  0
   -3.1091   -1.9111   -0.7569 C   0  0  2  0  0  0  0  0  0  0  0  0
   -4.5026   -1.2627   -1.0106 C   0  0  1  0  0  0  0  0  0  0  0  0
    4.7054    0.6015    0.8089 C   0  0  0  0  0  0  0  0  0  0  0  0
   -4.3980    0.9387    0.1161 C   0  0  0  0  0  0  0  0  0  0  0  0
   -3.1605   -3.4259   -0.9870 C   0  0  0  0  0  0  0  0  0  0  0  0
   -5.6657   -1.7727   -0.1614 C   0  0  0  0  0  0  0  0  0  0  0  0
    5.9662    0.5211    0.0289 C   0  0  0  0  0  0  0  0  0  0  0  0
   -5.4840    3.7209    0.1599 C   0  0  0  0  0  0  0  0  0  0  0  0
   -6.9667   -1.0928   -0.5409 C   0  0  0  0  0  0  0  0  0  0  0  0
    7.1226    1.2508    0.1951 C   0  0  0  0  0  0  0  0  0  0  0  0
    7.4194   -0.1644   -1.5310 C   0  0  0  0  0  0  0  0  0  0  0  0
    8.0421    0.8170   -0.7918 C   0  0  0  0  0  0  0  0  0  0  0  0
   -0.2330   -1.0495   -1.7452 H   0  0  0  0  0  0  0  0  0  0  0  0
    2.2099    0.0048   -1.6683 H   0  0  0  0  0  0  0  0  0  0  0  0
    2.0671    1.7433    0.4242 H   0  0  0  0  0  0  0  0  0  0  0  0
    1.8019   -2.2941   -1.0849 H   0  0  0  0  0  0  0  0  0  0  0  0
   -2.1100    0.6116   -1.3256 H   0  0  0  0  0  0  0  0  0  0  0  0
    2.6633   -0.0469    2.0658 H   0  0  0  0  0  0  0  0  0  0  0  0
    1.1875   -1.7629    1.8220 H   0  0  0  0  0  0  0  0  0  0  0  0
    1.3618    2.0950   -2.5241 H   0  0  0  0  0  0  0  0  0  0  0  0
   -0.9561    2.7216   -2.1818 H   0  0  0  0  0  0  0  0  0  0  0  0
   -2.1310    1.8443    1.2872 H   0  0  0  0  0  0  0  0  0  0  0  0
   -1.7389    3.1226    0.1907 H   0  0  0  0  0  0  0  0  0  0  0  0
    3.6399   -2.9115    0.4492 H   0  0  0  0  0  0  0  0  0  0  0  0
    3.4587   -2.6295    2.1910 H   0  0  0  0  0  0  0  0  0  0  0  0
    2.4102   -3.7924    1.3669 H   0  0  0  0  0  0  0  0  0  0  0  0
   -0.1281   -3.3188   -0.9926 H   0  0  0  0  0  0  0  0  0  0  0  0
   -3.1512   -2.1256    1.4083 H   0  0  0  0  0  0  0  0  0  0  0  0
   -0.4093   -1.0152    2.8743 H   0  0  0  0  0  0  0  0  0  0  0  0
   -2.1304   -1.2518    3.1087 H   0  0  0  0  0  0  0  0  0  0  0  0
   -1.5112    0.3687    2.8406 H   0  0  0  0  0  0  0  0  0  0  0  0
   -3.7802    2.5453   -1.1987 H   0  0  0  0  0  0  0  0  0  0  0  0
   -2.4194   -1.5033   -1.5007 H   0  0  0  0  0  0  0  0  0  0  0  0
   -4.7580   -1.5001   -2.0527 H   0  0  0  0  0  0  0  0  0  0  0  0
   -3.7766   -3.9356   -0.2384 H   0  0  0  0  0  0  0  0  0  0  0  0
   -2.1652   -3.8735   -0.9394 H   0  0  0  0  0  0  0  0  0  0  0  0
   -3.5729   -3.6531   -1.9760 H   0  0  0  0  0  0  0  0  0  0  0  0
   -5.7905   -2.8503   -0.3161 H   0  0  0  0  0  0  0  0  0  0  0  0
   -5.4868   -1.6395    0.9090 H   0  0  0  0  0  0  0  0  0  0  0  0
   -5.8887    4.4610    0.8557 H   0  0  0  0  0  0  0  0  0  0  0  0
   -6.2198    2.9192    0.0460 H   0  0  0  0  0  0  0  0  0  0  0  0
   -5.3110    4.2135   -0.8020 H   0  0  0  0  0  0  0  0  0  0  0  0
   -6.9545   -0.0182   -0.3414 H   0  0  0  0  0  0  0  0  0  0  0  0
   -7.7933   -1.5225    0.0347 H   0  0  0  0  0  0  0  0  0  0  0  0
   -7.1912   -1.2392   -1.6026 H   0  0  0  0  0  0  0  0  0  0  0  0
    5.4749   -0.9942   -1.3722 H   0  0  0  0  0  0  0  0  0  0  0  0
    7.2906    2.0135    0.9430 H   0  0  0  0  0  0  0  0  0  0  0  0
    7.7601   -0.7540   -2.3705 H   0  0  0  0  0  0  0  0  0  0  0  0
    9.0483    1.1799   -0.9476 H   0  0  0  0  0  0  0  0  0  0  0  0
  1 10  1  0  0  0  0
  1 12  1  0  0  0  0
  2 13  1  0  0  0  0
  2 51  1  0  0  0  0
  3 15  1  0  0  0  0
  3 27  1  0  0  0  0
  4 24  1  0  0  0  0
  4 32  1  0  0  0  0
  5 26  1  0  0  0  0
  5 28  1  0  0  0  0
  6 27  2  0  0  0  0
  7 28  2  0  0  0  0
  8 31  1  0  0  0  0
  8 35  1  0  0  0  0
  8 70  1  0  0  0  0
  9 10  1  0  0  0  0
  9 11  1  0  0  0  0
  9 13  1  0  0  0  0
  9 37  1  0  0  0  0
 10 14  1  0  0  0  0
 10 18  1  0  0  0  0
 11 12  1  0  0  0  0
 11 17  1  0  0  0  0
 11 38  1  0  0  0  0
 12 15  1  0  0  0  0
 12 39  1  0  0  0  0
 13 16  1  0  0  0  0
 13 40  1  0  0  0  0
 14 19  1  0  0  0  0
 14 20  1  0  0  0  0
 14 41  1  0  0  0  0
 15 16  1  0  0  0  0
 15 42  1  0  0  0  0
 16 21  1  0  0  0  0
 16 43  1  0  0  0  0
 17 19  2  0  0  0  0
 17 44  1  0  0  0  0
 18 22  2  0  0  0  0
 18 23  1  0  0  0  0
 19 45  1  0  0  0  0
 20 24  1  0  0  0  0
 20 46  1  0  0  0  0
 20 47  1  0  0  0  0
 21 48  1  0  0  0  0
 21 49  1  0  0  0  0
 21 50  1  0  0  0  0
 22 25  1  0  0  0  0
 22 52  1  0  0  0  0
 23 53  1  0  0  0  0
 23 54  1  0  0  0  0
 23 55  1  0  0  0  0
 24 28  1  0  0  0  0
 24 56  1  0  0  0  0
 25 26  1  0  0  0  0
 25 29  1  0  0  0  0
 25 57  1  0  0  0  0
 26 30  1  0  0  0  0
 26 58  1  0  0  0  0
 27 31  1  0  0  0  0
 29 59  1  0  0  0  0
 29 60  1  0  0  0  0
 29 61  1  0  0  0  0
 30 33  1  0  0  0  0
 30 62  1  0  0  0  0
 30 63  1  0  0  0  0
 31 34  2  0  0  0  0
 32 64  1  0  0  0  0
 32 65  1  0  0  0  0
 32 66  1  0  0  0  0
 33 67  1  0  0  0  0
 33 68  1  0  0  0  0
 33 69  1  0  0  0  0
 34 36  1  0  0  0  0
 34 71  1  0  0  0  0
 35 36  2  0  0  0  0
 35 72  1  0  0  0  0
 36 73  1  0  0  0  0
M  END
> <PUBCHEM_COMPOUND_CID>
101284892

> <PUBCHEM_CONFORMER_RMSD>
1

> <PUBCHEM_CONFORMER_DIVERSEORDER>
1
3
2
5
4

> <PUBCHEM_MMFF94_PARTIAL_CHARGES>
37
1 -0.56
10 0.42
11 0.14
12 0.28
13 0.28
14 0.14
15 0.28
17 -0.29
18 -0.28
19 -0.29
2 -0.68
22 -0.29
23 0.14
24 0.34
25 0.14
26 0.28
27 0.81
28 0.66
3 -0.43
31 -0.24
32 0.28
34 -0.15
35 -0.3
36 -0.15
4 -0.56
44 0.15
45 0.15
5 -0.43
51 0.4
52 0.15
6 -0.57
7 -0.57
70 0.27
71 0.15
72 0.15
73 0.15
8 0.03

> <PUBCHEM_EFFECTIVE_ROTOR_COUNT>
6.8

> <PUBCHEM_PHARMACOPHORE_FEATURES>
12
1 1 acceptor
1 2 acceptor
1 2 donor
1 33 hydrophobe
1 4 acceptor
1 6 acceptor
1 7 acceptor
1 8 cation
1 8 donor
5 8 31 34 35 36 rings
8 1 9 10 11 12 13 15 16 rings
8 1 9 10 11 12 14 17 19 rings

> <PUBCHEM_HEAVY_ATOM_COUNT>
36

> <PUBCHEM_ATOM_DEF_STEREO_COUNT>
11

> <PUBCHEM_ATOM_UDEF_STEREO_COUNT>
0

> <PUBCHEM_BOND_DEF_STEREO_COUNT>
1

> <PUBCHEM_BOND_UDEF_STEREO_COUNT>
0

> <PUBCHEM_ISOTOPIC_ATOM_COUNT>
0

> <PUBCHEM_COMPONENT_COUNT>
1

> <PUBCHEM_CACTVS_TAUTO_COUNT>
4

> <PUBCHEM_CONFORMER_ID>
06097C1C00000001

> <PUBCHEM_MMFF94_ENERGY>
106.8549

> <PUBCHEM_FEATURE_SELFOVERLAP>
61.845

> <PUBCHEM_SHAPE_FINGERPRINT>
10906281 52 17604160259103787114
11007060 377 18268153231258728736
11578080 2 18200040520893518865
12788726 201 17531230747939691948
13140716 1 18049159166700912627
13782708 43 18060421356983112446
14068700 675 18265328597996206021
14118638 360 18334570227240032619
14294032 229 18187358810473597716
14394314 77 18411983538596955681
1454969 45 18186519925423244092
14790565 3 18335142050643412212
14840074 17 18186798097691722014
14856354 85 18341053024906403639
15131766 46 13408510857142716518
16087824 20 18410007703712423381
17349148 13 17749105616717862525
17980427 23 17821737134524713908
21033648 29 18343012312236687616
21236236 1 18410011039593386396
21267235 1 18337955705293967999
22393880 68 18201994430639821082
23522609 53 18042138600227061868
23559900 14 18200867491161183640
23569914 2 16983726742582537424
24771293 8 18260550078620884716
2747138 104 18264491861089423051
4173938 77 16733838626514482292
5104073 3 18264759983297530283
5265222 85 18202280337970377982
550186 7 17988075587365993349
563151 97 18336262366823828903
57527293 21 17751350690596944617
57527452 28 17988085611978099751
59755656 215 18343022203298352638
6086070 43 18131063806309235080

> <PUBCHEM_SHAPE_MULTIPOLES>
694.8
16.96
3.32
1.56
22.25
0.21
0.26
4.35
-3.22
-5.05
0
0.5
-0.06
-1.2

> <PUBCHEM_SHAPE_SELFOVERLAP>
1490.513

> <PUBCHEM_SHAPE_VOLUME>
378.5

> <PUBCHEM_COORDINATE_TYPE>
2
5
10

$$$$
