101260436
  -OEChem-03292013293D

 48 49  0     0  0  0  0  0  0999 V2000
    4.2089    1.4735   -1.1061 S   0  0  0  0  0  0  0  0  0  0  0  0
   -0.0036   -3.1783   -0.7953 O   0  0  0  0  0  0  0  0  0  0  0  0
   -3.0814   -0.0734    1.2069 O   0  0  0  0  0  0  0  0  0  0  0  0
    1.9260    1.5035    2.1621 O   0  0  0  0  0  0  0  0  0  0  0  0
    5.2741    1.4998   -2.3411 O   0  0  0  0  0  0  0  0  0  0  0  0
    4.3976    2.6664   -0.3012 O   0  0  0  0  0  0  0  0  0  0  0  0
    2.9038    1.1054   -1.6240 O   0  0  0  0  0  0  0  0  0  0  0  0
    2.8023   -0.3455    0.9801 N   0  0  0  0  0  0  0  0  0  0  0  0
    2.2621   -1.4904    0.2568 C   0  0  0  0  0  0  0  0  0  0  0  0
    0.7932   -1.2828    0.4025 C   0  0  0  0  0  0  0  0  0  0  0  0
    0.5349   -0.1264    1.1398 C   0  0  0  0  0  0  0  0  0  0  0  0
    4.2284   -0.1341    1.1005 C   0  0  0  0  0  0  0  0  0  0  0  0
    1.8180    0.4794    1.5130 C   0  0  0  0  0  0  0  0  0  0  0  0
   -0.2500   -2.0522   -0.0769 C   0  0  0  0  0  0  0  0  0  0  0  0
   -1.5569   -1.6365    0.1991 C   0  0  0  0  0  0  0  0  0  0  0  0
   -0.7454    0.3058    1.4262 C   0  0  0  0  0  0  0  0  0  0  0  0
    4.8895    0.0897   -0.2461 C   0  0  0  0  0  0  0  0  0  0  0  0
   -1.8020   -0.4680    0.9440 C   0  0  0  0  0  0  0  0  0  0  0  0
   -2.7110   -2.4456   -0.3046 C   0  0  0  0  0  0  0  0  0  0  0  0
   -3.4747    1.2075    0.7209 C   0  0  0  0  0  0  0  0  0  0  0  0
    0.1046   -3.0368   -2.2123 C   0  0  0  0  0  0  0  0  0  0  0  0
   -4.9465    1.2078    0.4502 C   0  0  0  0  0  0  0  0  0  0  0  0
   -5.5792    1.4738   -0.7082 C   0  0  0  0  0  0  0  0  0  0  0  0
   -7.0828    1.4274   -0.7810 C   0  0  0  0  0  0  0  0  0  0  0  0
   -4.9100    1.8301   -2.0054 C   0  0  0  0  0  0  0  0  0  0  0  0
    2.5940   -2.4110    0.7451 H   0  0  0  0  0  0  0  0  0  0  0  0
    2.5717   -1.4593   -0.7899 H   0  0  0  0  0  0  0  0  0  0  0  0
    4.6568   -1.0149    1.5907 H   0  0  0  0  0  0  0  0  0  0  0  0
    4.4013    0.7268    1.7556 H   0  0  0  0  0  0  0  0  0  0  0  0
   -0.9159    1.2045    2.0082 H   0  0  0  0  0  0  0  0  0  0  0  0
    4.7926   -0.7848   -0.8966 H   0  0  0  0  0  0  0  0  0  0  0  0
    5.9556    0.2906   -0.0976 H   0  0  0  0  0  0  0  0  0  0  0  0
   -3.0517   -2.0515   -1.2673 H   0  0  0  0  0  0  0  0  0  0  0  0
   -2.4500   -3.5014   -0.4304 H   0  0  0  0  0  0  0  0  0  0  0  0
   -3.5500   -2.4253    0.3992 H   0  0  0  0  0  0  0  0  0  0  0  0
   -3.2671    1.9499    1.5006 H   0  0  0  0  0  0  0  0  0  0  0  0
   -2.8879    1.4819   -0.1602 H   0  0  0  0  0  0  0  0  0  0  0  0
    0.2936   -4.0251   -2.6402 H   0  0  0  0  0  0  0  0  0  0  0  0
    0.9390   -2.3782   -2.4717 H   0  0  0  0  0  0  0  0  0  0  0  0
   -0.8260   -2.6453   -2.6347 H   0  0  0  0  0  0  0  0  0  0  0  0
    5.1965    0.7560   -2.9839 H   0  0  0  0  0  0  0  0  0  0  0  0
   -5.5568    0.9653    1.3197 H   0  0  0  0  0  0  0  0  0  0  0  0
   -7.4037    0.6804   -1.5146 H   0  0  0  0  0  0  0  0  0  0  0  0
   -3.8201    1.8379   -1.9551 H   0  0  0  0  0  0  0  0  0  0  0  0
   -5.2293    2.8262   -2.3301 H   0  0  0  0  0  0  0  0  0  0  0  0
   -5.1915    1.1102   -2.7815 H   0  0  0  0  0  0  0  0  0  0  0  0
   -7.5403    1.1668    0.1792 H   0  0  0  0  0  0  0  0  0  0  0  0
   -7.4777    2.4032   -1.0824 H   0  0  0  0  0  0  0  0  0  0  0  0
  1  5  1  0  0  0  0
  1  6  2  0  0  0  0
  1  7  2  0  0  0  0
  1 17  1  0  0  0  0
  2 14  1  0  0  0  0
  2 21  1  0  0  0  0
  3 18  1  0  0  0  0
  3 20  1  0  0  0  0
  4 13  2  0  0  0  0
  5 41  1  0  0  0  0
  8  9  1  0  0  0  0
  8 12  1  0  0  0  0
  8 13  1  0  0  0  0
  9 10  1  0  0  0  0
  9 26  1  0  0  0  0
  9 27  1  0  0  0  0
 10 11  1  0  0  0  0
 10 14  2  0  0  0  0
 11 13  1  0  0  0  0
 11 16  2  0  0  0  0
 12 17  1  0  0  0  0
 12 28  1  0  0  0  0
 12 29  1  0  0  0  0
 14 15  1  0  0  0  0
 15 18  2  0  0  0  0
 15 19  1  0  0  0  0
 16 18  1  0  0  0  0
 16 30  1  0  0  0  0
 17 31  1  0  0  0  0
 17 32  1  0  0  0  0
 19 33  1  0  0  0  0
 19 34  1  0  0  0  0
 19 35  1  0  0  0  0
 20 22  1  0  0  0  0
 20 36  1  0  0  0  0
 20 37  1  0  0  0  0
 21 38  1  0  0  0  0
 21 39  1  0  0  0  0
 21 40  1  0  0  0  0
 22 23  2  0  0  0  0
 22 42  1  0  0  0  0
 23 24  1  0  0  0  0
 23 25  1  0  0  0  0
 24 43  1  0  0  0  0
 24 47  1  0  0  0  0
 24 48  1  0  0  0  0
 25 44  1  0  0  0  0
 25 45  1  0  0  0  0
 25 46  1  0  0  0  0
M  END
> <PUBCHEM_COMPOUND_CID>
101260436

> <PUBCHEM_CONFORMER_RMSD>
1

> <PUBCHEM_CONFORMER_DIVERSEORDER>
1
8
104
112
106
62
61
118
83
108
68
86
95
16
109
72
53
9
58
45
84
37
111
32
110
69
77
92
89
76
98
114
80
60
79
88
11
10
51
101
71
103
55
22
116
44
49
19
99
81
64
50
20
28
66
3
57
59
119
85
31
63
102
15
47
21
30
107
4
46
6
113
13
40
78
25
97
48
96
105
90
65
87
91
93
117
54
23
29
24
94
100
52
70
67
75
82
56
26
35
14
42
41
43
18
73
74
33
7
115
36
5
2
27
12
34
17
38
39

> <PUBCHEM_MMFF94_PARTIAL_CHARGES>
28
1 1.38
10 -0.14
11 0.09
12 0.3
13 0.54
14 0.08
15 -0.14
16 -0.15
17 0.11
18 0.08
19 0.14
2 -0.36
20 0.42
21 0.28
22 -0.29
23 -0.28
24 0.14
25 0.14
3 -0.36
30 0.15
4 -0.57
41 0.5
42 0.15
5 -0.68
6 -0.65
7 -0.65
8 -0.66
9 0.44

> <PUBCHEM_EFFECTIVE_ROTOR_COUNT>
7.4

> <PUBCHEM_PHARMACOPHORE_FEATURES>
10
1 2 acceptor
1 3 acceptor
1 4 acceptor
1 5 acceptor
1 6 acceptor
1 7 acceptor
3 23 24 25 hydrophobe
4 1 5 6 7 anion
5 8 9 10 11 13 rings
6 10 11 14 15 16 18 rings

> <PUBCHEM_HEAVY_ATOM_COUNT>
25

> <PUBCHEM_ATOM_DEF_STEREO_COUNT>
0

> <PUBCHEM_ATOM_UDEF_STEREO_COUNT>
0

> <PUBCHEM_BOND_DEF_STEREO_COUNT>
0

> <PUBCHEM_BOND_UDEF_STEREO_COUNT>
0

> <PUBCHEM_ISOTOPIC_ATOM_COUNT>
0

> <PUBCHEM_COMPONENT_COUNT>
1

> <PUBCHEM_CACTVS_TAUTO_COUNT>
3

> <PUBCHEM_CONFORMER_ID>
06091C9400000001

> <PUBCHEM_MMFF94_ENERGY>
68.2936

> <PUBCHEM_FEATURE_SELFOVERLAP>
50.89

> <PUBCHEM_SHAPE_FINGERPRINT>
10498660 4 18341336672883254192
105312 117 18412826902036519727
10591671 39 18409733997740401899
10693767 8 16916500324910361703
11578080 2 18196914777599755432
11796584 16 12751242463221216025
11961588 58 18342177803499551885
11991303 11 18409447016510785607
12596602 18 16298108679381099425
12633257 1 14563098112278338700
12730499 353 18272365331508551451
13103583 49 8502082037568947893
13257819 101 18041832914249931359
13540713 4 17701247268685236122
13583140 156 17748831787331338457
13836976 161 18271518698363706019
14251751 18 12967129398028925381
14251764 30 12894486920288325373
14251764 38 17825381887059954149
15163728 17 18335710424866085751
15420108 30 13481144542515282642
15475509 35 10807636888457107973
15961568 22 17749392529693383093
16752209 62 18058723740356255362
19784866 240 13182745835690564681
20511986 3 18340767156979735512
20642791 268 14562823144314231523
21069387 34 13254808948914182546
21344244 181 16200428096391728311
21344244 246 17559959818400307646
21475661 188 17095251349105758604
21521239 73 16916777449317023711
21756936 100 17531816895127387272
23559900 14 17488202525145488292
2838139 119 18113890546800477853
3060560 45 17989197114594636818
316301 35 10878831391853624901
33382 64 12679459789865649829
3472631 163 17676487225074749777
392239 28 14562808910370340309
57527295 17 15768952168330838282
633830 44 17530965817393011034
7237137 82 18270115842207812687

> <PUBCHEM_SHAPE_MULTIPOLES>
478.14
12.76
3
1.96
11.77
1.79
-0.66
-12.07
-5.43
-0.02
-1.72
-0.96
-0.44
-0.22

> <PUBCHEM_SHAPE_SELFOVERLAP>
986.685

> <PUBCHEM_SHAPE_VOLUME>
277.6

> <PUBCHEM_COORDINATE_TYPE>
2
5
10

$$$$
