101207520
  -OEChem-03292013293D

 60 60  0     1  0  0  0  0  0999 V2000
   -3.0081   -1.8756   -1.6091 O   0  0  0  0  0  0  0  0  0  0  0  0
    0.0500   -2.3145   -2.1650 O   0  0  0  0  0  0  0  0  0  0  0  0
    0.5238   -0.0043    2.0763 O   0  0  0  0  0  0  0  0  0  0  0  0
    1.4222   -3.1526    0.8613 O   0  0  0  0  0  0  0  0  0  0  0  0
    4.5253    0.1278    0.4426 O   0  0  0  0  0  0  0  0  0  0  0  0
   -1.1091    0.2241    3.6945 O   0  0  0  0  0  0  0  0  0  0  0  0
    3.8402    2.7979   -1.2510 O   0  0  0  0  0  0  0  0  0  0  0  0
   -1.8357   -1.0894   -1.3418 C   0  0  1  0  0  0  0  0  0  0  0  0
   -3.0283   -1.0999   -0.4033 C   0  0  1  0  0  0  0  0  0  0  0  0
   -0.6298   -1.9068   -0.9792 C   0  0  2  0  0  0  0  0  0  0  0  0
   -4.0553   -0.0251   -0.3714 C   0  0  1  0  0  0  0  0  0  0  0  0
   -1.6171    0.0283   -2.3118 C   0  0  0  0  0  0  0  0  0  0  0  0
    0.3408   -1.1763   -0.0290 C   0  0  1  0  0  0  0  0  0  0  0  0
   -5.4686   -0.5895   -0.2706 C   0  0  0  0  0  0  0  0  0  0  0  0
   -3.7760    0.9691    0.7522 C   0  0  0  0  0  0  0  0  0  0  0  0
   -0.3676   -0.7650    1.2693 C   0  0  0  0  0  0  0  0  0  0  0  0
    1.5510   -2.0558    0.3162 C   0  0  0  0  0  0  0  0  0  0  0  0
   -3.5519    2.2790    0.5708 C   0  0  0  0  0  0  0  0  0  0  0  0
    2.9136   -1.5609   -0.0564 C   0  0  0  0  0  0  0  0  0  0  0  0
    3.1942   -0.0819   -0.0390 C   0  0  2  0  0  0  0  0  0  0  0  0
   -3.5458    2.9437   -0.7657 C   0  0  0  0  0  0  0  0  0  0  0  0
    3.8252   -2.5058   -0.3317 C   0  0  0  0  0  0  0  0  0  0  0  0
    3.0634    0.5405   -1.4312 C   0  0  0  0  0  0  0  0  0  0  0  0
    0.0201    0.4302    3.2705 C   0  0  0  0  0  0  0  0  0  0  0  0
    2.8713    2.0437   -1.3356 C   0  0  0  0  0  0  0  0  0  0  0  0
    1.0638    1.2127    4.0084 C   0  0  0  0  0  0  0  0  0  0  0  0
    1.4374    2.5461   -1.3175 C   0  0  0  0  0  0  0  0  0  0  0  0
    1.3510    4.0603   -1.2527 C   0  0  0  0  0  0  0  0  0  0  0  0
   -2.9815   -1.6647    0.5204 H   0  0  0  0  0  0  0  0  0  0  0  0
   -0.9554   -2.8373   -0.4963 H   0  0  0  0  0  0  0  0  0  0  0  0
   -4.0410    0.4946   -1.3306 H   0  0  0  0  0  0  0  0  0  0  0  0
   -0.9336   -0.2504   -3.1191 H   0  0  0  0  0  0  0  0  0  0  0  0
   -1.1926    0.8938   -1.7957 H   0  0  0  0  0  0  0  0  0  0  0  0
   -2.5415    0.3457   -2.8035 H   0  0  0  0  0  0  0  0  0  0  0  0
    0.6836   -0.2691   -0.5248 H   0  0  0  0  0  0  0  0  0  0  0  0
   -5.6003   -1.1692    0.6504 H   0  0  0  0  0  0  0  0  0  0  0  0
   -5.6854   -1.2579   -1.1112 H   0  0  0  0  0  0  0  0  0  0  0  0
   -6.2163    0.2113   -0.2761 H   0  0  0  0  0  0  0  0  0  0  0  0
   -3.7565    0.5759    1.7663 H   0  0  0  0  0  0  0  0  0  0  0  0
   -1.2141   -0.1151    1.0519 H   0  0  0  0  0  0  0  0  0  0  0  0
   -0.7076   -1.6457    1.8270 H   0  0  0  0  0  0  0  0  0  0  0  0
    0.6311   -1.5900   -2.4509 H   0  0  0  0  0  0  0  0  0  0  0  0
   -3.3427    2.8984    1.4386 H   0  0  0  0  0  0  0  0  0  0  0  0
    2.5441    0.4310    0.6741 H   0  0  0  0  0  0  0  0  0  0  0  0
   -2.5568    2.8756   -1.2269 H   0  0  0  0  0  0  0  0  0  0  0  0
   -3.7739    4.0074   -0.6337 H   0  0  0  0  0  0  0  0  0  0  0  0
   -4.3046    2.5543   -1.4489 H   0  0  0  0  0  0  0  0  0  0  0  0
    4.8436   -2.2400   -0.5968 H   0  0  0  0  0  0  0  0  0  0  0  0
    3.5928   -3.5657   -0.3226 H   0  0  0  0  0  0  0  0  0  0  0  0
    2.2305    0.1283   -2.0097 H   0  0  0  0  0  0  0  0  0  0  0  0
    3.9711    0.3689   -2.0238 H   0  0  0  0  0  0  0  0  0  0  0  0
    4.5645   -0.2053    1.3558 H   0  0  0  0  0  0  0  0  0  0  0  0
    1.9285    0.5761    4.2119 H   0  0  0  0  0  0  0  0  0  0  0  0
    0.6526    1.5585    4.9611 H   0  0  0  0  0  0  0  0  0  0  0  0
    1.3580    2.0845    3.4186 H   0  0  0  0  0  0  0  0  0  0  0  0
    0.9315    2.1171   -0.4472 H   0  0  0  0  0  0  0  0  0  0  0  0
    0.9407    2.1930   -2.2268 H   0  0  0  0  0  0  0  0  0  0  0  0
    0.3049    4.3819   -1.2481 H   0  0  0  0  0  0  0  0  0  0  0  0
    1.8304    4.4430   -0.3456 H   0  0  0  0  0  0  0  0  0  0  0  0
    1.8472    4.5200   -2.1138 H   0  0  0  0  0  0  0  0  0  0  0  0
  1  8  1  0  0  0  0
  1  9  1  0  0  0  0
  2 10  1  0  0  0  0
  2 42  1  0  0  0  0
  3 16  1  0  0  0  0
  3 24  1  0  0  0  0
  4 17  2  0  0  0  0
  5 20  1  0  0  0  0
  5 52  1  0  0  0  0
  6 24  2  0  0  0  0
  7 25  2  0  0  0  0
  8  9  1  0  0  0  0
  8 10  1  0  0  0  0
  8 12  1  0  0  0  0
  9 11  1  0  0  0  0
  9 29  1  0  0  0  0
 10 13  1  0  0  0  0
 10 30  1  0  0  0  0
 11 14  1  0  0  0  0
 11 15  1  0  0  0  0
 11 31  1  0  0  0  0
 12 32  1  0  0  0  0
 12 33  1  0  0  0  0
 12 34  1  0  0  0  0
 13 16  1  0  0  0  0
 13 17  1  0  0  0  0
 13 35  1  0  0  0  0
 14 36  1  0  0  0  0
 14 37  1  0  0  0  0
 14 38  1  0  0  0  0
 15 18  2  0  0  0  0
 15 39  1  0  0  0  0
 16 40  1  0  0  0  0
 16 41  1  0  0  0  0
 17 19  1  0  0  0  0
 18 21  1  0  0  0  0
 18 43  1  0  0  0  0
 19 20  1  0  0  0  0
 19 22  2  0  0  0  0
 20 23  1  0  0  0  0
 20 44  1  0  0  0  0
 21 45  1  0  0  0  0
 21 46  1  0  0  0  0
 21 47  1  0  0  0  0
 22 48  1  0  0  0  0
 22 49  1  0  0  0  0
 23 25  1  0  0  0  0
 23 50  1  0  0  0  0
 23 51  1  0  0  0  0
 24 26  1  0  0  0  0
 25 27  1  0  0  0  0
 26 53  1  0  0  0  0
 26 54  1  0  0  0  0
 26 55  1  0  0  0  0
 27 28  1  0  0  0  0
 27 56  1  0  0  0  0
 27 57  1  0  0  0  0
 28 58  1  0  0  0  0
 28 59  1  0  0  0  0
 28 60  1  0  0  0  0
M  END
> <PUBCHEM_COMPOUND_CID>
101207520

> <PUBCHEM_CONFORMER_RMSD>
1.2

> <PUBCHEM_CONFORMER_DIVERSEORDER>
1
9
45
31
25
67
39
66
61
32
64
51
56
6
52
15
17
11
22
19
28
57
23
50
53
68
44
55
43
14
49
13
63
62
41
21
36
7
60
59
27
54
34
35
29
48
30
12
46
37
4
24
3
47
42
58
38
33
10
18
26
40
8
5
16
20
65
2

> <PUBCHEM_MMFF94_PARTIAL_CHARGES>
33
1 -0.3
10 0.38
11 0.23
12 0.09
13 0.06
15 -0.29
16 0.28
17 0.49
18 -0.29
19 -0.12
2 -0.68
20 0.42
21 0.14
22 -0.3
23 0.06
24 0.66
25 0.45
26 0.06
27 0.06
29 0.1
3 -0.43
39 0.15
4 -0.57
42 0.4
43 0.15
48 0.15
49 0.15
5 -0.68
52 0.4
6 -0.57
7 -0.57
8 -0.04
9 -0.05

> <PUBCHEM_EFFECTIVE_ROTOR_COUNT>
13.6

> <PUBCHEM_PHARMACOPHORE_FEATURES>
12
1 1 acceptor
1 14 hydrophobe
1 2 acceptor
1 2 donor
1 21 hydrophobe
1 22 hydrophobe
1 28 hydrophobe
1 4 acceptor
1 5 acceptor
1 5 donor
1 6 acceptor
1 7 acceptor

> <PUBCHEM_HEAVY_ATOM_COUNT>
28

> <PUBCHEM_ATOM_DEF_STEREO_COUNT>
5

> <PUBCHEM_ATOM_UDEF_STEREO_COUNT>
1

> <PUBCHEM_BOND_DEF_STEREO_COUNT>
1

> <PUBCHEM_BOND_UDEF_STEREO_COUNT>
0

> <PUBCHEM_ISOTOPIC_ATOM_COUNT>
0

> <PUBCHEM_COMPONENT_COUNT>
1

> <PUBCHEM_CACTVS_TAUTO_COUNT>
12

> <PUBCHEM_CONFORMER_ID>
06084DE000000001

> <PUBCHEM_MMFF94_ENERGY>
46.463

> <PUBCHEM_FEATURE_SELFOVERLAP>
60.901

> <PUBCHEM_SHAPE_FINGERPRINT>
10366900 7 17313397681508273959
11578080 2 17914020210585585712
12166972 35 18201723911977248998
12293681 4 17606700019067999040
12422481 6 18050261706080140338
12467345 10 18340771450913004821
12539773 59 15680326376907833725
12633257 1 15647900499399643740
12788726 201 16773806874410287714
13583140 156 17825686460470307683
14957384 54 17680703723424052629
19930381 70 17758688032647969389
23419403 2 16472823177199828066
474 4 18261110806957245038
81228 2 14577085794222107298
9981440 41 17469604478244201228

> <PUBCHEM_SHAPE_MULTIPOLES>
535.14
8.06
3.83
3.11
4.3
2.78
-4.39
1.1
2.11
-2.07
1.93
-0.19
0.71
-1.42

> <PUBCHEM_SHAPE_SELFOVERLAP>
1061.304

> <PUBCHEM_SHAPE_VOLUME>
316.5

> <PUBCHEM_COORDINATE_TYPE>
2
5
10

$$$$
