101235519
  -OEChem-03292013293D

 52 56  0     1  0  0  0  0  0999 V2000
    4.8982   -1.6860   -0.4840 S   0  0  1  0  0  0  0  0  0  0  0  0
    0.8468   -0.7387   -0.8481 O   0  0  0  0  0  0  0  0  0  0  0  0
   -2.1971   -2.0378    0.8122 O   0  0  0  0  0  0  0  0  0  0  0  0
    2.3614    1.8367    0.2496 O   0  0  0  0  0  0  0  0  0  0  0  0
    2.4511   -1.4319    1.8495 O   0  0  0  0  0  0  0  0  0  0  0  0
   -4.4467   -2.0733    1.2773 O   0  0  0  0  0  0  0  0  0  0  0  0
    2.0391    3.8452   -0.7494 O   0  0  0  0  0  0  0  0  0  0  0  0
    5.8643   -0.6273   -0.9115 O   0  0  0  0  0  0  0  0  0  0  0  0
    0.5710    0.2337    0.1725 C   0  0  2  0  0  0  0  0  0  0  0  0
    0.0077   -1.1790    0.2324 C   0  0  1  0  0  0  0  0  0  0  0  0
   -2.1497   -0.2813   -0.7189 C   0  0  1  0  0  0  0  0  0  0  0  0
   -1.8647    1.0214    0.1138 C   0  0  1  0  0  0  0  0  0  0  0  0
   -1.3748   -1.4964   -0.2352 C   0  0  2  0  0  0  0  0  0  0  0  0
   -0.3732    1.3538   -0.0421 C   0  0  0  0  0  0  0  0  0  0  0  0
   -3.6006   -0.7763   -0.6238 C   0  0  1  0  0  0  0  0  0  0  0  0
    1.8000    0.6708    0.9214 C   0  0  1  0  0  0  0  0  0  0  0  0
   -2.8424    2.1055   -0.4231 C   0  0  0  0  0  0  0  0  0  0  0  0
   -2.1007    0.8998    1.6492 C   0  0  0  0  0  0  0  0  0  0  0  0
   -3.5116   -1.6848    0.5940 C   0  0  0  0  0  0  0  0  0  0  0  0
    2.9186   -0.3573    1.0257 C   0  0  2  0  0  0  0  0  0  0  0  0
   -4.6053    0.3325   -0.4614 C   0  0  0  0  0  0  0  0  0  0  0  0
    0.1119    2.5845   -0.2745 C   0  0  0  0  0  0  0  0  0  0  0  0
   -3.9991   -1.6350   -1.8353 C   0  0  0  0  0  0  0  0  0  0  0  0
   -4.2698    1.6307   -0.4212 C   0  0  0  0  0  0  0  0  0  0  0  0
    1.5727    2.8094   -0.2862 C   0  0  0  0  0  0  0  0  0  0  0  0
    3.2576   -0.8966   -0.3757 C   0  0  0  0  0  0  0  0  0  0  0  0
    4.1311    0.2690    1.7265 C   0  0  0  0  0  0  0  0  0  0  0  0
    4.5042   -2.6915   -1.9337 C   0  0  0  0  0  0  0  0  0  0  0  0
    0.4009   -1.9326    0.8938 H   0  0  0  0  0  0  0  0  0  0  0  0
   -1.8791   -0.0713   -1.7648 H   0  0  0  0  0  0  0  0  0  0  0  0
   -1.3034   -2.2662   -1.0133 H   0  0  0  0  0  0  0  0  0  0  0  0
    1.5021    0.9847    1.9317 H   0  0  0  0  0  0  0  0  0  0  0  0
   -2.5800    2.4034   -1.4462 H   0  0  0  0  0  0  0  0  0  0  0  0
   -2.7814    3.0080    0.1983 H   0  0  0  0  0  0  0  0  0  0  0  0
   -1.4664    0.1421    2.1203 H   0  0  0  0  0  0  0  0  0  0  0  0
   -1.8708    1.8505    2.1480 H   0  0  0  0  0  0  0  0  0  0  0  0
   -3.1361    0.6596    1.9063 H   0  0  0  0  0  0  0  0  0  0  0  0
   -5.6590    0.0675   -0.4219 H   0  0  0  0  0  0  0  0  0  0  0  0
   -0.5184    3.4490   -0.4407 H   0  0  0  0  0  0  0  0  0  0  0  0
   -3.3566   -2.5141   -1.9536 H   0  0  0  0  0  0  0  0  0  0  0  0
   -3.9481   -1.0557   -2.7645 H   0  0  0  0  0  0  0  0  0  0  0  0
   -5.0240   -2.0125   -1.7324 H   0  0  0  0  0  0  0  0  0  0  0  0
   -5.0519    2.3815   -0.3586 H   0  0  0  0  0  0  0  0  0  0  0  0
    3.2309   -0.1382   -1.1640 H   0  0  0  0  0  0  0  0  0  0  0  0
    2.6247   -1.7537   -0.6082 H   0  0  0  0  0  0  0  0  0  0  0  0
    4.8580   -0.4852    2.0475 H   0  0  0  0  0  0  0  0  0  0  0  0
    3.8185    0.7686    2.6520 H   0  0  0  0  0  0  0  0  0  0  0  0
    4.6403    1.0106    1.1026 H   0  0  0  0  0  0  0  0  0  0  0  0
    3.1554   -2.1001    1.9002 H   0  0  0  0  0  0  0  0  0  0  0  0
    5.4145   -3.2014   -2.2585 H   0  0  0  0  0  0  0  0  0  0  0  0
    4.1396   -2.0550   -2.7436 H   0  0  0  0  0  0  0  0  0  0  0  0
    3.7518   -3.4397   -1.6731 H   0  0  0  0  0  0  0  0  0  0  0  0
  1  8  2  0  0  0  0
  1 26  1  0  0  0  0
  1 28  1  0  0  0  0
  2  9  1  0  0  0  0
  2 10  1  0  0  0  0
  3 13  1  0  0  0  0
  3 19  1  0  0  0  0
  4 16  1  0  0  0  0
  4 25  1  0  0  0  0
  5 20  1  0  0  0  0
  5 49  1  0  0  0  0
  6 19  2  0  0  0  0
  7 25  2  0  0  0  0
  9 10  1  0  0  0  0
  9 14  1  0  0  0  0
  9 16  1  0  0  0  0
 10 13  1  0  0  0  0
 10 29  1  0  0  0  0
 11 12  1  0  0  0  0
 11 13  1  0  0  0  0
 11 15  1  0  0  0  0
 11 30  1  0  0  0  0
 12 14  1  0  0  0  0
 12 17  1  0  0  0  0
 12 18  1  0  0  0  0
 13 31  1  0  0  0  0
 14 22  2  0  0  0  0
 15 19  1  0  0  0  0
 15 21  1  0  0  0  0
 15 23  1  0  0  0  0
 16 20  1  0  0  0  0
 16 32  1  0  0  0  0
 17 24  1  0  0  0  0
 17 33  1  0  0  0  0
 17 34  1  0  0  0  0
 18 35  1  0  0  0  0
 18 36  1  0  0  0  0
 18 37  1  0  0  0  0
 20 26  1  0  0  0  0
 20 27  1  0  0  0  0
 21 24  2  0  0  0  0
 21 38  1  0  0  0  0
 22 25  1  0  0  0  0
 22 39  1  0  0  0  0
 23 40  1  0  0  0  0
 23 41  1  0  0  0  0
 23 42  1  0  0  0  0
 24 43  1  0  0  0  0
 26 44  1  0  0  0  0
 26 45  1  0  0  0  0
 27 46  1  0  0  0  0
 27 47  1  0  0  0  0
 27 48  1  0  0  0  0
 28 50  1  0  0  0  0
 28 51  1  0  0  0  0
 28 52  1  0  0  0  0
M  END
> <PUBCHEM_COMPOUND_CID>
101235519

> <PUBCHEM_CONFORMER_RMSD>
0.8

> <PUBCHEM_CONFORMER_DIVERSEORDER>
1
4
2
5
3

> <PUBCHEM_MMFF94_PARTIAL_CHARGES>
29
1 0.11
10 -0.05
12 0.14
13 0.38
14 -0.18
15 0.2
16 0.38
17 0.14
19 0.66
2 -0.3
20 0.28
21 -0.29
22 -0.14
24 -0.29
25 0.71
26 0.19
28 0.19
29 0.1
3 -0.43
38 0.15
39 0.15
4 -0.43
43 0.15
49 0.4
5 -0.68
6 -0.57
7 -0.57
8 -0.5
9 0.09

> <PUBCHEM_EFFECTIVE_ROTOR_COUNT>
4

> <PUBCHEM_PHARMACOPHORE_FEATURES>
10
1 2 acceptor
1 5 acceptor
1 5 donor
1 6 acceptor
1 7 acceptor
1 8 acceptor
5 3 11 13 15 19 rings
6 11 12 15 17 21 24 rings
6 4 9 14 16 22 25 rings
7 2 9 10 11 12 13 14 rings

> <PUBCHEM_HEAVY_ATOM_COUNT>
28

> <PUBCHEM_ATOM_DEF_STEREO_COUNT>
8

> <PUBCHEM_ATOM_UDEF_STEREO_COUNT>
1

> <PUBCHEM_BOND_DEF_STEREO_COUNT>
0

> <PUBCHEM_BOND_UDEF_STEREO_COUNT>
0

> <PUBCHEM_ISOTOPIC_ATOM_COUNT>
0

> <PUBCHEM_COMPONENT_COUNT>
1

> <PUBCHEM_CACTVS_TAUTO_COUNT>
1

> <PUBCHEM_CONFORMER_ID>
0608BB3F00000001

> <PUBCHEM_MMFF94_ENERGY>
95.3201

> <PUBCHEM_FEATURE_SELFOVERLAP>
50.991

> <PUBCHEM_SHAPE_FINGERPRINT>
10863032 1 18042960068387632625
1100329 8 18337954498313595665
11135609 12 18341626918446771459
11578080 2 13181924444611993440
12011746 2 18338793395182539085
12422481 6 18269856297555434715
12553582 1 18261387798014290608
12788726 201 18046622305132991368
13009979 54 18130802152010639296
13140716 1 18408881854532843985
13224815 77 18059009622285364065
13544653 18 18060698394725355938
13583140 156 17677591190415112043
13782708 43 17774161189899586854
14022347 108 18263076626710850480
14223421 5 18118405278914137393
14790565 3 17331407471713493648
14955137 171 18193580911587275033
15420108 30 17193486940949238865
15475509 8 18126295146653524861
15664445 248 18408603656984931844
16945 1 18334570248914913235
17349148 13 18201430376927238173
17492 89 18267862959593331791
1813 80 18411703171235796062
18222031 100 18341884204109609534
20871999 31 18333736788793805286
21033648 29 17774422928472443618
21267235 1 18411420618354318703
21285901 2 17914056400364689278
221490 88 18335706095227697560
22182313 1 18269537417365975996
23366157 5 17823131388341673900
23557571 272 18268420253538638608
23559900 14 18413384332593040036
312423 11 18337116773357852317
335352 9 18410291372678736293
350125 39 18336837471650482673
404807 14 15404448485824160111
4280585 95 18336542712751070366
5104073 3 18411128143401984992
6669772 16 17908435993577682108
6823239 73 18411697691000022848
70251023 43 18270954765100618591
9709674 26 18338510949643309687
9981440 41 17395847026313181920

> <PUBCHEM_SHAPE_MULTIPOLES>
538.99
10.09
3.21
1.46
5.1
1.73
0.21
-5.37
-1.86
0.67
-0.96
0.56
-0.6
1.04

> <PUBCHEM_SHAPE_SELFOVERLAP>
1173.645

> <PUBCHEM_SHAPE_VOLUME>
298.1

> <PUBCHEM_COORDINATE_TYPE>
2
5
10

$$$$
