101207200
  -OEChem-03292013293D

 55 57  0     1  0  0  0  0  0999 V2000
   -0.8104    0.4494   -0.3711 O   0  0  0  0  0  0  0  0  0  0  0  0
    0.9257   -2.1007    0.0460 O   0  0  0  0  0  0  0  0  0  0  0  0
    0.3305   -0.3339    1.9991 O   0  0  0  0  0  0  0  0  0  0  0  0
    1.3406    1.3510   -2.3513 O   0  0  0  0  0  0  0  0  0  0  0  0
    1.1532    3.1901    0.5273 O   0  0  0  0  0  0  0  0  0  0  0  0
    3.1284   -2.4313    1.6270 O   0  0  0  0  0  0  0  0  0  0  0  0
   -3.3199    0.8912   -1.7321 O   0  0  0  0  0  0  0  0  0  0  0  0
   -3.4368    0.3699    1.8872 O   0  0  0  0  0  0  0  0  0  0  0  0
   -7.9256   -0.6570   -0.0156 O   0  0  0  0  0  0  0  0  0  0  0  0
    2.1141   -0.4490   -1.0684 N   0  0  0  0  0  0  0  0  0  0  0  0
    0.5025    0.9409   -0.0953 C   0  0  1  0  0  0  0  0  0  0  0  0
    1.2162    0.1280    0.9948 C   0  0  2  0  0  0  0  0  0  0  0  0
    1.8300   -1.0312    0.2161 C   0  0  1  0  0  0  0  0  0  0  0  0
    1.3507    0.6881   -1.3253 C   0  0  0  0  0  0  0  0  0  0  0  0
    0.2824    2.3774    0.2608 C   0  0  0  0  0  0  0  0  0  0  0  0
   -1.6783    1.5173   -0.1439 C   0  0  0  0  0  0  0  0  0  0  0  0
   -1.1470    2.6842    0.2282 C   0  0  0  0  0  0  0  0  0  0  0  0
    3.1185   -1.5340    0.7876 C   0  0  0  0  0  0  0  0  0  0  0  0
   -3.1203    1.2091   -0.3544 C   0  0  2  0  0  0  0  0  0  0  0  0
   -1.7168    4.0092    0.5459 C   0  0  0  0  0  0  0  0  0  0  0  0
    4.4005   -0.9317    0.3242 C   0  0  0  0  0  0  0  0  0  0  0  0
   -3.6806    0.0639    0.5139 C   0  0  2  0  0  0  0  0  0  0  0  0
    1.4374   -3.0959   -0.8366 C   0  0  0  0  0  0  0  0  0  0  0  0
    4.6351    0.4319    0.5011 C   0  0  0  0  0  0  0  0  0  0  0  0
    5.3664   -1.7322   -0.2853 C   0  0  0  0  0  0  0  0  0  0  0  0
   -5.1548   -0.1853    0.3182 C   0  0  0  0  0  0  0  0  0  0  0  0
    5.8358    0.9950    0.0686 C   0  0  0  0  0  0  0  0  0  0  0  0
    6.5671   -1.1692   -0.7177 C   0  0  0  0  0  0  0  0  0  0  0  0
    6.8017    0.1944   -0.5409 C   0  0  0  0  0  0  0  0  0  0  0  0
   -5.6517   -1.3663   -0.0736 C   0  0  0  0  0  0  0  0  0  0  0  0
   -7.1184   -1.5546   -0.2455 C   0  0  0  0  0  0  0  0  0  0  0  0
   -7.5761   -2.9190   -0.6890 C   0  0  0  0  0  0  0  0  0  0  0  0
    1.9657    0.7479    1.4914 H   0  0  0  0  0  0  0  0  0  0  0  0
    2.7432   -0.8477   -1.7596 H   0  0  0  0  0  0  0  0  0  0  0  0
   -3.7174    2.1066   -0.1587 H   0  0  0  0  0  0  0  0  0  0  0  0
    0.8400   -0.9076    2.5965 H   0  0  0  0  0  0  0  0  0  0  0  0
   -1.4613    4.2969    1.5707 H   0  0  0  0  0  0  0  0  0  0  0  0
   -2.8061    4.0270    0.4581 H   0  0  0  0  0  0  0  0  0  0  0  0
   -1.3160    4.7687   -0.1330 H   0  0  0  0  0  0  0  0  0  0  0  0
   -3.1244   -0.8555    0.2876 H   0  0  0  0  0  0  0  0  0  0  0  0
    0.7174   -3.9206   -0.8394 H   0  0  0  0  0  0  0  0  0  0  0  0
    2.3964   -3.5135   -0.5206 H   0  0  0  0  0  0  0  0  0  0  0  0
    1.4982   -2.7296   -1.8658 H   0  0  0  0  0  0  0  0  0  0  0  0
   -2.8472    0.0618   -1.9196 H   0  0  0  0  0  0  0  0  0  0  0  0
    3.9198    1.0827    0.9877 H   0  0  0  0  0  0  0  0  0  0  0  0
    5.1934   -2.7954   -0.4298 H   0  0  0  0  0  0  0  0  0  0  0  0
   -5.8170    0.6525    0.5219 H   0  0  0  0  0  0  0  0  0  0  0  0
   -3.7602   -0.3776    2.4190 H   0  0  0  0  0  0  0  0  0  0  0  0
    6.0207    2.0558    0.2102 H   0  0  0  0  0  0  0  0  0  0  0  0
    7.3192   -1.7925   -1.1925 H   0  0  0  0  0  0  0  0  0  0  0  0
    7.7370    0.6325   -0.8769 H   0  0  0  0  0  0  0  0  0  0  0  0
   -5.0046   -2.2126   -0.2754 H   0  0  0  0  0  0  0  0  0  0  0  0
   -7.9336   -3.4800    0.1781 H   0  0  0  0  0  0  0  0  0  0  0  0
   -8.3830   -2.8068   -1.4188 H   0  0  0  0  0  0  0  0  0  0  0  0
   -6.7651   -3.4725   -1.1699 H   0  0  0  0  0  0  0  0  0  0  0  0
  1 11  1  0  0  0  0
  1 16  1  0  0  0  0
  2 13  1  0  0  0  0
  2 23  1  0  0  0  0
  3 12  1  0  0  0  0
  3 36  1  0  0  0  0
  4 14  2  0  0  0  0
  5 15  2  0  0  0  0
  6 18  2  0  0  0  0
  7 19  1  0  0  0  0
  7 44  1  0  0  0  0
  8 22  1  0  0  0  0
  8 48  1  0  0  0  0
  9 31  2  0  0  0  0
 10 13  1  0  0  0  0
 10 14  1  0  0  0  0
 10 34  1  0  0  0  0
 11 12  1  0  0  0  0
 11 14  1  0  0  0  0
 11 15  1  0  0  0  0
 12 13  1  0  0  0  0
 12 33  1  0  0  0  0
 13 18  1  0  0  0  0
 15 17  1  0  0  0  0
 16 17  2  0  0  0  0
 16 19  1  0  0  0  0
 17 20  1  0  0  0  0
 18 21  1  0  0  0  0
 19 22  1  0  0  0  0
 19 35  1  0  0  0  0
 20 37  1  0  0  0  0
 20 38  1  0  0  0  0
 20 39  1  0  0  0  0
 21 24  2  0  0  0  0
 21 25  1  0  0  0  0
 22 26  1  0  0  0  0
 22 40  1  0  0  0  0
 23 41  1  0  0  0  0
 23 42  1  0  0  0  0
 23 43  1  0  0  0  0
 24 27  1  0  0  0  0
 24 45  1  0  0  0  0
 25 28  2  0  0  0  0
 25 46  1  0  0  0  0
 26 30  2  0  0  0  0
 26 47  1  0  0  0  0
 27 29  2  0  0  0  0
 27 49  1  0  0  0  0
 28 29  1  0  0  0  0
 28 50  1  0  0  0  0
 29 51  1  0  0  0  0
 30 31  1  0  0  0  0
 30 52  1  0  0  0  0
 31 32  1  0  0  0  0
 32 53  1  0  0  0  0
 32 54  1  0  0  0  0
 32 55  1  0  0  0  0
M  END
> <PUBCHEM_COMPOUND_CID>
101207200

> <PUBCHEM_CONFORMER_RMSD>
1

> <PUBCHEM_CONFORMER_DIVERSEORDER>
1
99
104
62
4
16
91
34
77
11
32
33
80
72
23
70
35
101
57
8
9
44
51
17
67
81
98
94
97
38
54
103
85
18
12
73
106
60
108
83
74
41
3
95
68
30
13
50
45
71
10
31
22
42
48
49
47
76
29
37
107
39
88
63
64
15
86
26
75
90
84
43
89
46
65
59
53
79
82
27
87
102
40
93
25
2
92
7
19
24
96
105
28
21
55
36
61
14
56
52
69
58
66
78
100
5
6
20

> <PUBCHEM_MMFF94_PARTIAL_CHARGES>
43
1 -0.36
10 -0.73
11 0.4
12 0.28
13 0.64
14 0.57
15 0.49
16 -0.06
17 -0.12
18 0.42
19 0.42
2 -0.56
20 0.14
21 0.09
22 0.42
23 0.28
24 -0.15
25 -0.15
26 -0.29
27 -0.15
28 -0.15
29 -0.15
3 -0.68
30 -0.14
31 0.49
32 0.06
34 0.37
36 0.4
4 -0.57
44 0.4
45 0.15
46 0.15
47 0.15
48 0.4
49 0.15
5 -0.57
50 0.15
51 0.15
52 0.15
6 -0.57
7 -0.68
8 -0.68
9 -0.57

> <PUBCHEM_EFFECTIVE_ROTOR_COUNT>
7.8

> <PUBCHEM_PHARMACOPHORE_FEATURES>
16
1 1 acceptor
1 10 donor
1 2 acceptor
1 3 acceptor
1 3 donor
1 4 acceptor
1 5 acceptor
1 6 acceptor
1 7 acceptor
1 7 donor
1 8 acceptor
1 8 donor
1 9 acceptor
5 1 11 15 16 17 rings
5 10 11 12 13 14 rings
6 21 24 25 27 28 29 rings

> <PUBCHEM_HEAVY_ATOM_COUNT>
32

> <PUBCHEM_ATOM_DEF_STEREO_COUNT>
5

> <PUBCHEM_ATOM_UDEF_STEREO_COUNT>
0

> <PUBCHEM_BOND_DEF_STEREO_COUNT>
1

> <PUBCHEM_BOND_UDEF_STEREO_COUNT>
0

> <PUBCHEM_ISOTOPIC_ATOM_COUNT>
0

> <PUBCHEM_COMPONENT_COUNT>
1

> <PUBCHEM_CACTVS_TAUTO_COUNT>
4

> <PUBCHEM_CONFORMER_ID>
06084CA000000001

> <PUBCHEM_MMFF94_ENERGY>
89.5073

> <PUBCHEM_FEATURE_SELFOVERLAP>
81.246

> <PUBCHEM_SHAPE_FINGERPRINT>
10904742 90 8142091949188747875
11497681 19 18262799563019682230
11578080 2 17244698967150981844
11963148 33 18340197518666054055
12107183 9 10303810969527197966
12516196 113 18411980265182386457
12623949 98 17702676445071132622
12633257 1 15123215664086111681
13583140 156 12541572244698342260
13631057 29 18335701602802682304
13690498 29 18260258643324110677
13782708 43 18127981806687525590
14068700 675 18335138687372782981
14117953 113 18272369772599869839
14394314 77 18411705357733164321
1454969 45 18411985775367172214
14787075 74 18333735702214617440
14856354 85 15626219134668729925
14955137 171 18342741848753828332
15183329 4 15574712491512530709
15728490 51 18200870798212219774
15927050 60 17766557237510861220
16991971 28 18343027726241082767
17349148 13 17677066641911827836
17492 89 18122342381104005154
17980427 23 17896621517392500572
18335252 98 18272933826338507302
19315092 285 17460016402342699504
20028762 73 18343304772964560558
20715895 44 8574713516145917304
21049683 271 18334859467196283493
21298829 104 7997978981126239415
21774942 28 13118545321833362983
23559900 14 17313387889594521761
2747138 104 18343020003847478576
2838139 119 8070022260349354139
3004659 81 18040994064440537259
3009799 131 16443063910918564409
392239 28 18410299077818352056
4066623 53 15213016072486940863
4098825 35 17676203559875968861
4325135 7 18113900468021762206
4461854 278 17916877931986539271
463206 1 18336264652284598203
5385378 56 10159712282320548301
57527293 21 17753051592588842282
58260988 521 17132120117653440310
6669772 16 18051130590876234316

> <PUBCHEM_SHAPE_MULTIPOLES>
600.74
17.16
3.45
1.32
17.2
1.42
0.07
-13.2
2
1.96
-0.09
-0.22
0.01
-0.72

> <PUBCHEM_SHAPE_SELFOVERLAP>
1294.751

> <PUBCHEM_SHAPE_VOLUME>
330.9

> <PUBCHEM_COORDINATE_TYPE>
2
5
10

$$$$
