101232181
  -OEChem-03292013293D

 35 36  0     1  0  0  0  0  0999 V2000
    2.2504   -0.8425   -0.8704 O   0  0  0  0  0  0  0  0  0  0  0  0
    1.2606    2.3670    0.5252 O   0  0  0  0  0  0  0  0  0  0  0  0
    4.8187    0.7217   -0.6552 O   0  0  0  0  0  0  0  0  0  0  0  0
   -0.1898    1.0423   -1.5565 O   0  0  0  0  0  0  0  0  0  0  0  0
   -1.1062    0.8211    1.9593 O   0  0  0  0  0  0  0  0  0  0  0  0
    2.9975   -2.8807   -0.1329 O   0  0  0  0  0  0  0  0  0  0  0  0
    2.4258    0.5313   -0.4805 C   0  0  1  0  0  0  0  0  0  0  0  0
    1.2398    0.9484    0.3779 C   0  0  2  0  0  0  0  0  0  0  0  0
    3.7443    0.5439    0.2678 C   0  0  1  0  0  0  0  0  0  0  0  0
   -0.1077    0.5142   -0.2273 C   0  0  1  0  0  0  0  0  0  0  0  0
    3.8283   -0.8399    0.8744 C   0  0  0  0  0  0  0  0  0  0  0  0
   -1.3386    1.0100    0.5595 C   0  0  1  0  0  0  0  0  0  0  0  0
    3.0097   -1.6605   -0.0802 C   0  0  0  0  0  0  0  0  0  0  0  0
   -2.6212    0.2877    0.2198 C   0  0  0  0  0  0  0  0  0  0  0  0
   -3.4407    0.7647   -0.8032 C   0  0  0  0  0  0  0  0  0  0  0  0
   -2.9859   -0.8563    0.9295 C   0  0  0  0  0  0  0  0  0  0  0  0
   -4.6250    0.0976   -1.1165 C   0  0  0  0  0  0  0  0  0  0  0  0
   -4.1700   -1.5235    0.6161 C   0  0  0  0  0  0  0  0  0  0  0  0
   -4.9897   -1.0465   -0.4069 C   0  0  0  0  0  0  0  0  0  0  0  0
    2.4873    1.1397   -1.3904 H   0  0  0  0  0  0  0  0  0  0  0  0
    1.3221    0.5075    1.3784 H   0  0  0  0  0  0  0  0  0  0  0  0
    3.8336    1.3319    1.0204 H   0  0  0  0  0  0  0  0  0  0  0  0
   -0.1325   -0.5804   -0.2958 H   0  0  0  0  0  0  0  0  0  0  0  0
    3.3527   -0.8825    1.8583 H   0  0  0  0  0  0  0  0  0  0  0  0
    4.8528   -1.2183    0.9125 H   0  0  0  0  0  0  0  0  0  0  0  0
   -1.4787    2.0867    0.3994 H   0  0  0  0  0  0  0  0  0  0  0  0
    2.0656    2.6068    1.0135 H   0  0  0  0  0  0  0  0  0  0  0  0
    4.7232    1.6077   -1.0447 H   0  0  0  0  0  0  0  0  0  0  0  0
   -0.9405    0.6118   -1.9989 H   0  0  0  0  0  0  0  0  0  0  0  0
   -1.8396    1.2412    2.4414 H   0  0  0  0  0  0  0  0  0  0  0  0
   -3.1686    1.6557   -1.3627 H   0  0  0  0  0  0  0  0  0  0  0  0
   -2.3601   -1.2614    1.7199 H   0  0  0  0  0  0  0  0  0  0  0  0
   -5.2632    0.4690   -1.9130 H   0  0  0  0  0  0  0  0  0  0  0  0
   -4.4523   -2.4166    1.1659 H   0  0  0  0  0  0  0  0  0  0  0  0
   -5.9113   -1.5665   -0.6514 H   0  0  0  0  0  0  0  0  0  0  0  0
  1  7  1  0  0  0  0
  1 13  1  0  0  0  0
  2  8  1  0  0  0  0
  2 27  1  0  0  0  0
  3  9  1  0  0  0  0
  3 28  1  0  0  0  0
  4 10  1  0  0  0  0
  4 29  1  0  0  0  0
  5 12  1  0  0  0  0
  5 30  1  0  0  0  0
  6 13  2  0  0  0  0
  7  8  1  0  0  0  0
  7  9  1  0  0  0  0
  7 20  1  0  0  0  0
  8 10  1  0  0  0  0
  8 21  1  0  0  0  0
  9 11  1  0  0  0  0
  9 22  1  0  0  0  0
 10 12  1  0  0  0  0
 10 23  1  0  0  0  0
 11 13  1  0  0  0  0
 11 24  1  0  0  0  0
 11 25  1  0  0  0  0
 12 14  1  0  0  0  0
 12 26  1  0  0  0  0
 14 15  2  0  0  0  0
 14 16  1  0  0  0  0
 15 17  1  0  0  0  0
 15 31  1  0  0  0  0
 16 18  2  0  0  0  0
 16 32  1  0  0  0  0
 17 19  2  0  0  0  0
 17 33  1  0  0  0  0
 18 19  1  0  0  0  0
 18 34  1  0  0  0  0
 19 35  1  0  0  0  0
M  END
> <PUBCHEM_COMPOUND_CID>
101232181

> <PUBCHEM_CONFORMER_RMSD>
0.6

> <PUBCHEM_CONFORMER_DIVERSEORDER>
1
123
102
86
84
113
15
122
121
63
65
69
5
53
124
104
28
22
34
80
120
107
37
72
68
100
79
47
92
25
76
67
83
89
87
78
58
10
26
75
38
96
95
111
77
115
8
36
27
20
32
43
109
48
52
105
13
101
12
54
50
31
44
17
19
118
66
46
40
42
81
57
71
61
98
35
11
7
114
51
116
18
23
85
2
64
73
21
90
108
6
29
30
110
97
59
106
9
56
41
45
3
112
117
74
119
39
88
99
60
55
93
4
16
14
33
82
94
103
70
62
91
49
24

> <PUBCHEM_MMFF94_PARTIAL_CHARGES>
28
1 -0.43
10 0.28
11 0.06
12 0.42
13 0.66
14 -0.14
15 -0.15
16 -0.15
17 -0.15
18 -0.15
19 -0.15
2 -0.68
27 0.4
28 0.4
29 0.4
3 -0.68
30 0.4
31 0.15
32 0.15
33 0.15
34 0.15
35 0.15
4 -0.68
5 -0.68
6 -0.57
7 0.28
8 0.28
9 0.28

> <PUBCHEM_EFFECTIVE_ROTOR_COUNT>
4.8

> <PUBCHEM_PHARMACOPHORE_FEATURES>
11
1 2 acceptor
1 2 donor
1 3 acceptor
1 3 donor
1 4 acceptor
1 4 donor
1 5 acceptor
1 5 donor
1 6 acceptor
5 1 7 9 11 13 rings
6 14 15 16 17 18 19 rings

> <PUBCHEM_HEAVY_ATOM_COUNT>
19

> <PUBCHEM_ATOM_DEF_STEREO_COUNT>
5

> <PUBCHEM_ATOM_UDEF_STEREO_COUNT>
0

> <PUBCHEM_BOND_DEF_STEREO_COUNT>
0

> <PUBCHEM_BOND_UDEF_STEREO_COUNT>
0

> <PUBCHEM_ISOTOPIC_ATOM_COUNT>
0

> <PUBCHEM_COMPONENT_COUNT>
1

> <PUBCHEM_CACTVS_TAUTO_COUNT>
2

> <PUBCHEM_CONFORMER_ID>
0608AE3500000001

> <PUBCHEM_MMFF94_ENERGY>
47.0903

> <PUBCHEM_FEATURE_SELFOVERLAP>
55.829

> <PUBCHEM_SHAPE_FINGERPRINT>
10366900 7 18131071562682288538
10447042 23 18410846664378316934
11045977 3 12103844579452789871
11370993 70 18186517717736681475
11796584 16 18259978263079023371
12173636 292 8934129538791126232
12553582 1 17275101738889000501
12596602 18 16701735063846071195
12616999 72 18334861627970164134
12670546 177 17531249499476464037
12916748 109 15646773379748371589
13544653 18 18342177756476184793
14251764 30 16269700485890564630
14252887 29 17561370573670282060
14787075 74 17417523747967527616
14848160 33 18341612598793912167
15239154 128 8718824297442993567
15375358 24 17168147857857176096
15375462 189 17846493755267478654
15537594 2 18131354145697803687
17834072 14 18334294249494211679
1798214 20 18413385432379045831
18186145 218 11242260644855752584
18222031 100 15984812749271888589
19433438 28 11743838075528652471
19433438 38 18187362146945326189
19862831 5 14562530669504113669
200 152 18202844366097467489
20279233 1 18040158409263859618
20281475 54 18337958895863766768
20645477 56 11023838284017108817
20645477 70 18334573516894811318
20671657 53 18411420605211090361
21033650 10 16444191902537933652
21250096 35 18343299258389315963
21285901 2 17749664104200218455
21503847 285 10592043557386951374
21652331 79 10159692499901655931
22485316 2 18113615685735396333
22646028 1 18060136548573144407
22854114 59 13326856638804920425
231179 274 10881392132336905697
23402539 116 16588016931360879596
23557571 272 17676199165259371989
23559900 14 18335977683427465977
25 1 8430316839850018980
26918003 58 18343862225622787745
2871803 45 18334859394328973498
3004659 81 18113615647455529410
3009799 131 13038894510054203545
33382 64 18339366374533605627
33824 294 18410290320337771930
351380 3 17704072914910829735
4921388 177 16660652886111703123
4990 188 17530960289585367185
5104073 3 18271525299480351969
5161694 15 17603303743777491231
5283173 99 17676476203656315245
9709674 26 18259991474087195907
9882013 296 15985103007224416115
9971528 1 13117992302254993554

> <PUBCHEM_SHAPE_MULTIPOLES>
355.8
10.22
1.92
1.19
2.69
0.81
0.15
3.52
-1.42
-1.24
0.07
0.47
-0.2
0.38

> <PUBCHEM_SHAPE_SELFOVERLAP>
749.514

> <PUBCHEM_SHAPE_VOLUME>
200

> <PUBCHEM_COORDINATE_TYPE>
2
5
10

$$$$
