101286218
  -OEChem-03292013293D

 37 39  0     1  0  0  0  0  0999 V2000
   -4.6370   -1.0909   -1.6344 O   0  0  0  0  0  0  0  0  0  0  0  0
   -1.2894    3.2250   -0.0492 O   0  0  0  0  0  0  0  0  0  0  0  0
    0.1954   -2.5898   -0.2056 O   0  0  0  0  0  0  0  0  0  0  0  0
    1.2042    2.6511    0.0653 O   0  0  0  0  0  0  0  0  0  0  0  0
    3.7304    2.2461    0.1923 O   0  0  0  0  0  0  0  0  0  0  0  0
    5.2176   -2.2505    0.0923 O   0  0  0  0  0  0  0  0  0  0  0  0
   -0.6803   -0.4106   -0.1634 C   0  0  0  0  0  0  0  0  0  0  0  0
   -0.4167    0.9589   -0.0928 C   0  0  0  0  0  0  0  0  0  0  0  0
   -3.0532    0.0534   -0.2761 C   0  0  0  0  0  0  0  0  0  0  0  0
   -4.4610   -0.4300   -0.3729 C   0  0  2  0  0  0  0  0  0  0  0  0
   -2.0019   -0.8634   -0.2552 C   0  0  0  0  0  0  0  0  0  0  0  0
    2.0796    0.4723    0.0266 C   0  0  0  0  0  0  0  0  0  0  0  0
    1.8160   -0.8973   -0.0441 C   0  0  0  0  0  0  0  0  0  0  0  0
    0.4265   -1.3887   -0.1419 C   0  0  0  0  0  0  0  0  0  0  0  0
    0.9729    1.4505    0.0041 C   0  0  0  0  0  0  0  0  0  0  0  0
   -1.4747    1.8757   -0.1140 C   0  0  0  0  0  0  0  0  0  0  0  0
   -2.7902    1.4200   -0.2057 C   0  0  0  0  0  0  0  0  0  0  0  0
   -4.8812   -1.4118    0.7409 C   0  0  0  0  0  0  0  0  0  0  0  0
    3.4012    0.9250    0.1195 C   0  0  0  0  0  0  0  0  0  0  0  0
    2.8739   -1.8141   -0.0222 C   0  0  0  0  0  0  0  0  0  0  0  0
   -4.8736   -0.7801    2.1250 C   0  0  0  0  0  0  0  0  0  0  0  0
    4.1893   -1.3586    0.0703 C   0  0  0  0  0  0  0  0  0  0  0  0
    4.4524    0.0080    0.1411 C   0  0  0  0  0  0  0  0  0  0  0  0
   -5.1607    0.4146   -0.3700 H   0  0  0  0  0  0  0  0  0  0  0  0
   -2.2113   -1.9279   -0.3212 H   0  0  0  0  0  0  0  0  0  0  0  0
   -3.6064    2.1386   -0.2213 H   0  0  0  0  0  0  0  0  0  0  0  0
   -5.8943   -1.7736    0.5218 H   0  0  0  0  0  0  0  0  0  0  0  0
   -4.2494   -2.3078    0.7380 H   0  0  0  0  0  0  0  0  0  0  0  0
    2.6813   -2.8828   -0.0765 H   0  0  0  0  0  0  0  0  0  0  0  0
   -3.8637   -0.4864    2.4269 H   0  0  0  0  0  0  0  0  0  0  0  0
   -5.5151    0.1063    2.1548 H   0  0  0  0  0  0  0  0  0  0  0  0
   -5.2487   -1.4937    2.8656 H   0  0  0  0  0  0  0  0  0  0  0  0
    5.4794    0.3580    0.2133 H   0  0  0  0  0  0  0  0  0  0  0  0
   -4.2455   -0.5306   -2.3263 H   0  0  0  0  0  0  0  0  0  0  0  0
   -0.3472    3.4408    0.0132 H   0  0  0  0  0  0  0  0  0  0  0  0
    2.9364    2.8006    0.1725 H   0  0  0  0  0  0  0  0  0  0  0  0
    4.8558   -3.1515    0.0352 H   0  0  0  0  0  0  0  0  0  0  0  0
  1 10  1  0  0  0  0
  1 34  1  0  0  0  0
  2 16  1  0  0  0  0
  2 35  1  0  0  0  0
  3 14  2  0  0  0  0
  4 15  2  0  0  0  0
  5 19  1  0  0  0  0
  5 36  1  0  0  0  0
  6 22  1  0  0  0  0
  6 37  1  0  0  0  0
  7  8  2  0  0  0  0
  7 11  1  0  0  0  0
  7 14  1  0  0  0  0
  8 15  1  0  0  0  0
  8 16  1  0  0  0  0
  9 10  1  0  0  0  0
  9 11  2  0  0  0  0
  9 17  1  0  0  0  0
 10 18  1  0  0  0  0
 10 24  1  0  0  0  0
 11 25  1  0  0  0  0
 12 13  2  0  0  0  0
 12 15  1  0  0  0  0
 12 19  1  0  0  0  0
 13 14  1  0  0  0  0
 13 20  1  0  0  0  0
 16 17  2  0  0  0  0
 17 26  1  0  0  0  0
 18 21  1  0  0  0  0
 18 27  1  0  0  0  0
 18 28  1  0  0  0  0
 19 23  2  0  0  0  0
 20 22  2  0  0  0  0
 20 29  1  0  0  0  0
 21 30  1  0  0  0  0
 21 31  1  0  0  0  0
 21 32  1  0  0  0  0
 22 23  1  0  0  0  0
 23 33  1  0  0  0  0
M  END
> <PUBCHEM_COMPOUND_CID>
101286218

> <PUBCHEM_CONFORMER_RMSD>
0.6

> <PUBCHEM_CONFORMER_DIVERSEORDER>
1
2
3
4

> <PUBCHEM_MMFF94_PARTIAL_CHARGES>
29
1 -0.68
10 0.42
11 -0.15
12 0.09
13 0.09
14 0.4
15 0.4
16 0.08
17 -0.15
19 0.08
2 -0.53
20 -0.15
22 0.08
23 -0.15
25 0.15
26 0.15
29 0.15
3 -0.57
33 0.15
34 0.4
35 0.45
36 0.45
37 0.45
4 -0.57
5 -0.53
6 -0.53
7 0.09
8 0.09
9 -0.14

> <PUBCHEM_EFFECTIVE_ROTOR_COUNT>
2

> <PUBCHEM_PHARMACOPHORE_FEATURES>
11
1 1 acceptor
1 1 donor
1 2 donor
1 21 hydrophobe
1 3 acceptor
1 4 acceptor
1 5 donor
1 6 donor
6 12 13 19 20 22 23 rings
6 7 8 12 13 14 15 rings
6 7 8 9 11 16 17 rings

> <PUBCHEM_HEAVY_ATOM_COUNT>
23

> <PUBCHEM_ATOM_DEF_STEREO_COUNT>
1

> <PUBCHEM_ATOM_UDEF_STEREO_COUNT>
0

> <PUBCHEM_BOND_DEF_STEREO_COUNT>
0

> <PUBCHEM_BOND_UDEF_STEREO_COUNT>
0

> <PUBCHEM_ISOTOPIC_ATOM_COUNT>
0

> <PUBCHEM_COMPONENT_COUNT>
1

> <PUBCHEM_CACTVS_TAUTO_COUNT>
57

> <PUBCHEM_CONFORMER_ID>
0609814A00000001

> <PUBCHEM_MMFF94_ENERGY>
67.8784

> <PUBCHEM_FEATURE_SELFOVERLAP>
55.864

> <PUBCHEM_SHAPE_FINGERPRINT>
10616163 171 18268145353428643518
10967382 1 18339357586539764356
11578080 2 16591674813046492639
11796584 16 17168136862846497867
12236239 1 17774725355127804991
12403259 226 18339071602000633468
12403260 363 18338790127039227422
12553582 1 18412261769865100605
13140716 1 17835518593819661568
13544653 18 18335423478243223925
138480 1 14808538278726205045
13862211 1 18411693279515254334
14787075 74 18041847344970975435
14790565 3 17327191342562892060
15196674 1 18411134710480858628
15536298 74 18343015588958649468
16945 1 18267018534900089300
17357779 13 18261657230266830461
17492 89 18266176132636478730
19591789 44 18411416176994280694
200 152 18273205405393790653
20028762 73 18130780179000859287
20261772 1 18272088326859631159
20739085 24 18337691770557590353
21267235 1 18411424986230771582
21682296 61 18270967817226818670
221490 88 18409168775290208648
22182313 1 18263903536659438924
2334 1 18411696565513077020
23402539 116 18270670987546294007
23559900 14 18338223882635270224
2748010 2 18339070493851358156
2871803 45 18334286552759693607
312423 11 18336559239236969436
335352 9 18267582399212287053
34797466 226 16153718655767418303
350125 39 18411702054502451688
5104073 3 18411134697606630480
9709674 26 18408886239113619542

> <PUBCHEM_SHAPE_MULTIPOLES>
438.11
10.19
2.78
0.94
1.92
1.21
-0.24
-4.84
-1.55
-1.23
-0.01
1.56
-0.3
0.38

> <PUBCHEM_SHAPE_SELFOVERLAP>
977.019

> <PUBCHEM_SHAPE_VOLUME>
230.9

> <PUBCHEM_COORDINATE_TYPE>
2
5
10

$$$$
