101285961
  -OEChem-03292013293D

 61 65  0     1  0  0  0  0  0999 V2000
    3.9503   -1.4415    0.8255 O   0  0  0  0  0  0  0  0  0  0  0  0
   -5.1276    1.7199    0.4053 O   0  0  0  0  0  0  0  0  0  0  0  0
   -5.2056   -1.2510    0.4642 O   0  0  0  0  0  0  0  0  0  0  0  0
    6.2805   -1.8694   -1.0082 O   0  0  0  0  0  0  0  0  0  0  0  0
   -2.7469   -2.4340   -0.9337 O   0  0  0  0  0  0  0  0  0  0  0  0
   -1.0412    2.5810    0.6246 O   0  0  0  0  0  0  0  0  0  0  0  0
    1.3156    1.6870    0.6229 O   0  0  0  0  0  0  0  0  0  0  0  0
   -7.2391   -1.4874    1.4982 O   0  0  0  0  0  0  0  0  0  0  0  0
   -0.3154   -3.1789   -0.8662 O   0  0  0  0  0  0  0  0  0  0  0  0
    5.7921    1.6653   -0.1130 N   0  0  0  0  0  0  0  0  0  0  0  0
    5.5272    0.3980   -0.7934 C   0  0  2  0  0  0  0  0  0  0  0  0
    4.0168    0.1926   -0.9722 C   0  0  0  0  0  0  0  0  0  0  0  0
    3.3405   -0.2505    0.3265 C   0  0  1  0  0  0  0  0  0  0  0  0
    6.1529   -0.7989   -0.0583 C   0  0  1  0  0  0  0  0  0  0  0  0
    5.3437   -1.3296    1.1368 C   0  0  1  0  0  0  0  0  0  0  0  0
   -4.6913   -0.4441   -0.6075 C   0  0  1  0  0  0  0  0  0  0  0  0
   -5.5630    0.7967   -0.5961 C   0  0  1  0  0  0  0  0  0  0  0  0
   -3.2315   -0.1736   -0.3826 C   0  0  0  0  0  0  0  0  0  0  0  0
   -2.7995    1.1000    0.0161 C   0  0  0  0  0  0  0  0  0  0  0  0
    1.8952   -0.5466    0.0869 C   0  0  0  0  0  0  0  0  0  0  0  0
   -3.7991    2.2173    0.2034 C   0  0  1  0  0  0  0  0  0  0  0  0
   -6.9058    0.2440   -0.1657 C   0  0  0  0  0  0  0  0  0  0  0  0
   -0.5000    0.3037    0.0516 C   0  0  0  0  0  0  0  0  0  0  0  0
   -0.9323   -0.9624   -0.3379 C   0  0  0  0  0  0  0  0  0  0  0  0
   -2.2938   -1.2022   -0.5535 C   0  0  0  0  0  0  0  0  0  0  0  0
   -1.4321    1.3328    0.2285 C   0  0  0  0  0  0  0  0  0  0  0  0
    0.9341    0.5729    0.2817 C   0  0  0  0  0  0  0  0  0  0  0  0
    5.5576   -0.5649    2.4398 C   0  0  0  0  0  0  0  0  0  0  0  0
    1.4633   -1.7565   -0.2868 C   0  0  0  0  0  0  0  0  0  0  0  0
   -6.5082   -0.9121    0.7069 C   0  0  0  0  0  0  0  0  0  0  0  0
    0.0368   -2.0564   -0.5253 C   0  0  0  0  0  0  0  0  0  0  0  0
   -3.7612    3.2330   -0.9375 C   0  0  0  0  0  0  0  0  0  0  0  0
    5.2600    2.7824   -0.8914 C   0  0  0  0  0  0  0  0  0  0  0  0
    7.2270    1.8333    0.1103 C   0  0  0  0  0  0  0  0  0  0  0  0
    5.9619    0.4437   -1.8033 H   0  0  0  0  0  0  0  0  0  0  0  0
    3.9054   -0.6191   -1.7077 H   0  0  0  0  0  0  0  0  0  0  0  0
    3.4986    1.0402   -1.4288 H   0  0  0  0  0  0  0  0  0  0  0  0
    3.4316    0.5238    1.0954 H   0  0  0  0  0  0  0  0  0  0  0  0
    7.1837   -0.6328    0.2605 H   0  0  0  0  0  0  0  0  0  0  0  0
   -4.8383   -0.9950   -1.5456 H   0  0  0  0  0  0  0  0  0  0  0  0
    5.6666   -2.3611    1.3274 H   0  0  0  0  0  0  0  0  0  0  0  0
   -5.6214    1.3042   -1.5637 H   0  0  0  0  0  0  0  0  0  0  0  0
   -3.5611    2.7434    1.1357 H   0  0  0  0  0  0  0  0  0  0  0  0
   -7.4748   -0.1461   -1.0145 H   0  0  0  0  0  0  0  0  0  0  0  0
   -7.4922    0.9658    0.4084 H   0  0  0  0  0  0  0  0  0  0  0  0
    5.2585    0.4836    2.3624 H   0  0  0  0  0  0  0  0  0  0  0  0
    6.6087   -0.5970    2.7428 H   0  0  0  0  0  0  0  0  0  0  0  0
    4.9514   -1.0040    3.2396 H   0  0  0  0  0  0  0  0  0  0  0  0
    2.1479   -2.5837   -0.4467 H   0  0  0  0  0  0  0  0  0  0  0  0
   -4.5611    3.9715   -0.8170 H   0  0  0  0  0  0  0  0  0  0  0  0
   -3.9105    2.7551   -1.9118 H   0  0  0  0  0  0  0  0  0  0  0  0
   -2.8051    3.7640   -0.9782 H   0  0  0  0  0  0  0  0  0  0  0  0
    6.8824   -1.5695   -1.7107 H   0  0  0  0  0  0  0  0  0  0  0  0
    7.4487    2.8595    0.4296 H   0  0  0  0  0  0  0  0  0  0  0  0
    5.6045    3.7378   -0.4761 H   0  0  0  0  0  0  0  0  0  0  0  0
    4.1696    2.8447   -0.8338 H   0  0  0  0  0  0  0  0  0  0  0  0
    5.5699    2.7530   -1.9424 H   0  0  0  0  0  0  0  0  0  0  0  0
    7.8218    1.6376   -0.7894 H   0  0  0  0  0  0  0  0  0  0  0  0
    7.5914    1.2156    0.9360 H   0  0  0  0  0  0  0  0  0  0  0  0
   -2.0396   -3.0944   -0.9014 H   0  0  0  0  0  0  0  0  0  0  0  0
   -0.1279    2.5744    0.9466 H   0  0  0  0  0  0  0  0  0  0  0  0
  1 13  1  0  0  0  0
  1 15  1  0  0  0  0
  2 17  1  0  0  0  0
  2 21  1  0  0  0  0
  3 16  1  0  0  0  0
  3 30  1  0  0  0  0
  4 14  1  0  0  0  0
  4 53  1  0  0  0  0
  5 25  1  0  0  0  0
  5 60  1  0  0  0  0
  6 26  1  0  0  0  0
  6 61  1  0  0  0  0
  7 27  2  0  0  0  0
  8 30  2  0  0  0  0
  9 31  2  0  0  0  0
 10 11  1  0  0  0  0
 10 33  1  0  0  0  0
 10 34  1  0  0  0  0
 11 12  1  0  0  0  0
 11 14  1  0  0  0  0
 11 35  1  0  0  0  0
 12 13  1  0  0  0  0
 12 36  1  0  0  0  0
 12 37  1  0  0  0  0
 13 20  1  0  0  0  0
 13 38  1  0  0  0  0
 14 15  1  0  0  0  0
 14 39  1  0  0  0  0
 15 28  1  0  0  0  0
 15 41  1  0  0  0  0
 16 17  1  0  0  0  0
 16 18  1  0  0  0  0
 16 40  1  0  0  0  0
 17 22  1  0  0  0  0
 17 42  1  0  0  0  0
 18 19  2  0  0  0  0
 18 25  1  0  0  0  0
 19 21  1  0  0  0  0
 19 26  1  0  0  0  0
 20 27  1  0  0  0  0
 20 29  2  0  0  0  0
 21 32  1  0  0  0  0
 21 43  1  0  0  0  0
 22 30  1  0  0  0  0
 22 44  1  0  0  0  0
 22 45  1  0  0  0  0
 23 24  1  0  0  0  0
 23 26  2  0  0  0  0
 23 27  1  0  0  0  0
 24 25  2  0  0  0  0
 24 31  1  0  0  0  0
 28 46  1  0  0  0  0
 28 47  1  0  0  0  0
 28 48  1  0  0  0  0
 29 31  1  0  0  0  0
 29 49  1  0  0  0  0
 32 50  1  0  0  0  0
 32 51  1  0  0  0  0
 32 52  1  0  0  0  0
 33 55  1  0  0  0  0
 33 56  1  0  0  0  0
 33 57  1  0  0  0  0
 34 54  1  0  0  0  0
 34 58  1  0  0  0  0
 34 59  1  0  0  0  0
M  END
> <PUBCHEM_COMPOUND_CID>
101285961

> <PUBCHEM_CONFORMER_RMSD>
0.8

> <PUBCHEM_CONFORMER_DIVERSEORDER>
3
15
9
8
2
11
12
4
1
17
13
16
10
6
7
5
14

> <PUBCHEM_MMFF94_PARTIAL_CHARGES>
35
1 -0.56
10 -0.81
11 0.27
13 0.42
14 0.28
15 0.28
16 0.42
17 0.28
18 -0.14
19 -0.14
2 -0.56
20 -0.12
21 0.42
22 0.06
23 0.09
24 0.09
25 0.08
26 0.08
27 0.47
29 -0.14
3 -0.43
30 0.66
31 0.47
33 0.27
34 0.27
4 -0.68
49 0.15
5 -0.53
53 0.4
6 -0.53
60 0.45
61 0.45
7 -0.57
8 -0.57
9 -0.57

> <PUBCHEM_EFFECTIVE_ROTOR_COUNT>
4

> <PUBCHEM_PHARMACOPHORE_FEATURES>
15
1 1 acceptor
1 10 cation
1 2 acceptor
1 4 acceptor
1 4 donor
1 5 donor
1 6 donor
1 7 acceptor
1 8 acceptor
1 9 acceptor
5 3 16 17 22 30 rings
6 1 11 12 13 14 15 rings
6 18 19 23 24 25 26 rings
6 2 16 17 18 19 21 rings
6 20 23 24 27 29 31 rings

> <PUBCHEM_HEAVY_ATOM_COUNT>
34

> <PUBCHEM_ATOM_DEF_STEREO_COUNT>
6

> <PUBCHEM_ATOM_UDEF_STEREO_COUNT>
1

> <PUBCHEM_BOND_DEF_STEREO_COUNT>
0

> <PUBCHEM_BOND_UDEF_STEREO_COUNT>
0

> <PUBCHEM_ISOTOPIC_ATOM_COUNT>
0

> <PUBCHEM_COMPONENT_COUNT>
1

> <PUBCHEM_CACTVS_TAUTO_COUNT>
30

> <PUBCHEM_CONFORMER_ID>
0609804900000003

> <PUBCHEM_MMFF94_ENERGY>
102.8823

> <PUBCHEM_FEATURE_SELFOVERLAP>
76.378

> <PUBCHEM_SHAPE_FINGERPRINT>
10 15 18408603686316668491
10050765 1 18122627154783923455
10290309 65 18198341763325302295
10411042 1 17764585817600164527
10675989 125 16754367217080211493
10906281 52 18271818916546151727
10939801 23 18337110180783766508
11007060 377 18259990374997386385
11488393 25 17201373857782161719
11578080 2 17025420108006902399
11646440 116 17775286058037682739
11719270 70 18341045233582689407
11963148 33 18410287017392961575
12166972 35 18040721363607759444
12236239 1 18113616772388502454
12596602 18 17748823012417720659
12788726 201 18060424599097780808
13140716 1 18198902711939436131
13533116 47 17023177172784273930
1454969 45 18412822495800968271
14790565 3 18411702075792561524
14849402 71 18270405017702754521
14856354 85 18410577318859112727
15001296 14 18262235629386653828
15131766 46 17096660996358938636
15183329 4 18343017796102373956
15419008 145 18041827430168187376
15685185 35 17389961272641472484
15849732 13 18260550043099719932
15927050 60 17694783321256144428
16112460 7 18201447998941054361
18608769 82 18340490070937686651
19319366 153 18259976085589023042
19611394 137 18115603676474811347
20511986 3 18188475926871444260
21267235 1 18412269419333937783
21521721 280 18201162138765479584
21781051 124 18337689579940140238
22149856 69 18130519543631690787
23522609 53 18128280993560966353
23559900 14 18129934697460792561
23569943 247 16198761107293119814
25019877 29 18201726166972237239
3004659 81 18409450263710906044
3178227 256 18341060696028879667
335352 9 18343579663819086383
3383291 50 18410852174895867291
34797466 226 17918000499029563788
350125 39 18412825802572682737
394071 54 16128080248580046312
4073 2 17968382368161075874
4093350 32 15554167077677168088
4258327 124 16516831306194974902
5104073 3 18409163294811946760
5265222 85 18271525389706300046
550186 72 18409446956270649085
59755656 215 18272370828222937975

> <PUBCHEM_SHAPE_MULTIPOLES>
641.9
19.43
2.95
1.16
3.41
0.94
0.41
1.75
2.55
-0.14
-0.57
0.97
-0.29
-0.23

> <PUBCHEM_SHAPE_SELFOVERLAP>
1417.719

> <PUBCHEM_SHAPE_VOLUME>
343.6

> <PUBCHEM_COORDINATE_TYPE>
2
5
10

$$$$
