101203822
  -OEChem-03292013293D

 45 47  0     1  0  0  0  0  0999 V2000
   -3.6508    0.3283    1.9151 O   0  0  0  0  0  0  0  0  0  0  0  0
   -3.8147    1.8434   -0.3758 O   0  0  0  0  0  0  0  0  0  0  0  0
   -4.2144   -0.8600   -0.8490 O   0  0  0  0  0  0  0  0  0  0  0  0
   -1.9075   -1.8294   -1.8261 O   0  0  0  0  0  0  0  0  0  0  0  0
    3.4285    1.9662   -1.3061 O   0  0  0  0  0  0  0  0  0  0  0  0
    4.3046    0.0826    0.9571 O   0  0  0  0  0  0  0  0  0  0  0  0
   -2.7252    0.0358    0.8615 C   0  0  2  0  0  0  0  0  0  0  0  0
   -2.5395    1.3302    0.0217 C   0  0  2  0  0  0  0  0  0  0  0  0
   -3.2244   -1.2152    0.1023 C   0  0  2  0  0  0  0  0  0  0  0  0
   -1.8051    2.4867    0.7706 C   0  0  0  0  0  0  0  0  0  0  0  0
   -0.3327    2.5209    0.4212 C   0  0  0  0  0  0  0  0  0  0  0  0
   -1.2845   -2.9722    0.2164 C   0  0  0  0  0  0  0  0  0  0  0  0
   -2.0984   -1.9725   -0.6176 C   0  0  0  0  0  0  0  0  0  0  0  0
    0.0444   -3.4523   -0.4179 C   0  0  0  0  0  0  0  0  0  0  0  0
    1.2266   -2.5506   -0.1377 C   0  0  0  0  0  0  0  0  0  0  0  0
    1.6693    1.1539    0.1189 C   0  0  0  0  0  0  0  0  0  0  0  0
    0.4509    1.4255    0.7661 C   0  0  0  0  0  0  0  0  0  0  0  0
    2.0855   -0.2533    0.1021 C   0  0  0  0  0  0  0  0  0  0  0  0
    1.0999   -1.1771   -0.3082 C   0  0  0  0  0  0  0  0  0  0  0  0
    0.2416    3.5130   -0.3743 C   0  0  0  0  0  0  0  0  0  0  0  0
    2.2441    2.1552   -0.6611 C   0  0  0  0  0  0  0  0  0  0  0  0
    2.4587   -3.0276    0.3121 C   0  0  0  0  0  0  0  0  0  0  0  0
    1.5426    3.3490   -0.8723 C   0  0  0  0  0  0  0  0  0  0  0  0
    3.3063   -0.7471    0.5478 C   0  0  0  0  0  0  0  0  0  0  0  0
    3.4941   -2.1333    0.6331 C   0  0  0  0  0  0  0  0  0  0  0  0
   -1.7891   -0.2280    1.3544 H   0  0  0  0  0  0  0  0  0  0  0  0
   -1.9996    1.0793   -0.8999 H   0  0  0  0  0  0  0  0  0  0  0  0
   -3.7018   -1.9202    0.7919 H   0  0  0  0  0  0  0  0  0  0  0  0
   -1.9149    2.3822    1.8569 H   0  0  0  0  0  0  0  0  0  0  0  0
   -2.2527    3.4559    0.5166 H   0  0  0  0  0  0  0  0  0  0  0  0
   -1.9387   -3.8433    0.3457 H   0  0  0  0  0  0  0  0  0  0  0  0
   -1.1009   -2.5436    1.2078 H   0  0  0  0  0  0  0  0  0  0  0  0
   -0.0559   -3.5761   -1.5023 H   0  0  0  0  0  0  0  0  0  0  0  0
    0.2656   -4.4446   -0.0045 H   0  0  0  0  0  0  0  0  0  0  0  0
    0.0327    0.6685    1.4244 H   0  0  0  0  0  0  0  0  0  0  0  0
    0.1696   -0.7851   -0.7110 H   0  0  0  0  0  0  0  0  0  0  0  0
   -0.3264    4.3968   -0.6518 H   0  0  0  0  0  0  0  0  0  0  0  0
   -3.6902   -0.4502    2.4965 H   0  0  0  0  0  0  0  0  0  0  0  0
   -3.6557    2.5736   -0.9982 H   0  0  0  0  0  0  0  0  0  0  0  0
    2.6242   -4.0946    0.4370 H   0  0  0  0  0  0  0  0  0  0  0  0
   -3.8065   -0.2820   -1.5154 H   0  0  0  0  0  0  0  0  0  0  0  0
    1.9639    4.1310   -1.4999 H   0  0  0  0  0  0  0  0  0  0  0  0
    4.4388   -2.5377    0.9900 H   0  0  0  0  0  0  0  0  0  0  0  0
    3.6468    2.7671   -1.8129 H   0  0  0  0  0  0  0  0  0  0  0  0
    5.0657   -0.4516    1.2420 H   0  0  0  0  0  0  0  0  0  0  0  0
  1  7  1  0  0  0  0
  1 38  1  0  0  0  0
  2  8  1  0  0  0  0
  2 39  1  0  0  0  0
  3  9  1  0  0  0  0
  3 41  1  0  0  0  0
  4 13  2  0  0  0  0
  5 21  1  0  0  0  0
  5 44  1  0  0  0  0
  6 24  1  0  0  0  0
  6 45  1  0  0  0  0
  7  8  1  0  0  0  0
  7  9  1  0  0  0  0
  7 26  1  0  0  0  0
  8 10  1  0  0  0  0
  8 27  1  0  0  0  0
  9 13  1  0  0  0  0
  9 28  1  0  0  0  0
 10 11  1  0  0  0  0
 10 29  1  0  0  0  0
 10 30  1  0  0  0  0
 11 17  2  0  0  0  0
 11 20  1  0  0  0  0
 12 13  1  0  0  0  0
 12 14  1  0  0  0  0
 12 31  1  0  0  0  0
 12 32  1  0  0  0  0
 14 15  1  0  0  0  0
 14 33  1  0  0  0  0
 14 34  1  0  0  0  0
 15 19  2  0  0  0  0
 15 22  1  0  0  0  0
 16 17  1  0  0  0  0
 16 18  1  0  0  0  0
 16 21  2  0  0  0  0
 17 35  1  0  0  0  0
 18 19  1  0  0  0  0
 18 24  2  0  0  0  0
 19 36  1  0  0  0  0
 20 23  2  0  0  0  0
 20 37  1  0  0  0  0
 21 23  1  0  0  0  0
 22 25  2  0  0  0  0
 22 40  1  0  0  0  0
 23 42  1  0  0  0  0
 24 25  1  0  0  0  0
 25 43  1  0  0  0  0
M  END
> <PUBCHEM_COMPOUND_CID>
101203822

> <PUBCHEM_CONFORMER_RMSD>
0.6

> <PUBCHEM_CONFORMER_DIVERSEORDER>
1
9
6
7
8
5
4
3
2

> <PUBCHEM_MMFF94_PARTIAL_CHARGES>
34
1 -0.68
10 0.14
11 -0.14
12 0.06
13 0.45
14 0.14
15 -0.14
17 -0.15
19 -0.15
2 -0.68
20 -0.15
21 0.08
22 -0.15
23 -0.15
24 0.08
25 -0.15
3 -0.68
35 0.15
36 0.15
37 0.15
38 0.4
39 0.4
4 -0.57
40 0.15
41 0.4
42 0.15
43 0.15
44 0.45
45 0.45
5 -0.53
6 -0.53
7 0.28
8 0.28
9 0.34

> <PUBCHEM_EFFECTIVE_ROTOR_COUNT>
1.2

> <PUBCHEM_PHARMACOPHORE_FEATURES>
11
1 1 acceptor
1 1 donor
1 2 acceptor
1 2 donor
1 3 acceptor
1 3 donor
1 4 acceptor
1 5 donor
1 6 donor
6 11 16 17 20 21 23 rings
6 15 18 19 22 24 25 rings

> <PUBCHEM_HEAVY_ATOM_COUNT>
25

> <PUBCHEM_ATOM_DEF_STEREO_COUNT>
3

> <PUBCHEM_ATOM_UDEF_STEREO_COUNT>
0

> <PUBCHEM_BOND_DEF_STEREO_COUNT>
0

> <PUBCHEM_BOND_UDEF_STEREO_COUNT>
0

> <PUBCHEM_ISOTOPIC_ATOM_COUNT>
0

> <PUBCHEM_COMPONENT_COUNT>
1

> <PUBCHEM_CACTVS_TAUTO_COUNT>
410

> <PUBCHEM_CONFORMER_ID>
06083F6E00000001

> <PUBCHEM_MMFF94_ENERGY>
88.5539

> <PUBCHEM_FEATURE_SELFOVERLAP>
55.851

> <PUBCHEM_SHAPE_FINGERPRINT>
10616163 171 18411422769478734897
10967382 1 18411135882991041194
1100329 8 18193553600417350874
11370993 70 16607437270134552516
11513181 2 18059856117353310598
12035759 4 18336284391890415764
12038231 1 17906170655129630699
12156800 1 15159898897550454331
12539773 59 17775570870620940483
12553582 1 18338246985010764592
13122387 1 18268149751533280679
13132413 78 18412821387309190926
13140716 1 18340486673037748498
13402501 40 16538209810320495419
14081887 123 18129359558737780088
14117953 113 18050283661335876405
14289585 56 17241047729648077084
14790565 3 18264492961329368788
14931854 50 17691406729726252879
17093844 170 17760920749679443280
192875 21 18268973440556713919
19591789 44 17328311749285008738
20775438 99 14460048893342590270
21141583 151 16827852590773175996
21197605 99 17621320131290088649
21796203 349 18047790106988655288
21857420 4 13282592134332266317
22113638 7 18339914910122685039
2334 1 18340486793370769946
238 59 18119800554975115855
2748010 2 17547858451642889494
3052486 1 18265906765631037590
350125 39 17686898732269265278
392239 28 17988347248621637960
463206 1 18128239264111632375
57091435 65 18336565844912228670
58250162 1 17908416201803294728
6438718 38 17846224422189980207
7471813 234 17626356258936840006
9709674 26 17619629085877941034

> <PUBCHEM_SHAPE_MULTIPOLES>
479.27
6.49
4.99
1.13
1.46
0.47
0.01
-0.97
-0.83
-1.14
0.98
0.39
0.07
-1.32

> <PUBCHEM_SHAPE_SELFOVERLAP>
1032.735

> <PUBCHEM_SHAPE_VOLUME>
260.2

> <PUBCHEM_COORDINATE_TYPE>
2
5
10

$$$$
