101264121
  -OEChem-03292013293D

 51 53  0     1  0  0  0  0  0999 V2000
    1.3841   -0.6510    0.2225 O   0  0  0  0  0  0  0  0  0  0  0  0
   -0.2475    0.0685   -1.2817 O   0  0  0  0  0  0  0  0  0  0  0  0
    3.9446    2.3554   -0.9073 O   0  0  0  0  0  0  0  0  0  0  0  0
    1.7100    1.5710   -2.6580 O   0  0  0  0  0  0  0  0  0  0  0  0
    4.9692    0.0223    0.4900 O   0  0  0  0  0  0  0  0  0  0  0  0
    4.0225   -1.8138    2.2256 O   0  0  0  0  0  0  0  0  0  0  0  0
    1.7857   -1.5526    2.5776 O   0  0  0  0  0  0  0  0  0  0  0  0
   -3.7978   -1.9801    0.9231 N   0  0  0  0  0  0  0  0  0  0  0  0
   -2.3314    3.6445    0.7967 N   0  0  0  0  0  0  0  0  0  0  0  0
    3.3616    1.0532   -0.9770 C   0  0  2  0  0  0  0  0  0  0  0  0
    1.8714    1.1773   -1.2955 C   0  0  2  0  0  0  0  0  0  0  0  0
    3.5887    0.3612    0.3673 C   0  0  1  0  0  0  0  0  0  0  0  0
    1.1492   -0.1549   -1.0928 C   0  0  1  0  0  0  0  0  0  0  0  0
    2.7613   -0.9142    0.4646 C   0  0  1  0  0  0  0  0  0  0  0  0
   -2.0893   -1.0574   -0.1756 C   0  0  0  0  0  0  0  0  0  0  0  0
   -1.0660   -1.0192   -1.1435 C   0  0  0  0  0  0  0  0  0  0  0  0
    2.7689   -1.4517    1.8590 C   0  0  0  0  0  0  0  0  0  0  0  0
   -2.5491   -0.1480    0.8175 C   0  0  0  0  0  0  0  0  0  0  0  0
   -2.8894   -2.1987   -0.0881 C   0  0  0  0  0  0  0  0  0  0  0  0
   -2.0093    1.1967    1.1045 C   0  0  0  0  0  0  0  0  0  0  0  0
   -3.5998   -0.7437    1.4765 C   0  0  0  0  0  0  0  0  0  0  0  0
   -0.8812   -2.1217   -1.9857 C   0  0  0  0  0  0  0  0  0  0  0  0
   -2.8904    2.3232    0.5318 C   0  0  0  0  0  0  0  0  0  0  0  0
   -2.7165   -3.3082   -0.9234 C   0  0  0  0  0  0  0  0  0  0  0  0
   -1.6950   -3.2475   -1.8756 C   0  0  0  0  0  0  0  0  0  0  0  0
   -1.1987    3.9116   -0.0909 C   0  0  0  0  0  0  0  0  0  0  0  0
   -3.3559    4.6778    0.6384 C   0  0  0  0  0  0  0  0  0  0  0  0
    3.8890    0.5266   -1.7812 H   0  0  0  0  0  0  0  0  0  0  0  0
    1.4150    1.9607   -0.6819 H   0  0  0  0  0  0  0  0  0  0  0  0
    3.3499    1.0472    1.1894 H   0  0  0  0  0  0  0  0  0  0  0  0
    1.5071   -0.8813   -1.8341 H   0  0  0  0  0  0  0  0  0  0  0  0
    3.1098   -1.7072   -0.2086 H   0  0  0  0  0  0  0  0  0  0  0  0
    3.4813    2.8573   -0.2152 H   0  0  0  0  0  0  0  0  0  0  0  0
    2.1096    0.8852   -3.2197 H   0  0  0  0  0  0  0  0  0  0  0  0
    5.1938   -0.5927   -0.2291 H   0  0  0  0  0  0  0  0  0  0  0  0
   -1.9384    1.3241    2.1938 H   0  0  0  0  0  0  0  0  0  0  0  0
   -0.9822    1.2739    0.7409 H   0  0  0  0  0  0  0  0  0  0  0  0
   -4.2251   -0.4004    2.2890 H   0  0  0  0  0  0  0  0  0  0  0  0
   -0.1133   -2.1113   -2.7548 H   0  0  0  0  0  0  0  0  0  0  0  0
   -3.8754    2.2384    1.0118 H   0  0  0  0  0  0  0  0  0  0  0  0
   -3.0636    2.1692   -0.5423 H   0  0  0  0  0  0  0  0  0  0  0  0
   -4.5077   -2.6380    1.2142 H   0  0  0  0  0  0  0  0  0  0  0  0
   -3.3502   -4.1846   -0.8392 H   0  0  0  0  0  0  0  0  0  0  0  0
   -1.5373   -4.0908   -2.5432 H   0  0  0  0  0  0  0  0  0  0  0  0
    4.0490   -2.1683    3.1399 H   0  0  0  0  0  0  0  0  0  0  0  0
   -4.1799    4.5169    1.3426 H   0  0  0  0  0  0  0  0  0  0  0  0
   -1.4704    3.8345   -1.1500 H   0  0  0  0  0  0  0  0  0  0  0  0
   -2.9434    5.6675    0.8647 H   0  0  0  0  0  0  0  0  0  0  0  0
   -3.7671    4.6990   -0.3774 H   0  0  0  0  0  0  0  0  0  0  0  0
   -0.8074    4.9207    0.0842 H   0  0  0  0  0  0  0  0  0  0  0  0
   -0.3654    3.2335    0.1073 H   0  0  0  0  0  0  0  0  0  0  0  0
  1 13  1  0  0  0  0
  1 14  1  0  0  0  0
  2 13  1  0  0  0  0
  2 16  1  0  0  0  0
  3 10  1  0  0  0  0
  3 33  1  0  0  0  0
  4 11  1  0  0  0  0
  4 34  1  0  0  0  0
  5 12  1  0  0  0  0
  5 35  1  0  0  0  0
  6 17  1  0  0  0  0
  6 45  1  0  0  0  0
  7 17  2  0  0  0  0
  8 19  1  0  0  0  0
  8 21  1  0  0  0  0
  8 42  1  0  0  0  0
  9 23  1  0  0  0  0
  9 26  1  0  0  0  0
  9 27  1  0  0  0  0
 10 11  1  0  0  0  0
 10 12  1  0  0  0  0
 10 28  1  0  0  0  0
 11 13  1  0  0  0  0
 11 29  1  0  0  0  0
 12 14  1  0  0  0  0
 12 30  1  0  0  0  0
 13 31  1  0  0  0  0
 14 17  1  0  0  0  0
 14 32  1  0  0  0  0
 15 16  1  0  0  0  0
 15 18  1  0  0  0  0
 15 19  2  0  0  0  0
 16 22  2  0  0  0  0
 18 20  1  0  0  0  0
 18 21  2  0  0  0  0
 19 24  1  0  0  0  0
 20 23  1  0  0  0  0
 20 36  1  0  0  0  0
 20 37  1  0  0  0  0
 21 38  1  0  0  0  0
 22 25  1  0  0  0  0
 22 39  1  0  0  0  0
 23 40  1  0  0  0  0
 23 41  1  0  0  0  0
 24 25  2  0  0  0  0
 24 43  1  0  0  0  0
 25 44  1  0  0  0  0
 26 47  1  0  0  0  0
 26 50  1  0  0  0  0
 26 51  1  0  0  0  0
 27 46  1  0  0  0  0
 27 48  1  0  0  0  0
 27 49  1  0  0  0  0
M  END
> <PUBCHEM_COMPOUND_CID>
101264121

> <PUBCHEM_CONFORMER_RMSD>
0.8

> <PUBCHEM_CONFORMER_DIVERSEORDER>
1
161
6
85
217
59
226
230
171
92
228
21
220
233
157
46
242
68
176
113
132
147
41
153
248
30
14
39
49
219
234
199
151
201
65
187
4
69
172
238
62
193
209
215
106
236
123
122
206
148
221
115
180
23
164
163
71
67
134
22
156
131
246
232
168
96
118
223
19
105
222
216
178
136
121
91
170
124
141
138
212
225
152
2
27
110
239
47
63
102
17
50
198
211
227
5
56
146
200
183
194
154
119
207
34
24
29
144
174
9
218
210
129
229
78
114
44
104
191
133
16
224
143
87
75
76
213
241
111
208
125
155
54
43
40
165
61
169
182
158
166
244
89
108
214
52
126
145
140
77
31
12
245
128
15
184
20
137
73
28
53
202
149
175
32
112
84
36
99
237
8
181
203
159
66
247
130
127
135
117
173
162
51
26
94
231
100
95
74
189
101
33
205
3
192
188
196
72
120
48
18
42
83
11
243
185
79
10
109
55
37
197
64
7
93
25
107
142
116
82
90
167
97
204
195
58
88
98
186
81
190
60
139
57
38
45
240
35
235
160
70
86
177
13
150
103
80
179

> <PUBCHEM_MMFF94_PARTIAL_CHARGES>
35
1 -0.56
10 0.28
11 0.28
12 0.28
13 0.56
14 0.34
16 0.08
17 0.66
18 -0.18
19 -0.15
2 -0.36
20 0.18
21 -0.3
22 -0.15
23 0.27
24 -0.15
25 -0.15
26 0.27
27 0.27
3 -0.68
33 0.4
34 0.4
35 0.4
38 0.15
39 0.15
4 -0.68
42 0.27
43 0.15
44 0.15
45 0.5
5 -0.68
6 -0.65
7 -0.57
8 0.03
9 -0.81

> <PUBCHEM_EFFECTIVE_ROTOR_COUNT>
7.2

> <PUBCHEM_PHARMACOPHORE_FEATURES>
17
1 1 acceptor
1 2 acceptor
1 3 acceptor
1 3 donor
1 4 acceptor
1 4 donor
1 5 acceptor
1 5 donor
1 6 acceptor
1 7 acceptor
1 8 cation
1 8 donor
1 9 cation
3 6 7 17 anion
5 8 15 18 19 21 rings
6 1 10 11 12 13 14 rings
6 15 16 19 22 24 25 rings

> <PUBCHEM_HEAVY_ATOM_COUNT>
27

> <PUBCHEM_ATOM_DEF_STEREO_COUNT>
5

> <PUBCHEM_ATOM_UDEF_STEREO_COUNT>
0

> <PUBCHEM_BOND_DEF_STEREO_COUNT>
0

> <PUBCHEM_BOND_UDEF_STEREO_COUNT>
0

> <PUBCHEM_ISOTOPIC_ATOM_COUNT>
0

> <PUBCHEM_COMPONENT_COUNT>
1

> <PUBCHEM_CACTVS_TAUTO_COUNT>
8

> <PUBCHEM_CONFORMER_ID>
06092AF900000001

> <PUBCHEM_MMFF94_ENERGY>
65.2909

> <PUBCHEM_FEATURE_SELFOVERLAP>
86.497

> <PUBCHEM_SHAPE_FINGERPRINT>
10165383 225 17200554824877381363
10764073 3 14281602949416596137
11421498 54 18263650726399372256
11578080 2 17905571705124637077
11595378 159 18270395113528443792
11725454 13 16916207863470123621
12788726 201 18410566302035447907
13009979 54 18336812200089774226
13583140 156 17900265501096289827
13965767 371 17973174940982029388
14787075 74 17758683625995959524
15403338 16 17821733823584736323
17974551 9 17898013434166107369
18219364 16 14404912465306942390
20600515 1 17772763907587194407
21033648 29 17772458011310388048
21133410 230 15813968050961966659
21427221 339 18043536014516284128
23366157 5 17187566586503325647
23559900 14 17476095527301798581
23598288 3 18409449193704984023
238 59 14547866448817947680
238918 7 17108459481510710500
35225 105 17988347192243476843
4938544 92 18056452025443415722
7097593 13 17969788466811523208
90316 7 18271250542317879039
9981440 41 18127124170242110873

> <PUBCHEM_SHAPE_MULTIPOLES>
504.6
7.7
4.93
2.14
5.94
4.87
0.18
0.9
2.91
-6.68
-0.75
1.45
-1.1
-2.7

> <PUBCHEM_SHAPE_SELFOVERLAP>
1075.907

> <PUBCHEM_SHAPE_VOLUME>
280.7

> <PUBCHEM_COORDINATE_TYPE>
2
5
10

$$$$
