101285674
  -OEChem-03292013293D

 62 64  0     1  0  0  0  0  0999 V2000
    1.6844    2.6767    1.2205 O   0  0  0  0  0  0  0  0  0  0  0  0
   -1.3048    0.6272   -1.8393 O   0  0  0  0  0  0  0  0  0  0  0  0
   -1.8363   -0.8804   -0.1398 O   0  0  0  0  0  0  0  0  0  0  0  0
   -3.7139    2.0205   -1.3267 O   0  0  0  0  0  0  0  0  0  0  0  0
   -5.7817    0.2591   -0.1853 O   0  0  0  0  0  0  0  0  0  0  0  0
   -4.7323   -1.1982    2.0797 O   0  0  0  0  0  0  0  0  0  0  0  0
    1.5623    2.4786    3.4996 O   0  0  0  0  0  0  0  0  0  0  0  0
   -0.7274   -2.5270    1.7616 O   0  0  0  0  0  0  0  0  0  0  0  0
    3.9128   -3.7676   -1.0107 O   0  0  0  0  0  0  0  0  0  0  0  0
    2.6196    0.5932    0.7045 C   0  0  2  0  0  0  0  0  0  0  0  0
    2.4069    2.0090    0.1677 C   0  0  1  0  0  0  0  0  0  0  0  0
    2.8746    0.8964    2.1876 C   0  0  1  0  0  0  0  0  0  0  0  0
    3.7874   -0.1688    0.0582 C   0  0  0  0  0  0  0  0  0  0  0  0
   -2.0520    0.4378   -0.6381 C   0  0  2  0  0  0  0  0  0  0  0  0
   -3.5299    0.6522   -0.9644 C   0  0  1  0  0  0  0  0  0  0  0  0
   -4.4179    0.3211    0.2352 C   0  0  2  0  0  0  0  0  0  0  0  0
    3.4483   -0.8592   -1.2693 C   0  0  0  0  0  0  0  0  0  0  0  0
    0.0979    0.4477   -1.6080 C   0  0  2  0  0  0  0  0  0  0  0  0
   -4.0479   -1.0331    0.8405 C   0  0  1  0  0  0  0  0  0  0  0  0
    1.7408    2.3463   -1.1373 C   0  0  0  0  0  0  0  0  0  0  0  0
    1.9691    2.0812    2.4189 C   0  0  0  0  0  0  0  0  0  0  0  0
   -2.5391   -1.1271    1.0795 C   0  0  1  0  0  0  0  0  0  0  0  0
    0.8147    1.7451   -1.9112 C   0  0  0  0  0  0  0  0  0  0  0  0
    2.5312   -0.2663    3.1056 C   0  0  0  0  0  0  0  0  0  0  0  0
    0.6075   -0.7088   -2.4870 C   0  0  0  0  0  0  0  0  0  0  0  0
    2.3903   -1.9374   -1.1464 C   0  0  0  0  0  0  0  0  0  0  0  0
    1.1539   -1.8487   -1.6742 C   0  0  0  0  0  0  0  0  0  0  0  0
   -2.1307   -2.5113    1.5737 C   0  0  0  0  0  0  0  0  0  0  0  0
    0.4159    2.4126   -3.2121 C   0  0  0  0  0  0  0  0  0  0  0  0
    2.7962   -3.1708   -0.3828 C   0  0  0  0  0  0  0  0  0  0  0  0
    1.7086   -0.0034    0.6674 H   0  0  0  0  0  0  0  0  0  0  0  0
    3.3901    2.5020    0.1227 H   0  0  0  0  0  0  0  0  0  0  0  0
    3.9075    1.2252    2.3544 H   0  0  0  0  0  0  0  0  0  0  0  0
    4.1706   -0.9207    0.7578 H   0  0  0  0  0  0  0  0  0  0  0  0
    4.6248    0.5197   -0.1140 H   0  0  0  0  0  0  0  0  0  0  0  0
   -1.7115    1.1797    0.0979 H   0  0  0  0  0  0  0  0  0  0  0  0
   -3.8210    0.0528   -1.8351 H   0  0  0  0  0  0  0  0  0  0  0  0
   -4.3673    1.1139    0.9908 H   0  0  0  0  0  0  0  0  0  0  0  0
    0.2493    0.2131   -0.5565 H   0  0  0  0  0  0  0  0  0  0  0  0
    4.3641   -1.3096   -1.6728 H   0  0  0  0  0  0  0  0  0  0  0  0
    3.1697   -0.0973   -2.0019 H   0  0  0  0  0  0  0  0  0  0  0  0
   -4.3802   -1.8380    0.1736 H   0  0  0  0  0  0  0  0  0  0  0  0
    2.1111    3.3034   -1.5136 H   0  0  0  0  0  0  0  0  0  0  0  0
   -2.2106   -0.3903    1.8252 H   0  0  0  0  0  0  0  0  0  0  0  0
    1.4781   -0.5541    3.0116 H   0  0  0  0  0  0  0  0  0  0  0  0
    2.6995    0.0077    4.1527 H   0  0  0  0  0  0  0  0  0  0  0  0
    3.1468   -1.1431    2.8845 H   0  0  0  0  0  0  0  0  0  0  0  0
    1.3699   -0.3813   -3.2035 H   0  0  0  0  0  0  0  0  0  0  0  0
   -0.2103   -1.1063   -3.1026 H   0  0  0  0  0  0  0  0  0  0  0  0
    0.4588   -2.6717   -1.5172 H   0  0  0  0  0  0  0  0  0  0  0  0
   -2.3757   -3.2781    0.8312 H   0  0  0  0  0  0  0  0  0  0  0  0
   -2.6151   -2.7584    2.5231 H   0  0  0  0  0  0  0  0  0  0  0  0
    0.5274    1.7204   -4.0525 H   0  0  0  0  0  0  0  0  0  0  0  0
    1.0278    3.2926   -3.4378 H   0  0  0  0  0  0  0  0  0  0  0  0
   -0.6270    2.7432   -3.1692 H   0  0  0  0  0  0  0  0  0  0  0  0
    1.9907   -3.9125   -0.3477 H   0  0  0  0  0  0  0  0  0  0  0  0
    3.0568   -2.9194    0.6498 H   0  0  0  0  0  0  0  0  0  0  0  0
   -3.4573    2.5707   -0.5671 H   0  0  0  0  0  0  0  0  0  0  0  0
   -5.8559   -0.4260   -0.8714 H   0  0  0  0  0  0  0  0  0  0  0  0
   -4.4338   -0.4968    2.6835 H   0  0  0  0  0  0  0  0  0  0  0  0
   -0.4877   -3.4192    2.0649 H   0  0  0  0  0  0  0  0  0  0  0  0
    4.1561   -4.5483   -0.4845 H   0  0  0  0  0  0  0  0  0  0  0  0
  1 11  1  0  0  0  0
  1 21  1  0  0  0  0
  2 14  1  0  0  0  0
  2 18  1  0  0  0  0
  3 14  1  0  0  0  0
  3 22  1  0  0  0  0
  4 15  1  0  0  0  0
  4 58  1  0  0  0  0
  5 16  1  0  0  0  0
  5 59  1  0  0  0  0
  6 19  1  0  0  0  0
  6 60  1  0  0  0  0
  7 21  2  0  0  0  0
  8 28  1  0  0  0  0
  8 61  1  0  0  0  0
  9 30  1  0  0  0  0
  9 62  1  0  0  0  0
 10 11  1  0  0  0  0
 10 12  1  0  0  0  0
 10 13  1  0  0  0  0
 10 31  1  0  0  0  0
 11 20  1  0  0  0  0
 11 32  1  0  0  0  0
 12 21  1  0  0  0  0
 12 24  1  0  0  0  0
 12 33  1  0  0  0  0
 13 17  1  0  0  0  0
 13 34  1  0  0  0  0
 13 35  1  0  0  0  0
 14 15  1  0  0  0  0
 14 36  1  0  0  0  0
 15 16  1  0  0  0  0
 15 37  1  0  0  0  0
 16 19  1  0  0  0  0
 16 38  1  0  0  0  0
 17 26  1  0  0  0  0
 17 40  1  0  0  0  0
 17 41  1  0  0  0  0
 18 23  1  0  0  0  0
 18 25  1  0  0  0  0
 18 39  1  0  0  0  0
 19 22  1  0  0  0  0
 19 42  1  0  0  0  0
 20 23  2  0  0  0  0
 20 43  1  0  0  0  0
 22 28  1  0  0  0  0
 22 44  1  0  0  0  0
 23 29  1  0  0  0  0
 24 45  1  0  0  0  0
 24 46  1  0  0  0  0
 24 47  1  0  0  0  0
 25 27  1  0  0  0  0
 25 48  1  0  0  0  0
 25 49  1  0  0  0  0
 26 27  2  0  0  0  0
 26 30  1  0  0  0  0
 27 50  1  0  0  0  0
 28 51  1  0  0  0  0
 28 52  1  0  0  0  0
 29 53  1  0  0  0  0
 29 54  1  0  0  0  0
 29 55  1  0  0  0  0
 30 56  1  0  0  0  0
 30 57  1  0  0  0  0
M  END
> <PUBCHEM_COMPOUND_CID>
101285674

> <PUBCHEM_CONFORMER_RMSD>
0.8

> <PUBCHEM_CONFORMER_DIVERSEORDER>
1
189
59
30
54
110
21
130
187
56
13
161
103
165
167
76
171
32
194
24
128
113
27
96
87
67
37
186
180
211
118
208
47
163
206
92
88
168
203
142
150
216
126
72
45
148
191
26
155
160
197
199
176
207
181
63
116
102
60
173
185
28
19
156
106
40
198
166
41
192
84
123
147
35
73
57
136
133
196
49
210
124
178
205
104
146
44
121
170
82
43
3
175
109
134
48
127
70
12
201
149
98
81
99
131
91
157
190
159
11
20
64
202
200
36
15
69
94
182
10
74
17
66
75
141
100
52
93
152
153
137
83
215
16
162
117
132
114
9
78
154
71
101
183
53
122
85
5
158
61
6
209
7
212
95
39
169
204
179
144
34
195
42
135
112
108
33
68
62
174
140
125
89
139
193
213
22
90
46
65
105
143
80
164
97
14
79
214
50
4
23
184
120
8
58
107
145
86
115
119
2
25
38
172
129
29
51
177
111
138
151
18
31
55
77
188

> <PUBCHEM_MMFF94_PARTIAL_CHARGES>
34
1 -0.43
11 0.42
12 0.06
14 0.56
15 0.28
16 0.28
17 0.14
18 0.42
19 0.28
2 -0.56
20 -0.29
21 0.66
22 0.28
23 -0.28
25 0.14
26 -0.28
27 -0.29
28 0.28
29 0.14
3 -0.56
30 0.42
4 -0.68
43 0.15
5 -0.68
50 0.15
58 0.4
59 0.4
6 -0.68
60 0.4
61 0.4
62 0.4
7 -0.57
8 -0.68
9 -0.68

> <PUBCHEM_EFFECTIVE_ROTOR_COUNT>
6.4

> <PUBCHEM_PHARMACOPHORE_FEATURES>
15
1 2 acceptor
1 3 acceptor
1 4 acceptor
1 4 donor
1 5 acceptor
1 5 donor
1 6 acceptor
1 6 donor
1 7 acceptor
1 8 acceptor
1 8 donor
1 9 acceptor
1 9 donor
5 1 10 11 12 21 rings
6 3 14 15 16 19 22 rings

> <PUBCHEM_HEAVY_ATOM_COUNT>
30

> <PUBCHEM_ATOM_DEF_STEREO_COUNT>
9

> <PUBCHEM_ATOM_UDEF_STEREO_COUNT>
0

> <PUBCHEM_BOND_DEF_STEREO_COUNT>
2

> <PUBCHEM_BOND_UDEF_STEREO_COUNT>
0

> <PUBCHEM_ISOTOPIC_ATOM_COUNT>
0

> <PUBCHEM_COMPONENT_COUNT>
1

> <PUBCHEM_CACTVS_TAUTO_COUNT>
2

> <PUBCHEM_CONFORMER_ID>
06097F2A00000001

> <PUBCHEM_MMFF94_ENERGY>
73.2394

> <PUBCHEM_FEATURE_SELFOVERLAP>
76.189

> <PUBCHEM_SHAPE_FINGERPRINT>
10366900 7 18272097122978812853
11640471 11 16270779303880370036
12156800 1 16689046364537757314
12166972 35 15841556249532940469
12553582 1 16878767405063929985
12633257 1 18042387157835112696
12655364 131 16338864328717046384
13134695 92 17917148299759881974
13583140 156 17774440611359079415
13726171 33 17386298583858976748
17349148 13 18115295826114296983
17974551 9 17985830328455086409
20600515 1 17749941159872184212
21033648 29 18340760464756050065
22749437 52 14692016937193345961
23419403 2 17982428431094353220
23559900 14 18187660119276484807
238 59 16557361537697679162
35225 105 16910311492011750606
394222 165 16558461002080639023
4409770 3 13961375762303802317
469060 322 17195422532327323471
474 4 16056607611428116909
6823239 73 18041288728533865662

> <PUBCHEM_SHAPE_MULTIPOLES>
564.56
8.18
3.56
3.34
10.64
0.9
2.22
2.44
1.64
-1.52
-1.13
-3.33
-0.79
2.91

> <PUBCHEM_SHAPE_SELFOVERLAP>
1164.685

> <PUBCHEM_SHAPE_VOLUME>
322.3

> <PUBCHEM_COORDINATE_TYPE>
2
5
10

$$$$
