101236717
  -OEChem-03292013293D

 52 57  0     1  0  0  0  0  0999 V2000
    1.9692   -1.0521   -2.3291 O   0  0  0  0  0  0  0  0  0  0  0  0
    2.5615   -2.2337    0.4437 O   0  0  0  0  0  0  0  0  0  0  0  0
   -2.9244    1.3843    0.7542 O   0  0  0  0  0  0  0  0  0  0  0  0
   -0.0009   -2.8687   -1.3459 O   0  0  0  0  0  0  0  0  0  0  0  0
   -3.0581   -2.0028    1.0649 O   0  0  0  0  0  0  0  0  0  0  0  0
    4.4774   -0.4543   -0.0435 O   0  0  0  0  0  0  0  0  0  0  0  0
   -4.0947    2.4207   -0.8711 O   0  0  0  0  0  0  0  0  0  0  0  0
    0.9341   -0.4747    1.0538 C   0  0  1  0  0  0  0  0  0  0  0  0
    0.7045    0.9838    0.5146 C   0  0  1  0  0  0  0  0  0  0  0  0
    0.4838    0.5957   -1.0344 C   0  0  1  0  0  0  0  0  0  0  0  0
   -0.3043   -1.3638    0.5586 C   0  0  1  0  0  0  0  0  0  0  0  0
    1.3013   -0.8057   -1.1384 C   0  0  2  0  0  0  0  0  0  0  0  0
   -1.4990   -0.4821    0.0833 C   0  0  2  0  0  0  0  0  0  0  0  0
    2.1165   -0.9162    0.1594 C   0  0  2  0  0  0  0  0  0  0  0  0
   -1.0717    0.2904   -1.2131 C   0  0  1  0  0  0  0  0  0  0  0  0
   -0.5490    1.5687    1.2098 C   0  0  0  0  0  0  0  0  0  0  0  0
   -1.7549    0.6222    1.1104 C   0  0  1  0  0  0  0  0  0  0  0  0
    0.2920   -1.8557   -0.7369 C   0  0  0  0  0  0  0  0  0  0  0  0
    1.9392    1.8730    0.7135 C   0  0  0  0  0  0  0  0  0  0  0  0
    1.1813   -0.6372    2.5499 C   0  0  0  0  0  0  0  0  0  0  0  0
    1.0020    1.5968   -2.0731 C   0  0  0  0  0  0  0  0  0  0  0  0
   -1.9619    1.5212   -1.4898 C   0  0  0  0  0  0  0  0  0  0  0  0
   -2.7392   -1.3601   -0.1513 C   0  0  0  0  0  0  0  0  0  0  0  0
    3.3509   -0.0311    0.2121 C   0  0  0  0  0  0  0  0  0  0  0  0
    3.1810    1.3868    0.5760 C   0  0  0  0  0  0  0  0  0  0  0  0
   -3.0935    1.7985   -0.5252 C   0  0  0  0  0  0  0  0  0  0  0  0
    1.7591    3.3379    1.0100 C   0  0  0  0  0  0  0  0  0  0  0  0
   -4.2023   -2.8420    0.9378 C   0  0  0  0  0  0  0  0  0  0  0  0
   -0.5319   -2.1880    1.2381 H   0  0  0  0  0  0  0  0  0  0  0  0
   -1.1755   -0.3607   -2.0938 H   0  0  0  0  0  0  0  0  0  0  0  0
   -0.7956    2.5527    0.7936 H   0  0  0  0  0  0  0  0  0  0  0  0
   -0.3466    1.7533    2.2730 H   0  0  0  0  0  0  0  0  0  0  0  0
   -1.9594    0.1874    2.0957 H   0  0  0  0  0  0  0  0  0  0  0  0
    1.4082   -1.6798    2.7978 H   0  0  0  0  0  0  0  0  0  0  0  0
    0.3011   -0.3536    3.1347 H   0  0  0  0  0  0  0  0  0  0  0  0
    2.0213   -0.0283    2.8970 H   0  0  0  0  0  0  0  0  0  0  0  0
    2.0958    1.6089   -2.1190 H   0  0  0  0  0  0  0  0  0  0  0  0
    0.6825    2.6199   -1.8578 H   0  0  0  0  0  0  0  0  0  0  0  0
    0.6431    1.3368   -3.0751 H   0  0  0  0  0  0  0  0  0  0  0  0
   -2.4262    1.3757   -2.4741 H   0  0  0  0  0  0  0  0  0  0  0  0
   -1.3872    2.4476   -1.5513 H   0  0  0  0  0  0  0  0  0  0  0  0
   -2.5346   -2.1156   -0.9191 H   0  0  0  0  0  0  0  0  0  0  0  0
   -3.5993   -0.7769   -0.4955 H   0  0  0  0  0  0  0  0  0  0  0  0
    4.0698    1.9969    0.6836 H   0  0  0  0  0  0  0  0  0  0  0  0
    1.3230   -0.9948   -3.0530 H   0  0  0  0  0  0  0  0  0  0  0  0
    3.0912   -2.5358   -0.3141 H   0  0  0  0  0  0  0  0  0  0  0  0
    1.1317    3.8128    0.2495 H   0  0  0  0  0  0  0  0  0  0  0  0
    2.7133    3.8766    1.0201 H   0  0  0  0  0  0  0  0  0  0  0  0
    1.2985    3.4815    1.9921 H   0  0  0  0  0  0  0  0  0  0  0  0
   -4.3934   -3.3101    1.9070 H   0  0  0  0  0  0  0  0  0  0  0  0
   -4.0196   -3.6280    0.1988 H   0  0  0  0  0  0  0  0  0  0  0  0
   -5.0792   -2.2521    0.6544 H   0  0  0  0  0  0  0  0  0  0  0  0
  1 12  1  0  0  0  0
  1 45  1  0  0  0  0
  2 14  1  0  0  0  0
  2 46  1  0  0  0  0
  3 17  1  0  0  0  0
  3 26  1  0  0  0  0
  4 18  2  0  0  0  0
  5 23  1  0  0  0  0
  5 28  1  0  0  0  0
  6 24  2  0  0  0  0
  7 26  2  0  0  0  0
  8  9  1  0  0  0  0
  8 11  1  0  0  0  0
  8 14  1  0  0  0  0
  8 20  1  0  0  0  0
  9 10  1  0  0  0  0
  9 16  1  0  0  0  0
  9 19  1  0  0  0  0
 10 12  1  0  0  0  0
 10 15  1  0  0  0  0
 10 21  1  0  0  0  0
 11 13  1  0  0  0  0
 11 18  1  0  0  0  0
 11 29  1  0  0  0  0
 12 14  1  0  0  0  0
 12 18  1  0  0  0  0
 13 15  1  0  0  0  0
 13 17  1  0  0  0  0
 13 23  1  0  0  0  0
 14 24  1  0  0  0  0
 15 22  1  0  0  0  0
 15 30  1  0  0  0  0
 16 17  1  0  0  0  0
 16 31  1  0  0  0  0
 16 32  1  0  0  0  0
 17 33  1  0  0  0  0
 19 25  2  0  0  0  0
 19 27  1  0  0  0  0
 20 34  1  0  0  0  0
 20 35  1  0  0  0  0
 20 36  1  0  0  0  0
 21 37  1  0  0  0  0
 21 38  1  0  0  0  0
 21 39  1  0  0  0  0
 22 26  1  0  0  0  0
 22 40  1  0  0  0  0
 22 41  1  0  0  0  0
 23 42  1  0  0  0  0
 23 43  1  0  0  0  0
 24 25  1  0  0  0  0
 25 44  1  0  0  0  0
 27 47  1  0  0  0  0
 27 48  1  0  0  0  0
 27 49  1  0  0  0  0
 28 50  1  0  0  0  0
 28 51  1  0  0  0  0
 28 52  1  0  0  0  0
M  END
> <PUBCHEM_COMPOUND_CID>
101236717

> <PUBCHEM_CONFORMER_RMSD>
0.6

> <PUBCHEM_CONFORMER_DIVERSEORDER>
1
2

> <PUBCHEM_MMFF94_PARTIAL_CHARGES>
24
1 -0.68
11 0.06
12 0.34
14 0.34
17 0.28
18 0.45
19 -0.28
2 -0.68
22 0.06
23 0.28
24 0.49
25 -0.14
26 0.66
27 0.14
28 0.28
3 -0.43
4 -0.57
44 0.15
45 0.4
46 0.4
5 -0.56
6 -0.57
7 -0.57
9 0.14

> <PUBCHEM_EFFECTIVE_ROTOR_COUNT>
2.6

> <PUBCHEM_PHARMACOPHORE_FEATURES>
11
1 1 acceptor
1 1 donor
1 2 acceptor
1 2 donor
1 4 acceptor
1 5 acceptor
1 6 acceptor
1 7 acceptor
11 8 9 10 11 12 13 14 15 16 17 18 rings
6 3 13 15 17 22 26 rings
8 8 9 10 12 14 19 24 25 rings

> <PUBCHEM_HEAVY_ATOM_COUNT>
28

> <PUBCHEM_ATOM_DEF_STEREO_COUNT>
9

> <PUBCHEM_ATOM_UDEF_STEREO_COUNT>
0

> <PUBCHEM_BOND_DEF_STEREO_COUNT>
0

> <PUBCHEM_BOND_UDEF_STEREO_COUNT>
0

> <PUBCHEM_ISOTOPIC_ATOM_COUNT>
0

> <PUBCHEM_COMPONENT_COUNT>
1

> <PUBCHEM_CACTVS_TAUTO_COUNT>
12

> <PUBCHEM_CONFORMER_ID>
0608BFED00000001

> <PUBCHEM_MMFF94_ENERGY>
152.971

> <PUBCHEM_FEATURE_SELFOVERLAP>
56.326

> <PUBCHEM_SHAPE_FINGERPRINT>
10863032 1 18408879607863462642
10906281 52 17984989193670135904
10948715 1 18410847742204118068
11578080 2 18335147500698733765
12293681 4 18270118989701779969
13140716 1 18342742888062119841
14223421 5 18337386166464907041
14787075 74 17175173934473959451
14790565 3 16752972559436124393
16945 1 18124576829122486314
18981168 100 17843095225145729576
20600515 1 18119533124393699084
20691752 17 17313675961087059113
22182313 1 18130518465289203750
2334 1 18343581879842758777
23419403 2 18192130801757754645
23493267 7 18336255756583817483
23559900 14 18267864974502634234
238 59 17985234535166061453
2748010 2 18272370875408951385
350125 39 18338804536180044209
4340502 62 18338800001596763549

> <PUBCHEM_SHAPE_MULTIPOLES>
535.14
5.63
3.09
1.82
2.15
0.33
0.22
-0.48
-0.82
1.36
-0.04
-0.33
-0.01
1.2

> <PUBCHEM_SHAPE_SELFOVERLAP>
1233.041

> <PUBCHEM_SHAPE_VOLUME>
273.6

> <PUBCHEM_COORDINATE_TYPE>
2
5
10

$$$$
