101278428
  -OEChem-03292013293D

 68 68  0     1  0  0  0  0  0999 V2000
    9.9421    0.0775   -1.1008 O   0  0  0  0  0  0  0  0  0  0  0  0
   -6.9194    0.8518   -2.1429 O   0  0  0  0  0  0  0  0  0  0  0  0
   -4.3614   -2.1151    0.4678 O   0  0  0  0  0  0  0  0  0  0  0  0
   -4.2120    1.4833   -1.9593 O   0  0  0  0  0  0  0  0  0  0  0  0
   -8.7056    1.6477    3.0472 O   0  0  0  0  0  0  0  0  0  0  0  0
  -10.3809    0.7548    1.8000 O   0  0  0  0  0  0  0  0  0  0  0  0
   -6.6605   -1.9634   -0.0921 N   0  0  0  0  0  0  0  0  0  0  0  0
    9.5099   -0.9138   -0.1510 C   0  0  1  0  0  0  0  0  0  0  0  0
   -7.5824   -1.1165   -0.8682 C   0  0  1  0  0  0  0  0  0  0  0  0
   10.7730   -1.7082    0.2693 C   0  0  0  0  0  0  0  0  0  0  0  0
    8.7176   -0.1598    0.9488 C   0  0  2  0  0  0  0  0  0  0  0  0
   -8.6585   -0.4625   -0.0211 C   0  0  0  0  0  0  0  0  0  0  0  0
   -6.6227   -0.0840   -1.4189 C   0  0  0  0  0  0  0  0  0  0  0  0
   -5.2626   -0.3862   -0.9314 C   0  0  0  0  0  0  0  0  0  0  0  0
   11.4356   -2.4526   -0.8922 C   0  0  0  0  0  0  0  0  0  0  0  0
   11.7962   -0.8720    1.0380 C   0  0  0  0  0  0  0  0  0  0  0  0
   -5.3118   -1.5911   -0.0851 C   0  0  0  0  0  0  0  0  0  0  0  0
    8.4886   -0.9720    2.2234 C   0  0  0  0  0  0  0  0  0  0  0  0
    7.3512    0.2381    0.4084 C   0  0  0  0  0  0  0  0  0  0  0  0
   -8.0942    0.2863    1.1821 C   0  0  0  0  0  0  0  0  0  0  0  0
   -7.1453   -3.1571    0.5750 C   0  0  0  0  0  0  0  0  0  0  0  0
    6.8385    1.4764    0.2637 C   0  0  0  0  0  0  0  0  0  0  0  0
   -4.1595    0.3220   -1.2131 C   0  0  0  0  0  0  0  0  0  0  0  0
   -9.1857    0.9117    2.0148 C   0  0  0  0  0  0  0  0  0  0  0  0
    7.6535    2.6948    0.6070 C   0  0  0  0  0  0  0  0  0  0  0  0
    5.5189    1.7828   -0.2622 C   0  0  0  0  0  0  0  0  0  0  0  0
   -2.8292    0.0165   -0.7289 C   0  0  0  0  0  0  0  0  0  0  0  0
    4.4080    1.0820    0.0126 C   0  0  0  0  0  0  0  0  0  0  0  0
   -1.7200    0.7201   -1.0062 C   0  0  0  0  0  0  0  0  0  0  0  0
    3.1055    1.4310   -0.5106 C   0  0  0  0  0  0  0  0  0  0  0  0
   -0.4164    0.3732   -0.4818 C   0  0  0  0  0  0  0  0  0  0  0  0
    1.9963    0.7287   -0.2343 C   0  0  0  0  0  0  0  0  0  0  0  0
    0.6930    1.0756   -0.7580 C   0  0  0  0  0  0  0  0  0  0  0  0
    8.8336   -1.5978   -0.6810 H   0  0  0  0  0  0  0  0  0  0  0  0
   -7.9927   -1.7111   -1.6906 H   0  0  0  0  0  0  0  0  0  0  0  0
   10.4303   -2.4901    0.9606 H   0  0  0  0  0  0  0  0  0  0  0  0
    9.2816    0.7360    1.2309 H   0  0  0  0  0  0  0  0  0  0  0  0
   -9.2437    0.2296   -0.6404 H   0  0  0  0  0  0  0  0  0  0  0  0
   -9.3612   -1.2299    0.3275 H   0  0  0  0  0  0  0  0  0  0  0  0
   12.2198   -3.1225   -0.5231 H   0  0  0  0  0  0  0  0  0  0  0  0
   10.7041   -3.0618   -1.4330 H   0  0  0  0  0  0  0  0  0  0  0  0
   11.8988   -1.7607   -1.6029 H   0  0  0  0  0  0  0  0  0  0  0  0
   12.6278   -1.4994    1.3774 H   0  0  0  0  0  0  0  0  0  0  0  0
   12.2139   -0.0824    0.4043 H   0  0  0  0  0  0  0  0  0  0  0  0
   11.3652   -0.3967    1.9224 H   0  0  0  0  0  0  0  0  0  0  0  0
    7.9901   -1.9235    2.0049 H   0  0  0  0  0  0  0  0  0  0  0  0
    9.4264   -1.1987    2.7373 H   0  0  0  0  0  0  0  0  0  0  0  0
    7.8608   -0.4212    2.9337 H   0  0  0  0  0  0  0  0  0  0  0  0
    6.7274   -0.6073    0.1154 H   0  0  0  0  0  0  0  0  0  0  0  0
   -7.5358   -0.3878    1.8396 H   0  0  0  0  0  0  0  0  0  0  0  0
   -7.4327    1.0956    0.8551 H   0  0  0  0  0  0  0  0  0  0  0  0
   -7.8670   -2.8750    1.3453 H   0  0  0  0  0  0  0  0  0  0  0  0
   -6.3184   -3.6987    1.0418 H   0  0  0  0  0  0  0  0  0  0  0  0
   -7.6274   -3.8020   -0.1647 H   0  0  0  0  0  0  0  0  0  0  0  0
   10.1688   -0.3833   -1.9259 H   0  0  0  0  0  0  0  0  0  0  0  0
    7.6666    2.8483    1.6914 H   0  0  0  0  0  0  0  0  0  0  0  0
    8.6840    2.6083    0.2471 H   0  0  0  0  0  0  0  0  0  0  0  0
    7.2516    3.6067    0.1505 H   0  0  0  0  0  0  0  0  0  0  0  0
    5.4543    2.6564   -0.9080 H   0  0  0  0  0  0  0  0  0  0  0  0
   -2.6906   -0.8426   -0.0863 H   0  0  0  0  0  0  0  0  0  0  0  0
   -5.1284    1.6500   -2.2334 H   0  0  0  0  0  0  0  0  0  0  0  0
    4.4560    0.2156    0.6683 H   0  0  0  0  0  0  0  0  0  0  0  0
   -1.7643    1.5983   -1.6457 H   0  0  0  0  0  0  0  0  0  0  0  0
   -9.4269    2.0375    3.5858 H   0  0  0  0  0  0  0  0  0  0  0  0
    3.0490    2.3051   -1.1556 H   0  0  0  0  0  0  0  0  0  0  0  0
   -0.3575   -0.5009    0.1630 H   0  0  0  0  0  0  0  0  0  0  0  0
    2.0531   -0.1459    0.4101 H   0  0  0  0  0  0  0  0  0  0  0  0
    0.6363    1.9499   -1.4028 H   0  0  0  0  0  0  0  0  0  0  0  0
  1  8  1  0  0  0  0
  1 55  1  0  0  0  0
  2 13  2  0  0  0  0
  3 17  2  0  0  0  0
  4 23  1  0  0  0  0
  4 61  1  0  0  0  0
  5 24  1  0  0  0  0
  5 64  1  0  0  0  0
  6 24  2  0  0  0  0
  7  9  1  0  0  0  0
  7 17  1  0  0  0  0
  7 21  1  0  0  0  0
  8 10  1  0  0  0  0
  8 11  1  0  0  0  0
  8 34  1  0  0  0  0
  9 12  1  0  0  0  0
  9 13  1  0  0  0  0
  9 35  1  0  0  0  0
 10 15  1  0  0  0  0
 10 16  1  0  0  0  0
 10 36  1  0  0  0  0
 11 18  1  0  0  0  0
 11 19  1  0  0  0  0
 11 37  1  0  0  0  0
 12 20  1  0  0  0  0
 12 38  1  0  0  0  0
 12 39  1  0  0  0  0
 13 14  1  0  0  0  0
 14 17  1  0  0  0  0
 14 23  2  3  0  0  0
 15 40  1  0  0  0  0
 15 41  1  0  0  0  0
 15 42  1  0  0  0  0
 16 43  1  0  0  0  0
 16 44  1  0  0  0  0
 16 45  1  0  0  0  0
 18 46  1  0  0  0  0
 18 47  1  0  0  0  0
 18 48  1  0  0  0  0
 19 22  2  0  0  0  0
 19 49  1  0  0  0  0
 20 24  1  0  0  0  0
 20 50  1  0  0  0  0
 20 51  1  0  0  0  0
 21 52  1  0  0  0  0
 21 53  1  0  0  0  0
 21 54  1  0  0  0  0
 22 25  1  0  0  0  0
 22 26  1  0  0  0  0
 23 27  1  0  0  0  0
 25 56  1  0  0  0  0
 25 57  1  0  0  0  0
 25 58  1  0  0  0  0
 26 28  2  0  0  0  0
 26 59  1  0  0  0  0
 27 29  2  0  0  0  0
 27 60  1  0  0  0  0
 28 30  1  0  0  0  0
 28 62  1  0  0  0  0
 29 31  1  0  0  0  0
 29 63  1  0  0  0  0
 30 32  2  0  0  0  0
 30 65  1  0  0  0  0
 31 33  2  0  0  0  0
 31 66  1  0  0  0  0
 32 33  1  0  0  0  0
 32 67  1  0  0  0  0
 33 68  1  0  0  0  0
M  END
> <PUBCHEM_COMPOUND_CID>
101278428

> <PUBCHEM_CONFORMER_RMSD>
1.2

> <PUBCHEM_CONFORMER_DIVERSEORDER>
1
44
61
154
138
72
87
76
141
127
160
118
67
71
19
70
134
64
146
11
152
151
55
82
150
144
10
53
125
122
106
26
30
74
101
130
153
135
5
58
96
124
149
105
114
159
28
113
42
136
131
77
23
90
63
155
43
83
60
6
97
128
104
24
39
147
17
33
12
52
81
133
51
156
68
110
8
45
29
27
100
98
7
95
57
37
99
75
119
40
46
31
69
14
54
38
85
48
80
3
65
50
22
157
41
9
137
143
111
34
148
120
62
142
25
78
86
66
107
94
129
56
15
18
108
132
91
13
35
32
139
102
21
103
36
47
88
117
109
145
115
93
116
20
73
121
4
89
158
92
140
123
112
2
59
126
79
16
84
49

> <PUBCHEM_MMFF94_PARTIAL_CHARGES>
40
1 -0.68
11 0.14
13 0.49
14 0.03
17 0.62
19 -0.29
2 -0.57
20 0.06
21 0.3
22 -0.14
23 0.08
24 0.66
25 0.14
26 -0.15
27 -0.15
28 -0.15
29 -0.15
3 -0.57
30 -0.15
31 -0.15
32 -0.15
33 -0.15
4 -0.53
49 0.15
5 -0.65
55 0.4
59 0.15
6 -0.57
60 0.15
61 0.45
62 0.15
63 0.15
64 0.5
65 0.15
66 0.15
67 0.15
68 0.15
7 -0.66
8 0.28
9 0.36

> <PUBCHEM_EFFECTIVE_ROTOR_COUNT>
11.4

> <PUBCHEM_PHARMACOPHORE_FEATURES>
13
1 1 acceptor
1 1 donor
1 14 anion
1 18 hydrophobe
1 2 acceptor
1 25 hydrophobe
1 3 acceptor
1 4 donor
1 5 acceptor
1 6 acceptor
3 10 15 16 hydrophobe
3 5 6 24 anion
5 7 9 13 14 17 rings

> <PUBCHEM_HEAVY_ATOM_COUNT>
33

> <PUBCHEM_ATOM_DEF_STEREO_COUNT>
0

> <PUBCHEM_ATOM_UDEF_STEREO_COUNT>
3

> <PUBCHEM_BOND_DEF_STEREO_COUNT>
5

> <PUBCHEM_BOND_UDEF_STEREO_COUNT>
1

> <PUBCHEM_ISOTOPIC_ATOM_COUNT>
0

> <PUBCHEM_COMPONENT_COUNT>
1

> <PUBCHEM_CACTVS_TAUTO_COUNT>
106

> <PUBCHEM_CONFORMER_ID>
060962DC00000001

> <PUBCHEM_MMFF94_ENERGY>
66.4052

> <PUBCHEM_FEATURE_SELFOVERLAP>
66.03

> <PUBCHEM_SHAPE_FINGERPRINT>
10168742 298 16081088139590365578
11061554 47 11887680576247365426
11456790 92 17346317133185631696
11638347 137 18342453756145183332
12089408 11 17989203784953498404
12559415 141 18186810154129834594
12728209 37 16056876944996706622
13553643 46 14333410060406339490
13947947 19 13190343474271500034
14344974 52 14201404898315747508
15510794 2 18260823826934916356
1754911 235 12540695908482889534
1818759 1 17022902358758461296
20105231 36 17675926512213851107
21095123 145 13767927936238219353
21362267 20 18335416928002717610
21362267 313 17203334386636963936
21792934 111 14979958065411126808
21792961 116 18341886381695342069
232437 2 18260826012392638878
306946 40 13973964277041303185
44280117 145 10737285758752220529
44389302 135 18131628960103742030
45377200 153 16081374080499465257
5028188 123 12396295964080739439
54039377 194 16588026823108321365
54583773 228 12757153493255530696
6126387 218 16559032679660982297
6201320 215 17274546421472896945
636775 8 15140967262205550257
6673363 416 8070028870219906119

> <PUBCHEM_SHAPE_MULTIPOLES>
638.93
52.23
2.38
1.82
66.72
0.94
-0.92
18.75
-17.47
1.52
-0.27
-4.15
-0.56
-0.98

> <PUBCHEM_SHAPE_SELFOVERLAP>
1289.272

> <PUBCHEM_SHAPE_VOLUME>
371

> <PUBCHEM_COORDINATE_TYPE>
2
5
10

$$$$
