101247525
  -OEChem-03292013293D

 70 75  0     1  0  0  0  0  0999 V2000
    1.8635    1.3775   -1.7905 O   0  0  0  0  0  0  0  0  0  0  0  0
    3.9802    1.2968    0.1119 O   0  0  0  0  0  0  0  0  0  0  0  0
   -0.9386    1.8011    0.7174 O   0  0  0  0  0  0  0  0  0  0  0  0
   -3.1380    1.0758   -2.0916 O   0  0  0  0  0  0  0  0  0  0  0  0
    3.4116    3.4771    0.4062 O   0  0  0  0  0  0  0  0  0  0  0  0
   -5.7752   -1.8412    1.8673 O   0  0  0  0  0  0  0  0  0  0  0  0
    6.0527   -2.7538    0.2176 O   0  0  0  0  0  0  0  0  0  0  0  0
   -1.5021    3.9945    0.2612 O   0  0  0  0  0  0  0  0  0  0  0  0
    1.2473    0.6605   -0.6814 C   0  0  1  0  0  0  0  0  0  0  0  0
   -0.2476    0.2840   -1.0561 C   0  0  1  0  0  0  0  0  0  0  0  0
   -0.6840   -1.0172   -0.2844 C   0  0  1  0  0  0  0  0  0  0  0  0
    2.1588   -0.4076   -0.0475 C   0  0  1  0  0  0  0  0  0  0  0  0
    1.7835    2.0877   -0.5687 C   0  0  1  0  0  0  0  0  0  0  0  0
   -2.2209   -1.4272   -0.4074 C   0  0  1  0  0  0  0  0  0  0  0  0
   -1.2074    1.4453   -0.6470 C   0  0  1  0  0  0  0  0  0  0  0  0
    0.3205   -2.1817   -0.4691 C   0  0  0  0  0  0  0  0  0  0  0  0
    1.7858   -1.7723   -0.6554 C   0  0  0  0  0  0  0  0  0  0  0  0
   -3.0719   -0.1756    0.0343 C   0  0  1  0  0  0  0  0  0  0  0  0
   -2.7120    1.1188   -0.7420 C   0  0  2  0  0  0  0  0  0  0  0  0
    3.6478   -0.0300   -0.4004 C   0  0  2  0  0  0  0  0  0  0  0  0
   -0.3102    0.0800   -2.5962 C   0  0  0  0  0  0  0  0  0  0  0  0
    2.0175   -0.4186    1.4974 C   0  0  0  0  0  0  0  0  0  0  0  0
   -4.6026   -0.4544    0.2491 C   0  0  0  0  0  0  0  0  0  0  0  0
    3.1169    2.3532    0.0186 C   0  0  0  0  0  0  0  0  0  0  0  0
   -2.5865   -2.0077   -1.7917 C   0  0  0  0  0  0  0  0  0  0  0  0
   -2.5421   -2.5477    0.5800 C   0  0  0  0  0  0  0  0  0  0  0  0
    4.6487   -1.0019    0.1098 C   0  0  0  0  0  0  0  0  0  0  0  0
   -4.7525   -1.6494    1.2075 C   0  0  0  0  0  0  0  0  0  0  0  0
   -3.6588   -2.6450    1.3098 C   0  0  0  0  0  0  0  0  0  0  0  0
   -5.4250   -0.7713   -1.0077 C   0  0  0  0  0  0  0  0  0  0  0  0
   -5.2661    0.7646    0.9364 C   0  0  0  0  0  0  0  0  0  0  0  0
   -1.1305    3.1136    1.0248 C   0  0  0  0  0  0  0  0  0  0  0  0
    5.2751   -0.9935    1.3790 C   0  0  0  0  0  0  0  0  0  0  0  0
    5.1554   -2.0920   -0.5590 C   0  0  0  0  0  0  0  0  0  0  0  0
    6.1198   -2.0790    1.3952 C   0  0  0  0  0  0  0  0  0  0  0  0
   -0.8132    3.3366    2.4725 C   0  0  0  0  0  0  0  0  0  0  0  0
   -0.5971   -0.7591    0.7770 H   0  0  0  0  0  0  0  0  0  0  0  0
    1.1019    2.9250   -0.5488 H   0  0  0  0  0  0  0  0  0  0  0  0
   -0.9894    2.2948   -1.3087 H   0  0  0  0  0  0  0  0  0  0  0  0
    0.0459   -2.8283   -1.3072 H   0  0  0  0  0  0  0  0  0  0  0  0
    0.2763   -2.8199    0.4226 H   0  0  0  0  0  0  0  0  0  0  0  0
    2.4069   -2.5743   -0.2399 H   0  0  0  0  0  0  0  0  0  0  0  0
    2.0041   -1.7561   -1.7312 H   0  0  0  0  0  0  0  0  0  0  0  0
   -2.7196    0.0400    1.0595 H   0  0  0  0  0  0  0  0  0  0  0  0
   -3.2554    1.9504   -0.2828 H   0  0  0  0  0  0  0  0  0  0  0  0
    3.7828    0.0225   -1.4897 H   0  0  0  0  0  0  0  0  0  0  0  0
   -0.0695    1.0070   -3.1302 H   0  0  0  0  0  0  0  0  0  0  0  0
   -1.2876   -0.2128   -2.9657 H   0  0  0  0  0  0  0  0  0  0  0  0
    0.4020   -0.6787   -2.9342 H   0  0  0  0  0  0  0  0  0  0  0  0
    2.4756    0.4618    1.9602 H   0  0  0  0  0  0  0  0  0  0  0  0
    2.4863   -1.3069    1.9339 H   0  0  0  0  0  0  0  0  0  0  0  0
    0.9843   -0.4103    1.8419 H   0  0  0  0  0  0  0  0  0  0  0  0
   -3.0235   -1.2692   -2.4641 H   0  0  0  0  0  0  0  0  0  0  0  0
   -3.3192   -2.8215   -1.7248 H   0  0  0  0  0  0  0  0  0  0  0  0
   -1.7270   -2.4416   -2.3086 H   0  0  0  0  0  0  0  0  0  0  0  0
   -1.8323   -3.3655    0.6704 H   0  0  0  0  0  0  0  0  0  0  0  0
   -3.8132   -3.4883    1.9742 H   0  0  0  0  0  0  0  0  0  0  0  0
   -2.9104    1.9268   -2.5029 H   0  0  0  0  0  0  0  0  0  0  0  0
   -5.1749   -1.7399   -1.4437 H   0  0  0  0  0  0  0  0  0  0  0  0
   -6.2942    0.5452    1.2486 H   0  0  0  0  0  0  0  0  0  0  0  0
   -4.7162    1.0602    1.8372 H   0  0  0  0  0  0  0  0  0  0  0  0
   -5.3221    1.6282    0.2660 H   0  0  0  0  0  0  0  0  0  0  0  0
   -6.4935   -0.8326   -0.7633 H   0  0  0  0  0  0  0  0  0  0  0  0
   -5.3220   -0.0015   -1.7760 H   0  0  0  0  0  0  0  0  0  0  0  0
    5.1352   -0.2883    2.1859 H   0  0  0  0  0  0  0  0  0  0  0  0
    4.9901   -2.5119   -1.5408 H   0  0  0  0  0  0  0  0  0  0  0  0
    6.7998   -2.4862    2.1291 H   0  0  0  0  0  0  0  0  0  0  0  0
   -0.9610    4.3921    2.7180 H   0  0  0  0  0  0  0  0  0  0  0  0
    0.2307    3.0768    2.6665 H   0  0  0  0  0  0  0  0  0  0  0  0
   -1.4819    2.7365    3.0947 H   0  0  0  0  0  0  0  0  0  0  0  0
  1  9  1  0  0  0  0
  1 13  1  0  0  0  0
  2 20  1  0  0  0  0
  2 24  1  0  0  0  0
  3 15  1  0  0  0  0
  3 32  1  0  0  0  0
  4 19  1  0  0  0  0
  4 58  1  0  0  0  0
  5 24  2  0  0  0  0
  6 28  2  0  0  0  0
  7 34  1  0  0  0  0
  7 35  1  0  0  0  0
  8 32  2  0  0  0  0
  9 10  1  0  0  0  0
  9 12  1  0  0  0  0
  9 13  1  0  0  0  0
 10 11  1  0  0  0  0
 10 15  1  0  0  0  0
 10 21  1  0  0  0  0
 11 14  1  0  0  0  0
 11 16  1  0  0  0  0
 11 37  1  0  0  0  0
 12 17  1  0  0  0  0
 12 20  1  0  0  0  0
 12 22  1  0  0  0  0
 13 24  1  0  0  0  0
 13 38  1  0  0  0  0
 14 18  1  0  0  0  0
 14 25  1  0  0  0  0
 14 26  1  0  0  0  0
 15 19  1  0  0  0  0
 15 39  1  0  0  0  0
 16 17  1  0  0  0  0
 16 40  1  0  0  0  0
 16 41  1  0  0  0  0
 17 42  1  0  0  0  0
 17 43  1  0  0  0  0
 18 19  1  0  0  0  0
 18 23  1  0  0  0  0
 18 44  1  0  0  0  0
 19 45  1  0  0  0  0
 20 27  1  0  0  0  0
 20 46  1  0  0  0  0
 21 47  1  0  0  0  0
 21 48  1  0  0  0  0
 21 49  1  0  0  0  0
 22 50  1  0  0  0  0
 22 51  1  0  0  0  0
 22 52  1  0  0  0  0
 23 28  1  0  0  0  0
 23 30  1  0  0  0  0
 23 31  1  0  0  0  0
 25 53  1  0  0  0  0
 25 54  1  0  0  0  0
 25 55  1  0  0  0  0
 26 29  2  0  0  0  0
 26 56  1  0  0  0  0
 27 33  1  0  0  0  0
 27 34  2  0  0  0  0
 28 29  1  0  0  0  0
 29 57  1  0  0  0  0
 30 59  1  0  0  0  0
 30 63  1  0  0  0  0
 30 64  1  0  0  0  0
 31 60  1  0  0  0  0
 31 61  1  0  0  0  0
 31 62  1  0  0  0  0
 32 36  1  0  0  0  0
 33 35  2  0  0  0  0
 33 65  1  0  0  0  0
 34 66  1  0  0  0  0
 35 67  1  0  0  0  0
 36 68  1  0  0  0  0
 36 69  1  0  0  0  0
 36 70  1  0  0  0  0
M  END
> <PUBCHEM_COMPOUND_CID>
101247525

> <PUBCHEM_CONFORMER_RMSD>
0.8

> <PUBCHEM_CONFORMER_DIVERSEORDER>
1

> <PUBCHEM_MMFF94_PARTIAL_CHARGES>
34
1 -0.3
10 0.09
12 0.09
13 0.05
14 0.14
15 0.28
19 0.28
2 -0.43
20 0.46
23 0.06
24 0.72
26 -0.29
27 -0.18
28 0.49
29 -0.14
3 -0.43
32 0.66
33 -0.15
34 -0.01
35 -0.01
36 0.06
38 0.1
4 -0.68
5 -0.57
56 0.15
57 0.15
58 0.4
6 -0.57
65 0.15
66 0.15
67 0.15
7 -0.28
8 -0.57
9 -0.04

> <PUBCHEM_EFFECTIVE_ROTOR_COUNT>
4.6

> <PUBCHEM_PHARMACOPHORE_FEATURES>
13
1 1 acceptor
1 4 acceptor
1 4 donor
1 5 acceptor
1 6 acceptor
1 7 acceptor
1 8 acceptor
3 23 30 31 hydrophobe
5 7 27 33 34 35 rings
6 10 11 14 15 18 19 rings
6 14 18 23 26 28 29 rings
6 9 10 11 12 16 17 rings
7 1 2 9 12 13 20 24 rings

> <PUBCHEM_HEAVY_ATOM_COUNT>
36

> <PUBCHEM_ATOM_DEF_STEREO_COUNT>
10

> <PUBCHEM_ATOM_UDEF_STEREO_COUNT>
0

> <PUBCHEM_BOND_DEF_STEREO_COUNT>
0

> <PUBCHEM_BOND_UDEF_STEREO_COUNT>
0

> <PUBCHEM_ISOTOPIC_ATOM_COUNT>
0

> <PUBCHEM_COMPONENT_COUNT>
1

> <PUBCHEM_CACTVS_TAUTO_COUNT>
2

> <PUBCHEM_CONFORMER_ID>
0608EA2500000001

> <PUBCHEM_MMFF94_ENERGY>
139.8461

> <PUBCHEM_FEATURE_SELFOVERLAP>
66.021

> <PUBCHEM_SHAPE_FINGERPRINT>
10006869 2 18059582428761936169
11135609 12 18408317800740926056
11135926 11 18193830668937672204
11456790 92 18337968844173628707
12107698 1 18408882910624903962
12422481 6 18341898480338594263
12633257 1 18411423903513845659
12788726 201 18272385169382353240
13009979 54 18408892806725491076
131258 38 17756426319955579651
13140716 1 18410577318146520599
13383661 66 15142689122567533952
13782708 43 18040151816299747386
13811026 1 18335134315908303111
14068700 675 18411132515641547146
14341114 176 18261115188008542018
14705955 166 17631158702725620832
14790565 3 17473550629776635500
14955137 171 18339364072241055246
15238133 3 16988294122014348699
15475509 84 18343026579532612344
17349148 13 18410854339310587438
1813 80 16298945480237567151
19319366 153 17908426097498304004
20028762 73 18343857823113557198
21033648 29 17416100829766343138
22121540 332 13325188554853707739
22223350 30 17986103235040789171
23559900 14 18113896099865721591
24893992 56 18410016529980674833
350125 39 18410016528957281684
3680242 22 18341623636944220329
392239 28 18342186548548533833
469060 322 17459475446922100886
5104073 3 18409452513413985033
79837 15 17767978532193608304
9896288 288 17984142548347004376

> <PUBCHEM_SHAPE_MULTIPOLES>
693.91
12.1
3.91
1.82
5.42
2.84
-0.1
-8.67
4.36
0.7
1.46
-0.98
0.19
-0.12

> <PUBCHEM_SHAPE_SELFOVERLAP>
1517.089

> <PUBCHEM_SHAPE_VOLUME>
366.8

> <PUBCHEM_COORDINATE_TYPE>
2
5
10

$$$$
