101293596
  -OEChem-03292013293D

 30 32  0     1  0  0  0  0  0999 V2000
    2.6515    1.2997   -0.2572 O   0  0  0  0  0  0  0  0  0  0  0  0
    0.3001   -2.8867    0.0003 O   0  0  0  0  0  0  0  0  0  0  0  0
    0.3625    2.6318   -0.1822 O   0  0  0  0  0  0  0  0  0  0  0  0
   -2.2121   -2.9066    0.1340 O   0  0  0  0  0  0  0  0  0  0  0  0
   -2.2370    2.5634   -0.0450 O   0  0  0  0  0  0  0  0  0  0  0  0
   -4.5116    1.2199    0.1116 O   0  0  0  0  0  0  0  0  0  0  0  0
    1.4940   -0.8377   -0.1236 C   0  0  0  0  0  0  0  0  0  0  0  0
    1.5081    0.5563   -0.1676 C   0  0  0  0  0  0  0  0  0  0  0  0
   -0.9492   -0.8198    0.0003 C   0  0  0  0  0  0  0  0  0  0  0  0
   -0.9064    0.5811   -0.0476 C   0  0  0  0  0  0  0  0  0  0  0  0
    3.9216    0.6253   -0.1972 C   0  0  2  0  0  0  0  0  0  0  0  0
    0.2695   -1.5182   -0.0403 C   0  0  0  0  0  0  0  0  0  0  0  0
    0.3093    1.2687   -0.1324 C   0  0  0  0  0  0  0  0  0  0  0  0
    2.7472   -1.5735   -0.1749 C   0  0  0  0  0  0  0  0  0  0  0  0
    3.8851   -0.8773   -0.2076 C   0  0  0  0  0  0  0  0  0  0  0  0
   -2.2413   -1.5249    0.0889 C   0  0  0  0  0  0  0  0  0  0  0  0
   -2.1667    1.3450   -0.0087 C   0  0  0  0  0  0  0  0  0  0  0  0
    4.6521    1.1370    1.0417 C   0  0  0  0  0  0  0  0  0  0  0  0
   -3.4133   -0.8775    0.1268 C   0  0  0  0  0  0  0  0  0  0  0  0
   -3.4633    0.5940    0.0806 C   0  0  0  0  0  0  0  0  0  0  0  0
    4.4774    0.9502   -1.0849 H   0  0  0  0  0  0  0  0  0  0  0  0
    2.7805   -2.6546   -0.2074 H   0  0  0  0  0  0  0  0  0  0  0  0
    4.8315   -1.4089   -0.2561 H   0  0  0  0  0  0  0  0  0  0  0  0
    4.1054    0.8774    1.9557 H   0  0  0  0  0  0  0  0  0  0  0  0
    4.7222    2.2302    1.0187 H   0  0  0  0  0  0  0  0  0  0  0  0
    5.6645    0.7263    1.1131 H   0  0  0  0  0  0  0  0  0  0  0  0
   -4.3593   -1.4038    0.1922 H   0  0  0  0  0  0  0  0  0  0  0  0
    1.0119   -3.1721    0.5968 H   0  0  0  0  0  0  0  0  0  0  0  0
   -0.5262    3.0166   -0.1587 H   0  0  0  0  0  0  0  0  0  0  0  0
   -3.1264   -3.2337    0.1912 H   0  0  0  0  0  0  0  0  0  0  0  0
  1  8  1  0  0  0  0
  1 11  1  0  0  0  0
  2 12  1  0  0  0  0
  2 28  1  0  0  0  0
  3 13  1  0  0  0  0
  3 29  1  0  0  0  0
  4 16  1  0  0  0  0
  4 30  1  0  0  0  0
  5 17  2  0  0  0  0
  6 20  2  0  0  0  0
  7  8  1  0  0  0  0
  7 12  2  0  0  0  0
  7 14  1  0  0  0  0
  8 13  2  0  0  0  0
  9 10  2  0  0  0  0
  9 12  1  0  0  0  0
  9 16  1  0  0  0  0
 10 13  1  0  0  0  0
 10 17  1  0  0  0  0
 11 15  1  0  0  0  0
 11 18  1  0  0  0  0
 11 21  1  0  0  0  0
 14 15  2  0  0  0  0
 14 22  1  0  0  0  0
 15 23  1  0  0  0  0
 16 19  2  0  0  0  0
 17 20  1  0  0  0  0
 18 24  1  0  0  0  0
 18 25  1  0  0  0  0
 18 26  1  0  0  0  0
 19 20  1  0  0  0  0
 19 27  1  0  0  0  0
M  END
> <PUBCHEM_COMPOUND_CID>
101293596

> <PUBCHEM_CONFORMER_RMSD>
0.6

> <PUBCHEM_CONFORMER_DIVERSEORDER>
1

> <PUBCHEM_MMFF94_PARTIAL_CHARGES>
25
1 -0.36
10 0.09
11 0.42
12 0.08
13 0.08
14 -0.18
15 -0.29
16 0.05
17 0.48
19 -0.14
2 -0.53
20 0.56
22 0.15
23 0.15
27 0.15
28 0.45
29 0.45
3 -0.53
30 0.45
4 -0.53
5 -0.57
6 -0.57
7 0.03
8 0.08
9 0.03

> <PUBCHEM_EFFECTIVE_ROTOR_COUNT>
0.4

> <PUBCHEM_PHARMACOPHORE_FEATURES>
9
1 1 acceptor
1 2 donor
1 3 donor
1 4 donor
1 5 acceptor
1 6 acceptor
6 1 7 8 11 14 15 rings
6 7 8 9 10 12 13 rings
6 9 10 16 17 19 20 rings

> <PUBCHEM_HEAVY_ATOM_COUNT>
20

> <PUBCHEM_ATOM_DEF_STEREO_COUNT>
0

> <PUBCHEM_ATOM_UDEF_STEREO_COUNT>
1

> <PUBCHEM_BOND_DEF_STEREO_COUNT>
0

> <PUBCHEM_BOND_UDEF_STEREO_COUNT>
0

> <PUBCHEM_ISOTOPIC_ATOM_COUNT>
0

> <PUBCHEM_COMPONENT_COUNT>
1

> <PUBCHEM_CACTVS_TAUTO_COUNT>
34

> <PUBCHEM_CONFORMER_ID>
06099E1C00000001

> <PUBCHEM_MMFF94_ENERGY>
62.6979

> <PUBCHEM_FEATURE_SELFOVERLAP>
45.749

> <PUBCHEM_SHAPE_FINGERPRINT>
10062212 137 18334851770403288082
10319926 262 18198039544009207368
10411042 1 17257935326344778982
10493431 412 18341057337306594161
10608611 8 18412824677180208560
10616163 171 18410861005100116438
10967382 1 18337956675297012007
11132069 177 18408885143976203792
11578080 2 17058356218770826035
12173636 292 18338795620022960949
12403814 3 17603583023978512773
12553582 1 18122073266742160726
13132413 78 18411984684339795725
13140716 1 18338234851997438882
13214271 11 18342171215256953886
13221675 6 18409450275883748743
13380535 76 18410857629355964031
138480 1 17185314240934024483
14790565 3 18267314131708897777
15196674 1 18410857659199052543
15375358 24 18342174462072835998
15442244 35 18265332798801587082
15536298 74 18342740693787427342
16945 1 18122068860105520054
17804303 29 18411987974311221964
1813 80 16877938288399469902
18186145 218 18201168663184772624
19591789 44 18265900155001109430
200 152 18060131055626549125
20510252 161 18343866610536724256
21029758 11 18343014489357753665
21267235 1 18337965497175863598
21501502 16 18191592053939777869
2334 1 18410577305398671302
23402539 116 18341885329433200358
23463225 33 18335422352792909356
23557571 272 18270977845996086246
23559900 14 18342459227817304774
238 59 16310172254483318325
2748010 2 18411144619049499438
335352 9 18194121802762490574
34934 24 18410005537645204682
350125 39 18049446945987980772
5104073 3 18410858737288735195
53812653 166 18343016713976493032
58807428 26 18335129874326615490
69090 78 18412543189260515351
7364860 26 18197218036107155326
8809292 202 18334300876665750739
9709674 26 18341618117990456990

> <PUBCHEM_SHAPE_MULTIPOLES>
376.37
7.48
2.78
0.66
2.39
0.56
-0.06
-1.67
-0.93
-1.04
0
0.31
-0.06
0.36

> <PUBCHEM_SHAPE_SELFOVERLAP>
845.41

> <PUBCHEM_SHAPE_VOLUME>
196

> <PUBCHEM_COORDINATE_TYPE>
2
5
10

$$$$
