10124
  -OEChem-03292013323D

 25 26  0     0  0  0  0  0  0999 V2000
    0.3231    1.5721   -0.3737 S   0  0  0  0  0  0  0  0  0  0  0  0
    2.0168   -0.7449   -0.9901 S   0  0  0  0  0  0  0  0  0  0  0  0
    0.4653    1.8438   -1.7937 O   0  0  0  0  0  0  0  0  0  0  0  0
    0.3618    2.6439    0.6081 O   0  0  0  0  0  0  0  0  0  0  0  0
    3.5136   -0.4694    1.0994 N   0  0  0  0  0  0  0  0  0  0  0  0
   -4.6194   -1.6471    0.3768 N   0  0  0  0  0  0  0  0  0  0  0  0
    4.0694   -2.2905   -0.3027 N   0  0  0  0  0  0  0  0  0  0  0  0
   -1.1284    0.6270   -0.1537 C   0  0  0  0  0  0  0  0  0  0  0  0
    1.7081    0.5287    0.0876 C   0  0  0  0  0  0  0  0  0  0  0  0
   -1.6251   -0.1437   -1.2048 C   0  0  0  0  0  0  0  0  0  0  0  0
   -1.7911    0.6425    1.0735 C   0  0  0  0  0  0  0  0  0  0  0  0
   -2.7847   -0.8988   -1.0288 C   0  0  0  0  0  0  0  0  0  0  0  0
   -2.9505   -0.1127    1.2497 C   0  0  0  0  0  0  0  0  0  0  0  0
   -3.4473   -0.8833    0.1985 C   0  0  0  0  0  0  0  0  0  0  0  0
    2.5715    0.5402    1.1242 C   0  0  0  0  0  0  0  0  0  0  0  0
    3.3168   -1.2078    0.0298 C   0  0  0  0  0  0  0  0  0  0  0  0
   -1.1263   -0.1738   -2.1693 H   0  0  0  0  0  0  0  0  0  0  0  0
   -1.4184    1.2309    1.9072 H   0  0  0  0  0  0  0  0  0  0  0  0
   -3.1616   -1.4958   -1.8554 H   0  0  0  0  0  0  0  0  0  0  0  0
   -3.4571   -0.0935    2.2113 H   0  0  0  0  0  0  0  0  0  0  0  0
    2.5827    1.2487    1.9412 H   0  0  0  0  0  0  0  0  0  0  0  0
   -4.9805   -2.2056   -0.3851 H   0  0  0  0  0  0  0  0  0  0  0  0
   -5.1007   -1.6356    1.2662 H   0  0  0  0  0  0  0  0  0  0  0  0
    3.8834   -2.8342   -1.1390 H   0  0  0  0  0  0  0  0  0  0  0  0
    4.8468   -2.5980    0.2725 H   0  0  0  0  0  0  0  0  0  0  0  0
  1  3  2  0  0  0  0
  1  4  2  0  0  0  0
  1  8  1  0  0  0  0
  1  9  1  0  0  0  0
  2  9  1  0  0  0  0
  2 16  1  0  0  0  0
  5 15  1  0  0  0  0
  5 16  2  0  0  0  0
  6 14  1  0  0  0  0
  6 22  1  0  0  0  0
  6 23  1  0  0  0  0
  7 16  1  0  0  0  0
  7 24  1  0  0  0  0
  7 25  1  0  0  0  0
  8 10  2  0  0  0  0
  8 11  1  0  0  0  0
  9 15  2  0  0  0  0
 10 12  1  0  0  0  0
 10 17  1  0  0  0  0
 11 13  2  0  0  0  0
 11 18  1  0  0  0  0
 12 14  2  0  0  0  0
 12 19  1  0  0  0  0
 13 14  1  0  0  0  0
 13 20  1  0  0  0  0
 15 21  1  0  0  0  0
M  END
> <PUBCHEM_COMPOUND_CID>
10124

> <PUBCHEM_CONFORMER_RMSD>
0.6

> <PUBCHEM_CONFORMER_DIVERSEORDER>
1
2

> <PUBCHEM_MMFF94_PARTIAL_CHARGES>
25
1 1.37
10 -0.15
11 -0.15
12 -0.15
13 -0.15
14 0.1
15 0.08
16 0.46
17 0.15
18 0.15
19 0.15
2 -0.08
20 0.15
21 0.15
22 0.4
23 0.4
24 0.4
25 0.4
3 -0.65
4 -0.65
5 -0.57
6 -0.9
7 -0.88
8 -0.01
9 -0.02

> <PUBCHEM_EFFECTIVE_ROTOR_COUNT>
2

> <PUBCHEM_PHARMACOPHORE_FEATURES>
8
1 3 acceptor
1 4 acceptor
1 6 cation
1 6 donor
1 7 donor
3 5 7 16 cation
5 2 5 9 15 16 rings
6 8 10 11 12 13 14 rings

> <PUBCHEM_HEAVY_ATOM_COUNT>
16

> <PUBCHEM_ATOM_DEF_STEREO_COUNT>
0

> <PUBCHEM_ATOM_UDEF_STEREO_COUNT>
0

> <PUBCHEM_BOND_DEF_STEREO_COUNT>
0

> <PUBCHEM_BOND_UDEF_STEREO_COUNT>
0

> <PUBCHEM_ISOTOPIC_ATOM_COUNT>
0

> <PUBCHEM_COMPONENT_COUNT>
1

> <PUBCHEM_CACTVS_TAUTO_COUNT>
2

> <PUBCHEM_CONFORMER_ID>
0000278C00000001

> <PUBCHEM_MMFF94_ENERGY>
33.6696

> <PUBCHEM_FEATURE_SELFOVERLAP>
40.611

> <PUBCHEM_SHAPE_FINGERPRINT>
10465860 71 16732703839428441206
10618630 7 18336548222672021006
11127187 94 16732983111414054403
11543360 7 14273745057228972002
12006461 19 18411985753850189762
122479 349 10591463028232406414
12251169 10 17132112450603851720
12363563 72 18113616772462524434
12633257 1 16056878043880405195
12707595 3 17603590750292160714
12892183 10 17346596361477656514
13296908 3 18334850598040590612
13533116 47 18267590294216790691
13571099 52 11671784866393877213
14123255 52 9151177545240531163
14252887 29 18410007771323572130
15375462 189 18130508646872554656
15422964 175 18411702054022423502
15775835 57 10015582787650139354
16945 1 18199737214598335188
1798214 55 10231755591196951450
1813 80 18334305240436744372
18186145 218 8142085411647201362
19862831 5 12685087090297362691
20291156 8 18411138013252732474
20361792 2 18186522098455130172
20559304 39 17987248887659974305
20645477 70 17969219113383811487
20671657 53 17312818264945320588
20711985 344 17679009414048555468
20871998 22 18411135840036184356
21296965 67 18335698342933151469
21731228 192 13542456553717141316
22445834 79 18059576944288548353
2255824 54 18051134996900399485
22646028 28 18408041818547364531
231179 274 10447939364210985114
23382010 3 12324250480974893012
23402655 69 12540694803922316566
23557571 272 17023172860115135516
23559900 14 16661465378060436688
27216 239 11527360736957017543
276578 36 12607407680696046932
3082319 5 13984661434352737578
3286 77 18131630063150116546
4072396 5 17346331414395053891
449060 23 18261397698130075226
5262128 65 14923952223313179454
549884 4 12324236174375409726
7097593 13 17346595279135295914
81228 2 17971461914856455148
83771 10 18409452466364477558
90316 7 17275109435776526153

> <PUBCHEM_SHAPE_MULTIPOLES>
310.29
7.18
2.04
1.36
0.86
0.44
0.2
-5.63
-1.81
-0.89
0.19
0.13
0.26
0.06

> <PUBCHEM_SHAPE_SELFOVERLAP>
640.989

> <PUBCHEM_SHAPE_VOLUME>
179.1

> <PUBCHEM_COORDINATE_TYPE>
2
5
10

$$$$
