101396700
  -OEChem-03292013293D

 69 72  0     1  0  0  0  0  0999 V2000
   -2.0706   -2.2327   -0.9126 O   0  0  0  0  0  0  0  0  0  0  0  0
   -1.3712    0.5859   -1.4570 O   0  0  0  0  0  0  0  0  0  0  0  0
   -1.0652   -0.4163    2.1008 O   0  0  0  0  0  0  0  0  0  0  0  0
   -1.9852   -2.8870    1.3650 O   0  0  0  0  0  0  0  0  0  0  0  0
   -0.7457    2.4750    1.3315 O   0  0  0  0  0  0  0  0  0  0  0  0
   -0.6442   -2.8455   -2.6487 O   0  0  0  0  0  0  0  0  0  0  0  0
    4.2504   -0.0080    1.2278 O   0  0  0  0  0  0  0  0  0  0  0  0
    5.2928   -2.0298    1.5743 O   0  0  0  0  0  0  0  0  0  0  0  0
   -2.9465    1.1031    0.3108 C   0  0  1  0  0  0  0  0  0  0  0  0
   -3.9350   -0.0143   -0.0594 C   0  0  1  0  0  0  0  0  0  0  0  0
   -1.5117    0.6837   -0.0437 C   0  0  1  0  0  0  0  0  0  0  0  0
   -3.6538   -1.3167    0.7040 C   0  0  2  0  0  0  0  0  0  0  0  0
   -1.1443   -0.6542    0.6857 C   0  0  2  0  0  0  0  0  0  0  0  0
   -3.5765    2.2959   -0.4369 C   0  0  1  0  0  0  0  0  0  0  0  0
   -2.1875   -1.7966    0.4493 C   0  0  2  0  0  0  0  0  0  0  0  0
   -5.2880    0.6458    0.1998 C   0  0  0  0  0  0  0  0  0  0  0  0
   -5.0891    2.1112   -0.1995 C   0  0  0  0  0  0  0  0  0  0  0  0
   -0.5343    1.7571    0.3541 C   0  0  0  0  0  0  0  0  0  0  0  0
   -4.6788   -2.3977    0.3284 C   0  0  0  0  0  0  0  0  0  0  0  0
    0.2263   -1.1416    0.2660 C   0  0  0  0  0  0  0  0  0  0  0  0
   -3.1029    3.6687    0.0180 C   0  0  0  0  0  0  0  0  0  0  0  0
    0.7342    1.8753   -0.4863 C   0  0  2  0  0  0  0  0  0  0  0  0
   -0.8109   -2.8402   -1.2322 C   0  0  1  0  0  0  0  0  0  0  0  0
    0.3850   -2.1503   -0.6075 C   0  0  0  0  0  0  0  0  0  0  0  0
    2.0013    1.6555    0.3548 C   0  0  0  0  0  0  0  0  0  0  0  0
    0.7537    3.2547   -1.1401 C   0  0  0  0  0  0  0  0  0  0  0  0
    1.7462   -2.6599   -0.9828 C   0  0  0  0  0  0  0  0  0  0  0  0
    3.2179    1.2993   -0.5050 C   0  0  0  0  0  0  0  0  0  0  0  0
    4.4627    1.1073    0.3475 C   0  0  2  0  0  0  0  0  0  0  0  0
    5.6715    0.7146   -0.4191 C   0  0  0  0  0  0  0  0  0  0  0  0
    6.1090   -0.4860   -0.0467 C   0  0  0  0  0  0  0  0  0  0  0  0
    5.2022   -0.9587    0.9998 C   0  0  0  0  0  0  0  0  0  0  0  0
    6.2881    1.6020   -1.4401 C   0  0  0  0  0  0  0  0  0  0  0  0
   -3.0198    1.3013    1.3903 H   0  0  0  0  0  0  0  0  0  0  0  0
   -3.8678   -0.2209   -1.1382 H   0  0  0  0  0  0  0  0  0  0  0  0
   -3.7778   -1.1337    1.7801 H   0  0  0  0  0  0  0  0  0  0  0  0
   -3.4085    2.2144   -1.5175 H   0  0  0  0  0  0  0  0  0  0  0  0
   -5.5579    0.5843    1.2608 H   0  0  0  0  0  0  0  0  0  0  0  0
   -6.0925    0.1787   -0.3771 H   0  0  0  0  0  0  0  0  0  0  0  0
   -5.6489    2.3491   -1.1110 H   0  0  0  0  0  0  0  0  0  0  0  0
   -5.4667    2.7658    0.5945 H   0  0  0  0  0  0  0  0  0  0  0  0
   -4.6782   -2.5961   -0.7485 H   0  0  0  0  0  0  0  0  0  0  0  0
   -5.6910   -2.0912    0.6114 H   0  0  0  0  0  0  0  0  0  0  0  0
   -4.4703   -3.3390    0.8469 H   0  0  0  0  0  0  0  0  0  0  0  0
    1.1026   -0.7589    0.7605 H   0  0  0  0  0  0  0  0  0  0  0  0
   -3.1389    3.7675    1.1077 H   0  0  0  0  0  0  0  0  0  0  0  0
   -3.7425    4.4509   -0.4062 H   0  0  0  0  0  0  0  0  0  0  0  0
   -2.0869    3.8770   -0.3225 H   0  0  0  0  0  0  0  0  0  0  0  0
   -1.5760    1.4437   -1.8631 H   0  0  0  0  0  0  0  0  0  0  0  0
   -1.9514   -0.2098    2.4372 H   0  0  0  0  0  0  0  0  0  0  0  0
    0.7477    1.1310   -1.2862 H   0  0  0  0  0  0  0  0  0  0  0  0
   -1.0609   -2.8829    1.6621 H   0  0  0  0  0  0  0  0  0  0  0  0
   -0.8378   -3.8818   -0.8896 H   0  0  0  0  0  0  0  0  0  0  0  0
    1.8542    0.9382    1.1617 H   0  0  0  0  0  0  0  0  0  0  0  0
    2.2273    2.5905    0.8881 H   0  0  0  0  0  0  0  0  0  0  0  0
    1.6182    3.3780   -1.7990 H   0  0  0  0  0  0  0  0  0  0  0  0
   -0.1441    3.4065   -1.7491 H   0  0  0  0  0  0  0  0  0  0  0  0
    0.7795    4.0555   -0.3926 H   0  0  0  0  0  0  0  0  0  0  0  0
    2.5425   -2.1665   -0.4162 H   0  0  0  0  0  0  0  0  0  0  0  0
    1.9419   -2.4889   -2.0460 H   0  0  0  0  0  0  0  0  0  0  0  0
    1.8164   -3.7340   -0.7829 H   0  0  0  0  0  0  0  0  0  0  0  0
   -1.0686   -3.6533   -2.9842 H   0  0  0  0  0  0  0  0  0  0  0  0
    3.3959    2.0874   -1.2445 H   0  0  0  0  0  0  0  0  0  0  0  0
    2.9972    0.3765   -1.0566 H   0  0  0  0  0  0  0  0  0  0  0  0
    4.6635    1.9932    0.9609 H   0  0  0  0  0  0  0  0  0  0  0  0
    6.9627   -1.0282   -0.4152 H   0  0  0  0  0  0  0  0  0  0  0  0
    5.6042    1.7614   -2.2792 H   0  0  0  0  0  0  0  0  0  0  0  0
    7.2125    1.1722   -1.8400 H   0  0  0  0  0  0  0  0  0  0  0  0
    6.5338    2.5741   -1.0014 H   0  0  0  0  0  0  0  0  0  0  0  0
  1 15  1  0  0  0  0
  1 23  1  0  0  0  0
  2 11  1  0  0  0  0
  2 49  1  0  0  0  0
  3 13  1  0  0  0  0
  3 50  1  0  0  0  0
  4 15  1  0  0  0  0
  4 52  1  0  0  0  0
  5 18  2  0  0  0  0
  6 23  1  0  0  0  0
  6 62  1  0  0  0  0
  7 29  1  0  0  0  0
  7 32  1  0  0  0  0
  8 32  2  0  0  0  0
  9 10  1  0  0  0  0
  9 11  1  0  0  0  0
  9 14  1  0  0  0  0
  9 34  1  0  0  0  0
 10 12  1  0  0  0  0
 10 16  1  0  0  0  0
 10 35  1  0  0  0  0
 11 13  1  0  0  0  0
 11 18  1  0  0  0  0
 12 15  1  0  0  0  0
 12 19  1  0  0  0  0
 12 36  1  0  0  0  0
 13 15  1  0  0  0  0
 13 20  1  0  0  0  0
 14 17  1  0  0  0  0
 14 21  1  0  0  0  0
 14 37  1  0  0  0  0
 16 17  1  0  0  0  0
 16 38  1  0  0  0  0
 16 39  1  0  0  0  0
 17 40  1  0  0  0  0
 17 41  1  0  0  0  0
 18 22  1  0  0  0  0
 19 42  1  0  0  0  0
 19 43  1  0  0  0  0
 19 44  1  0  0  0  0
 20 24  2  0  0  0  0
 20 45  1  0  0  0  0
 21 46  1  0  0  0  0
 21 47  1  0  0  0  0
 21 48  1  0  0  0  0
 22 25  1  0  0  0  0
 22 26  1  0  0  0  0
 22 51  1  0  0  0  0
 23 24  1  0  0  0  0
 23 53  1  0  0  0  0
 24 27  1  0  0  0  0
 25 28  1  0  0  0  0
 25 54  1  0  0  0  0
 25 55  1  0  0  0  0
 26 56  1  0  0  0  0
 26 57  1  0  0  0  0
 26 58  1  0  0  0  0
 27 59  1  0  0  0  0
 27 60  1  0  0  0  0
 27 61  1  0  0  0  0
 28 29  1  0  0  0  0
 28 63  1  0  0  0  0
 28 64  1  0  0  0  0
 29 30  1  0  0  0  0
 29 65  1  0  0  0  0
 30 31  2  0  0  0  0
 30 33  1  0  0  0  0
 31 32  1  0  0  0  0
 31 66  1  0  0  0  0
 33 67  1  0  0  0  0
 33 68  1  0  0  0  0
 33 69  1  0  0  0  0
M  END
> <PUBCHEM_COMPOUND_CID>
101396700

> <PUBCHEM_CONFORMER_RMSD>
1

> <PUBCHEM_CONFORMER_DIVERSEORDER>
1
16
9
8
12
4
15
18
3
13
7
10
11
2
6
14
17
5

> <PUBCHEM_MMFF94_PARTIAL_CHARGES>
28
1 -0.56
11 0.34
13 0.42
15 0.56
18 0.45
2 -0.68
20 -0.29
22 0.06
23 0.7
24 -0.28
27 0.14
29 0.42
3 -0.68
30 -0.28
31 -0.14
32 0.71
33 0.14
4 -0.68
45 0.15
49 0.4
5 -0.57
50 0.4
52 0.4
6 -0.68
62 0.4
66 0.15
7 -0.43
8 -0.57

> <PUBCHEM_EFFECTIVE_ROTOR_COUNT>
6.8

> <PUBCHEM_PHARMACOPHORE_FEATURES>
16
1 1 acceptor
1 2 acceptor
1 2 donor
1 26 hydrophobe
1 3 acceptor
1 3 donor
1 4 acceptor
1 4 donor
1 5 acceptor
1 6 acceptor
1 6 donor
1 8 acceptor
5 7 29 30 31 32 rings
5 9 10 14 16 17 rings
6 1 13 15 20 23 24 rings
6 9 10 11 12 13 15 rings

> <PUBCHEM_HEAVY_ATOM_COUNT>
33

> <PUBCHEM_ATOM_DEF_STEREO_COUNT>
10

> <PUBCHEM_ATOM_UDEF_STEREO_COUNT>
0

> <PUBCHEM_BOND_DEF_STEREO_COUNT>
0

> <PUBCHEM_BOND_UDEF_STEREO_COUNT>
0

> <PUBCHEM_ISOTOPIC_ATOM_COUNT>
0

> <PUBCHEM_COMPONENT_COUNT>
1

> <PUBCHEM_CACTVS_TAUTO_COUNT>
2

> <PUBCHEM_CONFORMER_ID>
060B30DC00000001

> <PUBCHEM_MMFF94_ENERGY>
83.1824

> <PUBCHEM_FEATURE_SELFOVERLAP>
81.413

> <PUBCHEM_SHAPE_FINGERPRINT>
10675989 125 17037528874629304717
10906281 52 18268161880795400369
11112241 14 16916486147439101440
11513181 2 17988359243774439599
11524674 6 17917988356470962764
12107183 9 17971746671736040066
12107698 1 18261675990583732723
12422481 6 18336825290869841762
12788726 201 18202289057076151792
13140716 1 18194410115649104033
13402501 40 18341614759673794822
13726171 33 18268169672446837072
14117953 113 18267019449759921868
14713325 29 18409173229398226153
14790565 3 18047189644221599297
14840074 17 18411427215144406536
15183329 4 18333448738016527208
15403338 16 17605543354527212874
15575132 122 18340211877141553230
16728300 4 18335130990797079195
17980427 23 18114189644048720165
20511986 3 18187638133539953716
21033648 29 17988069089064124496
21703447 108 17409915256178230376
22182313 1 18200612322854100695
23559900 14 18053945056906252962
3004659 81 18114181905187773056
3298306 158 18272367538446241830
335352 9 18335984246738705741
350125 39 18409732897912269569
3680242 22 18263365785473893506
4017518 198 17917997153403184294
4066623 53 16624575843498672943
4093350 32 16772961277228240813
508706 21 18272092725027501190
5265222 85 18196665197039518652
59755656 215 18410290273151413957
6138700 20 18336828581073201384
7226269 152 18201723925063144073
9862522 239 18342451560688901239

> <PUBCHEM_SHAPE_MULTIPOLES>
632.17
12.36
4.09
1.43
15.9
0.01
-0.22
2.16
1.03
-2.64
-0.98
0.6
-0.76
-0.72

> <PUBCHEM_SHAPE_SELFOVERLAP>
1350.989

> <PUBCHEM_SHAPE_VOLUME>
347.2

> <PUBCHEM_COORDINATE_TYPE>
2
5
10

$$$$
