101317811
  -OEChem-03292013293D

 52 56  0     1  0  0  0  0  0999 V2000
   -0.3237    1.9359   -1.9975 O   0  0  0  0  0  0  0  0  0  0  0  0
    0.1831   -1.0156   -2.4386 O   0  0  0  0  0  0  0  0  0  0  0  0
   -2.9765    1.0384   -1.7998 O   0  0  0  0  0  0  0  0  0  0  0  0
   -0.7993   -3.2134    1.0531 O   0  0  0  0  0  0  0  0  0  0  0  0
    1.1929    2.7072    0.3101 O   0  0  0  0  0  0  0  0  0  0  0  0
   -1.4650    2.0459    1.4572 O   0  0  0  0  0  0  0  0  0  0  0  0
    1.0404   -0.8128   -0.1295 C   0  0  2  0  0  0  0  0  0  0  0  0
   -1.1381    0.3398   -0.2902 C   0  0  1  0  0  0  0  0  0  0  0  0
   -0.4566   -0.8979    0.4009 C   0  0  1  0  0  0  0  0  0  0  0  0
    0.0305    1.0157   -1.0175 C   0  0  1  0  0  0  0  0  0  0  0  0
    1.7498    0.3500    0.6660 C   0  0  2  0  0  0  0  0  0  0  0  0
    0.8607   -0.1771   -1.5270 C   0  0  2  0  0  0  0  0  0  0  0  0
   -2.3724   -0.0692   -1.1380 C   0  0  1  0  0  0  0  0  0  0  0  0
    1.0208    1.5308    0.0274 C   0  0  0  0  0  0  0  0  0  0  0  0
    1.7982   -2.1324   -0.0832 C   0  0  0  0  0  0  0  0  0  0  0  0
   -1.2642   -2.1913    0.1749 C   0  0  2  0  0  0  0  0  0  0  0  0
    3.3043    0.4221    0.6161 C   0  0  0  0  0  0  0  0  0  0  0  0
   -3.3196   -0.6260   -0.0678 C   0  0  1  0  0  0  0  0  0  0  0  0
   -1.8706    1.0966    0.8108 C   0  0  0  0  0  0  0  0  0  0  0  0
   -2.7782   -1.9817    0.4304 C   0  0  0  0  0  0  0  0  0  0  0  0
    3.2964   -1.9729   -0.3042 C   0  0  0  0  0  0  0  0  0  0  0  0
    3.8956   -1.0043    0.7127 C   0  0  0  0  0  0  0  0  0  0  0  0
   -3.2017    0.4406    1.0000 C   0  0  0  0  0  0  0  0  0  0  0  0
    3.8975    1.1265   -0.6243 C   0  0  0  0  0  0  0  0  0  0  0  0
    3.7929    1.2244    1.8467 C   0  0  0  0  0  0  0  0  0  0  0  0
   -4.0971    0.8208    1.9115 C   0  0  0  0  0  0  0  0  0  0  0  0
   -0.4155   -0.7634    1.4923 H   0  0  0  0  0  0  0  0  0  0  0  0
    1.4341    0.2890    1.7155 H   0  0  0  0  0  0  0  0  0  0  0  0
    1.7806    0.1439   -2.0155 H   0  0  0  0  0  0  0  0  0  0  0  0
   -2.1538   -0.8131   -1.9081 H   0  0  0  0  0  0  0  0  0  0  0  0
    1.3996   -2.8445   -0.8139 H   0  0  0  0  0  0  0  0  0  0  0  0
    1.6611   -2.5889    0.9050 H   0  0  0  0  0  0  0  0  0  0  0  0
   -1.1168   -2.5587   -0.8461 H   0  0  0  0  0  0  0  0  0  0  0  0
   -4.3544   -0.7072   -0.4174 H   0  0  0  0  0  0  0  0  0  0  0  0
   -3.0102   -2.1274    1.4937 H   0  0  0  0  0  0  0  0  0  0  0  0
   -3.3124   -2.7880   -0.0898 H   0  0  0  0  0  0  0  0  0  0  0  0
    3.7792   -2.9510   -0.1922 H   0  0  0  0  0  0  0  0  0  0  0  0
    3.4982   -1.6434   -1.3286 H   0  0  0  0  0  0  0  0  0  0  0  0
    3.7240   -1.4076    1.7199 H   0  0  0  0  0  0  0  0  0  0  0  0
    4.9845   -0.9733    0.5791 H   0  0  0  0  0  0  0  0  0  0  0  0
    0.4731    2.1586   -2.5079 H   0  0  0  0  0  0  0  0  0  0  0  0
    0.7828   -1.7443   -2.6707 H   0  0  0  0  0  0  0  0  0  0  0  0
    3.4270    2.2564    1.8214 H   0  0  0  0  0  0  0  0  0  0  0  0
    4.8877    1.2608    1.8879 H   0  0  0  0  0  0  0  0  0  0  0  0
    3.4468    0.7706    2.7825 H   0  0  0  0  0  0  0  0  0  0  0  0
    3.5150    2.1446   -0.7431 H   0  0  0  0  0  0  0  0  0  0  0  0
    3.7148    0.5846   -1.5530 H   0  0  0  0  0  0  0  0  0  0  0  0
    4.9877    1.2113   -0.5329 H   0  0  0  0  0  0  0  0  0  0  0  0
   -3.7845    0.7138   -2.2326 H   0  0  0  0  0  0  0  0  0  0  0  0
   -1.3258   -4.0119    0.8775 H   0  0  0  0  0  0  0  0  0  0  0  0
   -5.0593    0.3251    1.9807 H   0  0  0  0  0  0  0  0  0  0  0  0
   -3.8948    1.6276    2.6073 H   0  0  0  0  0  0  0  0  0  0  0  0
  1 10  1  0  0  0  0
  1 41  1  0  0  0  0
  2 12  1  0  0  0  0
  2 42  1  0  0  0  0
  3 13  1  0  0  0  0
  3 49  1  0  0  0  0
  4 16  1  0  0  0  0
  4 50  1  0  0  0  0
  5 14  2  0  0  0  0
  6 19  2  0  0  0  0
  7  9  1  0  0  0  0
  7 11  1  0  0  0  0
  7 12  1  0  0  0  0
  7 15  1  0  0  0  0
  8  9  1  0  0  0  0
  8 10  1  0  0  0  0
  8 13  1  0  0  0  0
  8 19  1  0  0  0  0
  9 16  1  0  0  0  0
  9 27  1  0  0  0  0
 10 12  1  0  0  0  0
 10 14  1  0  0  0  0
 11 14  1  0  0  0  0
 11 17  1  0  0  0  0
 11 28  1  0  0  0  0
 12 29  1  0  0  0  0
 13 18  1  0  0  0  0
 13 30  1  0  0  0  0
 15 21  1  0  0  0  0
 15 31  1  0  0  0  0
 15 32  1  0  0  0  0
 16 20  1  0  0  0  0
 16 33  1  0  0  0  0
 17 22  1  0  0  0  0
 17 24  1  0  0  0  0
 17 25  1  0  0  0  0
 18 20  1  0  0  0  0
 18 23  1  0  0  0  0
 18 34  1  0  0  0  0
 19 23  1  0  0  0  0
 20 35  1  0  0  0  0
 20 36  1  0  0  0  0
 21 22  1  0  0  0  0
 21 37  1  0  0  0  0
 21 38  1  0  0  0  0
 22 39  1  0  0  0  0
 22 40  1  0  0  0  0
 23 26  2  0  0  0  0
 24 46  1  0  0  0  0
 24 47  1  0  0  0  0
 24 48  1  0  0  0  0
 25 43  1  0  0  0  0
 25 44  1  0  0  0  0
 25 45  1  0  0  0  0
 26 51  1  0  0  0  0
 26 52  1  0  0  0  0
M  END
> <PUBCHEM_COMPOUND_CID>
101317811

> <PUBCHEM_CONFORMER_RMSD>
0.6

> <PUBCHEM_CONFORMER_DIVERSEORDER>
1

> <PUBCHEM_MMFF94_PARTIAL_CHARGES>
23
1 -0.68
10 0.34
11 0.06
12 0.28
13 0.28
14 0.45
16 0.28
18 0.14
19 0.49
2 -0.68
23 -0.12
26 -0.3
3 -0.68
4 -0.68
41 0.4
42 0.4
49 0.4
5 -0.57
50 0.4
51 0.15
52 0.15
6 -0.57
8 0.06

> <PUBCHEM_EFFECTIVE_ROTOR_COUNT>
1.6

> <PUBCHEM_PHARMACOPHORE_FEATURES>
14
1 1 acceptor
1 1 donor
1 2 acceptor
1 2 donor
1 3 acceptor
1 3 donor
1 4 acceptor
1 4 donor
1 5 acceptor
1 6 acceptor
3 17 24 25 hydrophobe
6 7 11 15 17 21 22 rings
7 7 8 9 10 11 12 14 rings
8 8 9 13 16 18 19 20 23 rings

> <PUBCHEM_HEAVY_ATOM_COUNT>
26

> <PUBCHEM_ATOM_DEF_STEREO_COUNT>
9

> <PUBCHEM_ATOM_UDEF_STEREO_COUNT>
0

> <PUBCHEM_BOND_DEF_STEREO_COUNT>
0

> <PUBCHEM_BOND_UDEF_STEREO_COUNT>
0

> <PUBCHEM_ISOTOPIC_ATOM_COUNT>
0

> <PUBCHEM_COMPONENT_COUNT>
1

> <PUBCHEM_CACTVS_TAUTO_COUNT>
2

> <PUBCHEM_CONFORMER_ID>
0609FCB300000001

> <PUBCHEM_MMFF94_ENERGY>
116.4071

> <PUBCHEM_FEATURE_SELFOVERLAP>
71.107

> <PUBCHEM_SHAPE_FINGERPRINT>
10366900 7 18131346453474244712
10863032 1 17775287153301951931
10948715 1 17203614769953204473
10967382 1 18410575102112226930
11132069 177 18334845143690483728
11578080 2 17967815985880439164
11640471 11 16559035965136916523
12011746 2 18411417323671200310
12403814 3 17894346713506656413
12553582 1 18410576184586631208
12633257 1 18411695448800533594
12892183 10 18201156645486509730
13140716 1 18122903389547183400
13172582 1 18260557692647625955
13224815 77 18410854373912938070
14178342 30 18411140280916434738
14223421 5 18343017779112395752
14787075 74 17624400279173991242
15209289 33 18267315222329546970
15309172 13 18260548883427128427
16945 1 18411697720453032716
1813 80 17385733473852885598
20691752 17 18186528691309297419
21033648 29 18261663784091868793
21421861 104 17466255310212694723
21756936 100 17558822030714813048
23184049 59 18334865978344916531
2334 1 18408603660504854866
23419403 2 17329390323089641607
23559900 14 18262791862169512190
2748010 2 18044086865341110806
296302 2 18334577962048533364
4340502 62 18342188739467145089
5104073 3 18342176669712803594
5845 1 17603864503023266070
633830 44 17846502564683570956
70251023 43 17766541470633027663

> <PUBCHEM_SHAPE_MULTIPOLES>
499.85
6.49
2.59
1.72
1.41
0.83
0.49
-0.52
-2.44
0.25
-0.45
-0.51
-0.51
0.16

> <PUBCHEM_SHAPE_SELFOVERLAP>
1122.282

> <PUBCHEM_SHAPE_VOLUME>
262.7

> <PUBCHEM_COORDINATE_TYPE>
2
5
10

$$$$
