101316726
  -OEChem-03292013293D

 52 55  0     1  0  0  0  0  0999 V2000
   -3.1553    1.6538   -1.0801 O   0  0  0  0  0  0  0  0  0  0  0  0
   -1.1440    2.7521   -0.9317 O   0  0  0  0  0  0  0  0  0  0  0  0
   -0.0050   -2.9979   -0.9808 O   0  0  0  0  0  0  0  0  0  0  0  0
    0.8613    2.4450    0.6849 O   0  0  0  0  0  0  0  0  0  0  0  0
    2.7001   -2.5617    0.1626 O   0  0  0  0  0  0  0  0  0  0  0  0
    3.2906    2.0922   -0.3175 O   0  0  0  0  0  0  0  0  0  0  0  0
   -1.3073    0.4631    0.1070 C   0  0  2  0  0  0  0  0  0  0  0  0
   -2.0715   -0.8595   -0.2494 C   0  0  2  0  0  0  0  0  0  0  0  0
   -3.6003   -0.6137   -0.2008 C   0  0  1  0  0  0  0  0  0  0  0  0
   -1.7491    0.9481    1.5226 C   0  0  0  0  0  0  0  0  0  0  0  0
   -4.0270   -0.1458    1.2086 C   0  0  0  0  0  0  0  0  0  0  0  0
   -1.5611   -2.0348    0.5888 C   0  0  0  0  0  0  0  0  0  0  0  0
   -1.7380    1.4639   -1.0310 C   0  0  1  0  0  0  0  0  0  0  0  0
   -3.2577    1.0627    1.7299 C   0  0  0  0  0  0  0  0  0  0  0  0
    0.2151    0.1889    0.1391 C   0  0  0  0  0  0  0  0  0  0  0  0
   -3.9062    0.4621   -1.2678 C   0  0  0  0  0  0  0  0  0  0  0  0
   -0.0886   -2.2934    0.2608 C   0  0  2  0  0  0  0  0  0  0  0  0
   -4.4051   -1.8747   -0.5671 C   0  0  0  0  0  0  0  0  0  0  0  0
    0.7737   -1.0472    0.1531 C   0  0  0  0  0  0  0  0  0  0  0  0
    1.1639    1.3330    0.2781 C   0  0  0  0  0  0  0  0  0  0  0  0
    2.2334   -1.2545    0.1294 C   0  0  0  0  0  0  0  0  0  0  0  0
    3.1272   -0.2593    0.0223 C   0  0  0  0  0  0  0  0  0  0  0  0
    2.6059    1.1177   -0.0449 C   0  0  0  0  0  0  0  0  0  0  0  0
    4.6137   -0.4241   -0.0589 C   0  0  0  0  0  0  0  0  0  0  0  0
    5.1339    0.1288   -1.3813 C   0  0  0  0  0  0  0  0  0  0  0  0
    5.2977    0.2551    1.1238 C   0  0  0  0  0  0  0  0  0  0  0  0
   -1.8340   -1.1168   -1.2951 H   0  0  0  0  0  0  0  0  0  0  0  0
   -1.3137    1.9293    1.7444 H   0  0  0  0  0  0  0  0  0  0  0  0
   -1.3486    0.2732    2.2903 H   0  0  0  0  0  0  0  0  0  0  0  0
   -3.8947   -0.9701    1.9216 H   0  0  0  0  0  0  0  0  0  0  0  0
   -5.0994    0.0882    1.2187 H   0  0  0  0  0  0  0  0  0  0  0  0
   -2.1343   -2.9414    0.3691 H   0  0  0  0  0  0  0  0  0  0  0  0
   -1.6738   -1.8372    1.6598 H   0  0  0  0  0  0  0  0  0  0  0  0
   -1.4180    1.0550   -1.9994 H   0  0  0  0  0  0  0  0  0  0  0  0
   -3.4649    1.1868    2.8001 H   0  0  0  0  0  0  0  0  0  0  0  0
   -3.6317    1.9780    1.2585 H   0  0  0  0  0  0  0  0  0  0  0  0
   -3.7060    0.0847   -2.2787 H   0  0  0  0  0  0  0  0  0  0  0  0
   -4.9663    0.7387   -1.2380 H   0  0  0  0  0  0  0  0  0  0  0  0
    0.3129   -2.9553    1.0384 H   0  0  0  0  0  0  0  0  0  0  0  0
   -4.0624   -2.3017   -1.5161 H   0  0  0  0  0  0  0  0  0  0  0  0
   -5.4710   -1.6415   -0.6733 H   0  0  0  0  0  0  0  0  0  0  0  0
   -4.3238   -2.6503    0.2013 H   0  0  0  0  0  0  0  0  0  0  0  0
   -1.0837    3.1134   -1.8322 H   0  0  0  0  0  0  0  0  0  0  0  0
   -0.4808   -3.8392   -0.8743 H   0  0  0  0  0  0  0  0  0  0  0  0
    4.9135   -1.4753   -0.0399 H   0  0  0  0  0  0  0  0  0  0  0  0
    3.5728   -2.5913    0.5831 H   0  0  0  0  0  0  0  0  0  0  0  0
    5.1860    1.3436    1.1214 H   0  0  0  0  0  0  0  0  0  0  0  0
    6.3734    0.0451    1.1078 H   0  0  0  0  0  0  0  0  0  0  0  0
    5.1732    1.2208   -1.4194 H   0  0  0  0  0  0  0  0  0  0  0  0
    4.5388   -0.2271   -2.2300 H   0  0  0  0  0  0  0  0  0  0  0  0
    6.1625   -0.2159   -1.5439 H   0  0  0  0  0  0  0  0  0  0  0  0
    4.9053   -0.1229    2.0747 H   0  0  0  0  0  0  0  0  0  0  0  0
  1 13  1  0  0  0  0
  1 16  1  0  0  0  0
  2 13  1  0  0  0  0
  2 43  1  0  0  0  0
  3 17  1  0  0  0  0
  3 44  1  0  0  0  0
  4 20  2  0  0  0  0
  5 21  1  0  0  0  0
  5 46  1  0  0  0  0
  6 23  2  0  0  0  0
  7  8  1  0  0  0  0
  7 10  1  0  0  0  0
  7 13  1  0  0  0  0
  7 15  1  0  0  0  0
  8  9  1  0  0  0  0
  8 12  1  0  0  0  0
  8 27  1  0  0  0  0
  9 11  1  0  0  0  0
  9 16  1  0  0  0  0
  9 18  1  0  0  0  0
 10 14  1  0  0  0  0
 10 28  1  0  0  0  0
 10 29  1  0  0  0  0
 11 14  1  0  0  0  0
 11 30  1  0  0  0  0
 11 31  1  0  0  0  0
 12 17  1  0  0  0  0
 12 32  1  0  0  0  0
 12 33  1  0  0  0  0
 13 34  1  0  0  0  0
 14 35  1  0  0  0  0
 14 36  1  0  0  0  0
 15 19  2  0  0  0  0
 15 20  1  0  0  0  0
 16 37  1  0  0  0  0
 16 38  1  0  0  0  0
 17 19  1  0  0  0  0
 17 39  1  0  0  0  0
 18 40  1  0  0  0  0
 18 41  1  0  0  0  0
 18 42  1  0  0  0  0
 19 21  1  0  0  0  0
 20 23  1  0  0  0  0
 21 22  2  0  0  0  0
 22 23  1  0  0  0  0
 22 24  1  0  0  0  0
 24 25  1  0  0  0  0
 24 26  1  0  0  0  0
 24 45  1  0  0  0  0
 25 49  1  0  0  0  0
 25 50  1  0  0  0  0
 25 51  1  0  0  0  0
 26 47  1  0  0  0  0
 26 48  1  0  0  0  0
 26 52  1  0  0  0  0
M  END
> <PUBCHEM_COMPOUND_CID>
101316726

> <PUBCHEM_CONFORMER_RMSD>
0.6

> <PUBCHEM_CONFORMER_DIVERSEORDER>
1

> <PUBCHEM_MMFF94_PARTIAL_CHARGES>
20
1 -0.56
13 0.56
15 -0.12
16 0.28
17 0.42
19 -0.14
2 -0.68
20 0.56
21 0.08
22 -0.12
23 0.56
24 0.14
3 -0.68
4 -0.57
43 0.4
44 0.4
46 0.45
5 -0.53
6 -0.57
7 0.14

> <PUBCHEM_EFFECTIVE_ROTOR_COUNT>
2.6

> <PUBCHEM_PHARMACOPHORE_FEATURES>
13
1 1 acceptor
1 2 acceptor
1 2 donor
1 3 acceptor
1 3 donor
1 4 acceptor
1 5 donor
1 6 acceptor
3 24 25 26 hydrophobe
6 1 7 8 9 13 16 rings
6 15 19 20 21 22 23 rings
6 7 8 12 15 17 19 rings
6 7 8 9 10 11 14 rings

> <PUBCHEM_HEAVY_ATOM_COUNT>
26

> <PUBCHEM_ATOM_DEF_STEREO_COUNT>
5

> <PUBCHEM_ATOM_UDEF_STEREO_COUNT>
0

> <PUBCHEM_BOND_DEF_STEREO_COUNT>
0

> <PUBCHEM_BOND_UDEF_STEREO_COUNT>
0

> <PUBCHEM_ISOTOPIC_ATOM_COUNT>
0

> <PUBCHEM_COMPONENT_COUNT>
1

> <PUBCHEM_CACTVS_TAUTO_COUNT>
19

> <PUBCHEM_CONFORMER_ID>
0609F87600000001

> <PUBCHEM_MMFF94_ENERGY>
80.5357

> <PUBCHEM_FEATURE_SELFOVERLAP>
67.82

> <PUBCHEM_SHAPE_FINGERPRINT>
10366900 7 18113905991349666082
10498660 4 18333728005142424260
10675989 125 16893120116373917468
10759866 29 17822292353964256730
10863032 1 18336819819403175701
10967382 1 18337669823026443498
11112241 14 16771237453317456472
11132069 177 18412825780791605498
11578080 2 16445295782437970543
12011746 2 18408885152555654191
12236239 1 17632578227961033041
12403259 226 18410003373029459085
12403259 415 18409726287493637177
12403260 363 18334285483560899596
12403814 3 18186243926392730985
12553582 1 18410863144283947688
12596599 1 17916596336311834999
12633257 1 18410015446472386400
12788726 201 17344906313928646377
13140716 1 18265898145536332760
13224815 77 18113627763167666901
13583140 156 16877657967924767888
14142880 1 18341899537517669273
14790565 3 18339376192037910529
15196674 1 18338233872475583902
15209289 33 18272094910986064513
15309172 13 18410578379040249107
15788980 27 17749388144399209298
16945 1 18259708882429271346
17349148 13 18343299271437754754
18186145 218 18343868796801431186
19591789 44 18338233893940202214
200 152 18131625699399754213
20028762 73 17916304020933537783
21267235 1 18340496650210314714
21857420 4 12848562101158335044
23227448 37 18337388374225770910
2334 1 18411417302032839859
23402539 116 17988926660683245048
23493267 7 17313097549573294785
23559900 14 18269546298883733616
238 59 18048844512510841589
2748010 2 17977664543410656626
3286 77 17917427695793365873
335352 9 18410009944339705518
350125 39 18411421739024278449
5104073 3 18337106752924910010
9709674 26 18407761426034554002

> <PUBCHEM_SHAPE_MULTIPOLES>
499.85
9.23
2.68
1.26
6.64
0.53
-0.12
0.12
0.51
-0.36
0.35
-0.66
-0.38
-0.06

> <PUBCHEM_SHAPE_SELFOVERLAP>
1091.397

> <PUBCHEM_SHAPE_VOLUME>
263.6

> <PUBCHEM_COORDINATE_TYPE>
2
5
10

$$$$
