101306702
  -OEChem-03292013293D

 63 67  0     1  0  0  0  0  0999 V2000
    3.1228    2.6927   -0.1950 O   0  0  0  0  0  0  0  0  0  0  0  0
    1.8345    0.5953   -1.6761 O   0  0  0  0  0  0  0  0  0  0  0  0
   -0.6775    2.8359    1.0309 O   0  0  0  0  0  0  0  0  0  0  0  0
    1.8448   -2.1174   -0.6753 O   0  0  0  0  0  0  0  0  0  0  0  0
   -1.7799   -1.6066    1.6379 O   0  0  0  0  0  0  0  0  0  0  0  0
   -4.1622   -2.0559    0.3754 O   0  0  0  0  0  0  0  0  0  0  0  0
    0.9883   -3.6029    0.8725 O   0  0  0  0  0  0  0  0  0  0  0  0
    1.0837    1.3943    0.4940 C   0  0  1  0  0  0  0  0  0  0  0  0
    1.7954    0.2552   -0.2892 C   0  0  2  0  0  0  0  0  0  0  0  0
   -1.4718   -0.2414   -0.3996 C   0  0  1  0  0  0  0  0  0  0  0  0
    2.2061    2.3564    0.8576 C   0  0  1  0  0  0  0  0  0  0  0  0
   -1.2867    1.2762   -0.7920 C   0  0  2  0  0  0  0  0  0  0  0  0
    3.2852    0.2396    0.2991 C   0  0  0  0  0  0  0  0  0  0  0  0
    3.5143    1.6748    0.7298 C   0  0  1  0  0  0  0  0  0  0  0  0
   -0.1363    2.1380   -0.1153 C   0  0  1  0  0  0  0  0  0  0  0  0
    1.0360   -1.0695   -0.1210 C   0  0  1  0  0  0  0  0  0  0  0  0
   -0.3056   -1.1488   -0.8365 C   0  0  0  0  0  0  0  0  0  0  0  0
   -1.9062   -0.3075    1.0758 C   0  0  1  0  0  0  0  0  0  0  0  0
   -3.3828    0.1384    0.9718 C   0  0  2  0  0  0  0  0  0  0  0  0
   -2.7471   -0.8305   -1.1563 C   0  0  0  0  0  0  0  0  0  0  0  0
   -3.9252   -0.7473   -0.1676 C   0  0  1  0  0  0  0  0  0  0  0  0
   -2.6613    2.0120   -0.6444 C   0  0  0  0  0  0  0  0  0  0  0  0
   -3.4306    1.6396    0.6370 C   0  0  0  0  0  0  0  0  0  0  0  0
    3.4351   -0.6399    1.5605 C   0  0  0  0  0  0  0  0  0  0  0  0
    4.3618   -0.1611   -0.7205 C   0  0  0  0  0  0  0  0  0  0  0  0
    0.2788    3.2409   -1.1249 C   0  0  0  0  0  0  0  0  0  0  0  0
   -5.2407   -0.3074   -0.8013 C   0  0  0  0  0  0  0  0  0  0  0  0
    1.7146   -3.3319   -0.0740 C   0  0  0  0  0  0  0  0  0  0  0  0
    2.6125   -4.3213   -0.7532 C   0  0  0  0  0  0  0  0  0  0  0  0
    0.7866    0.9727    1.4641 H   0  0  0  0  0  0  0  0  0  0  0  0
    2.0243    3.0515    1.6608 H   0  0  0  0  0  0  0  0  0  0  0  0
   -1.0543    1.2637   -1.8676 H   0  0  0  0  0  0  0  0  0  0  0  0
    4.3233    1.8738    1.4135 H   0  0  0  0  0  0  0  0  0  0  0  0
    0.8798   -1.2491    0.9494 H   0  0  0  0  0  0  0  0  0  0  0  0
   -0.1458   -1.0243   -1.9172 H   0  0  0  0  0  0  0  0  0  0  0  0
   -0.6387   -2.1928   -0.7491 H   0  0  0  0  0  0  0  0  0  0  0  0
   -1.3351    0.3481    1.7289 H   0  0  0  0  0  0  0  0  0  0  0  0
   -3.9139   -0.0650    1.9090 H   0  0  0  0  0  0  0  0  0  0  0  0
   -2.9330   -0.2815   -2.0859 H   0  0  0  0  0  0  0  0  0  0  0  0
   -2.5953   -1.8759   -1.4523 H   0  0  0  0  0  0  0  0  0  0  0  0
   -3.2793    1.7861   -1.5198 H   0  0  0  0  0  0  0  0  0  0  0  0
   -2.5431    3.1007   -0.6822 H   0  0  0  0  0  0  0  0  0  0  0  0
   -3.0279    2.1993    1.4881 H   0  0  0  0  0  0  0  0  0  0  0  0
   -4.4701    1.9743    0.5408 H   0  0  0  0  0  0  0  0  0  0  0  0
    4.2118   -1.1797   -1.0898 H   0  0  0  0  0  0  0  0  0  0  0  0
    3.3895   -1.7068    1.3327 H   0  0  0  0  0  0  0  0  0  0  0  0
    2.6682   -0.4100    2.3082 H   0  0  0  0  0  0  0  0  0  0  0  0
    5.3603   -0.1155   -0.2696 H   0  0  0  0  0  0  0  0  0  0  0  0
    4.3795    0.5158   -1.5817 H   0  0  0  0  0  0  0  0  0  0  0  0
    4.4051   -0.4645    2.0422 H   0  0  0  0  0  0  0  0  0  0  0  0
    0.8842    4.0197   -0.6492 H   0  0  0  0  0  0  0  0  0  0  0  0
   -0.5979    3.7714   -1.5121 H   0  0  0  0  0  0  0  0  0  0  0  0
    0.8228    2.8378   -1.9825 H   0  0  0  0  0  0  0  0  0  0  0  0
    2.1644   -0.1779   -2.1647 H   0  0  0  0  0  0  0  0  0  0  0  0
   -0.8055    2.2174    1.7656 H   0  0  0  0  0  0  0  0  0  0  0  0
   -6.0277   -0.2407   -0.0416 H   0  0  0  0  0  0  0  0  0  0  0  0
   -5.5809   -1.0465   -1.5361 H   0  0  0  0  0  0  0  0  0  0  0  0
   -5.1745    0.6557   -1.3118 H   0  0  0  0  0  0  0  0  0  0  0  0
   -2.1798   -1.5812    2.5237 H   0  0  0  0  0  0  0  0  0  0  0  0
   -4.4201   -2.6432   -0.3557 H   0  0  0  0  0  0  0  0  0  0  0  0
    3.6532   -4.0005   -0.6615 H   0  0  0  0  0  0  0  0  0  0  0  0
    2.3299   -4.4177   -1.8045 H   0  0  0  0  0  0  0  0  0  0  0  0
    2.5051   -5.2979   -0.2726 H   0  0  0  0  0  0  0  0  0  0  0  0
  1 11  1  0  0  0  0
  1 14  1  0  0  0  0
  2  9  1  0  0  0  0
  2 54  1  0  0  0  0
  3 15  1  0  0  0  0
  3 55  1  0  0  0  0
  4 16  1  0  0  0  0
  4 28  1  0  0  0  0
  5 18  1  0  0  0  0
  5 59  1  0  0  0  0
  6 21  1  0  0  0  0
  6 60  1  0  0  0  0
  7 28  2  0  0  0  0
  8  9  1  0  0  0  0
  8 11  1  0  0  0  0
  8 15  1  0  0  0  0
  8 30  1  0  0  0  0
  9 13  1  0  0  0  0
  9 16  1  0  0  0  0
 10 12  1  0  0  0  0
 10 17  1  0  0  0  0
 10 18  1  0  0  0  0
 10 20  1  0  0  0  0
 11 14  1  0  0  0  0
 11 31  1  0  0  0  0
 12 15  1  0  0  0  0
 12 22  1  0  0  0  0
 12 32  1  0  0  0  0
 13 14  1  0  0  0  0
 13 24  1  0  0  0  0
 13 25  1  0  0  0  0
 14 33  1  0  0  0  0
 15 26  1  0  0  0  0
 16 17  1  0  0  0  0
 16 34  1  0  0  0  0
 17 35  1  0  0  0  0
 17 36  1  0  0  0  0
 18 19  1  0  0  0  0
 18 37  1  0  0  0  0
 19 21  1  0  0  0  0
 19 23  1  0  0  0  0
 19 38  1  0  0  0  0
 20 21  1  0  0  0  0
 20 39  1  0  0  0  0
 20 40  1  0  0  0  0
 21 27  1  0  0  0  0
 22 23  1  0  0  0  0
 22 41  1  0  0  0  0
 22 42  1  0  0  0  0
 23 43  1  0  0  0  0
 23 44  1  0  0  0  0
 24 46  1  0  0  0  0
 24 47  1  0  0  0  0
 24 50  1  0  0  0  0
 25 45  1  0  0  0  0
 25 48  1  0  0  0  0
 25 49  1  0  0  0  0
 26 51  1  0  0  0  0
 26 52  1  0  0  0  0
 26 53  1  0  0  0  0
 27 56  1  0  0  0  0
 27 57  1  0  0  0  0
 27 58  1  0  0  0  0
 28 29  1  0  0  0  0
 29 61  1  0  0  0  0
 29 62  1  0  0  0  0
 29 63  1  0  0  0  0
M  END
> <PUBCHEM_COMPOUND_CID>
101306702

> <PUBCHEM_CONFORMER_RMSD>
0.8

> <PUBCHEM_CONFORMER_DIVERSEORDER>
1
2

> <PUBCHEM_MMFF94_PARTIAL_CHARGES>
24
1 -0.3
11 -0.05
13 0.09
14 -0.05
15 0.28
16 0.28
18 0.28
2 -0.68
21 0.28
28 0.66
29 0.06
3 -0.68
31 0.1
33 0.1
4 -0.43
5 -0.68
54 0.4
55 0.4
59 0.4
6 -0.68
60 0.4
7 -0.57
8 0.09
9 0.28

> <PUBCHEM_EFFECTIVE_ROTOR_COUNT>
4

> <PUBCHEM_PHARMACOPHORE_FEATURES>
14
1 1 acceptor
1 2 acceptor
1 2 donor
1 3 acceptor
1 3 donor
1 5 acceptor
1 5 donor
1 6 acceptor
1 6 donor
1 7 acceptor
3 13 24 25 hydrophobe
6 1 8 9 11 13 14 rings
7 8 9 10 12 15 16 17 rings
8 10 12 18 19 20 21 22 23 rings

> <PUBCHEM_HEAVY_ATOM_COUNT>
29

> <PUBCHEM_ATOM_DEF_STEREO_COUNT>
11

> <PUBCHEM_ATOM_UDEF_STEREO_COUNT>
0

> <PUBCHEM_BOND_DEF_STEREO_COUNT>
0

> <PUBCHEM_BOND_UDEF_STEREO_COUNT>
0

> <PUBCHEM_ISOTOPIC_ATOM_COUNT>
0

> <PUBCHEM_COMPONENT_COUNT>
1

> <PUBCHEM_CACTVS_TAUTO_COUNT>
2

> <PUBCHEM_CONFORMER_ID>
0609D14E00000001

> <PUBCHEM_MMFF94_ENERGY>
141.9361

> <PUBCHEM_FEATURE_SELFOVERLAP>
71.076

> <PUBCHEM_SHAPE_FINGERPRINT>
10074138 170 17405671124648085048
10366900 7 18335425663964930578
10863032 1 18341611448011611145
10906281 52 18187939403651569045
10967382 1 18411978104639756684
1100329 8 17690555712227724568
11578080 2 17271692067474243441
11680986 33 18124305004837205940
12011746 2 18408885174083290069
12156800 1 13813612381688191054
12553582 1 18334303054103445409
12592029 89 18342453763938747107
12633257 1 18334010562435134513
13140716 1 18341603880336959250
13224815 77 18410011052483725469
13533116 47 18340205198873791127
14178342 30 18412265038662715305
14223421 5 18338510816472975812
14787075 74 17701536444538450793
14790565 3 18338806718720256516
14844126 61 16966602673254846210
15209289 33 18342179981548799612
16728300 4 17680949038854645706
16945 1 18270109107229840988
17349148 13 18188203295089737439
17492 89 18341891836599518551
19591789 44 18340487863039250806
19930381 70 18410570691165178123
20028762 73 17985543604939059519
20691752 17 18115316548909415529
20739085 24 18335421304779288820
20775438 99 17688540020172845295
20775530 9 18049164358673184974
20905425 154 18196936574030677382
21285901 2 17822559552437826445
21421861 104 18045222643878430418
23184049 29 18049438137057659370
23184049 59 18340199816614948984
2334 1 18196081364596076268
23559900 14 18337667495164712236
2818148 4 17910694076468974078
350125 39 18411415159393278932
4409770 3 16895398287386032670
463206 1 18198615734835475335
474 4 18340766052054717538
5104073 3 18341611542348119641
59755656 215 18410294683444523623
70251023 43 18194965141367141691
7097593 13 18197499519462225803
9709674 26 18337108952069490451

> <PUBCHEM_SHAPE_MULTIPOLES>
555.72
7.63
4.17
1.28
3.91
2.31
0.11
1.31
0.14
-3.1
-0.25
-0.03
0
0.45

> <PUBCHEM_SHAPE_SELFOVERLAP>
1203.849

> <PUBCHEM_SHAPE_VOLUME>
299.3

> <PUBCHEM_COORDINATE_TYPE>
2
5
10

$$$$
