101317
  -OEChem-03292013323D

 29 30  0     1  0  0  0  0  0999 V2000
    2.6005   -2.4543   -0.3839 F   0  0  0  0  0  0  0  0  0  0  0  0
   -1.4822   -0.3221    0.9946 O   0  0  0  0  0  0  0  0  0  0  0  0
   -1.0833    0.1814   -1.9360 O   0  0  0  0  0  0  0  0  0  0  0  0
   -3.5514    1.8503    0.0932 O   0  0  0  0  0  0  0  0  0  0  0  0
   -2.8251   -2.7587    0.8500 O   0  0  0  0  0  0  0  0  0  0  0  0
    1.3050    2.7010    0.6109 O   0  0  0  0  0  0  0  0  0  0  0  0
    4.5088   -0.5314   -0.1560 O   0  0  0  0  0  0  0  0  0  0  0  0
    0.5865    0.5028    0.2643 N   0  0  0  0  0  0  0  0  0  0  0  0
    2.8991    1.0917    0.2301 N   0  0  0  0  0  0  0  0  0  0  0  0
   -1.5200    1.0717   -0.9156 C   0  0  1  0  0  0  0  0  0  0  0  0
   -2.9539    0.7349   -0.5639 C   0  0  1  0  0  0  0  0  0  0  0  0
   -0.8090    0.7953    0.4000 C   0  0  1  0  0  0  0  0  0  0  0  0
   -2.8150   -0.4033    0.4488 C   0  0  1  0  0  0  0  0  0  0  0  0
   -2.9827   -1.7849   -0.1675 C   0  0  0  0  0  0  0  0  0  0  0  0
    1.5707    1.5182    0.3855 C   0  0  0  0  0  0  0  0  0  0  0  0
    0.9732   -0.8099    0.0072 C   0  0  0  0  0  0  0  0  0  0  0  0
    2.2437   -1.1812   -0.1353 C   0  0  0  0  0  0  0  0  0  0  0  0
    3.3351   -0.2013   -0.0263 C   0  0  0  0  0  0  0  0  0  0  0  0
   -1.3629    2.1008   -1.2533 H   0  0  0  0  0  0  0  0  0  0  0  0
   -3.5803    0.4708   -1.4208 H   0  0  0  0  0  0  0  0  0  0  0  0
   -0.9328    1.6448    1.0826 H   0  0  0  0  0  0  0  0  0  0  0  0
   -3.5079   -0.2915    1.2911 H   0  0  0  0  0  0  0  0  0  0  0  0
   -2.2250   -1.9816   -0.9316 H   0  0  0  0  0  0  0  0  0  0  0  0
   -3.9776   -1.8967   -0.6095 H   0  0  0  0  0  0  0  0  0  0  0  0
   -1.6092    0.3699   -2.7319 H   0  0  0  0  0  0  0  0  0  0  0  0
   -3.0758    2.0231    0.9225 H   0  0  0  0  0  0  0  0  0  0  0  0
    0.1938   -1.5562   -0.0926 H   0  0  0  0  0  0  0  0  0  0  0  0
    3.6167    1.8064    0.3139 H   0  0  0  0  0  0  0  0  0  0  0  0
   -2.9408   -3.6298    0.4337 H   0  0  0  0  0  0  0  0  0  0  0  0
  1 17  1  0  0  0  0
  2 12  1  0  0  0  0
  2 13  1  0  0  0  0
  3 10  1  0  0  0  0
  3 25  1  0  0  0  0
  4 11  1  0  0  0  0
  4 26  1  0  0  0  0
  5 14  1  0  0  0  0
  5 29  1  0  0  0  0
  6 15  2  0  0  0  0
  7 18  2  0  0  0  0
  8 12  1  0  0  0  0
  8 15  1  0  0  0  0
  8 16  1  0  0  0  0
  9 15  1  0  0  0  0
  9 18  1  0  0  0  0
  9 28  1  0  0  0  0
 10 11  1  0  0  0  0
 10 12  1  0  0  0  0
 10 19  1  0  0  0  0
 11 13  1  0  0  0  0
 11 20  1  0  0  0  0
 12 21  1  0  0  0  0
 13 14  1  0  0  0  0
 13 22  1  0  0  0  0
 14 23  1  0  0  0  0
 14 24  1  0  0  0  0
 16 17  2  0  0  0  0
 16 27  1  0  0  0  0
 17 18  1  0  0  0  0
M  END
> <PUBCHEM_COMPOUND_CID>
101317

> <PUBCHEM_CONFORMER_RMSD>
0.6

> <PUBCHEM_CONFORMER_DIVERSEORDER>
1
6
8
9
10
2
7
4
5
3

> <PUBCHEM_MMFF94_PARTIAL_CHARGES>
23
1 -0.15
10 0.28
11 0.28
12 0.58
13 0.28
14 0.28
15 0.69
16 -0.04
17 0.16
18 0.62
2 -0.56
25 0.4
26 0.4
27 0.15
28 0.37
29 0.4
3 -0.68
4 -0.68
5 -0.68
6 -0.57
7 -0.57
8 -0.47
9 -0.49

> <PUBCHEM_EFFECTIVE_ROTOR_COUNT>
3

> <PUBCHEM_PHARMACOPHORE_FEATURES>
12
1 2 acceptor
1 3 acceptor
1 3 donor
1 4 acceptor
1 4 donor
1 5 acceptor
1 5 donor
1 6 acceptor
1 7 acceptor
1 9 donor
5 2 10 11 12 13 rings
6 8 9 15 16 17 18 rings

> <PUBCHEM_HEAVY_ATOM_COUNT>
18

> <PUBCHEM_ATOM_DEF_STEREO_COUNT>
4

> <PUBCHEM_ATOM_UDEF_STEREO_COUNT>
0

> <PUBCHEM_BOND_DEF_STEREO_COUNT>
0

> <PUBCHEM_BOND_UDEF_STEREO_COUNT>
0

> <PUBCHEM_ISOTOPIC_ATOM_COUNT>
0

> <PUBCHEM_COMPONENT_COUNT>
1

> <PUBCHEM_CACTVS_TAUTO_COUNT>
3

> <PUBCHEM_CONFORMER_ID>
00018BC500000001

> <PUBCHEM_MMFF94_ENERGY>
46.1471

> <PUBCHEM_FEATURE_SELFOVERLAP>
60.906

> <PUBCHEM_SHAPE_FINGERPRINT>
10608611 8 18410006663027265873
12500047 106 18334853879601333205
12932764 1 17530953662102838873
12969540 114 17605813869179563277
13214271 11 18343578534416624036
13296908 3 18343300370748896208
14115302 16 18189346692287350764
14965852 173 18409729573396514361
15219456 202 18409726300362526497
15375462 6 18195245739916770757
16945 1 18412830161632042513
17834074 16 18409730685629565659
19107657 46 18411982442620243510
200 152 17988916795269979751
20201158 50 18409448046832612986
21501502 16 18334579087287896741
221490 88 18338241590911863466
23402539 116 16515400755551607022
23559900 14 18338508763536845009
25 1 18192424178321002741
2748010 2 18266446792679309488
2871803 45 18262792007776484987
3286 77 18337105790915376036
3312278 4 18341334413835698040
34934 24 18269549460179675168
5104073 3 18411980282393969944
5493415 88 18411980286625568040
69090 78 18336261259127909285
74978 22 18411697664840010673
77492 1 17203604878474872436
81228 2 17895195571254371345
8809292 202 18334579057170443426
93112 12 18410853261347746217
9709674 26 18412265042899770623

> <PUBCHEM_SHAPE_MULTIPOLES>
317.98
6.51
2.41
0.96
2.21
0.51
0.29
1.52
0.02
-0.54
-0.38
-0.46
-0.04
0.81

> <PUBCHEM_SHAPE_SELFOVERLAP>
673.576

> <PUBCHEM_SHAPE_VOLUME>
177.9

> <PUBCHEM_COORDINATE_TYPE>
2
5
10

$$$$
