101340324
  -OEChem-03292013293D

 27 28  0     1  0  0  0  0  0999 V2000
   -3.8566   -1.5176    1.1625 S   0  0  0  0  0  0  0  0  0  0  0  0
   -1.2175    0.5597   -0.8364 O   0  0  0  0  0  0  0  0  0  0  0  0
   -4.7113    1.3700   -0.2856 O   0  0  0  0  0  0  0  0  0  0  0  0
    1.8075   -2.2128   -0.8238 O   0  0  0  0  0  0  0  0  0  0  0  0
    0.9045   -0.1846   -0.1929 N   0  0  0  0  0  0  0  0  0  0  0  0
    3.2823   -0.6149   -0.1732 N   0  0  0  0  0  0  0  0  0  0  0  0
    4.7881    1.0266    0.4949 N   0  0  0  0  0  0  0  0  0  0  0  0
   -0.4531   -0.5794   -0.4233 C   0  0  1  0  0  0  0  0  0  0  0  0
   -1.1293   -1.0923    0.8321 C   0  0  0  0  0  0  0  0  0  0  0  0
   -2.6160    0.2714   -0.6175 C   0  0  1  0  0  0  0  0  0  0  0  0
   -2.5382   -0.7731    0.4659 C   0  0  0  0  0  0  0  0  0  0  0  0
   -3.3066    1.5589   -0.2146 C   0  0  0  0  0  0  0  0  0  0  0  0
    1.1595    1.1009    0.2651 C   0  0  0  0  0  0  0  0  0  0  0  0
    1.9959   -1.0647   -0.4175 C   0  0  0  0  0  0  0  0  0  0  0  0
    2.3889    1.5524    0.5060 C   0  0  0  0  0  0  0  0  0  0  0  0
    3.5020    0.5994    0.2582 C   0  0  0  0  0  0  0  0  0  0  0  0
   -0.4956   -1.3290   -1.2241 H   0  0  0  0  0  0  0  0  0  0  0  0
   -0.8602   -0.5172    1.7249 H   0  0  0  0  0  0  0  0  0  0  0  0
   -0.9423   -2.1551    1.0047 H   0  0  0  0  0  0  0  0  0  0  0  0
   -3.0364   -0.1663   -1.5300 H   0  0  0  0  0  0  0  0  0  0  0  0
   -3.0285    2.3748   -0.8903 H   0  0  0  0  0  0  0  0  0  0  0  0
   -3.0372    1.8596    0.8039 H   0  0  0  0  0  0  0  0  0  0  0  0
    0.3118    1.7503    0.4529 H   0  0  0  0  0  0  0  0  0  0  0  0
    2.5916    2.5499    0.8723 H   0  0  0  0  0  0  0  0  0  0  0  0
   -5.1261    2.2107   -0.0271 H   0  0  0  0  0  0  0  0  0  0  0  0
    4.9910    1.9627    0.8297 H   0  0  0  0  0  0  0  0  0  0  0  0
    5.5783    0.4099    0.3394 H   0  0  0  0  0  0  0  0  0  0  0  0
  1 11  2  0  0  0  0
  2  8  1  0  0  0  0
  2 10  1  0  0  0  0
  3 12  1  0  0  0  0
  3 25  1  0  0  0  0
  4 14  2  0  0  0  0
  5  8  1  0  0  0  0
  5 13  1  0  0  0  0
  5 14  1  0  0  0  0
  6 14  1  0  0  0  0
  6 16  2  0  0  0  0
  7 16  1  0  0  0  0
  7 26  1  0  0  0  0
  7 27  1  0  0  0  0
  8  9  1  0  0  0  0
  8 17  1  0  0  0  0
  9 11  1  0  0  0  0
  9 18  1  0  0  0  0
  9 19  1  0  0  0  0
 10 11  1  0  0  0  0
 10 12  1  0  0  0  0
 10 20  1  0  0  0  0
 12 21  1  0  0  0  0
 12 22  1  0  0  0  0
 13 15  2  0  0  0  0
 13 23  1  0  0  0  0
 15 16  1  0  0  0  0
 15 24  1  0  0  0  0
M  END
> <PUBCHEM_COMPOUND_CID>
101340324

> <PUBCHEM_CONFORMER_RMSD>
0.6

> <PUBCHEM_CONFORMER_DIVERSEORDER>
1
14
12
6
4
10
7
11
15
13
3
8
2
16
5
9

> <PUBCHEM_MMFF94_PARTIAL_CHARGES>
21
1 -0.38
10 0.34
11 0.26
12 0.28
13 -0.04
14 0.84
15 -0.14
16 0.49
2 -0.56
23 0.15
24 0.15
25 0.4
26 0.4
27 0.4
3 -0.68
4 -0.57
5 -0.47
6 -0.66
7 -0.85
8 0.58
9 0.06

> <PUBCHEM_EFFECTIVE_ROTOR_COUNT>
2.8

> <PUBCHEM_PHARMACOPHORE_FEATURES>
9
1 1 acceptor
1 2 acceptor
1 3 acceptor
1 3 donor
1 4 acceptor
1 6 donor
1 7 donor
5 2 8 9 10 11 rings
6 5 6 13 14 15 16 rings

> <PUBCHEM_HEAVY_ATOM_COUNT>
16

> <PUBCHEM_ATOM_DEF_STEREO_COUNT>
2

> <PUBCHEM_ATOM_UDEF_STEREO_COUNT>
0

> <PUBCHEM_BOND_DEF_STEREO_COUNT>
0

> <PUBCHEM_BOND_UDEF_STEREO_COUNT>
0

> <PUBCHEM_ISOTOPIC_ATOM_COUNT>
0

> <PUBCHEM_COMPONENT_COUNT>
1

> <PUBCHEM_CACTVS_TAUTO_COUNT>
6

> <PUBCHEM_CONFORMER_ID>
060A54A400000001

> <PUBCHEM_MMFF94_ENERGY>
46.2318

> <PUBCHEM_FEATURE_SELFOVERLAP>
45.718

> <PUBCHEM_SHAPE_FINGERPRINT>
10608611 8 18410291419422092717
11132069 177 17967256373522151485
11471102 20 18272366443340429084
12251169 10 18189617314071536730
12500047 106 18407757045246585147
12507560 40 18411425003215228003
12654215 9 18342737382441501620
12932764 1 17988646336763096551
13214271 11 18408600387850129589
13296908 3 18409735044900155758
14178342 30 17603589621132831315
14993402 34 15985381196524869044
15219456 202 18411140229403005655
15279308 16 18410575080589690205
15309172 13 18059859497180926022
15375358 24 18410290302577413596
15653759 3 18186804703087289433
16945 1 18202003235296481742
17844478 74 18335708277276623873
18186145 218 17489310853639470648
19049666 15 18336551495289498547
200 152 17846211189928270151
20201158 50 18411981338734351710
20279233 1 18408888429742275279
20510252 161 18408327700687710641
20645464 45 18259983786316911635
20645476 183 16773783814741301693
20645477 56 18334016073474338517
20645477 70 17916865712149544846
22854114 59 18270967950143340883
22943178 12 18409173177531778663
22959321 60 18410574011042619816
23402539 116 18115580595109675747
23402655 69 18059285479323772757
23557571 272 18261690232473792063
23559900 14 18188778241024441014
25 1 18341324522557676732
2748010 2 18335427850477882807
3545911 37 18411702071587251941
495365 180 18130208368497224243
5104073 3 18408602552423924696
53812653 166 18260828163743934091
6049 1 18339096916363445623
69090 78 18411975845988190519
77492 1 16415763015668222510
8272917 22 17845658027952193663
9709674 26 18410858750442785087

> <PUBCHEM_SHAPE_MULTIPOLES>
300.57
8.26
1.86
0.92
0.34
0.14
-0.07
-2.02
-1.37
-0.66
0.03
-0.28
0.19
1.41

> <PUBCHEM_SHAPE_SELFOVERLAP>
621.528

> <PUBCHEM_SHAPE_VOLUME>
174.2

> <PUBCHEM_COORDINATE_TYPE>
2
5
10

$$$$
