101316812
  -OEChem-03292013293D

 70 76  0     1  0  0  0  0  0999 V2000
   -0.7063   -1.4927    2.4557 O   0  0  0  0  0  0  0  0  0  0  0  0
    3.0248   -2.3003    1.7385 O   0  0  0  0  0  0  0  0  0  0  0  0
   -2.4799   -1.5725   -1.5572 O   0  0  0  0  0  0  0  0  0  0  0  0
    2.9657    2.8913   -1.1518 O   0  0  0  0  0  0  0  0  0  0  0  0
    0.0604   -3.5423    1.8557 O   0  0  0  0  0  0  0  0  0  0  0  0
   -3.9313    0.2917   -2.7265 O   0  0  0  0  0  0  0  0  0  0  0  0
    3.6021    4.4199    0.4348 O   0  0  0  0  0  0  0  0  0  0  0  0
    1.5466   -1.1436    0.1325 C   0  0  1  0  0  0  0  0  0  0  0  0
    0.0492   -1.6965    0.2245 C   0  0  2  0  0  0  0  0  0  0  0  0
    1.9536   -1.3302   -1.3526 C   0  0  1  0  0  0  0  0  0  0  0  0
    1.5216   -2.8037   -1.4023 C   0  0  2  0  0  0  0  0  0  0  0  0
    0.0546   -2.7466   -0.9258 C   0  0  0  0  0  0  0  0  0  0  0  0
   -1.0911   -0.6272    0.2765 C   0  0  2  0  0  0  0  0  0  0  0  0
    1.9116    0.2116    0.7443 C   0  0  0  0  0  0  0  0  0  0  0  0
    2.4216   -3.4329   -0.3198 C   0  0  0  0  0  0  0  0  0  0  0  0
    2.4266   -2.2889    0.6733 C   0  0  0  0  0  0  0  0  0  0  0  0
    1.3520   -0.3532   -2.3710 C   0  0  1  0  0  0  0  0  0  0  0  0
   -1.1336   -0.2865    1.7965 C   0  0  1  0  0  0  0  0  0  0  0  0
   -0.1901   -2.3816    1.5671 C   0  0  0  0  0  0  0  0  0  0  0  0
   -2.5144   -0.9935   -0.2606 C   0  0  1  0  0  0  0  0  0  0  0  0
    3.1543    0.8570    0.1005 C   0  0  1  0  0  0  0  0  0  0  0  0
    1.6067    1.1251   -2.0146 C   0  0  0  0  0  0  0  0  0  0  0  0
   -3.5559    0.1810   -0.2871 C   0  0  1  0  0  0  0  0  0  0  0  0
    2.9270    1.4514   -1.3011 C   0  0  1  0  0  0  0  0  0  0  0  0
   -2.4564    0.0913    2.4830 C   0  0  0  0  0  0  0  0  0  0  0  0
   -3.0980    1.4634    0.4617 C   0  0  2  0  0  0  0  0  0  0  0  0
   -3.1500    1.3707    1.9876 C   0  0  2  0  0  0  0  0  0  0  0  0
    1.9073   -0.6537   -3.7704 C   0  0  0  0  0  0  0  0  0  0  0  0
    3.6325    2.0494    0.8554 C   0  0  0  0  0  0  0  0  0  0  0  0
   -3.8774    0.8384   -1.6356 C   0  0  0  0  0  0  0  0  0  0  0  0
   -4.9311   -0.3706    0.1786 C   0  0  0  0  0  0  0  0  0  0  0  0
   -3.8765    2.5630   -0.2081 C   0  0  0  0  0  0  0  0  0  0  0  0
    3.4184    3.2725    0.0704 C   0  0  0  0  0  0  0  0  0  0  0  0
   -2.5066    2.6019    2.6419 C   0  0  0  0  0  0  0  0  0  0  0  0
   -4.2517    2.2564   -1.4520 C   0  0  0  0  0  0  0  0  0  0  0  0
    4.2137    2.0804    2.0577 C   0  0  0  0  0  0  0  0  0  0  0  0
    3.0471   -1.2968   -1.4810 H   0  0  0  0  0  0  0  0  0  0  0  0
    1.6349   -3.2966   -2.3704 H   0  0  0  0  0  0  0  0  0  0  0  0
   -0.5227   -2.4365   -1.7934 H   0  0  0  0  0  0  0  0  0  0  0  0
   -0.3091   -3.7341   -0.6243 H   0  0  0  0  0  0  0  0  0  0  0  0
   -0.7610    0.2301   -0.3137 H   0  0  0  0  0  0  0  0  0  0  0  0
    2.0742    0.0849    1.8224 H   0  0  0  0  0  0  0  0  0  0  0  0
    1.0913    0.9269    0.6555 H   0  0  0  0  0  0  0  0  0  0  0  0
    3.4380   -3.5983   -0.6876 H   0  0  0  0  0  0  0  0  0  0  0  0
    1.9997   -4.3431    0.1095 H   0  0  0  0  0  0  0  0  0  0  0  0
    0.2662   -0.4805   -2.4383 H   0  0  0  0  0  0  0  0  0  0  0  0
   -0.4010    0.4843    2.0472 H   0  0  0  0  0  0  0  0  0  0  0  0
   -2.8869   -1.7926    0.3931 H   0  0  0  0  0  0  0  0  0  0  0  0
    3.9658    0.1195    0.0564 H   0  0  0  0  0  0  0  0  0  0  0  0
    1.5420    1.7388   -2.9241 H   0  0  0  0  0  0  0  0  0  0  0  0
    0.7733    1.5009   -1.4088 H   0  0  0  0  0  0  0  0  0  0  0  0
    3.7652    1.1873   -1.9582 H   0  0  0  0  0  0  0  0  0  0  0  0
   -2.2721    0.1771    3.5637 H   0  0  0  0  0  0  0  0  0  0  0  0
   -3.1447   -0.7590    2.4241 H   0  0  0  0  0  0  0  0  0  0  0  0
   -2.0629    1.7141    0.1923 H   0  0  0  0  0  0  0  0  0  0  0  0
   -4.1947    1.3434    2.3237 H   0  0  0  0  0  0  0  0  0  0  0  0
    2.9945   -0.5265   -3.8047 H   0  0  0  0  0  0  0  0  0  0  0  0
    1.4660    0.0167   -4.5159 H   0  0  0  0  0  0  0  0  0  0  0  0
    1.6740   -1.6779   -4.0773 H   0  0  0  0  0  0  0  0  0  0  0  0
   -4.8866   -0.8198    1.1737 H   0  0  0  0  0  0  0  0  0  0  0  0
   -5.2889   -1.1445   -0.5115 H   0  0  0  0  0  0  0  0  0  0  0  0
   -5.7043    0.4057    0.2109 H   0  0  0  0  0  0  0  0  0  0  0  0
   -3.3723   -1.8988   -1.7631 H   0  0  0  0  0  0  0  0  0  0  0  0
   -4.0073    3.5494    0.2149 H   0  0  0  0  0  0  0  0  0  0  0  0
   -3.0425    3.5187    2.3776 H   0  0  0  0  0  0  0  0  0  0  0  0
   -2.5304    2.5176    3.7338 H   0  0  0  0  0  0  0  0  0  0  0  0
   -1.4618    2.7202    2.3360 H   0  0  0  0  0  0  0  0  0  0  0  0
   -4.7413    2.8784   -2.1797 H   0  0  0  0  0  0  0  0  0  0  0  0
    4.3788    1.1646    2.6156 H   0  0  0  0  0  0  0  0  0  0  0  0
    4.5397    3.0087    2.5143 H   0  0  0  0  0  0  0  0  0  0  0  0
  1 18  1  0  0  0  0
  1 19  1  0  0  0  0
  2 16  2  0  0  0  0
  3 20  1  0  0  0  0
  3 63  1  0  0  0  0
  4 24  1  0  0  0  0
  4 33  1  0  0  0  0
  5 19  2  0  0  0  0
  6 30  2  0  0  0  0
  7 33  2  0  0  0  0
  8  9  1  0  0  0  0
  8 10  1  0  0  0  0
  8 14  1  0  0  0  0
  8 16  1  0  0  0  0
  9 12  1  0  0  0  0
  9 13  1  0  0  0  0
  9 19  1  0  0  0  0
 10 11  1  0  0  0  0
 10 17  1  0  0  0  0
 10 37  1  0  0  0  0
 11 12  1  0  0  0  0
 11 15  1  0  0  0  0
 11 38  1  0  0  0  0
 12 39  1  0  0  0  0
 12 40  1  0  0  0  0
 13 18  1  0  0  0  0
 13 20  1  0  0  0  0
 13 41  1  0  0  0  0
 14 21  1  0  0  0  0
 14 42  1  0  0  0  0
 14 43  1  0  0  0  0
 15 16  1  0  0  0  0
 15 44  1  0  0  0  0
 15 45  1  0  0  0  0
 17 22  1  0  0  0  0
 17 28  1  0  0  0  0
 17 46  1  0  0  0  0
 18 25  1  0  0  0  0
 18 47  1  0  0  0  0
 20 23  1  0  0  0  0
 20 48  1  0  0  0  0
 21 24  1  0  0  0  0
 21 29  1  0  0  0  0
 21 49  1  0  0  0  0
 22 24  1  0  0  0  0
 22 50  1  0  0  0  0
 22 51  1  0  0  0  0
 23 26  1  0  0  0  0
 23 30  1  0  0  0  0
 23 31  1  0  0  0  0
 24 52  1  0  0  0  0
 25 27  1  0  0  0  0
 25 53  1  0  0  0  0
 25 54  1  0  0  0  0
 26 27  1  0  0  0  0
 26 32  1  0  0  0  0
 26 55  1  0  0  0  0
 27 34  1  0  0  0  0
 27 56  1  0  0  0  0
 28 57  1  0  0  0  0
 28 58  1  0  0  0  0
 28 59  1  0  0  0  0
 29 33  1  0  0  0  0
 29 36  2  0  0  0  0
 30 35  1  0  0  0  0
 31 60  1  0  0  0  0
 31 61  1  0  0  0  0
 31 62  1  0  0  0  0
 32 35  2  0  0  0  0
 32 64  1  0  0  0  0
 34 65  1  0  0  0  0
 34 66  1  0  0  0  0
 34 67  1  0  0  0  0
 35 68  1  0  0  0  0
 36 69  1  0  0  0  0
 36 70  1  0  0  0  0
M  END
> <PUBCHEM_COMPOUND_CID>
101316812

> <PUBCHEM_CONFORMER_RMSD>
0.8

> <PUBCHEM_CONFORMER_DIVERSEORDER>
1
2

> <PUBCHEM_MMFF94_PARTIAL_CHARGES>
29
1 -0.43
15 0.06
16 0.45
18 0.28
19 0.66
2 -0.57
20 0.28
21 0.14
23 0.06
24 0.28
26 0.14
29 -0.12
3 -0.68
30 0.49
32 -0.29
33 0.71
35 -0.14
36 -0.3
4 -0.43
5 -0.57
6 -0.57
63 0.4
64 0.15
68 0.15
69 0.15
7 -0.57
70 0.15
8 0.06
9 0.06

> <PUBCHEM_EFFECTIVE_ROTOR_COUNT>
2

> <PUBCHEM_PHARMACOPHORE_FEATURES>
12
1 2 acceptor
1 3 acceptor
1 3 donor
1 5 acceptor
1 6 acceptor
1 7 acceptor
5 1 9 13 18 19 rings
5 23 26 30 32 35 rings
5 4 21 24 29 33 rings
7 13 18 20 23 25 26 27 rings
7 8 10 14 17 21 22 24 rings
7 8 9 10 11 12 15 16 rings

> <PUBCHEM_HEAVY_ATOM_COUNT>
36

> <PUBCHEM_ATOM_DEF_STEREO_COUNT>
13

> <PUBCHEM_ATOM_UDEF_STEREO_COUNT>
0

> <PUBCHEM_BOND_DEF_STEREO_COUNT>
0

> <PUBCHEM_BOND_UDEF_STEREO_COUNT>
0

> <PUBCHEM_ISOTOPIC_ATOM_COUNT>
0

> <PUBCHEM_COMPONENT_COUNT>
1

> <PUBCHEM_CACTVS_TAUTO_COUNT>
6

> <PUBCHEM_CONFORMER_ID>
0609F8CC00000001

> <PUBCHEM_MMFF94_ENERGY>
160.0178

> <PUBCHEM_FEATURE_SELFOVERLAP>
61.046

> <PUBCHEM_SHAPE_FINGERPRINT>
10165383 225 17249550175138532143
10764073 3 16519584302753467904
11115154 58 16599531842298676277
11582403 64 17844796187246115580
11640471 11 18341607165702292406
12156800 1 16459885524243625085
12160290 23 17688894328704001822
12166972 35 17985251977218115415
12422481 6 17973971061068520176
12633257 1 16515948359581864736
13134695 92 18047756992474472982
13224815 77 18188225203823402771
13583140 156 18115598019828919579
13761468 95 17761243263401801932
150020 26 15431161240853221969
17974551 9 15575266713602569348
17980427 23 17630879405255552578
18981168 100 17824007634515157571
19309040 13 16337569146163045312
20764821 26 17968956179412088045
21033648 29 17749101184469894544
21860390 5 18269266872933009628
22149856 69 17750536031151164513
23419403 2 17608338313300972374
238 59 18201168692980609448
340366 18 16769320720903136705
3493558 16 17827329353553263542
35225 105 17908689980167156928
376196 1 18340753927510078496
44802255 64 16983224481123481004
469060 322 17902807593217077091
5252454 2 17900017964217558877
550186 7 17691982865841767644
5895379 119 17415566402184201968
9981440 41 18267015253349818970

> <PUBCHEM_SHAPE_MULTIPOLES>
699.78
8.16
4.39
2.98
5.4
1.46
0.79
6.19
0.97
-4.54
-0.99
0.38
-0.21
0.13

> <PUBCHEM_SHAPE_SELFOVERLAP>
1564.272

> <PUBCHEM_SHAPE_VOLUME>
371.4

> <PUBCHEM_COORDINATE_TYPE>
2
5
10

$$$$
