10130636
  -OEChem-03292013303D

 29 29  0     1  0  0  0  0  0999 V2000
    1.8772    2.2035   -0.0069 O   0  0  0  0  0  0  0  0  0  0  0  0
    0.1140    0.5957    1.5045 O   0  0  0  0  0  0  0  0  0  0  0  0
    3.8691    0.0480    0.4698 O   0  0  0  0  0  0  0  0  0  0  0  0
    2.2170   -1.3607    1.1638 O   0  0  0  0  0  0  0  0  0  0  0  0
   -3.6006    0.9476   -0.7542 O   0  0  0  0  0  0  0  0  0  0  0  0
   -0.1400   -1.4408   -0.6396 N   0  0  0  0  0  0  0  0  0  0  0  0
   -2.1426   -0.5750    0.2339 N   0  0  0  0  0  0  0  0  0  0  0  0
    1.1021    1.1922   -0.6376 C   0  0  2  0  0  0  0  0  0  0  0  0
   -0.1879    0.9112    0.1442 C   0  0  1  0  0  0  0  0  0  0  0  0
    1.9373   -0.0751   -0.8719 C   0  0  2  0  0  0  0  0  0  0  0  0
   -0.9631   -0.2363   -0.5182 C   0  0  1  0  0  0  0  0  0  0  0  0
    1.0607   -1.1964   -1.4473 C   0  0  0  0  0  0  0  0  0  0  0  0
    2.6575   -0.5500    0.3625 C   0  0  0  0  0  0  0  0  0  0  0  0
   -3.3655    0.0494    0.0499 C   0  0  0  0  0  0  0  0  0  0  0  0
   -4.4352   -0.5133    0.9471 C   0  0  0  0  0  0  0  0  0  0  0  0
    0.8115    1.5898   -1.6192 H   0  0  0  0  0  0  0  0  0  0  0  0
   -0.8042    1.8179    0.1740 H   0  0  0  0  0  0  0  0  0  0  0  0
    2.7150    0.1453   -1.6166 H   0  0  0  0  0  0  0  0  0  0  0  0
   -1.2855    0.0808   -1.5187 H   0  0  0  0  0  0  0  0  0  0  0  0
    0.7650   -0.9464   -2.4741 H   0  0  0  0  0  0  0  0  0  0  0  0
    1.6348   -2.1289   -1.5027 H   0  0  0  0  0  0  0  0  0  0  0  0
   -0.6923   -2.1780   -1.0767 H   0  0  0  0  0  0  0  0  0  0  0  0
   -2.0572   -1.3024    0.9375 H   0  0  0  0  0  0  0  0  0  0  0  0
    2.6687    2.3502   -0.5525 H   0  0  0  0  0  0  0  0  0  0  0  0
    0.6375    1.3325    1.8634 H   0  0  0  0  0  0  0  0  0  0  0  0
    4.3539   -0.2473    1.2698 H   0  0  0  0  0  0  0  0  0  0  0  0
   -5.3188    0.1300    0.9152 H   0  0  0  0  0  0  0  0  0  0  0  0
   -4.7071   -1.5158    0.6060 H   0  0  0  0  0  0  0  0  0  0  0  0
   -4.0763   -0.5637    1.9791 H   0  0  0  0  0  0  0  0  0  0  0  0
  1  8  1  0  0  0  0
  1 24  1  0  0  0  0
  2  9  1  0  0  0  0
  2 25  1  0  0  0  0
  3 13  1  0  0  0  0
  3 26  1  0  0  0  0
  4 13  2  0  0  0  0
  5 14  2  0  0  0  0
  6 11  1  0  0  0  0
  6 12  1  0  0  0  0
  6 22  1  0  0  0  0
  7 11  1  0  0  0  0
  7 14  1  0  0  0  0
  7 23  1  0  0  0  0
  8  9  1  0  0  0  0
  8 10  1  0  0  0  0
  8 16  1  0  0  0  0
  9 11  1  0  0  0  0
  9 17  1  0  0  0  0
 10 12  1  0  0  0  0
 10 13  1  0  0  0  0
 10 18  1  0  0  0  0
 11 19  1  0  0  0  0
 12 20  1  0  0  0  0
 12 21  1  0  0  0  0
 14 15  1  0  0  0  0
 15 27  1  0  0  0  0
 15 28  1  0  0  0  0
 15 29  1  0  0  0  0
M  END
> <PUBCHEM_COMPOUND_CID>
10130636

> <PUBCHEM_CONFORMER_RMSD>
0.6

> <PUBCHEM_CONFORMER_DIVERSEORDER>
3
2
7
1
4
5
6

> <PUBCHEM_MMFF94_PARTIAL_CHARGES>
20
1 -0.68
10 0.06
11 0.57
12 0.27
13 0.66
14 0.57
15 0.06
2 -0.68
22 0.36
23 0.37
24 0.4
25 0.4
26 0.5
3 -0.65
4 -0.57
5 -0.57
6 -0.9
7 -0.73
8 0.28
9 0.28

> <PUBCHEM_EFFECTIVE_ROTOR_COUNT>
4.2

> <PUBCHEM_PHARMACOPHORE_FEATURES>
12
1 1 acceptor
1 1 donor
1 2 acceptor
1 2 donor
1 3 acceptor
1 4 acceptor
1 5 acceptor
1 6 cation
1 6 donor
1 7 donor
3 3 4 13 anion
6 6 8 9 10 11 12 rings

> <PUBCHEM_HEAVY_ATOM_COUNT>
15

> <PUBCHEM_ATOM_DEF_STEREO_COUNT>
4

> <PUBCHEM_ATOM_UDEF_STEREO_COUNT>
0

> <PUBCHEM_BOND_DEF_STEREO_COUNT>
0

> <PUBCHEM_BOND_UDEF_STEREO_COUNT>
0

> <PUBCHEM_ISOTOPIC_ATOM_COUNT>
0

> <PUBCHEM_COMPONENT_COUNT>
1

> <PUBCHEM_CACTVS_TAUTO_COUNT>
2

> <PUBCHEM_CONFORMER_ID>
009A94CC00000003

> <PUBCHEM_MMFF94_ENERGY>
22.9504

> <PUBCHEM_FEATURE_SELFOVERLAP>
61.007

> <PUBCHEM_SHAPE_FINGERPRINT>
10130415 120 18343024397704556177
10219947 1 18201716232607158014
11769659 78 16805597032375981283
12251169 10 18409166640538611687
12423570 1 13627529127170327516
124424 183 18113892728701470613
12932764 1 18260556649244840855
13581323 91 17822013120696749951
13705890 14 16370731426025629970
13922767 16 18413103953059940685
14252887 29 18341339911404613658
14344429 50 18335990830253209276
14993402 34 18342745113387876932
15653759 3 17967254195942135717
16945 1 18272378554826307719
18186145 218 18202292415481451413
19422 9 16588033402755566967
21501502 16 18126002908604762983
23380061 451 18040716939553774858
23402539 116 18261384556020747015
23402655 69 8862673356840160715
42 15 17603307046686391803
5337951 7 17458632254204588072
57812782 119 17894911828234247831

> <PUBCHEM_SHAPE_MULTIPOLES>
269.38
6.27
1.47
1.18
5.72
0.35
-0.08
-0.26
-1.47
-0.74
0.15
-0.2
-0.2
0.13

> <PUBCHEM_SHAPE_SELFOVERLAP>
543.368

> <PUBCHEM_SHAPE_VOLUME>
153.8

> <PUBCHEM_COORDINATE_TYPE>
2
5
10

$$$$
