10138980
  -OEChem-03292013303D

 55 58  0     0  0  0  0  0  0999 V2000
    4.6821   -0.3567   -1.6192 S   0  0  0  0  0  0  0  0  0  0  0  0
    5.5842   -1.4831   -1.5085 O   0  0  0  0  0  0  0  0  0  0  0  0
    4.5425    0.3672   -2.8647 O   0  0  0  0  0  0  0  0  0  0  0  0
   -4.8461   -0.7158    1.4328 O   0  0  0  0  0  0  0  0  0  0  0  0
    5.0221    0.7573   -0.3637 N   0  0  0  0  0  0  0  0  0  0  0  0
    4.9176    2.3424    2.0331 N   0  0  0  0  0  0  0  0  0  0  0  0
   -1.6988   -1.2419    0.1400 N   0  0  0  0  0  0  0  0  0  0  0  0
   -2.2460   -3.9305    0.7222 N   0  0  0  0  0  0  0  0  0  0  0  0
   -3.7665    0.4699   -0.2800 N   0  0  0  0  0  0  0  0  0  0  0  0
   -4.4999   -3.3463    1.1949 N   0  0  0  0  0  0  0  0  0  0  0  0
   -6.4732    2.8894    0.3162 N   0  0  0  0  0  0  0  0  0  0  0  0
    5.3217    0.1536    0.9657 C   0  0  0  0  0  0  0  0  0  0  0  0
    4.0688    1.8965   -0.2417 C   0  0  0  0  0  0  0  0  0  0  0  0
    5.8685    1.2294    1.9029 C   0  0  0  0  0  0  0  0  0  0  0  0
    4.6395    2.9388    0.7189 C   0  0  0  0  0  0  0  0  0  0  0  0
    5.4312    3.3523    2.9575 C   0  0  0  0  0  0  0  0  0  0  0  0
    3.0773   -0.8998   -1.1232 C   0  0  0  0  0  0  0  0  0  0  0  0
    2.9617   -1.9945   -0.2821 C   0  0  0  0  0  0  0  0  0  0  0  0
    1.9598   -0.2229   -1.5837 C   0  0  0  0  0  0  0  0  0  0  0  0
    1.6937   -2.4240    0.1093 C   0  0  0  0  0  0  0  0  0  0  0  0
    0.6918   -0.6524   -1.1924 C   0  0  0  0  0  0  0  0  0  0  0  0
    0.5587   -1.7530   -0.3457 C   0  0  0  0  0  0  0  0  0  0  0  0
   -0.7565   -2.1988    0.0601 C   0  0  0  0  0  0  0  0  0  0  0  0
   -1.0200   -3.5175    0.3443 C   0  0  0  0  0  0  0  0  0  0  0  0
   -2.9249   -1.6551    0.5175 C   0  0  0  0  0  0  0  0  0  0  0  0
   -3.1936   -2.9755    0.8035 C   0  0  0  0  0  0  0  0  0  0  0  0
   -3.9328   -0.6092    0.5988 C   0  0  0  0  0  0  0  0  0  0  0  0
   -4.5664    1.6317   -0.4108 C   0  0  0  0  0  0  0  0  0  0  0  0
   -4.2420    2.5949   -1.3418 C   0  0  0  0  0  0  0  0  0  0  0  0
   -5.6690    1.8052    0.3895 C   0  0  0  0  0  0  0  0  0  0  0  0
   -5.0456    3.7248   -1.4469 C   0  0  0  0  0  0  0  0  0  0  0  0
   -6.1397    3.8234   -0.6025 C   0  0  0  0  0  0  0  0  0  0  0  0
    6.0778   -0.6312    0.8617 H   0  0  0  0  0  0  0  0  0  0  0  0
    4.4180   -0.2851    1.4011 H   0  0  0  0  0  0  0  0  0  0  0  0
    3.1030    1.5552    0.1445 H   0  0  0  0  0  0  0  0  0  0  0  0
    3.9161    2.3659   -1.2189 H   0  0  0  0  0  0  0  0  0  0  0  0
    6.0455    0.7739    2.8847 H   0  0  0  0  0  0  0  0  0  0  0  0
    6.8360    1.5889    1.5273 H   0  0  0  0  0  0  0  0  0  0  0  0
    5.5523    3.3744    0.2905 H   0  0  0  0  0  0  0  0  0  0  0  0
    3.9072    3.7482    0.8245 H   0  0  0  0  0  0  0  0  0  0  0  0
    4.7026    4.1602    3.0877 H   0  0  0  0  0  0  0  0  0  0  0  0
    6.3743    3.7907    2.6113 H   0  0  0  0  0  0  0  0  0  0  0  0
    5.5970    2.9168    3.9492 H   0  0  0  0  0  0  0  0  0  0  0  0
    3.8327   -2.5257    0.0894 H   0  0  0  0  0  0  0  0  0  0  0  0
    2.0410    0.6353   -2.2438 H   0  0  0  0  0  0  0  0  0  0  0  0
    1.6355   -3.2700    0.7888 H   0  0  0  0  0  0  0  0  0  0  0  0
   -0.1731   -0.1138   -1.5723 H   0  0  0  0  0  0  0  0  0  0  0  0
   -0.2884   -4.3127    0.2664 H   0  0  0  0  0  0  0  0  0  0  0  0
   -2.9679    0.4274   -0.9103 H   0  0  0  0  0  0  0  0  0  0  0  0
   -5.0645   -2.6797    1.7059 H   0  0  0  0  0  0  0  0  0  0  0  0
   -4.6522   -4.3292    1.3870 H   0  0  0  0  0  0  0  0  0  0  0  0
   -3.3770    2.4887   -1.9898 H   0  0  0  0  0  0  0  0  0  0  0  0
   -6.0057    1.1125    1.1454 H   0  0  0  0  0  0  0  0  0  0  0  0
   -4.8226    4.5037   -2.1670 H   0  0  0  0  0  0  0  0  0  0  0  0
   -6.7979    4.6849   -0.6448 H   0  0  0  0  0  0  0  0  0  0  0  0
  1  2  2  0  0  0  0
  1  3  2  0  0  0  0
  1  5  1  0  0  0  0
  1 17  1  0  0  0  0
  4 27  2  0  0  0  0
  5 12  1  0  0  0  0
  5 13  1  0  0  0  0
  6 14  1  0  0  0  0
  6 15  1  0  0  0  0
  6 16  1  0  0  0  0
  7 23  1  0  0  0  0
  7 25  2  0  0  0  0
  8 24  1  0  0  0  0
  8 26  2  0  0  0  0
  9 27  1  0  0  0  0
  9 28  1  0  0  0  0
  9 49  1  0  0  0  0
 10 26  1  0  0  0  0
 10 50  1  0  0  0  0
 10 51  1  0  0  0  0
 11 30  1  0  0  0  0
 11 32  2  0  0  0  0
 12 14  1  0  0  0  0
 12 33  1  0  0  0  0
 12 34  1  0  0  0  0
 13 15  1  0  0  0  0
 13 35  1  0  0  0  0
 13 36  1  0  0  0  0
 14 37  1  0  0  0  0
 14 38  1  0  0  0  0
 15 39  1  0  0  0  0
 15 40  1  0  0  0  0
 16 41  1  0  0  0  0
 16 42  1  0  0  0  0
 16 43  1  0  0  0  0
 17 18  2  0  0  0  0
 17 19  1  0  0  0  0
 18 20  1  0  0  0  0
 18 44  1  0  0  0  0
 19 21  2  0  0  0  0
 19 45  1  0  0  0  0
 20 22  2  0  0  0  0
 20 46  1  0  0  0  0
 21 22  1  0  0  0  0
 21 47  1  0  0  0  0
 22 23  1  0  0  0  0
 23 24  2  0  0  0  0
 24 48  1  0  0  0  0
 25 26  1  0  0  0  0
 25 27  1  0  0  0  0
 28 29  1  0  0  0  0
 28 30  2  0  0  0  0
 29 31  2  0  0  0  0
 29 52  1  0  0  0  0
 30 53  1  0  0  0  0
 31 32  1  0  0  0  0
 31 54  1  0  0  0  0
 32 55  1  0  0  0  0
M  END
> <PUBCHEM_COMPOUND_CID>
10138980

> <PUBCHEM_CONFORMER_RMSD>
1

> <PUBCHEM_CONFORMER_DIVERSEORDER>
1
57
34
68
46
30
47
67
62
76
35
43
28
56
11
58
73
36
52
71
65
26
10
2
74
40
19
59
48
37
61
31
3
69
8
60
51
72
38
54
18
24
15
29
63
64
22
45
41
55
5
39
7
42
75
17
6
16
21
23
66
20
4
44
70
50
32
27
12
53
14
33
25
49
9
13

> <PUBCHEM_MMFF94_PARTIAL_CHARGES>
43
1 1.45
10 -0.9
11 -0.62
12 0.36
13 0.36
14 0.27
15 0.27
16 0.27
17 -0.01
18 -0.15
19 -0.15
2 -0.65
20 -0.15
21 -0.15
23 0.31
24 0.16
25 0.4
26 0.41
27 0.54
28 0.12
29 -0.15
3 -0.65
30 0.16
31 -0.15
32 0.16
4 -0.57
44 0.15
45 0.15
46 0.15
47 0.15
48 0.15
49 0.37
5 -0.85
50 0.4
51 0.4
52 0.15
53 0.15
54 0.15
55 0.15
6 -0.81
7 -0.62
8 -0.62
9 -0.55

> <PUBCHEM_EFFECTIVE_ROTOR_COUNT>
7.2

> <PUBCHEM_PHARMACOPHORE_FEATURES>
13
1 10 donor
1 11 acceptor
1 2 acceptor
1 3 acceptor
1 4 acceptor
1 6 cation
1 7 acceptor
1 9 donor
3 8 10 26 cation
6 11 28 29 30 31 32 rings
6 17 18 19 20 21 22 rings
6 5 6 12 13 14 15 rings
6 7 8 23 24 25 26 rings

> <PUBCHEM_HEAVY_ATOM_COUNT>
32

> <PUBCHEM_ATOM_DEF_STEREO_COUNT>
0

> <PUBCHEM_ATOM_UDEF_STEREO_COUNT>
0

> <PUBCHEM_BOND_DEF_STEREO_COUNT>
0

> <PUBCHEM_BOND_UDEF_STEREO_COUNT>
0

> <PUBCHEM_ISOTOPIC_ATOM_COUNT>
0

> <PUBCHEM_COMPONENT_COUNT>
1

> <PUBCHEM_CACTVS_TAUTO_COUNT>
7

> <PUBCHEM_CONFORMER_ID>
009AB56400000001

> <PUBCHEM_MMFF94_ENERGY>
92.8503

> <PUBCHEM_FEATURE_SELFOVERLAP>
65.991

> <PUBCHEM_SHAPE_FINGERPRINT>
10319926 262 18335698382284299962
10838868 217 17534882109721888196
10864689 126 18194122919248603485
10904742 38 18342726425727157425
11059845 2 18187909682793866146
11399510 152 17749689406359442843
11828422 8 17629730527616484114
12107183 9 17823978922691166714
12422481 6 17168696436665318118
12664476 115 18200889468830434434
12925494 130 18409440375799411569
13561361 72 18261109686187552532
14223995 32 18336261237157681468
14739800 52 18335971004547424059
15484559 13 15470633605147394074
16067690 210 17680701828631267057
16708801 149 18408602582299778540
1768 210 18339906161749505357
18470217 77 18122336054601256979
19053607 189 18041563512347954805
20691028 202 18263930938957073261
20715895 44 18342170047305625816
21033648 29 18408325475335644180
21859007 373 18411136927047863590
23522609 53 17096392634307883062
23559900 14 18130241410525398470
23569914 2 17842520120456570632
23929065 36 18336822117475007747
2838139 119 18340481171633236671
3459 39 18260260828697585957
3552219 110 17988093309303058915
376196 1 18411700946206282247
3882209 13 17761762267502421703
397638 26 18336540525932605440
437795 96 18270952574140043656
44249763 50 18059286677403325063
508706 21 18337672018129291341
5104073 3 18040435477441341851
5219985 13 18335707079477140431
57591035 28 11148360080165453258
6086070 43 18129952187311420222
6176135 31 18187932737931456613
6371009 1 18187924028053219701
6697151 62 17273712957663216726
7808743 9 18187938235784266575
7970288 3 9871161935948774093
9849439 229 18263632988553802225

> <PUBCHEM_SHAPE_MULTIPOLES>
609.92
17.71
5.45
2.01
2.89
0.8
-0.12
18.72
-2.75
6.39
-1.69
-3.59
1.29
6.36

> <PUBCHEM_SHAPE_SELFOVERLAP>
1309.416

> <PUBCHEM_SHAPE_VOLUME>
337.8

> <PUBCHEM_COORDINATE_TYPE>
2
5
10

$$$$
