10135969
  -OEChem-03292013303D

 54 55  0     0  0  0  0  0  0999 V2000
   -7.6511    0.5465   -0.2129 S   0  0  0  0  0  0  0  0  0  0  0  0
    0.0582   -4.1250    0.0784 S   0  0  0  0  0  0  0  0  0  0  0  0
   -8.8875    1.2945   -0.3446 O   0  0  0  0  0  0  0  0  0  0  0  0
   -7.2313   -0.3722   -1.2525 O   0  0  0  0  0  0  0  0  0  0  0  0
    1.4219   -1.7647   -0.0283 N   0  0  0  0  0  0  0  0  0  0  0  0
   -0.9314   -1.6795    0.0127 N   0  0  0  0  0  0  0  0  0  0  0  0
   -6.3880    1.6485    0.1817 N   0  0  0  0  0  0  0  0  0  0  0  0
    6.9127    1.6375   -0.0129 C   0  0  0  0  0  0  0  0  0  0  0  0
    5.8009    0.5754   -0.0181 C   0  0  0  0  0  0  0  0  0  0  0  0
    7.3634    2.0778   -1.4241 C   0  0  0  0  0  0  0  0  0  0  0  0
    6.4198    2.9022    0.7233 C   0  0  0  0  0  0  0  0  0  0  0  0
    8.1584    1.0819    0.7109 C   0  0  0  0  0  0  0  0  0  0  0  0
    5.3296    0.1323   -1.2282 C   0  0  0  0  0  0  0  0  0  0  0  0
    5.3306    0.1193    1.1877 C   0  0  0  0  0  0  0  0  0  0  0  0
    3.8169   -1.3191   -0.0272 C   0  0  0  0  0  0  0  0  0  0  0  0
    4.3207   -0.8310   -1.2330 C   0  0  0  0  0  0  0  0  0  0  0  0
    4.3218   -0.8441    1.1830 C   0  0  0  0  0  0  0  0  0  0  0  0
    2.7389   -2.3494   -0.0324 C   0  0  0  0  0  0  0  0  0  0  0  0
   -1.0019   -0.2322   -0.0367 C   0  0  0  0  0  0  0  0  0  0  0  0
   -2.4179    0.2638    0.0212 C   0  0  0  0  0  0  0  0  0  0  0  0
    0.2143   -2.4518    0.0183 C   0  0  0  0  0  0  0  0  0  0  0  0
   -5.0409    1.1781    0.1274 C   0  0  0  0  0  0  0  0  0  0  0  0
   -3.0018    0.5353    1.2528 C   0  0  0  0  0  0  0  0  0  0  0  0
   -3.1312    0.4444   -1.1580 C   0  0  0  0  0  0  0  0  0  0  0  0
   -4.3180    0.9940    1.3061 C   0  0  0  0  0  0  0  0  0  0  0  0
   -4.4474    0.9032   -1.1046 C   0  0  0  0  0  0  0  0  0  0  0  0
   -7.7596   -0.3658    1.3104 C   0  0  0  0  0  0  0  0  0  0  0  0
    6.5439    2.5313   -1.9941 H   0  0  0  0  0  0  0  0  0  0  0  0
    7.7755    1.2426   -2.0027 H   0  0  0  0  0  0  0  0  0  0  0  0
    8.1556    2.8344   -1.3605 H   0  0  0  0  0  0  0  0  0  0  0  0
    5.5122    3.3023    0.2559 H   0  0  0  0  0  0  0  0  0  0  0  0
    7.1802    3.6918    0.7031 H   0  0  0  0  0  0  0  0  0  0  0  0
    6.1900    2.7100    1.7770 H   0  0  0  0  0  0  0  0  0  0  0  0
    8.5136    0.1604    0.2341 H   0  0  0  0  0  0  0  0  0  0  0  0
    7.9629    0.8532    1.7642 H   0  0  0  0  0  0  0  0  0  0  0  0
    8.9819    1.8055    0.6906 H   0  0  0  0  0  0  0  0  0  0  0  0
    5.6829    0.4760   -2.1919 H   0  0  0  0  0  0  0  0  0  0  0  0
    5.7075    0.4743    2.1406 H   0  0  0  0  0  0  0  0  0  0  0  0
    3.9337   -1.1924   -2.1822 H   0  0  0  0  0  0  0  0  0  0  0  0
    3.9363   -1.2153    2.1290 H   0  0  0  0  0  0  0  0  0  0  0  0
    2.8356   -3.0052    0.8414 H   0  0  0  0  0  0  0  0  0  0  0  0
    2.8294   -2.9935   -0.9156 H   0  0  0  0  0  0  0  0  0  0  0  0
    1.3802   -0.7525   -0.0785 H   0  0  0  0  0  0  0  0  0  0  0  0
   -0.4202    0.1739    0.7996 H   0  0  0  0  0  0  0  0  0  0  0  0
   -0.5118    0.1063   -0.9576 H   0  0  0  0  0  0  0  0  0  0  0  0
   -1.8105   -2.1885    0.0421 H   0  0  0  0  0  0  0  0  0  0  0  0
   -2.4488    0.3930    2.1771 H   0  0  0  0  0  0  0  0  0  0  0  0
   -2.6784    0.2340   -2.1230 H   0  0  0  0  0  0  0  0  0  0  0  0
   -4.7708    1.2034    2.2718 H   0  0  0  0  0  0  0  0  0  0  0  0
   -4.9931    1.0535   -2.0325 H   0  0  0  0  0  0  0  0  0  0  0  0
   -6.5817    2.2663    0.9815 H   0  0  0  0  0  0  0  0  0  0  0  0
   -8.5882   -1.0719    1.2199 H   0  0  0  0  0  0  0  0  0  0  0  0
   -7.9559    0.3294    2.1287 H   0  0  0  0  0  0  0  0  0  0  0  0
   -6.8291   -0.9123    1.4716 H   0  0  0  0  0  0  0  0  0  0  0  0
  1  3  2  0  0  0  0
  1  4  2  0  0  0  0
  1  7  1  0  0  0  0
  1 27  1  0  0  0  0
  2 21  2  0  0  0  0
  5 18  1  0  0  0  0
  5 21  1  0  0  0  0
  5 43  1  0  0  0  0
  6 19  1  0  0  0  0
  6 21  1  0  0  0  0
  6 46  1  0  0  0  0
  7 22  1  0  0  0  0
  7 51  1  0  0  0  0
  8  9  1  0  0  0  0
  8 10  1  0  0  0  0
  8 11  1  0  0  0  0
  8 12  1  0  0  0  0
  9 13  2  0  0  0  0
  9 14  1  0  0  0  0
 10 28  1  0  0  0  0
 10 29  1  0  0  0  0
 10 30  1  0  0  0  0
 11 31  1  0  0  0  0
 11 32  1  0  0  0  0
 11 33  1  0  0  0  0
 12 34  1  0  0  0  0
 12 35  1  0  0  0  0
 12 36  1  0  0  0  0
 13 16  1  0  0  0  0
 13 37  1  0  0  0  0
 14 17  2  0  0  0  0
 14 38  1  0  0  0  0
 15 16  2  0  0  0  0
 15 17  1  0  0  0  0
 15 18  1  0  0  0  0
 16 39  1  0  0  0  0
 17 40  1  0  0  0  0
 18 41  1  0  0  0  0
 18 42  1  0  0  0  0
 19 20  1  0  0  0  0
 19 44  1  0  0  0  0
 19 45  1  0  0  0  0
 20 23  2  0  0  0  0
 20 24  1  0  0  0  0
 22 25  2  0  0  0  0
 22 26  1  0  0  0  0
 23 25  1  0  0  0  0
 23 47  1  0  0  0  0
 24 26  2  0  0  0  0
 24 48  1  0  0  0  0
 25 49  1  0  0  0  0
 26 50  1  0  0  0  0
 27 52  1  0  0  0  0
 27 53  1  0  0  0  0
 27 54  1  0  0  0  0
M  END
> <PUBCHEM_COMPOUND_CID>
10135969

> <PUBCHEM_CONFORMER_RMSD>
1.2

> <PUBCHEM_CONFORMER_DIVERSEORDER>
1
17
26
37
60
36
39
70
42
44
67
29
23
58
57
45
63
53
32
52
30
62
4
33
24
41
31
61
54
40
19
20
28
55
59
51
50
35
49
14
68
7
15
18
38
13
48
11
46
64
25
43
8
34
2
9
10
47
5
3
69
12
65
66
6
21
22
27
56
16

> <PUBCHEM_MMFF94_PARTIAL_CHARGES>
35
1 1.33
13 -0.15
14 -0.15
15 -0.14
16 -0.15
17 -0.15
18 0.44
19 0.44
2 -0.38
20 -0.14
21 0.5
22 0.2
23 -0.15
24 -0.15
25 -0.15
26 -0.15
27 0.11
3 -0.65
37 0.15
38 0.15
39 0.15
4 -0.65
40 0.15
43 0.37
46 0.37
47 0.15
48 0.15
49 0.15
5 -0.73
50 0.15
51 0.42
6 -0.73
7 -0.76
8 0.14
9 -0.14

> <PUBCHEM_EFFECTIVE_ROTOR_COUNT>
9

> <PUBCHEM_PHARMACOPHORE_FEATURES>
9
1 2 acceptor
1 3 acceptor
1 4 acceptor
1 5 donor
1 6 donor
1 7 donor
4 8 10 11 12 hydrophobe
6 20 22 23 24 25 26 rings
6 9 13 14 15 16 17 rings

> <PUBCHEM_HEAVY_ATOM_COUNT>
27

> <PUBCHEM_ATOM_DEF_STEREO_COUNT>
0

> <PUBCHEM_ATOM_UDEF_STEREO_COUNT>
0

> <PUBCHEM_BOND_DEF_STEREO_COUNT>
0

> <PUBCHEM_BOND_UDEF_STEREO_COUNT>
0

> <PUBCHEM_ISOTOPIC_ATOM_COUNT>
0

> <PUBCHEM_COMPONENT_COUNT>
1

> <PUBCHEM_CACTVS_TAUTO_COUNT>
3

> <PUBCHEM_CONFORMER_ID>
009AA9A100000001

> <PUBCHEM_MMFF94_ENERGY>
77.5224

> <PUBCHEM_FEATURE_SELFOVERLAP>
45.728

> <PUBCHEM_SHAPE_FINGERPRINT>
10 15 18113057138118282803
10666366 153 10807937038230774139
10753850 27 9439404618915709766
10930396 42 16515680078792251229
10981352 41 12468630626190050648
11135609 187 18337389345421142467
11273773 42 17917435319513115329
11273773 46 11312063140582438205
11374522 155 18188216493388076045
11578821 258 18339642214888744317
117089 54 8789792289082169800
12592606 108 9223223053673095701
12760667 363 9655578517494228094
12925494 130 18268145551572587592
13673619 4 12175619560057932923
13914758 101 11602821281709031815
14168556 18 18336269050309906515
14216079 64 8935003667952258860
14294032 229 18340208621219622526
14428016 204 17822018635550718796
14428016 86 18413109455561730882
14537116 161 17132110217131622864
14565420 104 18187926140687311282
14931854 50 17703795791021106104
15183329 4 14692575403226997938
15188451 53 12324239464589546310
15510800 12 10953724600466716018
15685185 35 18340485694070600028
16126227 98 18412263973199433407
1754911 235 18202563965063301165
18393751 57 18113614586197920951
20105231 36 15841549691787988071
20567600 234 17822296768742374359
21049683 271 18273210907564135881
21150785 3 17989487424503795329
21360443 126 18410574019680403986
21365058 113 13614229396077580227
21521721 280 18413110541856472475
21585481 104 15338851858439564360
22224240 67 18187365419916458883
23389318 12 18341602734298402367
23522609 53 17345769469284457315
24771293 8 18335706022809716613
25269216 80 17131259281716502663
2748736 6 18411697695342728960
28498 318 9799690390145287027
3004659 81 12247677163139183222
3246875 12 18409169930737203379
3472631 163 18342177795705994646
34797466 226 17917434189704562591
3627633 1 17689718983937710826
4107672 100 13829864474218998459
4258327 124 18335709398131245484
439807 62 11095888172646545304
445580 126 18410005529851829328
5080951 261 16515684490325285203
5758199 1 18413109446750302131
59682541 35 18186807998028884163
59682541 52 16916796154664307366
6712543 237 15285355132895651176
9849439 229 18408040736943833578

> <PUBCHEM_SHAPE_MULTIPOLES>
536.66
27.65
3.06
1.29
16.17
2.81
-0.03
-21.31
-0.17
-3.24
0.08
-0.16
-0.29
0.08

> <PUBCHEM_SHAPE_SELFOVERLAP>
1089.891

> <PUBCHEM_SHAPE_VOLUME>
316.5

> <PUBCHEM_COORDINATE_TYPE>
2
5
10

$$$$
