10131311
  -OEChem-03292013303D

 26 27  0     1  0  0  0  0  0999 V2000
   -2.8338    2.7035    0.0233 Cl  0  0  0  0  0  0  0  0  0  0  0  0
    3.7263    0.0866   -1.2605 O   0  0  0  0  0  0  0  0  0  0  0  0
    3.7628   -0.0893    1.5713 O   0  0  0  0  0  0  0  0  0  0  0  0
    0.0730    2.3408   -0.2599 O   0  0  0  0  0  0  0  0  0  0  0  0
   -2.5632   -2.3605    0.1817 O   0  0  0  0  0  0  0  0  0  0  0  0
    0.3719   -2.2169   -0.1228 N   0  0  0  0  0  0  0  0  0  0  0  0
   -4.0577   -0.0848    0.2511 N   0  0  0  0  0  0  0  0  0  0  0  0
    1.5277   -0.3254   -0.3101 C   0  0  0  0  0  0  0  0  0  0  0  0
    0.1528   -0.0062   -0.1815 C   0  0  0  0  0  0  0  0  0  0  0  0
   -0.5363   -1.1930   -0.0676 C   0  0  0  0  0  0  0  0  0  0  0  0
    2.6527    0.6194   -0.4594 C   0  0  1  0  0  0  0  0  0  0  0  0
    1.6335   -1.6991   -0.2706 C   0  0  0  0  0  0  0  0  0  0  0  0
   -0.5164    1.2721   -0.1602 C   0  0  0  0  0  0  0  0  0  0  0  0
   -1.9615   -1.2951    0.0811 C   0  0  0  0  0  0  0  0  0  0  0  0
    3.2785    1.0534    0.8803 C   0  0  0  0  0  0  0  0  0  0  0  0
   -2.7023    0.0205    0.1087 C   0  0  0  0  0  0  0  0  0  0  0  0
   -2.0079    1.1738   -0.0047 C   0  0  0  0  0  0  0  0  0  0  0  0
    2.3135    1.5141   -0.9920 H   0  0  0  0  0  0  0  0  0  0  0  0
    2.4890   -2.3574   -0.3323 H   0  0  0  0  0  0  0  0  0  0  0  0
    0.1493   -3.2011   -0.0637 H   0  0  0  0  0  0  0  0  0  0  0  0
    4.1208    1.7351    0.7238 H   0  0  0  0  0  0  0  0  0  0  0  0
    2.5393    1.5476    1.5184 H   0  0  0  0  0  0  0  0  0  0  0  0
    4.3885    0.7907   -1.3680 H   0  0  0  0  0  0  0  0  0  0  0  0
   -4.4894   -0.9970    0.3295 H   0  0  0  0  0  0  0  0  0  0  0  0
   -4.6266    0.7522    0.2791 H   0  0  0  0  0  0  0  0  0  0  0  0
    4.4115   -0.5262    0.9933 H   0  0  0  0  0  0  0  0  0  0  0  0
  1 17  1  0  0  0  0
  2 11  1  0  0  0  0
  2 23  1  0  0  0  0
  3 15  1  0  0  0  0
  3 26  1  0  0  0  0
  4 13  2  0  0  0  0
  5 14  2  0  0  0  0
  6 10  1  0  0  0  0
  6 12  1  0  0  0  0
  6 20  1  0  0  0  0
  7 16  1  0  0  0  0
  7 24  1  0  0  0  0
  7 25  1  0  0  0  0
  8  9  1  0  0  0  0
  8 11  1  0  0  0  0
  8 12  2  0  0  0  0
  9 10  2  0  0  0  0
  9 13  1  0  0  0  0
 10 14  1  0  0  0  0
 11 15  1  0  0  0  0
 11 18  1  0  0  0  0
 12 19  1  0  0  0  0
 13 17  1  0  0  0  0
 14 16  1  0  0  0  0
 15 21  1  0  0  0  0
 15 22  1  0  0  0  0
 16 17  2  0  0  0  0
M  END
> <PUBCHEM_COMPOUND_CID>
10131311

> <PUBCHEM_CONFORMER_RMSD>
0.6

> <PUBCHEM_CONFORMER_DIVERSEORDER>
1
6
2
3
7
4
5

> <PUBCHEM_MMFF94_PARTIAL_CHARGES>
23
1 -0.14
10 -0.24
11 0.46
12 -0.3
13 0.64
14 0.64
15 0.28
16 0.11
17 0.15
19 0.15
2 -0.68
20 0.27
23 0.4
24 0.4
25 0.4
26 0.4
3 -0.68
4 -0.57
5 -0.57
6 0.03
7 -0.9
8 -0.18
9 -0.09

> <PUBCHEM_EFFECTIVE_ROTOR_COUNT>
2

> <PUBCHEM_PHARMACOPHORE_FEATURES>
12
1 2 acceptor
1 2 donor
1 3 acceptor
1 3 donor
1 4 acceptor
1 5 acceptor
1 6 cation
1 6 donor
1 7 cation
1 7 donor
5 6 8 9 10 12 rings
6 9 10 13 14 16 17 rings

> <PUBCHEM_HEAVY_ATOM_COUNT>
17

> <PUBCHEM_ATOM_DEF_STEREO_COUNT>
0

> <PUBCHEM_ATOM_UDEF_STEREO_COUNT>
1

> <PUBCHEM_BOND_DEF_STEREO_COUNT>
0

> <PUBCHEM_BOND_UDEF_STEREO_COUNT>
0

> <PUBCHEM_ISOTOPIC_ATOM_COUNT>
0

> <PUBCHEM_COMPONENT_COUNT>
1

> <PUBCHEM_CACTVS_TAUTO_COUNT>
17

> <PUBCHEM_CONFORMER_ID>
009A976F00000001

> <PUBCHEM_MMFF94_ENERGY>
29.4389

> <PUBCHEM_FEATURE_SELFOVERLAP>
60.988

> <PUBCHEM_SHAPE_FINGERPRINT>
10608611 8 18341612577239778888
10967382 1 18410297999443644735
11132069 177 18412262869392565505
11680986 33 18122621652445598426
12236239 1 17603867823560493100
12251169 10 18334003991456866122
12382932 28 18411418414424036371
13140716 1 18194123147382536305
13380535 21 18268161867572608863
13380535 76 18338790118190868983
13583140 156 16660368069133808741
13897977 150 18194962933584756837
14178342 30 18409446947236868697
14614273 12 18260538992412689205
15219456 202 18270677554540499314
15536298 74 18270964518469713575
16945 1 18410015455035888621
17846911 113 18412256250890199449
1813 80 16806722864507891722
18186145 218 17846786169784459096
193761 8 18121784919770147767
20510252 161 18271249438173817080
20525323 117 18411408510319109501
21501502 16 18265899051241798767
22802520 49 18129679503610252470
2334 1 17834117828927368541
23402539 116 18340753936099818255
23463225 33 18333726940264841088
23493267 7 17823155483128634498
23559900 14 18271250409653830798
2748010 2 18193285083267262581
4072396 5 18262501642243332347
474 4 16735806829674749700
53812653 166 18271805756486496329
58807428 26 18118396246455528531
7097593 13 17825367614809348050
7364860 26 18055351336525387310
77492 1 17603585248892748108
90316 7 17823120268708280820

> <PUBCHEM_SHAPE_MULTIPOLES>
318.28
6.06
2.53
0.86
1.52
0.14
0.12
1.34
0.86
-1.69
-0.02
0.89
0.1
0.3

> <PUBCHEM_SHAPE_SELFOVERLAP>
684.558

> <PUBCHEM_SHAPE_VOLUME>
176.6

> <PUBCHEM_COORDINATE_TYPE>
2
5
10

$$$$
