101396701
  -OEChem-03292013293D

 69 72  0     1  0  0  0  0  0999 V2000
   -2.5720    2.2048    1.0717 O   0  0  0  0  0  0  0  0  0  0  0  0
   -1.3620   -0.4218    1.5166 O   0  0  0  0  0  0  0  0  0  0  0  0
   -0.9919    0.8618   -1.9427 O   0  0  0  0  0  0  0  0  0  0  0  0
   -2.4971    3.0024   -1.1631 O   0  0  0  0  0  0  0  0  0  0  0  0
   -6.1141   -1.0678    0.4330 O   0  0  0  0  0  0  0  0  0  0  0  0
   -0.0844   -1.9392   -1.3096 O   0  0  0  0  0  0  0  0  0  0  0  0
    4.8782   -0.2956   -1.2746 O   0  0  0  0  0  0  0  0  0  0  0  0
    6.1416    1.3878   -2.2042 O   0  0  0  0  0  0  0  0  0  0  0  0
   -2.5945   -1.1521   -0.4137 C   0  0  1  0  0  0  0  0  0  0  0  0
   -3.8335   -0.3227   -0.0350 C   0  0  1  0  0  0  0  0  0  0  0  0
   -1.3196   -0.4561    0.0940 C   0  0  1  0  0  0  0  0  0  0  0  0
   -3.8117    1.0662   -0.6984 C   0  0  2  0  0  0  0  0  0  0  0  0
   -2.9809   -2.5185    0.1879 C   0  0  1  0  0  0  0  0  0  0  0  0
   -1.2187    0.9777   -0.5277 C   0  0  2  0  0  0  0  0  0  0  0  0
   -2.5076    1.8390   -0.3158 C   0  0  2  0  0  0  0  0  0  0  0  0
   -4.9935   -1.2468   -0.4213 C   0  0  1  0  0  0  0  0  0  0  0  0
   -4.4599   -2.6709   -0.2174 C   0  0  0  0  0  0  0  0  0  0  0  0
   -0.1052   -1.2678   -0.2782 C   0  0  0  0  0  0  0  0  0  0  0  0
   -5.0622    1.8899   -0.3568 C   0  0  0  0  0  0  0  0  0  0  0  0
   -0.0208    1.7236    0.0219 C   0  0  0  0  0  0  0  0  0  0  0  0
   -2.1501   -3.7016   -0.2876 C   0  0  0  0  0  0  0  0  0  0  0  0
    1.0940   -1.1781    0.6617 C   0  0  2  0  0  0  0  0  0  0  0  0
   -0.1544    2.6891    0.9463 C   0  0  0  0  0  0  0  0  0  0  0  0
   -1.5086    3.0709    1.4884 C   0  0  0  0  0  0  0  0  0  0  0  0
    2.4232   -1.3669   -0.0859 C   0  0  0  0  0  0  0  0  0  0  0  0
    0.9336   -2.2352    1.7515 C   0  0  0  0  0  0  0  0  0  0  0  0
    1.0194    3.4436    1.4922 C   0  0  0  0  0  0  0  0  0  0  0  0
    3.6186   -0.8241    0.7033 C   0  0  0  0  0  0  0  0  0  0  0  0
    4.9235   -1.0411   -0.0474 C   0  0  2  0  0  0  0  0  0  0  0  0
    6.1202   -0.4966    0.6414 C   0  0  0  0  0  0  0  0  0  0  0  0
    6.6998    0.4581   -0.0827 C   0  0  0  0  0  0  0  0  0  0  0  0
    5.9082    0.5986   -1.3052 C   0  0  0  0  0  0  0  0  0  0  0  0
    6.5824   -1.0107    1.9573 C   0  0  0  0  0  0  0  0  0  0  0  0
   -2.5525   -1.2620   -1.5072 H   0  0  0  0  0  0  0  0  0  0  0  0
   -3.8716   -0.1711    1.0544 H   0  0  0  0  0  0  0  0  0  0  0  0
   -3.8248    0.9328   -1.7889 H   0  0  0  0  0  0  0  0  0  0  0  0
   -2.9293   -2.4767    1.2840 H   0  0  0  0  0  0  0  0  0  0  0  0
   -5.3106   -1.0923   -1.4588 H   0  0  0  0  0  0  0  0  0  0  0  0
   -4.5443   -3.2193   -1.1639 H   0  0  0  0  0  0  0  0  0  0  0  0
   -5.0147   -3.2377    0.5385 H   0  0  0  0  0  0  0  0  0  0  0  0
   -5.1829    2.0060    0.7252 H   0  0  0  0  0  0  0  0  0  0  0  0
   -5.9643    1.4054   -0.7440 H   0  0  0  0  0  0  0  0  0  0  0  0
   -5.0186    2.8883   -0.8034 H   0  0  0  0  0  0  0  0  0  0  0  0
    0.9637    1.4824   -0.3695 H   0  0  0  0  0  0  0  0  0  0  0  0
   -2.0525   -3.7162   -1.3778 H   0  0  0  0  0  0  0  0  0  0  0  0
   -2.6259   -4.6422    0.0125 H   0  0  0  0  0  0  0  0  0  0  0  0
   -1.1544   -3.7015    0.1601 H   0  0  0  0  0  0  0  0  0  0  0  0
   -0.7604    0.2557    1.8601 H   0  0  0  0  0  0  0  0  0  0  0  0
   -1.7983    0.5283   -2.3668 H   0  0  0  0  0  0  0  0  0  0  0  0
    1.1258   -0.2015    1.1448 H   0  0  0  0  0  0  0  0  0  0  0  0
   -1.5790    3.2161   -1.3955 H   0  0  0  0  0  0  0  0  0  0  0  0
   -6.8011   -1.6948    0.1492 H   0  0  0  0  0  0  0  0  0  0  0  0
   -1.4926    3.0427    2.5829 H   0  0  0  0  0  0  0  0  0  0  0  0
   -1.7589    4.0945    1.1874 H   0  0  0  0  0  0  0  0  0  0  0  0
    2.3665   -0.8391   -1.0466 H   0  0  0  0  0  0  0  0  0  0  0  0
    2.5787   -2.4263   -0.3261 H   0  0  0  0  0  0  0  0  0  0  0  0
    1.7033   -2.1251    2.5220 H   0  0  0  0  0  0  0  0  0  0  0  0
   -0.0332   -2.1973    2.2584 H   0  0  0  0  0  0  0  0  0  0  0  0
    1.0272   -3.2442    1.3333 H   0  0  0  0  0  0  0  0  0  0  0  0
    1.9643    3.1127    1.0483 H   0  0  0  0  0  0  0  0  0  0  0  0
    1.0921    3.3007    2.5751 H   0  0  0  0  0  0  0  0  0  0  0  0
    0.9107    4.5136    1.2884 H   0  0  0  0  0  0  0  0  0  0  0  0
    3.6708   -1.3155    1.6808 H   0  0  0  0  0  0  0  0  0  0  0  0
    3.4614    0.2477    0.8828 H   0  0  0  0  0  0  0  0  0  0  0  0
    5.0668   -2.0991   -0.2954 H   0  0  0  0  0  0  0  0  0  0  0  0
    7.5823    1.0284    0.1505 H   0  0  0  0  0  0  0  0  0  0  0  0
    5.8386   -0.8113    2.7345 H   0  0  0  0  0  0  0  0  0  0  0  0
    7.5215   -0.5390    2.2654 H   0  0  0  0  0  0  0  0  0  0  0  0
    6.7518   -2.0908    1.9062 H   0  0  0  0  0  0  0  0  0  0  0  0
  1 15  1  0  0  0  0
  1 24  1  0  0  0  0
  2 11  1  0  0  0  0
  2 48  1  0  0  0  0
  3 14  1  0  0  0  0
  3 49  1  0  0  0  0
  4 15  1  0  0  0  0
  4 51  1  0  0  0  0
  5 16  1  0  0  0  0
  5 52  1  0  0  0  0
  6 18  2  0  0  0  0
  7 29  1  0  0  0  0
  7 32  1  0  0  0  0
  8 32  2  0  0  0  0
  9 10  1  0  0  0  0
  9 11  1  0  0  0  0
  9 13  1  0  0  0  0
  9 34  1  0  0  0  0
 10 12  1  0  0  0  0
 10 16  1  0  0  0  0
 10 35  1  0  0  0  0
 11 14  1  0  0  0  0
 11 18  1  0  0  0  0
 12 15  1  0  0  0  0
 12 19  1  0  0  0  0
 12 36  1  0  0  0  0
 13 17  1  0  0  0  0
 13 21  1  0  0  0  0
 13 37  1  0  0  0  0
 14 15  1  0  0  0  0
 14 20  1  0  0  0  0
 16 17  1  0  0  0  0
 16 38  1  0  0  0  0
 17 39  1  0  0  0  0
 17 40  1  0  0  0  0
 18 22  1  0  0  0  0
 19 41  1  0  0  0  0
 19 42  1  0  0  0  0
 19 43  1  0  0  0  0
 20 23  2  0  0  0  0
 20 44  1  0  0  0  0
 21 45  1  0  0  0  0
 21 46  1  0  0  0  0
 21 47  1  0  0  0  0
 22 25  1  0  0  0  0
 22 26  1  0  0  0  0
 22 50  1  0  0  0  0
 23 24  1  0  0  0  0
 23 27  1  0  0  0  0
 24 53  1  0  0  0  0
 24 54  1  0  0  0  0
 25 28  1  0  0  0  0
 25 55  1  0  0  0  0
 25 56  1  0  0  0  0
 26 57  1  0  0  0  0
 26 58  1  0  0  0  0
 26 59  1  0  0  0  0
 27 60  1  0  0  0  0
 27 61  1  0  0  0  0
 27 62  1  0  0  0  0
 28 29  1  0  0  0  0
 28 63  1  0  0  0  0
 28 64  1  0  0  0  0
 29 30  1  0  0  0  0
 29 65  1  0  0  0  0
 30 31  2  0  0  0  0
 30 33  1  0  0  0  0
 31 32  1  0  0  0  0
 31 66  1  0  0  0  0
 33 67  1  0  0  0  0
 33 68  1  0  0  0  0
 33 69  1  0  0  0  0
M  END
> <PUBCHEM_COMPOUND_CID>
101396701

> <PUBCHEM_CONFORMER_RMSD>
1

> <PUBCHEM_CONFORMER_DIVERSEORDER>
1
12
11
7
6
13
5
8
10
3
2
4
9

> <PUBCHEM_MMFF94_PARTIAL_CHARGES>
29
1 -0.56
11 0.34
14 0.42
15 0.56
16 0.28
18 0.45
2 -0.68
20 -0.29
22 0.06
23 -0.28
24 0.42
27 0.14
29 0.42
3 -0.68
30 -0.28
31 -0.14
32 0.71
33 0.14
4 -0.68
44 0.15
48 0.4
49 0.4
5 -0.68
51 0.4
52 0.4
6 -0.57
66 0.15
7 -0.43
8 -0.57

> <PUBCHEM_EFFECTIVE_ROTOR_COUNT>
6.8

> <PUBCHEM_PHARMACOPHORE_FEATURES>
16
1 1 acceptor
1 2 acceptor
1 2 donor
1 26 hydrophobe
1 3 acceptor
1 3 donor
1 4 acceptor
1 4 donor
1 5 acceptor
1 5 donor
1 6 acceptor
1 8 acceptor
5 7 29 30 31 32 rings
5 9 10 13 16 17 rings
6 1 14 15 20 23 24 rings
6 9 10 11 12 14 15 rings

> <PUBCHEM_HEAVY_ATOM_COUNT>
33

> <PUBCHEM_ATOM_DEF_STEREO_COUNT>
10

> <PUBCHEM_ATOM_UDEF_STEREO_COUNT>
0

> <PUBCHEM_BOND_DEF_STEREO_COUNT>
0

> <PUBCHEM_BOND_UDEF_STEREO_COUNT>
0

> <PUBCHEM_ISOTOPIC_ATOM_COUNT>
0

> <PUBCHEM_COMPONENT_COUNT>
1

> <PUBCHEM_CACTVS_TAUTO_COUNT>
2

> <PUBCHEM_CONFORMER_ID>
060B30DD00000001

> <PUBCHEM_MMFF94_ENERGY>
89.476

> <PUBCHEM_FEATURE_SELFOVERLAP>
81.368

> <PUBCHEM_SHAPE_FINGERPRINT>
10290309 65 18266736883788119359
10411042 1 18121215652643429871
10670039 82 18269850752948022676
10673678 19 17469028965664667677
10906281 52 18128540349993626621
1100329 8 18413106148215607537
11578080 2 14260249561964183049
12107698 1 18411133680300377432
12166972 35 18040713663416796748
12236239 1 17968093110381994454
12788726 201 18408317778817995546
13140716 1 18267585896196854571
13911987 19 18194950865132856853
14068700 675 18337107976895565301
14400156 413 16389003879410164917
14787075 74 18333733532955504378
14790565 3 17693664714578667849
14955137 171 17917429890700696977
15927050 60 17407113730868674740
15968369 153 17703215317617292208
19319366 153 18041837294742611906
20511986 3 17821998801286126934
20642791 35 18339635758633766803
21033648 29 17203310209395825370
21033650 10 18266486260135969606
21049683 271 18190465050917488567
23557571 272 18272658930771737318
23559900 14 18265605666711562661
255183 451 17910108354937437111
329604 57 18410856586100696424
335352 9 18411978084156742847
350125 39 18409730677029211549
392239 28 18412827979820064784
469060 322 17894632526400491948
5171179 24 18056186106326424449
6823239 73 18271230712422368648
7237137 82 18408885143928620860

> <PUBCHEM_SHAPE_MULTIPOLES>
632.17
14.29
3.84
1.53
22.81
1.11
-0.04
-2.53
-2
-3.98
0.9
1.8
0.49
-0.94

> <PUBCHEM_SHAPE_SELFOVERLAP>
1351.428

> <PUBCHEM_SHAPE_VOLUME>
348.3

> <PUBCHEM_COORDINATE_TYPE>
2
5
10

$$$$
