101377924
  -OEChem-03292013293D

 53 56  0     1  0  0  0  0  0999 V2000
    0.0329   -0.7837   -0.3288 O   0  0  0  0  0  0  0  0  0  0  0  0
    4.4172    0.8342   -0.3861 O   0  0  0  0  0  0  0  0  0  0  0  0
   -0.7488   -2.4539    1.8867 O   0  0  0  0  0  0  0  0  0  0  0  0
    3.6985   -3.7904    0.7049 O   0  0  0  0  0  0  0  0  0  0  0  0
    3.8806    3.0025   -0.9531 O   0  0  0  0  0  0  0  0  0  0  0  0
   -4.3434    1.1033    1.1162 O   0  0  0  0  0  0  0  0  0  0  0  0
   -6.2364   -0.2164   -0.4329 O   0  0  0  0  0  0  0  0  0  0  0  0
    2.0822    1.3728   -0.6836 C   0  0  1  0  0  0  0  0  0  0  0  0
    2.2683   -0.0480   -0.3135 C   0  0  0  0  0  0  0  0  0  0  0  0
    1.3549   -1.0770   -0.1471 C   0  0  0  0  0  0  0  0  0  0  0  0
   -0.5597   -2.9966    0.5792 C   0  0  1  0  0  0  0  0  0  0  0  0
   -0.8298   -1.9212   -0.4814 C   0  0  1  0  0  0  0  0  0  0  0  0
    1.8286   -2.3452    0.2232 C   0  0  0  0  0  0  0  0  0  0  0  0
    0.8785   -3.4927    0.4446 C   0  0  0  0  0  0  0  0  0  0  0  0
    1.2615    2.1688    0.3179 C   0  0  0  0  0  0  0  0  0  0  0  0
    3.6238   -0.2775   -0.1644 C   0  0  0  0  0  0  0  0  0  0  0  0
    0.6577    3.4197   -0.3204 C   0  0  0  0  0  0  0  0  0  0  0  0
    3.5277    1.8585   -0.7002 C   0  0  0  0  0  0  0  0  0  0  0  0
    3.2156   -2.5583    0.3700 C   0  0  0  0  0  0  0  0  0  0  0  0
    4.1261   -1.5190    0.1741 C   0  0  0  0  0  0  0  0  0  0  0  0
   -2.2762   -1.4632   -0.4655 C   0  0  0  0  0  0  0  0  0  0  0  0
   -0.1393    4.2357    0.6986 C   0  0  0  0  0  0  0  0  0  0  0  0
   -0.7708    5.4683    0.0520 C   0  0  0  0  0  0  0  0  0  0  0  0
   -2.6559   -0.3797    0.3266 C   0  0  0  0  0  0  0  0  0  0  0  0
   -3.2259   -2.1250   -1.2437 C   0  0  0  0  0  0  0  0  0  0  0  0
   -1.5917    6.2643    1.0541 C   0  0  0  0  0  0  0  0  0  0  0  0
   -3.9855    0.0423    0.3403 C   0  0  0  0  0  0  0  0  0  0  0  0
   -4.5555   -1.7032   -1.2298 C   0  0  0  0  0  0  0  0  0  0  0  0
   -4.9352   -0.6196   -0.4378 C   0  0  0  0  0  0  0  0  0  0  0  0
    1.6852    1.4257   -1.7038 H   0  0  0  0  0  0  0  0  0  0  0  0
   -1.2547   -3.8379    0.4734 H   0  0  0  0  0  0  0  0  0  0  0  0
   -0.6289   -2.3337   -1.4812 H   0  0  0  0  0  0  0  0  0  0  0  0
    0.9541   -4.1672   -0.4169 H   0  0  0  0  0  0  0  0  0  0  0  0
    1.1643   -4.0440    1.3480 H   0  0  0  0  0  0  0  0  0  0  0  0
    0.4380    1.5651    0.7176 H   0  0  0  0  0  0  0  0  0  0  0  0
    1.8761    2.4570    1.1811 H   0  0  0  0  0  0  0  0  0  0  0  0
   -0.0001    3.1257   -1.1477 H   0  0  0  0  0  0  0  0  0  0  0  0
    1.4487    4.0478   -0.7455 H   0  0  0  0  0  0  0  0  0  0  0  0
    5.1946   -1.6720    0.2832 H   0  0  0  0  0  0  0  0  0  0  0  0
    0.5193    4.5465    1.5187 H   0  0  0  0  0  0  0  0  0  0  0  0
   -0.9259    3.6083    1.1357 H   0  0  0  0  0  0  0  0  0  0  0  0
   -0.5895   -3.1685    2.5266 H   0  0  0  0  0  0  0  0  0  0  0  0
    0.0121    6.1120   -0.3655 H   0  0  0  0  0  0  0  0  0  0  0  0
   -1.4177    5.1634   -0.7788 H   0  0  0  0  0  0  0  0  0  0  0  0
   -1.9253    0.1377    0.9434 H   0  0  0  0  0  0  0  0  0  0  0  0
   -2.9429   -2.9717   -1.8633 H   0  0  0  0  0  0  0  0  0  0  0  0
    4.6686   -3.7486    0.7603 H   0  0  0  0  0  0  0  0  0  0  0  0
   -2.4051    5.6576    1.4649 H   0  0  0  0  0  0  0  0  0  0  0  0
   -0.9682    6.6111    1.8844 H   0  0  0  0  0  0  0  0  0  0  0  0
   -2.0330    7.1416    0.5709 H   0  0  0  0  0  0  0  0  0  0  0  0
   -5.2852   -2.2281   -1.8405 H   0  0  0  0  0  0  0  0  0  0  0  0
   -3.5565    1.4378    1.5797 H   0  0  0  0  0  0  0  0  0  0  0  0
   -6.7478   -0.7897   -1.0295 H   0  0  0  0  0  0  0  0  0  0  0  0
  1 10  1  0  0  0  0
  1 12  1  0  0  0  0
  2 16  1  0  0  0  0
  2 18  1  0  0  0  0
  3 11  1  0  0  0  0
  3 42  1  0  0  0  0
  4 19  1  0  0  0  0
  4 47  1  0  0  0  0
  5 18  2  0  0  0  0
  6 27  1  0  0  0  0
  6 52  1  0  0  0  0
  7 29  1  0  0  0  0
  7 53  1  0  0  0  0
  8  9  1  0  0  0  0
  8 15  1  0  0  0  0
  8 18  1  0  0  0  0
  8 30  1  0  0  0  0
  9 10  1  0  0  0  0
  9 16  2  0  0  0  0
 10 13  2  0  0  0  0
 11 12  1  0  0  0  0
 11 14  1  0  0  0  0
 11 31  1  0  0  0  0
 12 21  1  0  0  0  0
 12 32  1  0  0  0  0
 13 14  1  0  0  0  0
 13 19  1  0  0  0  0
 14 33  1  0  0  0  0
 14 34  1  0  0  0  0
 15 17  1  0  0  0  0
 15 35  1  0  0  0  0
 15 36  1  0  0  0  0
 16 20  1  0  0  0  0
 17 22  1  0  0  0  0
 17 37  1  0  0  0  0
 17 38  1  0  0  0  0
 19 20  2  0  0  0  0
 20 39  1  0  0  0  0
 21 24  2  0  0  0  0
 21 25  1  0  0  0  0
 22 23  1  0  0  0  0
 22 40  1  0  0  0  0
 22 41  1  0  0  0  0
 23 26  1  0  0  0  0
 23 43  1  0  0  0  0
 23 44  1  0  0  0  0
 24 27  1  0  0  0  0
 24 45  1  0  0  0  0
 25 28  2  0  0  0  0
 25 46  1  0  0  0  0
 26 48  1  0  0  0  0
 26 49  1  0  0  0  0
 26 50  1  0  0  0  0
 27 29  2  0  0  0  0
 28 29  1  0  0  0  0
 28 51  1  0  0  0  0
M  END
> <PUBCHEM_COMPOUND_CID>
101377924

> <PUBCHEM_CONFORMER_RMSD>
0.8

> <PUBCHEM_CONFORMER_DIVERSEORDER>
1
23
38
17
42
25
11
7
33
22
37
34
40
45
6
29
15
10
32
46
18
5
43
12
28
44
14
24
35
30
26
36
3
19
31
27
2
8
4
20
41
21
13
16
9
39

> <PUBCHEM_MMFF94_PARTIAL_CHARGES>
32
1 -0.36
10 0.08
11 0.28
12 0.42
13 -0.14
14 0.14
16 0.08
18 0.66
19 0.08
2 -0.23
20 -0.15
21 -0.14
24 -0.15
25 -0.15
27 0.08
28 -0.15
29 0.08
3 -0.68
39 0.15
4 -0.53
42 0.4
45 0.15
46 0.15
47 0.45
5 -0.57
51 0.15
52 0.45
53 0.45
6 -0.53
7 -0.53
8 0.2
9 -0.14

> <PUBCHEM_EFFECTIVE_ROTOR_COUNT>
6.2

> <PUBCHEM_PHARMACOPHORE_FEATURES>
13
1 1 acceptor
1 26 hydrophobe
1 3 acceptor
1 3 donor
1 4 donor
1 5 acceptor
1 6 donor
1 7 donor
4 15 17 22 23 hydrophobe
5 2 8 9 16 18 rings
6 1 10 11 12 13 14 rings
6 21 24 25 27 28 29 rings
6 9 10 13 16 19 20 rings

> <PUBCHEM_HEAVY_ATOM_COUNT>
29

> <PUBCHEM_ATOM_DEF_STEREO_COUNT>
3

> <PUBCHEM_ATOM_UDEF_STEREO_COUNT>
0

> <PUBCHEM_BOND_DEF_STEREO_COUNT>
0

> <PUBCHEM_BOND_UDEF_STEREO_COUNT>
0

> <PUBCHEM_ISOTOPIC_ATOM_COUNT>
0

> <PUBCHEM_COMPONENT_COUNT>
1

> <PUBCHEM_CACTVS_TAUTO_COUNT>
48

> <PUBCHEM_CONFORMER_ID>
060AE78400000001

> <PUBCHEM_MMFF94_ENERGY>
67.7031

> <PUBCHEM_FEATURE_SELFOVERLAP>
66.105

> <PUBCHEM_SHAPE_FINGERPRINT>
10074138 170 15736519602963587419
10190206 1 18265074491453731820
10256941 240 16395740132255389469
10411042 1 17974843974475632282
10439779 11 17907282605489332360
10675989 125 18408041835980720572
11513181 2 17337580151734852959
11578080 2 17049599399130780018
12156800 1 17687994571583505160
12769317 202 18261937622937954767
12788726 201 18338525149148218092
13140716 1 18263924500995788098
13590594 115 18265897947504106954
13692114 37 17620454828096740865
138480 1 18339919428354985837
14466204 15 18122616421565978192
14705955 166 18053064443124245336
14790565 3 18046917249349084772
15483637 11 17977103462254052749
18335252 114 18338502064242061933
18681886 176 18342163501285590019
20028762 73 16396884083629767357
20642791 13 18193550066002755194
20771845 38 12491333612251919256
21033648 144 18114733953512468959
21033648 29 16805871953597037359
21133410 221 14391101809537325105
21197605 99 17402904323891264793
21344244 78 18118657985989455699
21860390 5 18199194051712013756
23559900 14 17980192311915750927
335352 9 18334857251757783550
345986 75 17970886909135134082
474 4 18335699468383764811
653340 110 18268982086605618320
9981440 41 17330539355832538385

> <PUBCHEM_SHAPE_MULTIPOLES>
555.72
9.27
7.34
1.05
7.76
13.94
-0.11
-3.4
1.75
-0.41
-2.19
0.44
-0.12
-2.27

> <PUBCHEM_SHAPE_SELFOVERLAP>
1212.738

> <PUBCHEM_SHAPE_VOLUME>
301.2

> <PUBCHEM_COORDINATE_TYPE>
2
5
10

$$$$
