101324719
  -OEChem-03292013293D

 64 69  0     1  0  0  0  0  0999 V2000
   -1.2352    2.5738   -0.7235 O   0  0  0  0  0  0  0  0  0  0  0  0
   -1.6635    0.6935   -2.5181 O   0  0  0  0  0  0  0  0  0  0  0  0
    3.9579    1.7118   -1.3943 O   0  0  0  0  0  0  0  0  0  0  0  0
   -3.8598    1.1282   -0.4534 O   0  0  0  0  0  0  0  0  0  0  0  0
    1.3334   -0.5635    2.9329 O   0  0  0  0  0  0  0  0  0  0  0  0
   -3.8890   -1.8900    0.3237 O   0  0  0  0  0  0  0  0  0  0  0  0
    2.2556   -1.3894   -0.2719 N   0  0  2  0  0  0  0  0  0  0  0  0
    1.0211    0.5408    0.7185 C   0  0  1  0  0  0  0  0  0  0  0  0
   -0.4456    1.0663    1.0260 C   0  0  1  0  0  0  0  0  0  0  0  0
    0.9265   -0.7601   -0.1186 C   0  0  1  0  0  0  0  0  0  0  0  0
    1.7810    1.4106   -0.3405 C   0  0  2  0  0  0  0  0  0  0  0  0
    0.3031   -0.1867   -1.4295 C   0  0  1  0  0  0  0  0  0  0  0  0
   -1.4068    1.2682   -0.1789 C   0  0  2  0  0  0  0  0  0  0  0  0
   -1.2041    0.1659   -1.2567 C   0  0  1  0  0  0  0  0  0  0  0  0
    1.1068    1.1034   -1.6985 C   0  0  0  0  0  0  0  0  0  0  0  0
    3.2533    0.9290   -0.4257 C   0  0  1  0  0  0  0  0  0  0  0  0
   -1.2842    0.1794    1.9867 C   0  0  0  0  0  0  0  0  0  0  0  0
   -2.6384   -0.0619    1.3015 C   0  0  1  0  0  0  0  0  0  0  0  0
   -2.7943    1.2026    0.4721 C   0  0  2  0  0  0  0  0  0  0  0  0
    1.8111    0.4703    2.0759 C   0  0  2  0  0  0  0  0  0  0  0  0
   -2.0661   -1.1008   -1.0068 C   0  0  0  0  0  0  0  0  0  0  0  0
   -2.5755   -1.3276    0.4245 C   0  0  2  0  0  0  0  0  0  0  0  0
    3.2896   -0.5508   -0.8951 C   0  0  0  0  0  0  0  0  0  0  0  0
    3.9549    1.1324    0.9177 C   0  0  0  0  0  0  0  0  0  0  0  0
    3.3280    0.3022    2.0125 C   0  0  0  0  0  0  0  0  0  0  0  0
    2.1827   -2.7016   -0.9064 C   0  0  0  0  0  0  0  0  0  0  0  0
    3.5050   -3.4409   -0.7921 C   0  0  0  0  0  0  0  0  0  0  0  0
   -5.1178    1.3744    0.1666 C   0  0  0  0  0  0  0  0  0  0  0  0
   -3.8298   -3.2796    0.0515 C   0  0  0  0  0  0  0  0  0  0  0  0
   -0.3157    2.0425    1.5172 H   0  0  0  0  0  0  0  0  0  0  0  0
    0.2670   -1.4835    0.3664 H   0  0  0  0  0  0  0  0  0  0  0  0
    1.7340    2.4831   -0.1198 H   0  0  0  0  0  0  0  0  0  0  0  0
    0.4152   -0.8723   -2.2774 H   0  0  0  0  0  0  0  0  0  0  0  0
    1.8235    0.9465   -2.5116 H   0  0  0  0  0  0  0  0  0  0  0  0
    0.5053    1.9428   -2.0512 H   0  0  0  0  0  0  0  0  0  0  0  0
   -1.4414    0.7306    2.9228 H   0  0  0  0  0  0  0  0  0  0  0  0
   -0.8228   -0.7710    2.2545 H   0  0  0  0  0  0  0  0  0  0  0  0
   -3.4345   -0.1667    2.0467 H   0  0  0  0  0  0  0  0  0  0  0  0
   -2.9365    2.0837    1.1150 H   0  0  0  0  0  0  0  0  0  0  0  0
    1.6257    1.4186    2.5986 H   0  0  0  0  0  0  0  0  0  0  0  0
   -1.5176   -1.9942   -1.3348 H   0  0  0  0  0  0  0  0  0  0  0  0
   -2.9323   -1.0746   -1.6851 H   0  0  0  0  0  0  0  0  0  0  0  0
   -1.9330   -2.0614    0.9277 H   0  0  0  0  0  0  0  0  0  0  0  0
    3.2172   -0.5973   -1.9901 H   0  0  0  0  0  0  0  0  0  0  0  0
    4.2881   -0.9426   -0.6635 H   0  0  0  0  0  0  0  0  0  0  0  0
    3.9222    2.1958    1.1898 H   0  0  0  0  0  0  0  0  0  0  0  0
    5.0219    0.8895    0.8344 H   0  0  0  0  0  0  0  0  0  0  0  0
    3.5952   -0.7553    1.8965 H   0  0  0  0  0  0  0  0  0  0  0  0
    3.7642    0.5839    2.9800 H   0  0  0  0  0  0  0  0  0  0  0  0
   -1.3628    3.2256   -0.0138 H   0  0  0  0  0  0  0  0  0  0  0  0
   -1.4985    0.0215   -3.2016 H   0  0  0  0  0  0  0  0  0  0  0  0
    1.8901   -2.6324   -1.9605 H   0  0  0  0  0  0  0  0  0  0  0  0
    1.4227   -3.3101   -0.4009 H   0  0  0  0  0  0  0  0  0  0  0  0
    4.8635    1.3633   -1.4596 H   0  0  0  0  0  0  0  0  0  0  0  0
    1.7799   -0.4697    3.7916 H   0  0  0  0  0  0  0  0  0  0  0  0
    4.2768   -3.0174   -1.4422 H   0  0  0  0  0  0  0  0  0  0  0  0
    3.8758   -3.4468    0.2387 H   0  0  0  0  0  0  0  0  0  0  0  0
    3.3704   -4.4843   -1.0982 H   0  0  0  0  0  0  0  0  0  0  0  0
   -5.8922    1.3110   -0.6028 H   0  0  0  0  0  0  0  0  0  0  0  0
   -5.1442    2.3792    0.5994 H   0  0  0  0  0  0  0  0  0  0  0  0
   -5.3345    0.6254    0.9331 H   0  0  0  0  0  0  0  0  0  0  0  0
   -4.8549   -3.6560   -0.0112 H   0  0  0  0  0  0  0  0  0  0  0  0
   -3.3228   -3.8142    0.8610 H   0  0  0  0  0  0  0  0  0  0  0  0
   -3.3371   -3.4835   -0.9034 H   0  0  0  0  0  0  0  0  0  0  0  0
  1 13  1  0  0  0  0
  1 50  1  0  0  0  0
  2 14  1  0  0  0  0
  2 51  1  0  0  0  0
  3 16  1  0  0  0  0
  3 54  1  0  0  0  0
  4 19  1  0  0  0  0
  4 28  1  0  0  0  0
  5 20  1  0  0  0  0
  5 55  1  0  0  0  0
  6 22  1  0  0  0  0
  6 29  1  0  0  0  0
  7 10  1  0  0  0  0
  7 23  1  0  0  0  0
  7 26  1  0  0  0  0
  8  9  1  0  0  0  0
  8 10  1  0  0  0  0
  8 11  1  0  0  0  0
  8 20  1  0  0  0  0
  9 13  1  0  0  0  0
  9 17  1  0  0  0  0
  9 30  1  0  0  0  0
 10 12  1  0  0  0  0
 10 31  1  0  0  0  0
 11 15  1  0  0  0  0
 11 16  1  0  0  0  0
 11 32  1  0  0  0  0
 12 14  1  0  0  0  0
 12 15  1  0  0  0  0
 12 33  1  0  0  0  0
 13 14  1  0  0  0  0
 13 19  1  0  0  0  0
 14 21  1  0  0  0  0
 15 34  1  0  0  0  0
 15 35  1  0  0  0  0
 16 23  1  0  0  0  0
 16 24  1  0  0  0  0
 17 18  1  0  0  0  0
 17 36  1  0  0  0  0
 17 37  1  0  0  0  0
 18 19  1  0  0  0  0
 18 22  1  0  0  0  0
 18 38  1  0  0  0  0
 19 39  1  0  0  0  0
 20 25  1  0  0  0  0
 20 40  1  0  0  0  0
 21 22  1  0  0  0  0
 21 41  1  0  0  0  0
 21 42  1  0  0  0  0
 22 43  1  0  0  0  0
 23 44  1  0  0  0  0
 23 45  1  0  0  0  0
 24 25  1  0  0  0  0
 24 46  1  0  0  0  0
 24 47  1  0  0  0  0
 25 48  1  0  0  0  0
 25 49  1  0  0  0  0
 26 27  1  0  0  0  0
 26 52  1  0  0  0  0
 26 53  1  0  0  0  0
 27 56  1  0  0  0  0
 27 57  1  0  0  0  0
 27 58  1  0  0  0  0
 28 59  1  0  0  0  0
 28 60  1  0  0  0  0
 28 61  1  0  0  0  0
 29 62  1  0  0  0  0
 29 63  1  0  0  0  0
 29 64  1  0  0  0  0
M  END
> <PUBCHEM_COMPOUND_CID>
101324719

> <PUBCHEM_CONFORMER_RMSD>
0.8

> <PUBCHEM_CONFORMER_DIVERSEORDER>
1

> <PUBCHEM_MMFF94_PARTIAL_CHARGES>
22
1 -0.68
10 0.27
13 0.28
14 0.28
16 0.28
19 0.28
2 -0.68
20 0.28
22 0.28
23 0.27
26 0.27
28 0.28
29 0.28
3 -0.68
4 -0.56
5 -0.68
50 0.4
51 0.4
54 0.4
55 0.4
6 -0.56
7 -0.81

> <PUBCHEM_EFFECTIVE_ROTOR_COUNT>
5

> <PUBCHEM_PHARMACOPHORE_FEATURES>
15
1 1 acceptor
1 1 donor
1 2 acceptor
1 2 donor
1 3 acceptor
1 3 donor
1 4 acceptor
1 5 acceptor
1 5 donor
1 6 acceptor
1 7 cation
6 8 11 16 20 24 25 rings
8 7 8 10 11 12 15 16 23 rings
8 8 9 10 11 12 13 14 15 rings
8 9 13 14 17 18 19 21 22 rings

> <PUBCHEM_HEAVY_ATOM_COUNT>
29

> <PUBCHEM_ATOM_DEF_STEREO_COUNT>
12

> <PUBCHEM_ATOM_UDEF_STEREO_COUNT>
0

> <PUBCHEM_BOND_DEF_STEREO_COUNT>
0

> <PUBCHEM_BOND_UDEF_STEREO_COUNT>
0

> <PUBCHEM_ISOTOPIC_ATOM_COUNT>
0

> <PUBCHEM_COMPONENT_COUNT>
1

> <PUBCHEM_CACTVS_TAUTO_COUNT>
1

> <PUBCHEM_CONFORMER_ID>
060A17AF00000001

> <PUBCHEM_MMFF94_ENERGY>
153.5378

> <PUBCHEM_FEATURE_SELFOVERLAP>
77.661

> <PUBCHEM_SHAPE_FINGERPRINT>
10863032 1 18271535229581870065
10948715 1 18187088321506219549
11370993 70 18412546513365067139
11578080 2 17628895865010242040
12156800 1 16037744694795077176
12236239 1 17603863442904821817
12553582 1 18051972812413933135
12788726 201 18189054360503669531
13140716 1 18201442415467874447
13224815 77 18272369793188066618
13533116 47 18130789989158940311
13583140 156 17918269874449995985
14178342 30 18411973676528565426
14223421 5 18202005438414523990
14289901 80 18338811073135937160
14787075 74 17199667703418747552
15219462 58 17704354342479246761
15238133 3 16771839740422628241
16945 1 17986938829522798196
17980427 23 17677614335867439036
18981168 100 18341881962163093812
200 152 17241313802270143689
20600515 1 16516265031430301796
20691752 17 17627779039741002262
20775530 9 18412553110572782975
21033648 29 18265608780705452449
23419403 2 17120542053416061990
23559900 14 18340770338632636494
296302 2 17385445461493059509
3380486 77 16831154265646979438
34934 24 18114187436346371781
392239 28 17487337298723800490
4340502 62 18342458123841937121
469060 322 17840279418769253831
633830 44 17095539404029927652

> <PUBCHEM_SHAPE_MULTIPOLES>
556.61
7.53
2.76
2.05
2.9
2.89
0.56
0.83
0.31
-0.11
-0.38
-0.75
-0.53
0.72

> <PUBCHEM_SHAPE_SELFOVERLAP>
1231.267

> <PUBCHEM_SHAPE_VOLUME>
291.4

> <PUBCHEM_COORDINATE_TYPE>
2
5
10

$$$$
