101340323
  -OEChem-03292013293D

 29 30  0     1  0  0  0  0  0999 V2000
   -4.0919    1.2275   -1.3523 S   0  0  0  0  0  0  0  0  0  0  0  0
   -1.3422   -0.3705    0.9194 O   0  0  0  0  0  0  0  0  0  0  0  0
   -4.7460   -1.5262    0.4240 O   0  0  0  0  0  0  0  0  0  0  0  0
    1.4517    2.6454    0.6167 O   0  0  0  0  0  0  0  0  0  0  0  0
    4.6029   -0.5831   -0.2748 O   0  0  0  0  0  0  0  0  0  0  0  0
    0.7278    0.4635    0.2191 N   0  0  0  0  0  0  0  0  0  0  0  0
    3.0127    1.0253    0.1712 N   0  0  0  0  0  0  0  0  0  0  0  0
   -0.6621    0.7699    0.3814 C   0  0  1  0  0  0  0  0  0  0  0  0
   -1.3478    1.0711   -0.9359 C   0  0  0  0  0  0  0  0  0  0  0  0
   -2.7538   -0.2268    0.6483 C   0  0  1  0  0  0  0  0  0  0  0  0
   -2.7346    0.6831   -0.5528 C   0  0  0  0  0  0  0  0  0  0  0  0
   -3.3293   -1.6058    0.3955 C   0  0  0  0  0  0  0  0  0  0  0  0
    1.0683   -0.8411   -0.0740 C   0  0  0  0  0  0  0  0  0  0  0  0
    1.6976    1.4658    0.3560 C   0  0  0  0  0  0  0  0  0  0  0  0
    2.3277   -1.2592   -0.2506 C   0  0  0  0  0  0  0  0  0  0  0  0
    3.4262   -0.2649   -0.1246 C   0  0  0  0  0  0  0  0  0  0  0  0
    2.6929   -2.6740   -0.5666 C   0  0  0  0  0  0  0  0  0  0  0  0
   -0.7855    1.6039    1.0849 H   0  0  0  0  0  0  0  0  0  0  0  0
   -1.0131    0.4177   -1.7492 H   0  0  0  0  0  0  0  0  0  0  0  0
   -1.2428    2.1174   -1.2335 H   0  0  0  0  0  0  0  0  0  0  0  0
   -3.2291    0.2810    1.4951 H   0  0  0  0  0  0  0  0  0  0  0  0
   -3.0026   -2.3091    1.1689 H   0  0  0  0  0  0  0  0  0  0  0  0
   -3.0129   -2.0032   -0.5753 H   0  0  0  0  0  0  0  0  0  0  0  0
    0.2602   -1.5560   -0.1890 H   0  0  0  0  0  0  0  0  0  0  0  0
    3.7420    1.7269    0.2635 H   0  0  0  0  0  0  0  0  0  0  0  0
    3.2183   -2.7281   -1.5257 H   0  0  0  0  0  0  0  0  0  0  0  0
    1.8109   -3.3197   -0.6338 H   0  0  0  0  0  0  0  0  0  0  0  0
    3.3457   -3.0833    0.2114 H   0  0  0  0  0  0  0  0  0  0  0  0
   -5.0858   -2.4231    0.2639 H   0  0  0  0  0  0  0  0  0  0  0  0
  1 11  2  0  0  0  0
  2  8  1  0  0  0  0
  2 10  1  0  0  0  0
  3 12  1  0  0  0  0
  3 29  1  0  0  0  0
  4 14  2  0  0  0  0
  5 16  2  0  0  0  0
  6  8  1  0  0  0  0
  6 13  1  0  0  0  0
  6 14  1  0  0  0  0
  7 14  1  0  0  0  0
  7 16  1  0  0  0  0
  7 25  1  0  0  0  0
  8  9  1  0  0  0  0
  8 18  1  0  0  0  0
  9 11  1  0  0  0  0
  9 19  1  0  0  0  0
  9 20  1  0  0  0  0
 10 11  1  0  0  0  0
 10 12  1  0  0  0  0
 10 21  1  0  0  0  0
 12 22  1  0  0  0  0
 12 23  1  0  0  0  0
 13 15  2  0  0  0  0
 13 24  1  0  0  0  0
 15 16  1  0  0  0  0
 15 17  1  0  0  0  0
 17 26  1  0  0  0  0
 17 27  1  0  0  0  0
 17 28  1  0  0  0  0
M  END
> <PUBCHEM_COMPOUND_CID>
101340323

> <PUBCHEM_CONFORMER_RMSD>
0.6

> <PUBCHEM_CONFORMER_DIVERSEORDER>
1
13
8
14
11
4
9
5
12
15
3
7
16
6
2
10

> <PUBCHEM_MMFF94_PARTIAL_CHARGES>
20
1 -0.38
10 0.34
11 0.26
12 0.28
13 -0.04
14 0.69
15 -0.12
16 0.62
17 0.14
2 -0.56
24 0.15
25 0.37
29 0.4
3 -0.68
4 -0.57
5 -0.57
6 -0.47
7 -0.49
8 0.58
9 0.06

> <PUBCHEM_EFFECTIVE_ROTOR_COUNT>
2.8

> <PUBCHEM_PHARMACOPHORE_FEATURES>
9
1 1 acceptor
1 2 acceptor
1 3 acceptor
1 3 donor
1 4 acceptor
1 5 acceptor
1 7 donor
5 2 8 9 10 11 rings
6 6 7 13 14 15 16 rings

> <PUBCHEM_HEAVY_ATOM_COUNT>
17

> <PUBCHEM_ATOM_DEF_STEREO_COUNT>
2

> <PUBCHEM_ATOM_UDEF_STEREO_COUNT>
0

> <PUBCHEM_BOND_DEF_STEREO_COUNT>
0

> <PUBCHEM_BOND_UDEF_STEREO_COUNT>
0

> <PUBCHEM_ISOTOPIC_ATOM_COUNT>
0

> <PUBCHEM_COMPONENT_COUNT>
1

> <PUBCHEM_CACTVS_TAUTO_COUNT>
6

> <PUBCHEM_CONFORMER_ID>
060A54A300000001

> <PUBCHEM_MMFF94_ENERGY>
40.7668

> <PUBCHEM_FEATURE_SELFOVERLAP>
45.674

> <PUBCHEM_SHAPE_FINGERPRINT>
10608611 8 18335133219879434589
11471102 20 18342170060058639044
12032990 46 18341900658414111598
12500047 106 18187076222677889711
12553582 1 17908717124281703642
13296908 3 18409732833187040687
14252887 29 17561371651849576126
15219456 202 18409162246850423313
15375462 189 17632576058638662034
16945 1 18343581850126231664
17834074 16 18410011044088846247
18186145 218 18115015321636846301
19141452 34 18339085999263837755
19433438 38 18260266343330183174
200 152 17917703591781404829
20201158 50 18409729517503800282
20279233 1 18335981982457113975
20281475 54 18338526248105691586
20645477 56 18113616742967615197
20645477 70 18201994391737306255
20871999 31 17821727234967779815
221490 88 18337958990390022530
22943178 12 18335693966741220005
23402539 116 17312818260618607390
23526113 38 18266446616616941629
23557571 272 18040154020065876045
23559900 14 18262795147608380050
2748010 2 18260543450799751549
2871803 45 18260542372758075363
3286 77 18339645641105685537
474 4 16269366470251770144
5104073 3 18410009940039626448
6049 1 18335136514346164933
633830 44 12974460872579474486
7364860 26 18269838777698440912
77492 1 16917066654949965265
8809292 202 18261399999964007890
9709674 26 18409725141143258935

> <PUBCHEM_SHAPE_MULTIPOLES>
320.26
8.18
2.26
0.95
1.87
0.3
-0.14
2.4
-1.28
-0.56
0.04
0.66
-0.12
1.54

> <PUBCHEM_SHAPE_SELFOVERLAP>
662.787

> <PUBCHEM_SHAPE_VOLUME>
185.4

> <PUBCHEM_COORDINATE_TYPE>
2
5
10

$$$$
