101374768
  -OEChem-03292013293D

 26 29  0     0  0  0  0  0  0999 V2000
   -2.4607   -1.5632   -0.0320 S   0  0  0  0  0  0  0  0  0  0  0  0
   -1.9681    1.3740    0.0234 S   0  0  0  0  0  0  0  0  0  0  0  0
    1.1252    0.8469    0.0154 S   0  0  0  0  0  0  0  0  0  0  0  0
    0.6358   -2.0709   -0.0390 S   0  0  0  0  0  0  0  0  0  0  0  0
    5.1714   -0.6933   -0.0095 S   0  0  0  0  0  0  0  0  0  0  0  0
    4.0558    2.0713    0.0407 S   0  0  0  0  0  0  0  0  0  0  0  0
   -4.6188    1.7658   -0.0125 O   0  0  0  0  0  0  0  0  0  0  0  0
   -5.0939   -1.0690    0.0237 O   0  0  0  0  0  0  0  0  0  0  0  0
    3.2260   -2.4473   -0.0457 O   0  0  0  0  0  0  0  0  0  0  0  0
   -5.8831    1.1910   -0.3639 C   0  0  0  0  0  0  0  0  0  0  0  0
   -6.0991   -0.1138    0.3842 C   0  0  0  0  0  0  0  0  0  0  0  0
   -3.8349   -0.5047   -0.0026 C   0  0  0  0  0  0  0  0  0  0  0  0
   -3.6125    0.8219    0.0053 C   0  0  0  0  0  0  0  0  0  0  0  0
   -1.3255   -0.2436   -0.0066 C   0  0  0  0  0  0  0  0  0  0  0  0
   -0.0049   -0.4651   -0.0098 C   0  0  0  0  0  0  0  0  0  0  0  0
    2.5336   -0.1499   -0.0026 C   0  0  0  0  0  0  0  0  0  0  0  0
    2.3288   -1.6179   -0.0303 C   0  0  0  0  0  0  0  0  0  0  0  0
    3.7741    0.3504    0.0081 C   0  0  0  0  0  0  0  0  0  0  0  0
    6.2754    0.6392    0.0155 C   0  0  0  0  0  0  0  0  0  0  0  0
    5.7755    1.8781    0.0383 C   0  0  0  0  0  0  0  0  0  0  0  0
   -6.0579    0.0382    1.4698 H   0  0  0  0  0  0  0  0  0  0  0  0
   -7.0745   -0.5426    0.1346 H   0  0  0  0  0  0  0  0  0  0  0  0
   -5.9020    1.0352   -1.4496 H   0  0  0  0  0  0  0  0  0  0  0  0
   -6.6634    1.9142   -0.1077 H   0  0  0  0  0  0  0  0  0  0  0  0
    6.4142    2.7526    0.0549 H   0  0  0  0  0  0  0  0  0  0  0  0
    7.3423    0.4527    0.0127 H   0  0  0  0  0  0  0  0  0  0  0  0
  1 12  1  0  0  0  0
  1 14  1  0  0  0  0
  2 13  1  0  0  0  0
  2 14  1  0  0  0  0
  3 15  1  0  0  0  0
  3 16  1  0  0  0  0
  4 15  1  0  0  0  0
  4 17  1  0  0  0  0
  5 18  1  0  0  0  0
  5 19  1  0  0  0  0
  6 18  1  0  0  0  0
  6 20  1  0  0  0  0
  7 10  1  0  0  0  0
  7 13  1  0  0  0  0
  8 11  1  0  0  0  0
  8 12  1  0  0  0  0
  9 17  2  0  0  0  0
 10 11  1  0  0  0  0
 10 23  1  0  0  0  0
 10 24  1  0  0  0  0
 11 21  1  0  0  0  0
 11 22  1  0  0  0  0
 12 13  2  0  0  0  0
 14 15  2  0  0  0  0
 16 17  1  0  0  0  0
 16 18  2  0  0  0  0
 19 20  2  0  0  0  0
 19 26  1  0  0  0  0
 20 25  1  0  0  0  0
M  END
> <PUBCHEM_COMPOUND_CID>
101374768

> <PUBCHEM_CONFORMER_RMSD>
0.6

> <PUBCHEM_CONFORMER_DIVERSEORDER>
1

> <PUBCHEM_MMFF94_PARTIAL_CHARGES>
22
1 -0.2
10 0.28
11 0.28
12 0.18
13 0.18
14 0.2
15 0.2
16 0.12
17 0.7
18 0.2
19 -0.05
2 -0.2
20 -0.05
25 0.15
26 0.15
3 -0.2
4 -0.24
5 -0.2
6 -0.2
7 -0.36
8 -0.36
9 -0.57

> <PUBCHEM_EFFECTIVE_ROTOR_COUNT>
1.6

> <PUBCHEM_PHARMACOPHORE_FEATURES>
6
1 7 acceptor
1 8 acceptor
5 1 2 12 13 14 rings
5 3 4 15 16 17 rings
5 5 6 18 19 20 rings
6 7 8 10 11 12 13 rings

> <PUBCHEM_HEAVY_ATOM_COUNT>
20

> <PUBCHEM_ATOM_DEF_STEREO_COUNT>
0

> <PUBCHEM_ATOM_UDEF_STEREO_COUNT>
0

> <PUBCHEM_BOND_DEF_STEREO_COUNT>
0

> <PUBCHEM_BOND_UDEF_STEREO_COUNT>
0

> <PUBCHEM_ISOTOPIC_ATOM_COUNT>
0

> <PUBCHEM_COMPONENT_COUNT>
1

> <PUBCHEM_CACTVS_TAUTO_COUNT>
1

> <PUBCHEM_CONFORMER_ID>
060ADB3000000001

> <PUBCHEM_MMFF94_ENERGY>
44.4015

> <PUBCHEM_FEATURE_SELFOVERLAP>
30.515

> <PUBCHEM_SHAPE_FINGERPRINT>
10 15 18114463452561879296
10411042 1 17834395623666733038
10595046 47 18413668002741105063
10835480 77 18335696093029957509
11089746 13 17704066317751515480
11595378 159 16733532836931478684
12107183 9 17691972557207665376
12236239 1 18411418414376563406
12403259 415 18041555841208452309
12633257 1 16153709877149404308
12730499 353 18410581682176373194
12788726 201 17274828995718031401
13073987 5 18335704906112470523
13167372 99 18411700954864243056
13402501 40 18409447003082168192
13533116 47 13973698191750091972
13785724 45 17906167348807569370
14251732 16 18408605894045825115
14341114 176 18410297994853258766
14528608 73 18341612633269311884
14790565 3 18412548703771916929
14933364 13 18410295817342029248
15048467 5 18411136939494993173
15196674 1 18410575054988840879
15475509 35 16226595279485355874
15961568 22 18260551112726632820
17834072 33 18341892995638593630
17844677 252 18269281174746895497
18335252 98 18409733993662004923
18608769 82 18337956817817345475
200 152 18131350812612757865
20281389 69 18260546718811233245
20645477 56 18333729117939873725
20645477 70 18271246010800795622
21033648 29 18198614622607653680
21150785 3 16200145525776415125
21236236 1 18341049739404316039
21267235 1 18411708664013943646
21315763 28 18410572889950894250
23402539 116 18341889727163154909
23402655 69 18272367568321232262
23559900 14 18341324591267046017
239999 70 18272093743267260798
245318 6 17244158333673700532
2916195 48 18259983773411001753
293599 30 18413108385539880686
29717793 49 17561089073092481798
300161 21 18334289860164053839
3004659 81 18408605830080154050
335352 9 18411139130978055158
34797466 226 17918001580696359348
34934 24 18411696595150612663
350125 39 18410573985373471436
3545911 37 18410294713492969828
4073 2 18041003976618902242
4214541 1 18410573976920290637
42630746 31 18413672396735450062
4325135 7 18341610443236950255
4340502 62 17240483611120373306
4463277 17 18410856564035126561
474 4 18040439927369753676
5104073 3 18261680272797859747
542803 24 17603305968486115684
59682541 35 18262245521017603363
59682541 52 17417829313974951636
59755656 215 18410578366667037302
59755656 520 17676764353117776674
9996256 80 18341611559475065103

> <PUBCHEM_SHAPE_MULTIPOLES>
417.08
15.73
2.27
0.64
3.31
0.35
0
-5.87
0.18
-1.26
-0.04
0.03
-0.01
0.2

> <PUBCHEM_SHAPE_SELFOVERLAP>
840.418

> <PUBCHEM_SHAPE_VOLUME>
244.9

> <PUBCHEM_COORDINATE_TYPE>
2
5
10

$$$$
