101316771
  -OEChem-03292013293D

 62 65  0     1  0  0  0  0  0999 V2000
   -2.1914    1.6541    0.1474 O   0  0  0  0  0  0  0  0  0  0  0  0
    2.7338   -0.5734    1.5727 O   0  0  0  0  0  0  0  0  0  0  0  0
   -4.4902    0.0626    1.0174 O   0  0  0  0  0  0  0  0  0  0  0  0
    1.4400    1.9457    1.9326 O   0  0  0  0  0  0  0  0  0  0  0  0
    5.0511   -0.8499   -0.1066 O   0  0  0  0  0  0  0  0  0  0  0  0
   -2.0165    2.6398   -1.9346 O   0  0  0  0  0  0  0  0  0  0  0  0
   -1.1340   -0.5356    0.6407 C   0  0  1  0  0  0  0  0  0  0  0  0
   -0.5778   -1.8305   -0.0817 C   0  0  1  0  0  0  0  0  0  0  0  0
   -1.7922    0.4030   -0.4010 C   0  0  1  0  0  0  0  0  0  0  0  0
   -3.0111   -0.4356   -0.8294 C   0  0  2  0  0  0  0  0  0  0  0  0
   -2.3827   -0.9713    1.4867 C   0  0  0  0  0  0  0  0  0  0  0  0
   -3.5836   -0.9370    0.5244 C   0  0  1  0  0  0  0  0  0  0  0  0
    2.1939    0.1667    0.4668 C   0  0  1  0  0  0  0  0  0  0  0  0
   -0.1474    0.1777    1.6024 C   0  0  0  0  0  0  0  0  0  0  0  0
    1.7662   -0.8465   -0.6232 C   0  0  2  0  0  0  0  0  0  0  0  0
    0.9907    0.9955    0.9605 C   0  0  1  0  0  0  0  0  0  0  0  0
   -1.1034   -2.0127   -1.5282 C   0  0  0  0  0  0  0  0  0  0  0  0
   -2.5416   -1.5525   -1.7697 C   0  0  0  0  0  0  0  0  0  0  0  0
    3.3605    0.9560   -0.2284 C   0  0  0  0  0  0  0  0  0  0  0  0
    0.9392   -2.0003   -0.0850 C   0  0  0  0  0  0  0  0  0  0  0  0
    3.0561   -1.1955   -1.4036 C   0  0  0  0  0  0  0  0  0  0  0  0
    4.1212   -0.1849   -0.9600 C   0  0  2  0  0  0  0  0  0  0  0  0
   -4.3524   -2.2536    0.5115 C   0  0  0  0  0  0  0  0  0  0  0  0
    2.8533    1.9736   -1.2757 C   0  0  0  0  0  0  0  0  0  0  0  0
    4.2917    1.7115    0.7377 C   0  0  0  0  0  0  0  0  0  0  0  0
    1.4806   -3.1383    0.3866 C   0  0  0  0  0  0  0  0  0  0  0  0
   -2.2620    2.6929   -0.7372 C   0  0  0  0  0  0  0  0  0  0  0  0
   -2.6919    3.9385   -0.0231 C   0  0  0  0  0  0  0  0  0  0  0  0
   -0.9789   -2.6939    0.4680 H   0  0  0  0  0  0  0  0  0  0  0  0
   -1.1020    0.5786   -1.2348 H   0  0  0  0  0  0  0  0  0  0  0  0
   -3.7598    0.1838   -1.3379 H   0  0  0  0  0  0  0  0  0  0  0  0
   -2.2362   -1.9545    1.9482 H   0  0  0  0  0  0  0  0  0  0  0  0
   -2.5514   -0.2746    2.3182 H   0  0  0  0  0  0  0  0  0  0  0  0
    0.2612   -0.5446    2.3212 H   0  0  0  0  0  0  0  0  0  0  0  0
   -0.7213    0.8744    2.2303 H   0  0  0  0  0  0  0  0  0  0  0  0
    1.1407   -0.3131   -1.3499 H   0  0  0  0  0  0  0  0  0  0  0  0
    0.5857    1.5837    0.1322 H   0  0  0  0  0  0  0  0  0  0  0  0
   -1.0106   -3.0661   -1.8247 H   0  0  0  0  0  0  0  0  0  0  0  0
   -0.4653   -1.4681   -2.2358 H   0  0  0  0  0  0  0  0  0  0  0  0
   -2.5915   -1.1727   -2.7995 H   0  0  0  0  0  0  0  0  0  0  0  0
   -3.2220   -2.4086   -1.7628 H   0  0  0  0  0  0  0  0  0  0  0  0
    3.3947   -2.2263   -1.2706 H   0  0  0  0  0  0  0  0  0  0  0  0
    2.8548   -1.0685   -2.4750 H   0  0  0  0  0  0  0  0  0  0  0  0
    4.6909    0.1914   -1.8170 H   0  0  0  0  0  0  0  0  0  0  0  0
   -4.8116   -2.4471    1.4881 H   0  0  0  0  0  0  0  0  0  0  0  0
   -3.7111   -3.1081    0.2752 H   0  0  0  0  0  0  0  0  0  0  0  0
   -5.1729   -2.2145   -0.2134 H   0  0  0  0  0  0  0  0  0  0  0  0
    3.7820    2.5581    1.2076 H   0  0  0  0  0  0  0  0  0  0  0  0
    5.1587    2.1139    0.2004 H   0  0  0  0  0  0  0  0  0  0  0  0
    4.6773    1.0730    1.5383 H   0  0  0  0  0  0  0  0  0  0  0  0
    2.3122    2.7986   -0.8002 H   0  0  0  0  0  0  0  0  0  0  0  0
    2.1902    1.5230   -2.0197 H   0  0  0  0  0  0  0  0  0  0  0  0
    3.6943    2.4158   -1.8230 H   0  0  0  0  0  0  0  0  0  0  0  0
    2.8403    0.0423    2.3176 H   0  0  0  0  0  0  0  0  0  0  0  0
   -4.7931   -0.2116    1.9000 H   0  0  0  0  0  0  0  0  0  0  0  0
    2.5521   -3.2942    0.4307 H   0  0  0  0  0  0  0  0  0  0  0  0
    0.8614   -3.9454    0.7648 H   0  0  0  0  0  0  0  0  0  0  0  0
    0.6995    2.5467    2.1225 H   0  0  0  0  0  0  0  0  0  0  0  0
    5.4870   -1.5423   -0.6321 H   0  0  0  0  0  0  0  0  0  0  0  0
   -3.6814    3.7902    0.4164 H   0  0  0  0  0  0  0  0  0  0  0  0
   -2.7475    4.7653   -0.7370 H   0  0  0  0  0  0  0  0  0  0  0  0
   -1.9612    4.1928    0.7489 H   0  0  0  0  0  0  0  0  0  0  0  0
  1  9  1  0  0  0  0
  1 27  1  0  0  0  0
  2 13  1  0  0  0  0
  2 54  1  0  0  0  0
  3 12  1  0  0  0  0
  3 55  1  0  0  0  0
  4 16  1  0  0  0  0
  4 58  1  0  0  0  0
  5 22  1  0  0  0  0
  5 59  1  0  0  0  0
  6 27  2  0  0  0  0
  7  8  1  0  0  0  0
  7  9  1  0  0  0  0
  7 11  1  0  0  0  0
  7 14  1  0  0  0  0
  8 17  1  0  0  0  0
  8 20  1  0  0  0  0
  8 29  1  0  0  0  0
  9 10  1  0  0  0  0
  9 30  1  0  0  0  0
 10 12  1  0  0  0  0
 10 18  1  0  0  0  0
 10 31  1  0  0  0  0
 11 12  1  0  0  0  0
 11 32  1  0  0  0  0
 11 33  1  0  0  0  0
 12 23  1  0  0  0  0
 13 15  1  0  0  0  0
 13 16  1  0  0  0  0
 13 19  1  0  0  0  0
 14 16  1  0  0  0  0
 14 34  1  0  0  0  0
 14 35  1  0  0  0  0
 15 20  1  0  0  0  0
 15 21  1  0  0  0  0
 15 36  1  0  0  0  0
 16 37  1  0  0  0  0
 17 18  1  0  0  0  0
 17 38  1  0  0  0  0
 17 39  1  0  0  0  0
 18 40  1  0  0  0  0
 18 41  1  0  0  0  0
 19 22  1  0  0  0  0
 19 24  1  0  0  0  0
 19 25  1  0  0  0  0
 20 26  2  0  0  0  0
 21 22  1  0  0  0  0
 21 42  1  0  0  0  0
 21 43  1  0  0  0  0
 22 44  1  0  0  0  0
 23 45  1  0  0  0  0
 23 46  1  0  0  0  0
 23 47  1  0  0  0  0
 24 51  1  0  0  0  0
 24 52  1  0  0  0  0
 24 53  1  0  0  0  0
 25 48  1  0  0  0  0
 25 49  1  0  0  0  0
 25 50  1  0  0  0  0
 26 56  1  0  0  0  0
 26 57  1  0  0  0  0
 27 28  1  0  0  0  0
 28 60  1  0  0  0  0
 28 61  1  0  0  0  0
 28 62  1  0  0  0  0
M  END
> <PUBCHEM_COMPOUND_CID>
101316771

> <PUBCHEM_CONFORMER_RMSD>
0.8

> <PUBCHEM_CONFORMER_DIVERSEORDER>
1
2

> <PUBCHEM_MMFF94_PARTIAL_CHARGES>
23
1 -0.43
12 0.28
13 0.28
15 0.14
16 0.28
2 -0.68
20 -0.28
22 0.28
26 -0.3
27 0.66
28 0.06
3 -0.68
4 -0.68
5 -0.68
54 0.4
55 0.4
56 0.15
57 0.15
58 0.4
59 0.4
6 -0.57
8 0.14
9 0.28

> <PUBCHEM_EFFECTIVE_ROTOR_COUNT>
4

> <PUBCHEM_PHARMACOPHORE_FEATURES>
13
1 2 acceptor
1 2 donor
1 3 acceptor
1 3 donor
1 4 acceptor
1 4 donor
1 5 acceptor
1 5 donor
1 6 acceptor
3 19 24 25 hydrophobe
5 13 15 19 21 22 rings
7 7 8 13 14 15 16 20 rings
8 7 8 9 10 11 12 17 18 rings

> <PUBCHEM_HEAVY_ATOM_COUNT>
28

> <PUBCHEM_ATOM_DEF_STEREO_COUNT>
9

> <PUBCHEM_ATOM_UDEF_STEREO_COUNT>
0

> <PUBCHEM_BOND_DEF_STEREO_COUNT>
0

> <PUBCHEM_BOND_UDEF_STEREO_COUNT>
0

> <PUBCHEM_ISOTOPIC_ATOM_COUNT>
0

> <PUBCHEM_COMPONENT_COUNT>
1

> <PUBCHEM_CACTVS_TAUTO_COUNT>
2

> <PUBCHEM_CONFORMER_ID>
0609F8A300000001

> <PUBCHEM_MMFF94_ENERGY>
130.1762

> <PUBCHEM_FEATURE_SELFOVERLAP>
66.005

> <PUBCHEM_SHAPE_FINGERPRINT>
10366900 7 18335139808438433595
10498660 4 18335133219968663957
10646746 165 18336263458019465052
10670039 82 18187944905984730620
10863032 1 18191308169496931167
11578080 2 17917129637953389144
12107698 1 18187368748531781764
12403259 226 18341891943492925530
12403259 415 18343863316887710144
12403260 363 18260268555718278174
12403814 3 18341332275142451095
12422481 6 18122375448341852729
12596599 1 16772688765199397598
12714826 92 18342737403557694097
13140716 1 18121215647561550434
13224815 77 18410289250331707027
13911987 19 17971754621193244255
14223421 5 18336549326431455215
14251751 93 18336829693216640484
14251757 17 17985841341109377766
14713325 29 18335427807227574785
14955137 171 18120387694701222323
15219462 58 17168153316644799264
15664445 248 17622970863072241317
16945 1 18341037588640992819
17349148 13 17385442145973479158
17357779 13 18339350963874176597
1813 80 18193836174963653055
18981168 100 17678447576675721597
19862831 5 17775288274262269586
19930381 70 18046073914949677541
20691752 17 18053646247077090667
22393880 68 18339367345053555798
22907989 373 18408881832936695053
23419403 2 15761552665555508195
23557571 272 18041287629375821675
23559900 14 18187931633744767003
238 59 17914583151848767829
350125 39 18338522940943924360
3524813 1 18341896285610052468
469060 322 18188507838278156369
6287921 2 18261973893520343444

> <PUBCHEM_SHAPE_MULTIPOLES>
541.01
7.96
3.46
1.63
2.62
2.22
-0.07
0.12
-0.05
-1.98
-0.64
-0.13
0.14
0.65

> <PUBCHEM_SHAPE_SELFOVERLAP>
1157.842

> <PUBCHEM_SHAPE_VOLUME>
298.9

> <PUBCHEM_COORDINATE_TYPE>
2
5
10

$$$$
