1013376
  -OEChem-03292013313D

 49 50  0     0  0  0  0  0  0999 V2000
    1.0456    2.5680   -0.9875 S   0  0  0  0  0  0  0  0  0  0  0  0
   -0.9585   -1.4472    0.3182 O   0  0  0  0  0  0  0  0  0  0  0  0
    7.7372    1.3698    0.6612 O   0  0  0  0  0  0  0  0  0  0  0  0
   -0.7934    0.7883   -0.3657 N   0  0  0  0  0  0  0  0  0  0  0  0
    1.3911   -0.0495   -0.1455 N   0  0  0  0  0  0  0  0  0  0  0  0
    6.9272   -0.7352   -0.0255 N   0  0  0  0  0  0  0  0  0  0  0  0
   -7.2259    0.0624    0.1360 C   0  0  0  0  0  0  0  0  0  0  0  0
   -5.6933   -0.0557    0.1003 C   0  0  0  0  0  0  0  0  0  0  0  0
   -7.8125   -0.3736   -1.2242 C   0  0  0  0  0  0  0  0  0  0  0  0
   -7.7362    1.4944    0.4149 C   0  0  0  0  0  0  0  0  0  0  0  0
   -7.7913   -0.8476    1.2479 C   0  0  0  0  0  0  0  0  0  0  0  0
   -5.1410   -1.2885   -0.1418 C   0  0  0  0  0  0  0  0  0  0  0  0
   -4.9472    1.0767    0.3112 C   0  0  0  0  0  0  0  0  0  0  0  0
   -3.7507   -1.3962   -0.1751 C   0  0  0  0  0  0  0  0  0  0  0  0
   -3.5569    0.9690    0.2777 C   0  0  0  0  0  0  0  0  0  0  0  0
   -2.9587   -0.2673    0.0345 C   0  0  0  0  0  0  0  0  0  0  0  0
   -1.5089   -0.3793    0.0016 C   0  0  0  0  0  0  0  0  0  0  0  0
    2.7980   -0.2238   -0.1150 C   0  0  0  0  0  0  0  0  0  0  0  0
    0.5902    1.0396   -0.4645 C   0  0  0  0  0  0  0  0  0  0  0  0
    5.5431   -0.5637   -0.0557 C   0  0  0  0  0  0  0  0  0  0  0  0
    3.6015    0.8404    0.2536 C   0  0  0  0  0  0  0  0  0  0  0  0
    3.3327   -1.4537   -0.4546 C   0  0  0  0  0  0  0  0  0  0  0  0
    4.9856    0.6691    0.2835 C   0  0  0  0  0  0  0  0  0  0  0  0
    4.7167   -1.6251   -0.4247 C   0  0  0  0  0  0  0  0  0  0  0  0
    7.9085    0.2051    0.3163 C   0  0  0  0  0  0  0  0  0  0  0  0
    9.2969   -0.3764    0.2230 C   0  0  0  0  0  0  0  0  0  0  0  0
   -7.4023    0.2301   -2.0425 H   0  0  0  0  0  0  0  0  0  0  0  0
   -8.9026   -0.2570   -1.2391 H   0  0  0  0  0  0  0  0  0  0  0  0
   -7.6026   -1.4241   -1.4529 H   0  0  0  0  0  0  0  0  0  0  0  0
   -7.4166    2.2022   -0.3590 H   0  0  0  0  0  0  0  0  0  0  0  0
   -7.4039    1.8658    1.3915 H   0  0  0  0  0  0  0  0  0  0  0  0
   -8.8331    1.5204    0.4279 H   0  0  0  0  0  0  0  0  0  0  0  0
   -8.8806   -0.7485    1.3227 H   0  0  0  0  0  0  0  0  0  0  0  0
   -7.5806   -1.9074    1.0685 H   0  0  0  0  0  0  0  0  0  0  0  0
   -7.3660   -0.5880    2.2246 H   0  0  0  0  0  0  0  0  0  0  0  0
   -5.7368   -2.1793   -0.3087 H   0  0  0  0  0  0  0  0  0  0  0  0
   -5.3584    2.0576    0.5119 H   0  0  0  0  0  0  0  0  0  0  0  0
   -3.3035   -2.3675   -0.3704 H   0  0  0  0  0  0  0  0  0  0  0  0
   -2.9809    1.8664    0.4834 H   0  0  0  0  0  0  0  0  0  0  0  0
   -1.3469    1.5920   -0.6478 H   0  0  0  0  0  0  0  0  0  0  0  0
    0.8896   -0.9342   -0.1310 H   0  0  0  0  0  0  0  0  0  0  0  0
    3.2083    1.7917    0.5910 H   0  0  0  0  0  0  0  0  0  0  0  0
    2.6974   -2.2859   -0.7444 H   0  0  0  0  0  0  0  0  0  0  0  0
    5.5594    1.5309    0.5947 H   0  0  0  0  0  0  0  0  0  0  0  0
    5.1375   -2.5913   -0.6917 H   0  0  0  0  0  0  0  0  0  0  0  0
    7.2556   -1.6628   -0.2863 H   0  0  0  0  0  0  0  0  0  0  0  0
    9.3978   -1.2063    0.9279 H   0  0  0  0  0  0  0  0  0  0  0  0
   10.0372    0.3903    0.4679 H   0  0  0  0  0  0  0  0  0  0  0  0
    9.4817   -0.7352   -0.7934 H   0  0  0  0  0  0  0  0  0  0  0  0
  1 19  2  0  0  0  0
  2 17  2  0  0  0  0
  3 25  2  0  0  0  0
  4 17  1  0  0  0  0
  4 19  1  0  0  0  0
  4 40  1  0  0  0  0
  5 18  1  0  0  0  0
  5 19  1  0  0  0  0
  5 41  1  0  0  0  0
  6 20  1  0  0  0  0
  6 25  1  0  0  0  0
  6 46  1  0  0  0  0
  7  8  1  0  0  0  0
  7  9  1  0  0  0  0
  7 10  1  0  0  0  0
  7 11  1  0  0  0  0
  8 12  2  0  0  0  0
  8 13  1  0  0  0  0
  9 27  1  0  0  0  0
  9 28  1  0  0  0  0
  9 29  1  0  0  0  0
 10 30  1  0  0  0  0
 10 31  1  0  0  0  0
 10 32  1  0  0  0  0
 11 33  1  0  0  0  0
 11 34  1  0  0  0  0
 11 35  1  0  0  0  0
 12 14  1  0  0  0  0
 12 36  1  0  0  0  0
 13 15  2  0  0  0  0
 13 37  1  0  0  0  0
 14 16  2  0  0  0  0
 14 38  1  0  0  0  0
 15 16  1  0  0  0  0
 15 39  1  0  0  0  0
 16 17  1  0  0  0  0
 18 21  2  0  0  0  0
 18 22  1  0  0  0  0
 20 23  2  0  0  0  0
 20 24  1  0  0  0  0
 21 23  1  0  0  0  0
 21 42  1  0  0  0  0
 22 24  2  0  0  0  0
 22 43  1  0  0  0  0
 23 44  1  0  0  0  0
 24 45  1  0  0  0  0
 25 26  1  0  0  0  0
 26 47  1  0  0  0  0
 26 48  1  0  0  0  0
 26 49  1  0  0  0  0
M  END
> <PUBCHEM_COMPOUND_CID>
1013376

> <PUBCHEM_CONFORMER_RMSD>
0.8

> <PUBCHEM_CONFORMER_DIVERSEORDER>
1
15
19
17
2
12
8
13
18
10
11
5
14
9
4
16
6
3
7

> <PUBCHEM_MMFF94_PARTIAL_CHARGES>
34
1 -0.38
12 -0.15
13 -0.15
14 -0.15
15 -0.15
16 0.09
17 0.54
18 0.12
19 0.5
2 -0.57
20 0.12
21 -0.15
22 -0.15
23 -0.15
24 -0.15
25 0.57
26 0.06
3 -0.57
36 0.15
37 0.15
38 0.15
39 0.15
4 -0.49
40 0.37
41 0.37
42 0.15
43 0.15
44 0.15
45 0.15
46 0.37
5 -0.55
6 -0.55
7 0.14
8 -0.14

> <PUBCHEM_EFFECTIVE_ROTOR_COUNT>
8

> <PUBCHEM_PHARMACOPHORE_FEATURES>
9
1 1 acceptor
1 2 acceptor
1 3 acceptor
1 4 donor
1 5 donor
1 6 donor
4 7 9 10 11 hydrophobe
6 18 20 21 22 23 24 rings
6 8 12 13 14 15 16 rings

> <PUBCHEM_HEAVY_ATOM_COUNT>
26

> <PUBCHEM_ATOM_DEF_STEREO_COUNT>
0

> <PUBCHEM_ATOM_UDEF_STEREO_COUNT>
0

> <PUBCHEM_BOND_DEF_STEREO_COUNT>
0

> <PUBCHEM_BOND_UDEF_STEREO_COUNT>
0

> <PUBCHEM_ISOTOPIC_ATOM_COUNT>
0

> <PUBCHEM_COMPONENT_COUNT>
1

> <PUBCHEM_CACTVS_TAUTO_COUNT>
10

> <PUBCHEM_CONFORMER_ID>
000F768000000001

> <PUBCHEM_MMFF94_ENERGY>
101.8211

> <PUBCHEM_FEATURE_SELFOVERLAP>
45.712

> <PUBCHEM_SHAPE_FINGERPRINT>
10050765 1 17972606759768367079
10066227 49 12324505525377440760
10299344 5 18334576845784258778
106641 1 18130787875565408782
11315181 36 17561084705485327147
12166972 35 18343023302804952681
12236239 1 18272370867742111431
12516196 113 18411419501409718100
12643181 29 17530968003404978595
12838862 33 18262502758713503918
13533116 47 17489310741511833335
13685833 64 18334579035705863851
13885169 127 18411418384728868033
14251764 18 18342739615291726052
14251764 46 18410855460128168299
14617042 71 17916862560809984688
15183329 4 18411416198590417179
15461852 350 17131828794348264173
15840311 113 17775282799292252008
15849732 13 18341894095260894223
16120349 18 18342452686234544352
18006028 8 18409446986049888316
18681886 176 18341606045301241387
19315958 150 17846786200139777270
19841028 212 17023457548254969874
20238998 120 18408039611298944652
21150785 3 14549017689174157232
21267235 1 18333735714635321364
21304253 13 18412262852419256164
21792934 111 18335413582797498572
21792961 116 17458613485281809902
22224240 67 17775281673340621718
232437 2 18341895190710059030
23559900 14 18339639053438191593
249057 3 18408886269262962207
3004659 81 18040998453285502452
335352 9 18334857242191474055
33684 2 18409728456478157602
4073 2 18261396705951049178
4325135 7 18408886239841529054
5283156 175 14562525163941537596
59682541 35 18410009962136909104
59755656 215 18040994017185581359
6691757 9 16773801437462154663
67123 10 18202281411506148535
9663363 56 17676200281966498020

> <PUBCHEM_SHAPE_MULTIPOLES>
512.24
28.59
1.73
0.85
13.05
0.55
-0.04
-1.87
4.34
0.05
-0.26
-0.76
0.06
0.21

> <PUBCHEM_SHAPE_SELFOVERLAP>
1068.037

> <PUBCHEM_SHAPE_VOLUME>
292.6

> <PUBCHEM_COORDINATE_TYPE>
2
5
10

$$$$
