101366553
  -OEChem-03292013293D

 64 69  0     1  0  0  0  0  0999 V2000
   -1.9767    2.0425    1.3227 O   0  0  0  0  0  0  0  0  0  0  0  0
   -4.0018    1.3921   -0.5906 O   0  0  0  0  0  0  0  0  0  0  0  0
    0.8597    1.9786   -1.3489 O   0  0  0  0  0  0  0  0  0  0  0  0
    0.2430   -2.3907    1.7630 O   0  0  0  0  0  0  0  0  0  0  0  0
    5.2128   -0.8616   -0.1781 O   0  0  0  0  0  0  0  0  0  0  0  0
   -3.6070    3.5163   -1.2903 O   0  0  0  0  0  0  0  0  0  0  0  0
   -5.8774   -2.6993    0.1523 O   0  0  0  0  0  0  0  0  0  0  0  0
    5.4951   -1.8027   -2.2378 O   0  0  0  0  0  0  0  0  0  0  0  0
   -1.2649    1.1766    0.3949 C   0  0  1  0  0  0  0  0  0  0  0  0
    0.2552    1.0400    0.8155 C   0  0  1  0  0  0  0  0  0  0  0  0
   -2.0563   -0.0755   -0.0132 C   0  0  1  0  0  0  0  0  0  0  0  0
    0.8001   -0.3911    0.4690 C   0  0  1  0  0  0  0  0  0  0  0  0
   -1.9123    2.4959   -0.0195 C   0  0  1  0  0  0  0  0  0  0  0  0
    2.3742   -0.6612    0.5994 C   0  0  1  0  0  0  0  0  0  0  0  0
    1.1095    2.0847    0.0556 C   0  0  1  0  0  0  0  0  0  0  0  0
   -1.6381   -1.2475    0.8940 C   0  0  0  0  0  0  0  0  0  0  0  0
    3.1387    0.5241   -0.1323 C   0  0  1  0  0  0  0  0  0  0  0  0
   -3.5902    0.2356    0.1976 C   0  0  2  0  0  0  0  0  0  0  0  0
    2.6096    1.9139    0.2923 C   0  0  0  0  0  0  0  0  0  0  0  0
   -0.1456   -1.4276    1.1010 C   0  0  0  0  0  0  0  0  0  0  0  0
    0.3563    1.3121    2.3439 C   0  0  0  0  0  0  0  0  0  0  0  0
   -1.8266   -0.3982   -1.5139 C   0  0  0  0  0  0  0  0  0  0  0  0
   -3.2365    2.5208   -0.6806 C   0  0  0  0  0  0  0  0  0  0  0  0
    4.7145    0.4951   -0.1299 C   0  0  0  0  0  0  0  0  0  0  0  0
    2.8551   -0.8354    2.0528 C   0  0  0  0  0  0  0  0  0  0  0  0
    2.6364   -2.0085   -0.1080 C   0  0  0  0  0  0  0  0  0  0  0  0
   -4.5519   -0.9030   -0.1091 C   0  0  0  0  0  0  0  0  0  0  0  0
    5.2760    1.2645   -1.3493 C   0  0  0  0  0  0  0  0  0  0  0  0
    5.3743    1.1102    1.1172 C   0  0  0  0  0  0  0  0  0  0  0  0
    3.6333   -2.4054   -0.9090 C   0  0  0  0  0  0  0  0  0  0  0  0
   -5.1270   -1.2187   -1.3632 C   0  0  0  0  0  0  0  0  0  0  0  0
    4.8333   -1.6248   -1.2258 C   0  0  0  0  0  0  0  0  0  0  0  0
   -5.0397   -1.8326    0.7797 C   0  0  0  0  0  0  0  0  0  0  0  0
   -5.9250   -2.3189   -1.1514 C   0  0  0  0  0  0  0  0  0  0  0  0
    0.6455   -0.5327   -0.6033 H   0  0  0  0  0  0  0  0  0  0  0  0
   -1.2848    3.3536   -0.2200 H   0  0  0  0  0  0  0  0  0  0  0  0
    0.8268    3.0995    0.3581 H   0  0  0  0  0  0  0  0  0  0  0  0
   -2.0289   -2.1944    0.5039 H   0  0  0  0  0  0  0  0  0  0  0  0
   -2.0557   -1.0973    1.8983 H   0  0  0  0  0  0  0  0  0  0  0  0
    2.8561    0.4125   -1.1915 H   0  0  0  0  0  0  0  0  0  0  0  0
   -3.7793    0.5055    1.2465 H   0  0  0  0  0  0  0  0  0  0  0  0
    2.8422    2.1137    1.3425 H   0  0  0  0  0  0  0  0  0  0  0  0
    3.1252    2.6858   -0.2907 H   0  0  0  0  0  0  0  0  0  0  0  0
    0.0379    2.3333    2.5860 H   0  0  0  0  0  0  0  0  0  0  0  0
    1.3644    1.2274    2.7387 H   0  0  0  0  0  0  0  0  0  0  0  0
   -0.2813    0.6297    2.9165 H   0  0  0  0  0  0  0  0  0  0  0  0
   -2.3426    0.3152   -2.1656 H   0  0  0  0  0  0  0  0  0  0  0  0
   -2.2003   -1.3969   -1.7644 H   0  0  0  0  0  0  0  0  0  0  0  0
   -0.7862   -0.3582   -1.8303 H   0  0  0  0  0  0  0  0  0  0  0  0
    3.8151   -1.3641    2.0968 H   0  0  0  0  0  0  0  0  0  0  0  0
    2.1651   -1.4152    2.6692 H   0  0  0  0  0  0  0  0  0  0  0  0
    3.0095    0.1170    2.5602 H   0  0  0  0  0  0  0  0  0  0  0  0
    1.8724   -2.7709    0.0334 H   0  0  0  0  0  0  0  0  0  0  0  0
    1.3766    2.6723   -1.7927 H   0  0  0  0  0  0  0  0  0  0  0  0
    6.3568    1.1056   -1.4436 H   0  0  0  0  0  0  0  0  0  0  0  0
    6.4666    1.0285    1.0468 H   0  0  0  0  0  0  0  0  0  0  0  0
    5.0961    2.3412   -1.2770 H   0  0  0  0  0  0  0  0  0  0  0  0
    4.8300    0.9125   -2.2861 H   0  0  0  0  0  0  0  0  0  0  0  0
    5.1077    0.5804    2.0333 H   0  0  0  0  0  0  0  0  0  0  0  0
    5.1343    2.1703    1.2408 H   0  0  0  0  0  0  0  0  0  0  0  0
    3.5821   -3.3884   -1.3693 H   0  0  0  0  0  0  0  0  0  0  0  0
   -4.9822   -0.7124   -2.3069 H   0  0  0  0  0  0  0  0  0  0  0  0
   -4.8959   -2.0058    1.8364 H   0  0  0  0  0  0  0  0  0  0  0  0
   -6.5576   -2.9176   -1.7902 H   0  0  0  0  0  0  0  0  0  0  0  0
  1  9  1  0  0  0  0
  1 13  1  0  0  0  0
  2 18  1  0  0  0  0
  2 23  1  0  0  0  0
  3 15  1  0  0  0  0
  3 54  1  0  0  0  0
  4 20  2  0  0  0  0
  5 24  1  0  0  0  0
  5 32  1  0  0  0  0
  6 23  2  0  0  0  0
  7 33  1  0  0  0  0
  7 34  1  0  0  0  0
  8 32  2  0  0  0  0
  9 10  1  0  0  0  0
  9 11  1  0  0  0  0
  9 13  1  0  0  0  0
 10 12  1  0  0  0  0
 10 15  1  0  0  0  0
 10 21  1  0  0  0  0
 11 16  1  0  0  0  0
 11 18  1  0  0  0  0
 11 22  1  0  0  0  0
 12 14  1  0  0  0  0
 12 20  1  0  0  0  0
 12 35  1  0  0  0  0
 13 23  1  0  0  0  0
 13 36  1  0  0  0  0
 14 17  1  0  0  0  0
 14 25  1  0  0  0  0
 14 26  1  0  0  0  0
 15 19  1  0  0  0  0
 15 37  1  0  0  0  0
 16 20  1  0  0  0  0
 16 38  1  0  0  0  0
 16 39  1  0  0  0  0
 17 19  1  0  0  0  0
 17 24  1  0  0  0  0
 17 40  1  0  0  0  0
 18 27  1  0  0  0  0
 18 41  1  0  0  0  0
 19 42  1  0  0  0  0
 19 43  1  0  0  0  0
 21 44  1  0  0  0  0
 21 45  1  0  0  0  0
 21 46  1  0  0  0  0
 22 47  1  0  0  0  0
 22 48  1  0  0  0  0
 22 49  1  0  0  0  0
 24 28  1  0  0  0  0
 24 29  1  0  0  0  0
 25 50  1  0  0  0  0
 25 51  1  0  0  0  0
 25 52  1  0  0  0  0
 26 30  2  0  0  0  0
 26 53  1  0  0  0  0
 27 31  1  0  0  0  0
 27 33  2  0  0  0  0
 28 55  1  0  0  0  0
 28 57  1  0  0  0  0
 28 58  1  0  0  0  0
 29 56  1  0  0  0  0
 29 59  1  0  0  0  0
 29 60  1  0  0  0  0
 30 32  1  0  0  0  0
 30 61  1  0  0  0  0
 31 34  2  0  0  0  0
 31 62  1  0  0  0  0
 33 63  1  0  0  0  0
 34 64  1  0  0  0  0
M  END
> <PUBCHEM_COMPOUND_CID>
101366553

> <PUBCHEM_CONFORMER_RMSD>
0.8

> <PUBCHEM_CONFORMER_DIVERSEORDER>
1

> <PUBCHEM_MMFF94_PARTIAL_CHARGES>
34
1 -0.3
10 0.09
11 0.09
12 0.06
13 0.05
14 0.14
15 0.28
16 0.06
18 0.46
2 -0.43
20 0.45
23 0.72
24 0.28
26 -0.29
27 -0.18
3 -0.68
30 -0.14
31 -0.15
32 0.71
33 -0.01
34 -0.01
36 0.1
4 -0.57
5 -0.43
53 0.15
54 0.4
6 -0.57
61 0.15
62 0.15
63 0.15
64 0.15
7 -0.28
8 -0.57
9 -0.04

> <PUBCHEM_EFFECTIVE_ROTOR_COUNT>
2.6

> <PUBCHEM_PHARMACOPHORE_FEATURES>
13
1 1 acceptor
1 3 acceptor
1 3 donor
1 4 acceptor
1 6 acceptor
1 7 acceptor
1 8 acceptor
3 24 28 29 hydrophobe
5 7 27 31 33 34 rings
6 10 12 14 15 17 19 rings
6 9 10 11 12 16 20 rings
7 1 2 9 11 13 18 23 rings
7 5 14 17 24 26 30 32 rings

> <PUBCHEM_HEAVY_ATOM_COUNT>
34

> <PUBCHEM_ATOM_DEF_STEREO_COUNT>
9

> <PUBCHEM_ATOM_UDEF_STEREO_COUNT>
0

> <PUBCHEM_BOND_DEF_STEREO_COUNT>
0

> <PUBCHEM_BOND_UDEF_STEREO_COUNT>
0

> <PUBCHEM_ISOTOPIC_ATOM_COUNT>
0

> <PUBCHEM_COMPONENT_COUNT>
1

> <PUBCHEM_CACTVS_TAUTO_COUNT>
3

> <PUBCHEM_CONFORMER_ID>
060ABB1900000001

> <PUBCHEM_MMFF94_ENERGY>
146.9799

> <PUBCHEM_FEATURE_SELFOVERLAP>
66.013

> <PUBCHEM_SHAPE_FINGERPRINT>
10190108 129 18115892762402219315
10319926 262 10015578432622106989
10928967 22 17346306085986810999
11089746 13 11169904005146055291
11578080 2 17024857166400816111
11763715 3 17915768460133930920
11963148 33 18267856362481977686
12107698 1 18411700980544395630
12422481 6 17704079499480946503
12788726 201 18334568066770918523
131258 38 14898278906816028111
13224815 77 18271522001446589024
13383661 66 17345496837176839846
13690498 29 18409452453838538671
13782708 43 17418094312602981398
13944108 23 16098523889208302453
14347332 77 18341612598909755359
14787075 74 18409729599055438267
14790565 3 17546446679083006329
14950920 106 15625938789943729123
17349148 13 18259988163036370392
17492 89 18129948862769408438
17909252 39 18273497892102698002
20691752 17 17241048700062342640
20775438 99 17696447947828290199
21033650 10 18188220784038421720
21641784 216 17894627050507120325
221357 26 18411416232913128095
22182313 1 17986364824508505041
22393880 68 18263078829786661828
23559900 14 18200588082617805624
23569914 152 17693630651524794855
244849 19 17702641329233761065
2838139 119 15213287643311082231
350125 39 18408604769007324569
3862424 121 16412700808125811438
4280585 95 17620194226819467894
46194498 28 18339358677456150572
463206 1 17986388004141234735
508706 21 18113908147222626073
5104073 3 18201155455938772698
59755656 215 18262229040474077731
6669772 16 17485915643248009440
9709674 26 18409733975605955200

> <PUBCHEM_SHAPE_MULTIPOLES>
652.75
12.93
3.27
1.7
1.97
0.74
-0.19
-6.56
4.95
2.06
0.65
-0.86
-0.21
1.06

> <PUBCHEM_SHAPE_SELFOVERLAP>
1433.779

> <PUBCHEM_SHAPE_VOLUME>
343.4

> <PUBCHEM_COORDINATE_TYPE>
2
5
10

$$$$
