101371653
  -OEChem-03292013293D

 65 68  0     1  0  0  0  0  0999 V2000
    1.9604   -2.4410   -0.5810 O   0  0  0  0  0  0  0  0  0  0  0  0
   -0.7755   -3.6417    1.5531 O   0  0  0  0  0  0  0  0  0  0  0  0
   -1.7703    0.7989    1.5033 O   0  0  0  0  0  0  0  0  0  0  0  0
   -2.3423    1.0070   -2.0608 O   0  0  0  0  0  0  0  0  0  0  0  0
    1.9405    1.3828    1.8462 O   0  0  0  0  0  0  0  0  0  0  0  0
    3.3018   -0.9329   -1.6531 O   0  0  0  0  0  0  0  0  0  0  0  0
   -3.4635   -1.6511   -1.7567 O   0  0  0  0  0  0  0  0  0  0  0  0
    0.6181   -0.9823    0.7165 C   0  0  2  0  0  0  0  0  0  0  0  0
    1.1053   -2.4461    0.5786 C   0  0  1  0  0  0  0  0  0  0  0  0
   -0.7126   -0.7280    0.0442 C   0  0  0  0  0  0  0  0  0  0  0  0
    1.7188   -0.1703    0.0203 C   0  0  2  0  0  0  0  0  0  0  0  0
   -0.0239   -3.4797    0.3484 C   0  0  2  0  0  0  0  0  0  0  0  0
   -1.3762   -1.6673   -0.6351 C   0  0  0  0  0  0  0  0  0  0  0  0
   -1.4222    0.5968    0.1402 C   0  0  1  0  0  0  0  0  0  0  0  0
   -0.9791   -3.0841   -0.7870 C   0  0  0  0  0  0  0  0  0  0  0  0
   -2.6498    0.4308   -0.7831 C   0  0  2  0  0  0  0  0  0  0  0  0
    1.9675   -2.8829    1.7754 C   0  0  0  0  0  0  0  0  0  0  0  0
    2.4299   -1.1865   -0.8349 C   0  0  0  0  0  0  0  0  0  0  0  0
   -2.6137   -1.0434   -1.1215 C   0  0  0  0  0  0  0  0  0  0  0  0
    2.6775    0.5170    0.9806 C   0  0  1  0  0  0  0  0  0  0  0  0
   -3.9660    0.9410   -0.2364 C   0  0  0  0  0  0  0  0  0  0  0  0
    3.7416    1.3245    0.2617 C   0  0  0  0  0  0  0  0  0  0  0  0
   -4.1265    2.2816    0.1133 C   0  0  0  0  0  0  0  0  0  0  0  0
   -5.0273    0.0487   -0.0846 C   0  0  0  0  0  0  0  0  0  0  0  0
    3.2445    2.4025   -0.6728 C   0  0  0  0  0  0  0  0  0  0  0  0
    5.0699    1.1361    0.3993 C   0  0  0  0  0  0  0  0  0  0  0  0
   -5.3484    2.7301    0.6151 C   0  0  0  0  0  0  0  0  0  0  0  0
   -3.0048    3.2556   -0.0404 C   0  0  0  0  0  0  0  0  0  0  0  0
   -6.2491    0.4971    0.4173 C   0  0  0  0  0  0  0  0  0  0  0  0
    6.1977    1.8725   -0.2696 C   0  0  0  0  0  0  0  0  0  0  0  0
   -6.4097    1.8377    0.7671 C   0  0  0  0  0  0  0  0  0  0  0  0
    7.5710    1.2913    0.0801 C   0  0  0  0  0  0  0  0  0  0  0  0
    8.7162    1.9854   -0.6436 C   0  0  0  0  0  0  0  0  0  0  0  0
    0.4992   -0.7256    1.7756 H   0  0  0  0  0  0  0  0  0  0  0  0
    1.2659    0.5646   -0.6547 H   0  0  0  0  0  0  0  0  0  0  0  0
    0.4135   -4.4553    0.1017 H   0  0  0  0  0  0  0  0  0  0  0  0
   -0.7811    1.4197   -0.1935 H   0  0  0  0  0  0  0  0  0  0  0  0
   -1.8686   -3.7239   -0.7636 H   0  0  0  0  0  0  0  0  0  0  0  0
   -0.4917   -3.2181   -1.7592 H   0  0  0  0  0  0  0  0  0  0  0  0
    2.2605   -3.9344    1.6706 H   0  0  0  0  0  0  0  0  0  0  0  0
    1.4343   -2.7698    2.7245 H   0  0  0  0  0  0  0  0  0  0  0  0
    2.9060   -2.3261    1.8343 H   0  0  0  0  0  0  0  0  0  0  0  0
    3.1651   -0.2205    1.6249 H   0  0  0  0  0  0  0  0  0  0  0  0
   -1.4401   -4.3334    1.3940 H   0  0  0  0  0  0  0  0  0  0  0  0
   -0.9629    1.0585    1.9791 H   0  0  0  0  0  0  0  0  0  0  0  0
   -3.1667    1.0669   -2.5736 H   0  0  0  0  0  0  0  0  0  0  0  0
    2.5732    1.8005    2.4556 H   0  0  0  0  0  0  0  0  0  0  0  0
   -4.9709   -1.0125   -0.2825 H   0  0  0  0  0  0  0  0  0  0  0  0
    2.4546    2.9905   -0.1935 H   0  0  0  0  0  0  0  0  0  0  0  0
    4.0209    3.1143   -0.9672 H   0  0  0  0  0  0  0  0  0  0  0  0
    2.8400    1.9629   -1.5897 H   0  0  0  0  0  0  0  0  0  0  0  0
    5.3768    0.3488    1.0877 H   0  0  0  0  0  0  0  0  0  0  0  0
   -5.4891    3.7707    0.8951 H   0  0  0  0  0  0  0  0  0  0  0  0
   -2.2898    3.1730    0.7818 H   0  0  0  0  0  0  0  0  0  0  0  0
   -2.4896    3.1657   -0.9987 H   0  0  0  0  0  0  0  0  0  0  0  0
   -3.3869    4.2838   -0.0170 H   0  0  0  0  0  0  0  0  0  0  0  0
   -7.0727   -0.1991    0.5473 H   0  0  0  0  0  0  0  0  0  0  0  0
    6.0619    1.8312   -1.3569 H   0  0  0  0  0  0  0  0  0  0  0  0
    6.1748    2.9247    0.0378 H   0  0  0  0  0  0  0  0  0  0  0  0
   -7.3601    2.1860    1.1609 H   0  0  0  0  0  0  0  0  0  0  0  0
    7.7385    1.3656    1.1618 H   0  0  0  0  0  0  0  0  0  0  0  0
    7.5951    0.2235   -0.1715 H   0  0  0  0  0  0  0  0  0  0  0  0
    8.6049    1.8937   -1.7287 H   0  0  0  0  0  0  0  0  0  0  0  0
    8.7496    3.0496   -0.3900 H   0  0  0  0  0  0  0  0  0  0  0  0
    9.6731    1.5364   -0.3596 H   0  0  0  0  0  0  0  0  0  0  0  0
  1  9  1  0  0  0  0
  1 18  1  0  0  0  0
  2 12  1  0  0  0  0
  2 44  1  0  0  0  0
  3 14  1  0  0  0  0
  3 45  1  0  0  0  0
  4 16  1  0  0  0  0
  4 46  1  0  0  0  0
  5 20  1  0  0  0  0
  5 47  1  0  0  0  0
  6 18  2  0  0  0  0
  7 19  2  0  0  0  0
  8  9  1  0  0  0  0
  8 10  1  0  0  0  0
  8 11  1  0  0  0  0
  8 34  1  0  0  0  0
  9 12  1  0  0  0  0
  9 17  1  0  0  0  0
 10 13  2  0  0  0  0
 10 14  1  0  0  0  0
 11 18  1  0  0  0  0
 11 20  1  0  0  0  0
 11 35  1  0  0  0  0
 12 15  1  0  0  0  0
 12 36  1  0  0  0  0
 13 15  1  0  0  0  0
 13 19  1  0  0  0  0
 14 16  1  0  0  0  0
 14 37  1  0  0  0  0
 15 38  1  0  0  0  0
 15 39  1  0  0  0  0
 16 19  1  0  0  0  0
 16 21  1  0  0  0  0
 17 40  1  0  0  0  0
 17 41  1  0  0  0  0
 17 42  1  0  0  0  0
 20 22  1  0  0  0  0
 20 43  1  0  0  0  0
 21 23  1  0  0  0  0
 21 24  2  0  0  0  0
 22 25  1  0  0  0  0
 22 26  2  0  0  0  0
 23 27  2  0  0  0  0
 23 28  1  0  0  0  0
 24 29  1  0  0  0  0
 24 48  1  0  0  0  0
 25 49  1  0  0  0  0
 25 50  1  0  0  0  0
 25 51  1  0  0  0  0
 26 30  1  0  0  0  0
 26 52  1  0  0  0  0
 27 31  1  0  0  0  0
 27 53  1  0  0  0  0
 28 54  1  0  0  0  0
 28 55  1  0  0  0  0
 28 56  1  0  0  0  0
 29 31  2  0  0  0  0
 29 57  1  0  0  0  0
 30 32  1  0  0  0  0
 30 58  1  0  0  0  0
 30 59  1  0  0  0  0
 31 60  1  0  0  0  0
 32 33  1  0  0  0  0
 32 61  1  0  0  0  0
 32 62  1  0  0  0  0
 33 63  1  0  0  0  0
 33 64  1  0  0  0  0
 33 65  1  0  0  0  0
M  END
> <PUBCHEM_COMPOUND_CID>
101371653

> <PUBCHEM_CONFORMER_RMSD>
0.8

> <PUBCHEM_CONFORMER_DIVERSEORDER>
10
45
2
37
44
39
35
5
34
17
23
7
47
42
12
33
24
50
30
19
51
27
28
31
22
4
46
14
16
49
29
43
25
36
48
18
20
38
15
21
3
8
13
26
41
6
1
32
9
11
40

> <PUBCHEM_MMFF94_PARTIAL_CHARGES>
39
1 -0.43
10 -0.28
11 0.06
12 0.28
13 -0.12
14 0.42
15 0.14
16 0.48
18 0.66
19 0.49
2 -0.68
20 0.42
21 -0.14
22 -0.28
23 -0.14
24 -0.15
25 0.14
26 -0.29
27 -0.15
28 0.14
29 -0.15
3 -0.68
30 0.14
31 -0.15
4 -0.68
44 0.4
45 0.4
46 0.4
47 0.4
48 0.15
5 -0.68
52 0.15
53 0.15
57 0.15
6 -0.57
60 0.15
7 -0.57
8 0.14
9 0.28

> <PUBCHEM_EFFECTIVE_ROTOR_COUNT>
6.2

> <PUBCHEM_PHARMACOPHORE_FEATURES>
16
1 2 acceptor
1 2 donor
1 25 hydrophobe
1 3 acceptor
1 3 donor
1 33 hydrophobe
1 4 acceptor
1 4 donor
1 5 acceptor
1 5 donor
1 6 acceptor
1 7 acceptor
5 1 8 9 11 18 rings
5 10 13 14 16 19 rings
6 21 23 24 27 29 31 rings
6 8 9 10 12 13 15 rings

> <PUBCHEM_HEAVY_ATOM_COUNT>
33

> <PUBCHEM_ATOM_DEF_STEREO_COUNT>
7

> <PUBCHEM_ATOM_UDEF_STEREO_COUNT>
0

> <PUBCHEM_BOND_DEF_STEREO_COUNT>
1

> <PUBCHEM_BOND_UDEF_STEREO_COUNT>
0

> <PUBCHEM_ISOTOPIC_ATOM_COUNT>
0

> <PUBCHEM_COMPONENT_COUNT>
1

> <PUBCHEM_CACTVS_TAUTO_COUNT>
18

> <PUBCHEM_CONFORMER_ID>
060ACF050000000A

> <PUBCHEM_MMFF94_ENERGY>
81.6709

> <PUBCHEM_FEATURE_SELFOVERLAP>
81.539

> <PUBCHEM_SHAPE_FINGERPRINT>
10165383 225 18410293622624485457
10190206 1 18268980050421881199
10369192 42 18408040719051749844
10670039 82 18340479058077024524
10674148 151 16200440147563675472
10904742 90 18410012130431034329
11135609 201 18408318882682209641
12293681 160 17775287153386296784
12788726 201 17611765786891350919
13140716 1 18337381626827296187
13540713 5 18268125627029754423
13583140 156 17536580813134011911
14713325 29 18190744335112998162
14790565 3 18410858802188380641
14849402 71 18189337879563221810
14955137 171 17832138325313636578
15297060 5 18131073748530628208
15439362 3 18340209575376608166
15927050 60 18410854373903434546
16126227 98 18337675320965001272
16992610 120 18261971712742619628
18608769 82 18341898553753802411
19319366 153 18339355267547808723
19611394 137 17970360423701780969
20465049 17 18198637526993100687
21033648 144 18260260820598177663
21133410 127 18044376024237017084
21756936 100 18411697733353745918
23559900 14 17345184502574821935
25147074 1 18270379638877846903
3411729 13 18337110059928277986
350125 39 18339360738892720299
3610482 184 17970642985600908852
38570 142 18340496585975293630
4093350 32 17489306348730512958
4098825 35 18059859450173559070
444735 79 18116448097331626195
4516262 110 18334285457501004421
474 4 18334292080361653869
5104073 3 18189905202178316985
5252454 2 18340473504816120881
5265222 85 18125725828033736700
5385378 56 18261672593712910050
57527295 17 17917419956399676054
5776283 40 18272372031394406568
59755656 215 18131636673410869996
59755656 520 18408880767668312390
6669772 16 18341336621913703254
6700243 42 17335379346094598086
7288768 16 18260266360731774171
7399639 24 17896035456193191989
7808743 9 18411696620883233369

> <PUBCHEM_SHAPE_MULTIPOLES>
638.04
15.66
4.08
1.38
18.96
2.3
0.02
-17.94
0.64
-0.44
-0.67
-0.12
0.5
-1.29

> <PUBCHEM_SHAPE_SELFOVERLAP>
1381.951

> <PUBCHEM_SHAPE_VOLUME>
349.6

> <PUBCHEM_COORDINATE_TYPE>
2
5
10

$$$$
