101306935
  -OEChem-03292013293D

 41 44  0     1  0  0  0  0  0999 V2000
    0.0170   -0.8654    2.2792 O   0  0  0  0  0  0  0  0  0  0  0  0
   -1.6483    2.1617   -0.6950 O   0  0  0  0  0  0  0  0  0  0  0  0
    0.0425   -2.5782    0.6794 O   0  0  0  0  0  0  0  0  0  0  0  0
    0.9600    1.3465   -1.6600 O   0  0  0  0  0  0  0  0  0  0  0  0
    1.2194   -1.4722   -1.9600 O   0  0  0  0  0  0  0  0  0  0  0  0
   -1.9681    0.0946    2.8744 O   0  0  0  0  0  0  0  0  0  0  0  0
   -0.7716   -3.5477   -1.2285 O   0  0  0  0  0  0  0  0  0  0  0  0
   -3.2952    1.2792   -2.0243 O   0  0  0  0  0  0  0  0  0  0  0  0
    0.1611   -0.3169   -0.0434 C   0  0  1  0  0  0  0  0  0  0  0  0
   -1.1478    0.2617    0.5804 C   0  0  1  0  0  0  0  0  0  0  0  0
    1.0734    0.9298   -0.2905 C   0  0  2  0  0  0  0  0  0  0  0  0
   -1.0234    1.7763    0.5311 C   0  0  1  0  0  0  0  0  0  0  0  0
    0.4674    2.0605    0.5464 C   0  0  0  0  0  0  0  0  0  0  0  0
    0.5852   -1.2968    1.0472 C   0  0  1  0  0  0  0  0  0  0  0  0
    0.0137   -1.2552   -1.2449 C   0  0  2  0  0  0  0  0  0  0  0  0
    2.5610    0.7767    0.0197 C   0  0  0  0  0  0  0  0  0  0  0  0
   -2.4741    0.0364   -0.1129 C   0  0  0  0  0  0  0  0  0  0  0  0
   -1.1289   -0.1736    2.0280 C   0  0  0  0  0  0  0  0  0  0  0  0
   -0.3105   -2.5845   -0.6363 C   0  0  0  0  0  0  0  0  0  0  0  0
   -2.5413    1.1946   -1.0673 C   0  0  0  0  0  0  0  0  0  0  0  0
    3.1565   -0.3618   -0.8273 C   0  0  0  0  0  0  0  0  0  0  0  0
    2.7524    0.4481    1.5109 C   0  0  0  0  0  0  0  0  0  0  0  0
    3.2998    2.0865   -0.3063 C   0  0  0  0  0  0  0  0  0  0  0  0
   -1.5287    2.3051    1.3479 H   0  0  0  0  0  0  0  0  0  0  0  0
    0.6509    3.0520    0.1167 H   0  0  0  0  0  0  0  0  0  0  0  0
    0.7982    2.0840    1.5866 H   0  0  0  0  0  0  0  0  0  0  0  0
    1.6339   -1.5178    1.1776 H   0  0  0  0  0  0  0  0  0  0  0  0
   -0.7593   -0.9317   -1.9449 H   0  0  0  0  0  0  0  0  0  0  0  0
   -3.3221    0.1174    0.5758 H   0  0  0  0  0  0  0  0  0  0  0  0
   -2.5457   -0.9147   -0.6412 H   0  0  0  0  0  0  0  0  0  0  0  0
    1.1837    2.2881   -1.7384 H   0  0  0  0  0  0  0  0  0  0  0  0
    3.2508    2.3436   -1.3695 H   0  0  0  0  0  0  0  0  0  0  0  0
    2.8594   -1.3659   -0.5250 H   0  0  0  0  0  0  0  0  0  0  0  0
    2.9298    2.9385    0.2724 H   0  0  0  0  0  0  0  0  0  0  0  0
    4.3670    1.9906   -0.0684 H   0  0  0  0  0  0  0  0  0  0  0  0
    1.8875    0.5212    2.1637 H   0  0  0  0  0  0  0  0  0  0  0  0
    3.2546   -0.5122    1.6765 H   0  0  0  0  0  0  0  0  0  0  0  0
    3.4567    1.1683    1.9523 H   0  0  0  0  0  0  0  0  0  0  0  0
    3.0457   -0.1851   -1.9016 H   0  0  0  0  0  0  0  0  0  0  0  0
    4.2460   -0.3679   -0.6728 H   0  0  0  0  0  0  0  0  0  0  0  0
    1.0125   -2.0405   -2.7217 H   0  0  0  0  0  0  0  0  0  0  0  0
  1 14  1  0  0  0  0
  1 18  1  0  0  0  0
  2 12  1  0  0  0  0
  2 20  1  0  0  0  0
  3 14  1  0  0  0  0
  3 19  1  0  0  0  0
  4 11  1  0  0  0  0
  4 31  1  0  0  0  0
  5 15  1  0  0  0  0
  5 41  1  0  0  0  0
  6 18  2  0  0  0  0
  7 19  2  0  0  0  0
  8 20  2  0  0  0  0
  9 10  1  0  0  0  0
  9 11  1  0  0  0  0
  9 14  1  0  0  0  0
  9 15  1  0  0  0  0
 10 12  1  0  0  0  0
 10 17  1  0  0  0  0
 10 18  1  0  0  0  0
 11 13  1  0  0  0  0
 11 16  1  0  0  0  0
 12 13  1  0  0  0  0
 12 24  1  0  0  0  0
 13 25  1  0  0  0  0
 13 26  1  0  0  0  0
 14 27  1  0  0  0  0
 15 19  1  0  0  0  0
 15 28  1  0  0  0  0
 16 21  1  0  0  0  0
 16 22  1  0  0  0  0
 16 23  1  0  0  0  0
 17 20  1  0  0  0  0
 17 29  1  0  0  0  0
 17 30  1  0  0  0  0
 21 33  1  0  0  0  0
 21 39  1  0  0  0  0
 21 40  1  0  0  0  0
 22 36  1  0  0  0  0
 22 37  1  0  0  0  0
 22 38  1  0  0  0  0
 23 32  1  0  0  0  0
 23 34  1  0  0  0  0
 23 35  1  0  0  0  0
M  END
> <PUBCHEM_COMPOUND_CID>
101306935

> <PUBCHEM_CONFORMER_RMSD>
0.6

> <PUBCHEM_CONFORMER_DIVERSEORDER>
3
4
1
2

> <PUBCHEM_MMFF94_PARTIAL_CHARGES>
19
1 -0.43
10 0.06
11 0.28
12 0.28
14 0.56
15 0.34
17 0.06
18 0.66
19 0.66
2 -0.43
20 0.66
3 -0.43
31 0.4
4 -0.68
41 0.4
5 -0.68
6 -0.57
7 -0.57
8 -0.57

> <PUBCHEM_EFFECTIVE_ROTOR_COUNT>
2.4

> <PUBCHEM_PHARMACOPHORE_FEATURES>
12
1 4 acceptor
1 4 donor
1 5 acceptor
1 5 donor
1 6 acceptor
1 7 acceptor
1 8 acceptor
4 16 21 22 23 hydrophobe
5 1 9 10 14 18 rings
5 2 10 12 17 20 rings
5 3 9 14 15 19 rings
5 9 10 11 12 13 rings

> <PUBCHEM_HEAVY_ATOM_COUNT>
23

> <PUBCHEM_ATOM_DEF_STEREO_COUNT>
3

> <PUBCHEM_ATOM_UDEF_STEREO_COUNT>
3

> <PUBCHEM_BOND_DEF_STEREO_COUNT>
0

> <PUBCHEM_BOND_UDEF_STEREO_COUNT>
0

> <PUBCHEM_ISOTOPIC_ATOM_COUNT>
0

> <PUBCHEM_COMPONENT_COUNT>
1

> <PUBCHEM_CACTVS_TAUTO_COUNT>
4

> <PUBCHEM_CONFORMER_ID>
0609D23700000003

> <PUBCHEM_MMFF94_ENERGY>
106.1635

> <PUBCHEM_FEATURE_SELFOVERLAP>
62.552

> <PUBCHEM_SHAPE_FINGERPRINT>
10863032 1 17095515171671573193
10948715 1 17895740846710883989
11578080 2 10859276783210483856
12423570 1 18194135232903470865
12592029 89 18337947896489458123
13024252 1 16879624010668805264
13464514 151 17755016402234719597
14142880 1 17626683930697720456
144361 1 18409448055301325784
14817 1 17098090322366802874
15309172 13 18198649737642924528
15852999 172 18130496509616560838
15881359 60 18263940997110441315
16945 1 18116984499163690841
17492 54 18193260017669526517
17980427 23 17254220754568292273
18981168 100 16375262354825576981
20600515 1 16833766833949514758
20602899 9 18131068246951899838
20645476 183 17095529504299251620
20905425 154 17465639222617691356
22889148 1 18191603044782012260
23419403 2 17828234041148186274
23493267 7 17386306289319850748
23559900 14 17534927195096738230
238 59 18339359652223816292
2748010 2 18262537917400191564
298252 57 18264183912023820617
3052486 1 17692200457421994599
3060560 45 18194934432139459709
404807 14 15589820889338396088
404807 78 17390187699233399143
4175511 376 17971747770730683197
5845 1 16908369758566324142
81228 2 17980207709632282018
8509985 295 9438557024552785325

> <PUBCHEM_SHAPE_MULTIPOLES>
426.37
3.85
2.83
2.1
1.68
1.84
-0.88
-2.07
0.92
-0.65
0.99
-0.9
0.14
0.35

> <PUBCHEM_SHAPE_SELFOVERLAP>
962.822

> <PUBCHEM_SHAPE_VOLUME>
225

> <PUBCHEM_COORDINATE_TYPE>
2
5
10

$$$$
