10148
  -OEChem-03292013323D

 31 33  0     0  0  0  0  0  0999 V2000
    2.5399    2.4728    0.0005 O   0  0  0  0  0  0  0  0  0  0  0  0
    2.0576   -3.0244   -0.0008 O   0  0  0  0  0  0  0  0  0  0  0  0
   -0.0027    2.6151   -0.0013 O   0  0  0  0  0  0  0  0  0  0  0  0
   -0.4843   -2.7068    0.0001 O   0  0  0  0  0  0  0  0  0  0  0  0
   -2.5431    2.9325   -0.0001 O   0  0  0  0  0  0  0  0  0  0  0  0
   -3.0420   -2.5608    0.0005 O   0  0  0  0  0  0  0  0  0  0  0  0
    1.0887    0.5342   -0.0004 C   0  0  0  0  0  0  0  0  0  0  0  0
    0.9623   -0.8566   -0.0006 C   0  0  0  0  0  0  0  0  0  0  0  0
   -1.4469    0.7646   -0.0004 C   0  0  0  0  0  0  0  0  0  0  0  0
   -1.5733   -0.6261   -0.0002 C   0  0  0  0  0  0  0  0  0  0  0  0
   -0.1113    1.3956   -0.0006 C   0  0  0  0  0  0  0  0  0  0  0  0
   -0.3734   -1.4875   -0.0002 C   0  0  0  0  0  0  0  0  0  0  0  0
    2.3605    1.1196    0.0002 C   0  0  0  0  0  0  0  0  0  0  0  0
    2.1076   -1.6618   -0.0004 C   0  0  0  0  0  0  0  0  0  0  0  0
    3.4992    0.3134    0.0005 C   0  0  0  0  0  0  0  0  0  0  0  0
   -2.5922    1.5699    0.0000 C   0  0  0  0  0  0  0  0  0  0  0  0
   -2.8450   -1.2115    0.0002 C   0  0  0  0  0  0  0  0  0  0  0  0
    3.3730   -1.0743    0.0001 C   0  0  0  0  0  0  0  0  0  0  0  0
   -3.8576    0.9823    0.0007 C   0  0  0  0  0  0  0  0  0  0  0  0
   -3.9837   -0.4055    0.0008 C   0  0  0  0  0  0  0  0  0  0  0  0
    4.8667    0.9152    0.0012 C   0  0  0  0  0  0  0  0  0  0  0  0
    4.2630   -1.6996    0.0003 H   0  0  0  0  0  0  0  0  0  0  0  0
   -4.7575    1.5921    0.0011 H   0  0  0  0  0  0  0  0  0  0  0  0
   -4.9744   -0.8527    0.0013 H   0  0  0  0  0  0  0  0  0  0  0  0
    5.6517    0.1512    0.0013 H   0  0  0  0  0  0  0  0  0  0  0  0
    5.0110    1.5332   -0.8911 H   0  0  0  0  0  0  0  0  0  0  0  0
    5.0102    1.5328    0.8940 H   0  0  0  0  0  0  0  0  0  0  0  0
    1.6907    2.9378    0.0029 H   0  0  0  0  0  0  0  0  0  0  0  0
    2.9604   -3.3857   -0.0006 H   0  0  0  0  0  0  0  0  0  0  0  0
   -3.4465    3.2924    0.0003 H   0  0  0  0  0  0  0  0  0  0  0  0
   -2.1959   -3.0323   -0.0013 H   0  0  0  0  0  0  0  0  0  0  0  0
  1 13  1  0  0  0  0
  1 28  1  0  0  0  0
  2 14  1  0  0  0  0
  2 29  1  0  0  0  0
  3 11  2  0  0  0  0
  4 12  2  0  0  0  0
  5 16  1  0  0  0  0
  5 30  1  0  0  0  0
  6 17  1  0  0  0  0
  6 31  1  0  0  0  0
  7  8  1  0  0  0  0
  7 11  1  0  0  0  0
  7 13  2  0  0  0  0
  8 12  1  0  0  0  0
  8 14  2  0  0  0  0
  9 10  1  0  0  0  0
  9 11  1  0  0  0  0
  9 16  2  0  0  0  0
 10 12  1  0  0  0  0
 10 17  2  0  0  0  0
 13 15  1  0  0  0  0
 14 18  1  0  0  0  0
 15 18  2  0  0  0  0
 15 21  1  0  0  0  0
 16 19  1  0  0  0  0
 17 20  1  0  0  0  0
 18 22  1  0  0  0  0
 19 20  2  0  0  0  0
 19 23  1  0  0  0  0
 20 24  1  0  0  0  0
 21 25  1  0  0  0  0
 21 26  1  0  0  0  0
 21 27  1  0  0  0  0
M  END
> <PUBCHEM_COMPOUND_CID>
10148

> <PUBCHEM_CONFORMER_RMSD>
0.6

> <PUBCHEM_CONFORMER_DIVERSEORDER>
1

> <PUBCHEM_MMFF94_PARTIAL_CHARGES>
28
1 -0.53
10 0.09
11 0.4
12 0.4
13 0.08
14 0.08
15 -0.14
16 0.08
17 0.08
18 -0.15
19 -0.15
2 -0.53
20 -0.15
21 0.14
22 0.15
23 0.15
24 0.15
28 0.45
29 0.45
3 -0.57
30 0.45
31 0.45
4 -0.57
5 -0.53
6 -0.53
7 0.09
8 0.09
9 0.09

> <PUBCHEM_EFFECTIVE_ROTOR_COUNT>
0

> <PUBCHEM_PHARMACOPHORE_FEATURES>
9
1 1 donor
1 2 donor
1 3 acceptor
1 4 acceptor
1 5 donor
1 6 donor
6 7 8 13 14 15 18 rings
6 7 8 9 10 11 12 rings
6 9 10 16 17 19 20 rings

> <PUBCHEM_HEAVY_ATOM_COUNT>
21

> <PUBCHEM_ATOM_DEF_STEREO_COUNT>
0

> <PUBCHEM_ATOM_UDEF_STEREO_COUNT>
0

> <PUBCHEM_BOND_DEF_STEREO_COUNT>
0

> <PUBCHEM_BOND_UDEF_STEREO_COUNT>
0

> <PUBCHEM_ISOTOPIC_ATOM_COUNT>
0

> <PUBCHEM_COMPONENT_COUNT>
1

> <PUBCHEM_CACTVS_TAUTO_COUNT>
351

> <PUBCHEM_CONFORMER_ID>
000027A400000001

> <PUBCHEM_MMFF94_ENERGY>
70.5887

> <PUBCHEM_FEATURE_SELFOVERLAP>
45.714

> <PUBCHEM_SHAPE_FINGERPRINT>
10411042 1 17401769022179704390
10608611 8 18410854334899627181
10616163 171 18411420643543958247
10863032 1 18340205193739709386
10967382 1 18338798901177371687
11132069 177 18410570690911606721
11471102 20 18410570673984932134
11578080 2 17169536416235902750
12553582 1 18339073921166591011
13132413 78 18412263956008943492
13140716 1 18193842535319751243
13221675 6 18411136956748676422
138480 1 17690279313659732066
14178342 30 18338503171679102640
14223421 5 18410576188596346031
14790565 3 18265909114461664140
15196674 1 18410856525290620198
15442244 35 18194399983420222002
15536298 74 18342739576974695486
16945 1 18338516468444066023
17492 89 18410291380873700707
19591789 44 18050851309983278611
200 152 18131626811965102069
20510252 161 18343585131159603209
20905425 154 18341615875774552070
21267235 1 18338526329699851951
21421861 104 17969779666581919650
21501502 16 18338515231482954794
221490 88 18409456894576324370
2334 1 18410855455980946019
23366157 5 18041565715924314922
23402539 116 18342167916569044390
23463225 33 18409166584498100588
23559900 14 18198338451910388590
238 59 16816259911738485733
2748010 2 18410856529664728407
335352 9 17834395622721377063
34934 24 18410568474924902591
350125 39 18410296912743494497
4409770 3 16166926733028995838
474 4 17604155925476608332
5104073 3 18410293566815843546
58051976 378 18412542115355219724
7097593 13 17681819718524719050
7364860 26 18341050705734761502
7832392 63 18339360738892525382
8809292 202 18261958552060523195
9709674 26 18412267211599681862

> <PUBCHEM_SHAPE_MULTIPOLES>
396.95
7.26
3.14
0.59
1.6
0.34
0
-0.99
0
-0.41
0
0.01
0
0

> <PUBCHEM_SHAPE_SELFOVERLAP>
904.98

> <PUBCHEM_SHAPE_VOLUME>
204.1

> <PUBCHEM_COORDINATE_TYPE>
2
5
10

$$$$
