101430
  -OEChem-03292013323D

 42 45  0     1  0  0  0  0  0999 V2000
    3.7300    0.3872    1.0111 O   0  0  0  0  0  0  0  0  0  0  0  0
    4.1821   -2.3261   -0.6405 O   0  0  0  0  0  0  0  0  0  0  0  0
    5.6136   -0.4066   -1.9438 O   0  0  0  0  0  0  0  0  0  0  0  0
    5.8120    2.2036    1.5957 O   0  0  0  0  0  0  0  0  0  0  0  0
    1.5270   -0.0497    0.2425 N   0  0  0  0  0  0  0  0  0  0  0  0
   -0.0626    1.4595   -0.1737 N   0  0  0  0  0  0  0  0  0  0  0  0
    0.1452   -2.0077    0.6413 N   0  0  0  0  0  0  0  0  0  0  0  0
   -3.0102    0.7147   -0.1246 N   0  0  0  0  0  0  0  0  0  0  0  0
   -2.2274   -1.4801    0.4205 N   0  0  0  0  0  0  0  0  0  0  0  0
    3.5179   -1.0850   -0.8724 C   0  0  1  0  0  0  0  0  0  0  0  0
    2.8660   -0.6116    0.4280 C   0  0  1  0  0  0  0  0  0  0  0  0
    4.5110    0.0215   -1.1736 C   0  0  1  0  0  0  0  0  0  0  0  0
    4.9246    0.4713    0.2168 C   0  0  1  0  0  0  0  0  0  0  0  0
    5.4702    1.8875    0.2576 C   0  0  0  0  0  0  0  0  0  0  0  0
    0.3362   -0.7127    0.3477 C   0  0  0  0  0  0  0  0  0  0  0  0
    1.2336    1.2521   -0.0716 C   0  0  0  0  0  0  0  0  0  0  0  0
   -0.6356    0.2399    0.0859 C   0  0  0  0  0  0  0  0  0  0  0  0
   -1.9599   -0.1842    0.1296 C   0  0  0  0  0  0  0  0  0  0  0  0
   -1.1737   -2.2992    0.6549 C   0  0  0  0  0  0  0  0  0  0  0  0
   -4.4139    0.5671   -0.1479 C   0  0  0  0  0  0  0  0  0  0  0  0
   -5.1844    1.3700   -0.9881 C   0  0  0  0  0  0  0  0  0  0  0  0
   -5.0283   -0.3817    0.6684 C   0  0  0  0  0  0  0  0  0  0  0  0
   -6.5712    1.2236   -1.0121 C   0  0  0  0  0  0  0  0  0  0  0  0
   -6.4153   -0.5280    0.6443 C   0  0  0  0  0  0  0  0  0  0  0  0
   -7.1869    0.2746   -0.1960 C   0  0  0  0  0  0  0  0  0  0  0  0
    2.8155   -1.2451   -1.6967 H   0  0  0  0  0  0  0  0  0  0  0  0
    2.7689   -1.4196    1.1624 H   0  0  0  0  0  0  0  0  0  0  0  0
    3.9963    0.8319   -1.7047 H   0  0  0  0  0  0  0  0  0  0  0  0
    5.6603   -0.2142    0.6574 H   0  0  0  0  0  0  0  0  0  0  0  0
    4.7247    2.6163   -0.0768 H   0  0  0  0  0  0  0  0  0  0  0  0
    6.3666    1.9899   -0.3604 H   0  0  0  0  0  0  0  0  0  0  0  0
    3.5004   -2.9819   -0.4143 H   0  0  0  0  0  0  0  0  0  0  0  0
    6.2125    0.3515   -2.0505 H   0  0  0  0  0  0  0  0  0  0  0  0
    1.9973    2.0036   -0.2188 H   0  0  0  0  0  0  0  0  0  0  0  0
    5.0083    2.1070    2.1348 H   0  0  0  0  0  0  0  0  0  0  0  0
   -1.4250   -3.3292    0.8846 H   0  0  0  0  0  0  0  0  0  0  0  0
   -2.6933    1.6202   -0.4607 H   0  0  0  0  0  0  0  0  0  0  0  0
   -4.7168    2.1124   -1.6297 H   0  0  0  0  0  0  0  0  0  0  0  0
   -4.4661   -1.0010    1.3598 H   0  0  0  0  0  0  0  0  0  0  0  0
   -7.1721    1.8487   -1.6662 H   0  0  0  0  0  0  0  0  0  0  0  0
   -6.8957   -1.2614    1.2854 H   0  0  0  0  0  0  0  0  0  0  0  0
   -8.2669    0.1620   -0.2134 H   0  0  0  0  0  0  0  0  0  0  0  0
  1 11  1  0  0  0  0
  1 13  1  0  0  0  0
  2 10  1  0  0  0  0
  2 32  1  0  0  0  0
  3 12  1  0  0  0  0
  3 33  1  0  0  0  0
  4 14  1  0  0  0  0
  4 35  1  0  0  0  0
  5 11  1  0  0  0  0
  5 15  1  0  0  0  0
  5 16  1  0  0  0  0
  6 16  2  0  0  0  0
  6 17  1  0  0  0  0
  7 15  2  0  0  0  0
  7 19  1  0  0  0  0
  8 18  1  0  0  0  0
  8 20  1  0  0  0  0
  8 37  1  0  0  0  0
  9 18  1  0  0  0  0
  9 19  2  0  0  0  0
 10 11  1  0  0  0  0
 10 12  1  0  0  0  0
 10 26  1  0  0  0  0
 11 27  1  0  0  0  0
 12 13  1  0  0  0  0
 12 28  1  0  0  0  0
 13 14  1  0  0  0  0
 13 29  1  0  0  0  0
 14 30  1  0  0  0  0
 14 31  1  0  0  0  0
 15 17  1  0  0  0  0
 16 34  1  0  0  0  0
 17 18  2  0  0  0  0
 19 36  1  0  0  0  0
 20 21  2  0  0  0  0
 20 22  1  0  0  0  0
 21 23  1  0  0  0  0
 21 38  1  0  0  0  0
 22 24  2  0  0  0  0
 22 39  1  0  0  0  0
 23 25  2  0  0  0  0
 23 40  1  0  0  0  0
 24 25  1  0  0  0  0
 24 41  1  0  0  0  0
 25 42  1  0  0  0  0
M  END
> <PUBCHEM_COMPOUND_CID>
101430

> <PUBCHEM_CONFORMER_RMSD>
0.8

> <PUBCHEM_CONFORMER_DIVERSEORDER>
1
36
41
14
27
19
16
28
30
6
8
11
37
23
7
45
3
32
4
15
26
34
21
25
39
43
13
35
20
17
42
10
29
5
24
40
12
18
38
22
9
31
33
44
2

> <PUBCHEM_MMFF94_PARTIAL_CHARGES>
36
1 -0.56
10 0.28
11 0.54
12 0.28
13 0.28
14 0.28
15 0.11
16 0.04
17 0.23
18 0.41
19 0.47
2 -0.68
20 0.1
21 -0.15
22 -0.15
23 -0.15
24 -0.15
25 -0.15
3 -0.68
32 0.4
33 0.4
34 0.15
35 0.4
36 0.15
37 0.4
38 0.15
39 0.15
4 -0.68
40 0.15
41 0.15
42 0.15
5 0.05
6 -0.57
7 -0.57
8 -0.6
9 -0.62

> <PUBCHEM_EFFECTIVE_ROTOR_COUNT>
5

> <PUBCHEM_PHARMACOPHORE_FEATURES>
16
1 1 acceptor
1 2 acceptor
1 2 donor
1 3 acceptor
1 3 donor
1 4 acceptor
1 4 donor
1 8 cation
1 8 donor
3 5 6 16 cation
3 5 7 15 cation
3 7 9 19 cation
5 1 10 11 12 13 rings
5 5 6 15 16 17 rings
6 20 21 22 23 24 25 rings
6 7 9 15 17 18 19 rings

> <PUBCHEM_HEAVY_ATOM_COUNT>
25

> <PUBCHEM_ATOM_DEF_STEREO_COUNT>
4

> <PUBCHEM_ATOM_UDEF_STEREO_COUNT>
0

> <PUBCHEM_BOND_DEF_STEREO_COUNT>
0

> <PUBCHEM_BOND_UDEF_STEREO_COUNT>
0

> <PUBCHEM_ISOTOPIC_ATOM_COUNT>
0

> <PUBCHEM_COMPONENT_COUNT>
1

> <PUBCHEM_CACTVS_TAUTO_COUNT>
3

> <PUBCHEM_CONFORMER_ID>
00018C3600000001

> <PUBCHEM_MMFF94_ENERGY>
70.795

> <PUBCHEM_FEATURE_SELFOVERLAP>
81.818

> <PUBCHEM_SHAPE_FINGERPRINT>
10 15 17967811695018017560
10638233 991 16917067793401467441
11796584 16 15410607095327324263
12166972 35 13758074120955400707
12236239 1 16805325495858556823
12403259 415 18408319991337802769
12516196 113 18413107264812301493
12730499 353 18342461439319676450
12916748 109 18408886222113332409
13533116 47 17346883321201541110
14170010 4 18411420630875554997
14461889 52 18262518207663415106
15183329 4 17346317072998060503
15348495 7 9078815386734774477
17349148 13 13542467578782034739
173720 79 17240477009575946528
17980427 23 17824536603446988884
18222031 100 13039189221080773786
20281389 69 18040712559014167513
20645477 70 17561089073235036702
21150785 3 17274816991374167685
21279426 13 18265332807407118829
21285901 2 18261960626387153494
21521721 280 18273217508395502491
21792934 111 18262223439768230184
220451 1 15985103020526056253
2215653 11 18272656726957531886
23081809 10 14706931743957409665
23536379 177 16200434650421922907
23559900 14 18130504240283666640
23569914 152 16832051037965492493
23569943 247 17772204002550386823
24771293 8 18336539533806190028
2916195 48 18409162229681058313
293599 30 18260830397364382731
29717793 49 16702029655974345436
3004659 81 18041563534049299546
335352 9 18408042905949355742
3472631 163 17895205445310332292
34797466 226 17632861936057253332
34934 24 18409724097492696562
4340502 62 18261106374909607146
465052 167 12247674976462629668
495365 180 17846208969599262610
5104073 3 17968938579178941417
59682541 52 17560519499787936783
59755656 215 18336265661406363647
70251023 43 16916238654908326758

> <PUBCHEM_SHAPE_MULTIPOLES>
466.11
17.83
1.97
1.11
12.04
0.45
-0.19
-6.42
-2.01
-1.3
0.23
-1.29
-0.13
2.25

> <PUBCHEM_SHAPE_SELFOVERLAP>
1021.462

> <PUBCHEM_SHAPE_VOLUME>
247.1

> <PUBCHEM_COORDINATE_TYPE>
2
5
10

$$$$
