101496083
  -OEChem-03292013293D

 65 68  0     1  0  0  0  0  0999 V2000
   -2.0625   -2.3007    0.3714 O   0  0  0  0  0  0  0  0  0  0  0  0
   -3.6076   -0.4563    1.3018 O   0  0  0  0  0  0  0  0  0  0  0  0
   -2.2384    3.4523    1.4698 O   0  0  0  0  0  0  0  0  0  0  0  0
    3.9181   -0.0523   -0.8716 O   0  0  0  0  0  0  0  0  0  0  0  0
   -2.4546   -0.4250   -2.4338 O   0  0  0  0  0  0  0  0  0  0  0  0
   -0.9666   -3.9421   -0.8293 O   0  0  0  0  0  0  0  0  0  0  0  0
    6.0835    0.7197   -0.6446 O   0  0  0  0  0  0  0  0  0  0  0  0
    0.7415    1.0116    0.5617 C   0  0  1  0  0  0  0  0  0  0  0  0
   -0.5404    1.1635   -0.3781 C   0  0  1  0  0  0  0  0  0  0  0  0
   -1.6656    0.0872   -0.1518 C   0  0  1  0  0  0  0  0  0  0  0  0
    1.2182   -0.4882    0.4772 C   0  0  1  0  0  0  0  0  0  0  0  0
   -1.0948   -1.3403   -0.0393 C   0  0  1  0  0  0  0  0  0  0  0  0
   -2.6659    0.5495    0.9388 C   0  0  1  0  0  0  0  0  0  0  0  0
    2.6325   -0.8222    1.0850 C   0  0  0  0  0  0  0  0  0  0  0  0
    0.0935   -1.4440    0.9132 C   0  0  0  0  0  0  0  0  0  0  0  0
   -1.1079    2.6194   -0.5033 C   0  0  0  0  0  0  0  0  0  0  0  0
   -3.4027    1.7162    0.2647 C   0  0  1  0  0  0  0  0  0  0  0  0
    1.8915    1.9120    0.0168 C   0  0  0  0  0  0  0  0  0  0  0  0
   -2.4653    2.9229    0.1645 C   0  0  1  0  0  0  0  0  0  0  0  0
   -2.5930    0.1695   -1.3767 C   0  0  0  0  0  0  0  0  0  0  0  0
    3.6841    0.1798    0.5217 C   0  0  2  0  0  0  0  0  0  0  0  0
    0.4235    1.4747    1.9994 C   0  0  0  0  0  0  0  0  0  0  0  0
    3.2585    1.6397    0.6531 C   0  0  0  0  0  0  0  0  0  0  0  0
   -3.6844    1.1467   -1.0977 C   0  0  0  0  0  0  0  0  0  0  0  0
    2.6715   -0.8133    2.6266 C   0  0  0  0  0  0  0  0  0  0  0  0
    3.0506   -2.2598    0.6630 C   0  0  0  0  0  0  0  0  0  0  0  0
   -4.7117    1.3785   -1.9147 C   0  0  0  0  0  0  0  0  0  0  0  0
   -1.8757   -3.5698   -0.0999 C   0  0  0  0  0  0  0  0  0  0  0  0
    5.1671    0.2650   -1.3159 C   0  0  0  0  0  0  0  0  0  0  0  0
   -2.9630   -4.4662    0.4103 C   0  0  0  0  0  0  0  0  0  0  0  0
    5.2661   -0.0279   -2.7823 C   0  0  0  0  0  0  0  0  0  0  0  0
   -0.1455    0.9514   -1.3866 H   0  0  0  0  0  0  0  0  0  0  0  0
    1.3510   -0.6783   -0.6012 H   0  0  0  0  0  0  0  0  0  0  0  0
   -0.7324   -1.6118   -1.0414 H   0  0  0  0  0  0  0  0  0  0  0  0
   -2.1746    0.8557    1.8618 H   0  0  0  0  0  0  0  0  0  0  0  0
    0.4443   -2.4799    0.9127 H   0  0  0  0  0  0  0  0  0  0  0  0
   -0.2296   -1.2627    1.9433 H   0  0  0  0  0  0  0  0  0  0  0  0
   -0.3707    3.3654   -0.1958 H   0  0  0  0  0  0  0  0  0  0  0  0
   -1.2514    2.7921   -1.5802 H   0  0  0  0  0  0  0  0  0  0  0  0
   -4.3239    1.9634    0.8041 H   0  0  0  0  0  0  0  0  0  0  0  0
    1.6622    2.9718    0.1738 H   0  0  0  0  0  0  0  0  0  0  0  0
    1.9798    1.7771   -1.0691 H   0  0  0  0  0  0  0  0  0  0  0  0
   -2.9626    3.7208   -0.4016 H   0  0  0  0  0  0  0  0  0  0  0  0
    4.6182    0.0303    1.0804 H   0  0  0  0  0  0  0  0  0  0  0  0
    1.3156    1.6306    2.6044 H   0  0  0  0  0  0  0  0  0  0  0  0
   -0.0752    2.4452    2.0030 H   0  0  0  0  0  0  0  0  0  0  0  0
   -0.2040    0.7728    2.5488 H   0  0  0  0  0  0  0  0  0  0  0  0
    3.9891    2.2931    0.1604 H   0  0  0  0  0  0  0  0  0  0  0  0
    3.2556    1.9393    1.7055 H   0  0  0  0  0  0  0  0  0  0  0  0
    1.8581   -1.4061    3.0564 H   0  0  0  0  0  0  0  0  0  0  0  0
    4.1115   -2.4350    0.8784 H   0  0  0  0  0  0  0  0  0  0  0  0
    2.9013   -2.4269   -0.4093 H   0  0  0  0  0  0  0  0  0  0  0  0
    2.4887   -3.0282    1.2038 H   0  0  0  0  0  0  0  0  0  0  0  0
    2.6278    0.1855    3.0574 H   0  0  0  0  0  0  0  0  0  0  0  0
    3.6104   -1.2501    2.9896 H   0  0  0  0  0  0  0  0  0  0  0  0
   -4.2208   -0.0642    1.9466 H   0  0  0  0  0  0  0  0  0  0  0  0
   -1.7137    4.2651    1.3714 H   0  0  0  0  0  0  0  0  0  0  0  0
   -5.4871    2.0856   -1.6401 H   0  0  0  0  0  0  0  0  0  0  0  0
   -4.8049    0.8745   -2.8704 H   0  0  0  0  0  0  0  0  0  0  0  0
   -2.9332   -4.4994    1.5022 H   0  0  0  0  0  0  0  0  0  0  0  0
   -2.8091   -5.4785    0.0259 H   0  0  0  0  0  0  0  0  0  0  0  0
   -3.9340   -4.1051    0.0621 H   0  0  0  0  0  0  0  0  0  0  0  0
    5.0935   -1.0924   -2.9600 H   0  0  0  0  0  0  0  0  0  0  0  0
    6.2693    0.2264   -3.1362 H   0  0  0  0  0  0  0  0  0  0  0  0
    4.5395    0.5771   -3.3306 H   0  0  0  0  0  0  0  0  0  0  0  0
  1 12  1  0  0  0  0
  1 28  1  0  0  0  0
  2 13  1  0  0  0  0
  2 56  1  0  0  0  0
  3 19  1  0  0  0  0
  3 57  1  0  0  0  0
  4 21  1  0  0  0  0
  4 29  1  0  0  0  0
  5 20  2  0  0  0  0
  6 28  2  0  0  0  0
  7 29  2  0  0  0  0
  8  9  1  0  0  0  0
  8 11  1  0  0  0  0
  8 18  1  0  0  0  0
  8 22  1  0  0  0  0
  9 10  1  0  0  0  0
  9 16  1  0  0  0  0
  9 32  1  0  0  0  0
 10 12  1  0  0  0  0
 10 13  1  0  0  0  0
 10 20  1  0  0  0  0
 11 14  1  0  0  0  0
 11 15  1  0  0  0  0
 11 33  1  0  0  0  0
 12 15  1  0  0  0  0
 12 34  1  0  0  0  0
 13 17  1  0  0  0  0
 13 35  1  0  0  0  0
 14 21  1  0  0  0  0
 14 25  1  0  0  0  0
 14 26  1  0  0  0  0
 15 36  1  0  0  0  0
 15 37  1  0  0  0  0
 16 19  1  0  0  0  0
 16 38  1  0  0  0  0
 16 39  1  0  0  0  0
 17 19  1  0  0  0  0
 17 24  1  0  0  0  0
 17 40  1  0  0  0  0
 18 23  1  0  0  0  0
 18 41  1  0  0  0  0
 18 42  1  0  0  0  0
 19 43  1  0  0  0  0
 20 24  1  0  0  0  0
 21 23  1  0  0  0  0
 21 44  1  0  0  0  0
 22 45  1  0  0  0  0
 22 46  1  0  0  0  0
 22 47  1  0  0  0  0
 23 48  1  0  0  0  0
 23 49  1  0  0  0  0
 24 27  2  0  0  0  0
 25 50  1  0  0  0  0
 25 54  1  0  0  0  0
 25 55  1  0  0  0  0
 26 51  1  0  0  0  0
 26 52  1  0  0  0  0
 26 53  1  0  0  0  0
 27 58  1  0  0  0  0
 27 59  1  0  0  0  0
 28 30  1  0  0  0  0
 29 31  1  0  0  0  0
 30 60  1  0  0  0  0
 30 61  1  0  0  0  0
 30 62  1  0  0  0  0
 31 63  1  0  0  0  0
 31 64  1  0  0  0  0
 31 65  1  0  0  0  0
M  END
> <PUBCHEM_COMPOUND_CID>
101496083

> <PUBCHEM_CONFORMER_RMSD>
0.8

> <PUBCHEM_CONFORMER_DIVERSEORDER>
1
2
3

> <PUBCHEM_MMFF94_PARTIAL_CHARGES>
24
1 -0.43
10 0.06
12 0.28
13 0.28
17 0.14
19 0.28
2 -0.68
20 0.49
21 0.28
24 -0.12
27 -0.3
28 0.66
29 0.66
3 -0.68
30 0.06
31 0.06
4 -0.43
5 -0.57
56 0.4
57 0.4
58 0.15
59 0.15
6 -0.57
7 -0.57

> <PUBCHEM_EFFECTIVE_ROTOR_COUNT>
5.8

> <PUBCHEM_PHARMACOPHORE_FEATURES>
11
1 2 acceptor
1 2 donor
1 3 acceptor
1 3 donor
1 5 acceptor
1 6 acceptor
1 7 acceptor
3 14 25 26 hydrophobe
6 8 11 14 18 21 23 rings
6 8 9 10 11 12 15 rings
8 9 10 13 16 17 19 20 24 rings

> <PUBCHEM_HEAVY_ATOM_COUNT>
31

> <PUBCHEM_ATOM_DEF_STEREO_COUNT>
9

> <PUBCHEM_ATOM_UDEF_STEREO_COUNT>
0

> <PUBCHEM_BOND_DEF_STEREO_COUNT>
0

> <PUBCHEM_BOND_UDEF_STEREO_COUNT>
0

> <PUBCHEM_ISOTOPIC_ATOM_COUNT>
0

> <PUBCHEM_COMPONENT_COUNT>
1

> <PUBCHEM_CACTVS_TAUTO_COUNT>
4

> <PUBCHEM_CONFORMER_ID>
060CB51300000001

> <PUBCHEM_MMFF94_ENERGY>
119.6579

> <PUBCHEM_FEATURE_SELFOVERLAP>
55.849

> <PUBCHEM_SHAPE_FINGERPRINT>
10369192 42 14636027550955965758
107951 10 18056216694930395981
12156800 1 16668590229907786595
12173636 292 18338228254853662989
12553582 1 18413100667320347080
12788726 201 18129938975221839128
13140716 1 18194665171743543427
13224815 77 17676488311358818304
13583140 156 16154551943968469784
13690498 29 18195543699305336430
13911987 19 18334848382417884133
14251757 5 18341339954412211414
14790565 3 18194692453650815248
14955137 171 17687204379580796987
16752209 62 18199175205227089865
16945 1 18339067242239108560
19319366 153 17749105548225330722
19591789 44 18194677064719235531
20739085 24 17399504637710448266
20775438 99 17336416138383372527
21033650 10 17702946924925881032
22182313 1 18054495078928264722
22393880 68 18335979882930165236
22907989 373 18337105778020321351
23366157 5 17543909006292850839
23557571 272 18196081373175240704
23559900 14 18271236227324413184
2818148 4 17906472256713532593
2838139 119 16516262859232021852
350125 39 18335422408849387715
352729 6 18339068337867524307
4058900 60 18044653093151306813
469060 322 16733275650200067873
70251023 43 17272275031991094519
7237137 82 18188497994144191222
9709674 26 18201148970760097260

> <PUBCHEM_SHAPE_MULTIPOLES>
596.88
9.26
4.05
2
9.85
4.21
0.5
-2.11
4.9
-4.65
-0.5
1.19
-0.28
-0.32

> <PUBCHEM_SHAPE_SELFOVERLAP>
1275.361

> <PUBCHEM_SHAPE_VOLUME>
322

> <PUBCHEM_COORDINATE_TYPE>
2
5
10

$$$$
