101485571
  -OEChem-03292013293D

 61 64  0     1  0  0  0  0  0999 V2000
   -3.3796    1.8549    0.3956 O   0  0  0  0  0  0  0  0  0  0  0  0
    1.1779   -1.4028   -2.0060 O   0  0  0  0  0  0  0  0  0  0  0  0
   -2.5931    3.2281   -1.3790 O   0  0  0  0  0  0  0  0  0  0  0  0
    2.4894   -3.0609   -0.3247 O   0  0  0  0  0  0  0  0  0  0  0  0
    4.1286    1.6111    1.8452 O   0  0  0  0  0  0  0  0  0  0  0  0
    5.1671    1.3330   -0.2051 O   0  0  0  0  0  0  0  0  0  0  0  0
   -6.0735   -1.8000    0.5143 O   0  0  0  0  0  0  0  0  0  0  0  0
    0.9072   -4.3121    0.8012 O   0  0  0  0  0  0  0  0  0  0  0  0
   -0.8316    0.7801   -0.6724 C   0  0  2  0  0  0  0  0  0  0  0  0
    0.5528    0.1668   -0.2191 C   0  0  2  0  0  0  0  0  0  0  0  0
    1.8207    1.1036   -0.4123 C   0  0  1  0  0  0  0  0  0  0  0  0
   -0.9879    2.1232    0.1095 C   0  0  1  0  0  0  0  0  0  0  0  0
    1.5091    2.4641    0.2754 C   0  0  0  0  0  0  0  0  0  0  0  0
    0.1719    3.0886   -0.1476 C   0  0  0  0  0  0  0  0  0  0  0  0
   -2.0148   -0.1182   -0.1983 C   0  0  0  0  0  0  0  0  0  0  0  0
    0.8354   -1.2991   -0.6316 C   0  0  2  0  0  0  0  0  0  0  0  0
   -2.3718    2.7649   -0.0549 C   0  0  2  0  0  0  0  0  0  0  0  0
   -0.9537    0.9353   -2.2046 C   0  0  0  0  0  0  0  0  0  0  0  0
    3.0285    0.4090    0.2309 C   0  0  0  0  0  0  0  0  0  0  0  0
   -3.3845    0.5912   -0.2739 C   0  0  1  0  0  0  0  0  0  0  0  0
    2.2535    1.3864   -1.8698 C   0  0  0  0  0  0  0  0  0  0  0  0
    1.9665   -1.8666    0.2469 C   0  0  2  0  0  0  0  0  0  0  0  0
    3.0902   -0.9052    0.5068 C   0  0  0  0  0  0  0  0  0  0  0  0
   -4.4411   -0.2679    0.3145 C   0  0  0  0  0  0  0  0  0  0  0  0
    4.2432    1.1661    0.5703 C   0  0  0  0  0  0  0  0  0  0  0  0
   -4.8631   -0.2960    1.6652 C   0  0  0  0  0  0  0  0  0  0  0  0
   -5.2077   -1.2007   -0.3447 C   0  0  0  0  0  0  0  0  0  0  0  0
    1.8611   -4.2183    0.0405 C   0  0  0  0  0  0  0  0  0  0  0  0
   -5.8574   -1.2439    1.7352 C   0  0  0  0  0  0  0  0  0  0  0  0
    5.2418    2.3717    2.3261 C   0  0  0  0  0  0  0  0  0  0  0  0
    2.5151   -5.3862   -0.6334 C   0  0  0  0  0  0  0  0  0  0  0  0
    0.4360    0.0941    0.8780 H   0  0  0  0  0  0  0  0  0  0  0  0
   -0.9340    1.8636    1.1799 H   0  0  0  0  0  0  0  0  0  0  0  0
    2.3093    3.1894    0.0788 H   0  0  0  0  0  0  0  0  0  0  0  0
    1.4881    2.3249    1.3653 H   0  0  0  0  0  0  0  0  0  0  0  0
    0.0213    4.0032    0.4395 H   0  0  0  0  0  0  0  0  0  0  0  0
    0.2087    3.4042   -1.1946 H   0  0  0  0  0  0  0  0  0  0  0  0
   -1.8308   -0.4160    0.8438 H   0  0  0  0  0  0  0  0  0  0  0  0
   -2.0544   -1.0444   -0.7853 H   0  0  0  0  0  0  0  0  0  0  0  0
   -0.0508   -1.9243   -0.4873 H   0  0  0  0  0  0  0  0  0  0  0  0
   -2.4293    3.6388    0.6045 H   0  0  0  0  0  0  0  0  0  0  0  0
   -0.4602    1.8280   -2.5855 H   0  0  0  0  0  0  0  0  0  0  0  0
   -1.9901    1.0258   -2.5395 H   0  0  0  0  0  0  0  0  0  0  0  0
   -0.5566    0.0694   -2.7376 H   0  0  0  0  0  0  0  0  0  0  0  0
   -3.6610    0.7776   -1.3179 H   0  0  0  0  0  0  0  0  0  0  0  0
    1.5005    1.9072   -2.4552 H   0  0  0  0  0  0  0  0  0  0  0  0
    2.5377    0.4817   -2.4134 H   0  0  0  0  0  0  0  0  0  0  0  0
    3.1338    2.0420   -1.8940 H   0  0  0  0  0  0  0  0  0  0  0  0
    1.5547   -2.0773    1.2445 H   0  0  0  0  0  0  0  0  0  0  0  0
    3.9812   -1.3214    0.9734 H   0  0  0  0  0  0  0  0  0  0  0  0
    1.3851   -2.3351   -2.1882 H   0  0  0  0  0  0  0  0  0  0  0  0
   -3.2235    3.9661   -1.3252 H   0  0  0  0  0  0  0  0  0  0  0  0
   -4.4916    0.2953    2.4900 H   0  0  0  0  0  0  0  0  0  0  0  0
   -5.2575   -1.5405   -1.3691 H   0  0  0  0  0  0  0  0  0  0  0  0
   -6.4762   -1.6204    2.5364 H   0  0  0  0  0  0  0  0  0  0  0  0
    5.0305    2.6687    3.3567 H   0  0  0  0  0  0  0  0  0  0  0  0
    5.3736    3.2735    1.7205 H   0  0  0  0  0  0  0  0  0  0  0  0
    6.1504    1.7620    2.3151 H   0  0  0  0  0  0  0  0  0  0  0  0
    2.4385   -5.2778   -1.7182 H   0  0  0  0  0  0  0  0  0  0  0  0
    2.0051   -6.3077   -0.3384 H   0  0  0  0  0  0  0  0  0  0  0  0
    3.5616   -5.4530   -0.3256 H   0  0  0  0  0  0  0  0  0  0  0  0
  1 17  1  0  0  0  0
  1 20  1  0  0  0  0
  2 16  1  0  0  0  0
  2 51  1  0  0  0  0
  3 17  1  0  0  0  0
  3 52  1  0  0  0  0
  4 22  1  0  0  0  0
  4 28  1  0  0  0  0
  5 25  1  0  0  0  0
  5 30  1  0  0  0  0
  6 25  2  0  0  0  0
  7 27  1  0  0  0  0
  7 29  1  0  0  0  0
  8 28  2  0  0  0  0
  9 10  1  0  0  0  0
  9 12  1  0  0  0  0
  9 15  1  0  0  0  0
  9 18  1  0  0  0  0
 10 11  1  0  0  0  0
 10 16  1  0  0  0  0
 10 32  1  0  0  0  0
 11 13  1  0  0  0  0
 11 19  1  0  0  0  0
 11 21  1  0  0  0  0
 12 14  1  0  0  0  0
 12 17  1  0  0  0  0
 12 33  1  0  0  0  0
 13 14  1  0  0  0  0
 13 34  1  0  0  0  0
 13 35  1  0  0  0  0
 14 36  1  0  0  0  0
 14 37  1  0  0  0  0
 15 20  1  0  0  0  0
 15 38  1  0  0  0  0
 15 39  1  0  0  0  0
 16 22  1  0  0  0  0
 16 40  1  0  0  0  0
 17 41  1  0  0  0  0
 18 42  1  0  0  0  0
 18 43  1  0  0  0  0
 18 44  1  0  0  0  0
 19 23  2  0  0  0  0
 19 25  1  0  0  0  0
 20 24  1  0  0  0  0
 20 45  1  0  0  0  0
 21 46  1  0  0  0  0
 21 47  1  0  0  0  0
 21 48  1  0  0  0  0
 22 23  1  0  0  0  0
 22 49  1  0  0  0  0
 23 50  1  0  0  0  0
 24 26  1  0  0  0  0
 24 27  2  0  0  0  0
 26 29  2  0  0  0  0
 26 53  1  0  0  0  0
 27 54  1  0  0  0  0
 28 31  1  0  0  0  0
 29 55  1  0  0  0  0
 30 56  1  0  0  0  0
 30 57  1  0  0  0  0
 30 58  1  0  0  0  0
 31 59  1  0  0  0  0
 31 60  1  0  0  0  0
 31 61  1  0  0  0  0
M  END
> <PUBCHEM_COMPOUND_CID>
101485571

> <PUBCHEM_CONFORMER_RMSD>
0.8

> <PUBCHEM_CONFORMER_DIVERSEORDER>
1
15
10
5
8
6
11
14
3
13
12
4
7
9
2

> <PUBCHEM_MMFF94_PARTIAL_CHARGES>
29
1 -0.56
11 0.14
16 0.28
17 0.56
19 -0.12
2 -0.68
20 0.46
22 0.42
23 -0.29
24 -0.18
25 0.71
26 -0.15
27 -0.01
28 0.66
29 -0.01
3 -0.68
30 0.28
31 0.06
4 -0.43
5 -0.43
50 0.15
51 0.4
52 0.4
53 0.15
54 0.15
55 0.15
6 -0.57
7 -0.28
8 -0.57

> <PUBCHEM_EFFECTIVE_ROTOR_COUNT>
6.6

> <PUBCHEM_PHARMACOPHORE_FEATURES>
12
1 1 acceptor
1 2 acceptor
1 2 donor
1 3 acceptor
1 3 donor
1 6 acceptor
1 7 acceptor
1 8 acceptor
5 7 24 26 27 29 rings
6 1 9 12 15 17 20 rings
6 10 11 16 19 22 23 rings
6 9 10 11 12 13 14 rings

> <PUBCHEM_HEAVY_ATOM_COUNT>
31

> <PUBCHEM_ATOM_DEF_STEREO_COUNT>
7

> <PUBCHEM_ATOM_UDEF_STEREO_COUNT>
1

> <PUBCHEM_BOND_DEF_STEREO_COUNT>
0

> <PUBCHEM_BOND_UDEF_STEREO_COUNT>
0

> <PUBCHEM_ISOTOPIC_ATOM_COUNT>
0

> <PUBCHEM_COMPONENT_COUNT>
1

> <PUBCHEM_CACTVS_TAUTO_COUNT>
2

> <PUBCHEM_CONFORMER_ID>
060C8C0300000001

> <PUBCHEM_MMFF94_ENERGY>
94.9785

> <PUBCHEM_FEATURE_SELFOVERLAP>
60.968

> <PUBCHEM_SHAPE_FINGERPRINT>
10074138 170 17835772551209724890
10190108 129 18339099123871062770
1100329 8 18051129490772918292
11070050 100 17988629840121066442
11421498 54 17561096794842482195
11445158 3 17823129206471700420
114674 6 18187937148757257627
11578080 2 17172927224761088124
11796584 16 17313099791967898369
11963148 33 18261671596590440491
12107183 9 17838071308116953153
12202916 173 18042112327800927219
12293681 25 17897474785275147651
12553582 1 18339087094100352517
12596602 18 17346324838319913987
12839892 36 18336817680087527704
12892183 10 18342738490290369601
12969540 37 18119250554295799358
12977781 61 16373782484872978115
13140716 1 18053384585206451017
13540713 4 18264764363916453253
13544653 18 18333737927250237181
13583140 156 18200300027255533117
13692114 37 18051690246352324043
14020679 6 17486757847716700240
14223421 5 18265330612336107956
14790565 3 18193843875450365380
14863182 85 18335991938650274702
16728300 4 17607209187836598810
17349148 13 17603874433272691817
17492 89 18265336110242770123
17909252 39 18267318542349952682
18681886 176 18187373177192320580
1979834 28 18335993050909849323
20028762 73 18126566949496182559
20286276 3 18121505656775298101
20511986 3 17988638619445473771
20681677 274 18122343471571517323
20764821 26 17902807588996073067
20775438 99 17539926686851231405
20775530 9 17899145918748944075
21703447 108 18265041441068374235
221490 88 18193842548199618366
22224240 67 18199463436207995003
22956985 138 18116710721386086050
23559900 14 18117843196454549637
3117164 225 17838629864013200233
3737641 26 18339934714159260587
392239 28 18128241471086752976
46194498 28 8790298072176316857
465052 167 17458341996014657920
469060 322 18194375991843709229
5104073 3 18340201886757771841
58260988 647 16700364991407157446
6442390 28 18341046410988706426
6691757 9 17909792700973897216
6703917 75 18268444576181353700
9709674 26 18049997801413645629

> <PUBCHEM_SHAPE_MULTIPOLES>
591.01
10.85
5.21
1.63
10.56
7.36
0.06
0.49
6.31
-4.6
-0.22
-0.46
-0.61
2.35

> <PUBCHEM_SHAPE_SELFOVERLAP>
1264.682

> <PUBCHEM_SHAPE_VOLUME>
322.1

> <PUBCHEM_COORDINATE_TYPE>
2
5
10

$$$$
