101403637
  -OEChem-03292013293D

 53 55  0     1  0  0  0  0  0999 V2000
   -1.5963   -0.2653   -0.3381 O   0  0  0  0  0  0  0  0  0  0  0  0
   -0.4758   -0.9363    1.5954 O   0  0  0  0  0  0  0  0  0  0  0  0
   -5.0360   -2.1780    0.8356 O   0  0  0  0  0  0  0  0  0  0  0  0
   -4.6992   -1.3908   -1.9253 O   0  0  0  0  0  0  0  0  0  0  0  0
   -2.4432   -2.9257    2.0187 O   0  0  0  0  0  0  0  0  0  0  0  0
   -1.2142    0.8328   -2.8288 O   0  0  0  0  0  0  0  0  0  0  0  0
    3.6503   -1.9246   -0.6074 O   0  0  0  0  0  0  0  0  0  0  0  0
    5.6309   -2.3898   -1.6597 O   0  0  0  0  0  0  0  0  0  0  0  0
   -1.6916    3.7953   -1.5780 O   0  0  0  0  0  0  0  0  0  0  0  0
   -3.7661   -2.0715    0.1901 C   0  0  1  0  0  0  0  0  0  0  0  0
   -3.8595   -0.9614   -0.8567 C   0  0  1  0  0  0  0  0  0  0  0  0
   -2.6904   -1.7612    1.2313 C   0  0  2  0  0  0  0  0  0  0  0  0
   -2.4740   -0.6176   -1.4089 C   0  0  1  0  0  0  0  0  0  0  0  0
   -1.3779   -1.3446    0.5675 C   0  0  1  0  0  0  0  0  0  0  0  0
   -2.5267    0.5667   -2.3690 C   0  0  0  0  0  0  0  0  0  0  0  0
    0.7669   -0.5297    1.1932 C   0  0  0  0  0  0  0  0  0  0  0  0
    1.2195    0.7620    1.4721 C   0  0  0  0  0  0  0  0  0  0  0  0
    1.5829   -1.4203    0.4991 C   0  0  0  0  0  0  0  0  0  0  0  0
    0.3538    1.7261    2.2150 C   0  0  0  0  0  0  0  0  0  0  0  0
    2.4912    1.1692    1.0583 C   0  0  0  0  0  0  0  0  0  0  0  0
    2.8480   -1.0008    0.0928 C   0  0  0  0  0  0  0  0  0  0  0  0
    3.3158    0.2827    0.3622 C   0  0  0  0  0  0  0  0  0  0  0  0
   -0.7562    2.2920    1.3647 C   0  0  0  0  0  0  0  0  0  0  0  0
    4.6455    0.6533   -0.0910 C   0  0  0  0  0  0  0  0  0  0  0  0
   -0.7276    3.3836    0.5755 C   0  0  0  0  0  0  0  0  0  0  0  0
    5.3994   -0.2275   -0.7535 C   0  0  0  0  0  0  0  0  0  0  0  0
    4.9262   -1.5922   -1.0508 C   0  0  0  0  0  0  0  0  0  0  0  0
   -1.9638    3.7989   -0.1830 C   0  0  0  0  0  0  0  0  0  0  0  0
    0.4680    4.2747    0.3788 C   0  0  0  0  0  0  0  0  0  0  0  0
   -3.5830   -3.0423   -0.2851 H   0  0  0  0  0  0  0  0  0  0  0  0
   -4.3245   -0.0732   -0.4116 H   0  0  0  0  0  0  0  0  0  0  0  0
   -3.0358   -0.9809    1.9198 H   0  0  0  0  0  0  0  0  0  0  0  0
   -2.0409   -1.4714   -1.9476 H   0  0  0  0  0  0  0  0  0  0  0  0
   -0.9526   -2.2017    0.0292 H   0  0  0  0  0  0  0  0  0  0  0  0
   -2.9026    1.4597   -1.8636 H   0  0  0  0  0  0  0  0  0  0  0  0
   -3.1620    0.3513   -3.2335 H   0  0  0  0  0  0  0  0  0  0  0  0
   -5.2195   -1.3344    1.2831 H   0  0  0  0  0  0  0  0  0  0  0  0
   -4.2878   -2.1705   -2.3359 H   0  0  0  0  0  0  0  0  0  0  0  0
   -2.1346   -3.6314    1.4252 H   0  0  0  0  0  0  0  0  0  0  0  0
   -1.2687    1.6002   -3.4234 H   0  0  0  0  0  0  0  0  0  0  0  0
    1.2595   -2.4350    0.2877 H   0  0  0  0  0  0  0  0  0  0  0  0
   -0.0881    1.2294    3.0890 H   0  0  0  0  0  0  0  0  0  0  0  0
    0.9541    2.5362    2.6468 H   0  0  0  0  0  0  0  0  0  0  0  0
    2.8435    2.1737    1.2804 H   0  0  0  0  0  0  0  0  0  0  0  0
   -1.6948    1.7441    1.4389 H   0  0  0  0  0  0  0  0  0  0  0  0
    5.0135    1.6520    0.1167 H   0  0  0  0  0  0  0  0  0  0  0  0
    6.3930    0.0419   -1.0949 H   0  0  0  0  0  0  0  0  0  0  0  0
   -2.8094    3.1284    0.0029 H   0  0  0  0  0  0  0  0  0  0  0  0
   -2.2622    4.8102    0.1135 H   0  0  0  0  0  0  0  0  0  0  0  0
    0.8357    4.1978   -0.6494 H   0  0  0  0  0  0  0  0  0  0  0  0
    1.2979    4.0351    1.0466 H   0  0  0  0  0  0  0  0  0  0  0  0
    0.1957    5.3179    0.5716 H   0  0  0  0  0  0  0  0  0  0  0  0
   -2.5035    4.0843   -2.0282 H   0  0  0  0  0  0  0  0  0  0  0  0
  1 13  1  0  0  0  0
  1 14  1  0  0  0  0
  2 14  1  0  0  0  0
  2 16  1  0  0  0  0
  3 10  1  0  0  0  0
  3 37  1  0  0  0  0
  4 11  1  0  0  0  0
  4 38  1  0  0  0  0
  5 12  1  0  0  0  0
  5 39  1  0  0  0  0
  6 15  1  0  0  0  0
  6 40  1  0  0  0  0
  7 21  1  0  0  0  0
  7 27  1  0  0  0  0
  8 27  2  0  0  0  0
  9 28  1  0  0  0  0
  9 53  1  0  0  0  0
 10 11  1  0  0  0  0
 10 12  1  0  0  0  0
 10 30  1  0  0  0  0
 11 13  1  0  0  0  0
 11 31  1  0  0  0  0
 12 14  1  0  0  0  0
 12 32  1  0  0  0  0
 13 15  1  0  0  0  0
 13 33  1  0  0  0  0
 14 34  1  0  0  0  0
 15 35  1  0  0  0  0
 15 36  1  0  0  0  0
 16 17  2  0  0  0  0
 16 18  1  0  0  0  0
 17 19  1  0  0  0  0
 17 20  1  0  0  0  0
 18 21  2  0  0  0  0
 18 41  1  0  0  0  0
 19 23  1  0  0  0  0
 19 42  1  0  0  0  0
 19 43  1  0  0  0  0
 20 22  2  0  0  0  0
 20 44  1  0  0  0  0
 21 22  1  0  0  0  0
 22 24  1  0  0  0  0
 23 25  2  0  0  0  0
 23 45  1  0  0  0  0
 24 26  2  0  0  0  0
 24 46  1  0  0  0  0
 25 28  1  0  0  0  0
 25 29  1  0  0  0  0
 26 27  1  0  0  0  0
 26 47  1  0  0  0  0
 28 48  1  0  0  0  0
 28 49  1  0  0  0  0
 29 50  1  0  0  0  0
 29 51  1  0  0  0  0
 29 52  1  0  0  0  0
M  END
> <PUBCHEM_COMPOUND_CID>
101403637

> <PUBCHEM_CONFORMER_RMSD>
1

> <PUBCHEM_CONFORMER_DIVERSEORDER>
1
26
108
63
38
115
3
116
81
96
69
28
101
54
79
75
114
100
53
95
113
65
47
20
16
5
43
46
109
72
70
98
45
18
42
73
7
105
25
12
39
27
58
94
62
102
76
66
8
80
106
2
24
37
74
9
92
21
83
56
89
19
110
112
13
97
32
36
10
107
87
11
23
93
35
77
44
52
34
50
60
33
49
15
104
71
84
103
14
99
111
85
48
90
31
6
55
17
82
61
51
41
40
22
78
68
30
91
86
4
67
57
59
88
64
29

> <PUBCHEM_MMFF94_PARTIAL_CHARGES>
39
1 -0.56
10 0.28
11 0.28
12 0.28
13 0.28
14 0.56
15 0.28
16 0.08
17 -0.14
18 -0.15
19 0.28
2 -0.36
20 -0.15
21 0.08
22 0.03
23 -0.29
24 -0.18
25 -0.28
26 -0.14
27 0.71
28 0.42
29 0.14
3 -0.68
37 0.4
38 0.4
39 0.4
4 -0.68
40 0.4
41 0.15
44 0.15
45 0.15
46 0.15
47 0.15
5 -0.68
53 0.4
6 -0.68
7 -0.23
8 -0.57
9 -0.68

> <PUBCHEM_EFFECTIVE_ROTOR_COUNT>
7.2

> <PUBCHEM_PHARMACOPHORE_FEATURES>
17
1 1 acceptor
1 2 acceptor
1 29 hydrophobe
1 3 acceptor
1 3 donor
1 4 acceptor
1 4 donor
1 5 acceptor
1 5 donor
1 6 acceptor
1 6 donor
1 8 acceptor
1 9 acceptor
1 9 donor
6 1 10 11 12 13 14 rings
6 16 17 18 20 21 22 rings
6 7 21 22 24 26 27 rings

> <PUBCHEM_HEAVY_ATOM_COUNT>
29

> <PUBCHEM_ATOM_DEF_STEREO_COUNT>
5

> <PUBCHEM_ATOM_UDEF_STEREO_COUNT>
0

> <PUBCHEM_BOND_DEF_STEREO_COUNT>
1

> <PUBCHEM_BOND_UDEF_STEREO_COUNT>
0

> <PUBCHEM_ISOTOPIC_ATOM_COUNT>
0

> <PUBCHEM_COMPONENT_COUNT>
1

> <PUBCHEM_CACTVS_TAUTO_COUNT>
8

> <PUBCHEM_CONFORMER_ID>
060B4BF500000001

> <PUBCHEM_MMFF94_ENERGY>
85.8447

> <PUBCHEM_FEATURE_SELFOVERLAP>
86.366

> <PUBCHEM_SHAPE_FINGERPRINT>
10254770 206 16319227763673602926
10498660 4 17095791187818989679
11045515 52 18411423946315559425
11640471 11 15068885430823301335
12156800 1 17768573509950205509
12236239 1 16486983945824542923
12422481 6 16629428877064133811
12788726 201 18336256834794669123
13690498 29 17985291620082762542
13911987 19 18266188416790824694
13947920 24 17967813894573893172
13994607 96 14563111186063615086
14114207 22 15696608637140344885
14114211 68 17680413469628680007
14537116 161 17692763240193893877
14713325 29 18197224650192871254
15210252 30 18041264539389500285
15806764 133 18116425041751709523
17357779 13 18343294903203015152
1813 80 17845673545494823982
19301676 85 16613380147895946726
21641784 216 18265637488361629540
21703447 108 18341888572904032274
22182313 1 17845352415633897544
22907989 373 18263381251772575380
23175994 123 18338805623123216555
23419403 2 17100337818734242457
23536364 44 18335696096728448782
23557571 272 18187080697896765750
23559900 14 18197214974259768923
238 59 16824970689503919181
26353 1 18339916125356193740
4340502 62 11531037410083950805
437795 70 18198882783254416165
46194498 28 18048304841443856543
469060 322 16154295835095346465
474 4 13045932521646526802
484985 159 17059497305307318079
5081480 168 18266742561781987005
57262259 84 18411989030957702968
621550 5 17970363704772126923
6287921 2 17399794290457714747
70251023 43 17988348360353287943

> <PUBCHEM_SHAPE_MULTIPOLES>
543.98
9.52
4.39
2.17
7.61
5.39
-0.7
-8.87
-4.4
-2.37
0.21
-1.43
-0.05
2.19

> <PUBCHEM_SHAPE_SELFOVERLAP>
1152.903

> <PUBCHEM_SHAPE_VOLUME>
302

> <PUBCHEM_COORDINATE_TYPE>
2
5
10

$$$$
