101418621
  -OEChem-03292013293D

 42 44  0     1  0  0  0  0  0999 V2000
   -0.4234    0.2362   -1.2204 O   0  0  0  0  0  0  0  0  0  0  0  0
    1.0832   -1.4976   -0.7008 O   0  0  0  0  0  0  0  0  0  0  0  0
   -1.2954   -3.0519   -0.3423 O   0  0  0  0  0  0  0  0  0  0  0  0
    0.1678    1.7954    2.0433 O   0  0  0  0  0  0  0  0  0  0  0  0
   -2.5256    2.0645    0.9609 O   0  0  0  0  0  0  0  0  0  0  0  0
    3.2981   -2.0932   -0.5733 O   0  0  0  0  0  0  0  0  0  0  0  0
    4.7000    0.6223   -0.4109 O   0  0  0  0  0  0  0  0  0  0  0  0
    0.2715   -0.4308   -0.1685 C   0  0  2  0  0  0  0  0  0  0  0  0
   -1.0660    1.4607   -0.8784 C   0  0  2  0  0  0  0  0  0  0  0  0
   -0.6611   -1.0620    0.8928 C   0  0  0  0  0  0  0  0  0  0  0  0
    1.2928    0.4949    0.3971 C   0  0  0  0  0  0  0  0  0  0  0  0
   -1.8328   -1.9124    0.3428 C   0  0  1  0  0  0  0  0  0  0  0  0
   -0.0242    2.4579   -0.2951 C   0  0  0  0  0  0  0  0  0  0  0  0
    0.8673    1.8643    0.8084 C   0  0  1  0  0  0  0  0  0  0  0  0
   -2.7491   -1.1930   -0.6704 C   0  0  0  0  0  0  0  0  0  0  0  0
   -2.2898    1.2728    0.0429 C   0  0  0  0  0  0  0  0  0  0  0  0
   -3.2985    0.1687   -0.2537 C   0  0  0  0  0  0  0  0  0  0  0  0
    2.5229   -0.0143    0.3247 C   0  0  0  0  0  0  0  0  0  0  0  0
   -1.6047    2.0446   -2.1944 C   0  0  0  0  0  0  0  0  0  0  0  0
   -2.6597   -2.4492    1.5213 C   0  0  0  0  0  0  0  0  0  0  0  0
    2.3872   -1.3160   -0.3439 C   0  0  0  0  0  0  0  0  0  0  0  0
    3.8394    0.5382    0.7179 C   0  0  0  0  0  0  0  0  0  0  0  0
   -0.0468   -1.7144    1.5312 H   0  0  0  0  0  0  0  0  0  0  0  0
   -1.0719   -0.2993    1.5601 H   0  0  0  0  0  0  0  0  0  0  0  0
   -0.5237    3.3638    0.0694 H   0  0  0  0  0  0  0  0  0  0  0  0
    0.6465    2.7669   -1.1096 H   0  0  0  0  0  0  0  0  0  0  0  0
    1.7272    2.5234    0.9641 H   0  0  0  0  0  0  0  0  0  0  0  0
   -3.6090   -1.8457   -0.8810 H   0  0  0  0  0  0  0  0  0  0  0  0
   -2.2544   -1.1221   -1.6461 H   0  0  0  0  0  0  0  0  0  0  0  0
   -3.9218    0.0449    0.6398 H   0  0  0  0  0  0  0  0  0  0  0  0
   -3.9587    0.5445   -1.0442 H   0  0  0  0  0  0  0  0  0  0  0  0
   -2.2973    1.3503   -2.6837 H   0  0  0  0  0  0  0  0  0  0  0  0
   -2.1316    2.9910   -2.0314 H   0  0  0  0  0  0  0  0  0  0  0  0
   -0.7920    2.2154   -2.9100 H   0  0  0  0  0  0  0  0  0  0  0  0
   -2.0394   -3.0717    2.1767 H   0  0  0  0  0  0  0  0  0  0  0  0
   -3.4750   -3.0928    1.1715 H   0  0  0  0  0  0  0  0  0  0  0  0
   -3.0894   -1.6412    2.1213 H   0  0  0  0  0  0  0  0  0  0  0  0
   -2.0380   -3.6035   -0.6424 H   0  0  0  0  0  0  0  0  0  0  0  0
    4.3149   -0.1150    1.4565 H   0  0  0  0  0  0  0  0  0  0  0  0
    3.7619    1.5337    1.1635 H   0  0  0  0  0  0  0  0  0  0  0  0
   -0.1328    2.6939    2.2620 H   0  0  0  0  0  0  0  0  0  0  0  0
    4.2890    1.2298   -1.0497 H   0  0  0  0  0  0  0  0  0  0  0  0
  1  8  1  0  0  0  0
  1  9  1  0  0  0  0
  2  8  1  0  0  0  0
  2 21  1  0  0  0  0
  3 12  1  0  0  0  0
  3 38  1  0  0  0  0
  4 14  1  0  0  0  0
  4 41  1  0  0  0  0
  5 16  2  0  0  0  0
  6 21  2  0  0  0  0
  7 22  1  0  0  0  0
  7 42  1  0  0  0  0
  8 10  1  0  0  0  0
  8 11  1  0  0  0  0
  9 13  1  0  0  0  0
  9 16  1  0  0  0  0
  9 19  1  0  0  0  0
 10 12  1  0  0  0  0
 10 23  1  0  0  0  0
 10 24  1  0  0  0  0
 11 14  1  0  0  0  0
 11 18  2  0  0  0  0
 12 15  1  0  0  0  0
 12 20  1  0  0  0  0
 13 14  1  0  0  0  0
 13 25  1  0  0  0  0
 13 26  1  0  0  0  0
 14 27  1  0  0  0  0
 15 17  1  0  0  0  0
 15 28  1  0  0  0  0
 15 29  1  0  0  0  0
 16 17  1  0  0  0  0
 17 30  1  0  0  0  0
 17 31  1  0  0  0  0
 18 21  1  0  0  0  0
 18 22  1  0  0  0  0
 19 32  1  0  0  0  0
 19 33  1  0  0  0  0
 19 34  1  0  0  0  0
 20 35  1  0  0  0  0
 20 36  1  0  0  0  0
 20 37  1  0  0  0  0
 22 39  1  0  0  0  0
 22 40  1  0  0  0  0
M  END
> <PUBCHEM_COMPOUND_CID>
101418621

> <PUBCHEM_CONFORMER_RMSD>
0.6

> <PUBCHEM_CONFORMER_DIVERSEORDER>
1
5
4
2
3

> <PUBCHEM_MMFF94_PARTIAL_CHARGES>
20
1 -0.56
11 -0.28
12 0.28
14 0.42
16 0.45
17 0.06
18 -0.12
2 -0.43
21 0.71
22 0.42
3 -0.68
38 0.4
4 -0.68
41 0.4
42 0.4
5 -0.57
6 -0.57
7 -0.68
8 0.7
9 0.34

> <PUBCHEM_EFFECTIVE_ROTOR_COUNT>
2.6

> <PUBCHEM_PHARMACOPHORE_FEATURES>
11
1 1 acceptor
1 3 acceptor
1 3 donor
1 4 acceptor
1 4 donor
1 5 acceptor
1 6 acceptor
1 7 acceptor
1 7 donor
5 2 8 11 18 21 rings
6 1 8 9 11 13 14 rings

> <PUBCHEM_HEAVY_ATOM_COUNT>
22

> <PUBCHEM_ATOM_DEF_STEREO_COUNT>
4

> <PUBCHEM_ATOM_UDEF_STEREO_COUNT>
0

> <PUBCHEM_BOND_DEF_STEREO_COUNT>
0

> <PUBCHEM_BOND_UDEF_STEREO_COUNT>
0

> <PUBCHEM_ISOTOPIC_ATOM_COUNT>
0

> <PUBCHEM_COMPONENT_COUNT>
1

> <PUBCHEM_CACTVS_TAUTO_COUNT>
2

> <PUBCHEM_CONFORMER_ID>
060B867D00000001

> <PUBCHEM_MMFF94_ENERGY>
58.1503

> <PUBCHEM_FEATURE_SELFOVERLAP>
55.963

> <PUBCHEM_SHAPE_FINGERPRINT>
10863032 1 18059853909475894665
10948715 1 17983862172913998537
10967382 1 18412260631772782446
11132069 177 18408880733002670724
11680986 33 18120929774839073657
11961588 58 17169525485813322197
12011746 2 18341325669398302133
12173636 292 18194683657315122188
12403814 3 17822010882639279725
12423570 1 17968105191645067324
12716301 132 17826477090545050201
12730499 353 17467619409306811277
13027679 85 18271526497966501201
13140716 1 17763463215847727850
14223421 5 18411132567550413400
14251745 187 18337099154990391850
14787075 74 18058447608761810249
14790565 3 18123193402946024801
14817 1 17318403843954073665
15490181 7 17827067416382366511
16945 1 18269845383220634667
17357779 13 18266726064654250415
18186145 218 18121776136841478980
20510252 161 18339357457574629481
20588541 1 18411976970631214452
21041028 32 18119825852448573235
21285901 2 18335692845665332631
21501502 16 18411978023193808934
22721475 48 18410290358506946955
22802520 49 18335700610791701155
2334 1 18411976927671212846
23402539 116 18338221769775234927
23419403 2 17913466198469513881
23493267 7 18262787476812302152
23557571 272 18271259274155203782
23558518 356 17840592487952538216
23559900 14 18196928869561494134
238 59 17252552731346922989
2748010 2 18342174445188580358
568465 68 18130218388829980032
5845 1 18196120865051426234
81228 2 18260548939446222043
8809292 202 18267587901292135646
9709674 26 18340769243759114302

> <PUBCHEM_SHAPE_MULTIPOLES>
411.66
5.48
3.05
1.4
4.72
0.51
-0.08
1.24
0.01
-1.65
0.05
-0.48
-0.53
0.99

> <PUBCHEM_SHAPE_SELFOVERLAP>
887.099

> <PUBCHEM_SHAPE_VOLUME>
223.8

> <PUBCHEM_COORDINATE_TYPE>
2
5
10

$$$$
