101489526
  -OEChem-03292013293D

 48 49  0     1  0  0  0  0  0999 V2000
    1.0046    0.3165   -0.5785 O   0  0  0  0  0  0  0  0  0  0  0  0
   -0.3304   -0.3015    1.2325 O   0  0  0  0  0  0  0  0  0  0  0  0
    4.4285   -0.7897    1.4017 O   0  0  0  0  0  0  0  0  0  0  0  0
    4.5998    0.9281   -0.9169 O   0  0  0  0  0  0  0  0  0  0  0  0
    1.9523   -0.2505    2.9044 O   0  0  0  0  0  0  0  0  0  0  0  0
    0.9742    1.6789   -2.9657 O   0  0  0  0  0  0  0  0  0  0  0  0
   -3.2920    3.4228    0.8872 O   0  0  0  0  0  0  0  0  0  0  0  0
    3.3935    0.1103    1.0028 C   0  0  1  0  0  0  0  0  0  0  0  0
    3.4261    0.2230   -0.5215 C   0  0  1  0  0  0  0  0  0  0  0  0
    2.0440   -0.4179    1.4898 C   0  0  2  0  0  0  0  0  0  0  0  0
    2.1915    0.9657   -1.0378 C   0  0  1  0  0  0  0  0  0  0  0  0
    0.8842    0.3384    0.8419 C   0  0  1  0  0  0  0  0  0  0  0  0
    2.1427    0.9884   -2.5623 C   0  0  0  0  0  0  0  0  0  0  0  0
   -2.0335   -1.9287   -0.3882 C   0  0  0  0  0  0  0  0  0  0  0  0
   -1.4903    0.2415    0.7516 C   0  0  0  0  0  0  0  0  0  0  0  0
   -2.3544   -0.5122   -0.0431 C   0  0  0  0  0  0  0  0  0  0  0  0
   -3.0641   -2.6360   -1.3352 C   0  0  0  0  0  0  0  0  0  0  0  0
   -2.0241   -2.8027    0.9094 C   0  0  0  0  0  0  0  0  0  0  0  0
   -1.8055    1.5638    1.0644 C   0  0  0  0  0  0  0  0  0  0  0  0
   -3.5334    0.0566   -0.5250 C   0  0  0  0  0  0  0  0  0  0  0  0
   -0.6974   -2.0226   -1.1605 C   0  0  0  0  0  0  0  0  0  0  0  0
   -2.9847    2.1325    0.5827 C   0  0  0  0  0  0  0  0  0  0  0  0
   -3.8487    1.3789   -0.2119 C   0  0  0  0  0  0  0  0  0  0  0  0
    0.4170   -2.6835   -0.8217 C   0  0  0  0  0  0  0  0  0  0  0  0
    3.6293    1.0732    1.4709 H   0  0  0  0  0  0  0  0  0  0  0  0
    3.4821   -0.7792   -0.9639 H   0  0  0  0  0  0  0  0  0  0  0  0
    1.9645   -1.4933    1.3006 H   0  0  0  0  0  0  0  0  0  0  0  0
    2.1794    2.0053   -0.6830 H   0  0  0  0  0  0  0  0  0  0  0  0
    0.8806    1.3764    1.1989 H   0  0  0  0  0  0  0  0  0  0  0  0
    2.0846   -0.0282   -2.9653 H   0  0  0  0  0  0  0  0  0  0  0  0
    3.0148    1.4963   -2.9850 H   0  0  0  0  0  0  0  0  0  0  0  0
    4.2378   -1.6609    1.0140 H   0  0  0  0  0  0  0  0  0  0  0  0
    4.5532    1.8237   -0.5407 H   0  0  0  0  0  0  0  0  0  0  0  0
    2.0243    0.6991    3.1011 H   0  0  0  0  0  0  0  0  0  0  0  0
   -3.1623   -2.1152   -2.2958 H   0  0  0  0  0  0  0  0  0  0  0  0
   -1.2499   -2.5104    1.6252 H   0  0  0  0  0  0  0  0  0  0  0  0
   -2.9869   -2.7270    1.4303 H   0  0  0  0  0  0  0  0  0  0  0  0
   -4.0570   -2.7013   -0.8744 H   0  0  0  0  0  0  0  0  0  0  0  0
   -1.8628   -3.8624    0.6767 H   0  0  0  0  0  0  0  0  0  0  0  0
   -2.7512   -3.6638   -1.5611 H   0  0  0  0  0  0  0  0  0  0  0  0
   -1.1482    2.1516    1.6995 H   0  0  0  0  0  0  0  0  0  0  0  0
   -4.2437   -0.4792   -1.1443 H   0  0  0  0  0  0  0  0  0  0  0  0
   -0.6707   -1.4765   -2.1043 H   0  0  0  0  0  0  0  0  0  0  0  0
    0.9595    1.6748   -3.9379 H   0  0  0  0  0  0  0  0  0  0  0  0
   -4.7686    1.8172   -0.5895 H   0  0  0  0  0  0  0  0  0  0  0  0
    1.2848   -2.6550   -1.4723 H   0  0  0  0  0  0  0  0  0  0  0  0
    0.4978   -3.2597    0.0916 H   0  0  0  0  0  0  0  0  0  0  0  0
   -2.5847    3.7934    1.4426 H   0  0  0  0  0  0  0  0  0  0  0  0
  1 11  1  0  0  0  0
  1 12  1  0  0  0  0
  2 12  1  0  0  0  0
  2 15  1  0  0  0  0
  3  8  1  0  0  0  0
  3 32  1  0  0  0  0
  4  9  1  0  0  0  0
  4 33  1  0  0  0  0
  5 10  1  0  0  0  0
  5 34  1  0  0  0  0
  6 13  1  0  0  0  0
  6 44  1  0  0  0  0
  7 22  1  0  0  0  0
  7 48  1  0  0  0  0
  8  9  1  0  0  0  0
  8 10  1  0  0  0  0
  8 25  1  0  0  0  0
  9 11  1  0  0  0  0
  9 26  1  0  0  0  0
 10 12  1  0  0  0  0
 10 27  1  0  0  0  0
 11 13  1  0  0  0  0
 11 28  1  0  0  0  0
 12 29  1  0  0  0  0
 13 30  1  0  0  0  0
 13 31  1  0  0  0  0
 14 16  1  0  0  0  0
 14 17  1  0  0  0  0
 14 18  1  0  0  0  0
 14 21  1  0  0  0  0
 15 16  2  0  0  0  0
 15 19  1  0  0  0  0
 16 20  1  0  0  0  0
 17 35  1  0  0  0  0
 17 38  1  0  0  0  0
 17 40  1  0  0  0  0
 18 36  1  0  0  0  0
 18 37  1  0  0  0  0
 18 39  1  0  0  0  0
 19 22  2  0  0  0  0
 19 41  1  0  0  0  0
 20 23  2  0  0  0  0
 20 42  1  0  0  0  0
 21 24  2  0  0  0  0
 21 43  1  0  0  0  0
 22 23  1  0  0  0  0
 23 45  1  0  0  0  0
 24 46  1  0  0  0  0
 24 47  1  0  0  0  0
M  END
> <PUBCHEM_COMPOUND_CID>
101489526

> <PUBCHEM_CONFORMER_RMSD>
0.8

> <PUBCHEM_CONFORMER_DIVERSEORDER>
1
43
82
74
57
9
36
63
31
81
97
66
12
61
52
76
11
53
23
62
83
88
28
71
73
96
75
16
78
93
32
68
64
90
37
33
39
70
94
72
14
41
69
44
10
17
25
89
54
59
40
92
30
47
87
42
2
91
77
27
65
35
3
21
84
19
85
4
38
45
48
50
95
18
13
24
49
15
5
22
79
34
6
86
80
26
29
58
46
7
67
55
60
51
20
56
8

> <PUBCHEM_MMFF94_PARTIAL_CHARGES>
33
1 -0.56
10 0.28
11 0.28
12 0.56
13 0.28
14 0.28
15 0.08
16 -0.14
19 -0.15
2 -0.36
20 -0.15
21 -0.29
22 0.08
23 -0.15
24 -0.3
3 -0.68
32 0.4
33 0.4
34 0.4
4 -0.68
41 0.15
42 0.15
43 0.15
44 0.4
45 0.15
46 0.15
47 0.15
48 0.45
5 -0.68
6 -0.68
7 -0.53
8 0.28
9 0.28

> <PUBCHEM_EFFECTIVE_ROTOR_COUNT>
6.2

> <PUBCHEM_PHARMACOPHORE_FEATURES>
15
1 1 acceptor
1 2 acceptor
1 24 hydrophobe
1 3 acceptor
1 3 donor
1 4 acceptor
1 4 donor
1 5 acceptor
1 5 donor
1 6 acceptor
1 6 donor
1 7 donor
3 14 17 18 hydrophobe
6 1 8 9 10 11 12 rings
6 15 16 19 20 22 23 rings

> <PUBCHEM_HEAVY_ATOM_COUNT>
24

> <PUBCHEM_ATOM_DEF_STEREO_COUNT>
5

> <PUBCHEM_ATOM_UDEF_STEREO_COUNT>
0

> <PUBCHEM_BOND_DEF_STEREO_COUNT>
0

> <PUBCHEM_BOND_UDEF_STEREO_COUNT>
0

> <PUBCHEM_ISOTOPIC_ATOM_COUNT>
0

> <PUBCHEM_COMPONENT_COUNT>
1

> <PUBCHEM_CACTVS_TAUTO_COUNT>
3

> <PUBCHEM_CONFORMER_ID>
060C9B7600000001

> <PUBCHEM_MMFF94_ENERGY>
83.2823

> <PUBCHEM_FEATURE_SELFOVERLAP>
76.186

> <PUBCHEM_SHAPE_FINGERPRINT>
11370993 70 18272652299072986078
11640471 11 18186529807963864693
12236239 1 18186513306662285080
12363563 72 17841703308092385815
12422481 6 17829873362031239978
12553582 1 18052533567528374355
12596599 1 17676480692240075922
12714826 92 18058740233003915219
12788726 201 18262804102641722299
13009979 54 18262230139980631978
13140716 1 18128249189791401707
13583140 156 16805614680929376345
13965767 371 18115590318557093996
14181834 199 17910403779292035447
14251764 3 16988835103368299734
16752209 62 18269544091376168183
16945 1 18273207608712104291
20645476 183 18040997358459037291
20691752 17 17825958026609637903
22907989 373 18341331210048610325
23419403 2 16032870353606189249
23526113 38 16916799448044405750
23557571 272 17703519864778086109
23559900 14 17775010059940780982
23598288 3 18336830895939676955
23598291 2 18113328726323039890
238 59 15697709329335805772
2748010 2 17841693408461345659
6287921 2 13625258644069498582
633830 44 17458924698939151644
6992083 37 18114177514718242756
77492 1 18186513324005619570
81228 2 18129943519945721115
90525 40 18335990834569457191

> <PUBCHEM_SHAPE_MULTIPOLES>
452.82
7.13
2.99
2.18
3.6
0.51
0.59
-1.93
-0.04
-4.05
0.24
2.14
-0.4
-1.35

> <PUBCHEM_SHAPE_SELFOVERLAP>
947.233

> <PUBCHEM_SHAPE_VOLUME>
254.9

> <PUBCHEM_COORDINATE_TYPE>
2
5
10

$$$$
