101476921
  -OEChem-03292013293D

 58 60  0     1  0  0  0  0  0999 V2000
    1.7351    2.0794   -1.6145 O   0  0  0  0  0  0  0  0  0  0  0  0
   -0.8499   -0.4157    0.7207 O   0  0  0  0  0  0  0  0  0  0  0  0
    1.4605    3.9529   -0.3026 O   0  0  0  0  0  0  0  0  0  0  0  0
   -3.0036    0.4794    0.6553 O   0  0  0  0  0  0  0  0  0  0  0  0
   -1.7990   -2.7379   -0.5886 O   0  0  0  0  0  0  0  0  0  0  0  0
   -4.6567   -3.2131   -0.0513 O   0  0  0  0  0  0  0  0  0  0  0  0
   -6.1964   -0.8239   -0.5777 O   0  0  0  0  0  0  0  0  0  0  0  0
    4.5855   -2.8083    1.4999 O   0  0  0  0  0  0  0  0  0  0  0  0
   -4.3952    2.8457    0.5154 O   0  0  0  0  0  0  0  0  0  0  0  0
    3.0289    0.8492   -0.1531 C   0  0  2  0  0  0  0  0  0  0  0  0
    2.1824    1.8190    0.6807 C   0  0  2  0  0  0  0  0  0  0  0  0
    2.0982    0.7023   -1.3559 C   0  0  1  0  0  0  0  0  0  0  0  0
    0.9141    1.1467    1.2415 C   0  0  0  0  0  0  0  0  0  0  0  0
    0.8201   -0.0885   -1.0106 C   0  0  0  0  0  0  0  0  0  0  0  0
    0.0256    0.5455    0.1414 C   0  0  1  0  0  0  0  0  0  0  0  0
    3.4652   -0.4409    0.5304 C   0  0  0  0  0  0  0  0  0  0  0  0
    1.7629    2.7773   -0.4253 C   0  0  0  0  0  0  0  0  0  0  0  0
    2.9855    2.5190    1.7694 C   0  0  0  0  0  0  0  0  0  0  0  0
    2.7894    0.1343   -2.5884 C   0  0  0  0  0  0  0  0  0  0  0  0
    4.6871   -1.0455   -0.1521 C   0  0  0  0  0  0  0  0  0  0  0  0
   -2.1080   -0.4486    0.0477 C   0  0  2  0  0  0  0  0  0  0  0  0
   -2.6594   -1.8707    0.1498 C   0  0  1  0  0  0  0  0  0  0  0  0
   -4.0767   -1.9596   -0.4162 C   0  0  2  0  0  0  0  0  0  0  0  0
   -4.2780    0.5137    0.0106 C   0  0  1  0  0  0  0  0  0  0  0  0
   -4.9657   -0.8474    0.1406 C   0  0  1  0  0  0  0  0  0  0  0  0
    5.1587   -2.3187    0.5278 C   0  0  0  0  0  0  0  0  0  0  0  0
   -5.0947    1.6238    0.6647 C   0  0  0  0  0  0  0  0  0  0  0  0
    6.3843   -2.9692   -0.0596 C   0  0  0  0  0  0  0  0  0  0  0  0
    3.9326    1.3955   -0.4683 H   0  0  0  0  0  0  0  0  0  0  0  0
    0.3155    1.8699    1.8117 H   0  0  0  0  0  0  0  0  0  0  0  0
    1.1886    0.3668    1.9636 H   0  0  0  0  0  0  0  0  0  0  0  0
    1.0440   -1.1391   -0.7934 H   0  0  0  0  0  0  0  0  0  0  0  0
    0.1666   -0.1138   -1.8929 H   0  0  0  0  0  0  0  0  0  0  0  0
   -0.5661    1.3800   -0.2633 H   0  0  0  0  0  0  0  0  0  0  0  0
    2.6620   -1.1807    0.5898 H   0  0  0  0  0  0  0  0  0  0  0  0
    3.7407   -0.2264    1.5702 H   0  0  0  0  0  0  0  0  0  0  0  0
    3.3193    1.8181    2.5407 H   0  0  0  0  0  0  0  0  0  0  0  0
    2.3856    3.2929    2.2618 H   0  0  0  0  0  0  0  0  0  0  0  0
    3.8700    3.0162    1.3554 H   0  0  0  0  0  0  0  0  0  0  0  0
    3.7661    0.6026   -2.7514 H   0  0  0  0  0  0  0  0  0  0  0  0
    2.1966    0.3493   -3.4855 H   0  0  0  0  0  0  0  0  0  0  0  0
    2.9129   -0.9501   -2.5326 H   0  0  0  0  0  0  0  0  0  0  0  0
    4.4841   -1.3087   -1.1900 H   0  0  0  0  0  0  0  0  0  0  0  0
    5.5189   -0.3323   -0.1305 H   0  0  0  0  0  0  0  0  0  0  0  0
   -1.9778   -0.1897   -1.0121 H   0  0  0  0  0  0  0  0  0  0  0  0
   -2.6390   -2.2160    1.1903 H   0  0  0  0  0  0  0  0  0  0  0  0
   -4.0630   -1.9374   -1.5122 H   0  0  0  0  0  0  0  0  0  0  0  0
   -4.1280    0.7807   -1.0445 H   0  0  0  0  0  0  0  0  0  0  0  0
   -5.2038   -1.0567    1.1907 H   0  0  0  0  0  0  0  0  0  0  0  0
   -5.2164    1.4383    1.7371 H   0  0  0  0  0  0  0  0  0  0  0  0
   -6.0804    1.7242    0.2006 H   0  0  0  0  0  0  0  0  0  0  0  0
   -1.7957   -2.4426   -1.5151 H   0  0  0  0  0  0  0  0  0  0  0  0
    7.2272   -2.2756   -0.0088 H   0  0  0  0  0  0  0  0  0  0  0  0
    6.6331   -3.8692    0.5096 H   0  0  0  0  0  0  0  0  0  0  0  0
    6.1883   -3.2503   -1.0972 H   0  0  0  0  0  0  0  0  0  0  0  0
   -4.6668   -3.2707    0.9193 H   0  0  0  0  0  0  0  0  0  0  0  0
   -5.9973   -0.6254   -1.5085 H   0  0  0  0  0  0  0  0  0  0  0  0
   -4.9302    3.5367    0.9419 H   0  0  0  0  0  0  0  0  0  0  0  0
  1 12  1  0  0  0  0
  1 17  1  0  0  0  0
  2 15  1  0  0  0  0
  2 21  1  0  0  0  0
  3 17  2  0  0  0  0
  4 21  1  0  0  0  0
  4 24  1  0  0  0  0
  5 22  1  0  0  0  0
  5 52  1  0  0  0  0
  6 23  1  0  0  0  0
  6 56  1  0  0  0  0
  7 25  1  0  0  0  0
  7 57  1  0  0  0  0
  8 26  2  0  0  0  0
  9 27  1  0  0  0  0
  9 58  1  0  0  0  0
 10 11  1  0  0  0  0
 10 12  1  0  0  0  0
 10 16  1  0  0  0  0
 10 29  1  0  0  0  0
 11 13  1  0  0  0  0
 11 17  1  0  0  0  0
 11 18  1  0  0  0  0
 12 14  1  0  0  0  0
 12 19  1  0  0  0  0
 13 15  1  0  0  0  0
 13 30  1  0  0  0  0
 13 31  1  0  0  0  0
 14 15  1  0  0  0  0
 14 32  1  0  0  0  0
 14 33  1  0  0  0  0
 15 34  1  0  0  0  0
 16 20  1  0  0  0  0
 16 35  1  0  0  0  0
 16 36  1  0  0  0  0
 18 37  1  0  0  0  0
 18 38  1  0  0  0  0
 18 39  1  0  0  0  0
 19 40  1  0  0  0  0
 19 41  1  0  0  0  0
 19 42  1  0  0  0  0
 20 26  1  0  0  0  0
 20 43  1  0  0  0  0
 20 44  1  0  0  0  0
 21 22  1  0  0  0  0
 21 45  1  0  0  0  0
 22 23  1  0  0  0  0
 22 46  1  0  0  0  0
 23 25  1  0  0  0  0
 23 47  1  0  0  0  0
 24 25  1  0  0  0  0
 24 27  1  0  0  0  0
 24 48  1  0  0  0  0
 25 49  1  0  0  0  0
 26 28  1  0  0  0  0
 27 50  1  0  0  0  0
 27 51  1  0  0  0  0
 28 53  1  0  0  0  0
 28 54  1  0  0  0  0
 28 55  1  0  0  0  0
M  END
> <PUBCHEM_COMPOUND_CID>
101476921

> <PUBCHEM_CONFORMER_RMSD>
1

> <PUBCHEM_CONFORMER_DIVERSEORDER>
1
12
45
10
49
20
46
13
29
19
39
22
30
26
9
36
35
37
47
25
15
8
5
3
7
48
33
32
42
27
18
28
34
4
43
38
41
2
11
23
6
14
40
24
44
17
16
21
31

> <PUBCHEM_MMFF94_PARTIAL_CHARGES>
26
1 -0.43
11 0.06
12 0.28
15 0.28
17 0.66
2 -0.56
20 0.06
21 0.56
22 0.28
23 0.28
24 0.28
25 0.28
26 0.45
27 0.28
28 0.06
3 -0.57
4 -0.56
5 -0.68
52 0.4
56 0.4
57 0.4
58 0.4
6 -0.68
7 -0.68
8 -0.57
9 -0.68

> <PUBCHEM_EFFECTIVE_ROTOR_COUNT>
8.2

> <PUBCHEM_PHARMACOPHORE_FEATURES>
14
1 2 acceptor
1 3 acceptor
1 4 acceptor
1 5 acceptor
1 5 donor
1 6 acceptor
1 6 donor
1 7 acceptor
1 7 donor
1 8 acceptor
1 9 acceptor
1 9 donor
6 4 21 22 23 24 25 rings
8 1 10 11 12 13 14 15 17 rings

> <PUBCHEM_HEAVY_ATOM_COUNT>
28

> <PUBCHEM_ATOM_DEF_STEREO_COUNT>
9

> <PUBCHEM_ATOM_UDEF_STEREO_COUNT>
0

> <PUBCHEM_BOND_DEF_STEREO_COUNT>
0

> <PUBCHEM_BOND_UDEF_STEREO_COUNT>
0

> <PUBCHEM_ISOTOPIC_ATOM_COUNT>
0

> <PUBCHEM_COMPONENT_COUNT>
1

> <PUBCHEM_CACTVS_TAUTO_COUNT>
3

> <PUBCHEM_CONFORMER_ID>
060C6A3900000001

> <PUBCHEM_MMFF94_ENERGY>
83.1474

> <PUBCHEM_FEATURE_SELFOVERLAP>
71.113

> <PUBCHEM_SHAPE_FINGERPRINT>
11405975 8 18341055198307125841
11796584 16 18341905060671415174
12107183 9 18267024964297385257
12166972 35 18342175570343320737
12403260 363 18342738537914304885
12633257 1 18200607929439971761
13004483 165 18190454970745049074
13073987 5 18341050808681796297
13533116 47 18337388374057459203
13583140 156 17701812417572222312
14347332 77 18341328994231107319
14420673 8 18339081471455963994
14466204 15 18269276772590085419
17349148 13 17775289373873753939
17492 89 18266177412636706523
17818456 19 18413107230167460553
17980427 23 13973096814133552656
1813 80 17530956961275830644
20600515 1 17987807289390806968
20626108 58 18412261748838936258
23559900 14 18339075003387476059
3004659 81 17988373666553673887
3411729 13 17987794258924397648
3421961 26 18411694418303488994
345986 75 17897431810290897314
437815 12 18271242708403292474
4409770 3 17828475873719602220
460360 51 18270418160312625699
46194498 28 16950564423921443438
463206 1 18259706683802317650
5081480 168 16298395651572999470
5104073 3 18059302053860758571
5281201 14 17988378056290351405
559249 180 18340204086060614515
6443956 14 18335421240686848266
9971528 1 18333726944591833688
9981440 41 17398390213877398048

> <PUBCHEM_SHAPE_MULTIPOLES>
523.4
13.26
3.97
1.41
6.61
0.35
0.52
-9.71
-1.54
-1.86
-0.54
-1.63
0.44
-1.21

> <PUBCHEM_SHAPE_SELFOVERLAP>
1093.743

> <PUBCHEM_SHAPE_VOLUME>
296.3

> <PUBCHEM_COORDINATE_TYPE>
2
5
10

$$$$
