101458287
  -OEChem-03292013293D

 73 77  0     1  0  0  0  0  0999 V2000
    0.1622   -1.7043    0.4530 O   0  0  0  0  0  0  0  0  0  0  0  0
   -2.1230   -0.3759    2.9803 O   0  0  0  0  0  0  0  0  0  0  0  0
    0.1611    2.5651    1.0202 O   0  0  0  0  0  0  0  0  0  0  0  0
    1.3518   -2.3460    2.3227 O   0  0  0  0  0  0  0  0  0  0  0  0
    1.0629    4.0764   -0.4763 O   0  0  0  0  0  0  0  0  0  0  0  0
    4.5211    1.1809    0.7887 O   0  0  0  0  0  0  0  0  0  0  0  0
    4.8160    1.5302   -1.9529 O   0  0  0  0  0  0  0  0  0  0  0  0
   -4.1944   -0.1560   -1.2652 N   0  0  2  0  0  0  0  0  0  0  0  0
   -3.1286    0.0796   -0.2662 C   0  0  1  0  0  0  0  0  0  0  0  0
   -3.0805   -1.0898    0.8285 C   0  0  1  0  0  0  0  0  0  0  0  0
   -0.8317    0.4843    0.2691 C   0  0  3  0  0  0  0  0  0  0  0  0
   -1.7473   -0.0133   -0.8058 C   0  0  0  0  0  0  0  0  0  0  0  0
   -3.2490    1.6043    0.2217 C   0  0  0  0  0  0  0  0  0  0  0  0
   -1.8281   -1.1580    1.8195 C   0  0  1  0  0  0  0  0  0  0  0  0
   -0.4496   -0.6568    1.1918 C   0  0  1  0  0  0  0  0  0  0  0  0
   -2.0259    2.5995   -0.1714 C   0  0  1  0  0  0  0  0  0  0  0  0
   -0.5666    1.9412   -0.0333 C   0  0  1  0  0  0  0  0  0  0  0  0
   -4.4374   -1.1943    1.5272 C   0  0  0  0  0  0  0  0  0  0  0  0
   -5.5050   -0.3751   -0.6316 C   0  0  0  0  0  0  0  0  0  0  0  0
   -5.5280   -1.4282    0.4808 C   0  0  0  0  0  0  0  0  0  0  0  0
   -3.8582   -1.2029   -2.2393 C   0  0  0  0  0  0  0  0  0  0  0  0
   -1.4455   -0.4469   -2.0350 C   0  0  0  0  0  0  0  0  0  0  0  0
   -2.5307   -0.9081   -2.9603 C   0  0  0  0  0  0  0  0  0  0  0  0
   -2.2310    3.1596   -1.5823 C   0  0  0  0  0  0  0  0  0  0  0  0
    1.0529   -2.4838    1.1445 C   0  0  0  0  0  0  0  0  0  0  0  0
    0.9404    3.6265    0.6551 C   0  0  0  0  0  0  0  0  0  0  0  0
    1.6088   -3.5447    0.2222 C   0  0  0  0  0  0  0  0  0  0  0  0
    1.6425    4.1787    1.8584 C   0  0  0  0  0  0  0  0  0  0  0  0
    3.1306   -3.4625    0.1094 C   0  0  0  0  0  0  0  0  0  0  0  0
    3.5787   -2.1317   -0.4366 C   0  0  0  0  0  0  0  0  0  0  0  0
    3.8455   -1.0748    0.4336 C   0  0  0  0  0  0  0  0  0  0  0  0
    3.7275   -1.9568   -1.8125 C   0  0  0  0  0  0  0  0  0  0  0  0
    4.2613    0.1571   -0.0719 C   0  0  0  0  0  0  0  0  0  0  0  0
    4.1432   -0.7248   -2.3180 C   0  0  0  0  0  0  0  0  0  0  0  0
    4.4101    0.3320   -1.4477 C   0  0  0  0  0  0  0  0  0  0  0  0
    4.3441    0.9188    2.1794 C   0  0  0  0  0  0  0  0  0  0  0  0
   -2.9621   -2.0281    0.2615 H   0  0  0  0  0  0  0  0  0  0  0  0
   -1.4135    0.8568    1.1213 H   0  0  0  0  0  0  0  0  0  0  0  0
   -3.3618    1.6184    1.3146 H   0  0  0  0  0  0  0  0  0  0  0  0
   -4.1721    2.0661   -0.1515 H   0  0  0  0  0  0  0  0  0  0  0  0
   -1.7210   -2.1959    2.1576 H   0  0  0  0  0  0  0  0  0  0  0  0
    0.2240   -0.2777    1.9723 H   0  0  0  0  0  0  0  0  0  0  0  0
   -2.0886    3.4503    0.5204 H   0  0  0  0  0  0  0  0  0  0  0  0
   -0.0053    2.0164   -0.9742 H   0  0  0  0  0  0  0  0  0  0  0  0
   -4.4363   -2.0261    2.2408 H   0  0  0  0  0  0  0  0  0  0  0  0
   -4.6549   -0.2812    2.0927 H   0  0  0  0  0  0  0  0  0  0  0  0
   -6.2523   -0.6325   -1.3927 H   0  0  0  0  0  0  0  0  0  0  0  0
   -5.8534    0.5753   -0.2090 H   0  0  0  0  0  0  0  0  0  0  0  0
   -5.4051   -2.4270    0.0442 H   0  0  0  0  0  0  0  0  0  0  0  0
   -6.5087   -1.4198    0.9705 H   0  0  0  0  0  0  0  0  0  0  0  0
   -4.6451   -1.2685   -3.0009 H   0  0  0  0  0  0  0  0  0  0  0  0
   -3.8015   -2.1905   -1.7660 H   0  0  0  0  0  0  0  0  0  0  0  0
   -0.4174   -0.4633   -2.3807 H   0  0  0  0  0  0  0  0  0  0  0  0
   -2.6843   -0.1364   -3.7243 H   0  0  0  0  0  0  0  0  0  0  0  0
   -2.2015   -1.8162   -3.4782 H   0  0  0  0  0  0  0  0  0  0  0  0
   -1.4490    3.8857   -1.8266 H   0  0  0  0  0  0  0  0  0  0  0  0
   -3.1941    3.6756   -1.6548 H   0  0  0  0  0  0  0  0  0  0  0  0
   -2.2139    2.3763   -2.3444 H   0  0  0  0  0  0  0  0  0  0  0  0
   -1.3774   -0.4767    3.5962 H   0  0  0  0  0  0  0  0  0  0  0  0
    1.1517   -3.4470   -0.7704 H   0  0  0  0  0  0  0  0  0  0  0  0
    1.3040   -4.5206    0.6157 H   0  0  0  0  0  0  0  0  0  0  0  0
    0.9083    4.5602    2.5722 H   0  0  0  0  0  0  0  0  0  0  0  0
    2.2946    5.0018    1.5522 H   0  0  0  0  0  0  0  0  0  0  0  0
    2.2582    3.4015    2.3176 H   0  0  0  0  0  0  0  0  0  0  0  0
    3.5932   -3.6305    1.0905 H   0  0  0  0  0  0  0  0  0  0  0  0
    3.4955   -4.2706   -0.5366 H   0  0  0  0  0  0  0  0  0  0  0  0
    3.7271   -1.2697    1.4936 H   0  0  0  0  0  0  0  0  0  0  0  0
    3.5206   -2.7721   -2.5006 H   0  0  0  0  0  0  0  0  0  0  0  0
    4.2544   -0.6021   -3.3920 H   0  0  0  0  0  0  0  0  0  0  0  0
    4.8620    1.4658   -2.9223 H   0  0  0  0  0  0  0  0  0  0  0  0
    4.5900    1.8420    2.7146 H   0  0  0  0  0  0  0  0  0  0  0  0
    5.0376    0.1504    2.5375 H   0  0  0  0  0  0  0  0  0  0  0  0
    3.3004    0.6840    2.4162 H   0  0  0  0  0  0  0  0  0  0  0  0
  1 15  1  0  0  0  0
  1 25  1  0  0  0  0
  2 14  1  0  0  0  0
  2 59  1  0  0  0  0
  3 17  1  0  0  0  0
  3 26  1  0  0  0  0
  4 25  2  0  0  0  0
  5 26  2  0  0  0  0
  6 33  1  0  0  0  0
  6 36  1  0  0  0  0
  7 35  1  0  0  0  0
  7 70  1  0  0  0  0
  8  9  1  0  0  0  0
  8 19  1  0  0  0  0
  8 21  1  0  0  0  0
  9 10  1  0  0  0  0
  9 12  1  0  0  0  0
  9 13  1  0  0  0  0
 10 14  1  0  0  0  0
 10 18  1  0  0  0  0
 10 37  1  0  0  0  0
 11 12  1  0  0  0  0
 11 15  1  0  0  0  0
 11 17  1  0  0  0  0
 11 38  1  0  0  0  0
 12 22  2  0  0  0  0
 13 16  1  0  0  0  0
 13 39  1  0  0  0  0
 13 40  1  0  0  0  0
 14 15  1  0  0  0  0
 14 41  1  0  0  0  0
 15 42  1  0  0  0  0
 16 17  1  0  0  0  0
 16 24  1  0  0  0  0
 16 43  1  0  0  0  0
 17 44  1  0  0  0  0
 18 20  1  0  0  0  0
 18 45  1  0  0  0  0
 18 46  1  0  0  0  0
 19 20  1  0  0  0  0
 19 47  1  0  0  0  0
 19 48  1  0  0  0  0
 20 49  1  0  0  0  0
 20 50  1  0  0  0  0
 21 23  1  0  0  0  0
 21 51  1  0  0  0  0
 21 52  1  0  0  0  0
 22 23  1  0  0  0  0
 22 53  1  0  0  0  0
 23 54  1  0  0  0  0
 23 55  1  0  0  0  0
 24 56  1  0  0  0  0
 24 57  1  0  0  0  0
 24 58  1  0  0  0  0
 25 27  1  0  0  0  0
 26 28  1  0  0  0  0
 27 29  1  0  0  0  0
 27 60  1  0  0  0  0
 27 61  1  0  0  0  0
 28 62  1  0  0  0  0
 28 63  1  0  0  0  0
 28 64  1  0  0  0  0
 29 30  1  0  0  0  0
 29 65  1  0  0  0  0
 29 66  1  0  0  0  0
 30 31  2  0  0  0  0
 30 32  1  0  0  0  0
 31 33  1  0  0  0  0
 31 67  1  0  0  0  0
 32 34  2  0  0  0  0
 32 68  1  0  0  0  0
 33 35  2  0  0  0  0
 34 35  1  0  0  0  0
 34 69  1  0  0  0  0
 36 71  1  0  0  0  0
 36 72  1  0  0  0  0
 36 73  1  0  0  0  0
M  END
> <PUBCHEM_COMPOUND_CID>
101458287

> <PUBCHEM_CONFORMER_RMSD>
1

> <PUBCHEM_CONFORMER_DIVERSEORDER>
2
33
45
56
35
76
36
84
43
5
78
74
30
57
22
66
1
59
46
40
8
47
48
70
81
27
65
34
37
12
89
79
51
60
88
4
53
62
7
13
20
41
15
58
87
10
75
32
16
50
67
85
82
39
31
25
18
14
71
63
77
52
28
17
55
9
23
83
11
3
29
42
49
69
21
19
38
44
72
86
61
26
73
80
54
24
6
64
68

> <PUBCHEM_MMFF94_PARTIAL_CHARGES>
36
1 -0.43
11 0.14
12 -0.28
14 0.28
15 0.28
17 0.28
19 0.27
2 -0.68
21 0.27
22 -0.29
23 0.14
25 0.66
26 0.66
27 0.06
28 0.06
29 0.14
3 -0.43
30 -0.14
31 -0.15
32 -0.15
33 0.08
34 -0.15
35 0.08
36 0.28
4 -0.57
5 -0.57
53 0.15
59 0.4
6 -0.36
67 0.15
68 0.15
69 0.15
7 -0.53
70 0.45
8 -0.81
9 0.41

> <PUBCHEM_EFFECTIVE_ROTOR_COUNT>
10

> <PUBCHEM_PHARMACOPHORE_FEATURES>
12
1 2 acceptor
1 2 donor
1 4 acceptor
1 5 acceptor
1 6 acceptor
1 7 donor
1 8 cation
6 30 31 32 33 34 35 rings
6 8 9 10 18 19 20 rings
6 8 9 12 21 22 23 rings
6 9 10 11 12 14 15 rings
6 9 11 12 13 16 17 rings

> <PUBCHEM_HEAVY_ATOM_COUNT>
36

> <PUBCHEM_ATOM_DEF_STEREO_COUNT>
7

> <PUBCHEM_ATOM_UDEF_STEREO_COUNT>
0

> <PUBCHEM_BOND_DEF_STEREO_COUNT>
0

> <PUBCHEM_BOND_UDEF_STEREO_COUNT>
0

> <PUBCHEM_ISOTOPIC_ATOM_COUNT>
0

> <PUBCHEM_COMPONENT_COUNT>
1

> <PUBCHEM_CACTVS_TAUTO_COUNT>
28

> <PUBCHEM_CONFORMER_ID>
060C216F00000002

> <PUBCHEM_MMFF94_ENERGY>
174.9965

> <PUBCHEM_FEATURE_SELFOVERLAP>
61.756

> <PUBCHEM_SHAPE_FINGERPRINT>
11578080 2 17271688781808308001
12107698 1 18268158565471252750
12156800 1 16158739171868308343
12166972 35 17531517690773462082
12422481 6 18058469659303132337
12522641 24 18126301959236483043
12788726 201 17761488097932310825
13224815 77 18186809045563404822
1361 2 18058725948248383820
13911987 19 18190197826436479438
14790565 3 17545320779207909585
14840074 17 18131079238042463399
161222 619 18121509217482495954
17349148 13 17530686476524688974
1813 80 17988637484978164607
19930381 70 18337112375005217442
20028762 73 16899617711093762783
20764821 26 18264500498748449728
23559900 14 18041282183726581725
463206 1 18128813230181167436
6669772 16 18052819435818337237
70251023 43 18270947042970349535
86090 222 18262801911770278963

> <PUBCHEM_SHAPE_MULTIPOLES>
694.8
10.45
4.45
2.56
0.9
3.8
-0.35
-3.4
-2.47
2.96
1.04
0
-0.47
0.86

> <PUBCHEM_SHAPE_SELFOVERLAP>
1483.048

> <PUBCHEM_SHAPE_VOLUME>
381.3

> <PUBCHEM_COORDINATE_TYPE>
2
5
10

$$$$
