101412231
  -OEChem-03292013293D

 57 58  0     1  0  0  0  0  0999 V2000
    2.6393   -0.3226    1.1055 O   0  0  0  0  0  0  0  0  0  0  0  0
    1.6264    1.7792    1.1069 O   0  0  0  0  0  0  0  0  0  0  0  0
    5.2581    0.7980   -1.8531 O   0  0  0  0  0  0  0  0  0  0  0  0
    4.8607   -2.0054   -1.2709 O   0  0  0  0  0  0  0  0  0  0  0  0
    2.7605    2.3031   -1.4323 O   0  0  0  0  0  0  0  0  0  0  0  0
   -4.3365   -3.0864   -0.9367 O   0  0  0  0  0  0  0  0  0  0  0  0
    2.3517   -2.8999    2.0170 O   0  0  0  0  0  0  0  0  0  0  0  0
   -2.5172    2.0242   -2.6760 O   0  0  0  0  0  0  0  0  0  0  0  0
   -4.0710    0.1836    0.7066 C   0  0  0  0  0  0  0  0  0  0  0  0
   -2.7912    0.6742   -0.0461 C   0  0  2  0  0  0  0  0  0  0  0  0
   -4.1280   -1.3571    0.7094 C   0  0  0  0  0  0  0  0  0  0  0  0
    4.0414    0.2604   -1.3324 C   0  0  1  0  0  0  0  0  0  0  0  0
    4.3929   -0.9379   -0.4507 C   0  0  1  0  0  0  0  0  0  0  0  0
    3.3091    1.3390   -0.5339 C   0  0  2  0  0  0  0  0  0  0  0  0
    3.1702   -1.4068    0.3413 C   0  0  1  0  0  0  0  0  0  0  0  0
   -2.6466    0.0103   -1.4054 C   0  0  0  0  0  0  0  0  0  0  0  0
    2.1648    0.7431    0.2861 C   0  0  1  0  0  0  0  0  0  0  0  0
   -5.3380    0.7473    0.0131 C   0  0  0  0  0  0  0  0  0  0  0  0
   -4.1010    0.6905    2.1651 C   0  0  0  0  0  0  0  0  0  0  0  0
   -1.5183    0.4860    0.7357 C   0  0  0  0  0  0  0  0  0  0  0  0
   -3.9249   -1.9589   -0.6655 C   0  0  0  0  0  0  0  0  0  0  0  0
   -3.1709   -1.1929   -1.6873 C   0  0  0  0  0  0  0  0  0  0  0  0
    0.5440    1.3028    1.9022 C   0  0  2  0  0  0  0  0  0  0  0  0
   -0.7233    1.4943    1.1226 C   0  0  0  0  0  0  0  0  0  0  0  0
    3.5234   -2.5264    1.3153 C   0  0  0  0  0  0  0  0  0  0  0  0
   -1.8844    0.7804   -2.4492 C   0  0  0  0  0  0  0  0  0  0  0  0
    0.5087    2.0779    3.2128 C   0  0  0  0  0  0  0  0  0  0  0  0
   -2.9350    1.7520   -0.2096 H   0  0  0  0  0  0  0  0  0  0  0  0
   -5.1016   -1.6945    1.0857 H   0  0  0  0  0  0  0  0  0  0  0  0
   -3.3564   -1.7793    1.3643 H   0  0  0  0  0  0  0  0  0  0  0  0
    3.4501   -0.0533   -2.2007 H   0  0  0  0  0  0  0  0  0  0  0  0
    5.2089   -0.6673    0.2306 H   0  0  0  0  0  0  0  0  0  0  0  0
    4.0085    1.8760    0.1177 H   0  0  0  0  0  0  0  0  0  0  0  0
    2.3834   -1.7773   -0.3301 H   0  0  0  0  0  0  0  0  0  0  0  0
    1.3724    0.3763   -0.3801 H   0  0  0  0  0  0  0  0  0  0  0  0
   -4.0111    1.7819    2.2051 H   0  0  0  0  0  0  0  0  0  0  0  0
   -5.0417    0.4163    2.6567 H   0  0  0  0  0  0  0  0  0  0  0  0
   -3.2917    0.2618    2.7658 H   0  0  0  0  0  0  0  0  0  0  0  0
   -5.4244    0.4317   -1.0311 H   0  0  0  0  0  0  0  0  0  0  0  0
   -6.2476    0.4162    0.5277 H   0  0  0  0  0  0  0  0  0  0  0  0
   -5.3344    1.8434    0.0250 H   0  0  0  0  0  0  0  0  0  0  0  0
   -1.2376   -0.5323    0.9966 H   0  0  0  0  0  0  0  0  0  0  0  0
   -3.0592   -1.6525   -2.6634 H   0  0  0  0  0  0  0  0  0  0  0  0
    0.6710    0.2467    2.1701 H   0  0  0  0  0  0  0  0  0  0  0  0
   -0.9914    2.5150    0.8594 H   0  0  0  0  0  0  0  0  0  0  0  0
    4.2584   -2.1850    2.0519 H   0  0  0  0  0  0  0  0  0  0  0  0
    3.9152   -3.4045    0.7931 H   0  0  0  0  0  0  0  0  0  0  0  0
   -1.8392    0.2408   -3.4013 H   0  0  0  0  0  0  0  0  0  0  0  0
   -0.8569    0.9605   -2.1161 H   0  0  0  0  0  0  0  0  0  0  0  0
    5.7991    1.1024   -1.1046 H   0  0  0  0  0  0  0  0  0  0  0  0
    4.1390   -2.2623   -1.8700 H   0  0  0  0  0  0  0  0  0  0  0  0
    2.1307    1.8471   -2.0163 H   0  0  0  0  0  0  0  0  0  0  0  0
    0.4139    3.1552    3.0341 H   0  0  0  0  0  0  0  0  0  0  0  0
    1.4457    1.9345    3.7622 H   0  0  0  0  0  0  0  0  0  0  0  0
   -0.3214    1.7553    3.8495 H   0  0  0  0  0  0  0  0  0  0  0  0
    2.6001   -3.6095    2.6336 H   0  0  0  0  0  0  0  0  0  0  0  0
   -1.9879    2.4998   -3.3387 H   0  0  0  0  0  0  0  0  0  0  0  0
  1 15  1  0  0  0  0
  1 17  1  0  0  0  0
  2 17  1  0  0  0  0
  2 23  1  0  0  0  0
  3 12  1  0  0  0  0
  3 50  1  0  0  0  0
  4 13  1  0  0  0  0
  4 51  1  0  0  0  0
  5 14  1  0  0  0  0
  5 52  1  0  0  0  0
  6 21  2  0  0  0  0
  7 25  1  0  0  0  0
  7 56  1  0  0  0  0
  8 26  1  0  0  0  0
  8 57  1  0  0  0  0
  9 10  1  0  0  0  0
  9 11  1  0  0  0  0
  9 18  1  0  0  0  0
  9 19  1  0  0  0  0
 10 16  1  0  0  0  0
 10 20  1  0  0  0  0
 10 28  1  0  0  0  0
 11 21  1  0  0  0  0
 11 29  1  0  0  0  0
 11 30  1  0  0  0  0
 12 13  1  0  0  0  0
 12 14  1  0  0  0  0
 12 31  1  0  0  0  0
 13 15  1  0  0  0  0
 13 32  1  0  0  0  0
 14 17  1  0  0  0  0
 14 33  1  0  0  0  0
 15 25  1  0  0  0  0
 15 34  1  0  0  0  0
 16 22  2  0  0  0  0
 16 26  1  0  0  0  0
 17 35  1  0  0  0  0
 18 39  1  0  0  0  0
 18 40  1  0  0  0  0
 18 41  1  0  0  0  0
 19 36  1  0  0  0  0
 19 37  1  0  0  0  0
 19 38  1  0  0  0  0
 20 24  2  0  0  0  0
 20 42  1  0  0  0  0
 21 22  1  0  0  0  0
 22 43  1  0  0  0  0
 23 24  1  0  0  0  0
 23 27  1  0  0  0  0
 23 44  1  0  0  0  0
 24 45  1  0  0  0  0
 25 46  1  0  0  0  0
 25 47  1  0  0  0  0
 26 48  1  0  0  0  0
 26 49  1  0  0  0  0
 27 53  1  0  0  0  0
 27 54  1  0  0  0  0
 27 55  1  0  0  0  0
M  END
> <PUBCHEM_COMPOUND_CID>
101412231

> <PUBCHEM_CONFORMER_RMSD>
1

> <PUBCHEM_CONFORMER_DIVERSEORDER>
1
13
36
104
40
42
37
75
95
63
53
110
14
8
100
87
50
25
89
101
49
64
82
51
80
70
86
62
91
34
98
16
9
107
94
48
99
77
27
76
102
23
93
92
4
60
103
59
109
30
26
3
31
65
58
41
105
97
108
57
44
45
111
106
21
66
17
61
24
71
38
43
10
54
5
33
96
83
112
68
6
78
20
74
81
39
73
19
72
85
84
28
11
46
15
113
7
18
79
29
55
69
88
2
47
67
12
90
52
56
22
32
35

> <PUBCHEM_MMFF94_PARTIAL_CHARGES>
31
1 -0.56
10 0.28
11 0.06
12 0.28
13 0.28
14 0.28
15 0.28
16 -0.28
17 0.56
2 -0.56
20 -0.29
21 0.49
22 -0.14
23 0.42
24 -0.29
25 0.28
26 0.42
3 -0.68
4 -0.68
42 0.15
43 0.15
45 0.15
5 -0.68
50 0.4
51 0.4
52 0.4
56 0.4
57 0.4
6 -0.57
7 -0.68
8 -0.68

> <PUBCHEM_EFFECTIVE_ROTOR_COUNT>
7.8

> <PUBCHEM_PHARMACOPHORE_FEATURES>
16
1 1 acceptor
1 2 acceptor
1 3 acceptor
1 3 donor
1 4 acceptor
1 4 donor
1 5 acceptor
1 5 donor
1 6 acceptor
1 7 acceptor
1 7 donor
1 8 acceptor
1 8 donor
3 9 18 19 hydrophobe
6 1 12 13 14 15 17 rings
6 9 10 11 16 21 22 rings

> <PUBCHEM_HEAVY_ATOM_COUNT>
27

> <PUBCHEM_ATOM_DEF_STEREO_COUNT>
7

> <PUBCHEM_ATOM_UDEF_STEREO_COUNT>
0

> <PUBCHEM_BOND_DEF_STEREO_COUNT>
1

> <PUBCHEM_BOND_UDEF_STEREO_COUNT>
0

> <PUBCHEM_ISOTOPIC_ATOM_COUNT>
0

> <PUBCHEM_COMPONENT_COUNT>
1

> <PUBCHEM_CACTVS_TAUTO_COUNT>
7

> <PUBCHEM_CONFORMER_ID>
060B6D8700000001

> <PUBCHEM_MMFF94_ENERGY>
61.8458

> <PUBCHEM_FEATURE_SELFOVERLAP>
81.263

> <PUBCHEM_SHAPE_FINGERPRINT>
10498660 4 14129052616847563309
10928967 22 18271518788463846743
11578080 2 18125980721152657928
11796584 16 18201727240497632781
11991303 11 16757710299237629928
12160290 23 17057241034607472528
12553582 1 17632291246525116400
12633257 1 17703803535026189819
12788726 201 18058744489269007208
13726171 33 16771017511826278576
13911987 19 17534661284996742348
14251757 17 17168147771857467328
15537594 2 18340498819353247027
17349148 13 14907897206718252613
17809404 112 17271685526017647895
19078846 21 17704071793644855481
21315759 227 18056740238538251331
21864079 5 8357976731437425483
22749437 52 12035716605296257651
235170 7 17240199949667665734
23557571 272 15864371158880492985
23559900 14 16630241497888001121
23598288 3 18129111017365190249
238 59 17531252755620875986
3004659 81 18341616984139858378
312425 83 17386275481282183646
339767 52 17704352143503495826
341906 21 13190339084503634998
633830 44 16660359247439521641
6523845 18 12614173954883558936
7808743 9 12758018843730097278
7970288 3 17918278636326523646
86090 222 17760354892492859419

> <PUBCHEM_SHAPE_MULTIPOLES>
508.69
11.52
2.86
2.64
1.79
0.59
-0.61
-5.64
-0.37
-0.71
1.5
1.3
-0.42
-1.02

> <PUBCHEM_SHAPE_SELFOVERLAP>
1039.045

> <PUBCHEM_SHAPE_VOLUME>
291.6

> <PUBCHEM_COORDINATE_TYPE>
2
5
10

$$$$
