101489519
  -OEChem-03292013293D

 64 65  0     1  0  0  0  0  0999 V2000
   -5.3549   -0.4575    1.4723 O   0  0  0  0  0  0  0  0  0  0  0  0
   -3.1346   -1.0314   -1.5222 O   0  0  0  0  0  0  0  0  0  0  0  0
    4.8723    1.5172    0.9538 O   0  0  0  0  0  0  0  0  0  0  0  0
    3.2161   -0.7466   -2.9459 O   0  0  0  0  0  0  0  0  0  0  0  0
    4.5846    1.6768    3.1975 O   0  0  0  0  0  0  0  0  0  0  0  0
    4.6443   -0.9578   -1.1980 O   0  0  0  0  0  0  0  0  0  0  0  0
   -1.9301    2.2009   -1.0520 N   0  0  0  0  0  0  0  0  0  0  0  0
   -2.0674   -1.7061    1.4621 N   0  0  0  0  0  0  0  0  0  0  0  0
    1.9322    1.2718    3.0620 N   0  0  0  0  0  0  0  0  0  0  0  0
    3.9795   -3.5557   -0.7776 N   0  0  0  0  0  0  0  0  0  0  0  0
   -1.5412    3.3950   -0.3433 C   0  0  0  0  0  0  0  0  0  0  0  0
   -0.0263    3.4641   -0.1646 C   0  0  0  0  0  0  0  0  0  0  0  0
    0.5792    2.3096    0.6449 C   0  0  0  0  0  0  0  0  0  0  0  0
   -0.2033   -2.3272   -0.0269 C   0  0  0  0  0  0  0  0  0  0  0  0
   -0.6321   -1.6474    1.2753 C   0  0  0  0  0  0  0  0  0  0  0  0
   -2.3537    1.0187   -0.4670 C   0  0  0  0  0  0  0  0  0  0  0  0
    1.3097   -2.2218   -0.2362 C   0  0  0  0  0  0  0  0  0  0  0  0
    2.0778    2.4586    0.9271 C   0  0  0  0  0  0  0  0  0  0  0  0
   -2.9625   -0.6887    1.2580 C   0  0  0  0  0  0  0  0  0  0  0  0
   -2.0527    2.0778   -2.4425 C   0  0  0  0  0  0  0  0  0  0  0  0
    1.7305   -2.8694   -1.5627 C   0  0  0  0  0  0  0  0  0  0  0  0
   -2.4734    0.6254    0.8033 C   0  0  0  0  0  0  0  0  0  0  0  0
   -2.7257    0.1109   -1.5911 C   0  0  0  0  0  0  0  0  0  0  0  0
    2.6373    1.3112    1.7782 C   0  0  1  0  0  0  0  0  0  0  0  0
   -2.5066    0.8761   -2.8395 C   0  0  0  0  0  0  0  0  0  0  0  0
    3.2429   -2.8552   -1.8291 C   0  0  1  0  0  0  0  0  0  0  0  0
   -2.7344   -2.8272    1.8823 C   0  0  0  0  0  0  0  0  0  0  0  0
   -4.2200   -1.1678    1.5519 C   0  0  0  0  0  0  0  0  0  0  0  0
   -1.7139    3.1967   -3.3677 C   0  0  0  0  0  0  0  0  0  0  0  0
   -4.0758   -2.5208    1.9467 C   0  0  0  0  0  0  0  0  0  0  0  0
    4.1123    1.5122    2.0796 C   0  0  0  0  0  0  0  0  0  0  0  0
    3.7898   -1.4423   -1.9286 C   0  0  0  0  0  0  0  0  0  0  0  0
   -1.8808    4.2909   -0.8764 H   0  0  0  0  0  0  0  0  0  0  0  0
   -2.0285    3.4448    0.6382 H   0  0  0  0  0  0  0  0  0  0  0  0
    0.4649    3.4994   -1.1443 H   0  0  0  0  0  0  0  0  0  0  0  0
    0.2146    4.4100    0.3364 H   0  0  0  0  0  0  0  0  0  0  0  0
    0.4286    1.3668    0.1085 H   0  0  0  0  0  0  0  0  0  0  0  0
    0.0249    2.2507    1.5865 H   0  0  0  0  0  0  0  0  0  0  0  0
   -0.5005   -3.3832   -0.0152 H   0  0  0  0  0  0  0  0  0  0  0  0
   -0.7154   -1.8662   -0.8775 H   0  0  0  0  0  0  0  0  0  0  0  0
   -0.1766   -2.1535    2.1356 H   0  0  0  0  0  0  0  0  0  0  0  0
   -0.2976   -0.6080    1.3126 H   0  0  0  0  0  0  0  0  0  0  0  0
    1.5991   -1.1656   -0.2391 H   0  0  0  0  0  0  0  0  0  0  0  0
    1.8228   -2.7015    0.6049 H   0  0  0  0  0  0  0  0  0  0  0  0
    2.6157    2.5037   -0.0283 H   0  0  0  0  0  0  0  0  0  0  0  0
    2.2633    3.4197    1.4252 H   0  0  0  0  0  0  0  0  0  0  0  0
    1.3805   -3.9102   -1.5771 H   0  0  0  0  0  0  0  0  0  0  0  0
    1.2114   -2.3605   -2.3849 H   0  0  0  0  0  0  0  0  0  0  0  0
   -2.2100    1.3104    1.6043 H   0  0  0  0  0  0  0  0  0  0  0  0
    2.5219    0.3456    1.2770 H   0  0  0  0  0  0  0  0  0  0  0  0
   -2.6941    0.5157   -3.8355 H   0  0  0  0  0  0  0  0  0  0  0  0
    3.4508   -3.3557   -2.7822 H   0  0  0  0  0  0  0  0  0  0  0  0
   -2.2070   -3.7462    2.1006 H   0  0  0  0  0  0  0  0  0  0  0  0
   -2.3538    4.0643   -3.1789 H   0  0  0  0  0  0  0  0  0  0  0  0
   -1.8562    2.9063   -4.4144 H   0  0  0  0  0  0  0  0  0  0  0  0
   -0.6686    3.4973   -3.2512 H   0  0  0  0  0  0  0  0  0  0  0  0
   -4.8613   -3.2004    2.2466 H   0  0  0  0  0  0  0  0  0  0  0  0
    2.3476    0.5524    3.6540 H   0  0  0  0  0  0  0  0  0  0  0  0
    0.9680    0.9749    2.9202 H   0  0  0  0  0  0  0  0  0  0  0  0
    4.9625   -3.6277   -1.0377 H   0  0  0  0  0  0  0  0  0  0  0  0
    3.6355   -4.5120   -0.6989 H   0  0  0  0  0  0  0  0  0  0  0  0
   -6.1137   -1.0099    1.7300 H   0  0  0  0  0  0  0  0  0  0  0  0
    5.8219    1.6593    1.1543 H   0  0  0  0  0  0  0  0  0  0  0  0
    3.5683    0.1669   -3.0076 H   0  0  0  0  0  0  0  0  0  0  0  0
  1 28  1  0  0  0  0
  1 62  1  0  0  0  0
  2 23  2  0  0  0  0
  3 31  1  0  0  0  0
  3 63  1  0  0  0  0
  4 32  1  0  0  0  0
  4 64  1  0  0  0  0
  5 31  2  0  0  0  0
  6 32  2  0  0  0  0
  7 11  1  0  0  0  0
  7 16  1  0  0  0  0
  7 20  1  0  0  0  0
  8 15  1  0  0  0  0
  8 19  1  0  0  0  0
  8 27  1  0  0  0  0
  9 24  1  0  0  0  0
  9 58  1  0  0  0  0
  9 59  1  0  0  0  0
 10 26  1  0  0  0  0
 10 60  1  0  0  0  0
 10 61  1  0  0  0  0
 11 12  1  0  0  0  0
 11 33  1  0  0  0  0
 11 34  1  0  0  0  0
 12 13  1  0  0  0  0
 12 35  1  0  0  0  0
 12 36  1  0  0  0  0
 13 18  1  0  0  0  0
 13 37  1  0  0  0  0
 13 38  1  0  0  0  0
 14 15  1  0  0  0  0
 14 17  1  0  0  0  0
 14 39  1  0  0  0  0
 14 40  1  0  0  0  0
 15 41  1  0  0  0  0
 15 42  1  0  0  0  0
 16 22  2  0  0  0  0
 16 23  1  0  0  0  0
 17 21  1  0  0  0  0
 17 43  1  0  0  0  0
 17 44  1  0  0  0  0
 18 24  1  0  0  0  0
 18 45  1  0  0  0  0
 18 46  1  0  0  0  0
 19 22  1  0  0  0  0
 19 28  2  0  0  0  0
 20 25  2  0  0  0  0
 20 29  1  0  0  0  0
 21 26  1  0  0  0  0
 21 47  1  0  0  0  0
 21 48  1  0  0  0  0
 22 49  1  0  0  0  0
 23 25  1  0  0  0  0
 24 31  1  0  0  0  0
 24 50  1  0  0  0  0
 25 51  1  0  0  0  0
 26 32  1  0  0  0  0
 26 52  1  0  0  0  0
 27 30  2  0  0  0  0
 27 53  1  0  0  0  0
 28 30  1  0  0  0  0
 29 54  1  0  0  0  0
 29 55  1  0  0  0  0
 29 56  1  0  0  0  0
 30 57  1  0  0  0  0
M  END
> <PUBCHEM_COMPOUND_CID>
101489519

> <PUBCHEM_CONFORMER_RMSD>
1.2

> <PUBCHEM_CONFORMER_DIVERSEORDER>
1
178
102
226
118
192
191
96
139
22
35
105
12
188
177
263
210
179
36
123
163
51
32
214
242
266
9
268
65
145
17
109
132
173
217
131
7
33
76
140
234
106
80
136
30
249
77
88
156
53
174
107
182
49
175
187
127
230
248
60
254
126
155
138
13
218
219
27
270
92
62
161
150
147
129
24
149
208
256
19
252
74
215
14
90
45
228
246
95
100
162
23
120
104
69
71
212
110
253
130
78
55
91
121
148
194
164
204
6
205
159
134
152
146
85
113
144
213
238
235
125
82
198
94
233
251
101
202
2
59
265
221
239
151
84
68
224
225
57
44
70
58
236
87
79
26
209
83
103
122
42
231
176
47
75
48
262
157
261
18
43
28
220
46
124
271
117
39
241
203
168
89
141
38
267
169
211
258
133
196
167
180
269
34
229
11
112
41
114
257
190
154
185
170
50
54
97
37
67
197
237
31
15
142
153
195
40
137
247
4
72
66
232
160
115
73
186
259
93
81
200
183
243
227
272
143
111
223
216
260
8
171
63
128
135
52
20
165
264
166
250
16
240
158
108
61
255
29
207
244
64
201
181
222
172
56
184
116
10
98
189
21
199
86
25
5
206
99
245
193
119
3

> <PUBCHEM_MMFF94_PARTIAL_CHARGES>
37
1 -0.51
10 -0.99
11 0.37
15 0.26
16 0.11
19 -0.2
2 -0.57
20 -0.04
22 -0.11
23 0.54
24 0.33
25 -0.14
26 0.33
27 -0.3
28 0.06
29 0.14
3 -0.65
30 -0.15
31 0.66
32 0.66
4 -0.65
49 0.15
5 -0.57
51 0.15
53 0.15
57 0.15
58 0.36
59 0.36
6 -0.57
60 0.36
61 0.36
62 0.45
63 0.5
64 0.5
7 -0.57
8 0.05
9 -0.99

> <PUBCHEM_EFFECTIVE_ROTOR_COUNT>
13.2

> <PUBCHEM_PHARMACOPHORE_FEATURES>
16
1 1 donor
1 10 cation
1 10 donor
1 2 acceptor
1 3 acceptor
1 4 acceptor
1 5 acceptor
1 6 acceptor
1 7 cation
1 8 cation
1 9 cation
1 9 donor
3 3 5 31 anion
3 4 6 32 anion
5 7 16 20 23 25 rings
5 8 19 27 28 30 rings

> <PUBCHEM_HEAVY_ATOM_COUNT>
32

> <PUBCHEM_ATOM_DEF_STEREO_COUNT>
2

> <PUBCHEM_ATOM_UDEF_STEREO_COUNT>
0

> <PUBCHEM_BOND_DEF_STEREO_COUNT>
1

> <PUBCHEM_BOND_UDEF_STEREO_COUNT>
0

> <PUBCHEM_ISOTOPIC_ATOM_COUNT>
0

> <PUBCHEM_COMPONENT_COUNT>
1

> <PUBCHEM_CACTVS_TAUTO_COUNT>
5

> <PUBCHEM_CONFORMER_ID>
060C9B6F00000001

> <PUBCHEM_MMFF94_ENERGY>
48.8395

> <PUBCHEM_FEATURE_SELFOVERLAP>
81.315

> <PUBCHEM_SHAPE_FINGERPRINT>
11763715 3 16807558720034185427
12128747 34 17915760698985453185
12156800 1 17531243920398303309
13111901 137 18338249236423012900
133893 2 17631996590557609298
13402501 40 18341626935922059122
13726171 33 18041856102594779028
14251757 17 18338243661328595898
14279260 333 17118061521537420374
14415361 192 16153993555512916919
15064986 96 18048332312217998385
17974551 9 17843711905298442161
19319366 153 16681200210844399248
20600515 1 17823424983863326139
23559900 14 17974596846525213667
4112364 45 16772417079265564947
469060 322 18053926626958447615
508706 21 18260539017929194068
574716 61 16415761950927770218

> <PUBCHEM_SHAPE_MULTIPOLES>
603.41
9.01
4.89
3.6
5.16
0.67
-0.57
-3.5
2.55
-0.09
-1.17
2.04
1.06
6.59

> <PUBCHEM_SHAPE_SELFOVERLAP>
1242.761

> <PUBCHEM_SHAPE_VOLUME>
346.1

> <PUBCHEM_COORDINATE_TYPE>
2
5
10

$$$$
