101447372
  -OEChem-03292013293D

 36 38  0     1  0  0  0  0  0999 V2000
    0.6384    1.2553   -0.2969 O   0  0  0  0  0  0  0  0  0  0  0  0
   -0.2743    0.1572    1.5882 O   0  0  0  0  0  0  0  0  0  0  0  0
   -1.9252    1.8471   -0.6800 O   0  0  0  0  0  0  0  0  0  0  0  0
    1.6795   -2.7058   -0.0126 O   0  0  0  0  0  0  0  0  0  0  0  0
    5.9827   -0.0168    0.2762 O   0  0  0  0  0  0  0  0  0  0  0  0
   -5.0569    0.3557    1.8247 O   0  0  0  0  0  0  0  0  0  0  0  0
   -0.0441   -1.0764   -0.5016 C   0  0  2  0  0  0  0  0  0  0  0  0
   -0.2942    0.2810    0.1677 C   0  0  2  0  0  0  0  0  0  0  0  0
   -1.1003   -2.1132   -0.1062 C   0  0  0  0  0  0  0  0  0  0  0  0
   -2.4988   -1.6286   -0.4935 C   0  0  0  0  0  0  0  0  0  0  0  0
   -2.8263   -0.2640    0.1195 C   0  0  1  0  0  0  0  0  0  0  0  0
   -1.7097    0.7343   -0.2009 C   0  0  0  0  0  0  0  0  0  0  0  0
    1.3604   -1.5315   -0.1523 C   0  0  0  0  0  0  0  0  0  0  0  0
    2.3664   -0.4528   -0.0575 C   0  0  0  0  0  0  0  0  0  0  0  0
   -4.1400    0.2510   -0.3714 C   0  0  0  0  0  0  0  0  0  0  0  0
    1.9491    0.8779   -0.1586 C   0  0  0  0  0  0  0  0  0  0  0  0
    3.7213   -0.7584    0.0955 C   0  0  0  0  0  0  0  0  0  0  0  0
    2.8954    1.9036   -0.1412 C   0  0  0  0  0  0  0  0  0  0  0  0
   -5.2064    0.5296    0.6209 C   0  0  0  0  0  0  0  0  0  0  0  0
   -4.4263    0.4814   -1.6585 C   0  0  0  0  0  0  0  0  0  0  0  0
    4.6602    0.2730    0.1308 C   0  0  0  0  0  0  0  0  0  0  0  0
    4.2491    1.6005    0.0079 C   0  0  0  0  0  0  0  0  0  0  0  0
   -0.0583   -0.9588   -1.5951 H   0  0  0  0  0  0  0  0  0  0  0  0
   -1.0588   -2.3183    0.9708 H   0  0  0  0  0  0  0  0  0  0  0  0
   -0.8995   -3.0669   -0.6095 H   0  0  0  0  0  0  0  0  0  0  0  0
   -3.2384   -2.3716   -0.1699 H   0  0  0  0  0  0  0  0  0  0  0  0
   -2.5488   -1.5919   -1.5894 H   0  0  0  0  0  0  0  0  0  0  0  0
   -2.8381   -0.3668    1.2111 H   0  0  0  0  0  0  0  0  0  0  0  0
   -0.6531    0.9707    1.9624 H   0  0  0  0  0  0  0  0  0  0  0  0
    4.0508   -1.7910    0.1760 H   0  0  0  0  0  0  0  0  0  0  0  0
    2.5856    2.9413   -0.2320 H   0  0  0  0  0  0  0  0  0  0  0  0
   -6.1590    0.9084    0.2134 H   0  0  0  0  0  0  0  0  0  0  0  0
   -3.6958    0.3066   -2.4417 H   0  0  0  0  0  0  0  0  0  0  0  0
   -5.3946    0.8561   -1.9749 H   0  0  0  0  0  0  0  0  0  0  0  0
    4.9799    2.4045    0.0286 H   0  0  0  0  0  0  0  0  0  0  0  0
    6.0889   -0.9811    0.3453 H   0  0  0  0  0  0  0  0  0  0  0  0
  1  8  1  0  0  0  0
  1 16  1  0  0  0  0
  2  8  1  0  0  0  0
  2 29  1  0  0  0  0
  3 12  2  0  0  0  0
  4 13  2  0  0  0  0
  5 21  1  0  0  0  0
  5 36  1  0  0  0  0
  6 19  2  0  0  0  0
  7  8  1  0  0  0  0
  7  9  1  0  0  0  0
  7 13  1  0  0  0  0
  7 23  1  0  0  0  0
  8 12  1  0  0  0  0
  9 10  1  0  0  0  0
  9 24  1  0  0  0  0
  9 25  1  0  0  0  0
 10 11  1  0  0  0  0
 10 26  1  0  0  0  0
 10 27  1  0  0  0  0
 11 12  1  0  0  0  0
 11 15  1  0  0  0  0
 11 28  1  0  0  0  0
 13 14  1  0  0  0  0
 14 16  2  0  0  0  0
 14 17  1  0  0  0  0
 15 19  1  0  0  0  0
 15 20  2  0  0  0  0
 16 18  1  0  0  0  0
 17 21  2  0  0  0  0
 17 30  1  0  0  0  0
 18 22  2  0  0  0  0
 18 31  1  0  0  0  0
 19 32  1  0  0  0  0
 20 33  1  0  0  0  0
 20 34  1  0  0  0  0
 21 22  1  0  0  0  0
 22 35  1  0  0  0  0
M  END
> <PUBCHEM_COMPOUND_CID>
101447372

> <PUBCHEM_CONFORMER_RMSD>
0.6

> <PUBCHEM_CONFORMER_DIVERSEORDER>
1
4
3
6
7
5
8
2

> <PUBCHEM_MMFF94_PARTIAL_CHARGES>
28
1 -0.36
11 0.2
12 0.45
13 0.42
14 0.09
15 -0.12
16 0.08
17 -0.15
18 -0.15
19 0.5
2 -0.68
20 -0.3
21 0.08
22 -0.15
29 0.4
3 -0.57
30 0.15
31 0.15
32 0.06
33 0.15
34 0.15
35 0.15
36 0.45
4 -0.57
5 -0.53
6 -0.57
7 0.06
8 0.62

> <PUBCHEM_EFFECTIVE_ROTOR_COUNT>
2.8

> <PUBCHEM_PHARMACOPHORE_FEATURES>
11
1 1 acceptor
1 2 acceptor
1 2 donor
1 20 hydrophobe
1 3 acceptor
1 4 acceptor
1 5 donor
1 6 acceptor
6 1 7 8 13 14 16 rings
6 14 16 17 18 21 22 rings
6 7 8 9 10 11 12 rings

> <PUBCHEM_HEAVY_ATOM_COUNT>
22

> <PUBCHEM_ATOM_DEF_STEREO_COUNT>
3

> <PUBCHEM_ATOM_UDEF_STEREO_COUNT>
0

> <PUBCHEM_BOND_DEF_STEREO_COUNT>
0

> <PUBCHEM_BOND_UDEF_STEREO_COUNT>
0

> <PUBCHEM_ISOTOPIC_ATOM_COUNT>
0

> <PUBCHEM_COMPONENT_COUNT>
1

> <PUBCHEM_CACTVS_TAUTO_COUNT>
171

> <PUBCHEM_CONFORMER_ID>
060BF6CC00000001

> <PUBCHEM_MMFF94_ENERGY>
47.3104

> <PUBCHEM_FEATURE_SELFOVERLAP>
55.92

> <PUBCHEM_SHAPE_FINGERPRINT>
10 15 18041554845462413272
10411042 1 17618785751939145919
10967382 1 18410290298646430318
11089746 13 17418087737150040440
11471102 20 18411412904207835966
11578080 2 13913763898139061476
11796584 16 14548744975714713348
12236239 1 17632858615999709820
12403259 415 18409158918493862380
12403814 3 18333165072843723053
12592029 89 18335984190503067986
12644460 14 18334857177804160842
12788726 201 17059786498720003489
13140716 1 18266181814634773873
13533116 47 17561082459217827294
13583140 156 16950551191147854501
13675066 3 17676206883600036269
14790565 3 18339650047763496612
15196674 1 18338795740487682326
15788980 27 17894907446961547429
16945 1 18410571768996046183
18186145 218 18413109471876436965
19784866 9 18413672404708128394
200 152 17846776321150077828
20645477 70 18410571756106019022
21033648 29 18114727300950985925
21033650 10 16700926862548885537
21267235 1 18409173186474868214
22182313 1 18115868508057331709
23227448 37 18338513144144888055
23402539 116 17989202650997632053
23536379 177 15913331277741068780
23559900 14 18129658733744605216
296302 2 18410292531765758071
335352 9 18411135840521345118
34934 24 18410285904663128719
350125 39 18409731790016721340
3545911 37 18408603668957269246
42630746 31 18342179946682841022
474 4 18408887364410894896
5104073 3 18338513174626111522
542803 24 17561084713094306881
58051976 378 18341890770950938678
59755656 215 18410294671266289174
633830 44 18130794498399893364
69090 78 18411132554280454694
7364860 26 18341895130712567814
9709674 26 18411140246604441846

> <PUBCHEM_SHAPE_MULTIPOLES>
417.53
10.67
2
1.01
0.24
0.74
-0.16
-3.09
-1.09
0.8
0.23
-1.39
-0.16
-0.12

> <PUBCHEM_SHAPE_SELFOVERLAP>
918.13

> <PUBCHEM_SHAPE_VOLUME>
220.5

> <PUBCHEM_COORDINATE_TYPE>
2
5
10

$$$$
