101412351
  -OEChem-03292013293D

 58 60  0     1  0  0  0  0  0999 V2000
   -4.1141   -3.6357    1.0417 Cl  0  0  0  0  0  0  0  0  0  0  0  0
   -2.2454    0.6977   -0.0991 O   0  0  0  0  0  0  0  0  0  0  0  0
   -3.3599    1.0802   -2.0971 O   0  0  0  0  0  0  0  0  0  0  0  0
   -0.4970   -1.0549   -0.0041 O   0  0  0  0  0  0  0  0  0  0  0  0
    1.2564    2.3373    2.0181 O   0  0  0  0  0  0  0  0  0  0  0  0
    3.9619   -0.5488    0.1128 O   0  0  0  0  0  0  0  0  0  0  0  0
    3.5265    2.5250    1.7854 O   0  0  0  0  0  0  0  0  0  0  0  0
    0.1811   -2.7717   -1.3815 O   0  0  0  0  0  0  0  0  0  0  0  0
   -1.3541   -4.5272   -0.1461 O   0  0  0  0  0  0  0  0  0  0  0  0
    5.5598   -0.6525   -1.5524 O   0  0  0  0  0  0  0  0  0  0  0  0
   -2.3828    1.6024   -1.1996 C   0  0  2  0  0  0  0  0  0  0  0  0
   -2.3495    1.3999    1.1305 C   0  0  2  0  0  0  0  0  0  0  0  0
   -1.0196    1.7317   -1.9229 C   0  0  1  0  0  0  0  0  0  0  0  0
   -2.8483    2.9433   -0.6155 C   0  0  0  0  0  0  0  0  0  0  0  0
   -3.2728    2.5708    0.7914 C   0  0  0  0  0  0  0  0  0  0  0  0
   -0.2316    0.4007   -2.0033 C   0  0  0  0  0  0  0  0  0  0  0  0
    0.3751   -0.1589   -0.6889 C   0  0  1  0  0  0  0  0  0  0  0  0
   -0.9965    1.8539    1.6395 C   0  0  0  0  0  0  0  0  0  0  0  0
   -2.9848    0.4702    2.1633 C   0  0  0  0  0  0  0  0  0  0  0  0
   -1.1838    2.3262   -3.3296 C   0  0  0  0  0  0  0  0  0  0  0  0
    0.9531    0.8473    0.2720 C   0  0  0  0  0  0  0  0  0  0  0  0
    0.2819    1.6338    1.2839 C   0  0  0  0  0  0  0  0  0  0  0  0
    2.2644    1.1110    0.3354 C   0  0  0  0  0  0  0  0  0  0  0  0
    2.4538    2.0607    1.4349 C   0  0  0  0  0  0  0  0  0  0  0  0
    3.4199    0.6306   -0.4643 C   0  0  0  0  0  0  0  0  0  0  0  0
   -0.4985   -2.3472   -0.4547 C   0  0  0  0  0  0  0  0  0  0  0  0
   -1.4682   -3.1985    0.3619 C   0  0  1  0  0  0  0  0  0  0  0  0
   -2.9018   -2.7180    0.1083 C   0  0  0  0  0  0  0  0  0  0  0  0
   -1.0617   -3.1958    1.8358 C   0  0  0  0  0  0  0  0  0  0  0  0
    5.0372   -1.0908   -0.5365 C   0  0  0  0  0  0  0  0  0  0  0  0
    5.4994   -2.3229    0.1807 C   0  0  0  0  0  0  0  0  0  0  0  0
   -0.3887    2.4375   -1.3702 H   0  0  0  0  0  0  0  0  0  0  0  0
   -3.6610    3.4084   -1.1823 H   0  0  0  0  0  0  0  0  0  0  0  0
   -2.0295    3.6697   -0.5570 H   0  0  0  0  0  0  0  0  0  0  0  0
   -3.2063    3.4103    1.4907 H   0  0  0  0  0  0  0  0  0  0  0  0
   -4.3194    2.2412    0.7637 H   0  0  0  0  0  0  0  0  0  0  0  0
    0.6113    0.5669   -2.6889 H   0  0  0  0  0  0  0  0  0  0  0  0
   -0.8660   -0.3611   -2.4734 H   0  0  0  0  0  0  0  0  0  0  0  0
    1.2282   -0.7652   -1.0222 H   0  0  0  0  0  0  0  0  0  0  0  0
   -1.1114    2.5300    2.4925 H   0  0  0  0  0  0  0  0  0  0  0  0
   -3.9265    0.0515    1.7906 H   0  0  0  0  0  0  0  0  0  0  0  0
   -3.1933    0.9953    3.1021 H   0  0  0  0  0  0  0  0  0  0  0  0
   -2.3325   -0.3764    2.3892 H   0  0  0  0  0  0  0  0  0  0  0  0
   -0.2051    2.5404   -3.7728 H   0  0  0  0  0  0  0  0  0  0  0  0
   -1.7427    3.2671   -3.2965 H   0  0  0  0  0  0  0  0  0  0  0  0
   -1.7073    1.6375   -4.0009 H   0  0  0  0  0  0  0  0  0  0  0  0
   -4.2396    1.3141   -1.7565 H   0  0  0  0  0  0  0  0  0  0  0  0
    4.1943    1.4060   -0.5129 H   0  0  0  0  0  0  0  0  0  0  0  0
    3.1078    0.4228   -1.4948 H   0  0  0  0  0  0  0  0  0  0  0  0
   -3.0352   -1.6696    0.3681 H   0  0  0  0  0  0  0  0  0  0  0  0
   -3.1681   -2.8381   -0.9474 H   0  0  0  0  0  0  0  0  0  0  0  0
   -1.6218   -3.9366    2.4156 H   0  0  0  0  0  0  0  0  0  0  0  0
   -1.1873   -2.2163    2.3011 H   0  0  0  0  0  0  0  0  0  0  0  0
   -0.0049   -3.4723    1.9366 H   0  0  0  0  0  0  0  0  0  0  0  0
   -2.0258   -5.0732    0.2974 H   0  0  0  0  0  0  0  0  0  0  0  0
    5.8077   -2.0658    1.1971 H   0  0  0  0  0  0  0  0  0  0  0  0
    6.3574   -2.7495   -0.3467 H   0  0  0  0  0  0  0  0  0  0  0  0
    4.6967   -3.0644    0.1973 H   0  0  0  0  0  0  0  0  0  0  0  0
  1 28  1  0  0  0  0
  2 11  1  0  0  0  0
  2 12  1  0  0  0  0
  3 11  1  0  0  0  0
  3 47  1  0  0  0  0
  4 17  1  0  0  0  0
  4 26  1  0  0  0  0
  5 22  1  0  0  0  0
  5 24  1  0  0  0  0
  6 25  1  0  0  0  0
  6 30  1  0  0  0  0
  7 24  2  0  0  0  0
  8 26  2  0  0  0  0
  9 27  1  0  0  0  0
  9 55  1  0  0  0  0
 10 30  2  0  0  0  0
 11 13  1  0  0  0  0
 11 14  1  0  0  0  0
 12 15  1  0  0  0  0
 12 18  1  0  0  0  0
 12 19  1  0  0  0  0
 13 16  1  0  0  0  0
 13 20  1  0  0  0  0
 13 32  1  0  0  0  0
 14 15  1  0  0  0  0
 14 33  1  0  0  0  0
 14 34  1  0  0  0  0
 15 35  1  0  0  0  0
 15 36  1  0  0  0  0
 16 17  1  0  0  0  0
 16 37  1  0  0  0  0
 16 38  1  0  0  0  0
 17 21  1  0  0  0  0
 17 39  1  0  0  0  0
 18 22  2  0  0  0  0
 18 40  1  0  0  0  0
 19 41  1  0  0  0  0
 19 42  1  0  0  0  0
 19 43  1  0  0  0  0
 20 44  1  0  0  0  0
 20 45  1  0  0  0  0
 20 46  1  0  0  0  0
 21 22  1  0  0  0  0
 21 23  2  0  0  0  0
 23 24  1  0  0  0  0
 23 25  1  0  0  0  0
 25 48  1  0  0  0  0
 25 49  1  0  0  0  0
 26 27  1  0  0  0  0
 27 28  1  0  0  0  0
 27 29  1  0  0  0  0
 28 50  1  0  0  0  0
 28 51  1  0  0  0  0
 29 52  1  0  0  0  0
 29 53  1  0  0  0  0
 29 54  1  0  0  0  0
 30 31  1  0  0  0  0
 31 56  1  0  0  0  0
 31 57  1  0  0  0  0
 31 58  1  0  0  0  0
M  END
> <PUBCHEM_COMPOUND_CID>
101412351

> <PUBCHEM_CONFORMER_RMSD>
1

> <PUBCHEM_CONFORMER_DIVERSEORDER>
2
31
33
29
40
26
8
35
10
25
7
12
20
30
38
28
17
15
37
13
36
14
39
18
24
32
34
23
9
19
21
16
27
5
11
22
3
1
6
4

> <PUBCHEM_MMFF94_PARTIAL_CHARGES>
27
1 -0.29
10 -0.57
11 0.56
12 0.42
17 0.42
18 -0.29
2 -0.56
21 -0.14
22 0.08
23 -0.12
24 0.71
25 0.42
26 0.66
27 0.34
28 0.29
3 -0.68
30 0.66
31 0.06
4 -0.43
40 0.15
47 0.4
5 -0.23
55 0.4
6 -0.43
7 -0.57
8 -0.57
9 -0.68

> <PUBCHEM_EFFECTIVE_ROTOR_COUNT>
8.4

> <PUBCHEM_PHARMACOPHORE_FEATURES>
10
1 10 acceptor
1 2 acceptor
1 3 acceptor
1 3 donor
1 7 acceptor
1 8 acceptor
1 9 acceptor
1 9 donor
5 2 11 12 14 15 rings
5 5 21 22 23 24 rings

> <PUBCHEM_HEAVY_ATOM_COUNT>
31

> <PUBCHEM_ATOM_DEF_STEREO_COUNT>
4

> <PUBCHEM_ATOM_UDEF_STEREO_COUNT>
1

> <PUBCHEM_BOND_DEF_STEREO_COUNT>
1

> <PUBCHEM_BOND_UDEF_STEREO_COUNT>
0

> <PUBCHEM_ISOTOPIC_ATOM_COUNT>
0

> <PUBCHEM_COMPONENT_COUNT>
1

> <PUBCHEM_CACTVS_TAUTO_COUNT>
2

> <PUBCHEM_CONFORMER_ID>
060B6DFF00000002

> <PUBCHEM_MMFF94_ENERGY>
78.6294

> <PUBCHEM_FEATURE_SELFOVERLAP>
50.806

> <PUBCHEM_SHAPE_FINGERPRINT>
10165383 225 18191594051342689949
10721379 63 17043951250526372669
10764073 3 17987542401730527331
10906281 52 17775008939049638888
11578080 2 18337956804848248668
12156800 1 17766044710362075933
12422481 6 18197523876860741483
12633257 1 17844277139994876483
12788726 201 17752758301761630537
131258 43 17543667526046508550
13140716 1 18059586796980618152
13681431 1 16966858876674712629
15209289 33 18059573521231593200
1813 80 17608081293271971595
20739085 24 17043443713982423961
34934 24 17199386988583300008
350125 39 18410863148462733987
35225 105 17904158789827710579
4058900 60 17977955574922248665
469060 322 17678169597475413777
5845 1 17476337874456224557
81228 2 18044364161330388441

> <PUBCHEM_SHAPE_MULTIPOLES>
587.01
7.91
5.04
2.37
12.47
5.21
0.78
3.01
-0.08
-4.37
-0.54
-0.83
-1.91
2.01

> <PUBCHEM_SHAPE_SELFOVERLAP>
1232.031

> <PUBCHEM_SHAPE_VOLUME>
330.2

> <PUBCHEM_COORDINATE_TYPE>
2
5
10

$$$$
