101407485
  -OEChem-03292013293D

 73 74  0     1  0  0  0  0  0999 V2000
    5.4974   -0.9311    2.0355 O   0  0  0  0  0  0  0  0  0  0  0  0
    0.8448    2.5971    1.9113 O   0  0  0  0  0  0  0  0  0  0  0  0
    4.2046    2.1131    2.0698 O   0  0  0  0  0  0  0  0  0  0  0  0
   -0.9909    0.8880   -1.1098 O   0  0  0  0  0  0  0  0  0  0  0  0
    2.6182   -2.7474    0.3068 O   0  0  0  0  0  0  0  0  0  0  0  0
   -0.1437    2.3328   -2.6990 O   0  0  0  0  0  0  0  0  0  0  0  0
    2.4487   -3.1252   -1.9676 O   0  0  0  0  0  0  0  0  0  0  0  0
    2.6154    2.3841    0.2388 C   0  0  0  0  0  0  0  0  0  0  0  0
    3.4042    0.0288    1.1895 C   0  0  2  0  0  0  0  0  0  0  0  0
    4.8050   -0.5393    0.8512 C   0  0  2  0  0  0  0  0  0  0  0  0
    3.4795    1.5612    1.2363 C   0  0  0  0  0  0  0  0  0  0  0  0
    1.1088    2.1564    0.5724 C   0  0  2  0  0  0  0  0  0  0  0  0
    4.8033   -1.7165   -0.1637 C   0  0  2  0  0  0  0  0  0  0  0  0
    2.9564    1.9453   -1.1962 C   0  0  0  0  0  0  0  0  0  0  0  0
    3.0229    3.8692    0.3789 C   0  0  0  0  0  0  0  0  0  0  0  0
    0.0929    2.8425   -0.3530 C   0  0  0  0  0  0  0  0  0  0  0  0
    2.8173   -0.4588    2.5167 C   0  0  0  0  0  0  0  0  0  0  0  0
    4.0397   -2.9720    0.3004 C   0  0  0  0  0  0  0  0  0  0  0  0
    6.2453   -2.1169   -0.5057 C   0  0  0  0  0  0  0  0  0  0  0  0
   -0.3321    2.0033   -1.5351 C   0  0  0  0  0  0  0  0  0  0  0  0
   -1.5994    0.0414   -2.1130 C   0  0  2  0  0  0  0  0  0  0  0  0
   -3.0447    0.4968   -2.2884 C   0  0  2  0  0  0  0  0  0  0  0  0
   -1.5427   -1.4080   -1.6129 C   0  0  0  0  0  0  0  0  0  0  0  0
   -3.0972    1.9365   -2.8018 C   0  0  0  0  0  0  0  0  0  0  0  0
   -3.7918    0.3840   -0.9807 C   0  0  0  0  0  0  0  0  0  0  0  0
   -0.1496   -1.9627   -1.7250 C   0  0  0  0  0  0  0  0  0  0  0  0
    1.9762   -2.7987   -0.8907 C   0  0  0  0  0  0  0  0  0  0  0  0
    0.5965   -2.3164   -0.6709 C   0  0  0  0  0  0  0  0  0  0  0  0
   -4.8684   -0.3998   -0.8106 C   0  0  0  0  0  0  0  0  0  0  0  0
   -5.6221   -0.5443    0.4457 C   0  0  0  0  0  0  0  0  0  0  0  0
   -5.0295   -0.1937    1.6588 C   0  0  0  0  0  0  0  0  0  0  0  0
   -6.9286   -1.0319    0.4230 C   0  0  0  0  0  0  0  0  0  0  0  0
   -5.7435   -0.3307    2.8492 C   0  0  0  0  0  0  0  0  0  0  0  0
   -7.6428   -1.1689    1.6133 C   0  0  0  0  0  0  0  0  0  0  0  0
   -7.0501   -0.8183    2.8265 C   0  0  0  0  0  0  0  0  0  0  0  0
    2.7133   -0.2338    0.3869 H   0  0  0  0  0  0  0  0  0  0  0  0
    5.4092    0.2566    0.3952 H   0  0  0  0  0  0  0  0  0  0  0  0
    0.9091    1.0793    0.5766 H   0  0  0  0  0  0  0  0  0  0  0  0
    4.3381   -1.3410   -1.0842 H   0  0  0  0  0  0  0  0  0  0  0  0
    4.0414    1.8921   -1.3440 H   0  0  0  0  0  0  0  0  0  0  0  0
    2.5480    0.9576   -1.4332 H   0  0  0  0  0  0  0  0  0  0  0  0
    2.7996    4.2566    1.3792 H   0  0  0  0  0  0  0  0  0  0  0  0
    4.0997    3.9984    0.2151 H   0  0  0  0  0  0  0  0  0  0  0  0
    2.5093    4.5062   -0.3476 H   0  0  0  0  0  0  0  0  0  0  0  0
    2.5595    2.6484   -1.9363 H   0  0  0  0  0  0  0  0  0  0  0  0
    0.4721    3.7970   -0.7304 H   0  0  0  0  0  0  0  0  0  0  0  0
   -0.8244    3.0995    0.1931 H   0  0  0  0  0  0  0  0  0  0  0  0
    3.3804   -0.0805    3.3770 H   0  0  0  0  0  0  0  0  0  0  0  0
    2.8018   -1.5497    2.5792 H   0  0  0  0  0  0  0  0  0  0  0  0
    1.7872   -0.1049    2.6331 H   0  0  0  0  0  0  0  0  0  0  0  0
    4.2607   -3.8353   -0.3395 H   0  0  0  0  0  0  0  0  0  0  0  0
    4.3308   -3.2522    1.3184 H   0  0  0  0  0  0  0  0  0  0  0  0
    6.7617   -2.5458    0.3596 H   0  0  0  0  0  0  0  0  0  0  0  0
    6.8196   -1.2510   -0.8517 H   0  0  0  0  0  0  0  0  0  0  0  0
    6.2587   -2.8625   -1.3081 H   0  0  0  0  0  0  0  0  0  0  0  0
    5.6051   -0.1369    2.5863 H   0  0  0  0  0  0  0  0  0  0  0  0
   -0.0577    2.3167    2.1406 H   0  0  0  0  0  0  0  0  0  0  0  0
   -1.0597    0.1221   -3.0660 H   0  0  0  0  0  0  0  0  0  0  0  0
   -3.5182   -0.1412   -3.0465 H   0  0  0  0  0  0  0  0  0  0  0  0
   -2.2013   -2.0458   -2.2146 H   0  0  0  0  0  0  0  0  0  0  0  0
   -1.8748   -1.4758   -0.5696 H   0  0  0  0  0  0  0  0  0  0  0  0
   -2.7897    2.6741   -2.0542 H   0  0  0  0  0  0  0  0  0  0  0  0
   -2.4944    2.0603   -3.7071 H   0  0  0  0  0  0  0  0  0  0  0  0
   -4.1288    2.1919   -3.0747 H   0  0  0  0  0  0  0  0  0  0  0  0
   -3.4242    1.0071   -0.1700 H   0  0  0  0  0  0  0  0  0  0  0  0
    0.2452   -2.0580   -2.7338 H   0  0  0  0  0  0  0  0  0  0  0  0
    0.2330   -2.2129    0.3455 H   0  0  0  0  0  0  0  0  0  0  0  0
   -5.2348   -0.9866   -1.6498 H   0  0  0  0  0  0  0  0  0  0  0  0
   -4.0082    0.1692    1.7273 H   0  0  0  0  0  0  0  0  0  0  0  0
   -7.4068   -1.3090   -0.5134 H   0  0  0  0  0  0  0  0  0  0  0  0
   -5.2809   -0.0627    3.7947 H   0  0  0  0  0  0  0  0  0  0  0  0
   -8.6603   -1.5485    1.5959 H   0  0  0  0  0  0  0  0  0  0  0  0
   -7.6058   -0.9261    3.7534 H   0  0  0  0  0  0  0  0  0  0  0  0
  1 10  1  0  0  0  0
  1 56  1  0  0  0  0
  2 12  1  0  0  0  0
  2 57  1  0  0  0  0
  3 11  2  0  0  0  0
  4 20  1  0  0  0  0
  4 21  1  0  0  0  0
  5 18  1  0  0  0  0
  5 27  1  0  0  0  0
  6 20  2  0  0  0  0
  7 27  2  0  0  0  0
  8 11  1  0  0  0  0
  8 12  1  0  0  0  0
  8 14  1  0  0  0  0
  8 15  1  0  0  0  0
  9 10  1  0  0  0  0
  9 11  1  0  0  0  0
  9 17  1  0  0  0  0
  9 36  1  0  0  0  0
 10 13  1  0  0  0  0
 10 37  1  0  0  0  0
 12 16  1  0  0  0  0
 12 38  1  0  0  0  0
 13 18  1  0  0  0  0
 13 19  1  0  0  0  0
 13 39  1  0  0  0  0
 14 40  1  0  0  0  0
 14 41  1  0  0  0  0
 14 45  1  0  0  0  0
 15 42  1  0  0  0  0
 15 43  1  0  0  0  0
 15 44  1  0  0  0  0
 16 20  1  0  0  0  0
 16 46  1  0  0  0  0
 16 47  1  0  0  0  0
 17 48  1  0  0  0  0
 17 49  1  0  0  0  0
 17 50  1  0  0  0  0
 18 51  1  0  0  0  0
 18 52  1  0  0  0  0
 19 53  1  0  0  0  0
 19 54  1  0  0  0  0
 19 55  1  0  0  0  0
 21 22  1  0  0  0  0
 21 23  1  0  0  0  0
 21 58  1  0  0  0  0
 22 24  1  0  0  0  0
 22 25  1  0  0  0  0
 22 59  1  0  0  0  0
 23 26  1  0  0  0  0
 23 60  1  0  0  0  0
 23 61  1  0  0  0  0
 24 62  1  0  0  0  0
 24 63  1  0  0  0  0
 24 64  1  0  0  0  0
 25 29  2  0  0  0  0
 25 65  1  0  0  0  0
 26 28  2  0  0  0  0
 26 66  1  0  0  0  0
 27 28  1  0  0  0  0
 28 67  1  0  0  0  0
 29 30  1  0  0  0  0
 29 68  1  0  0  0  0
 30 31  2  0  0  0  0
 30 32  1  0  0  0  0
 31 33  1  0  0  0  0
 31 69  1  0  0  0  0
 32 34  2  0  0  0  0
 32 70  1  0  0  0  0
 33 35  2  0  0  0  0
 33 71  1  0  0  0  0
 34 35  1  0  0  0  0
 34 72  1  0  0  0  0
 35 73  1  0  0  0  0
M  END
> <PUBCHEM_COMPOUND_CID>
101407485

> <PUBCHEM_CONFORMER_RMSD>
0.8

> <PUBCHEM_CONFORMER_DIVERSEORDER>
1
31
30
27
37
43
45
48
10
54
58
19
39
41
63
28
56
46
6
18
38
44
29
14
13
49
33
25
61
3
5
8
40
21
52
23
50
66
64
20
15
7
55
47
12
2
9
60
34
35
59
16
51
24
57
22
42
36
26
17
32
65
11
53
62
4

> <PUBCHEM_MMFF94_PARTIAL_CHARGES>
40
1 -0.68
10 0.28
11 0.45
12 0.28
16 0.06
18 0.28
2 -0.68
20 0.66
21 0.28
22 0.14
23 0.14
25 -0.29
26 -0.29
27 0.71
28 -0.14
29 -0.18
3 -0.57
30 0.03
31 -0.15
32 -0.15
33 -0.15
34 -0.15
35 -0.15
4 -0.43
5 -0.43
56 0.4
57 0.4
6 -0.57
65 0.15
66 0.15
67 0.15
68 0.15
69 0.15
7 -0.57
70 0.15
71 0.15
72 0.15
73 0.15
8 0.06
9 0.06

> <PUBCHEM_EFFECTIVE_ROTOR_COUNT>
5.2

> <PUBCHEM_PHARMACOPHORE_FEATURES>
10
1 1 acceptor
1 1 donor
1 2 acceptor
1 2 donor
1 24 hydrophobe
1 3 acceptor
1 6 acceptor
1 7 acceptor
3 8 14 15 hydrophobe
6 30 31 32 33 34 35 rings

> <PUBCHEM_HEAVY_ATOM_COUNT>
35

> <PUBCHEM_ATOM_DEF_STEREO_COUNT>
6

> <PUBCHEM_ATOM_UDEF_STEREO_COUNT>
0

> <PUBCHEM_BOND_DEF_STEREO_COUNT>
2

> <PUBCHEM_BOND_UDEF_STEREO_COUNT>
0

> <PUBCHEM_ISOTOPIC_ATOM_COUNT>
0

> <PUBCHEM_COMPONENT_COUNT>
1

> <PUBCHEM_CACTVS_TAUTO_COUNT>
12

> <PUBCHEM_CONFORMER_ID>
060B5AFD00000001

> <PUBCHEM_MMFF94_ENERGY>
90.6755

> <PUBCHEM_FEATURE_SELFOVERLAP>
50.748

> <PUBCHEM_SHAPE_FINGERPRINT>
10169797 241 18187635917272986936
10556698 54 11095063448969499099
10838868 217 17409667454299879521
10981352 41 17896042199740551547
11399939 17 17901957670718464279
12373685 5 18270683182404164359
12422481 6 18410008862556625103
12539765 74 14131623408789610311
12661589 4 15504087673285531299
12778500 126 15769779022639588846
13075007 39 18187081767232742359
13782708 43 17967248702700258443
14020679 6 17832424199159459597
14114211 80 17986669484129902230
14363568 33 18410283718978475388
14765038 42 17986381399061645624
14931854 50 8862385413632107626
15406563 5 18058460816123700409
15669420 48 17895203212375854580
15721738 202 17604159172535350318
16090146 7 16844139330820575919
16989378 47 14201687519758900691
20775438 99 12035735361239696008
21421861 104 17988928876987103364
21458453 9 18188783871848236219
21796203 349 18339347631254050312
3459 39 14836125425673848081
392239 28 18340759395156615551
394071 54 17988923340774174759
4435113 14 18040720234294597641
7918774 8 17675925395960177737
86090 222 17894351098737007363

> <PUBCHEM_SHAPE_MULTIPOLES>
679.2
16.22
4.01
3.02
23.67
1.1
-0.32
-9.35
-12.13
-6.08
0.94
2.84
0.44
2.95

> <PUBCHEM_SHAPE_SELFOVERLAP>
1391.349

> <PUBCHEM_SHAPE_VOLUME>
386.1

> <PUBCHEM_COORDINATE_TYPE>
2
5
10

$$$$
