101431035
  -OEChem-03292013293D

 43 43  0     1  0  0  0  0  0999 V2000
   -6.2226    1.9592    0.2635 Br  0  0  0  0  0  0  0  0  0  0  0  0
   -0.4649   -2.6081    0.5718 O   0  0  0  0  0  0  0  0  0  0  0  0
   -0.6544    0.1661    0.4342 O   0  0  0  0  0  0  0  0  0  0  0  0
   -1.2992    0.9199   -1.6374 O   0  0  0  0  0  0  0  0  0  0  0  0
    4.0839    1.2266   -2.0873 O   0  5  0  0  0  0  0  0  0  0  0  0
    3.6975   -0.7021   -1.1125 O   0  0  0  0  0  0  0  0  0  0  0  0
   -3.6360    2.4830   -1.4664 O   0  0  0  0  0  0  0  0  0  0  0  0
    2.3505    0.7511    0.9525 N   0  0  0  0  0  0  0  0  0  0  0  0
    3.7445    2.4042    0.4465 N   0  0  0  0  0  0  0  0  0  0  0  0
    3.7024    0.5623   -1.0809 N   0  3  0  0  0  0  0  0  0  0  0  0
   -2.5012    1.4442    0.2870 N   0  0  0  0  0  0  0  0  0  0  0  0
   -0.8849   -3.9218    0.2328 C   0  0  0  0  0  0  0  0  0  0  0  0
    0.4623   -0.5019   -0.1635 C   0  0  2  0  0  0  0  0  0  0  0  0
    0.0214   -1.9068   -0.5680 C   0  0  0  0  0  0  0  0  0  0  0  0
    1.6019   -0.5575    0.8591 C   0  0  0  0  0  0  0  0  0  0  0  0
    0.3093   -4.6803   -0.3445 C   0  0  0  0  0  0  0  0  0  0  0  0
   -1.3789   -4.5916    1.5133 C   0  0  0  0  0  0  0  0  0  0  0  0
   -2.0141   -3.8223   -0.7916 C   0  0  0  0  0  0  0  0  0  0  0  0
    3.2830    1.2306    0.0752 C   0  0  0  0  0  0  0  0  0  0  0  0
    2.2083    1.6780    1.9464 C   0  0  0  0  0  0  0  0  0  0  0  0
    3.0785    2.6888    1.6123 C   0  0  0  0  0  0  0  0  0  0  0  0
   -1.4681    0.8500   -0.4246 C   0  0  0  0  0  0  0  0  0  0  0  0
   -3.5159    2.2194   -0.2715 C   0  0  0  0  0  0  0  0  0  0  0  0
   -4.5034    2.7089    0.7535 C   0  0  0  0  0  0  0  0  0  0  0  0
    0.8063    0.0353   -1.0558 H   0  0  0  0  0  0  0  0  0  0  0  0
   -0.7632   -1.7886   -1.3195 H   0  0  0  0  0  0  0  0  0  0  0  0
    0.8873   -2.3974   -1.0204 H   0  0  0  0  0  0  0  0  0  0  0  0
    2.3468   -1.3311    0.6610 H   0  0  0  0  0  0  0  0  0  0  0  0
    1.2134   -0.7271    1.8714 H   0  0  0  0  0  0  0  0  0  0  0  0
   -2.2047   -4.0224    1.9556 H   0  0  0  0  0  0  0  0  0  0  0  0
   -2.5403   -4.7801   -0.8796 H   0  0  0  0  0  0  0  0  0  0  0  0
   -1.6625   -3.5808   -1.8003 H   0  0  0  0  0  0  0  0  0  0  0  0
   -1.7222   -5.6153    1.3319 H   0  0  0  0  0  0  0  0  0  0  0  0
   -2.7469   -3.0595   -0.5041 H   0  0  0  0  0  0  0  0  0  0  0  0
    0.1068   -5.7576   -0.3675 H   0  0  0  0  0  0  0  0  0  0  0  0
    1.2120   -4.5193    0.2560 H   0  0  0  0  0  0  0  0  0  0  0  0
    0.5424   -4.3985   -1.3768 H   0  0  0  0  0  0  0  0  0  0  0  0
   -0.5843   -4.6211    2.2677 H   0  0  0  0  0  0  0  0  0  0  0  0
    1.5253    1.5467    2.7739 H   0  0  0  0  0  0  0  0  0  0  0  0
    3.2588    3.6072    2.1515 H   0  0  0  0  0  0  0  0  0  0  0  0
   -2.5021    1.2905    1.2916 H   0  0  0  0  0  0  0  0  0  0  0  0
   -4.2783    2.3795    1.7695 H   0  0  0  0  0  0  0  0  0  0  0  0
   -4.5802    3.7975    0.7151 H   0  0  0  0  0  0  0  0  0  0  0  0
  1 24  1  0  0  0  0
  2 12  1  0  0  0  0
  2 14  1  0  0  0  0
  3 13  1  0  0  0  0
  3 22  1  0  0  0  0
  4 22  2  0  0  0  0
  5 10  1  0  0  0  0
  6 10  2  0  0  0  0
  7 23  2  0  0  0  0
  8 15  1  0  0  0  0
  8 19  1  0  0  0  0
  8 20  1  0  0  0  0
  9 19  2  0  0  0  0
  9 21  1  0  0  0  0
 10 19  1  0  0  0  0
 11 22  1  0  0  0  0
 11 23  1  0  0  0  0
 11 41  1  0  0  0  0
 12 16  1  0  0  0  0
 12 17  1  0  0  0  0
 12 18  1  0  0  0  0
 13 14  1  0  0  0  0
 13 15  1  0  0  0  0
 13 25  1  0  0  0  0
 14 26  1  0  0  0  0
 14 27  1  0  0  0  0
 15 28  1  0  0  0  0
 15 29  1  0  0  0  0
 16 35  1  0  0  0  0
 16 36  1  0  0  0  0
 16 37  1  0  0  0  0
 17 30  1  0  0  0  0
 17 33  1  0  0  0  0
 17 38  1  0  0  0  0
 18 31  1  0  0  0  0
 18 32  1  0  0  0  0
 18 34  1  0  0  0  0
 20 21  2  0  0  0  0
 20 39  1  0  0  0  0
 21 40  1  0  0  0  0
 23 24  1  0  0  0  0
 24 42  1  0  0  0  0
 24 43  1  0  0  0  0
M  CHG  2   5  -1  10   1
M  END
> <PUBCHEM_COMPOUND_CID>
101431035

> <PUBCHEM_CONFORMER_RMSD>
1

> <PUBCHEM_CONFORMER_DIVERSEORDER>
1
24
83
22
47
104
73
125
34
55
110
77
51
21
36
70
67
17
58
56
68
33
106
96
109
57
43
29
81
71
112
108
63
98
122
82
31
14
123
91
8
62
37
121
105
12
38
120
48
102
30
117
103
66
84
46
23
92
27
99
69
97
111
10
76
124
42
45
89
28
87
95
15
16
61
9
93
86
114
107
72
26
32
5
119
60
88
52
40
18
85
75
25
59
65
116
94
115
118
90
113
44
41
101
35
80
49
53
79
6
100
4
74
39
7
54
2
78
20
64
19
3
13
50
11

> <PUBCHEM_MMFF94_PARTIAL_CHARGES>
24
1 -0.23
10 0.96
11 -0.49
12 0.28
13 0.28
14 0.28
15 0.26
19 0.27
2 -0.56
20 -0.3
21 0.08
22 0.78
23 0.57
24 0.29
3 -0.43
39 0.15
4 -0.57
40 0.15
41 0.37
5 -0.52
6 -0.52
7 -0.57
8 0.05
9 -0.57

> <PUBCHEM_EFFECTIVE_ROTOR_COUNT>
11

> <PUBCHEM_PHARMACOPHORE_FEATURES>
10
1 1 hydrophobe
1 11 donor
1 2 acceptor
1 4 acceptor
1 5 acceptor
1 6 acceptor
1 7 acceptor
4 12 16 17 18 hydrophobe
4 8 9 10 19 cation
5 8 9 19 20 21 rings

> <PUBCHEM_HEAVY_ATOM_COUNT>
24

> <PUBCHEM_ATOM_DEF_STEREO_COUNT>
0

> <PUBCHEM_ATOM_UDEF_STEREO_COUNT>
1

> <PUBCHEM_BOND_DEF_STEREO_COUNT>
0

> <PUBCHEM_BOND_UDEF_STEREO_COUNT>
0

> <PUBCHEM_ISOTOPIC_ATOM_COUNT>
0

> <PUBCHEM_COMPONENT_COUNT>
1

> <PUBCHEM_CACTVS_TAUTO_COUNT>
3

> <PUBCHEM_CONFORMER_ID>
060BB6FB00000001

> <PUBCHEM_MMFF94_ENERGY>
56.7603

> <PUBCHEM_FEATURE_SELFOVERLAP>
50.832

> <PUBCHEM_SHAPE_FINGERPRINT>
10165383 225 18335996267851065948
12160290 23 18116699910551897047
12730499 353 18339089168696234985
12788726 201 17757266355317436328
13533116 47 18052256194946902001
13540713 4 17987241221771209008
13681431 1 17400350153377377067
13955234 65 18122905327041482233
14955137 171 17978218362280048474
17868525 174 17258774824736406745
1813 80 17400930094490830074
18785283 64 18046346331930219851
20600515 1 16960956114442108210
21049683 118 18267559425901381937
21049683 271 17759257201397777887
21796203 349 17476386915258532731
2255824 54 17981880844402219583
23557571 272 17905033004656373094
23558518 356 18339630260964929350
23559900 14 17762043351774258113
23845131 108 18410001136021066993
3178227 256 18194969539128167147
458136 41 18265618676182884741
57527585 21 17481405497837720548
59755656 520 18336817658802809428
621550 34 17337591602270741632
633830 44 17988352694361041653
6442390 28 18410294709646538465
7399639 24 17265527419790268856
7808743 9 18263363766871718004
81228 2 18045775951503956946
9658208 31 18412549837659087873

> <PUBCHEM_SHAPE_MULTIPOLES>
444.71
8.99
6.34
1.55
10.08
10.89
-0.08
-12.78
-0.86
1.6
1.57
-1.07
-0.5
0.87

> <PUBCHEM_SHAPE_SELFOVERLAP>
885.185

> <PUBCHEM_SHAPE_VOLUME>
268.9

> <PUBCHEM_COORDINATE_TYPE>
2
5
10

$$$$
