101412352
  -OEChem-03292013293D

 59 61  0     1  0  0  0  0  0999 V2000
    2.5978    0.0861   -0.2905 O   0  0  0  0  0  0  0  0  0  0  0  0
    3.9302   -0.6198   -2.0531 O   0  0  0  0  0  0  0  0  0  0  0  0
    0.3265    0.9558   -0.7620 O   0  0  0  0  0  0  0  0  0  0  0  0
   -0.2143   -1.7382    2.5728 O   0  0  0  0  0  0  0  0  0  0  0  0
   -3.6294   -1.0610   -0.1025 O   0  0  0  0  0  0  0  0  0  0  0  0
   -2.2306   -2.8221    2.6136 O   0  0  0  0  0  0  0  0  0  0  0  0
   -1.8665    1.6378   -0.5976 O   0  0  0  0  0  0  0  0  0  0  0  0
   -5.0159   -2.2218   -1.5402 O   0  0  0  0  0  0  0  0  0  0  0  0
   -1.4532    6.3524    0.2159 O   0  0  0  0  0  0  0  0  0  0  0  0
    3.1449   -1.0614   -0.9480 C   0  0  2  0  0  0  0  0  0  0  0  0
    2.8542    0.0221    1.1045 C   0  0  2  0  0  0  0  0  0  0  0  0
    1.9865   -1.9580   -1.4505 C   0  0  1  0  0  0  0  0  0  0  0  0
    4.0220   -1.7864    0.0820 C   0  0  0  0  0  0  0  0  0  0  0  0
    4.1667   -0.7584    1.1869 C   0  0  0  0  0  0  0  0  0  0  0  0
    0.7740   -1.1599   -1.9907 C   0  0  0  0  0  0  0  0  0  0  0  0
   -0.0983   -0.3900   -0.9635 C   0  0  1  0  0  0  0  0  0  0  0  0
    1.7264   -0.6545    1.8570 C   0  0  0  0  0  0  0  0  0  0  0  0
    3.0196    1.4474    1.6294 C   0  0  0  0  0  0  0  0  0  0  0  0
    2.4689   -2.9564   -2.5134 C   0  0  0  0  0  0  0  0  0  0  0  0
   -0.3411   -1.0670    0.3604 C   0  0  0  0  0  0  0  0  0  0  0  0
    0.4891   -1.0802    1.5452 C   0  0  0  0  0  0  0  0  0  0  0  0
   -1.4647   -1.7452    0.6265 C   0  0  0  0  0  0  0  0  0  0  0  0
   -1.3791   -2.1769    2.0241 C   0  0  0  0  0  0  0  0  0  0  0  0
   -2.6483   -2.0831   -0.2043 C   0  0  0  0  0  0  0  0  0  0  0  0
   -0.6669    1.8747   -0.5912 C   0  0  0  0  0  0  0  0  0  0  0  0
   -0.0691    3.2309   -0.3994 C   0  0  0  0  0  0  0  0  0  0  0  0
    1.2625    3.5162   -1.0282 C   0  0  0  0  0  0  0  0  0  0  0  0
   -4.7732   -1.2579   -0.8267 C   0  0  0  0  0  0  0  0  0  0  0  0
   -0.7806    4.0840    0.3610 C   0  0  0  0  0  0  0  0  0  0  0  0
   -0.4270    5.4973    0.7065 C   0  0  0  0  0  0  0  0  0  0  0  0
   -5.7110   -0.1065   -0.6240 C   0  0  0  0  0  0  0  0  0  0  0  0
    1.6169   -2.5639   -0.6151 H   0  0  0  0  0  0  0  0  0  0  0  0
    4.9910   -2.1042   -0.3155 H   0  0  0  0  0  0  0  0  0  0  0  0
    3.5251   -2.6748    0.4886 H   0  0  0  0  0  0  0  0  0  0  0  0
    4.3577   -1.2112    2.1650 H   0  0  0  0  0  0  0  0  0  0  0  0
    5.0175   -0.1074    0.9481 H   0  0  0  0  0  0  0  0  0  0  0  0
    0.1112   -1.8808   -2.4900 H   0  0  0  0  0  0  0  0  0  0  0  0
    1.1168   -0.4626   -2.7659 H   0  0  0  0  0  0  0  0  0  0  0  0
   -1.0586   -0.3272   -1.4941 H   0  0  0  0  0  0  0  0  0  0  0  0
    2.0132   -0.8420    2.8964 H   0  0  0  0  0  0  0  0  0  0  0  0
    3.7369    2.0104    1.0216 H   0  0  0  0  0  0  0  0  0  0  0  0
    3.3684    1.4548    2.6680 H   0  0  0  0  0  0  0  0  0  0  0  0
    2.0723    1.9960    1.5915 H   0  0  0  0  0  0  0  0  0  0  0  0
    2.7542   -2.4515   -3.4422 H   0  0  0  0  0  0  0  0  0  0  0  0
    1.6759   -3.6723   -2.7560 H   0  0  0  0  0  0  0  0  0  0  0  0
    3.3299   -3.5291   -2.1537 H   0  0  0  0  0  0  0  0  0  0  0  0
    4.8046   -0.3596   -1.7185 H   0  0  0  0  0  0  0  0  0  0  0  0
   -3.0772   -3.0394    0.1193 H   0  0  0  0  0  0  0  0  0  0  0  0
   -2.3525   -2.2011   -1.2536 H   0  0  0  0  0  0  0  0  0  0  0  0
    2.0747    3.0599   -0.4611 H   0  0  0  0  0  0  0  0  0  0  0  0
    1.4717    4.5847   -1.1175 H   0  0  0  0  0  0  0  0  0  0  0  0
    1.2913    3.1148   -2.0477 H   0  0  0  0  0  0  0  0  0  0  0  0
   -1.7265    3.7510    0.7867 H   0  0  0  0  0  0  0  0  0  0  0  0
    0.5262    5.8288    0.2914 H   0  0  0  0  0  0  0  0  0  0  0  0
   -0.3811    5.6033    1.7952 H   0  0  0  0  0  0  0  0  0  0  0  0
   -6.6182   -0.2691   -1.2130 H   0  0  0  0  0  0  0  0  0  0  0  0
   -5.2382    0.8194   -0.9612 H   0  0  0  0  0  0  0  0  0  0  0  0
   -5.9877   -0.0358    0.4308 H   0  0  0  0  0  0  0  0  0  0  0  0
   -1.2228    7.2578    0.4856 H   0  0  0  0  0  0  0  0  0  0  0  0
  1 10  1  0  0  0  0
  1 11  1  0  0  0  0
  2 10  1  0  0  0  0
  2 47  1  0  0  0  0
  3 16  1  0  0  0  0
  3 25  1  0  0  0  0
  4 21  1  0  0  0  0
  4 23  1  0  0  0  0
  5 24  1  0  0  0  0
  5 28  1  0  0  0  0
  6 23  2  0  0  0  0
  7 25  2  0  0  0  0
  8 28  2  0  0  0  0
  9 30  1  0  0  0  0
  9 59  1  0  0  0  0
 10 12  1  0  0  0  0
 10 13  1  0  0  0  0
 11 14  1  0  0  0  0
 11 17  1  0  0  0  0
 11 18  1  0  0  0  0
 12 15  1  0  0  0  0
 12 19  1  0  0  0  0
 12 32  1  0  0  0  0
 13 14  1  0  0  0  0
 13 33  1  0  0  0  0
 13 34  1  0  0  0  0
 14 35  1  0  0  0  0
 14 36  1  0  0  0  0
 15 16  1  0  0  0  0
 15 37  1  0  0  0  0
 15 38  1  0  0  0  0
 16 20  1  0  0  0  0
 16 39  1  0  0  0  0
 17 21  2  0  0  0  0
 17 40  1  0  0  0  0
 18 41  1  0  0  0  0
 18 42  1  0  0  0  0
 18 43  1  0  0  0  0
 19 44  1  0  0  0  0
 19 45  1  0  0  0  0
 19 46  1  0  0  0  0
 20 21  1  0  0  0  0
 20 22  2  0  0  0  0
 22 23  1  0  0  0  0
 22 24  1  0  0  0  0
 24 48  1  0  0  0  0
 24 49  1  0  0  0  0
 25 26  1  0  0  0  0
 26 27  1  0  0  0  0
 26 29  2  0  0  0  0
 27 50  1  0  0  0  0
 27 51  1  0  0  0  0
 27 52  1  0  0  0  0
 28 31  1  0  0  0  0
 29 30  1  0  0  0  0
 29 53  1  0  0  0  0
 30 54  1  0  0  0  0
 30 55  1  0  0  0  0
 31 56  1  0  0  0  0
 31 57  1  0  0  0  0
 31 58  1  0  0  0  0
M  END
> <PUBCHEM_COMPOUND_CID>
101412352

> <PUBCHEM_CONFORMER_RMSD>
1

> <PUBCHEM_CONFORMER_DIVERSEORDER>
1
19
9
14
12
21
23
18
7
24
22
17
15
3
8
13
5
10
6
2
11
4
16
20

> <PUBCHEM_MMFF94_PARTIAL_CHARGES>
29
1 -0.56
10 0.56
11 0.42
16 0.42
17 -0.29
2 -0.68
20 -0.14
21 0.08
22 -0.12
23 0.71
24 0.42
25 0.71
26 -0.12
27 0.14
28 0.66
29 -0.29
3 -0.43
30 0.42
31 0.06
4 -0.23
40 0.15
47 0.4
5 -0.43
53 0.15
59 0.4
6 -0.57
7 -0.57
8 -0.57
9 -0.68

> <PUBCHEM_EFFECTIVE_ROTOR_COUNT>
8.4

> <PUBCHEM_PHARMACOPHORE_FEATURES>
11
1 1 acceptor
1 2 acceptor
1 2 donor
1 27 hydrophobe
1 6 acceptor
1 7 acceptor
1 8 acceptor
1 9 acceptor
1 9 donor
5 1 10 11 13 14 rings
5 4 20 21 22 23 rings

> <PUBCHEM_HEAVY_ATOM_COUNT>
31

> <PUBCHEM_ATOM_DEF_STEREO_COUNT>
4

> <PUBCHEM_ATOM_UDEF_STEREO_COUNT>
0

> <PUBCHEM_BOND_DEF_STEREO_COUNT>
2

> <PUBCHEM_BOND_UDEF_STEREO_COUNT>
0

> <PUBCHEM_ISOTOPIC_ATOM_COUNT>
0

> <PUBCHEM_COMPONENT_COUNT>
1

> <PUBCHEM_CACTVS_TAUTO_COUNT>
2

> <PUBCHEM_CONFORMER_ID>
060B6E0000000001

> <PUBCHEM_MMFF94_ENERGY>
77.8626

> <PUBCHEM_FEATURE_SELFOVERLAP>
55.871

> <PUBCHEM_SHAPE_FINGERPRINT>
10906281 52 18263091053163327100
11578080 2 17631466565828533258
12160290 23 17972050144992083965
12788726 201 18334867073508783932
15664445 248 18412259570862995886
16090146 7 17168721708396027434
16752209 62 17749101154289182847
20600515 1 18041265669060350824
20642791 239 17241630453145229204
21285901 2 18272651203708931487
21860390 5 18193549193200708541
229495 10 17345738695205659598
23558518 356 18047195141942729406
23559900 14 17822577209064743222
3052486 1 18116425956152559821
3298306 158 17541952322050800556
3493558 16 17632861914993939409
404807 78 17539162487742887193
5895379 119 18131362929517567449
7399639 24 17987213626252469266
81228 2 18263375706383986732
9981440 41 16968561479542745001

> <PUBCHEM_SHAPE_MULTIPOLES>
585.14
7.44
6.02
2.29
6.06
13.93
-0.49
-5.78
2.04
3.97
-0.21
-1.09
-2.07
0.95

> <PUBCHEM_SHAPE_SELFOVERLAP>
1235.754

> <PUBCHEM_SHAPE_VOLUME>
325.1

> <PUBCHEM_COORDINATE_TYPE>
2
5
10

$$$$
