101587611
  -OEChem-03292013293D

 40 43  0     1  0  0  0  0  0999 V2000
    3.0886   -0.1896    1.0386 O   0  0  0  0  0  0  0  0  0  0  0  0
    4.6428   -1.4985   -1.9207 O   0  0  0  0  0  0  0  0  0  0  0  0
    5.6435    0.7611    1.7523 O   0  0  0  0  0  0  0  0  0  0  0  0
   -2.8846    2.7627   -0.5330 O   0  0  0  0  0  0  0  0  0  0  0  0
    0.8938    0.3166    0.1087 N   0  0  0  0  0  0  0  0  0  0  0  0
   -1.2499   -0.8773    0.2614 N   0  0  0  0  0  0  0  0  0  0  0  0
   -3.1388    0.5475   -0.0913 N   0  0  0  0  0  0  0  0  0  0  0  0
    0.1068    2.3703   -0.3373 N   0  0  0  0  0  0  0  0  0  0  0  0
   -3.5981   -1.6003    0.3330 N   0  0  0  0  0  0  0  0  0  0  0  0
    1.9394   -0.7458    0.3669 C   0  0  1  0  0  0  0  0  0  0  0  0
    2.4500   -1.4037   -0.9118 C   0  0  0  0  0  0  0  0  0  0  0  0
    3.7644   -0.6978   -1.1576 C   0  0  1  0  0  0  0  0  0  0  0  0
    4.2601   -0.4851    0.2617 C   0  0  1  0  0  0  0  0  0  0  0  0
   -0.4627    0.2153    0.0736 C   0  0  0  0  0  0  0  0  0  0  0  0
    5.2615    0.6484    0.3927 C   0  0  0  0  0  0  0  0  0  0  0  0
   -0.9178    1.4840   -0.1994 C   0  0  0  0  0  0  0  0  0  0  0  0
    1.1883    1.6368   -0.1459 C   0  0  0  0  0  0  0  0  0  0  0  0
   -2.6194   -0.7277    0.1864 C   0  0  0  0  0  0  0  0  0  0  0  0
   -2.3409    1.6937   -0.2955 C   0  0  0  0  0  0  0  0  0  0  0  0
   -0.7019   -2.1936    0.5451 C   0  0  0  0  0  0  0  0  0  0  0  0
   -4.5029    0.4344   -0.1155 C   0  0  0  0  0  0  0  0  0  0  0  0
   -4.7580   -0.8906    0.1476 C   0  0  0  0  0  0  0  0  0  0  0  0
   -6.0643   -1.5609    0.2399 C   0  0  0  0  0  0  0  0  0  0  0  0
    1.5154   -1.4501    1.0749 H   0  0  0  0  0  0  0  0  0  0  0  0
    1.7631   -1.3284   -1.7608 H   0  0  0  0  0  0  0  0  0  0  0  0
    2.6256   -2.4732   -0.7390 H   0  0  0  0  0  0  0  0  0  0  0  0
    3.6001    0.2551   -1.6736 H   0  0  0  0  0  0  0  0  0  0  0  0
    4.6985   -1.4042    0.6719 H   0  0  0  0  0  0  0  0  0  0  0  0
    4.8164    1.6024    0.0920 H   0  0  0  0  0  0  0  0  0  0  0  0
    6.1537    0.4580   -0.2117 H   0  0  0  0  0  0  0  0  0  0  0  0
    2.2029    2.0088   -0.1832 H   0  0  0  0  0  0  0  0  0  0  0  0
    4.2105   -1.6755   -2.7736 H   0  0  0  0  0  0  0  0  0  0  0  0
   -0.2948   -2.2391    1.5600 H   0  0  0  0  0  0  0  0  0  0  0  0
    0.0369   -2.4983   -0.2005 H   0  0  0  0  0  0  0  0  0  0  0  0
   -1.4766   -2.9701    0.5041 H   0  0  0  0  0  0  0  0  0  0  0  0
   -5.1522    1.2769   -0.3104 H   0  0  0  0  0  0  0  0  0  0  0  0
    6.2828    1.4914    1.8109 H   0  0  0  0  0  0  0  0  0  0  0  0
   -6.1428   -2.3488   -0.5157 H   0  0  0  0  0  0  0  0  0  0  0  0
   -6.8892   -0.8584    0.0844 H   0  0  0  0  0  0  0  0  0  0  0  0
   -6.1898   -2.0179    1.2265 H   0  0  0  0  0  0  0  0  0  0  0  0
  1 10  1  0  0  0  0
  1 13  1  0  0  0  0
  2 12  1  0  0  0  0
  2 32  1  0  0  0  0
  3 15  1  0  0  0  0
  3 37  1  0  0  0  0
  4 19  2  0  0  0  0
  5 10  1  0  0  0  0
  5 14  1  0  0  0  0
  5 17  1  0  0  0  0
  6 14  1  0  0  0  0
  6 18  1  0  0  0  0
  6 20  1  0  0  0  0
  7 18  1  0  0  0  0
  7 19  1  0  0  0  0
  7 21  1  0  0  0  0
  8 16  1  0  0  0  0
  8 17  2  0  0  0  0
  9 18  2  0  0  0  0
  9 22  1  0  0  0  0
 10 11  1  0  0  0  0
 10 24  1  0  0  0  0
 11 12  1  0  0  0  0
 11 25  1  0  0  0  0
 11 26  1  0  0  0  0
 12 13  1  0  0  0  0
 12 27  1  0  0  0  0
 13 15  1  0  0  0  0
 13 28  1  0  0  0  0
 14 16  2  0  0  0  0
 15 29  1  0  0  0  0
 15 30  1  0  0  0  0
 16 19  1  0  0  0  0
 17 31  1  0  0  0  0
 20 33  1  0  0  0  0
 20 34  1  0  0  0  0
 20 35  1  0  0  0  0
 21 22  2  0  0  0  0
 21 36  1  0  0  0  0
 22 23  1  0  0  0  0
 23 38  1  0  0  0  0
 23 39  1  0  0  0  0
 23 40  1  0  0  0  0
M  END
> <PUBCHEM_COMPOUND_CID>
101587611

> <PUBCHEM_CONFORMER_RMSD>
0.6

> <PUBCHEM_CONFORMER_DIVERSEORDER>
1
3
5
4
2
6
7

> <PUBCHEM_MMFF94_PARTIAL_CHARGES>
26
1 -0.56
10 0.54
12 0.28
13 0.28
14 -0.07
15 0.28
16 0.14
17 0.04
18 0.27
19 0.67
2 -0.68
20 0.37
21 -0.3
22 0.05
23 0.18
3 -0.68
31 0.15
32 0.4
36 0.15
37 0.4
4 -0.57
5 0.05
6 -0.54
7 0.29
8 -0.57
9 -0.57

> <PUBCHEM_EFFECTIVE_ROTOR_COUNT>
3

> <PUBCHEM_PHARMACOPHORE_FEATURES>
11
1 1 acceptor
1 2 acceptor
1 2 donor
1 3 acceptor
1 3 donor
1 4 acceptor
3 5 8 17 cation
5 1 10 11 12 13 rings
5 5 8 14 16 17 rings
5 7 9 18 21 22 rings
6 6 7 14 16 18 19 rings

> <PUBCHEM_HEAVY_ATOM_COUNT>
23

> <PUBCHEM_ATOM_DEF_STEREO_COUNT>
3

> <PUBCHEM_ATOM_UDEF_STEREO_COUNT>
0

> <PUBCHEM_BOND_DEF_STEREO_COUNT>
0

> <PUBCHEM_BOND_UDEF_STEREO_COUNT>
0

> <PUBCHEM_ISOTOPIC_ATOM_COUNT>
0

> <PUBCHEM_COMPONENT_COUNT>
1

> <PUBCHEM_CACTVS_TAUTO_COUNT>
1

> <PUBCHEM_CONFORMER_ID>
060E1A9B00000001

> <PUBCHEM_MMFF94_ENERGY>
55.3258

> <PUBCHEM_FEATURE_SELFOVERLAP>
56.058

> <PUBCHEM_SHAPE_FINGERPRINT>
10 15 18269260409635269464
10319926 262 18193816195108069882
10498660 4 18263362490954473812
10906281 52 18264225723403762208
11552529 35 15553300683303255311
12236239 1 17168140122663215642
12516196 113 18272651276886600257
12730499 353 17775286076114447542
13140716 1 18118966038334387907
13533116 47 16200159772230694790
13583140 156 15482673421202640795
13862211 1 18334572473550236875
14386348 63 18343867714459376486
14790565 3 17474108696805915261
15196674 1 18336826390217997706
15375358 24 18413386536417652066
15961568 22 18260833752309640588
16752209 62 18260552190625734267
17349148 13 16877662327754338688
17804303 29 18409731764109468585
1813 80 18040157326774144765
19141452 34 18060421356803764375
200 152 17847061086562341083
20028762 73 18199751513362959815
20510252 161 18342174419112899681
20871999 31 18263094248655710924
21033648 29 17560222661713279969
21033650 10 17678758734361526940
21267235 1 18335426780630034379
22182313 1 18341604897959638164
2297311 6 18339935847977593687
23402539 116 18336536192247241367
23536379 177 15140672588287910555
23557571 272 18411985745935286844
23559900 14 18195811774194735678
239999 70 18343587335311249726
2748010 2 18190175870843087349
3004659 81 18113626706916955436
314173 85 18410581695150543137
335352 9 18335137614527296815
3411729 13 18119244219593869992
34797466 226 17988091096825046156
350125 39 18407760352619855589
4325135 7 18261113015266754484
4340502 62 14907910396783962607
5104073 3 18271240500541839026
542803 24 14189575251768292202
59755656 215 18335137575593542287
621550 34 18060414716894542004
7364860 26 18268432519300902897
9709674 26 18411705404397458190

> <PUBCHEM_SHAPE_MULTIPOLES>
424.95
11.95
2.26
1.02
1.5
0.84
-0.1
-3.41
1.1
-1.45
-0.3
1.68
-0.22
1.44

> <PUBCHEM_SHAPE_SELFOVERLAP>
935.351

> <PUBCHEM_SHAPE_VOLUME>
229.9

> <PUBCHEM_COORDINATE_TYPE>
2
5
10

$$$$
