101589831
  -OEChem-03292013293D

 30 29  0     1  0  0  0  0  0999 V2000
    0.7990    0.8186    0.1422 O   0  0  0  0  0  0  0  0  0  0  0  0
   -3.0169   -0.9407    1.6126 O   0  0  0  0  0  0  0  0  0  0  0  0
   -1.8958    3.5876    0.1089 O   0  0  0  0  0  0  0  0  0  0  0  0
   -1.2134    2.3133   -1.6408 O   0  0  0  0  0  0  0  0  0  0  0  0
    2.0821    0.6932    0.8301 O   0  0  0  0  0  0  0  0  0  0  0  0
    2.6687   -0.5221   -1.1512 O   0  5  0  0  0  0  0  0  0  0  0  0
   -1.9254    0.0772   -0.1637 N   0  0  0  0  0  0  0  0  0  0  0  0
   -2.9525   -3.3354    0.2461 N   0  0  0  0  0  0  0  0  0  0  0  0
    5.2697   -0.9064   -0.0224 N   0  3  0  0  0  0  0  0  0  0  0  0
    6.0866   -1.4398   -0.4825 N   0  0  0  0  0  0  0  0  0  0  0  0
   -1.5238    1.2739    0.5388 C   0  0  1  0  0  0  0  0  0  0  0  0
   -2.9256   -2.0925   -0.5207 C   0  0  2  0  0  0  0  0  0  0  0  0
   -0.1443    1.1229    1.1624 C   0  0  0  0  0  0  0  0  0  0  0  0
   -2.6477   -0.9432    0.4400 C   0  0  0  0  0  0  0  0  0  0  0  0
   -4.2587   -1.8798   -1.2272 C   0  0  0  0  0  0  0  0  0  0  0  0
   -1.5328    2.4096   -0.4629 C   0  0  0  0  0  0  0  0  0  0  0  0
    2.9672   -0.0526   -0.0112 C   0  0  0  0  0  0  0  0  0  0  0  0
    4.1636   -0.1838    0.6016 C   0  0  0  0  0  0  0  0  0  0  0  0
   -2.2680    1.4824    1.3161 H   0  0  0  0  0  0  0  0  0  0  0  0
   -2.1236   -2.1595   -1.2647 H   0  0  0  0  0  0  0  0  0  0  0  0
   -1.6484   -0.0222   -1.1365 H   0  0  0  0  0  0  0  0  0  0  0  0
   -0.1443    0.3105    1.8983 H   0  0  0  0  0  0  0  0  0  0  0  0
    0.1563    2.0523    1.6596 H   0  0  0  0  0  0  0  0  0  0  0  0
   -5.0856   -1.8059   -0.5114 H   0  0  0  0  0  0  0  0  0  0  0  0
   -4.4764   -2.7017   -1.9177 H   0  0  0  0  0  0  0  0  0  0  0  0
   -4.2456   -0.9493   -1.8055 H   0  0  0  0  0  0  0  0  0  0  0  0
   -2.0302   -3.5124    0.6428 H   0  0  0  0  0  0  0  0  0  0  0  0
   -3.1486   -4.1183   -0.3765 H   0  0  0  0  0  0  0  0  0  0  0  0
   -1.8800    4.3268   -0.5358 H   0  0  0  0  0  0  0  0  0  0  0  0
    4.3432    0.2456    1.5830 H   0  0  0  0  0  0  0  0  0  0  0  0
  1  5  1  0  0  0  0
  1 13  1  0  0  0  0
  2 14  2  0  0  0  0
  3 16  1  0  0  0  0
  3 29  1  0  0  0  0
  4 16  2  0  0  0  0
  5 17  1  0  0  0  0
  6 17  1  0  0  0  0
  7 11  1  0  0  0  0
  7 14  1  0  0  0  0
  7 21  1  0  0  0  0
  8 12  1  0  0  0  0
  8 27  1  0  0  0  0
  8 28  1  0  0  0  0
  9 10  3  0  0  0  0
  9 18  1  0  0  0  0
 11 13  1  0  0  0  0
 11 16  1  0  0  0  0
 11 19  1  0  0  0  0
 12 14  1  0  0  0  0
 12 15  1  0  0  0  0
 12 20  1  0  0  0  0
 13 22  1  0  0  0  0
 13 23  1  0  0  0  0
 15 24  1  0  0  0  0
 15 25  1  0  0  0  0
 15 26  1  0  0  0  0
 17 18  2  3  0  0  0
 18 30  1  0  0  0  0
M  CHG  2   6  -1   9   1
M  END
> <PUBCHEM_COMPOUND_CID>
101589831

> <PUBCHEM_CONFORMER_RMSD>
0.8

> <PUBCHEM_CONFORMER_DIVERSEORDER>
1
14
9
136
149
141
64
112
109
16
73
10
35
61
79
107
115
23
19
139
102
124
152
29
28
99
6
82
76
21
147
46
55
103
50
98
119
127
41
135
72
59
42
65
143
38
83
77
113
93
57
114
132
106
130
33
74
150
22
110
56
5
12
95
101
144
49
75
121
40
18
31
4
111
131
54
118
45
92
126
122
84
25
66
30
51
26
116
94
148
15
34
80
91
67
17
20
137
87
123
104
2
88
133
11
44
43
138
39
70
62
129
7
85
3
37
145
58
125
142
47
52
146
153
140
108
128
120
24
8
78
48
105
60
63
86
81
134
36
69
13
89
32
100
96
27
68
151
71
90
97
53
117

> <PUBCHEM_MMFF94_PARTIAL_CHARGES>
22
1 -0.28
10 -0.49
11 0.36
12 0.33
13 0.28
14 0.57
16 0.66
17 -0.07
18 -0.02
2 -0.57
21 0.37
27 0.36
28 0.36
29 0.5
3 -0.65
30 0.15
4 -0.57
5 -0.08
6 -0.85
7 -0.73
8 -0.99
9 1.36

> <PUBCHEM_EFFECTIVE_ROTOR_COUNT>
8

> <PUBCHEM_PHARMACOPHORE_FEATURES>
7
1 2 acceptor
1 3 acceptor
1 4 acceptor
1 7 donor
1 8 cation
1 8 donor
3 3 4 16 anion

> <PUBCHEM_HEAVY_ATOM_COUNT>
18

> <PUBCHEM_ATOM_DEF_STEREO_COUNT>
2

> <PUBCHEM_ATOM_UDEF_STEREO_COUNT>
0

> <PUBCHEM_BOND_DEF_STEREO_COUNT>
0

> <PUBCHEM_BOND_UDEF_STEREO_COUNT>
1

> <PUBCHEM_ISOTOPIC_ATOM_COUNT>
0

> <PUBCHEM_COMPONENT_COUNT>
1

> <PUBCHEM_CACTVS_TAUTO_COUNT>
2

> <PUBCHEM_CONFORMER_ID>
060E234700000001

> <PUBCHEM_MMFF94_ENERGY>
28.9569

> <PUBCHEM_FEATURE_SELFOVERLAP>
35.58

> <PUBCHEM_SHAPE_FINGERPRINT>
11809386 21 18261385599450393466
12363563 72 18265334082775262595
12500047 106 18193834834786520864
12553582 1 18265347259703180691
14251751 93 18338514136868109730
14508225 48 18336817680246296645
17539 30 18339068329288256301
17859628 70 17256251969525978531
20671657 53 18195526128583240635
21339142 126 18410579470199228297
21728266 224 18262500512978287202
23402539 116 17676491622947155088
23557571 272 18270402685703999124
23559900 14 18339910593733852272
23598288 3 18115325409400956757
3286 77 17274538861744457683
4921388 177 18339079276948708732
58051976 100 18261675866071917880
59755656 520 18122340186222677733
81228 2 18261385650963691969

> <PUBCHEM_SHAPE_MULTIPOLES>
315.29
9.82
3.35
1.19
16.16
1.23
-0.05
-8.95
-1.37
-4.24
-0.6
-0.65
0.11
0.37

> <PUBCHEM_SHAPE_SELFOVERLAP>
613.284

> <PUBCHEM_SHAPE_VOLUME>
187.2

> <PUBCHEM_COORDINATE_TYPE>
2
5
10

$$$$
