101587910
  -OEChem-03292013293D

 61 61  0     1  0  0  0  0  0999 V2000
    2.7374    2.5858    1.1977 S   0  0  0  0  0  0  0  0  0  0  0  0
   -4.2609   -2.3685    1.1141 O   0  0  0  0  0  0  0  0  0  0  0  0
   -3.9838    1.0078   -3.1122 O   0  0  0  0  0  0  0  0  0  0  0  0
    2.4944   -0.9563   -2.4860 O   0  5  0  0  0  0  0  0  0  0  0  0
    2.8999    4.1382    1.6711 O   0  0  0  0  0  0  0  0  0  0  0  0
    3.8295    1.8104    1.7567 O   0  0  0  0  0  0  0  0  0  0  0  0
    1.3533    2.1865    1.3762 O   0  0  0  0  0  0  0  0  0  0  0  0
    3.4421    0.4709   -0.9252 N   0  0  0  0  0  0  0  0  0  0  0  0
   -4.1278    0.0157    0.9484 C   0  0  2  0  0  0  0  0  0  0  0  0
   -5.3570   -0.0466    0.0117 C   0  0  0  0  0  0  0  0  0  0  0  0
   -2.8229   -0.0128    0.1248 C   0  0  0  0  0  0  0  0  0  0  0  0
   -5.2757    0.9547   -1.1196 C   0  0  0  0  0  0  0  0  0  0  0  0
   -4.2620   -1.1987    1.9017 C   0  0  0  0  0  0  0  0  0  0  0  0
   -4.1767    1.3071    1.7931 C   0  0  0  0  0  0  0  0  0  0  0  0
   -2.7660    0.2974   -1.1925 C   0  0  0  0  0  0  0  0  0  0  0  0
   -4.0102    0.7510   -1.9079 C   0  0  0  0  0  0  0  0  0  0  0  0
   -1.6320   -0.3925    0.8677 C   0  0  0  0  0  0  0  0  0  0  0  0
   -1.5421    0.2898   -2.0735 C   0  0  0  0  0  0  0  0  0  0  0  0
   -0.6727   -1.1836    0.3621 C   0  0  0  0  0  0  0  0  0  0  0  0
    0.5534   -1.6140    1.0402 C   0  0  0  0  0  0  0  0  0  0  0  0
    3.9136   -2.0661    0.5472 C   0  0  0  0  0  0  0  0  0  0  0  0
    2.7202   -2.9888    0.8382 C   0  0  0  0  0  0  0  0  0  0  0  0
    4.1635   -1.7875   -0.9496 C   0  0  2  0  0  0  0  0  0  0  0  0
    1.4097   -2.4153    0.3720 C   0  0  0  0  0  0  0  0  0  0  0  0
    0.7740   -1.1280    2.4488 C   0  0  0  0  0  0  0  0  0  0  0  0
    5.6426   -1.4628   -1.1889 C   0  0  0  0  0  0  0  0  0  0  0  0
    3.2550   -0.6599   -1.5368 C   0  0  0  0  0  0  0  0  0  0  0  0
    2.6633    1.6276   -1.3558 C   0  0  0  0  0  0  0  0  0  0  0  0
    3.0379    2.8386   -0.5238 C   0  0  0  0  0  0  0  0  0  0  0  0
   -6.2807    0.1243    0.5794 H   0  0  0  0  0  0  0  0  0  0  0  0
   -5.4569   -1.0421   -0.4410 H   0  0  0  0  0  0  0  0  0  0  0  0
   -5.3046    1.9878   -0.7600 H   0  0  0  0  0  0  0  0  0  0  0  0
   -6.1298    0.8071   -1.7904 H   0  0  0  0  0  0  0  0  0  0  0  0
   -5.2065   -1.1555    2.4568 H   0  0  0  0  0  0  0  0  0  0  0  0
   -3.4498   -1.2550    2.6338 H   0  0  0  0  0  0  0  0  0  0  0  0
   -4.0217    2.2026    1.1814 H   0  0  0  0  0  0  0  0  0  0  0  0
   -3.4061    1.3088    2.5723 H   0  0  0  0  0  0  0  0  0  0  0  0
   -5.1445    1.4120    2.2969 H   0  0  0  0  0  0  0  0  0  0  0  0
   -1.5389    0.0277    1.8641 H   0  0  0  0  0  0  0  0  0  0  0  0
   -1.4519   -0.6639   -2.6026 H   0  0  0  0  0  0  0  0  0  0  0  0
   -0.6197    0.5046   -1.5298 H   0  0  0  0  0  0  0  0  0  0  0  0
   -1.5930    1.0822   -2.8293 H   0  0  0  0  0  0  0  0  0  0  0  0
   -4.3545   -3.1238    1.7191 H   0  0  0  0  0  0  0  0  0  0  0  0
   -0.8156   -1.6367   -0.6163 H   0  0  0  0  0  0  0  0  0  0  0  0
    3.7923   -1.1273    1.1011 H   0  0  0  0  0  0  0  0  0  0  0  0
    4.7993   -2.5565    0.9722 H   0  0  0  0  0  0  0  0  0  0  0  0
    2.6823   -3.2053    1.9118 H   0  0  0  0  0  0  0  0  0  0  0  0
    2.8728   -3.9581    0.3478 H   0  0  0  0  0  0  0  0  0  0  0  0
    3.9626   -2.7163   -1.5039 H   0  0  0  0  0  0  0  0  0  0  0  0
    1.1442   -2.7272   -0.6381 H   0  0  0  0  0  0  0  0  0  0  0  0
    0.0126   -1.5418    3.1192 H   0  0  0  0  0  0  0  0  0  0  0  0
    1.7493   -1.4209    2.8474 H   0  0  0  0  0  0  0  0  0  0  0  0
    0.7323   -0.0376    2.5059 H   0  0  0  0  0  0  0  0  0  0  0  0
    5.9630   -0.5984   -0.5970 H   0  0  0  0  0  0  0  0  0  0  0  0
    5.8236   -1.2278   -2.2434 H   0  0  0  0  0  0  0  0  0  0  0  0
    6.2775   -2.3130   -0.9186 H   0  0  0  0  0  0  0  0  0  0  0  0
    1.5914    1.4284   -1.2447 H   0  0  0  0  0  0  0  0  0  0  0  0
    2.8641    1.8558   -2.4095 H   0  0  0  0  0  0  0  0  0  0  0  0
    2.4368    3.6965   -0.8417 H   0  0  0  0  0  0  0  0  0  0  0  0
    4.0979    3.0872   -0.6385 H   0  0  0  0  0  0  0  0  0  0  0  0
    2.1637    4.7405    1.4110 H   0  0  0  0  0  0  0  0  0  0  0  0
  1  5  1  0  0  0  0
  1  6  2  0  0  0  0
  1  7  2  0  0  0  0
  1 29  1  0  0  0  0
  2 13  1  0  0  0  0
  2 43  1  0  0  0  0
  3 16  2  0  0  0  0
  4 27  1  0  0  0  0
  5 61  1  0  0  0  0
  8 27  2  0  0  0  0
  8 28  1  0  0  0  0
  9 10  1  0  0  0  0
  9 11  1  0  0  0  0
  9 13  1  0  0  0  0
  9 14  1  0  0  0  0
 10 12  1  0  0  0  0
 10 30  1  0  0  0  0
 10 31  1  0  0  0  0
 11 15  2  0  0  0  0
 11 17  1  0  0  0  0
 12 16  1  0  0  0  0
 12 32  1  0  0  0  0
 12 33  1  0  0  0  0
 13 34  1  0  0  0  0
 13 35  1  0  0  0  0
 14 36  1  0  0  0  0
 14 37  1  0  0  0  0
 14 38  1  0  0  0  0
 15 16  1  0  0  0  0
 15 18  1  0  0  0  0
 17 19  2  0  0  0  0
 17 39  1  0  0  0  0
 18 40  1  0  0  0  0
 18 41  1  0  0  0  0
 18 42  1  0  0  0  0
 19 20  1  0  0  0  0
 19 44  1  0  0  0  0
 20 24  2  0  0  0  0
 20 25  1  0  0  0  0
 21 22  1  0  0  0  0
 21 23  1  0  0  0  0
 21 45  1  0  0  0  0
 21 46  1  0  0  0  0
 22 24  1  0  0  0  0
 22 47  1  0  0  0  0
 22 48  1  0  0  0  0
 23 26  1  0  0  0  0
 23 27  1  0  0  0  0
 23 49  1  0  0  0  0
 24 50  1  0  0  0  0
 25 51  1  0  0  0  0
 25 52  1  0  0  0  0
 25 53  1  0  0  0  0
 26 54  1  0  0  0  0
 26 55  1  0  0  0  0
 26 56  1  0  0  0  0
 28 29  1  0  0  0  0
 28 57  1  0  0  0  0
 28 58  1  0  0  0  0
 29 59  1  0  0  0  0
 29 60  1  0  0  0  0
M  CHG  1   4  -1
M  END
> <PUBCHEM_COMPOUND_CID>
101587910

> <PUBCHEM_CONFORMER_RMSD>
1.4

> <PUBCHEM_CONFORMER_DIVERSEORDER>
1
142
118
52
162
197
15
169
198
80
61
67
146
104
27
133
65
144
134
127
147
209
191
115
88
112
113
138
166
68
152
163
201
192
77
90
46
56
164
58
24
40
140
98
114
184
72
161
11
18
41
205
145
51
122
17
180
131
50
34
204
92
14
54
132
170
137
60
160
155
45
66
84
168
178
89
211
187
212
95
87
70
25
199
141
196
129
182
31
16
148
99
124
62
171
200
79
159
181
5
175
193
7
158
69
172
109
167
96
101
13
128
203
97
20
149
85
123
39
121
59
43
207
26
76
202
81
117
36
110
150
44
139
103
106
19
194
135
186
8
37
143
38
93
136
195
12
190
154
32
71
48
157
174
165
63
210
126
2
74
176
10
82
177
151
73
91
111
107
9
130
35
173
179
119
108
55
53
22
23
64
208
185
21
183
6
42
206
116
30
125
75
188
102
156
3
28
78
57
105
153
83
29
4
47
100
120
189
86
94
49
33

> <PUBCHEM_MMFF94_PARTIAL_CHARGES>
30
1 1.38
11 -0.14
12 0.06
13 0.28
15 -0.12
16 0.49
17 -0.15
18 0.14
19 -0.15
2 -0.68
20 -0.14
22 0.14
23 0.06
24 -0.29
25 0.14
27 0.25
28 0.25
29 0.11
3 -0.57
39 0.15
4 -0.86
43 0.4
44 0.15
5 -0.68
50 0.15
6 -0.65
61 0.5
7 -0.65
8 -0.7
9 0.14

> <PUBCHEM_EFFECTIVE_ROTOR_COUNT>
10.6

> <PUBCHEM_PHARMACOPHORE_FEATURES>
11
1 2 acceptor
1 2 donor
1 25 hydrophobe
1 26 hydrophobe
1 3 acceptor
1 5 acceptor
1 6 acceptor
1 7 acceptor
4 1 5 6 7 anion
4 21 22 23 24 hydrophobe
6 9 10 11 12 15 16 rings

> <PUBCHEM_HEAVY_ATOM_COUNT>
29

> <PUBCHEM_ATOM_DEF_STEREO_COUNT>
0

> <PUBCHEM_ATOM_UDEF_STEREO_COUNT>
2

> <PUBCHEM_BOND_DEF_STEREO_COUNT>
2

> <PUBCHEM_BOND_UDEF_STEREO_COUNT>
0

> <PUBCHEM_ISOTOPIC_ATOM_COUNT>
0

> <PUBCHEM_COMPONENT_COUNT>
1

> <PUBCHEM_CACTVS_TAUTO_COUNT>
62

> <PUBCHEM_CONFORMER_ID>
060E1BC600000001

> <PUBCHEM_MMFF94_ENERGY>
65.3371

> <PUBCHEM_FEATURE_SELFOVERLAP>
55.876

> <PUBCHEM_SHAPE_FINGERPRINT>
10369192 42 17906737255990591192
12166972 35 17968674713726717454
12769317 202 18114184094988415986
13224815 77 16877941650804896619
13402501 40 17531256032401478078
13583140 156 18334295353422613623
13617811 41 15913322490997844529
13726171 33 16515975757062540420
14114206 34 17763230965944903516
1813 80 17631727154110446418
21033648 29 17821726122154629213
21860390 5 18200863050792701336
22122407 14 18199768955256232793
23559900 14 17603307033643208999
5081480 168 18342176626884338464
508706 21 17676487284940736219
57124632 79 18262517121553529760
574716 61 17917701435850383693
5776283 40 16807608147282030764
5895379 119 16772132253718737648
6823239 73 17530967981682202636

> <PUBCHEM_SHAPE_MULTIPOLES>
560.46
12.08
3.43
2.59
5.86
1.6
0.54
-0.35
2.47
-4.69
-1.9
0.6
0.98
2.78

> <PUBCHEM_SHAPE_SELFOVERLAP>
1115.64

> <PUBCHEM_SHAPE_VOLUME>
333.2

> <PUBCHEM_COORDINATE_TYPE>
2
5
10

$$$$
