101573171
  -OEChem-03292013293D

 69 74  0     1  0  0  0  0  0999 V2000
    0.4226    0.2322    0.9228 O   0  0  0  0  0  0  0  0  0  0  0  0
    1.8559    0.3419   -0.9739 O   0  0  0  0  0  0  0  0  0  0  0  0
   -3.3990   -2.4203    1.3973 O   0  0  0  0  0  0  0  0  0  0  0  0
   -6.4855    1.1365   -0.8906 O   0  0  0  0  0  0  0  0  0  0  0  0
    2.4852   -0.1880   -3.1138 O   0  0  0  0  0  0  0  0  0  0  0  0
   -6.6938   -1.1028   -1.2873 O   0  0  0  0  0  0  0  0  0  0  0  0
    5.5090   -0.3144    0.2033 O   0  0  0  0  0  0  0  0  0  0  0  0
    7.6675   -0.5904   -0.5387 O   0  0  0  0  0  0  0  0  0  0  0  0
   -0.5244   -1.3688   -0.5921 C   0  0  2  0  0  0  0  0  0  0  0  0
    0.9530   -1.7271   -0.3064 C   0  0  2  0  0  0  0  0  0  0  0  0
   -0.7939   -0.1368    0.2782 C   0  0  1  0  0  0  0  0  0  0  0  0
   -1.8715   -0.5540    1.2818 C   0  0  2  0  0  0  0  0  0  0  0  0
   -2.7231   -1.5537    0.4880 C   0  0  1  0  0  0  0  0  0  0  0  0
   -1.6394   -2.3675   -0.2516 C   0  0  0  0  0  0  0  0  0  0  0  0
    1.4985   -0.3945    0.2131 C   0  0  2  0  0  0  0  0  0  0  0  0
   -3.7424   -0.9444   -0.4946 C   0  0  0  0  0  0  0  0  0  0  0  0
   -2.5948    0.6074    1.9757 C   0  0  0  0  0  0  0  0  0  0  0  0
    1.7504   -1.9244   -1.5917 C   0  0  0  0  0  0  0  0  0  0  0  0
   -4.9444   -0.2931    0.1931 C   0  0  1  0  0  0  0  0  0  0  0  0
   -4.7654    1.1300    0.7115 C   0  0  1  0  0  0  0  0  0  0  0  0
   -3.3496    1.5816    1.0706 C   0  0  0  0  0  0  0  0  0  0  0  0
    1.1507   -2.9030    0.6510 C   0  0  0  0  0  0  0  0  0  0  0  0
    2.7205   -0.4322    1.1212 C   0  0  2  0  0  0  0  0  0  0  0  0
   -5.4891    2.0066   -0.3258 C   0  0  0  0  0  0  0  0  0  0  0  0
    2.0721   -0.5193   -2.0131 C   0  0  0  0  0  0  0  0  0  0  0  0
   -6.1208   -0.1689   -0.7454 C   0  0  0  0  0  0  0  0  0  0  0  0
    2.3039   -0.5952    2.5848 C   0  0  0  0  0  0  0  0  0  0  0  0
    3.5399    0.8233    0.9537 C   0  0  0  0  0  0  0  0  0  0  0  0
   -6.2113    3.1828    0.3348 C   0  0  0  0  0  0  0  0  0  0  0  0
   -4.6320    2.5223   -1.4865 C   0  0  0  0  0  0  0  0  0  0  0  0
    4.8098    0.8380    0.5325 C   0  0  0  0  0  0  0  0  0  0  0  0
    5.6331    1.9812    0.3544 C   0  0  0  0  0  0  0  0  0  0  0  0
    6.8279    1.5950   -0.0754 C   0  0  0  0  0  0  0  0  0  0  0  0
    6.7521    0.1301   -0.1734 C   0  0  0  0  0  0  0  0  0  0  0  0
    8.0287    2.3895   -0.4077 C   0  0  0  0  0  0  0  0  0  0  0  0
   -0.6546   -1.0726   -1.6422 H   0  0  0  0  0  0  0  0  0  0  0  0
   -1.1006    0.6969   -0.3594 H   0  0  0  0  0  0  0  0  0  0  0  0
   -1.3724   -1.0948    2.1014 H   0  0  0  0  0  0  0  0  0  0  0  0
   -2.0304   -2.8376   -1.1616 H   0  0  0  0  0  0  0  0  0  0  0  0
   -1.3024   -3.1957    0.3766 H   0  0  0  0  0  0  0  0  0  0  0  0
   -4.1244   -1.7637   -1.1195 H   0  0  0  0  0  0  0  0  0  0  0  0
   -3.2572   -0.2491   -1.1876 H   0  0  0  0  0  0  0  0  0  0  0  0
   -1.8359    1.1848    2.5206 H   0  0  0  0  0  0  0  0  0  0  0  0
   -3.2753    0.2100    2.7391 H   0  0  0  0  0  0  0  0  0  0  0  0
    1.1697   -2.4371   -2.3633 H   0  0  0  0  0  0  0  0  0  0  0  0
    2.6952   -2.4503   -1.4204 H   0  0  0  0  0  0  0  0  0  0  0  0
   -5.2944   -0.9211    1.0221 H   0  0  0  0  0  0  0  0  0  0  0  0
   -5.3492    1.1731    1.6446 H   0  0  0  0  0  0  0  0  0  0  0  0
   -3.4350    2.5381    1.6034 H   0  0  0  0  0  0  0  0  0  0  0  0
   -2.7618    1.8004    0.1779 H   0  0  0  0  0  0  0  0  0  0  0  0
    0.5713   -2.7889    1.5711 H   0  0  0  0  0  0  0  0  0  0  0  0
    2.1978   -3.0688    0.9193 H   0  0  0  0  0  0  0  0  0  0  0  0
    0.8216   -3.8342    0.1739 H   0  0  0  0  0  0  0  0  0  0  0  0
    3.3536   -1.2817    0.8433 H   0  0  0  0  0  0  0  0  0  0  0  0
   -2.7461   -2.8046    2.0064 H   0  0  0  0  0  0  0  0  0  0  0  0
    1.7998    0.2975    2.9743 H   0  0  0  0  0  0  0  0  0  0  0  0
    1.6542   -1.4505    2.7671 H   0  0  0  0  0  0  0  0  0  0  0  0
    3.1955   -0.7412    3.2072 H   0  0  0  0  0  0  0  0  0  0  0  0
    3.0530    1.7657    1.1997 H   0  0  0  0  0  0  0  0  0  0  0  0
   -4.1109    1.7076   -1.9979 H   0  0  0  0  0  0  0  0  0  0  0  0
   -3.8942    3.2601   -1.1563 H   0  0  0  0  0  0  0  0  0  0  0  0
   -5.2636    2.9971   -2.2470 H   0  0  0  0  0  0  0  0  0  0  0  0
   -6.9220    2.8330    1.0923 H   0  0  0  0  0  0  0  0  0  0  0  0
   -5.5070    3.8733    0.8093 H   0  0  0  0  0  0  0  0  0  0  0  0
   -6.8025    3.7402   -0.4010 H   0  0  0  0  0  0  0  0  0  0  0  0
    5.3285    2.9992    0.5412 H   0  0  0  0  0  0  0  0  0  0  0  0
    8.8711    2.0950    0.2259 H   0  0  0  0  0  0  0  0  0  0  0  0
    7.8533    3.4599   -0.2592 H   0  0  0  0  0  0  0  0  0  0  0  0
    8.3127    2.2364   -1.4535 H   0  0  0  0  0  0  0  0  0  0  0  0
  1 11  1  0  0  0  0
  1 15  1  0  0  0  0
  2 15  1  0  0  0  0
  2 25  1  0  0  0  0
  3 13  1  0  0  0  0
  3 55  1  0  0  0  0
  4 24  1  0  0  0  0
  4 26  1  0  0  0  0
  5 25  2  0  0  0  0
  6 26  2  0  0  0  0
  7 31  1  0  0  0  0
  7 34  1  0  0  0  0
  8 34  2  0  0  0  0
  9 10  1  0  0  0  0
  9 11  1  0  0  0  0
  9 14  1  0  0  0  0
  9 36  1  0  0  0  0
 10 15  1  0  0  0  0
 10 18  1  0  0  0  0
 10 22  1  0  0  0  0
 11 12  1  0  0  0  0
 11 37  1  0  0  0  0
 12 13  1  0  0  0  0
 12 17  1  0  0  0  0
 12 38  1  0  0  0  0
 13 14  1  0  0  0  0
 13 16  1  0  0  0  0
 14 39  1  0  0  0  0
 14 40  1  0  0  0  0
 15 23  1  0  0  0  0
 16 19  1  0  0  0  0
 16 41  1  0  0  0  0
 16 42  1  0  0  0  0
 17 21  1  0  0  0  0
 17 43  1  0  0  0  0
 17 44  1  0  0  0  0
 18 25  1  0  0  0  0
 18 45  1  0  0  0  0
 18 46  1  0  0  0  0
 19 20  1  0  0  0  0
 19 26  1  0  0  0  0
 19 47  1  0  0  0  0
 20 21  1  0  0  0  0
 20 24  1  0  0  0  0
 20 48  1  0  0  0  0
 21 49  1  0  0  0  0
 21 50  1  0  0  0  0
 22 51  1  0  0  0  0
 22 52  1  0  0  0  0
 22 53  1  0  0  0  0
 23 27  1  0  0  0  0
 23 28  1  0  0  0  0
 23 54  1  0  0  0  0
 24 29  1  0  0  0  0
 24 30  1  0  0  0  0
 27 56  1  0  0  0  0
 27 57  1  0  0  0  0
 27 58  1  0  0  0  0
 28 31  2  0  0  0  0
 28 59  1  0  0  0  0
 29 63  1  0  0  0  0
 29 64  1  0  0  0  0
 29 65  1  0  0  0  0
 30 60  1  0  0  0  0
 30 61  1  0  0  0  0
 30 62  1  0  0  0  0
 31 32  1  0  0  0  0
 32 33  2  0  0  0  0
 32 66  1  0  0  0  0
 33 34  1  0  0  0  0
 33 35  1  0  0  0  0
 35 67  1  0  0  0  0
 35 68  1  0  0  0  0
 35 69  1  0  0  0  0
M  END
> <PUBCHEM_COMPOUND_CID>
101573171

> <PUBCHEM_CONFORMER_RMSD>
0.8

> <PUBCHEM_CONFORMER_DIVERSEORDER>
1
33
25
45
36
48
6
16
24
47
46
4
27
14
13
17
22
39
30
42
2
38
23
8
40
5
10
28
37
29
34
12
49
20
32
15
21
35
19
31
41
18
7
11
3
43
26
9
44

> <PUBCHEM_MMFF94_PARTIAL_CHARGES>
26
1 -0.56
11 0.28
13 0.28
15 0.56
18 0.06
19 0.06
2 -0.43
23 0.14
24 0.28
25 0.66
26 0.66
28 -0.29
3 -0.68
31 0.08
32 -0.15
33 -0.12
34 0.71
35 0.14
4 -0.43
5 -0.57
55 0.4
59 0.15
6 -0.57
66 0.15
7 -0.23
8 -0.57

> <PUBCHEM_EFFECTIVE_ROTOR_COUNT>
4

> <PUBCHEM_PHARMACOPHORE_FEATURES>
14
1 1 acceptor
1 27 hydrophobe
1 3 acceptor
1 3 donor
1 5 acceptor
1 6 acceptor
1 8 acceptor
3 24 29 30 hydrophobe
5 1 9 10 11 15 rings
5 2 10 15 18 25 rings
5 4 19 20 24 26 rings
5 7 31 32 33 34 rings
5 9 11 12 13 14 rings
7 12 13 16 17 19 20 21 rings

> <PUBCHEM_HEAVY_ATOM_COUNT>
35

> <PUBCHEM_ATOM_DEF_STEREO_COUNT>
9

> <PUBCHEM_ATOM_UDEF_STEREO_COUNT>
0

> <PUBCHEM_BOND_DEF_STEREO_COUNT>
1

> <PUBCHEM_BOND_UDEF_STEREO_COUNT>
0

> <PUBCHEM_ISOTOPIC_ATOM_COUNT>
0

> <PUBCHEM_COMPONENT_COUNT>
1

> <PUBCHEM_CACTVS_TAUTO_COUNT>
12

> <PUBCHEM_CONFORMER_ID>
060DE23300000001

> <PUBCHEM_MMFF94_ENERGY>
118.7468

> <PUBCHEM_FEATURE_SELFOVERLAP>
71.995

> <PUBCHEM_SHAPE_FINGERPRINT>
10670039 82 17989207014674031392
10674148 151 18186800289132059650
10763959 59 18342454893995551392
11297750 10 15432822577865228514
11578080 2 18411982420892180262
11991303 11 17346027995639196894
12035758 1 14056717972256004720
12236239 1 18114741633572844146
12422481 6 17240199911234201630
12633257 1 15430042079660096107
1361 4 9943534007577043796
13782708 43 9799691489498808532
13911987 19 17775282760162357135
14849402 71 15285940107668005430
14856354 85 16081374089442898538
14950920 106 14129639743963671701
15064986 266 18343302527919627295
15131766 46 18048876596977729060
15183329 4 17846224371478313832
15238133 3 17530975660925257853
15324884 4 16699746124415413290
15352257 5 9007057967771649380
15461852 350 18342175617804492223
15510800 12 10807345526814335333
15604295 49 18268142249286854792
15840311 113 17894631474444650436
15961568 22 18409728443783842077
17980427 23 17748827448976551742
18608769 82 18270684285635895947
18681886 176 18130217267743639888
19611394 137 18116161150365945019
20721686 146 18260264144797792244
21033648 144 18339647733471975679
21033648 29 18338504353069675520
22122407 14 17822581615416644244
2260408 40 15719673152321863858
23559900 14 17704066300587308635
23569914 2 17623519424807379808
23569943 247 12533420418615202188
23576562 1 17273127132513626316
2838139 119 18342173384046847485
3103668 31 16699751622036759102
3383291 50 10663811988267604404
4058900 60 18335983086375096587
4073 2 18040720307462484210
4144715 1 18116444832865973162
439807 62 9511464424471515408
563151 74 16877944901873679065
563151 97 18335412470232196295
57527295 17 16056608599270445979
59755656 215 17561365084575574478
6086070 43 17489575788586419906
6328613 192 18334857238366212784
7495541 125 11242258445869686682
999808 66 9583517633437823277

> <PUBCHEM_SHAPE_MULTIPOLES>
673.33
19.27
2.79
1.8
14.29
0.47
-0.29
14.5
-3.83
-1.84
-0.14
0.21
-0.26
0.34

> <PUBCHEM_SHAPE_SELFOVERLAP>
1485.831

> <PUBCHEM_SHAPE_VOLUME>
366.1

> <PUBCHEM_COORDINATE_TYPE>
2
5
10

$$$$
