101548960
  -OEChem-03292013293D

 61 65  0     1  0  0  0  0  0999 V2000
   -0.2783    2.5402    1.6933 O   0  0  0  0  0  0  0  0  0  0  0  0
    0.6509   -2.1647    0.8944 O   0  0  0  0  0  0  0  0  0  0  0  0
   -1.0398    3.1231   -0.4605 O   0  0  0  0  0  0  0  0  0  0  0  0
    1.4339    2.2582   -1.5361 O   0  0  0  0  0  0  0  0  0  0  0  0
   -2.6303    1.7058   -1.8807 O   0  0  0  0  0  0  0  0  0  0  0  0
    3.7358   -0.7796   -0.0826 O   0  0  0  0  0  0  0  0  0  0  0  0
   -4.8610    0.3388   -2.0880 O   0  0  0  0  0  0  0  0  0  0  0  0
    2.4028   -3.0347   -0.1959 O   0  0  0  0  0  0  0  0  0  0  0  0
    3.5939   -1.4015   -2.3030 O   0  0  0  0  0  0  0  0  0  0  0  0
    0.3595    0.2738    1.3197 C   0  0  2  0  0  0  0  0  0  0  0  0
   -0.4824    0.7746    0.1176 C   0  0  1  0  0  0  0  0  0  0  0  0
   -2.0133    0.3021    0.0764 C   0  0  2  0  0  0  0  0  0  0  0  0
    1.9001    0.3896    1.0285 C   0  0  2  0  0  0  0  0  0  0  0  0
   -0.1672    2.2855    0.2754 C   0  0  2  0  0  0  0  0  0  0  0  0
    0.0788   -1.1549    1.7667 C   0  0  1  0  0  0  0  0  0  0  0  0
   -2.0870   -1.2257    0.4759 C   0  0  1  0  0  0  0  0  0  0  0  0
   -0.0108    1.3112    2.3930 C   0  0  0  0  0  0  0  0  0  0  0  0
    2.3232    1.8632    0.7169 C   0  0  2  0  0  0  0  0  0  0  0  0
   -1.4122   -1.4857    1.8340 C   0  0  0  0  0  0  0  0  0  0  0  0
    1.2869    2.5957   -0.1580 C   0  0  1  0  0  0  0  0  0  0  0  0
   -2.5427    0.3790   -1.3991 C   0  0  1  0  0  0  0  0  0  0  0  0
   -3.5312   -1.8030    0.3935 C   0  0  1  0  0  0  0  0  0  0  0  0
    2.3183   -0.6442   -0.0206 C   0  0  2  0  0  0  0  0  0  0  0  0
   -2.9461    1.1591    0.9753 C   0  0  0  0  0  0  0  0  0  0  0  0
   -4.0802   -1.6517   -1.0297 C   0  0  0  0  0  0  0  0  0  0  0  0
   -3.9279   -0.2397   -1.5319 C   0  0  0  0  0  0  0  0  0  0  0  0
    3.7514    2.0458    0.2000 C   0  0  0  0  0  0  0  0  0  0  0  0
    1.8209   -2.0431    0.2393 C   0  0  0  0  0  0  0  0  0  0  0  0
   -3.6206   -3.2834    0.7852 C   0  0  0  0  0  0  0  0  0  0  0  0
    4.2408   -1.1665   -1.2913 C   0  0  0  0  0  0  0  0  0  0  0  0
    5.7337   -1.2671   -1.2076 C   0  0  0  0  0  0  0  0  0  0  0  0
   -0.0599    0.4031   -0.8212 H   0  0  0  0  0  0  0  0  0  0  0  0
    2.4370    0.1235    1.9530 H   0  0  0  0  0  0  0  0  0  0  0  0
    0.5155   -1.3330    2.7575 H   0  0  0  0  0  0  0  0  0  0  0  0
   -1.5053   -1.7786   -0.2779 H   0  0  0  0  0  0  0  0  0  0  0  0
   -0.8974    1.0518    2.9734 H   0  0  0  0  0  0  0  0  0  0  0  0
    0.7889    1.4811    3.1220 H   0  0  0  0  0  0  0  0  0  0  0  0
    2.3183    2.3830    1.6861 H   0  0  0  0  0  0  0  0  0  0  0  0
   -1.9099   -0.9335    2.6360 H   0  0  0  0  0  0  0  0  0  0  0  0
   -1.4934   -2.5470    2.0924 H   0  0  0  0  0  0  0  0  0  0  0  0
    1.4710    3.6744   -0.0813 H   0  0  0  0  0  0  0  0  0  0  0  0
   -1.8752   -0.1747   -2.0710 H   0  0  0  0  0  0  0  0  0  0  0  0
   -4.1806   -1.2525    1.0843 H   0  0  0  0  0  0  0  0  0  0  0  0
    1.9171   -0.3698   -0.9987 H   0  0  0  0  0  0  0  0  0  0  0  0
   -2.7531    1.0213    2.0390 H   0  0  0  0  0  0  0  0  0  0  0  0
   -4.0018    0.9093    0.8285 H   0  0  0  0  0  0  0  0  0  0  0  0
   -2.8736    2.2275    0.7627 H   0  0  0  0  0  0  0  0  0  0  0  0
   -5.1435   -1.9175   -1.0527 H   0  0  0  0  0  0  0  0  0  0  0  0
   -3.5561   -2.3119   -1.7308 H   0  0  0  0  0  0  0  0  0  0  0  0
    3.8978    1.6546   -0.8094 H   0  0  0  0  0  0  0  0  0  0  0  0
    4.4713    1.5653    0.8707 H   0  0  0  0  0  0  0  0  0  0  0  0
    4.0036    3.1120    0.1671 H   0  0  0  0  0  0  0  0  0  0  0  0
   -0.6150    3.9883   -0.5814 H   0  0  0  0  0  0  0  0  0  0  0  0
   -2.8883   -3.8852    0.2367 H   0  0  0  0  0  0  0  0  0  0  0  0
   -4.6172   -3.6841    0.5687 H   0  0  0  0  0  0  0  0  0  0  0  0
   -3.4526   -3.4237    1.8571 H   0  0  0  0  0  0  0  0  0  0  0  0
    1.9592    1.4520   -1.6317 H   0  0  0  0  0  0  0  0  0  0  0  0
   -2.8373    1.6634   -2.8300 H   0  0  0  0  0  0  0  0  0  0  0  0
    6.1566   -0.2927   -0.9505 H   0  0  0  0  0  0  0  0  0  0  0  0
    6.1317   -1.5744   -2.1790 H   0  0  0  0  0  0  0  0  0  0  0  0
    6.0130   -2.0171   -0.4635 H   0  0  0  0  0  0  0  0  0  0  0  0
  1 14  1  0  0  0  0
  1 17  1  0  0  0  0
  2 15  1  0  0  0  0
  2 28  1  0  0  0  0
  3 14  1  0  0  0  0
  3 53  1  0  0  0  0
  4 20  1  0  0  0  0
  4 57  1  0  0  0  0
  5 21  1  0  0  0  0
  5 58  1  0  0  0  0
  6 23  1  0  0  0  0
  6 30  1  0  0  0  0
  7 26  2  0  0  0  0
  8 28  2  0  0  0  0
  9 30  2  0  0  0  0
 10 11  1  0  0  0  0
 10 13  1  0  0  0  0
 10 15  1  0  0  0  0
 10 17  1  0  0  0  0
 11 12  1  0  0  0  0
 11 14  1  0  0  0  0
 11 32  1  0  0  0  0
 12 16  1  0  0  0  0
 12 21  1  0  0  0  0
 12 24  1  0  0  0  0
 13 18  1  0  0  0  0
 13 23  1  0  0  0  0
 13 33  1  0  0  0  0
 14 20  1  0  0  0  0
 15 19  1  0  0  0  0
 15 34  1  0  0  0  0
 16 19  1  0  0  0  0
 16 22  1  0  0  0  0
 16 35  1  0  0  0  0
 17 36  1  0  0  0  0
 17 37  1  0  0  0  0
 18 20  1  0  0  0  0
 18 27  1  0  0  0  0
 18 38  1  0  0  0  0
 19 39  1  0  0  0  0
 19 40  1  0  0  0  0
 20 41  1  0  0  0  0
 21 26  1  0  0  0  0
 21 42  1  0  0  0  0
 22 25  1  0  0  0  0
 22 29  1  0  0  0  0
 22 43  1  0  0  0  0
 23 28  1  0  0  0  0
 23 44  1  0  0  0  0
 24 45  1  0  0  0  0
 24 46  1  0  0  0  0
 24 47  1  0  0  0  0
 25 26  1  0  0  0  0
 25 48  1  0  0  0  0
 25 49  1  0  0  0  0
 27 50  1  0  0  0  0
 27 51  1  0  0  0  0
 27 52  1  0  0  0  0
 29 54  1  0  0  0  0
 29 55  1  0  0  0  0
 29 56  1  0  0  0  0
 30 31  1  0  0  0  0
 31 59  1  0  0  0  0
 31 60  1  0  0  0  0
 31 61  1  0  0  0  0
M  END
> <PUBCHEM_COMPOUND_CID>
101548960

> <PUBCHEM_CONFORMER_RMSD>
0.8

> <PUBCHEM_CONFORMER_DIVERSEORDER>
1
2

> <PUBCHEM_MMFF94_PARTIAL_CHARGES>
23
1 -0.56
14 0.56
15 0.28
17 0.28
2 -0.43
20 0.28
21 0.34
23 0.34
25 0.06
26 0.45
28 0.66
3 -0.68
30 0.66
31 0.06
4 -0.68
5 -0.68
53 0.4
57 0.4
58 0.4
6 -0.43
7 -0.57
8 -0.57
9 -0.57

> <PUBCHEM_EFFECTIVE_ROTOR_COUNT>
4

> <PUBCHEM_PHARMACOPHORE_FEATURES>
14
1 1 acceptor
1 3 acceptor
1 3 donor
1 4 acceptor
1 4 donor
1 5 acceptor
1 5 donor
1 7 acceptor
1 8 acceptor
1 9 acceptor
6 10 11 12 15 16 19 rings
6 12 16 21 22 25 26 rings
6 2 10 13 15 23 28 rings
8 1 10 11 13 14 17 18 20 rings

> <PUBCHEM_HEAVY_ATOM_COUNT>
31

> <PUBCHEM_ATOM_DEF_STEREO_COUNT>
12

> <PUBCHEM_ATOM_UDEF_STEREO_COUNT>
0

> <PUBCHEM_BOND_DEF_STEREO_COUNT>
0

> <PUBCHEM_BOND_UDEF_STEREO_COUNT>
0

> <PUBCHEM_ISOTOPIC_ATOM_COUNT>
0

> <PUBCHEM_COMPONENT_COUNT>
1

> <PUBCHEM_CACTVS_TAUTO_COUNT>
4

> <PUBCHEM_CONFORMER_ID>
060D83A000000001

> <PUBCHEM_MMFF94_ENERGY>
126.5193

> <PUBCHEM_FEATURE_SELFOVERLAP>
71.289

> <PUBCHEM_SHAPE_FINGERPRINT>
10863032 1 18343586269473662169
11115154 58 17845638271746716417
11961588 58 16805608122382252030
12156800 1 11116635583363496513
12553582 1 18338800004984116538
12623949 98 17692273132395570983
12788726 201 17628639652571723913
13140716 1 18410290319910290328
13544653 18 17703790323221379864
14251757 17 18334851740343668407
14790565 3 17618793452730864912
16945 1 18265324023808777472
17349148 13 18042974169018798058
17357779 13 18343306955155514962
17492 54 18040996189805848782
1813 80 16200438000137951560
20600515 1 17474341883037218305
20691752 17 17822294616778941377
20905425 154 17970323005524672081
22182313 1 18190747620757094306
22393880 68 18260542346634772326
22907989 373 17751391497471328358
23419403 2 17028859624247443569
23559900 14 18335692871244978188
23566358 2 18263926712006997161
23598288 3 17417271852377804697
238 59 17832958892052944591
2748010 2 18263650734957755944
2838139 119 15502378933036275502
3323516 105 18336545040043349363
4280585 95 18337380544701051394
46194498 28 17972315385287801839
463206 1 17986956451800364398
484985 159 15624260741282448726
57527585 103 17390552607616891362
6287921 2 17616818073360525779
70251023 43 17988925531159847198

> <PUBCHEM_SHAPE_MULTIPOLES>
585.14
8.18
3.47
1.99
2.27
0.17
-0.19
-4.71
-5.16
0.55
0.19
-0.64
0.14
1.59

> <PUBCHEM_SHAPE_SELFOVERLAP>
1277.391

> <PUBCHEM_SHAPE_VOLUME>
307.9

> <PUBCHEM_COORDINATE_TYPE>
2
5
10

$$$$
