101574727
  -OEChem-03292013293D

 44 47  0     1  0  0  0  0  0999 V2000
   -0.5286    3.4243    1.0787 O   0  0  0  0  0  0  0  0  0  0  0  0
   -0.5616    3.1962   -2.4609 O   0  0  0  0  0  0  0  0  0  0  0  0
    0.8821    2.8659    2.8075 O   0  0  0  0  0  0  0  0  0  0  0  0
    2.0898   -3.5886    0.6847 O   0  0  0  0  0  0  0  0  0  0  0  0
    4.7574   -3.3840   -0.0686 O   0  0  0  0  0  0  0  0  0  0  0  0
   -5.0757   -1.6689    0.9209 O   0  0  0  0  0  0  0  0  0  0  0  0
   -4.3099   -2.5515   -1.0723 O   0  0  0  0  0  0  0  0  0  0  0  0
   -1.0714    1.2797    0.3854 C   0  0  1  0  0  0  0  0  0  0  0  0
    0.2989    1.2271    1.0966 C   0  0  1  0  0  0  0  0  0  0  0  0
    0.8546    1.5560   -1.3502 C   0  0  2  0  0  0  0  0  0  0  0  0
    1.4696    1.2391    0.0542 C   0  0  2  0  0  0  0  0  0  0  0  0
   -1.0030    2.7380   -0.0952 C   0  0  2  0  0  0  0  0  0  0  0  0
    0.0627    2.8886   -1.2182 C   0  0  2  0  0  0  0  0  0  0  0  0
   -1.1410    0.3283   -0.7806 C   0  0  0  0  0  0  0  0  0  0  0  0
   -0.1531    0.4692   -1.6788 C   0  0  0  0  0  0  0  0  0  0  0  0
    0.2677    2.5680    1.7959 C   0  0  0  0  0  0  0  0  0  0  0  0
    2.3493   -0.0030    0.0231 C   0  0  0  0  0  0  0  0  0  0  0  0
   -2.1974   -0.6334   -0.8791 C   0  0  0  0  0  0  0  0  0  0  0  0
    1.8167   -1.2438    0.3728 C   0  0  0  0  0  0  0  0  0  0  0  0
    3.6877    0.0998   -0.3558 C   0  0  0  0  0  0  0  0  0  0  0  0
   -3.1708   -0.7495    0.0357 C   0  0  0  0  0  0  0  0  0  0  0  0
    2.6225   -2.3821    0.3432 C   0  0  0  0  0  0  0  0  0  0  0  0
    4.4936   -1.0385   -0.3851 C   0  0  0  0  0  0  0  0  0  0  0  0
    3.9609   -2.2794   -0.0357 C   0  0  0  0  0  0  0  0  0  0  0  0
   -4.2283   -1.7692   -0.1386 C   0  0  0  0  0  0  0  0  0  0  0  0
   -6.1728   -2.5884    0.9203 C   0  0  0  0  0  0  0  0  0  0  0  0
   -1.8547    1.1942    1.1408 H   0  0  0  0  0  0  0  0  0  0  0  0
    0.3454    0.4392    1.8530 H   0  0  0  0  0  0  0  0  0  0  0  0
    1.6091    1.6177   -2.1418 H   0  0  0  0  0  0  0  0  0  0  0  0
    2.1433    2.0693    0.3159 H   0  0  0  0  0  0  0  0  0  0  0  0
   -1.9834    3.1350   -0.3775 H   0  0  0  0  0  0  0  0  0  0  0  0
    0.7563    3.7082   -0.9943 H   0  0  0  0  0  0  0  0  0  0  0  0
   -0.0560   -0.1345   -2.5726 H   0  0  0  0  0  0  0  0  0  0  0  0
   -1.0498    4.0288   -2.3427 H   0  0  0  0  0  0  0  0  0  0  0  0
   -2.1820   -1.2864   -1.7484 H   0  0  0  0  0  0  0  0  0  0  0  0
    0.7757   -1.3541    0.6591 H   0  0  0  0  0  0  0  0  0  0  0  0
    4.1141    1.0602   -0.6330 H   0  0  0  0  0  0  0  0  0  0  0  0
   -3.2561   -0.1403    0.9249 H   0  0  0  0  0  0  0  0  0  0  0  0
    5.5345   -0.9443   -0.6828 H   0  0  0  0  0  0  0  0  0  0  0  0
    1.1532   -3.4689    0.9175 H   0  0  0  0  0  0  0  0  0  0  0  0
    5.6499   -3.1224   -0.3533 H   0  0  0  0  0  0  0  0  0  0  0  0
   -6.7712   -2.4043    1.8165 H   0  0  0  0  0  0  0  0  0  0  0  0
   -5.8038   -3.6180    0.9495 H   0  0  0  0  0  0  0  0  0  0  0  0
   -6.8011   -2.4275    0.0390 H   0  0  0  0  0  0  0  0  0  0  0  0
  1 12  1  0  0  0  0
  1 16  1  0  0  0  0
  2 13  1  0  0  0  0
  2 34  1  0  0  0  0
  3 16  2  0  0  0  0
  4 22  1  0  0  0  0
  4 40  1  0  0  0  0
  5 24  1  0  0  0  0
  5 41  1  0  0  0  0
  6 25  1  0  0  0  0
  6 26  1  0  0  0  0
  7 25  2  0  0  0  0
  8  9  1  0  0  0  0
  8 12  1  0  0  0  0
  8 14  1  0  0  0  0
  8 27  1  0  0  0  0
  9 11  1  0  0  0  0
  9 16  1  0  0  0  0
  9 28  1  0  0  0  0
 10 11  1  0  0  0  0
 10 13  1  0  0  0  0
 10 15  1  0  0  0  0
 10 29  1  0  0  0  0
 11 17  1  0  0  0  0
 11 30  1  0  0  0  0
 12 13  1  0  0  0  0
 12 31  1  0  0  0  0
 13 32  1  0  0  0  0
 14 15  2  0  0  0  0
 14 18  1  0  0  0  0
 15 33  1  0  0  0  0
 17 19  2  0  0  0  0
 17 20  1  0  0  0  0
 18 21  2  0  0  0  0
 18 35  1  0  0  0  0
 19 22  1  0  0  0  0
 19 36  1  0  0  0  0
 20 23  2  0  0  0  0
 20 37  1  0  0  0  0
 21 25  1  0  0  0  0
 21 38  1  0  0  0  0
 22 24  2  0  0  0  0
 23 24  1  0  0  0  0
 23 39  1  0  0  0  0
 26 42  1  0  0  0  0
 26 43  1  0  0  0  0
 26 44  1  0  0  0  0
M  END
> <PUBCHEM_COMPOUND_CID>
101574727

> <PUBCHEM_CONFORMER_RMSD>
0.8

> <PUBCHEM_CONFORMER_DIVERSEORDER>
3
7
5
11
9
10
1
6
4
8
2

> <PUBCHEM_MMFF94_PARTIAL_CHARGES>
35
1 -0.43
10 0.14
11 0.14
12 0.28
13 0.28
14 -0.14
15 -0.29
16 0.66
17 -0.14
18 -0.15
19 -0.15
2 -0.68
20 -0.15
21 -0.14
22 0.08
23 -0.15
24 0.08
25 0.71
26 0.28
3 -0.57
33 0.15
34 0.4
35 0.15
36 0.15
37 0.15
38 0.15
39 0.15
4 -0.53
40 0.45
41 0.45
5 -0.53
6 -0.43
7 -0.57
8 0.14
9 0.06

> <PUBCHEM_EFFECTIVE_ROTOR_COUNT>
4.6

> <PUBCHEM_PHARMACOPHORE_FEATURES>
8
1 2 acceptor
1 2 donor
1 3 acceptor
1 4 donor
1 5 donor
1 7 acceptor
10 1 8 9 10 11 12 13 14 15 16 rings
6 17 19 20 22 23 24 rings

> <PUBCHEM_HEAVY_ATOM_COUNT>
26

> <PUBCHEM_ATOM_DEF_STEREO_COUNT>
6

> <PUBCHEM_ATOM_UDEF_STEREO_COUNT>
0

> <PUBCHEM_BOND_DEF_STEREO_COUNT>
1

> <PUBCHEM_BOND_UDEF_STEREO_COUNT>
0

> <PUBCHEM_ISOTOPIC_ATOM_COUNT>
0

> <PUBCHEM_COMPONENT_COUNT>
1

> <PUBCHEM_CACTVS_TAUTO_COUNT>
642

> <PUBCHEM_CONFORMER_ID>
060DE84700000003

> <PUBCHEM_MMFF94_ENERGY>
82.6265

> <PUBCHEM_FEATURE_SELFOVERLAP>
40.601

> <PUBCHEM_SHAPE_FINGERPRINT>
10764073 3 14832788304065724543
11552529 35 18053664681482855114
11578080 2 18340189843596302140
12107183 9 18341626893441956507
12506688 2 18410853291169976190
12553582 1 18343009012852588326
12824470 246 18263078834197576186
13103583 49 17989219144041379019
13134695 92 18201147871454302101
13135754 10 17629500591740870230
13533116 47 18196372752990919403
13544653 18 18410291410784724527
13631057 29 18338515236516939590
13911852 28 18413106152384467847
13911987 19 17318203814906792108
13955234 65 17976549630504988801
14787075 74 18199751517509441096
14863182 85 17905882939760968713
14955137 171 18129959982181326975
15163728 17 8069746368149581547
15475509 84 17988936561021180865
16945 1 18194108630177486308
17492 54 17459769192520169414
17492 89 18267585702723106462
17980427 23 15338832123154522385
17980427 26 17413013654139199661
1813 80 18113899385721567693
20602899 9 17472402267063838164
20775530 9 18335976502369618147
21033648 29 15266794217310054507
21421861 104 18197804222186601595
23419403 2 18128230411609639349
23466295 7 18049164362846904486
23559900 14 18196074574532492640
239999 70 16518214577869541109
25222932 49 15615785057743705431
2838139 119 9799692567193104947
314194 84 18339643459632025711
3380486 145 17842238645479216276
3421961 26 18341048644123910499
3737641 26 18341338786107968526
392239 28 18058426851374461354
46194498 28 17314510533874073567
469060 322 18260555481077169856
57527585 21 16445920382499067524
58260988 114 18122071896964474714
5895379 119 15623453889348350673

> <PUBCHEM_SHAPE_MULTIPOLES>
493.98
8.7
4.75
1.67
8.94
0.24
-0.26
-14.01
-0.94
-0.64
-0.75
0.29
1.83
0.41

> <PUBCHEM_SHAPE_SELFOVERLAP>
1094.756

> <PUBCHEM_SHAPE_VOLUME>
262.5

> <PUBCHEM_COORDINATE_TYPE>
2
5
10

$$$$
