101558920
  -OEChem-03292013293D

 52 55  0     1  0  0  0  0  0999 V2000
   -2.6491   -1.5796   -0.3073 O   0  0  0  0  0  0  0  0  0  0  0  0
   -0.8862   -1.6946    2.0680 O   0  0  0  0  0  0  0  0  0  0  0  0
    2.0665    4.0039    0.1023 O   0  0  0  0  0  0  0  0  0  0  0  0
   -1.3490   -3.4003   -0.6005 O   0  0  0  0  0  0  0  0  0  0  0  0
    3.8909   -0.7305   -1.7488 O   0  0  0  0  0  0  0  0  0  0  0  0
    5.3346    0.1588   -0.1727 O   0  0  0  0  0  0  0  0  0  0  0  0
   -6.0866    1.4218   -0.2784 O   0  0  0  0  0  0  0  0  0  0  0  0
   -0.3747   -0.0635    0.2869 C   0  0  1  0  0  0  0  0  0  0  0  0
    0.7686    0.6246    1.1402 C   0  0  1  0  0  0  0  0  0  0  0  0
    2.1907   -0.0522    0.9700 C   0  0  1  0  0  0  0  0  0  0  0  0
   -0.4425   -1.5618    0.7146 C   0  0  1  0  0  0  0  0  0  0  0  0
   -1.7513    0.5801    0.5942 C   0  0  0  0  0  0  0  0  0  0  0  0
    0.8642    2.1631    1.0327 C   0  0  0  0  0  0  0  0  0  0  0  0
   -0.1278    0.0544   -1.2435 C   0  0  0  0  0  0  0  0  0  0  0  0
    2.0566   -1.5531    0.7309 C   0  0  0  0  0  0  0  0  0  0  0  0
    0.9009   -2.2252    0.6297 C   0  0  0  0  0  0  0  0  0  0  0  0
    3.0118    0.6274   -0.1227 C   0  0  0  0  0  0  0  0  0  0  0  0
   -2.9363   -0.3963    0.4716 C   0  0  1  0  0  0  0  0  0  0  0  0
    1.5905    2.6908   -0.2018 C   0  0  2  0  0  0  0  0  0  0  0  0
    2.9787    0.1149    2.2947 C   0  0  0  0  0  0  0  0  0  0  0  0
   -1.4988   -2.2834   -0.1160 C   0  0  0  0  0  0  0  0  0  0  0  0
    2.7387    1.8365   -0.6390 C   0  0  0  0  0  0  0  0  0  0  0  0
   -4.1568    0.2813   -0.1149 C   0  0  0  0  0  0  0  0  0  0  0  0
    4.2312    0.0040   -0.6625 C   0  0  0  0  0  0  0  0  0  0  0  0
   -4.5059    0.3728   -1.4835 C   0  0  0  0  0  0  0  0  0  0  0  0
   -5.1498    0.9347    0.5771 C   0  0  0  0  0  0  0  0  0  0  0  0
   -5.6874    1.0756   -1.5302 C   0  0  0  0  0  0  0  0  0  0  0  0
    4.9783   -1.4042   -2.3911 C   0  0  0  0  0  0  0  0  0  0  0  0
    0.4678    0.4540    2.1867 H   0  0  0  0  0  0  0  0  0  0  0  0
   -1.8997    1.4585   -0.0485 H   0  0  0  0  0  0  0  0  0  0  0  0
   -1.7720    0.9802    1.6174 H   0  0  0  0  0  0  0  0  0  0  0  0
    1.3811    2.5353    1.9291 H   0  0  0  0  0  0  0  0  0  0  0  0
   -0.1257    2.6298    1.0932 H   0  0  0  0  0  0  0  0  0  0  0  0
    0.8239   -0.3812   -1.5565 H   0  0  0  0  0  0  0  0  0  0  0  0
   -0.1539    1.0927   -1.5773 H   0  0  0  0  0  0  0  0  0  0  0  0
   -0.9052   -0.4503   -1.8266 H   0  0  0  0  0  0  0  0  0  0  0  0
    2.9758   -2.1346    0.6804 H   0  0  0  0  0  0  0  0  0  0  0  0
    0.9477   -3.3059    0.5220 H   0  0  0  0  0  0  0  0  0  0  0  0
   -3.2158   -0.7528    1.4722 H   0  0  0  0  0  0  0  0  0  0  0  0
    0.8985    2.8043   -1.0403 H   0  0  0  0  0  0  0  0  0  0  0  0
    3.1663    1.1688    2.5292 H   0  0  0  0  0  0  0  0  0  0  0  0
    3.9546   -0.3852    2.2557 H   0  0  0  0  0  0  0  0  0  0  0  0
    2.4316   -0.3191    3.1405 H   0  0  0  0  0  0  0  0  0  0  0  0
    3.3744    2.2523   -1.4186 H   0  0  0  0  0  0  0  0  0  0  0  0
   -0.8401   -2.6337    2.3178 H   0  0  0  0  0  0  0  0  0  0  0  0
    1.2949    4.5486    0.3344 H   0  0  0  0  0  0  0  0  0  0  0  0
   -3.9662   -0.0198   -2.3336 H   0  0  0  0  0  0  0  0  0  0  0  0
   -5.3277    1.1319    1.6244 H   0  0  0  0  0  0  0  0  0  0  0  0
   -6.3357    1.3955   -2.3328 H   0  0  0  0  0  0  0  0  0  0  0  0
    4.5786   -1.9561   -3.2460 H   0  0  0  0  0  0  0  0  0  0  0  0
    5.4439   -2.1145   -1.7011 H   0  0  0  0  0  0  0  0  0  0  0  0
    5.7128   -0.6785   -2.7535 H   0  0  0  0  0  0  0  0  0  0  0  0
  1 18  1  0  0  0  0
  1 21  1  0  0  0  0
  2 11  1  0  0  0  0
  2 45  1  0  0  0  0
  3 19  1  0  0  0  0
  3 46  1  0  0  0  0
  4 21  2  0  0  0  0
  5 24  1  0  0  0  0
  5 28  1  0  0  0  0
  6 24  2  0  0  0  0
  7 26  1  0  0  0  0
  7 27  1  0  0  0  0
  8  9  1  0  0  0  0
  8 11  1  0  0  0  0
  8 12  1  0  0  0  0
  8 14  1  0  0  0  0
  9 10  1  0  0  0  0
  9 13  1  0  0  0  0
  9 29  1  0  0  0  0
 10 15  1  0  0  0  0
 10 17  1  0  0  0  0
 10 20  1  0  0  0  0
 11 16  1  0  0  0  0
 11 21  1  0  0  0  0
 12 18  1  0  0  0  0
 12 30  1  0  0  0  0
 12 31  1  0  0  0  0
 13 19  1  0  0  0  0
 13 32  1  0  0  0  0
 13 33  1  0  0  0  0
 14 34  1  0  0  0  0
 14 35  1  0  0  0  0
 14 36  1  0  0  0  0
 15 16  2  0  0  0  0
 15 37  1  0  0  0  0
 16 38  1  0  0  0  0
 17 22  2  0  0  0  0
 17 24  1  0  0  0  0
 18 23  1  0  0  0  0
 18 39  1  0  0  0  0
 19 22  1  0  0  0  0
 19 40  1  0  0  0  0
 20 41  1  0  0  0  0
 20 42  1  0  0  0  0
 20 43  1  0  0  0  0
 22 44  1  0  0  0  0
 23 25  1  0  0  0  0
 23 26  2  0  0  0  0
 25 27  2  0  0  0  0
 25 47  1  0  0  0  0
 26 48  1  0  0  0  0
 27 49  1  0  0  0  0
 28 50  1  0  0  0  0
 28 51  1  0  0  0  0
 28 52  1  0  0  0  0
M  END
> <PUBCHEM_COMPOUND_CID>
101558920

> <PUBCHEM_CONFORMER_RMSD>
0.8

> <PUBCHEM_CONFORMER_DIVERSEORDER>
1
2

> <PUBCHEM_MMFF94_PARTIAL_CHARGES>
30
1 -0.43
10 0.28
11 0.48
15 -0.29
16 -0.29
17 -0.12
18 0.46
19 0.42
2 -0.68
21 0.66
22 -0.29
23 -0.18
24 0.71
25 -0.15
26 -0.01
27 -0.01
28 0.28
3 -0.68
37 0.15
38 0.15
4 -0.57
44 0.15
45 0.4
46 0.4
47 0.15
48 0.15
49 0.15
5 -0.43
6 -0.57
7 -0.28

> <PUBCHEM_EFFECTIVE_ROTOR_COUNT>
4

> <PUBCHEM_PHARMACOPHORE_FEATURES>
11
1 2 acceptor
1 2 donor
1 3 acceptor
1 3 donor
1 4 acceptor
1 6 acceptor
1 7 acceptor
5 7 23 25 26 27 rings
6 1 8 11 12 18 21 rings
6 8 9 10 11 15 16 rings
6 9 10 13 17 19 22 rings

> <PUBCHEM_HEAVY_ATOM_COUNT>
28

> <PUBCHEM_ATOM_DEF_STEREO_COUNT>
6

> <PUBCHEM_ATOM_UDEF_STEREO_COUNT>
0

> <PUBCHEM_BOND_DEF_STEREO_COUNT>
0

> <PUBCHEM_BOND_UDEF_STEREO_COUNT>
0

> <PUBCHEM_ISOTOPIC_ATOM_COUNT>
0

> <PUBCHEM_COMPONENT_COUNT>
1

> <PUBCHEM_CACTVS_TAUTO_COUNT>
1

> <PUBCHEM_CONFORMER_ID>
060DAA8800000001

> <PUBCHEM_MMFF94_ENERGY>
81.3642

> <PUBCHEM_FEATURE_SELFOVERLAP>
55.878

> <PUBCHEM_SHAPE_FINGERPRINT>
10165383 225 17603589612136539255
10693767 8 17987794094972108639
11578080 2 17752219520096151564
11595378 159 14056988387707843885
12011746 2 18409169878743388997
12596602 18 13479140081816212357
12788726 201 18335984164717901008
12895836 83 17241911924164413678
13140716 1 18189885590487231177
13583140 156 17822013129555496283
13944108 23 17902785272441488141
14790565 3 18409737235497591689
15099037 51 18411702096998151757
15210252 30 18186526492639691116
15238133 3 17967524662717187616
15475509 8 18128552473873926549
15788980 27 16056875836841753613
1601671 61 18260545597871968869
16752209 62 18341050713939691497
16945 1 18410282636066240754
17349148 13 16415206688939383071
17980427 23 17910075287793658520
18186145 218 18410005572453485473
20465049 17 18335430062201449811
20691752 17 17024291123691106768
21033648 29 17604136091576689445
21069387 34 16559038198340425834
21285901 2 18129108827337629132
21307412 95 17986977201067089870
21315764 119 16988283071833895805
21864079 5 18190171476606123697
22393880 68 18337103562133376023
23536364 44 18194404381488105604
23558518 356 17755297121243918793
23559900 14 18129665326377012288
23569914 2 15361035729226301941
2637199 183 18334294249752486281
3004659 81 13542462081313670609
3060560 45 18408602552571629862
335352 9 18408882940948008068
340366 18 18337398235117267780
376196 1 17833829748513386536
392239 28 11098146629358820478
4058900 60 17459759116331850443
4340502 62 11747228951961080357
439807 62 14979373168080040725
46194498 28 18053678133225571798
474 4 18409160001057047641
513532 50 17917134044747862146
633830 44 18339071687883778661
7164475 11 17840014475343282951
7399639 24 16976735226981034153
9971528 1 17846210059814301424

> <PUBCHEM_SHAPE_MULTIPOLES>
535.14
10.6
2.95
1.72
9.32
0.62
0.19
2.89
5.36
-0.93
-0.02
-1.28
-0.39
0.93

> <PUBCHEM_SHAPE_SELFOVERLAP>
1166.754

> <PUBCHEM_SHAPE_VOLUME>
285.7

> <PUBCHEM_COORDINATE_TYPE>
2
5
10

$$$$
