101593093
  -OEChem-03292013293D

 47 51  0     1  0  0  0  0  0999 V2000
   -0.7477   -1.7195    0.3024 O   0  0  0  0  0  0  0  0  0  0  0  0
   -0.2293    0.9821   -1.1789 O   0  0  0  0  0  0  0  0  0  0  0  0
   -2.9918   -2.0292    0.8982 O   0  0  0  0  0  0  0  0  0  0  0  0
    2.0581    1.0374   -1.4096 O   0  0  0  0  0  0  0  0  0  0  0  0
   -6.2975    0.6335   -0.9708 O   0  0  0  0  0  0  0  0  0  0  0  0
   -6.7355   -0.2186    1.1366 O   0  0  0  0  0  0  0  0  0  0  0  0
    6.3291   -1.2209   -1.0192 O   0  0  0  0  0  0  0  0  0  0  0  0
    7.3472    1.1673   -0.0255 O   0  0  0  0  0  0  0  0  0  0  0  0
   -2.2677   -0.3130   -0.8239 C   0  0  2  0  0  0  0  0  0  0  0  0
   -1.1659    0.5372   -0.1865 C   0  0  1  0  0  0  0  0  0  0  0  0
   -0.4264   -0.3957    0.7437 C   0  0  2  0  0  0  0  0  0  0  0  0
   -3.6027    0.4159   -0.6004 C   0  0  2  0  0  0  0  0  0  0  0  0
   -2.1070   -1.6906   -0.1720 C   0  0  1  0  0  0  0  0  0  0  0  0
   -1.8832    1.6971    0.4076 C   0  0  0  0  0  0  0  0  0  0  0  0
   -3.1965    1.6410    0.1706 C   0  0  0  0  0  0  0  0  0  0  0  0
    0.9854   -0.0773    0.4410 C   0  0  0  0  0  0  0  0  0  0  0  0
   -4.5905   -0.4090    0.1495 C   0  0  0  0  0  0  0  0  0  0  0  0
    1.0537    0.7039   -0.8072 C   0  0  0  0  0  0  0  0  0  0  0  0
   -4.2486   -1.5073    0.8261 C   0  0  0  0  0  0  0  0  0  0  0  0
    2.0669   -0.3658    1.1674 C   0  0  0  0  0  0  0  0  0  0  0  0
   -5.9963   -0.0006    0.1902 C   0  0  0  0  0  0  0  0  0  0  0  0
    3.4508    0.0336    0.8530 C   0  0  0  0  0  0  0  0  0  0  0  0
    4.2494   -0.7878    0.0571 C   0  0  0  0  0  0  0  0  0  0  0  0
    3.9618    1.2320    1.3514 C   0  0  0  0  0  0  0  0  0  0  0  0
   -7.6473    1.0962   -1.0838 C   0  0  0  0  0  0  0  0  0  0  0  0
    5.5590   -0.4106   -0.2406 C   0  0  0  0  0  0  0  0  0  0  0  0
    5.2714    1.6089    1.0538 C   0  0  0  0  0  0  0  0  0  0  0  0
    6.0700    0.7877    0.2578 C   0  0  0  0  0  0  0  0  0  0  0  0
    5.7310   -2.4279   -1.4882 C   0  0  0  0  0  0  0  0  0  0  0  0
   -2.0756   -0.4142   -1.9015 H   0  0  0  0  0  0  0  0  0  0  0  0
   -0.6945   -0.2849    1.7998 H   0  0  0  0  0  0  0  0  0  0  0  0
   -3.9914    0.7182   -1.5797 H   0  0  0  0  0  0  0  0  0  0  0  0
   -2.2062   -2.4789   -0.9271 H   0  0  0  0  0  0  0  0  0  0  0  0
   -1.3981    2.4999    0.9443 H   0  0  0  0  0  0  0  0  0  0  0  0
   -3.8948    2.4004    0.4960 H   0  0  0  0  0  0  0  0  0  0  0  0
   -4.9240   -2.0863    1.4416 H   0  0  0  0  0  0  0  0  0  0  0  0
    1.9560   -0.9245    2.0936 H   0  0  0  0  0  0  0  0  0  0  0  0
    3.7995   -1.7080   -0.3021 H   0  0  0  0  0  0  0  0  0  0  0  0
    3.3511    1.8824    1.9729 H   0  0  0  0  0  0  0  0  0  0  0  0
   -7.7593    1.5835   -2.0560 H   0  0  0  0  0  0  0  0  0  0  0  0
   -7.8641    1.8260   -0.2978 H   0  0  0  0  0  0  0  0  0  0  0  0
   -8.3424    0.2529   -1.0310 H   0  0  0  0  0  0  0  0  0  0  0  0
    5.6568    2.5452    1.4486 H   0  0  0  0  0  0  0  0  0  0  0  0
    7.5262    2.0218    0.4033 H   0  0  0  0  0  0  0  0  0  0  0  0
    5.4698   -3.0972   -0.6613 H   0  0  0  0  0  0  0  0  0  0  0  0
    4.8804   -2.2272   -2.1485 H   0  0  0  0  0  0  0  0  0  0  0  0
    6.4840   -2.9472   -2.0903 H   0  0  0  0  0  0  0  0  0  0  0  0
  1 11  1  0  0  0  0
  1 13  1  0  0  0  0
  2 10  1  0  0  0  0
  2 18  1  0  0  0  0
  3 13  1  0  0  0  0
  3 19  1  0  0  0  0
  4 18  2  0  0  0  0
  5 21  1  0  0  0  0
  5 25  1  0  0  0  0
  6 21  2  0  0  0  0
  7 26  1  0  0  0  0
  7 29  1  0  0  0  0
  8 28  1  0  0  0  0
  8 44  1  0  0  0  0
  9 10  1  0  0  0  0
  9 12  1  0  0  0  0
  9 13  1  0  0  0  0
  9 30  1  0  0  0  0
 10 11  1  0  0  0  0
 10 14  1  0  0  0  0
 11 16  1  0  0  0  0
 11 31  1  0  0  0  0
 12 15  1  0  0  0  0
 12 17  1  0  0  0  0
 12 32  1  0  0  0  0
 13 33  1  0  0  0  0
 14 15  2  0  0  0  0
 14 34  1  0  0  0  0
 15 35  1  0  0  0  0
 16 18  1  0  0  0  0
 16 20  2  0  0  0  0
 17 19  2  0  0  0  0
 17 21  1  0  0  0  0
 19 36  1  0  0  0  0
 20 22  1  0  0  0  0
 20 37  1  0  0  0  0
 22 23  2  0  0  0  0
 22 24  1  0  0  0  0
 23 26  1  0  0  0  0
 23 38  1  0  0  0  0
 24 27  2  0  0  0  0
 24 39  1  0  0  0  0
 25 40  1  0  0  0  0
 25 41  1  0  0  0  0
 25 42  1  0  0  0  0
 26 28  2  0  0  0  0
 27 28  1  0  0  0  0
 27 43  1  0  0  0  0
 29 45  1  0  0  0  0
 29 46  1  0  0  0  0
 29 47  1  0  0  0  0
M  END
> <PUBCHEM_COMPOUND_CID>
101593093

> <PUBCHEM_CONFORMER_RMSD>
0.8

> <PUBCHEM_CONFORMER_DIVERSEORDER>
5
10
12
3
11
2
8
9
1
7
6
4

> <PUBCHEM_MMFF94_PARTIAL_CHARGES>
36
1 -0.56
10 0.42
11 0.42
12 0.28
13 0.56
14 -0.29
15 -0.29
16 -0.12
17 -0.12
18 0.71
19 -0.07
2 -0.43
20 -0.18
21 0.71
22 0.03
23 -0.15
24 -0.15
25 0.28
26 0.08
27 -0.15
28 0.08
29 0.28
3 -0.36
34 0.15
35 0.15
36 0.15
37 0.15
38 0.15
39 0.15
4 -0.57
43 0.15
44 0.45
5 -0.43
6 -0.57
7 -0.36
8 -0.53

> <PUBCHEM_EFFECTIVE_ROTOR_COUNT>
4.6

> <PUBCHEM_PHARMACOPHORE_FEATURES>
11
1 1 acceptor
1 3 acceptor
1 4 acceptor
1 6 acceptor
1 7 acceptor
1 8 donor
5 1 9 10 11 13 rings
5 2 10 11 16 18 rings
5 9 10 12 14 15 rings
6 22 23 24 26 27 28 rings
6 3 9 12 13 17 19 rings

> <PUBCHEM_HEAVY_ATOM_COUNT>
29

> <PUBCHEM_ATOM_DEF_STEREO_COUNT>
5

> <PUBCHEM_ATOM_UDEF_STEREO_COUNT>
0

> <PUBCHEM_BOND_DEF_STEREO_COUNT>
1

> <PUBCHEM_BOND_UDEF_STEREO_COUNT>
0

> <PUBCHEM_ISOTOPIC_ATOM_COUNT>
0

> <PUBCHEM_COMPONENT_COUNT>
1

> <PUBCHEM_CACTVS_TAUTO_COUNT>
4

> <PUBCHEM_CONFORMER_ID>
060E300500000005

> <PUBCHEM_MMFF94_ENERGY>
100.9928

> <PUBCHEM_FEATURE_SELFOVERLAP>
57.097

> <PUBCHEM_SHAPE_FINGERPRINT>
10 15 17821722862174497601
10673678 19 18195253446054165380
10906281 52 15792302483784749433
11045977 3 18341325695105120849
11315181 36 18408608084189177777
11578080 2 15337735772939311249
12236239 1 17676485059804532273
13533116 47 17989488494399070838
13782708 43 17632574959211651503
13914758 101 16343710893935503635
14294032 229 16879065222597269397
14341114 176 18343866627985696576
14573314 32 18342176666055586570
14856354 85 15719399451726848931
15183329 4 16128659656262329210
15461852 350 18272363222821832735
15849732 13 18259984877280770853
17844677 252 18131075918138205808
1813 80 17240482511925055252
20567600 75 18201722829814100838
21033648 29 18199174256555763040
21267235 1 18113908173709971491
21315759 40 16128651959886916269
21792961 116 17988931046783890128
221357 26 18131067122024091280
2215653 11 18272087184493178598
23522609 53 15141255260683533967
23559900 14 18340763840162605520
23569943 247 17986674762181414167
23622692 88 18113897173997955285
24771293 8 17751072729679449188
249057 3 17530964701070759541
3004659 81 17603872220958223045
335352 9 18259982691722665853
3383291 50 18041565870643872203
34797466 226 18411984676488547196
350125 39 17968092032187051861
3545911 37 18334573542463810914
3633792 109 18272088241455702553
404807 14 17123412887289055606
4073 2 18335985371988501946
4325135 7 14129059218766178506
5104073 3 18340199701157085688
59755656 215 18335983073579624519
59755656 520 15697990847795070005
7226269 152 18410853257728161873

> <PUBCHEM_SHAPE_MULTIPOLES>
549.85
18.92
1.86
1.23
0.34
0.56
0.09
-1.25
2.36
1.24
0.07
0.12
0.06
2.18

> <PUBCHEM_SHAPE_SELFOVERLAP>
1235.942

> <PUBCHEM_SHAPE_VOLUME>
291.7

> <PUBCHEM_COORDINATE_TYPE>
2
5
10

$$$$
