101535589
  -OEChem-03292013293D

 53 55  0     0  0  0  0  0  0999 V2000
   -5.8286    0.3931    0.5234 O   0  0  0  0  0  0  0  0  0  0  0  0
    1.2234   -0.3440   -0.8555 O   0  0  0  0  0  0  0  0  0  0  0  0
   -3.8058    1.3439    0.0399 O   0  0  0  0  0  0  0  0  0  0  0  0
   -4.2637   -0.9068   -0.4123 N   0  0  0  0  0  0  0  0  0  0  0  0
   -2.0312   -0.5180   -1.1283 N   0  0  0  0  0  0  0  0  0  0  0  0
    4.7983    2.2351   -0.9428 N   0  0  0  0  0  0  0  0  0  0  0  0
    2.2781    0.5609   -1.0325 N   0  0  0  0  0  0  0  0  0  0  0  0
    5.4273    1.0358    0.7509 N   0  0  0  0  0  0  0  0  0  0  0  0
    5.9927    2.7276   -0.5864 N   0  0  0  0  0  0  0  0  0  0  0  0
    6.3724    1.9904    0.4503 N   0  0  0  0  0  0  0  0  0  0  0  0
   -6.2841    1.6454    1.0372 C   0  0  0  0  0  0  0  0  0  0  0  0
   -6.2173    2.6834   -0.0821 C   0  0  0  0  0  0  0  0  0  0  0  0
   -7.7246    1.4534    1.5068 C   0  0  0  0  0  0  0  0  0  0  0  0
   -5.3866    2.0467    2.2069 C   0  0  0  0  0  0  0  0  0  0  0  0
   -4.5447    0.3669    0.0426 C   0  0  0  0  0  0  0  0  0  0  0  0
   -3.0620   -1.3809   -0.9859 C   0  0  0  0  0  0  0  0  0  0  0  0
   -0.9030   -1.0164   -1.6819 C   0  0  0  0  0  0  0  0  0  0  0  0
    3.2315    0.3784   -0.1649 C   0  0  0  0  0  0  0  0  0  0  0  0
    3.0763   -0.7141    0.8465 C   0  0  0  0  0  0  0  0  0  0  0  0
    0.2377   -0.0678   -1.8425 C   0  0  0  0  0  0  0  0  0  0  0  0
   -3.0183   -2.7117   -1.3691 C   0  0  0  0  0  0  0  0  0  0  0  0
    4.4621    1.2052   -0.1232 C   0  0  0  0  0  0  0  0  0  0  0  0
   -0.7581   -2.3302   -2.0974 C   0  0  0  0  0  0  0  0  0  0  0  0
   -1.8406   -3.1876   -1.9346 C   0  0  0  0  0  0  0  0  0  0  0  0
    2.4591   -0.4505    2.0693 C   0  0  0  0  0  0  0  0  0  0  0  0
    3.5474   -1.9963    0.5651 C   0  0  0  0  0  0  0  0  0  0  0  0
    2.3133   -1.4693    3.0109 C   0  0  0  0  0  0  0  0  0  0  0  0
    3.4016   -3.0151    1.5065 C   0  0  0  0  0  0  0  0  0  0  0  0
    2.7846   -2.7516    2.7295 C   0  0  0  0  0  0  0  0  0  0  0  0
    4.0627    2.7941   -2.0467 C   0  0  0  0  0  0  0  0  0  0  0  0
   -6.8183    3.5633    0.1771 H   0  0  0  0  0  0  0  0  0  0  0  0
   -5.8579    2.8440    2.7940 H   0  0  0  0  0  0  0  0  0  0  0  0
   -8.1465    2.3765    1.9176 H   0  0  0  0  0  0  0  0  0  0  0  0
   -8.3614    1.1195    0.6795 H   0  0  0  0  0  0  0  0  0  0  0  0
   -7.7819    0.6741    2.2754 H   0  0  0  0  0  0  0  0  0  0  0  0
   -4.4067    2.4348    1.9179 H   0  0  0  0  0  0  0  0  0  0  0  0
   -6.6094    2.2751   -1.0208 H   0  0  0  0  0  0  0  0  0  0  0  0
   -5.2149    3.0661   -0.2900 H   0  0  0  0  0  0  0  0  0  0  0  0
   -5.2117    1.1963    2.8763 H   0  0  0  0  0  0  0  0  0  0  0  0
   -5.0141   -1.5878   -0.3235 H   0  0  0  0  0  0  0  0  0  0  0  0
    0.6716   -0.1660   -2.8453 H   0  0  0  0  0  0  0  0  0  0  0  0
   -0.1132    0.9650   -1.7243 H   0  0  0  0  0  0  0  0  0  0  0  0
   -3.8661   -3.3766   -1.2397 H   0  0  0  0  0  0  0  0  0  0  0  0
    0.1658   -2.6912   -2.5367 H   0  0  0  0  0  0  0  0  0  0  0  0
   -1.7663   -4.2247   -2.2477 H   0  0  0  0  0  0  0  0  0  0  0  0
    2.0878    0.5451    2.2979 H   0  0  0  0  0  0  0  0  0  0  0  0
    4.0288   -2.2123   -0.3851 H   0  0  0  0  0  0  0  0  0  0  0  0
    1.8325   -1.2642    3.9629 H   0  0  0  0  0  0  0  0  0  0  0  0
    3.7681   -4.0137    1.2873 H   0  0  0  0  0  0  0  0  0  0  0  0
    2.6709   -3.5450    3.4625 H   0  0  0  0  0  0  0  0  0  0  0  0
    3.1064    3.1697   -1.6749 H   0  0  0  0  0  0  0  0  0  0  0  0
    4.6338    3.6177   -2.4836 H   0  0  0  0  0  0  0  0  0  0  0  0
    3.9134    2.0146   -2.7975 H   0  0  0  0  0  0  0  0  0  0  0  0
  1 11  1  0  0  0  0
  1 15  1  0  0  0  0
  2  7  1  0  0  0  0
  2 20  1  0  0  0  0
  3 15  2  0  0  0  0
  4 15  1  0  0  0  0
  4 16  1  0  0  0  0
  4 40  1  0  0  0  0
  5 16  1  0  0  0  0
  5 17  2  0  0  0  0
  6  9  1  0  0  0  0
  6 22  1  0  0  0  0
  6 30  1  0  0  0  0
  7 18  2  0  0  0  0
  8 10  1  0  0  0  0
  8 22  2  0  0  0  0
  9 10  2  0  0  0  0
 11 12  1  0  0  0  0
 11 13  1  0  0  0  0
 11 14  1  0  0  0  0
 12 31  1  0  0  0  0
 12 37  1  0  0  0  0
 12 38  1  0  0  0  0
 13 33  1  0  0  0  0
 13 34  1  0  0  0  0
 13 35  1  0  0  0  0
 14 32  1  0  0  0  0
 14 36  1  0  0  0  0
 14 39  1  0  0  0  0
 16 21  2  0  0  0  0
 17 20  1  0  0  0  0
 17 23  1  0  0  0  0
 18 19  1  0  0  0  0
 18 22  1  0  0  0  0
 19 25  2  0  0  0  0
 19 26  1  0  0  0  0
 20 41  1  0  0  0  0
 20 42  1  0  0  0  0
 21 24  1  0  0  0  0
 21 43  1  0  0  0  0
 23 24  2  0  0  0  0
 23 44  1  0  0  0  0
 24 45  1  0  0  0  0
 25 27  1  0  0  0  0
 25 46  1  0  0  0  0
 26 28  2  0  0  0  0
 26 47  1  0  0  0  0
 27 29  2  0  0  0  0
 27 48  1  0  0  0  0
 28 29  1  0  0  0  0
 28 49  1  0  0  0  0
 29 50  1  0  0  0  0
 30 51  1  0  0  0  0
 30 52  1  0  0  0  0
 30 53  1  0  0  0  0
M  END
> <PUBCHEM_COMPOUND_CID>
101535589

> <PUBCHEM_CONFORMER_RMSD>
1.2

> <PUBCHEM_CONFORMER_DIVERSEORDER>
1
61
109
82
7
113
117
108
36
18
75
86
84
102
89
62
9
125
112
10
83
101
47
105
80
33
100
114
116
19
79
58
29
5
28
53
107
121
44
104
21
88
94
51
34
67
111
120
32
55
60
97
59
95
17
123
6
115
49
24
45
110
43
85
92
106
37
31
38
98
14
81
13
48
124
127
54
99
119
71
25
70
52
87
56
50
72
118
76
40
39
69
4
64
90
77
30
35
23
11
122
63
74
57
73
103
78
27
96
68
15
41
42
66
12
16
3
93
20
26
46
8
22
126
2
65
91

> <PUBCHEM_MMFF94_PARTIAL_CHARGES>
35
1 -0.43
11 0.28
15 0.78
16 0.43
17 0.17
18 0.45
19 0.09
2 -0.22
20 0.42
21 -0.15
22 0.1
23 -0.15
24 -0.15
25 -0.15
26 -0.15
27 -0.15
28 -0.15
29 -0.15
3 -0.57
30 0.26
4 -0.55
40 0.37
43 0.15
44 0.15
45 0.15
46 0.15
47 0.15
48 0.15
49 0.15
5 -0.62
50 0.15
6 0.31
7 -0.51
8 -0.34
9 -0.42

> <PUBCHEM_EFFECTIVE_ROTOR_COUNT>
9

> <PUBCHEM_PHARMACOPHORE_FEATURES>
9
1 3 acceptor
1 4 donor
1 5 acceptor
1 7 acceptor
3 6 8 22 cation
4 11 12 13 14 hydrophobe
5 6 8 9 10 22 rings
6 19 25 26 27 28 29 rings
6 5 16 17 21 23 24 rings

> <PUBCHEM_HEAVY_ATOM_COUNT>
30

> <PUBCHEM_ATOM_DEF_STEREO_COUNT>
0

> <PUBCHEM_ATOM_UDEF_STEREO_COUNT>
0

> <PUBCHEM_BOND_DEF_STEREO_COUNT>
1

> <PUBCHEM_BOND_UDEF_STEREO_COUNT>
0

> <PUBCHEM_ISOTOPIC_ATOM_COUNT>
0

> <PUBCHEM_COMPONENT_COUNT>
1

> <PUBCHEM_CACTVS_TAUTO_COUNT>
13

> <PUBCHEM_CONFORMER_ID>
060D4F6500000001

> <PUBCHEM_MMFF94_ENERGY>
81.6314

> <PUBCHEM_FEATURE_SELFOVERLAP>
45.674

> <PUBCHEM_SHAPE_FINGERPRINT>
10190108 129 17894917291812781604
10674148 151 18412832391843474814
10985338 15 16517968214287626918
11421498 54 18337661027582267984
1200032 147 18342473529293626442
12107183 9 18270959016733288646
12128747 34 16734100125492660469
12422481 6 18119806911938040887
12596602 18 18333735719468138475
12778500 126 18272087159161036306
13726171 33 17988087810431247137
14294032 229 17560804381708220831
14347329 18 17418099810123664193
14765038 42 17967813894494641578
15238133 3 17703778215941129562
15510800 12 14129053717018775611
16994733 274 17987228023400246472
1813 80 12973901277702581663
19053607 189 17773036341969646657
19319366 153 18334012791781786272
1979834 28 16732993015371184186
20511986 3 18409721880894205745
21033648 29 16486963037928637147
21421861 104 18260819363973148986
21623969 137 16443060608014945264
21796203 349 17678720255924304210
21814621 53 17774441711393121826
22440779 20 15651281179468616670
2260408 40 17023187089119799157
23559900 14 17632020732247423894
23569914 2 16197574863238069808
24893989 43 13121433812289776641
2748736 6 17987798502325789849
2838139 119 16127514979433818523
3459 39 17916856908204747297
3918712 181 17775004536539915081
394071 54 17894345579355689703
437795 70 14692303806764642363
508706 21 16772936147269213839
563151 74 17967820452645796881
57724786 102 18412824655410226838
59682541 52 13038908811055790921
6086070 43 14979951489098707462
7808743 9 18130788992515297463
86090 222 15719966721915905321
9849439 229 18058461919935497821

> <PUBCHEM_SHAPE_MULTIPOLES>
564.91
17.52
3.88
2.7
18.86
0.57
1.12
-17.28
7.16
-1.99
-0.75
-0.85
1.46
-6.13

> <PUBCHEM_SHAPE_SELFOVERLAP>
1197.641

> <PUBCHEM_SHAPE_VOLUME>
314.6

> <PUBCHEM_COORDINATE_TYPE>
2
5
10

$$$$
