101564886
  -OEChem-03292013293D

 54 56  0     1  0  0  0  0  0999 V2000
   -0.8033   -1.6422    0.9626 O   0  0  0  0  0  0  0  0  0  0  0  0
   -0.4974   -1.2291   -1.3853 O   0  0  0  0  0  0  0  0  0  0  0  0
   -0.6034    1.0180    1.4902 O   0  0  0  0  0  0  0  0  0  0  0  0
   -2.7592    0.3980   -1.3957 O   0  0  0  0  0  0  0  0  0  0  0  0
    3.5491    2.1822   -1.1367 O   0  0  0  0  0  0  0  0  0  0  0  0
    4.1847   -0.4459    1.3591 O   0  0  0  0  0  0  0  0  0  0  0  0
    3.6899   -1.7083   -1.4263 O   0  0  0  0  0  0  0  0  0  0  0  0
   -1.4389    2.9948    0.6354 O   0  0  0  0  0  0  0  0  0  0  0  0
   -4.6312    1.2551   -0.3477 O   0  0  0  0  0  0  0  0  0  0  0  0
   -0.9983   -0.7276   -0.1350 C   0  0  2  0  0  0  0  0  0  0  0  0
   -0.2447    0.5915    0.1767 C   0  0  2  0  0  0  0  0  0  0  0  0
   -2.5138   -0.4547   -0.2826 C   0  0  2  0  0  0  0  0  0  0  0  0
    1.2570    0.4451    0.0447 C   0  0  0  0  0  0  0  0  0  0  0  0
   -3.3009   -1.7516   -0.4543 C   0  0  0  0  0  0  0  0  0  0  0  0
    1.7581   -0.5921   -0.6481 C   0  0  0  0  0  0  0  0  0  0  0  0
    2.1098    1.5238    0.6664 C   0  0  0  0  0  0  0  0  0  0  0  0
   -1.4735   -2.8987    0.8127 C   0  0  2  0  0  0  0  0  0  0  0  0
   -2.9834   -2.7037    0.6891 C   0  0  0  0  0  0  0  0  0  0  0  0
    3.5467    1.5452    0.1403 C   0  0  1  0  0  0  0  0  0  0  0  0
    4.1475    0.1383    0.0578 C   0  0  2  0  0  0  0  0  0  0  0  0
    0.8857   -1.5962   -1.3459 C   0  0  0  0  0  0  0  0  0  0  0  0
    3.2389   -0.7858   -0.7469 C   0  0  0  0  0  0  0  0  0  0  0  0
   -1.1299   -3.7484    2.0289 C   0  0  0  0  0  0  0  0  0  0  0  0
    5.5679    0.1396   -0.5078 C   0  0  0  0  0  0  0  0  0  0  0  0
   -1.1954    2.2461    1.5720 C   0  0  0  0  0  0  0  0  0  0  0  0
   -3.8577    1.2052   -1.2946 C   0  0  0  0  0  0  0  0  0  0  0  0
   -1.5142    2.5599    3.0023 C   0  0  0  0  0  0  0  0  0  0  0  0
   -3.9900    2.0415   -2.5313 C   0  0  0  0  0  0  0  0  0  0  0  0
   -0.5156    1.3316   -0.5885 H   0  0  0  0  0  0  0  0  0  0  0  0
   -2.8592    0.0161    0.6483 H   0  0  0  0  0  0  0  0  0  0  0  0
   -3.0576   -2.2172   -1.4177 H   0  0  0  0  0  0  0  0  0  0  0  0
   -4.3775   -1.5480   -0.4851 H   0  0  0  0  0  0  0  0  0  0  0  0
    1.6452    2.4990    0.4755 H   0  0  0  0  0  0  0  0  0  0  0  0
    2.1194    1.3691    1.7524 H   0  0  0  0  0  0  0  0  0  0  0  0
   -1.0909   -3.4068   -0.0801 H   0  0  0  0  0  0  0  0  0  0  0  0
   -3.3802   -2.2764    1.6189 H   0  0  0  0  0  0  0  0  0  0  0  0
   -3.4849   -3.6645    0.5290 H   0  0  0  0  0  0  0  0  0  0  0  0
    4.1512    2.1650    0.8143 H   0  0  0  0  0  0  0  0  0  0  0  0
    1.2032   -1.7103   -2.3878 H   0  0  0  0  0  0  0  0  0  0  0  0
    0.9809   -2.5761   -0.8656 H   0  0  0  0  0  0  0  0  0  0  0  0
   -1.4513   -3.2580    2.9544 H   0  0  0  0  0  0  0  0  0  0  0  0
   -0.0453   -3.8824    2.1051 H   0  0  0  0  0  0  0  0  0  0  0  0
   -1.6001   -4.7348    1.9717 H   0  0  0  0  0  0  0  0  0  0  0  0
    6.2213    0.7819    0.0933 H   0  0  0  0  0  0  0  0  0  0  0  0
    5.5925    0.4894   -1.5450 H   0  0  0  0  0  0  0  0  0  0  0  0
    6.0110   -0.8628   -0.4811 H   0  0  0  0  0  0  0  0  0  0  0  0
    3.2239    3.0904   -1.0147 H   0  0  0  0  0  0  0  0  0  0  0  0
    4.6377   -1.3043    1.2970 H   0  0  0  0  0  0  0  0  0  0  0  0
   -0.5935    2.5812    3.5906 H   0  0  0  0  0  0  0  0  0  0  0  0
   -1.9886    3.5437    3.0608 H   0  0  0  0  0  0  0  0  0  0  0  0
   -2.2082    1.8144    3.3986 H   0  0  0  0  0  0  0  0  0  0  0  0
   -3.1062    2.6741   -2.6459 H   0  0  0  0  0  0  0  0  0  0  0  0
   -4.8701    2.6847   -2.4419 H   0  0  0  0  0  0  0  0  0  0  0  0
   -4.1175    1.3953   -3.4033 H   0  0  0  0  0  0  0  0  0  0  0  0
  1 10  1  0  0  0  0
  1 17  1  0  0  0  0
  2 10  1  0  0  0  0
  2 21  1  0  0  0  0
  3 11  1  0  0  0  0
  3 25  1  0  0  0  0
  4 12  1  0  0  0  0
  4 26  1  0  0  0  0
  5 19  1  0  0  0  0
  5 47  1  0  0  0  0
  6 20  1  0  0  0  0
  6 48  1  0  0  0  0
  7 22  2  0  0  0  0
  8 25  2  0  0  0  0
  9 26  2  0  0  0  0
 10 11  1  0  0  0  0
 10 12  1  0  0  0  0
 11 13  1  0  0  0  0
 11 29  1  0  0  0  0
 12 14  1  0  0  0  0
 12 30  1  0  0  0  0
 13 15  2  0  0  0  0
 13 16  1  0  0  0  0
 14 18  1  0  0  0  0
 14 31  1  0  0  0  0
 14 32  1  0  0  0  0
 15 21  1  0  0  0  0
 15 22  1  0  0  0  0
 16 19  1  0  0  0  0
 16 33  1  0  0  0  0
 16 34  1  0  0  0  0
 17 18  1  0  0  0  0
 17 23  1  0  0  0  0
 17 35  1  0  0  0  0
 18 36  1  0  0  0  0
 18 37  1  0  0  0  0
 19 20  1  0  0  0  0
 19 38  1  0  0  0  0
 20 22  1  0  0  0  0
 20 24  1  0  0  0  0
 21 39  1  0  0  0  0
 21 40  1  0  0  0  0
 23 41  1  0  0  0  0
 23 42  1  0  0  0  0
 23 43  1  0  0  0  0
 24 44  1  0  0  0  0
 24 45  1  0  0  0  0
 24 46  1  0  0  0  0
 25 27  1  0  0  0  0
 26 28  1  0  0  0  0
 27 49  1  0  0  0  0
 27 50  1  0  0  0  0
 27 51  1  0  0  0  0
 28 52  1  0  0  0  0
 28 53  1  0  0  0  0
 28 54  1  0  0  0  0
M  END
> <PUBCHEM_COMPOUND_CID>
101564886

> <PUBCHEM_CONFORMER_RMSD>
0.8

> <PUBCHEM_CONFORMER_DIVERSEORDER>
1
5
4
2
3

> <PUBCHEM_MMFF94_PARTIAL_CHARGES>
26
1 -0.56
10 0.56
11 0.42
12 0.28
13 -0.28
15 -0.12
16 0.14
17 0.28
19 0.28
2 -0.56
20 0.34
21 0.42
22 0.49
25 0.66
26 0.66
27 0.06
28 0.06
3 -0.43
4 -0.43
47 0.4
48 0.4
5 -0.68
6 -0.68
7 -0.57
8 -0.57
9 -0.57

> <PUBCHEM_EFFECTIVE_ROTOR_COUNT>
6.2

> <PUBCHEM_PHARMACOPHORE_FEATURES>
12
1 1 acceptor
1 2 acceptor
1 5 acceptor
1 5 donor
1 6 acceptor
1 6 donor
1 7 acceptor
1 8 acceptor
1 9 acceptor
6 1 10 12 14 17 18 rings
6 13 15 16 19 20 22 rings
6 2 10 11 13 15 21 rings

> <PUBCHEM_HEAVY_ATOM_COUNT>
28

> <PUBCHEM_ATOM_DEF_STEREO_COUNT>
6

> <PUBCHEM_ATOM_UDEF_STEREO_COUNT>
0

> <PUBCHEM_BOND_DEF_STEREO_COUNT>
0

> <PUBCHEM_BOND_UDEF_STEREO_COUNT>
0

> <PUBCHEM_ISOTOPIC_ATOM_COUNT>
0

> <PUBCHEM_COMPONENT_COUNT>
1

> <PUBCHEM_CACTVS_TAUTO_COUNT>
12

> <PUBCHEM_CONFORMER_ID>
060DC1D600000001

> <PUBCHEM_MMFF94_ENERGY>
54.4098

> <PUBCHEM_FEATURE_SELFOVERLAP>
60.955

> <PUBCHEM_SHAPE_FINGERPRINT>
10165383 225 18261107423367190725
1100329 8 17332536669959625098
11315181 36 18342740715884652024
12293681 160 18128805370639507329
12403259 226 17908981355117552207
12553582 1 17631739408021348336
12592029 89 17532090488643892115
12788726 201 18130504128514186425
13140716 1 18057893626298715266
13224815 77 18059583541569272606
13583140 156 17458356220888586536
13911987 19 17844250837609932892
15420108 30 16257296684278779200
15775530 1 17835499893811577649
16752209 62 17846499210398404848
16945 1 18129383704870136615
17349148 13 18200868474951397632
17357779 13 17703789227925844992
200 152 17131827655696731156
20691752 17 18121795928177405324
20715895 44 18265882584490738741
22907989 373 18200332003329386244
23419403 2 17986099941201150009
23493267 7 18335131033519112802
23557571 272 18336835293906716198
23558518 356 18128272107103896624
23559900 14 18411981322140434958
2748010 2 17770773817047187384
3380486 145 17699842127047253322
3493558 16 17752485631642392461
394222 165 17754163198981895227
469060 322 17823159898914236081
5283173 99 18335696156710213653
57527295 17 18200576056419265687
6438718 38 16772696346265243937
7226269 152 18341033151944771952
7399639 24 17545315740762183504
81228 2 18271539631738953536
9709674 26 18411986892422822078

> <PUBCHEM_SHAPE_MULTIPOLES>
523.4
8.48
3.59
2.07
6.66
1.21
-0.65
-1.82
3.41
-3.19
-1.83
-1.61
-0.95
1.32

> <PUBCHEM_SHAPE_SELFOVERLAP>
1105.775

> <PUBCHEM_SHAPE_VOLUME>
290.3

> <PUBCHEM_COORDINATE_TYPE>
2
5
10

$$$$
