101591872
  -OEChem-03292013293D

 67 71  0     1  0  0  0  0  0999 V2000
    1.2381    2.4906   -1.7656 O   0  0  0  0  0  0  0  0  0  0  0  0
    0.0549   -2.1792   -1.0231 O   0  0  0  0  0  0  0  0  0  0  0  0
    1.7185    3.1644    0.4411 O   0  0  0  0  0  0  0  0  0  0  0  0
   -0.8306    2.3575    1.2788 O   0  0  0  0  0  0  0  0  0  0  0  0
    3.1822    1.6453    2.0496 O   0  0  0  0  0  0  0  0  0  0  0  0
   -3.0396   -0.5593   -0.3266 O   0  0  0  0  0  0  0  0  0  0  0  0
   -1.9177   -2.9664   -0.2911 O   0  0  0  0  0  0  0  0  0  0  0  0
    5.1943    0.0747    2.7781 O   0  0  0  0  0  0  0  0  0  0  0  0
   -3.1372   -1.2068    1.8816 O   0  0  0  0  0  0  0  0  0  0  0  0
   -5.7815   -1.2922    1.8579 O   0  0  0  0  0  0  0  0  0  0  0  0
    0.4969    0.2464   -1.4226 C   0  0  1  0  0  0  0  0  0  0  0  0
    1.2270    0.7484   -0.1479 C   0  0  1  0  0  0  0  0  0  0  0  0
    2.7223    0.2327    0.0565 C   0  0  2  0  0  0  0  0  0  0  0  0
    0.9760    2.2637   -0.3624 C   0  0  2  0  0  0  0  0  0  0  0  0
    0.7773   -1.1990   -1.8199 C   0  0  1  0  0  0  0  0  0  0  0  0
   -1.0542    0.4074   -1.2877 C   0  0  2  0  0  0  0  0  0  0  0  0
    2.7753   -1.3069   -0.2791 C   0  0  1  0  0  0  0  0  0  0  0  0
    0.9875    1.2613   -2.4727 C   0  0  0  0  0  0  0  0  0  0  0  0
    2.2535   -1.5859   -1.7021 C   0  0  0  0  0  0  0  0  0  0  0  0
   -0.5065    2.6279   -0.0850 C   0  0  1  0  0  0  0  0  0  0  0  0
   -1.4515    1.8410   -0.9582 C   0  0  0  0  0  0  0  0  0  0  0  0
    3.1123    0.3150    1.5729 C   0  0  1  0  0  0  0  0  0  0  0  0
   -1.6162   -0.5844   -0.2736 C   0  0  2  0  0  0  0  0  0  0  0  0
    3.7690    1.0147   -0.7896 C   0  0  0  0  0  0  0  0  0  0  0  0
    4.1233   -1.9427    0.0540 C   0  0  0  0  0  0  0  0  0  0  0  0
   -1.2011   -2.0052   -0.5593 C   0  0  0  0  0  0  0  0  0  0  0  0
    4.4630   -0.3223    1.8721 C   0  0  0  0  0  0  0  0  0  0  0  0
    4.8903   -1.4835    1.0563 C   0  0  0  0  0  0  0  0  0  0  0  0
   -2.5286    2.4195   -1.5141 C   0  0  0  0  0  0  0  0  0  0  0  0
    4.5657   -3.1601   -0.7102 C   0  0  0  0  0  0  0  0  0  0  0  0
   -3.6867   -0.8950    0.8319 C   0  0  0  0  0  0  0  0  0  0  0  0
   -5.1998   -0.8306    0.6401 C   0  0  2  0  0  0  0  0  0  0  0  0
   -5.6436    0.6194    0.3773 C   0  0  0  0  0  0  0  0  0  0  0  0
   -5.6255   -1.8016   -0.4594 C   0  0  0  0  0  0  0  0  0  0  0  0
   -5.3068    1.5910    1.5022 C   0  0  0  0  0  0  0  0  0  0  0  0
    0.6993    0.4151    0.7517 H   0  0  0  0  0  0  0  0  0  0  0  0
    0.4608   -1.3713   -2.8565 H   0  0  0  0  0  0  0  0  0  0  0  0
   -1.4974    0.1615   -2.2662 H   0  0  0  0  0  0  0  0  0  0  0  0
    2.0745   -1.8128    0.4042 H   0  0  0  0  0  0  0  0  0  0  0  0
    1.9055    0.9628   -2.9812 H   0  0  0  0  0  0  0  0  0  0  0  0
    0.2505    1.4542   -3.2603 H   0  0  0  0  0  0  0  0  0  0  0  0
    2.8583   -1.0734   -2.4561 H   0  0  0  0  0  0  0  0  0  0  0  0
    2.3270   -2.6577   -1.9224 H   0  0  0  0  0  0  0  0  0  0  0  0
   -0.6564    3.7035   -0.2469 H   0  0  0  0  0  0  0  0  0  0  0  0
    2.3673   -0.2148    2.1807 H   0  0  0  0  0  0  0  0  0  0  0  0
   -1.2701   -0.3370    0.7357 H   0  0  0  0  0  0  0  0  0  0  0  0
    3.7440    2.0860   -0.5725 H   0  0  0  0  0  0  0  0  0  0  0  0
    3.6297    0.8926   -1.8626 H   0  0  0  0  0  0  0  0  0  0  0  0
    4.7958    0.6950   -0.5876 H   0  0  0  0  0  0  0  0  0  0  0  0
    1.3054    4.0427    0.4056 H   0  0  0  0  0  0  0  0  0  0  0  0
    5.8390   -1.9422    1.3136 H   0  0  0  0  0  0  0  0  0  0  0  0
   -2.7823    3.4543   -1.3102 H   0  0  0  0  0  0  0  0  0  0  0  0
   -3.1835    1.8681   -2.1805 H   0  0  0  0  0  0  0  0  0  0  0  0
   -1.7550    2.6233    1.4233 H   0  0  0  0  0  0  0  0  0  0  0  0
    3.2795    1.6095    3.0166 H   0  0  0  0  0  0  0  0  0  0  0  0
    4.7257   -2.9161   -1.7652 H   0  0  0  0  0  0  0  0  0  0  0  0
    3.8137   -3.9522   -0.6351 H   0  0  0  0  0  0  0  0  0  0  0  0
    5.5066   -3.5703   -0.3271 H   0  0  0  0  0  0  0  0  0  0  0  0
   -5.2034    0.9892   -0.5560 H   0  0  0  0  0  0  0  0  0  0  0  0
   -6.7327    0.6387    0.2428 H   0  0  0  0  0  0  0  0  0  0  0  0
   -5.2655   -2.8151   -0.2466 H   0  0  0  0  0  0  0  0  0  0  0  0
   -5.2383   -1.5042   -1.4395 H   0  0  0  0  0  0  0  0  0  0  0  0
   -6.7177   -1.8621   -0.5252 H   0  0  0  0  0  0  0  0  0  0  0  0
   -6.7457   -1.1855    1.7891 H   0  0  0  0  0  0  0  0  0  0  0  0
   -5.7661    1.2839    2.4467 H   0  0  0  0  0  0  0  0  0  0  0  0
   -5.6821    2.5899    1.2572 H   0  0  0  0  0  0  0  0  0  0  0  0
   -4.2259    1.6707    1.6524 H   0  0  0  0  0  0  0  0  0  0  0  0
  1 14  1  0  0  0  0
  1 18  1  0  0  0  0
  2 15  1  0  0  0  0
  2 26  1  0  0  0  0
  3 14  1  0  0  0  0
  3 50  1  0  0  0  0
  4 20  1  0  0  0  0
  4 54  1  0  0  0  0
  5 22  1  0  0  0  0
  5 55  1  0  0  0  0
  6 23  1  0  0  0  0
  6 31  1  0  0  0  0
  7 26  2  0  0  0  0
  8 27  2  0  0  0  0
  9 31  2  0  0  0  0
 10 32  1  0  0  0  0
 10 64  1  0  0  0  0
 11 12  1  0  0  0  0
 11 15  1  0  0  0  0
 11 16  1  0  0  0  0
 11 18  1  0  0  0  0
 12 13  1  0  0  0  0
 12 14  1  0  0  0  0
 12 36  1  0  0  0  0
 13 17  1  0  0  0  0
 13 22  1  0  0  0  0
 13 24  1  0  0  0  0
 14 20  1  0  0  0  0
 15 19  1  0  0  0  0
 15 37  1  0  0  0  0
 16 21  1  0  0  0  0
 16 23  1  0  0  0  0
 16 38  1  0  0  0  0
 17 19  1  0  0  0  0
 17 25  1  0  0  0  0
 17 39  1  0  0  0  0
 18 40  1  0  0  0  0
 18 41  1  0  0  0  0
 19 42  1  0  0  0  0
 19 43  1  0  0  0  0
 20 21  1  0  0  0  0
 20 44  1  0  0  0  0
 21 29  2  0  0  0  0
 22 27  1  0  0  0  0
 22 45  1  0  0  0  0
 23 26  1  0  0  0  0
 23 46  1  0  0  0  0
 24 47  1  0  0  0  0
 24 48  1  0  0  0  0
 24 49  1  0  0  0  0
 25 28  2  0  0  0  0
 25 30  1  0  0  0  0
 27 28  1  0  0  0  0
 28 51  1  0  0  0  0
 29 52  1  0  0  0  0
 29 53  1  0  0  0  0
 30 56  1  0  0  0  0
 30 57  1  0  0  0  0
 30 58  1  0  0  0  0
 31 32  1  0  0  0  0
 32 33  1  0  0  0  0
 32 34  1  0  0  0  0
 33 35  1  0  0  0  0
 33 59  1  0  0  0  0
 33 60  1  0  0  0  0
 34 61  1  0  0  0  0
 34 62  1  0  0  0  0
 34 63  1  0  0  0  0
 35 65  1  0  0  0  0
 35 66  1  0  0  0  0
 35 67  1  0  0  0  0
M  END
> <PUBCHEM_COMPOUND_CID>
101591872

> <PUBCHEM_CONFORMER_RMSD>
0.8

> <PUBCHEM_CONFORMER_DIVERSEORDER>
1
5
6
4
7
8
9
3
2

> <PUBCHEM_MMFF94_PARTIAL_CHARGES>
34
1 -0.56
10 -0.68
14 0.56
15 0.28
16 0.14
17 0.14
18 0.28
2 -0.43
20 0.42
21 -0.28
22 0.34
23 0.34
25 -0.28
26 0.66
27 0.49
28 -0.14
29 -0.3
3 -0.68
30 0.14
31 0.66
32 0.34
4 -0.68
5 -0.68
50 0.4
51 0.15
52 0.15
53 0.15
54 0.4
55 0.4
6 -0.43
64 0.4
7 -0.57
8 -0.57
9 -0.57

> <PUBCHEM_EFFECTIVE_ROTOR_COUNT>
5.4

> <PUBCHEM_PHARMACOPHORE_FEATURES>
17
1 1 acceptor
1 10 acceptor
1 10 donor
1 3 acceptor
1 3 donor
1 35 hydrophobe
1 4 acceptor
1 4 donor
1 5 acceptor
1 5 donor
1 7 acceptor
1 8 acceptor
1 9 acceptor
6 11 12 13 15 17 19 rings
6 13 17 22 25 27 28 rings
6 2 11 15 16 23 26 rings
8 1 11 12 14 16 18 20 21 rings

> <PUBCHEM_HEAVY_ATOM_COUNT>
35

> <PUBCHEM_ATOM_DEF_STEREO_COUNT>
11

> <PUBCHEM_ATOM_UDEF_STEREO_COUNT>
0

> <PUBCHEM_BOND_DEF_STEREO_COUNT>
0

> <PUBCHEM_BOND_UDEF_STEREO_COUNT>
0

> <PUBCHEM_ISOTOPIC_ATOM_COUNT>
0

> <PUBCHEM_COMPONENT_COUNT>
1

> <PUBCHEM_CACTVS_TAUTO_COUNT>
5

> <PUBCHEM_CONFORMER_ID>
060E2B4000000001

> <PUBCHEM_MMFF94_ENERGY>
121.9462

> <PUBCHEM_FEATURE_SELFOVERLAP>
86.509

> <PUBCHEM_SHAPE_FINGERPRINT>
10076449 9 18201730505744091902
11135609 12 18336261250685726642
11796584 16 17023194842005747435
11961588 58 11311761857152832393
12156800 1 15692707582917635380
12422481 6 18340491080233408629
12553582 1 18337949095064720430
12633257 1 18340198708355098682
12788726 201 18113624486107970764
13140716 1 17980761859208133476
13383661 66 15288501883766562394
13692114 37 18195241110749602221
14705955 166 18199742553411529040
14790565 3 17689441902770131404
15163728 17 13758070844059123624
15420108 30 17771345558856530358
16945 1 18266442377874819028
17349148 13 18201445821983283431
173720 79 13038895578408998582
17980427 23 17131542959821375325
1813 80 17675923192441300158
1979834 28 18060429005718414871
20642791 268 17987786557715297432
20775438 99 12757723117704064664
20775530 9 16517626093845462026
21033648 29 18342165627398902851
21421861 104 18114748230225885700
21756936 100 15481806048499772706
21792934 111 18341905078784785923
22182313 1 18269552736960232175
23559900 14 17822020834363191727
24893992 56 17675930890341622905
2838139 119 13326852240484415306
3380486 145 18200007617260263437
3493558 16 16772122328012341539
350125 39 18342183211374983262
35225 105 17758078585484031866
392239 28 18058170531651756057
394222 165 17754476846973492948
437795 51 8718547268269137519
44802255 64 12318035067194277184
460360 51 18189621721230592215
46194498 28 11171356455732225833
508706 21 18115304472026070445
5104073 3 18264229035804606505
513532 50 17274278238907627477
563151 74 17059760196678658874
56638632 10 17345168172993124888
6669772 16 8069736361513708356
8509985 295 18337114552896527671

> <PUBCHEM_SHAPE_MULTIPOLES>
661.59
11.38
3.32
2.13
8.83
0.49
-0.47
-5.72
-7.13
-0.27
0.65
-1.25
0.42
0.79

> <PUBCHEM_SHAPE_SELFOVERLAP>
1444.014

> <PUBCHEM_SHAPE_VOLUME>
349.9

> <PUBCHEM_COORDINATE_TYPE>
2
5
10

$$$$
