10150497
  -OEChem-03292013303D

 37 40  0     0  0  0  0  0  0999 V2000
    0.2665    1.0529    2.2206 Cl  0  0  0  0  0  0  0  0  0  0  0  0
    0.7817    0.7407   -1.3244 S   0  0  0  0  0  0  0  0  0  0  0  0
    5.4514   -0.1276    1.0602 S   0  0  0  0  0  0  0  0  0  0  0  0
    0.7792    2.1755   -1.6068 O   0  0  0  0  0  0  0  0  0  0  0  0
    1.2136   -0.2348   -2.3215 O   0  0  0  0  0  0  0  0  0  0  0  0
   -0.7684    0.3025   -0.8977 N   0  0  0  0  0  0  0  0  0  0  0  0
    3.2085    0.2878   -0.1121 N   0  0  0  0  0  0  0  0  0  0  0  0
    2.9045    0.4782    2.0929 N   0  0  0  0  0  0  0  0  0  0  0  0
   -6.0177    2.1073    0.9726 N   0  0  0  0  0  0  0  0  0  0  0  0
   -1.1580   -0.9341   -0.4349 C   0  0  0  0  0  0  0  0  0  0  0  0
   -2.9546    0.4451   -0.5418 C   0  0  0  0  0  0  0  0  0  0  0  0
   -2.5337   -0.8713   -0.2028 C   0  0  0  0  0  0  0  0  0  0  0  0
   -1.8471    1.1427   -0.9656 C   0  0  0  0  0  0  0  0  0  0  0  0
    1.9113    0.5767    0.0670 C   0  0  0  0  0  0  0  0  0  0  0  0
   -4.3299    0.9771   -0.4590 C   0  0  0  0  0  0  0  0  0  0  0  0
   -0.4057   -2.0918   -0.2064 C   0  0  0  0  0  0  0  0  0  0  0  0
   -3.1930   -2.0188    0.2809 C   0  0  0  0  0  0  0  0  0  0  0  0
   -4.6457    1.6157    0.9060 C   0  0  0  0  0  0  0  0  0  0  0  0
    1.7223    0.6934    1.4087 C   0  0  0  0  0  0  0  0  0  0  0  0
    3.7556    0.2407    1.1339 C   0  0  0  0  0  0  0  0  0  0  0  0
   -1.0812   -3.2176    0.2734 C   0  0  0  0  0  0  0  0  0  0  0  0
   -2.4533   -3.1839    0.5139 C   0  0  0  0  0  0  0  0  0  0  0  0
    4.0745    0.0430   -1.1510 C   0  0  0  0  0  0  0  0  0  0  0  0
    5.3192   -0.1992   -0.7063 C   0  0  0  0  0  0  0  0  0  0  0  0
   -1.7546    2.1649   -1.3075 H   0  0  0  0  0  0  0  0  0  0  0  0
   -4.4819    1.7237   -1.2500 H   0  0  0  0  0  0  0  0  0  0  0  0
   -5.0496    0.1737   -0.6628 H   0  0  0  0  0  0  0  0  0  0  0  0
    0.6621   -2.1349   -0.3888 H   0  0  0  0  0  0  0  0  0  0  0  0
   -4.2616   -2.0096    0.4753 H   0  0  0  0  0  0  0  0  0  0  0  0
   -3.9603    2.4501    1.0945 H   0  0  0  0  0  0  0  0  0  0  0  0
   -4.4892    0.8836    1.7070 H   0  0  0  0  0  0  0  0  0  0  0  0
   -0.5261   -4.1331    0.4615 H   0  0  0  0  0  0  0  0  0  0  0  0
   -2.9564   -4.0719    0.8874 H   0  0  0  0  0  0  0  0  0  0  0  0
    3.7595    0.0622   -2.1822 H   0  0  0  0  0  0  0  0  0  0  0  0
    6.1745   -0.4137   -1.3314 H   0  0  0  0  0  0  0  0  0  0  0  0
   -6.2032    2.4659    1.9083 H   0  0  0  0  0  0  0  0  0  0  0  0
   -6.6654    1.3337    0.8288 H   0  0  0  0  0  0  0  0  0  0  0  0
  1 19  1  0  0  0  0
  2  4  2  0  0  0  0
  2  5  2  0  0  0  0
  2  6  1  0  0  0  0
  2 14  1  0  0  0  0
  3 20  1  0  0  0  0
  3 24  1  0  0  0  0
  6 10  1  0  0  0  0
  6 13  1  0  0  0  0
  7 14  1  0  0  0  0
  7 20  1  0  0  0  0
  7 23  1  0  0  0  0
  8 19  1  0  0  0  0
  8 20  2  0  0  0  0
  9 18  1  0  0  0  0
  9 36  1  0  0  0  0
  9 37  1  0  0  0  0
 10 12  1  0  0  0  0
 10 16  2  0  0  0  0
 11 12  1  0  0  0  0
 11 13  2  0  0  0  0
 11 15  1  0  0  0  0
 12 17  2  0  0  0  0
 13 25  1  0  0  0  0
 14 19  2  0  0  0  0
 15 18  1  0  0  0  0
 15 26  1  0  0  0  0
 15 27  1  0  0  0  0
 16 21  1  0  0  0  0
 16 28  1  0  0  0  0
 17 22  1  0  0  0  0
 17 29  1  0  0  0  0
 18 30  1  0  0  0  0
 18 31  1  0  0  0  0
 21 22  2  0  0  0  0
 21 32  1  0  0  0  0
 22 33  1  0  0  0  0
 23 24  2  0  0  0  0
 23 34  1  0  0  0  0
 24 35  1  0  0  0  0
M  END
> <PUBCHEM_COMPOUND_CID>
10150497

> <PUBCHEM_CONFORMER_RMSD>
0.8

> <PUBCHEM_CONFORMER_DIVERSEORDER>
1
24
51
44
49
21
41
15
12
55
32
50
45
5
17
13
2
53
28
16
54
6
47
48
11
30
20
38
8
36
42
25
46
35
40
3
43
10
52
33
39
7
27
34
31
22
14
18
4
26
37
9
29
23
19

> <PUBCHEM_MMFF94_PARTIAL_CHARGES>
32
1 -0.12
10 -0.15
11 -0.18
13 -0.3
14 -0.21
15 0.18
16 -0.15
17 -0.15
18 0.27
19 0.35
2 1.35
20 0.24
21 -0.15
22 -0.15
23 -0.18
24 -0.05
25 0.15
28 0.15
29 0.15
3 -0.16
32 0.15
33 0.15
34 0.15
35 0.15
36 0.36
37 0.36
4 -0.65
5 -0.65
6 0.32
7 0.33
8 -0.57
9 -0.99

> <PUBCHEM_EFFECTIVE_ROTOR_COUNT>
4

> <PUBCHEM_PHARMACOPHORE_FEATURES>
9
1 4 acceptor
1 5 acceptor
1 9 cation
1 9 donor
3 7 8 20 cation
5 3 7 20 23 24 rings
5 6 10 11 12 13 rings
5 7 8 14 19 20 rings
6 10 12 16 17 21 22 rings

> <PUBCHEM_HEAVY_ATOM_COUNT>
24

> <PUBCHEM_ATOM_DEF_STEREO_COUNT>
0

> <PUBCHEM_ATOM_UDEF_STEREO_COUNT>
0

> <PUBCHEM_BOND_DEF_STEREO_COUNT>
0

> <PUBCHEM_BOND_UDEF_STEREO_COUNT>
0

> <PUBCHEM_ISOTOPIC_ATOM_COUNT>
0

> <PUBCHEM_COMPONENT_COUNT>
1

> <PUBCHEM_CACTVS_TAUTO_COUNT>
1

> <PUBCHEM_CONFORMER_ID>
009AE26100000001

> <PUBCHEM_MMFF94_ENERGY>
41.9753

> <PUBCHEM_FEATURE_SELFOVERLAP>
46.032

> <PUBCHEM_SHAPE_FINGERPRINT>
10165383 225 18338802213082733025
11796584 16 18413392025803139958
12156800 1 15577574506910194123
12236239 1 17240480303800122900
12507560 18 17989205915093337729
12553582 1 16805873070061258076
12616971 3 16949993747579844534
12633257 1 18409158913829292000
13140716 1 18261402203872963885
13464513 79 11747230068642021193
13583140 156 16629954563881094062
13726171 33 18048067282481874468
14178342 30 18409735062829059367
14955137 171 17604443919844565020
15295992 7 17917705846612965777
15375462 189 17095233722770738356
15537594 2 17313098644784427194
16752209 62 17970607783600719687
17349148 13 18263069072185572263
17804303 29 18337386153453417406
1813 80 16588302753187684326
20261772 1 17894909620236150145
20567600 254 18341609262437766345
20600515 1 18411708689768404532
20681677 155 18334013908568000936
21033648 29 17775276196951143370
212916 134 18412824655932199497
21618674 57 18060133211288603506
23175994 123 17703796954751157296
23559900 14 18341624689801947942
23622692 88 17967534567112336005
25147074 1 17896613962565528455
2838139 119 16486689165635287521
427121 178 18341899528895676673
4340502 62 18342185415130919473
465052 167 17240496797060244681
5104073 3 18261391212861730056
5265222 85 18196670694713488014
5385378 56 18195816172162067019
58807428 26 18261392205146920187
59755656 520 18272084968912150023
602551 16 18335976571431551138
633830 44 17988627606331902637
7226269 152 18059579053065159377

> <PUBCHEM_SHAPE_MULTIPOLES>
471.81
10.33
2.59
1.79
2.57
2.25
-0.2
-3.53
-2.29
-3.96
-0.42
1.21
-0.73
-0.12

> <PUBCHEM_SHAPE_SELFOVERLAP>
1010.301

> <PUBCHEM_SHAPE_VOLUME>
266.5

> <PUBCHEM_COORDINATE_TYPE>
2
5
10

$$$$
