101543
  -OEChem-03292013323D

 34 35  0     1  0  0  0  0  0999 V2000
    3.2800    1.4228    0.6168 P   0  0  0  0  0  0  0  0  0  0  0  0
   -0.0629   -1.7857   -0.9886 O   0  0  0  0  0  0  0  0  0  0  0  0
    2.8533   -0.0858    0.2323 O   0  0  0  0  0  0  0  0  0  0  0  0
    1.5999    0.5873   -2.1194 O   0  0  0  0  0  0  0  0  0  0  0  0
    1.0178   -4.1060    0.1898 O   0  0  0  0  0  0  0  0  0  0  0  0
    4.8769    1.3246    0.8528 O   0  0  0  0  0  0  0  0  0  0  0  0
    2.6920    1.5845    2.1145 O   0  0  0  0  0  0  0  0  0  0  0  0
   -2.4579    1.3379   -2.1534 O   0  0  0  0  0  0  0  0  0  0  0  0
    2.8386    2.4780   -0.3548 O   0  0  0  0  0  0  0  0  0  0  0  0
   -4.8168    0.8293    1.7737 O   0  0  0  0  0  0  0  0  0  0  0  0
   -1.5826   -0.0797   -0.5152 N   0  0  0  0  0  0  0  0  0  0  0  0
   -3.6307    1.0839   -0.1968 N   0  0  0  0  0  0  0  0  0  0  0  0
    1.4781   -0.3778    0.1075 C   0  0  1  0  0  0  0  0  0  0  0  0
    0.7822    0.4428   -0.9601 C   0  0  2  0  0  0  0  0  0  0  0  0
    1.2370   -1.7984   -0.3741 C   0  0  1  0  0  0  0  0  0  0  0  0
   -0.4238   -0.4257   -1.2939 C   0  0  1  0  0  0  0  0  0  0  0  0
    1.2629   -2.8255    0.7443 C   0  0  0  0  0  0  0  0  0  0  0  0
   -2.5437    0.8163   -1.0396 C   0  0  0  0  0  0  0  0  0  0  0  0
   -1.7562   -0.6261    0.7510 C   0  0  0  0  0  0  0  0  0  0  0  0
   -2.7977   -0.3616    1.5427 C   0  0  0  0  0  0  0  0  0  0  0  0
   -3.8464    0.5648    1.0704 C   0  0  0  0  0  0  0  0  0  0  0  0
    0.9996   -0.2151    1.0794 H   0  0  0  0  0  0  0  0  0  0  0  0
    0.5002    1.4459   -0.6261 H   0  0  0  0  0  0  0  0  0  0  0  0
    1.9586   -2.0866   -1.1491 H   0  0  0  0  0  0  0  0  0  0  0  0
   -0.6692   -0.3794   -2.3608 H   0  0  0  0  0  0  0  0  0  0  0  0
    0.5050   -2.6460    1.5087 H   0  0  0  0  0  0  0  0  0  0  0  0
    2.2456   -2.8397    1.2269 H   0  0  0  0  0  0  0  0  0  0  0  0
    2.4053    1.0631   -1.8585 H   0  0  0  0  0  0  0  0  0  0  0  0
   -1.0100   -1.3046    1.1242 H   0  0  0  0  0  0  0  0  0  0  0  0
    1.0582   -4.7475    0.9195 H   0  0  0  0  0  0  0  0  0  0  0  0
   -4.3337    1.7253   -0.5532 H   0  0  0  0  0  0  0  0  0  0  0  0
   -2.8999   -0.8062    2.5250 H   0  0  0  0  0  0  0  0  0  0  0  0
    5.3795    2.1448    1.0442 H   0  0  0  0  0  0  0  0  0  0  0  0
    2.7372    2.4622    2.5498 H   0  0  0  0  0  0  0  0  0  0  0  0
  1  3  1  0  0  0  0
  1  6  1  0  0  0  0
  1  7  1  0  0  0  0
  1  9  2  0  0  0  0
  2 15  1  0  0  0  0
  2 16  1  0  0  0  0
  3 13  1  0  0  0  0
  4 14  1  0  0  0  0
  4 28  1  0  0  0  0
  5 17  1  0  0  0  0
  5 30  1  0  0  0  0
  6 33  1  0  0  0  0
  7 34  1  0  0  0  0
  8 18  2  0  0  0  0
 10 21  2  0  0  0  0
 11 16  1  0  0  0  0
 11 18  1  0  0  0  0
 11 19  1  0  0  0  0
 12 18  1  0  0  0  0
 12 21  1  0  0  0  0
 12 31  1  0  0  0  0
 13 14  1  0  0  0  0
 13 15  1  0  0  0  0
 13 22  1  0  0  0  0
 14 16  1  0  0  0  0
 14 23  1  0  0  0  0
 15 17  1  0  0  0  0
 15 24  1  0  0  0  0
 16 25  1  0  0  0  0
 17 26  1  0  0  0  0
 17 27  1  0  0  0  0
 19 20  2  0  0  0  0
 19 29  1  0  0  0  0
 20 21  1  0  0  0  0
 20 32  1  0  0  0  0
M  END
> <PUBCHEM_COMPOUND_CID>
101543

> <PUBCHEM_CONFORMER_RMSD>
0.8

> <PUBCHEM_CONFORMER_DIVERSEORDER>
1
5
6
3
8
4
7
2

> <PUBCHEM_MMFF94_PARTIAL_CHARGES>
28
1 1.51
10 -0.57
11 -0.47
12 -0.49
13 0.28
14 0.28
15 0.28
16 0.58
17 0.28
18 0.69
19 -0.04
2 -0.56
20 -0.14
21 0.62
28 0.4
29 0.15
3 -0.55
30 0.4
31 0.37
32 0.15
33 0.5
34 0.5
4 -0.68
5 -0.68
6 -0.77
7 -0.77
8 -0.57
9 -0.7

> <PUBCHEM_EFFECTIVE_ROTOR_COUNT>
5

> <PUBCHEM_PHARMACOPHORE_FEATURES>
14
1 10 acceptor
1 12 donor
1 2 acceptor
1 4 acceptor
1 4 donor
1 5 acceptor
1 5 donor
1 6 acceptor
1 7 acceptor
1 8 acceptor
1 9 acceptor
4 1 6 7 9 anion
5 2 13 14 15 16 rings
6 11 12 18 19 20 21 rings

> <PUBCHEM_HEAVY_ATOM_COUNT>
21

> <PUBCHEM_ATOM_DEF_STEREO_COUNT>
4

> <PUBCHEM_ATOM_UDEF_STEREO_COUNT>
0

> <PUBCHEM_BOND_DEF_STEREO_COUNT>
0

> <PUBCHEM_BOND_UDEF_STEREO_COUNT>
0

> <PUBCHEM_ISOTOPIC_ATOM_COUNT>
0

> <PUBCHEM_COMPONENT_COUNT>
1

> <PUBCHEM_CACTVS_TAUTO_COUNT>
3

> <PUBCHEM_CONFORMER_ID>
00018CA700000001

> <PUBCHEM_MMFF94_ENERGY>
22.7059

> <PUBCHEM_FEATURE_SELFOVERLAP>
71.095

> <PUBCHEM_SHAPE_FINGERPRINT>
10382601 240 18129956576018650865
10498660 4 15338837543329364817
11640471 11 17703495632519497143
12633257 1 17822297924146807321
12839892 36 18187931754230555651
12892183 10 16805593794129213832
13134695 92 17907006283956444679
14022347 108 15721116824380068025
14178342 30 18189352302142575203
15309172 13 18335414720625591836
15342168 16 18201446908325471393
15534591 1 17417530327482787359
16945 1 18195233438993454078
1813 80 11314582048622391450
18186145 218 18272090513319433028
18219364 16 18337662096422885381
19049666 15 17753044999613660997
19765921 60 17918274268291366603
204376 136 18411135878753927212
20723712 36 18260838137043500708
21041028 32 17766848229971316042
21120745 212 17038119866217401268
21524375 3 18201150065765495070
21731228 192 18335420226816051746
231179 274 17989494012946853736
232386 152 15285362803538182481
23419403 2 17899689072701849158
23526113 38 17610605424140460375
23557571 272 13325412984485696263
23559900 14 17459759107583913487
25 1 18060137669744257584
2748010 2 17533213064362215639
283562 15 17838879783649376526
2838139 119 16127230381984729872
31174 14 18193005824457026075
427121 178 18341910613605075938
4340502 62 18270977807895242715
474 4 17846499265700385896
495365 180 18191579762339280751
59755656 520 18059574732296047198
6049 1 17751932319748089311
633830 44 18060422430255158524
7615 1 17344885457260799885
81228 2 17762053646267612662

> <PUBCHEM_SHAPE_MULTIPOLES>
373.23
7.19
2.79
1.81
2.17
3.08
-0.14
-5.17
3.78
-2.59
0.27
0.71
-0.7
0.67

> <PUBCHEM_SHAPE_SELFOVERLAP>
768.698

> <PUBCHEM_SHAPE_VOLUME>
214.9

> <PUBCHEM_COORDINATE_TYPE>
2
5
10

$$$$
