101516
  -OEChem-03292013323D

 36 38  0     1  0  0  0  0  0999 V2000
    2.5010   -0.4830   -0.9887 O   0  0  0  0  0  0  0  0  0  0  0  0
    2.9301    2.4367    0.2701 O   0  0  0  0  0  0  0  0  0  0  0  0
    4.4526    0.7423    1.7680 O   0  0  0  0  0  0  0  0  0  0  0  0
    4.6124   -2.3136   -1.3971 O   0  0  0  0  0  0  0  0  0  0  0  0
   -5.5271   -0.5674    0.1535 O   0  0  0  0  0  0  0  0  0  0  0  0
    0.3117    0.0027   -0.2103 N   0  0  0  0  0  0  0  0  0  0  0  0
   -1.2229   -1.4728    0.4573 N   0  0  0  0  0  0  0  0  0  0  0  0
   -1.1343    1.8577   -0.8190 N   0  0  0  0  0  0  0  0  0  0  0  0
   -3.4838    1.3107   -0.4489 N   0  0  0  0  0  0  0  0  0  0  0  0
   -4.1896   -0.8084    0.4102 N   0  0  0  0  0  0  0  0  0  0  0  0
    2.3072    1.2232    0.6879 C   0  0  1  0  0  0  0  0  0  0  0  0
    1.6285    0.5651   -0.5147 C   0  0  1  0  0  0  0  0  0  0  0  0
    3.3388    0.1897    1.0998 C   0  0  1  0  0  0  0  0  0  0  0  0
    3.7213   -0.4328   -0.2317 C   0  0  1  0  0  0  0  0  0  0  0  0
    4.3036   -1.8288   -0.1020 C   0  0  0  0  0  0  0  0  0  0  0  0
   -0.8993    0.6185   -0.3622 C   0  0  0  0  0  0  0  0  0  0  0  0
    0.0636   -1.2515    0.2842 C   0  0  0  0  0  0  0  0  0  0  0  0
   -1.8364   -0.3123    0.0573 C   0  0  0  0  0  0  0  0  0  0  0  0
   -3.1724    0.0718    0.0027 C   0  0  0  0  0  0  0  0  0  0  0  0
   -2.4605    2.1147   -0.8262 C   0  0  0  0  0  0  0  0  0  0  0  0
   -6.2446   -1.6624    0.7095 C   0  0  0  0  0  0  0  0  0  0  0  0
    1.6265    1.4763    1.5072 H   0  0  0  0  0  0  0  0  0  0  0  0
    1.4870    1.2649   -1.3464 H   0  0  0  0  0  0  0  0  0  0  0  0
    2.8628   -0.5535    1.7514 H   0  0  0  0  0  0  0  0  0  0  0  0
    4.4242    0.2040   -0.7845 H   0  0  0  0  0  0  0  0  0  0  0  0
    5.2212   -1.8270    0.4931 H   0  0  0  0  0  0  0  0  0  0  0  0
    3.5889   -2.5230    0.3519 H   0  0  0  0  0  0  0  0  0  0  0  0
    2.2244    3.0406   -0.0180 H   0  0  0  0  0  0  0  0  0  0  0  0
    5.0749    0.0192    1.9541 H   0  0  0  0  0  0  0  0  0  0  0  0
    0.8515   -1.9590    0.5038 H   0  0  0  0  0  0  0  0  0  0  0  0
    3.7900   -2.3087   -1.9162 H   0  0  0  0  0  0  0  0  0  0  0  0
   -2.7463    3.0987   -1.1821 H   0  0  0  0  0  0  0  0  0  0  0  0
   -3.9206   -1.7434    0.6973 H   0  0  0  0  0  0  0  0  0  0  0  0
   -6.0630   -1.7420    1.7869 H   0  0  0  0  0  0  0  0  0  0  0  0
   -5.9781   -2.5975    0.2054 H   0  0  0  0  0  0  0  0  0  0  0  0
   -7.3123   -1.4827    0.5546 H   0  0  0  0  0  0  0  0  0  0  0  0
  1 12  1  0  0  0  0
  1 14  1  0  0  0  0
  2 11  1  0  0  0  0
  2 28  1  0  0  0  0
  3 13  1  0  0  0  0
  3 29  1  0  0  0  0
  4 15  1  0  0  0  0
  4 31  1  0  0  0  0
  5 10  1  0  0  0  0
  5 21  1  0  0  0  0
  6 12  1  0  0  0  0
  6 16  1  0  0  0  0
  6 17  1  0  0  0  0
  7 17  2  0  0  0  0
  7 18  1  0  0  0  0
  8 16  2  0  0  0  0
  8 20  1  0  0  0  0
  9 19  1  0  0  0  0
  9 20  2  0  0  0  0
 10 19  1  0  0  0  0
 10 33  1  0  0  0  0
 11 12  1  0  0  0  0
 11 13  1  0  0  0  0
 11 22  1  0  0  0  0
 12 23  1  0  0  0  0
 13 14  1  0  0  0  0
 13 24  1  0  0  0  0
 14 15  1  0  0  0  0
 14 25  1  0  0  0  0
 15 26  1  0  0  0  0
 15 27  1  0  0  0  0
 16 18  1  0  0  0  0
 17 30  1  0  0  0  0
 18 19  2  0  0  0  0
 20 32  1  0  0  0  0
 21 34  1  0  0  0  0
 21 35  1  0  0  0  0
 21 36  1  0  0  0  0
M  END
> <PUBCHEM_COMPOUND_CID>
101516

> <PUBCHEM_CONFORMER_RMSD>
0.8

> <PUBCHEM_CONFORMER_DIVERSEORDER>
1
12
18
24
26
23
10
19
7
9
4
13
16
20
25
17
3
11
22
15
14
8
21
5
6
2
27

> <PUBCHEM_MMFF94_PARTIAL_CHARGES>
27
1 -0.56
10 -0.52
11 0.28
12 0.54
13 0.28
14 0.28
15 0.28
16 0.11
17 0.04
18 0.23
19 0.41
2 -0.68
20 0.47
21 0.28
28 0.4
29 0.4
3 -0.68
30 0.15
31 0.4
32 0.15
33 0.4
4 -0.68
5 -0.26
6 0.05
7 -0.57
8 -0.57
9 -0.62

> <PUBCHEM_EFFECTIVE_ROTOR_COUNT>
5

> <PUBCHEM_PHARMACOPHORE_FEATURES>
14
1 1 acceptor
1 10 donor
1 2 acceptor
1 2 donor
1 3 acceptor
1 3 donor
1 4 acceptor
1 4 donor
3 6 7 17 cation
3 6 8 16 cation
3 8 9 20 cation
5 1 11 12 13 14 rings
5 6 7 16 17 18 rings
6 8 9 16 18 19 20 rings

> <PUBCHEM_HEAVY_ATOM_COUNT>
21

> <PUBCHEM_ATOM_DEF_STEREO_COUNT>
4

> <PUBCHEM_ATOM_UDEF_STEREO_COUNT>
0

> <PUBCHEM_BOND_DEF_STEREO_COUNT>
0

> <PUBCHEM_BOND_UDEF_STEREO_COUNT>
0

> <PUBCHEM_ISOTOPIC_ATOM_COUNT>
0

> <PUBCHEM_COMPONENT_COUNT>
1

> <PUBCHEM_CACTVS_TAUTO_COUNT>
3

> <PUBCHEM_CONFORMER_ID>
00018C8C00000001

> <PUBCHEM_MMFF94_ENERGY>
50.0433

> <PUBCHEM_FEATURE_SELFOVERLAP>
71.666

> <PUBCHEM_SHAPE_FINGERPRINT>
10366900 7 17603874385716523547
12032990 46 18335423465289750285
12236239 1 16805318886183443624
12403259 226 18336824199811316916
12403259 415 18341328911861428324
12507560 40 18342170055816289280
12616971 3 15841546353690900550
12916754 54 18411142420158209961
13134695 92 17346020179273587872
13533116 47 17775289356741883810
13675066 3 18342167856513348464
13862211 1 18187078512286290347
14866123 147 17119738276636921666
15196674 1 18335139791342849941
15219456 202 18271799108283485700
16752209 62 17821730507247646931
17349148 13 17312824879400794947
17804303 29 18335141942983944980
1813 80 17386005091647485229
18186145 218 18341891827550063328
18222031 100 17385726915395581159
19141452 34 18201157758600925199
20028762 73 18339924947868522287
20510252 161 18410570682659769577
20645477 70 17988646264234300142
21065201 7 18188484658181150392
21267235 1 18261403243239186019
21682296 61 18129952156703447343
23402539 116 18261946436538081751
23557571 272 18336555919522415247
23559900 14 18334298669031357948
3286 77 18272375251970329924
3545911 37 18201155542212670872
4340502 62 16128666266755425647
5104073 3 18342452591227819288
5374978 207 18260827150179352465
59755656 215 18188208702665157311
69090 78 18272926154756815927
9709674 26 18410008870872434594

> <PUBCHEM_SHAPE_MULTIPOLES>
377.92
11.31
2.18
1.05
8.38
0.31
-0.11
-5.67
-1.71
-0.38
0.34
-1.1
-0.01
2.01

> <PUBCHEM_SHAPE_SELFOVERLAP>
810.044

> <PUBCHEM_SHAPE_VOLUME>
205.4

> <PUBCHEM_COORDINATE_TYPE>
2
5
10

$$$$
