101526913
  -OEChem-03292013293D

 51 53  0     1  0  0  0  0  0999 V2000
    1.3075   -0.9534   -0.0921 O   0  0  0  0  0  0  0  0  0  0  0  0
   -3.4024    0.1100    0.7182 O   0  0  0  0  0  0  0  0  0  0  0  0
   -0.7080    1.1432   -1.4177 O   0  0  0  0  0  0  0  0  0  0  0  0
    5.0868    0.7809    1.4408 O   0  0  0  0  0  0  0  0  0  0  0  0
   -1.5478    2.0263    0.5377 O   0  0  0  0  0  0  0  0  0  0  0  0
    1.8154   -3.0061   -1.0125 O   0  0  0  0  0  0  0  0  0  0  0  0
   -4.0459    2.2799    0.2551 O   0  0  0  0  0  0  0  0  0  0  0  0
    3.2308    1.5465    0.3766 N   0  0  0  0  0  0  0  0  0  0  0  0
   -1.9581   -1.3236   -0.6045 C   0  0  1  0  0  0  0  0  0  0  0  0
   -2.6189    0.0791   -0.4729 C   0  0  1  0  0  0  0  0  0  0  0  0
    2.3908   -0.3000   -0.7653 C   0  0  1  0  0  0  0  0  0  0  0  0
    2.2384    1.1389   -0.4565 C   0  0  0  0  0  0  0  0  0  0  0  0
   -1.1983   -1.7239    0.6902 C   0  0  0  0  0  0  0  0  0  0  0  0
    3.7560   -0.6520   -0.1067 C   0  0  0  0  0  0  0  0  0  0  0  0
    1.4023    2.1992   -0.7159 C   0  0  0  0  0  0  0  0  0  0  0  0
    4.1537    0.5762    0.6928 C   0  0  0  0  0  0  0  0  0  0  0  0
   -2.9791   -2.4234   -0.9460 C   0  0  0  0  0  0  0  0  0  0  0  0
   -3.5380    0.4310   -1.6498 C   0  0  0  0  0  0  0  0  0  0  0  0
   -1.5694    1.1912   -0.3580 C   0  0  0  0  0  0  0  0  0  0  0  0
   -0.0910   -2.7166    0.4254 C   0  0  0  0  0  0  0  0  0  0  0  0
    0.2026    2.2488   -1.5927 C   0  0  0  0  0  0  0  0  0  0  0  0
    3.0711    2.8542    0.7106 C   0  0  0  0  0  0  0  0  0  0  0  0
    1.9440    3.2934    0.0389 C   0  0  0  0  0  0  0  0  0  0  0  0
    1.1218   -2.2794   -0.3180 C   0  0  0  0  0  0  0  0  0  0  0  0
   -0.1248   -3.9918    0.8362 C   0  0  0  0  0  0  0  0  0  0  0  0
   -4.0660    1.2791    0.9588 C   0  0  0  0  0  0  0  0  0  0  0  0
    0.9688   -4.9742    0.5912 C   0  0  0  0  0  0  0  0  0  0  0  0
   -4.8422    1.1666    2.2359 C   0  0  0  0  0  0  0  0  0  0  0  0
   -1.2489   -1.2882   -1.4420 H   0  0  0  0  0  0  0  0  0  0  0  0
    2.3686   -0.5097   -1.8396 H   0  0  0  0  0  0  0  0  0  0  0  0
   -1.9081   -2.1335    1.4216 H   0  0  0  0  0  0  0  0  0  0  0  0
   -0.7662   -0.8435    1.1804 H   0  0  0  0  0  0  0  0  0  0  0  0
    4.5187   -0.8101   -0.8764 H   0  0  0  0  0  0  0  0  0  0  0  0
    3.6998   -1.5207    0.5547 H   0  0  0  0  0  0  0  0  0  0  0  0
   -3.7619   -2.4903   -0.1830 H   0  0  0  0  0  0  0  0  0  0  0  0
   -2.4960   -3.4031   -1.0199 H   0  0  0  0  0  0  0  0  0  0  0  0
   -3.4610   -2.2369   -1.9104 H   0  0  0  0  0  0  0  0  0  0  0  0
   -4.5454    0.0188   -1.5224 H   0  0  0  0  0  0  0  0  0  0  0  0
   -3.1268    0.0306   -2.5848 H   0  0  0  0  0  0  0  0  0  0  0  0
   -3.6343    1.5056   -1.8363 H   0  0  0  0  0  0  0  0  0  0  0  0
   -0.3468    3.1893   -1.4619 H   0  0  0  0  0  0  0  0  0  0  0  0
    0.5267    2.2213   -2.6392 H   0  0  0  0  0  0  0  0  0  0  0  0
    3.7544    3.3669    1.3735 H   0  0  0  0  0  0  0  0  0  0  0  0
    1.5486    4.2992    0.0831 H   0  0  0  0  0  0  0  0  0  0  0  0
   -0.9966   -4.3551    1.3744 H   0  0  0  0  0  0  0  0  0  0  0  0
    0.8111   -5.8437    1.2403 H   0  0  0  0  0  0  0  0  0  0  0  0
    1.9580   -4.5855    0.8514 H   0  0  0  0  0  0  0  0  0  0  0  0
    0.9519   -5.3431   -0.4387 H   0  0  0  0  0  0  0  0  0  0  0  0
   -5.5777    0.3626    2.1524 H   0  0  0  0  0  0  0  0  0  0  0  0
   -5.3714    2.1054    2.4226 H   0  0  0  0  0  0  0  0  0  0  0  0
   -4.1595    0.9797    3.0685 H   0  0  0  0  0  0  0  0  0  0  0  0
  1 11  1  0  0  0  0
  1 24  1  0  0  0  0
  2 10  1  0  0  0  0
  2 26  1  0  0  0  0
  3 19  1  0  0  0  0
  3 21  1  0  0  0  0
  4 16  2  0  0  0  0
  5 19  2  0  0  0  0
  6 24  2  0  0  0  0
  7 26  2  0  0  0  0
  8 12  1  0  0  0  0
  8 16  1  0  0  0  0
  8 22  1  0  0  0  0
  9 10  1  0  0  0  0
  9 13  1  0  0  0  0
  9 17  1  0  0  0  0
  9 29  1  0  0  0  0
 10 18  1  0  0  0  0
 10 19  1  0  0  0  0
 11 12  1  0  0  0  0
 11 14  1  0  0  0  0
 11 30  1  0  0  0  0
 12 15  2  0  0  0  0
 13 20  1  0  0  0  0
 13 31  1  0  0  0  0
 13 32  1  0  0  0  0
 14 16  1  0  0  0  0
 14 33  1  0  0  0  0
 14 34  1  0  0  0  0
 15 21  1  0  0  0  0
 15 23  1  0  0  0  0
 17 35  1  0  0  0  0
 17 36  1  0  0  0  0
 17 37  1  0  0  0  0
 18 38  1  0  0  0  0
 18 39  1  0  0  0  0
 18 40  1  0  0  0  0
 20 24  1  0  0  0  0
 20 25  2  0  0  0  0
 21 41  1  0  0  0  0
 21 42  1  0  0  0  0
 22 23  2  0  0  0  0
 22 43  1  0  0  0  0
 23 44  1  0  0  0  0
 25 27  1  0  0  0  0
 25 45  1  0  0  0  0
 26 28  1  0  0  0  0
 27 46  1  0  0  0  0
 27 47  1  0  0  0  0
 27 48  1  0  0  0  0
 28 49  1  0  0  0  0
 28 50  1  0  0  0  0
 28 51  1  0  0  0  0
M  END
> <PUBCHEM_COMPOUND_CID>
101526913

> <PUBCHEM_CONFORMER_RMSD>
0.8

> <PUBCHEM_CONFORMER_DIVERSEORDER>
1
5
6
8
2
7
3
4

> <PUBCHEM_MMFF94_PARTIAL_CHARGES>
28
1 -0.43
10 0.34
11 0.46
12 -0.33
13 0.14
14 0.06
15 -0.18
16 0.52
19 0.66
2 -0.43
20 -0.12
21 0.46
22 -0.3
23 -0.15
24 0.71
25 -0.29
26 0.66
27 0.14
28 0.06
3 -0.43
4 -0.57
43 0.15
44 0.15
45 0.15
5 -0.57
6 -0.57
7 -0.57
8 0.29

> <PUBCHEM_EFFECTIVE_ROTOR_COUNT>
3.4

> <PUBCHEM_PHARMACOPHORE_FEATURES>
7
1 27 hydrophobe
1 4 acceptor
1 5 acceptor
1 6 acceptor
1 7 acceptor
5 8 11 12 14 16 rings
5 8 12 15 22 23 rings

> <PUBCHEM_HEAVY_ATOM_COUNT>
28

> <PUBCHEM_ATOM_DEF_STEREO_COUNT>
3

> <PUBCHEM_ATOM_UDEF_STEREO_COUNT>
0

> <PUBCHEM_BOND_DEF_STEREO_COUNT>
1

> <PUBCHEM_BOND_UDEF_STEREO_COUNT>
0

> <PUBCHEM_ISOTOPIC_ATOM_COUNT>
0

> <PUBCHEM_COMPONENT_COUNT>
1

> <PUBCHEM_CACTVS_TAUTO_COUNT>
4

> <PUBCHEM_CONFORMER_ID>
060D2D8100000001

> <PUBCHEM_MMFF94_ENERGY>
72.5102

> <PUBCHEM_FEATURE_SELFOVERLAP>
35.803

> <PUBCHEM_SHAPE_FINGERPRINT>
10064457 181 18338808934448302752
10708813 3 17911535206848343969
11370993 70 18340480157562252432
11513181 2 17986119728263319246
12035758 1 18410572856466654802
12403260 363 18196359528116260358
12422481 6 18191853540523594514
12553582 1 18336271167174954132
12633257 1 18410568513769804816
12788726 201 17766852988963618919
13140716 1 18410016571563972153
13583140 156 17095791192182268889
138480 1 17905327325400471394
14178342 30 18411984693272621669
14363568 33 17908716024543385071
14790565 3 18263381251688660396
15209289 33 18411136939800909444
15420108 30 18199733787415282622
16728300 4 17316722592139468242
18603816 31 14712214978807490680
19930381 70 18265054639449770011
20028762 73 18342170124182994767
20511986 3 17774420708576179565
20739085 24 18188224142687750724
20775438 99 15390587539391266751
21041028 32 17399803696288588251
21731228 192 18411140276626481994
22182313 1 17897444982866157069
23419403 2 12769349151729459871
23558518 356 18268997668498671519
23559900 14 18197203961562844084
25222932 49 14928497763892100017
35225 105 17124853517802954465
392239 28 18265621064306592827
474 4 18411980252218356763
5265222 85 18261969483406601564
58807428 26 18409732867472874307
70251023 43 17615106808292823423
7064713 232 18342171215299483280
9709674 26 18123750017964050774

> <PUBCHEM_SHAPE_MULTIPOLES>
530.16
7.87
5.1
1.41
0.77
5.71
0.13
-5.07
3.18
-1.15
0.72
1.07
-0.46
-0.47

> <PUBCHEM_SHAPE_SELFOVERLAP>
1139.889

> <PUBCHEM_SHAPE_VOLUME>
290.1

> <PUBCHEM_COORDINATE_TYPE>
2
5
10

$$$$
