101515731
  -OEChem-03292013293D

 45 48  0     1  0  0  0  0  0999 V2000
    3.7926   -0.0715    0.4282 O   0  0  0  0  0  0  0  0  0  0  0  0
   -1.0149   -0.1358   -0.0141 O   0  0  0  0  0  0  0  0  0  0  0  0
    6.4435    0.5119   -0.9284 O   0  0  0  0  0  0  0  0  0  0  0  0
    1.5739   -4.2192    0.2208 O   0  0  0  0  0  0  0  0  0  0  0  0
    0.3596    2.0973    0.1190 O   0  0  0  0  0  0  0  0  0  0  0  0
   -1.0168   -4.2006   -0.0084 O   0  0  0  0  0  0  0  0  0  0  0  0
   -5.1599    2.5396    1.6938 O   0  0  0  0  0  0  0  0  0  0  0  0
   -6.8114    2.3271   -0.5323 O   0  0  0  0  0  0  0  0  0  0  0  0
    1.3638   -0.0602    0.2053 C   0  0  0  0  0  0  0  0  0  0  0  0
    0.1789   -0.8044    0.0952 C   0  0  0  0  0  0  0  0  0  0  0  0
    2.5893   -0.7235    0.3167 C   0  0  0  0  0  0  0  0  0  0  0  0
    0.2409   -2.2008    0.1002 C   0  0  0  0  0  0  0  0  0  0  0  0
    5.1643    1.9050    0.5576 C   0  0  0  0  0  0  0  0  0  0  0  0
    3.7968    1.3113    0.4311 C   0  0  0  0  0  0  0  0  0  0  0  0
    5.9354    1.8342   -0.7603 C   0  0  1  0  0  0  0  0  0  0  0  0
    1.3744    1.4201    0.2094 C   0  0  0  0  0  0  0  0  0  0  0  0
    1.4670   -2.8610    0.2119 C   0  0  0  0  0  0  0  0  0  0  0  0
    2.6411   -2.1190    0.3196 C   0  0  0  0  0  0  0  0  0  0  0  0
    2.6953    2.0668    0.3311 C   0  0  0  0  0  0  0  0  0  0  0  0
   -2.1892   -0.8601   -0.1281 C   0  0  0  0  0  0  0  0  0  0  0  0
   -1.0049   -2.9771   -0.0114 C   0  0  0  0  0  0  0  0  0  0  0  0
   -2.2528   -2.1998   -0.1270 C   0  0  0  0  0  0  0  0  0  0  0  0
   -3.4013   -0.0223   -0.2315 C   0  0  0  0  0  0  0  0  0  0  0  0
    7.1087    2.8061   -0.7582 C   0  0  0  0  0  0  0  0  0  0  0  0
   -3.7173    0.8752    0.7883 C   0  0  0  0  0  0  0  0  0  0  0  0
   -4.2299   -0.1286   -1.3486 C   0  0  0  0  0  0  0  0  0  0  0  0
   -4.8619    1.6665    0.6913 C   0  0  0  0  0  0  0  0  0  0  0  0
   -5.3747    0.6626   -1.4454 C   0  0  0  0  0  0  0  0  0  0  0  0
   -5.6907    1.5602   -0.4256 C   0  0  0  0  0  0  0  0  0  0  0  0
    5.7092    1.3804    1.3528 H   0  0  0  0  0  0  0  0  0  0  0  0
    5.0746    2.9516    0.8765 H   0  0  0  0  0  0  0  0  0  0  0  0
    5.2818    2.0591   -1.6115 H   0  0  0  0  0  0  0  0  0  0  0  0
    3.5987   -2.6271    0.4066 H   0  0  0  0  0  0  0  0  0  0  0  0
    2.7317    3.1501    0.3346 H   0  0  0  0  0  0  0  0  0  0  0  0
   -3.1854   -2.7472   -0.2054 H   0  0  0  0  0  0  0  0  0  0  0  0
    7.8074    2.5747    0.0534 H   0  0  0  0  0  0  0  0  0  0  0  0
    6.7698    3.8406   -0.6472 H   0  0  0  0  0  0  0  0  0  0  0  0
    7.6748    2.7256   -1.6925 H   0  0  0  0  0  0  0  0  0  0  0  0
   -3.0736    0.9586    1.6616 H   0  0  0  0  0  0  0  0  0  0  0  0
   -3.9978   -0.8188   -2.1562 H   0  0  0  0  0  0  0  0  0  0  0  0
    6.9172    0.4854   -1.7772 H   0  0  0  0  0  0  0  0  0  0  0  0
    0.7018   -4.6326    0.1345 H   0  0  0  0  0  0  0  0  0  0  0  0
   -6.0110    0.5704   -2.3216 H   0  0  0  0  0  0  0  0  0  0  0  0
   -4.4762    2.4770    2.3828 H   0  0  0  0  0  0  0  0  0  0  0  0
   -7.2597    2.1182   -1.3697 H   0  0  0  0  0  0  0  0  0  0  0  0
  1 11  1  0  0  0  0
  1 14  1  0  0  0  0
  2 10  1  0  0  0  0
  2 20  1  0  0  0  0
  3 15  1  0  0  0  0
  3 41  1  0  0  0  0
  4 17  1  0  0  0  0
  4 42  1  0  0  0  0
  5 16  2  0  0  0  0
  6 21  2  0  0  0  0
  7 27  1  0  0  0  0
  7 44  1  0  0  0  0
  8 29  1  0  0  0  0
  8 45  1  0  0  0  0
  9 10  1  0  0  0  0
  9 11  2  0  0  0  0
  9 16  1  0  0  0  0
 10 12  2  0  0  0  0
 11 18  1  0  0  0  0
 12 17  1  0  0  0  0
 12 21  1  0  0  0  0
 13 14  1  0  0  0  0
 13 15  1  0  0  0  0
 13 30  1  0  0  0  0
 13 31  1  0  0  0  0
 14 19  2  0  0  0  0
 15 24  1  0  0  0  0
 15 32  1  0  0  0  0
 16 19  1  0  0  0  0
 17 18  2  0  0  0  0
 18 33  1  0  0  0  0
 19 34  1  0  0  0  0
 20 22  2  0  0  0  0
 20 23  1  0  0  0  0
 21 22  1  0  0  0  0
 22 35  1  0  0  0  0
 23 25  2  0  0  0  0
 23 26  1  0  0  0  0
 24 36  1  0  0  0  0
 24 37  1  0  0  0  0
 24 38  1  0  0  0  0
 25 27  1  0  0  0  0
 25 39  1  0  0  0  0
 26 28  2  0  0  0  0
 26 40  1  0  0  0  0
 27 29  2  0  0  0  0
 28 29  1  0  0  0  0
 28 43  1  0  0  0  0
M  END
> <PUBCHEM_COMPOUND_CID>
101515731

> <PUBCHEM_CONFORMER_RMSD>
0.8

> <PUBCHEM_CONFORMER_DIVERSEORDER>
1
14
4
11
12
10
16
7
13
6
15
3
5
9
8
2

> <PUBCHEM_MMFF94_PARTIAL_CHARGES>
38
1 -0.16
10 0.08
11 0.08
12 0.09
13 0.14
14 -0.06
15 0.28
16 0.47
17 0.08
18 -0.15
19 -0.14
2 -0.16
20 0.05
21 0.47
22 -0.14
23 0.03
25 -0.15
26 -0.15
27 0.08
28 -0.15
29 0.08
3 -0.68
33 0.15
34 0.15
35 0.15
39 0.15
4 -0.53
40 0.15
41 0.4
42 0.45
43 0.15
44 0.45
45 0.45
5 -0.57
6 -0.57
7 -0.53
8 -0.53
9 0.09

> <PUBCHEM_EFFECTIVE_ROTOR_COUNT>
3

> <PUBCHEM_PHARMACOPHORE_FEATURES>
13
1 1 acceptor
1 2 acceptor
1 3 acceptor
1 3 donor
1 4 donor
1 5 acceptor
1 6 acceptor
1 7 donor
1 8 donor
6 1 9 11 14 16 19 rings
6 2 10 12 20 21 22 rings
6 23 25 26 27 28 29 rings
6 9 10 11 12 17 18 rings

> <PUBCHEM_HEAVY_ATOM_COUNT>
29

> <PUBCHEM_ATOM_DEF_STEREO_COUNT>
0

> <PUBCHEM_ATOM_UDEF_STEREO_COUNT>
1

> <PUBCHEM_BOND_DEF_STEREO_COUNT>
0

> <PUBCHEM_BOND_UDEF_STEREO_COUNT>
0

> <PUBCHEM_ISOTOPIC_ATOM_COUNT>
0

> <PUBCHEM_COMPONENT_COUNT>
1

> <PUBCHEM_CACTVS_TAUTO_COUNT>
198

> <PUBCHEM_CONFORMER_ID>
060D01D300000001

> <PUBCHEM_MMFF94_ENERGY>
82.8562

> <PUBCHEM_FEATURE_SELFOVERLAP>
66.044

> <PUBCHEM_SHAPE_FINGERPRINT>
10411042 1 17546441180997548075
10816530 90 18336267830671030614
10906281 52 18412271627200108240
1100329 8 18338228267887102778
11135609 187 18410000036604793701
1200032 147 18334300837810605041
12107183 9 18263064605651615202
12236239 1 17772175437613177447
12293681 160 17988926682015878472
12390115 104 18338241560498991050
12422481 6 17240195547806015268
12788726 201 17560245717040118521
13140716 1 18408037399284973874
13540713 5 18263623187191415946
13944108 23 18124315995527121892
14790565 3 18410578379336057360
14856354 85 16009033946596193472
14931854 50 18059569179394521661
15064981 113 16916216642800859525
15183329 4 18201722847210579020
15274700 147 15733771481124676020
15439362 3 18338234860323557759
15664445 248 17769949977795663518
15927050 60 18412261765729415295
15980000 95 17762055446508178226
1601671 61 18261107508907859652
18608769 82 18265901444156209475
20511986 3 17844786137117991257
21033648 144 18261105245765569447
21033648 29 18268702986671917536
21033650 10 15195294084494551779
21279426 13 18342186591930898694
21298829 104 18411698743320692981
21421861 104 17896020089111521634
22122407 14 17981052908527310041
22393880 68 17987789838484671205
23559900 14 18057325192537622888
283562 15 18120083142470669579
335352 9 18411416177506087702
3411729 13 18260825960373087386
34797466 226 15051144858623409971
38570 142 18343311344247919533
4058900 60 18333735710656975954
4073 2 18259705580559633699
474 4 18340481154775192051
5104073 3 18259698999662441019
6034566 193 18189627192475374581
6327066 14 18335134310774598477
6328613 192 18410577331585784620
633830 44 18200873959872678343

> <PUBCHEM_SHAPE_MULTIPOLES>
549.85
15.13
4.31
0.98
3.88
4.08
0.06
-18.42
3.59
0.61
-0.38
-0.76
-0.49
-1.16

> <PUBCHEM_SHAPE_SELFOVERLAP>
1227.532

> <PUBCHEM_SHAPE_VOLUME>
293

> <PUBCHEM_COORDINATE_TYPE>
2
5
10

$$$$
