101594575
  -OEChem-03292013293D

 24 24  0     1  0  0  0  0  0999 V2000
   -0.9396    3.3956   -0.3591 O   0  0  0  0  0  0  0  0  0  0  0  0
   -1.7833    1.6144   -1.5043 O   0  0  0  0  0  0  0  0  0  0  0  0
   -2.7108   -2.2454    0.0766 O   0  0  0  0  0  0  0  0  0  0  0  0
   -0.7492   -3.2932   -0.4571 O   0  0  0  0  0  0  0  0  0  0  0  0
    4.4756   -0.5667   -0.3707 O   0  0  0  0  0  0  0  0  0  0  0  0
   -1.5973    0.0057    0.6254 N   0  0  0  0  0  0  0  0  0  0  0  0
   -1.1205    1.3649    0.8057 C   0  0  1  0  0  0  0  0  0  0  0  0
    0.3594    1.3695    1.2261 C   0  0  0  0  0  0  0  0  0  0  0  0
    1.2116    0.3529    0.4841 C   0  0  0  0  0  0  0  0  0  0  0  0
   -0.7692   -1.0229    0.2472 C   0  0  0  0  0  0  0  0  0  0  0  0
    0.5635   -0.9053    0.1410 C   0  0  0  0  0  0  0  0  0  0  0  0
   -1.3284    2.1029   -0.4806 C   0  0  0  0  0  0  0  0  0  0  0  0
    2.4953    0.5905    0.1773 C   0  0  0  0  0  0  0  0  0  0  0  0
   -1.3730   -2.3145   -0.0876 C   0  0  0  0  0  0  0  0  0  0  0  0
    3.2659   -0.4484   -0.5240 C   0  0  0  0  0  0  0  0  0  0  0  0
   -1.7341    1.8539    1.5711 H   0  0  0  0  0  0  0  0  0  0  0  0
    0.4057    1.1053    2.2924 H   0  0  0  0  0  0  0  0  0  0  0  0
    0.7923    2.3734    1.1404 H   0  0  0  0  0  0  0  0  0  0  0  0
   -2.5967   -0.1693    0.6277 H   0  0  0  0  0  0  0  0  0  0  0  0
    1.1533   -1.7613   -0.1626 H   0  0  0  0  0  0  0  0  0  0  0  0
    3.0089    1.4954    0.4791 H   0  0  0  0  0  0  0  0  0  0  0  0
   -1.0659    3.8962   -1.1932 H   0  0  0  0  0  0  0  0  0  0  0  0
    2.7299   -1.0899   -1.2391 H   0  0  0  0  0  0  0  0  0  0  0  0
   -3.1531   -3.0941   -0.1388 H   0  0  0  0  0  0  0  0  0  0  0  0
  1 12  1  0  0  0  0
  1 22  1  0  0  0  0
  2 12  2  0  0  0  0
  3 14  1  0  0  0  0
  3 24  1  0  0  0  0
  4 14  2  0  0  0  0
  5 15  2  0  0  0  0
  6  7  1  0  0  0  0
  6 10  1  0  0  0  0
  6 19  1  0  0  0  0
  7  8  1  0  0  0  0
  7 12  1  0  0  0  0
  7 16  1  0  0  0  0
  8  9  1  0  0  0  0
  8 17  1  0  0  0  0
  8 18  1  0  0  0  0
  9 11  1  0  0  0  0
  9 13  2  0  0  0  0
 10 11  2  0  0  0  0
 10 14  1  0  0  0  0
 11 20  1  0  0  0  0
 13 15  1  0  0  0  0
 13 21  1  0  0  0  0
 15 23  1  0  0  0  0
M  END
> <PUBCHEM_COMPOUND_CID>
101594575

> <PUBCHEM_CONFORMER_RMSD>
0.6

> <PUBCHEM_CONFORMER_DIVERSEORDER>
1
6
4
2
3
7
5

> <PUBCHEM_MMFF94_PARTIAL_CHARGES>
21
1 -0.65
10 0.11
11 -0.15
12 0.66
13 -0.14
14 0.71
15 0.5
19 0.4
2 -0.57
20 0.15
21 0.15
22 0.5
23 0.06
24 0.5
3 -0.65
4 -0.57
5 -0.57
6 -0.87
7 0.43
8 0.14
9 -0.14

> <PUBCHEM_EFFECTIVE_ROTOR_COUNT>
3.6

> <PUBCHEM_PHARMACOPHORE_FEATURES>
10
1 1 acceptor
1 2 acceptor
1 3 acceptor
1 4 acceptor
1 5 acceptor
1 6 cation
1 6 donor
3 1 2 12 anion
3 3 4 14 anion
6 6 7 8 9 10 11 rings

> <PUBCHEM_HEAVY_ATOM_COUNT>
15

> <PUBCHEM_ATOM_DEF_STEREO_COUNT>
1

> <PUBCHEM_ATOM_UDEF_STEREO_COUNT>
0

> <PUBCHEM_BOND_DEF_STEREO_COUNT>
1

> <PUBCHEM_BOND_UDEF_STEREO_COUNT>
0

> <PUBCHEM_ISOTOPIC_ATOM_COUNT>
0

> <PUBCHEM_COMPONENT_COUNT>
1

> <PUBCHEM_CACTVS_TAUTO_COUNT>
4

> <PUBCHEM_CONFORMER_ID>
060E35CF00000001

> <PUBCHEM_MMFF94_ENERGY>
34.6698

> <PUBCHEM_FEATURE_SELFOVERLAP>
50.857

> <PUBCHEM_SHAPE_FINGERPRINT>
1 1 17688874133540753812
11322862 65 18199207108286206646
12138202 97 18337954468084664222
12423570 1 18189922862118486528
13024252 1 16081383954729257936
15490181 8 17760357795499353793
16945 1 18337663131583564600
18785283 64 17183086651508030784
20645477 70 16824727778902038863
20711985 344 18335974350337282426
21029758 27 18119545459439916379
21160774 45 18410577240900308809
21524375 3 17825667742507336080
22802520 49 18270671073593332612
23419403 2 17487878198156316489
23552423 10 17259626374695080851
23557571 272 18270974560778686356
23559900 14 18129381498333125698
241688 4 18265894850721481769
25 1 17616818730047449216
2748010 2 18196919192081681009
6992083 37 18126870393177559571
7364860 26 17186441785538541243
81228 2 18338233889681885890

> <PUBCHEM_SHAPE_MULTIPOLES>
274.37
4.26
3.41
0.97
5.92
0.4
0.04
1.27
0.91
-3.06
0.67
-0.21
-0.45
0.48

> <PUBCHEM_SHAPE_SELFOVERLAP>
571.975

> <PUBCHEM_SHAPE_VOLUME>
152.9

> <PUBCHEM_COORDINATE_TYPE>
2
5
10

$$$$
