101564690
  -OEChem-03292013293D

 58 60  0     0  0  0  0  0  0999 V2000
   -3.8718    0.9880    0.8369 O   0  0  0  0  0  0  0  0  0  0  0  0
    2.9911    0.1793   -1.1666 O   0  0  0  0  0  0  0  0  0  0  0  0
   -4.1878   -1.6513   -1.6863 O   0  0  0  0  0  0  0  0  0  0  0  0
    4.8571   -0.3392    1.9449 O   0  0  0  0  0  0  0  0  0  0  0  0
    6.5665   -1.3276   -0.0333 O   0  0  0  0  0  0  0  0  0  0  0  0
   -6.5718   -1.8217   -0.2373 O   0  0  0  0  0  0  0  0  0  0  0  0
    2.3829    0.6894    1.0207 N   0  0  0  0  0  0  0  0  0  0  0  0
   -2.3822    0.3583   -0.8332 N   0  0  0  0  0  0  0  0  0  0  0  0
    0.5624   -1.5896    0.4055 N   0  0  0  0  0  0  0  0  0  0  0  0
    0.1941    2.1578   -0.4417 N   0  0  0  0  0  0  0  0  0  0  0  0
    1.7616   -0.1072    2.0953 C   0  0  0  0  0  0  0  0  0  0  0  0
   -2.0556    1.6506   -1.4544 C   0  0  0  0  0  0  0  0  0  0  0  0
    2.2149    2.1524    1.1110 C   0  0  0  0  0  0  0  0  0  0  0  0
   -1.3580   -0.6913   -0.8923 C   0  0  0  0  0  0  0  0  0  0  0  0
   -0.7620   -0.9579    0.5009 C   0  0  0  0  0  0  0  0  0  0  0  0
    0.7834    2.6336    0.8224 C   0  0  0  0  0  0  0  0  0  0  0  0
    1.3104   -1.5199    1.6720 C   0  0  0  0  0  0  0  0  0  0  0  0
   -1.2312    2.5436   -0.5128 C   0  0  0  0  0  0  0  0  0  0  0  0
    3.3336    0.1670    0.1826 C   0  0  0  0  0  0  0  0  0  0  0  0
   -3.5922    0.1415   -0.2322 C   0  0  0  0  0  0  0  0  0  0  0  0
    0.9285    2.6660   -1.6040 C   0  0  0  0  0  0  0  0  0  0  0  0
    0.4528   -2.9848   -0.0322 C   0  0  0  0  0  0  0  0  0  0  0  0
    4.5122   -0.3242    0.6102 C   0  0  0  0  0  0  0  0  0  0  0  0
   -4.4588   -0.8099   -0.6282 C   0  0  0  0  0  0  0  0  0  0  0  0
    5.4819   -0.8703   -0.3741 C   0  0  0  0  0  0  0  0  0  0  0  0
   -5.7514   -0.9708    0.0863 C   0  0  0  0  0  0  0  0  0  0  0  0
    3.8801   -0.3222   -2.0833 C   0  0  0  0  0  0  0  0  0  0  0  0
   -5.0629    0.8476    1.5029 C   0  0  0  0  0  0  0  0  0  0  0  0
    5.0757   -0.8359   -1.7917 C   0  0  0  0  0  0  0  0  0  0  0  0
   -6.0037   -0.0516    1.2120 C   0  0  0  0  0  0  0  0  0  0  0  0
   -2.9891    2.1779   -1.6927 H   0  0  0  0  0  0  0  0  0  0  0  0
   -1.5587    1.4956   -2.4184 H   0  0  0  0  0  0  0  0  0  0  0  0
    2.9161    2.6589    0.4354 H   0  0  0  0  0  0  0  0  0  0  0  0
    0.8961    0.4232    2.5060 H   0  0  0  0  0  0  0  0  0  0  0  0
    2.4645   -0.1948    2.9328 H   0  0  0  0  0  0  0  0  0  0  0  0
   -0.5602   -0.3828   -1.5804 H   0  0  0  0  0  0  0  0  0  0  0  0
   -1.7650   -1.6157   -1.3144 H   0  0  0  0  0  0  0  0  0  0  0  0
    2.4993    2.4754    2.1209 H   0  0  0  0  0  0  0  0  0  0  0  0
   -1.4511   -1.5701    1.0977 H   0  0  0  0  0  0  0  0  0  0  0  0
    0.7314   -1.9707    2.4889 H   0  0  0  0  0  0  0  0  0  0  0  0
    2.2208   -2.1265    1.5756 H   0  0  0  0  0  0  0  0  0  0  0  0
    0.7714    3.7314    0.8550 H   0  0  0  0  0  0  0  0  0  0  0  0
    0.1516    2.3013    1.6550 H   0  0  0  0  0  0  0  0  0  0  0  0
   -1.6874    2.4919    0.4837 H   0  0  0  0  0  0  0  0  0  0  0  0
   -1.3211    3.5905   -0.8312 H   0  0  0  0  0  0  0  0  0  0  0  0
   -0.6858   -0.0032    1.0277 H   0  0  0  0  0  0  0  0  0  0  0  0
    0.5373    2.2387   -2.5326 H   0  0  0  0  0  0  0  0  0  0  0  0
    1.9873    2.4038   -1.5786 H   0  0  0  0  0  0  0  0  0  0  0  0
   -0.0112   -3.0582   -1.0207 H   0  0  0  0  0  0  0  0  0  0  0  0
   -0.1284   -3.5917    0.6713 H   0  0  0  0  0  0  0  0  0  0  0  0
    0.8650    3.7581   -1.6782 H   0  0  0  0  0  0  0  0  0  0  0  0
    1.4469   -3.4352   -0.1344 H   0  0  0  0  0  0  0  0  0  0  0  0
    3.4860   -0.2492   -3.0867 H   0  0  0  0  0  0  0  0  0  0  0  0
   -5.1468    1.5662    2.3055 H   0  0  0  0  0  0  0  0  0  0  0  0
    5.7456   -1.2212   -2.5491 H   0  0  0  0  0  0  0  0  0  0  0  0
   -6.9302   -0.1267    1.7658 H   0  0  0  0  0  0  0  0  0  0  0  0
   -4.9487   -2.2493   -1.7850 H   0  0  0  0  0  0  0  0  0  0  0  0
    5.7423   -0.7371    2.0124 H   0  0  0  0  0  0  0  0  0  0  0  0
  1 20  1  0  0  0  0
  1 28  1  0  0  0  0
  2 19  1  0  0  0  0
  2 27  1  0  0  0  0
  3 24  1  0  0  0  0
  3 57  1  0  0  0  0
  4 23  1  0  0  0  0
  4 58  1  0  0  0  0
  5 25  2  0  0  0  0
  6 26  2  0  0  0  0
  7 11  1  0  0  0  0
  7 13  1  0  0  0  0
  7 19  1  0  0  0  0
  8 12  1  0  0  0  0
  8 14  1  0  0  0  0
  8 20  1  0  0  0  0
  9 15  1  0  0  0  0
  9 17  1  0  0  0  0
  9 22  1  0  0  0  0
 10 16  1  0  0  0  0
 10 18  1  0  0  0  0
 10 21  1  0  0  0  0
 11 17  1  0  0  0  0
 11 34  1  0  0  0  0
 11 35  1  0  0  0  0
 12 18  1  0  0  0  0
 12 31  1  0  0  0  0
 12 32  1  0  0  0  0
 13 16  1  0  0  0  0
 13 33  1  0  0  0  0
 13 38  1  0  0  0  0
 14 15  1  0  0  0  0
 14 36  1  0  0  0  0
 14 37  1  0  0  0  0
 15 39  1  0  0  0  0
 15 46  1  0  0  0  0
 16 42  1  0  0  0  0
 16 43  1  0  0  0  0
 17 40  1  0  0  0  0
 17 41  1  0  0  0  0
 18 44  1  0  0  0  0
 18 45  1  0  0  0  0
 19 23  2  0  0  0  0
 20 24  2  0  0  0  0
 21 47  1  0  0  0  0
 21 48  1  0  0  0  0
 21 51  1  0  0  0  0
 22 49  1  0  0  0  0
 22 50  1  0  0  0  0
 22 52  1  0  0  0  0
 23 25  1  0  0  0  0
 24 26  1  0  0  0  0
 25 29  1  0  0  0  0
 26 30  1  0  0  0  0
 27 29  2  0  0  0  0
 27 53  1  0  0  0  0
 28 30  2  0  0  0  0
 28 54  1  0  0  0  0
 29 55  1  0  0  0  0
 30 56  1  0  0  0  0
M  END
> <PUBCHEM_COMPOUND_CID>
101564690

> <PUBCHEM_CONFORMER_RMSD>
0.8

> <PUBCHEM_CONFORMER_DIVERSEORDER>
1
20
56
32
41
63
50
108
74
156
72
101
107
102
94
104
133
12
159
96
110
113
153
134
67
117
10
160
138
135
77
119
155
73
46
21
22
123
126
9
13
125
140
118
86
11
97
136
139
121
44
115
150
33
132
79
127
55
34
51
29
87
59
154
48
76
66
26
103
24
31
142
147
18
54
27
151
14
3
53
105
47
42
8
6
145
116
70
60
61
36
39
2
152
52
158
84
148
144
157
65
64
143
68
98
58
92
109
23
100
37
81
146
120
122
16
38
49
19
75
43
137
30
141
106
69
7
95
17
71
149
129
35
130
78
45
89
82
124
25
83
57
91
40
15
131
80
28
62
4
112
88
85
5
128
93
111
99
90
114

> <PUBCHEM_MMFF94_PARTIAL_CHARGES>
36
1 -0.15
10 -0.81
11 0.37
12 0.37
13 0.37
14 0.37
15 0.27
16 0.27
17 0.27
18 0.27
19 0.18
2 -0.15
20 0.18
21 0.27
22 0.27
23 0.09
24 0.09
25 0.54
26 0.54
27 -0.07
28 -0.07
29 -0.14
3 -0.53
30 -0.14
4 -0.53
5 -0.57
53 0.15
54 0.15
55 0.15
56 0.15
57 0.45
58 0.45
6 -0.57
7 -0.84
8 -0.84
9 -0.81

> <PUBCHEM_EFFECTIVE_ROTOR_COUNT>
4.4

> <PUBCHEM_PHARMACOPHORE_FEATURES>
12
1 1 acceptor
1 10 cation
1 2 acceptor
1 3 donor
1 4 donor
1 5 acceptor
1 6 acceptor
1 7 cation
1 8 cation
1 9 cation
6 1 20 24 26 28 30 rings
6 2 19 23 25 27 29 rings

> <PUBCHEM_HEAVY_ATOM_COUNT>
30

> <PUBCHEM_ATOM_DEF_STEREO_COUNT>
0

> <PUBCHEM_ATOM_UDEF_STEREO_COUNT>
0

> <PUBCHEM_BOND_DEF_STEREO_COUNT>
0

> <PUBCHEM_BOND_UDEF_STEREO_COUNT>
0

> <PUBCHEM_ISOTOPIC_ATOM_COUNT>
0

> <PUBCHEM_COMPONENT_COUNT>
1

> <PUBCHEM_CACTVS_TAUTO_COUNT>
1

> <PUBCHEM_CONFORMER_ID>
060DC11200000001

> <PUBCHEM_MMFF94_ENERGY>
93.5316

> <PUBCHEM_FEATURE_SELFOVERLAP>
60.899

> <PUBCHEM_SHAPE_FINGERPRINT>
10076449 9 18272939302590458870
10319926 262 17131567093475083765
10366900 7 17822007618948938057
10928967 22 18334563655702829275
11421498 54 17676766466346836840
11578080 2 17057507413459108480
12011746 2 17894347791770255851
12467345 10 16845298211142875819
12553582 1 18259978280316732597
12778500 126 16702035149253451931
13464513 79 18334012804408250856
14251764 30 18342741775823968614
14528608 73 12396297075601517249
14787075 74 17313107453720289843
14955137 171 18412269458226072545
15142383 8 16271930367741942658
15183329 4 14907902660856980179
17492 54 17096102362868851980
17909252 39 18056200164145495014
1813 80 18334576853968693973
19319366 153 17385717024302573170
20028762 73 18272651285614295847
20511986 3 13254497748743427930
20715895 44 12463301280154836499
21298829 104 9511193945270946291
23559900 14 14418136257742430407
2818148 4 17983026547938975739
3737641 26 18198063581786257734
4093350 32 16773521070782106704
469060 322 18262814951280868456
6669772 16 17242467242045904644

> <PUBCHEM_SHAPE_MULTIPOLES>
562.25
14
2.66
1.87
6.15
1.02
-0.03
-6.66
0.09
0.2
0.31
-1.11
0.11
-0.3

> <PUBCHEM_SHAPE_SELFOVERLAP>
1166.795

> <PUBCHEM_SHAPE_VOLUME>
316.3

> <PUBCHEM_COORDINATE_TYPE>
2
5
10

$$$$
