101507
  -OEChem-03292013323D

 29 30  0     1  0  0  0  0  0999 V2000
   -2.0441    2.3951    0.0258 F   0  0  0  0  0  0  0  0  0  0  0  0
   -1.3210   -0.3074    1.1096 O   0  0  0  0  0  0  0  0  0  0  0  0
   -3.1054    0.7608   -1.8162 O   0  0  0  0  0  0  0  0  0  0  0  0
   -3.1729   -2.4395    1.2251 O   0  0  0  0  0  0  0  0  0  0  0  0
    1.9582    2.1501    1.0035 O   0  0  0  0  0  0  0  0  0  0  0  0
    0.8005    0.2710    0.3297 N   0  0  0  0  0  0  0  0  0  0  0  0
    3.1991    0.4529    0.1485 N   0  0  0  0  0  0  0  0  0  0  0  0
    4.4647   -1.2891   -0.7303 N   0  0  0  0  0  0  0  0  0  0  0  0
   -2.0062    0.3157   -1.0521 C   0  0  1  0  0  0  0  0  0  0  0  0
   -1.1966    1.4530   -0.4774 C   0  0  2  0  0  0  0  0  0  0  0  0
   -2.4406   -0.4038    0.2118 C   0  0  1  0  0  0  0  0  0  0  0  0
   -0.4894    0.7907    0.6902 C   0  0  1  0  0  0  0  0  0  0  0  0
   -2.7937   -1.8626   -0.0139 C   0  0  0  0  0  0  0  0  0  0  0  0
    0.8756   -0.9990   -0.2203 C   0  0  0  0  0  0  0  0  0  0  0  0
    1.9906    1.0176    0.5189 C   0  0  0  0  0  0  0  0  0  0  0  0
    2.0278   -1.5590   -0.5840 C   0  0  0  0  0  0  0  0  0  0  0  0
    3.2533   -0.7464   -0.3688 C   0  0  0  0  0  0  0  0  0  0  0  0
   -1.3794   -0.3142   -1.6915 H   0  0  0  0  0  0  0  0  0  0  0  0
   -0.5447    1.9494   -1.2011 H   0  0  0  0  0  0  0  0  0  0  0  0
   -0.3892    1.4831    1.5327 H   0  0  0  0  0  0  0  0  0  0  0  0
   -3.2869    0.1042    0.6922 H   0  0  0  0  0  0  0  0  0  0  0  0
   -1.9622   -2.4495   -0.4106 H   0  0  0  0  0  0  0  0  0  0  0  0
   -3.6379   -1.9584   -0.7032 H   0  0  0  0  0  0  0  0  0  0  0  0
   -3.6100   -0.0228   -2.0929 H   0  0  0  0  0  0  0  0  0  0  0  0
   -0.0266   -1.5688   -0.3636 H   0  0  0  0  0  0  0  0  0  0  0  0
   -2.4192   -2.3483    1.8329 H   0  0  0  0  0  0  0  0  0  0  0  0
    2.0949   -2.5498   -1.0131 H   0  0  0  0  0  0  0  0  0  0  0  0
    5.3268   -0.7703   -0.6013 H   0  0  0  0  0  0  0  0  0  0  0  0
    4.5394   -2.2171   -1.1338 H   0  0  0  0  0  0  0  0  0  0  0  0
  1 10  1  0  0  0  0
  2 11  1  0  0  0  0
  2 12  1  0  0  0  0
  3  9  1  0  0  0  0
  3 24  1  0  0  0  0
  4 13  1  0  0  0  0
  4 26  1  0  0  0  0
  5 15  2  0  0  0  0
  6 12  1  0  0  0  0
  6 14  1  0  0  0  0
  6 15  1  0  0  0  0
  7 15  1  0  0  0  0
  7 17  2  0  0  0  0
  8 17  1  0  0  0  0
  8 28  1  0  0  0  0
  8 29  1  0  0  0  0
  9 10  1  0  0  0  0
  9 11  1  0  0  0  0
  9 18  1  0  0  0  0
 10 12  1  0  0  0  0
 10 19  1  0  0  0  0
 11 13  1  0  0  0  0
 11 21  1  0  0  0  0
 12 20  1  0  0  0  0
 13 22  1  0  0  0  0
 13 23  1  0  0  0  0
 14 16  2  0  0  0  0
 14 25  1  0  0  0  0
 16 17  1  0  0  0  0
 16 27  1  0  0  0  0
M  END
> <PUBCHEM_COMPOUND_CID>
101507

> <PUBCHEM_CONFORMER_RMSD>
0.6

> <PUBCHEM_CONFORMER_DIVERSEORDER>
1
7
11
14
12
13
5
2
8
9
10
3
6
4

> <PUBCHEM_MMFF94_PARTIAL_CHARGES>
23
1 -0.34
10 0.34
11 0.28
12 0.58
13 0.28
14 -0.04
15 0.84
16 -0.14
17 0.49
2 -0.56
24 0.4
25 0.15
26 0.4
27 0.15
28 0.4
29 0.4
3 -0.68
4 -0.68
5 -0.57
6 -0.47
7 -0.66
8 -0.85
9 0.28

> <PUBCHEM_EFFECTIVE_ROTOR_COUNT>
3

> <PUBCHEM_PHARMACOPHORE_FEATURES>
10
1 2 acceptor
1 3 acceptor
1 3 donor
1 4 acceptor
1 4 donor
1 5 acceptor
1 7 donor
1 8 donor
5 2 9 10 11 12 rings
6 6 7 14 15 16 17 rings

> <PUBCHEM_HEAVY_ATOM_COUNT>
17

> <PUBCHEM_ATOM_DEF_STEREO_COUNT>
4

> <PUBCHEM_ATOM_UDEF_STEREO_COUNT>
0

> <PUBCHEM_BOND_DEF_STEREO_COUNT>
0

> <PUBCHEM_BOND_UDEF_STEREO_COUNT>
0

> <PUBCHEM_ISOTOPIC_ATOM_COUNT>
0

> <PUBCHEM_COMPONENT_COUNT>
1

> <PUBCHEM_CACTVS_TAUTO_COUNT>
3

> <PUBCHEM_CONFORMER_ID>
00018C8300000001

> <PUBCHEM_MMFF94_ENERGY>
48.2292

> <PUBCHEM_FEATURE_SELFOVERLAP>
50.796

> <PUBCHEM_SHAPE_FINGERPRINT>
11127187 94 18333732390504623351
11543360 7 17531259382750281870
12138202 97 18040986298691357871
12932764 1 17894628136685219016
13296908 3 18411979204014344803
14115302 16 18262530190558769653
15219456 202 18339637940276614785
15775835 57 14634873002804563452
15906896 17 17272585931962946889
16945 1 18338505344579106777
17844478 74 18339646740717429723
18380122 1 18193549201901477913
18534176 82 18334289842952607775
19868273 293 17168417165012072381
200 152 17489295369833845829
20201158 50 18341889654238537382
20645477 70 18059565923207346919
20871998 22 18118973731021605051
20871999 31 18113893862805166455
21061003 4 18131640005682752779
221490 88 18412549838197125502
22802520 49 18412257333264448313
23557571 272 18115016532437763493
23559900 14 18195807367838208730
25 1 17978787909345031309
2748010 2 18339068419054892029
2871803 45 18334852870163244811
31174 14 18128260184269473280
458136 41 17767693019942072016
5493415 88 18341895177956792218
6049 1 18410292544571649040
77492 1 16199870673433371112
81228 2 18040721389714770241
8809292 202 18408890624338928682

> <PUBCHEM_SHAPE_MULTIPOLES>
304.16
6.19
2.24
1.12
3.2
0.05
-0.16
-2.49
-0.97
-0.86
0.39
-0.74
0.03
1.48

> <PUBCHEM_SHAPE_SELFOVERLAP>
643.762

> <PUBCHEM_SHAPE_VOLUME>
170.5

> <PUBCHEM_COORDINATE_TYPE>
2
5
10

$$$$
