101516509
  -OEChem-03292013293D

 60 63  0     1  0  0  0  0  0999 V2000
    2.5256    1.3250    0.5192 O   0  0  0  0  0  0  0  0  0  0  0  0
   -1.8818    0.3024    1.0366 O   0  0  0  0  0  0  0  0  0  0  0  0
    0.3843    1.8921    1.2800 O   0  0  0  0  0  0  0  0  0  0  0  0
   -1.5735    2.7318   -0.3707 O   0  0  0  0  0  0  0  0  0  0  0  0
   -2.3835   -0.0477   -2.5796 O   0  0  0  0  0  0  0  0  0  0  0  0
   -4.9594   -2.4609   -0.6133 O   0  0  0  0  0  0  0  0  0  0  0  0
    6.2302   -1.3608   -0.1363 O   0  0  0  0  0  0  0  0  0  0  0  0
   -4.0108    1.1355    0.7055 O   0  0  0  0  0  0  0  0  0  0  0  0
    0.6618    0.3495   -0.6447 C   0  0  2  0  0  0  0  0  0  0  0  0
   -0.3935   -0.8246   -0.5308 C   0  0  2  0  0  0  0  0  0  0  0  0
    0.1001    1.4434   -1.6477 C   0  0  1  0  0  0  0  0  0  0  0  0
   -1.8613   -0.3658   -0.2311 C   0  0  2  0  0  0  0  0  0  0  0  0
    1.9907   -0.2039   -1.2273 C   0  0  0  0  0  0  0  0  0  0  0  0
   -1.3850    1.8340   -1.4566 C   0  0  1  0  0  0  0  0  0  0  0  0
   -2.3188    0.6277   -1.3227 C   0  0  1  0  0  0  0  0  0  0  0  0
    1.1801    0.8684    0.7186 C   0  0  1  0  0  0  0  0  0  0  0  0
   -0.0215   -1.9468    0.4690 C   0  0  0  0  0  0  0  0  0  0  0  0
    3.1083    0.6013   -0.5700 C   0  0  2  0  0  0  0  0  0  0  0  0
   -2.8134   -1.5634   -0.0905 C   0  0  0  0  0  0  0  0  0  0  0  0
    0.9448    2.7200   -1.7835 C   0  0  0  0  0  0  0  0  0  0  0  0
   -0.9118   -3.1694    0.2480 C   0  0  0  0  0  0  0  0  0  0  0  0
   -2.3576   -2.8152    0.1008 C   0  0  0  0  0  0  0  0  0  0  0  0
    4.2712   -0.2590   -0.1262 C   0  0  0  0  0  0  0  0  0  0  0  0
   -4.2987   -1.3116   -0.1248 C   0  0  0  0  0  0  0  0  0  0  0  0
   -3.1008    0.7636    1.4341 C   0  0  0  0  0  0  0  0  0  0  0  0
    0.5999    2.0229    2.6818 C   0  0  0  0  0  0  0  0  0  0  0  0
    4.4226   -0.9102    1.1212 C   0  0  0  0  0  0  0  0  0  0  0  0
    5.3969   -0.5640   -0.8555 C   0  0  0  0  0  0  0  0  0  0  0  0
   -3.1753    0.7524    2.9309 C   0  0  0  0  0  0  0  0  0  0  0  0
    5.6301   -1.5667    1.0654 C   0  0  0  0  0  0  0  0  0  0  0  0
   -0.4003   -1.2993   -1.5256 H   0  0  0  0  0  0  0  0  0  0  0  0
    0.1289    0.9684   -2.6408 H   0  0  0  0  0  0  0  0  0  0  0  0
    2.0457   -0.1211   -2.3194 H   0  0  0  0  0  0  0  0  0  0  0  0
    2.1217   -1.2710   -1.0261 H   0  0  0  0  0  0  0  0  0  0  0  0
   -1.6804    2.3915   -2.3563 H   0  0  0  0  0  0  0  0  0  0  0  0
   -3.3172    1.0354   -1.2083 H   0  0  0  0  0  0  0  0  0  0  0  0
    1.2574    0.0396    1.4295 H   0  0  0  0  0  0  0  0  0  0  0  0
   -0.1524   -1.6001    1.5017 H   0  0  0  0  0  0  0  0  0  0  0  0
    1.0204   -2.2638    0.3788 H   0  0  0  0  0  0  0  0  0  0  0  0
    3.5022    1.3483   -1.2678 H   0  0  0  0  0  0  0  0  0  0  0  0
    1.0773    3.2389   -0.8307 H   0  0  0  0  0  0  0  0  0  0  0  0
    0.4661    3.4248   -2.4735 H   0  0  0  0  0  0  0  0  0  0  0  0
    1.9283    2.5054   -2.2063 H   0  0  0  0  0  0  0  0  0  0  0  0
   -0.7905   -3.8546    1.0949 H   0  0  0  0  0  0  0  0  0  0  0  0
   -0.5902   -3.7090   -0.6506 H   0  0  0  0  0  0  0  0  0  0  0  0
   -3.0450   -3.6501    0.2048 H   0  0  0  0  0  0  0  0  0  0  0  0
   -2.5083    2.9989   -0.3654 H   0  0  0  0  0  0  0  0  0  0  0  0
   -2.6790    0.5927   -3.2490 H   0  0  0  0  0  0  0  0  0  0  0  0
   -4.5915   -0.5237   -0.8162 H   0  0  0  0  0  0  0  0  0  0  0  0
   -4.6964   -1.1295    0.8767 H   0  0  0  0  0  0  0  0  0  0  0  0
   -0.0159    2.8500    3.0452 H   0  0  0  0  0  0  0  0  0  0  0  0
    1.6492    2.2498    2.8930 H   0  0  0  0  0  0  0  0  0  0  0  0
    0.2962    1.1099    3.2031 H   0  0  0  0  0  0  0  0  0  0  0  0
    3.7404   -0.9067    1.9593 H   0  0  0  0  0  0  0  0  0  0  0  0
    5.7389   -0.3071   -1.8477 H   0  0  0  0  0  0  0  0  0  0  0  0
   -5.9142   -2.2766   -0.5978 H   0  0  0  0  0  0  0  0  0  0  0  0
   -2.9413   -0.2466    3.3078 H   0  0  0  0  0  0  0  0  0  0  0  0
   -4.1915    1.0078    3.2444 H   0  0  0  0  0  0  0  0  0  0  0  0
   -2.4828    1.4910    3.3411 H   0  0  0  0  0  0  0  0  0  0  0  0
    6.1751   -2.1897    1.7594 H   0  0  0  0  0  0  0  0  0  0  0  0
  1 16  1  0  0  0  0
  1 18  1  0  0  0  0
  2 12  1  0  0  0  0
  2 25  1  0  0  0  0
  3 16  1  0  0  0  0
  3 26  1  0  0  0  0
  4 14  1  0  0  0  0
  4 47  1  0  0  0  0
  5 15  1  0  0  0  0
  5 48  1  0  0  0  0
  6 24  1  0  0  0  0
  6 56  1  0  0  0  0
  7 28  1  0  0  0  0
  7 30  1  0  0  0  0
  8 25  2  0  0  0  0
  9 10  1  0  0  0  0
  9 11  1  0  0  0  0
  9 13  1  0  0  0  0
  9 16  1  0  0  0  0
 10 12  1  0  0  0  0
 10 17  1  0  0  0  0
 10 31  1  0  0  0  0
 11 14  1  0  0  0  0
 11 20  1  0  0  0  0
 11 32  1  0  0  0  0
 12 15  1  0  0  0  0
 12 19  1  0  0  0  0
 13 18  1  0  0  0  0
 13 33  1  0  0  0  0
 13 34  1  0  0  0  0
 14 15  1  0  0  0  0
 14 35  1  0  0  0  0
 15 36  1  0  0  0  0
 16 37  1  0  0  0  0
 17 21  1  0  0  0  0
 17 38  1  0  0  0  0
 17 39  1  0  0  0  0
 18 23  1  0  0  0  0
 18 40  1  0  0  0  0
 19 22  2  0  0  0  0
 19 24  1  0  0  0  0
 20 41  1  0  0  0  0
 20 42  1  0  0  0  0
 20 43  1  0  0  0  0
 21 22  1  0  0  0  0
 21 44  1  0  0  0  0
 21 45  1  0  0  0  0
 22 46  1  0  0  0  0
 23 27  1  0  0  0  0
 23 28  2  0  0  0  0
 24 49  1  0  0  0  0
 24 50  1  0  0  0  0
 25 29  1  0  0  0  0
 26 51  1  0  0  0  0
 26 52  1  0  0  0  0
 26 53  1  0  0  0  0
 27 30  2  0  0  0  0
 27 54  1  0  0  0  0
 28 55  1  0  0  0  0
 29 57  1  0  0  0  0
 29 58  1  0  0  0  0
 29 59  1  0  0  0  0
 30 60  1  0  0  0  0
M  END
> <PUBCHEM_COMPOUND_CID>
101516509

> <PUBCHEM_CONFORMER_RMSD>
0.8

> <PUBCHEM_CONFORMER_DIVERSEORDER>
1
5
4
6
2
3
7

> <PUBCHEM_MMFF94_PARTIAL_CHARGES>
31
1 -0.56
12 0.42
14 0.28
15 0.28
16 0.56
18 0.46
19 -0.28
2 -0.43
21 0.14
22 -0.29
23 -0.18
24 0.42
25 0.66
26 0.28
27 -0.15
28 -0.01
29 0.06
3 -0.56
30 -0.01
4 -0.68
46 0.15
47 0.4
48 0.4
5 -0.68
54 0.15
55 0.15
56 0.4
6 -0.68
60 0.15
7 -0.28
8 -0.57

> <PUBCHEM_EFFECTIVE_ROTOR_COUNT>
6.8

> <PUBCHEM_PHARMACOPHORE_FEATURES>
14
1 1 acceptor
1 3 acceptor
1 4 acceptor
1 4 donor
1 5 acceptor
1 5 donor
1 6 acceptor
1 6 donor
1 7 acceptor
1 8 acceptor
5 1 9 13 16 18 rings
5 7 23 27 28 30 rings
6 10 12 17 19 21 22 rings
6 9 10 11 12 14 15 rings

> <PUBCHEM_HEAVY_ATOM_COUNT>
30

> <PUBCHEM_ATOM_DEF_STEREO_COUNT>
8

> <PUBCHEM_ATOM_UDEF_STEREO_COUNT>
0

> <PUBCHEM_BOND_DEF_STEREO_COUNT>
0

> <PUBCHEM_BOND_UDEF_STEREO_COUNT>
0

> <PUBCHEM_ISOTOPIC_ATOM_COUNT>
0

> <PUBCHEM_COMPONENT_COUNT>
1

> <PUBCHEM_CACTVS_TAUTO_COUNT>
2

> <PUBCHEM_CONFORMER_ID>
060D04DD00000001

> <PUBCHEM_MMFF94_ENERGY>
109.033

> <PUBCHEM_FEATURE_SELFOVERLAP>
71.12

> <PUBCHEM_SHAPE_FINGERPRINT>
10165383 225 18265333894124171501
10369192 42 17696171975506519872
10863032 1 17976552924460191821
11578080 2 18265880514095195924
12107698 1 17203604917609418657
12166972 35 18264768934241612911
12293681 4 17703516506066155817
12403814 3 18114187397395708234
12422481 6 18045234742695918522
12553582 1 17967532381100615234
12633257 1 18200889408505947728
13009979 54 18266194979026079689
13140716 1 18262812885342965799
13583140 156 15841550752101778950
14068700 675 18129656530173239583
15209289 33 18342178860056205875
15420108 30 18123473774468464337
16752209 62 17458608039036522599
16945 1 18337403672503750797
17349148 13 18342741861581026535
17492 54 8934431844670153737
1813 80 18260561017258106340
20600515 1 18340780294746604620
20775530 9 18048879890204723182
22393880 68 13623532398066027546
23419403 2 17985242283039123725
23493267 7 16661194845937625269
23559900 14 18192704768344526935
24893992 56 18272091596558514393
2818148 4 16954820723125691131
3286 77 18059011816765608905
350125 39 18407757032551814703
5104073 3 18202283628331707794
57527306 92 16486403253941568657
70251023 43 17604428647278217071
7226269 152 17988364750407653312

> <PUBCHEM_SHAPE_MULTIPOLES>
570.43
9.56
2.97
2.09
11.97
0.59
-1.01
5.92
-1.06
-1.5
0.25
-1.13
-1.36
-0.88

> <PUBCHEM_SHAPE_SELFOVERLAP>
1225.517

> <PUBCHEM_SHAPE_VOLUME>
305

> <PUBCHEM_COORDINATE_TYPE>
2
5
10

$$$$
