101573172
  -OEChem-03292013293D

 69 74  0     1  0  0  0  0  0999 V2000
   -1.5204   -0.9951    1.1035 O   0  0  0  0  0  0  0  0  0  0  0  0
   -3.4104   -2.4070    0.8503 O   0  0  0  0  0  0  0  0  0  0  0  0
    1.0482    1.4704   -1.7152 O   0  0  0  0  0  0  0  0  0  0  0  0
    5.7409   -0.2585   -0.1704 O   0  0  0  0  0  0  0  0  0  0  0  0
   -3.5439   -4.6576    1.2464 O   0  0  0  0  0  0  0  0  0  0  0  0
    5.2209    0.2075   -2.3450 O   0  0  0  0  0  0  0  0  0  0  0  0
   -2.2802    2.3696   -0.7638 O   0  0  0  0  0  0  0  0  0  0  0  0
   -1.3796    4.3837   -1.4109 O   0  0  0  0  0  0  0  0  0  0  0  0
   -0.3302   -1.8048   -0.8231 C   0  0  2  0  0  0  0  0  0  0  0  0
   -1.7353   -2.3927   -0.8175 C   0  0  2  0  0  0  0  0  0  0  0  0
   -0.2039   -1.1304    0.5464 C   0  0  1  0  0  0  0  0  0  0  0  0
    0.4070    0.2641    0.3031 C   0  0  2  0  0  0  0  0  0  0  0  0
    1.0284    0.1823   -1.1026 C   0  0  1  0  0  0  0  0  0  0  0  0
    0.0005   -0.7029   -1.8315 C   0  0  0  0  0  0  0  0  0  0  0  0
   -2.4949   -1.5229    0.1837 C   0  0  2  0  0  0  0  0  0  0  0  0
    2.4448   -0.4170   -1.1987 C   0  0  0  0  0  0  0  0  0  0  0  0
    1.2871    0.7770    1.4502 C   0  0  0  0  0  0  0  0  0  0  0  0
   -1.7507   -3.7557   -0.1040 C   0  0  0  0  0  0  0  0  0  0  0  0
    3.5380    0.4801   -0.6137 C   0  0  1  0  0  0  0  0  0  0  0  0
    3.7529    0.4020    0.8939 C   0  0  1  0  0  0  0  0  0  0  0  0
    2.5552   -0.0261    1.7418 C   0  0  0  0  0  0  0  0  0  0  0  0
   -2.3764   -2.5400   -2.1994 C   0  0  0  0  0  0  0  0  0  0  0  0
   -3.3038   -0.3554   -0.3656 C   0  0  1  0  0  0  0  0  0  0  0  0
    5.0167   -0.4594    1.0562 C   0  0  0  0  0  0  0  0  0  0  0  0
   -2.9946   -3.6986    0.7271 C   0  0  0  0  0  0  0  0  0  0  0  0
    4.8983    0.1322   -1.1684 C   0  0  0  0  0  0  0  0  0  0  0  0
   -4.7185   -0.8056   -0.7372 C   0  0  0  0  0  0  0  0  0  0  0  0
   -3.3653    0.7644    0.6434 C   0  0  0  0  0  0  0  0  0  0  0  0
    5.8934    0.0391    2.2073 C   0  0  0  0  0  0  0  0  0  0  0  0
    4.7901   -1.9670    1.2062 C   0  0  0  0  0  0  0  0  0  0  0  0
   -2.8876    1.9952    0.4262 C   0  0  0  0  0  0  0  0  0  0  0  0
   -2.9143    3.0892    1.3310 C   0  0  0  0  0  0  0  0  0  0  0  0
   -2.3462    4.1427    0.7577 C   0  0  0  0  0  0  0  0  0  0  0  0
   -1.9405    3.6871   -0.5799 C   0  0  0  0  0  0  0  0  0  0  0  0
   -2.1258    5.5102    1.2726 C   0  0  0  0  0  0  0  0  0  0  0  0
    0.4275   -2.5919   -0.9294 H   0  0  0  0  0  0  0  0  0  0  0  0
    0.3775   -1.7498    1.2339 H   0  0  0  0  0  0  0  0  0  0  0  0
   -0.4092    0.9888    0.2601 H   0  0  0  0  0  0  0  0  0  0  0  0
    0.3931   -1.1157   -2.7676 H   0  0  0  0  0  0  0  0  0  0  0  0
   -0.8747   -0.1082   -2.1081 H   0  0  0  0  0  0  0  0  0  0  0  0
    2.6683   -0.5611   -2.2651 H   0  0  0  0  0  0  0  0  0  0  0  0
    2.4826   -1.4165   -0.7542 H   0  0  0  0  0  0  0  0  0  0  0  0
    0.6728    0.7720    2.3606 H   0  0  0  0  0  0  0  0  0  0  0  0
    1.5466    1.8277    1.2692 H   0  0  0  0  0  0  0  0  0  0  0  0
   -0.9006   -3.8981    0.5714 H   0  0  0  0  0  0  0  0  0  0  0  0
   -1.8017   -4.5930   -0.8061 H   0  0  0  0  0  0  0  0  0  0  0  0
    3.3622    1.5279   -0.8871 H   0  0  0  0  0  0  0  0  0  0  0  0
    4.0080    1.4268    1.2067 H   0  0  0  0  0  0  0  0  0  0  0  0
    2.8214    0.1286    2.7956 H   0  0  0  0  0  0  0  0  0  0  0  0
    2.3570   -1.0953    1.6405 H   0  0  0  0  0  0  0  0  0  0  0  0
   -2.5490   -1.5869   -2.7051 H   0  0  0  0  0  0  0  0  0  0  0  0
   -3.3270   -3.0807   -2.1534 H   0  0  0  0  0  0  0  0  0  0  0  0
   -1.7187   -3.1268   -2.8524 H   0  0  0  0  0  0  0  0  0  0  0  0
   -2.8304    0.0339   -1.2697 H   0  0  0  0  0  0  0  0  0  0  0  0
    0.1487    1.8382   -1.6916 H   0  0  0  0  0  0  0  0  0  0  0  0
   -5.3239   -1.0517    0.1435 H   0  0  0  0  0  0  0  0  0  0  0  0
   -5.2417    0.0118   -1.2492 H   0  0  0  0  0  0  0  0  0  0  0  0
   -4.7424   -1.6608   -1.4130 H   0  0  0  0  0  0  0  0  0  0  0  0
   -3.8354    0.5406    1.5998 H   0  0  0  0  0  0  0  0  0  0  0  0
    4.1919   -2.3707    0.3840 H   0  0  0  0  0  0  0  0  0  0  0  0
    4.3019   -2.2166    2.1533 H   0  0  0  0  0  0  0  0  0  0  0  0
    5.7462   -2.5029    1.1700 H   0  0  0  0  0  0  0  0  0  0  0  0
    6.1705    1.0898    2.0646 H   0  0  0  0  0  0  0  0  0  0  0  0
    5.3866   -0.0605    3.1723 H   0  0  0  0  0  0  0  0  0  0  0  0
    6.8356   -0.5195    2.2500 H   0  0  0  0  0  0  0  0  0  0  0  0
   -3.3315    3.0606    2.3256 H   0  0  0  0  0  0  0  0  0  0  0  0
   -1.0574    5.7467    1.2877 H   0  0  0  0  0  0  0  0  0  0  0  0
   -2.5100    5.6201    2.2918 H   0  0  0  0  0  0  0  0  0  0  0  0
   -2.6335    6.2449    0.6399 H   0  0  0  0  0  0  0  0  0  0  0  0
  1 11  1  0  0  0  0
  1 15  1  0  0  0  0
  2 15  1  0  0  0  0
  2 25  1  0  0  0  0
  3 13  1  0  0  0  0
  3 55  1  0  0  0  0
  4 24  1  0  0  0  0
  4 26  1  0  0  0  0
  5 25  2  0  0  0  0
  6 26  2  0  0  0  0
  7 31  1  0  0  0  0
  7 34  1  0  0  0  0
  8 34  2  0  0  0  0
  9 10  1  0  0  0  0
  9 11  1  0  0  0  0
  9 14  1  0  0  0  0
  9 36  1  0  0  0  0
 10 15  1  0  0  0  0
 10 18  1  0  0  0  0
 10 22  1  0  0  0  0
 11 12  1  0  0  0  0
 11 37  1  0  0  0  0
 12 13  1  0  0  0  0
 12 17  1  0  0  0  0
 12 38  1  0  0  0  0
 13 14  1  0  0  0  0
 13 16  1  0  0  0  0
 14 39  1  0  0  0  0
 14 40  1  0  0  0  0
 15 23  1  0  0  0  0
 16 19  1  0  0  0  0
 16 41  1  0  0  0  0
 16 42  1  0  0  0  0
 17 21  1  0  0  0  0
 17 43  1  0  0  0  0
 17 44  1  0  0  0  0
 18 25  1  0  0  0  0
 18 45  1  0  0  0  0
 18 46  1  0  0  0  0
 19 20  1  0  0  0  0
 19 26  1  0  0  0  0
 19 47  1  0  0  0  0
 20 21  1  0  0  0  0
 20 24  1  0  0  0  0
 20 48  1  0  0  0  0
 21 49  1  0  0  0  0
 21 50  1  0  0  0  0
 22 51  1  0  0  0  0
 22 52  1  0  0  0  0
 22 53  1  0  0  0  0
 23 27  1  0  0  0  0
 23 28  1  0  0  0  0
 23 54  1  0  0  0  0
 24 29  1  0  0  0  0
 24 30  1  0  0  0  0
 27 56  1  0  0  0  0
 27 57  1  0  0  0  0
 27 58  1  0  0  0  0
 28 31  2  0  0  0  0
 28 59  1  0  0  0  0
 29 63  1  0  0  0  0
 29 64  1  0  0  0  0
 29 65  1  0  0  0  0
 30 60  1  0  0  0  0
 30 61  1  0  0  0  0
 30 62  1  0  0  0  0
 31 32  1  0  0  0  0
 32 33  2  0  0  0  0
 32 66  1  0  0  0  0
 33 34  1  0  0  0  0
 33 35  1  0  0  0  0
 35 67  1  0  0  0  0
 35 68  1  0  0  0  0
 35 69  1  0  0  0  0
M  END
> <PUBCHEM_COMPOUND_CID>
101573172

> <PUBCHEM_CONFORMER_RMSD>
0.8

> <PUBCHEM_CONFORMER_DIVERSEORDER>
1
7
18
44
36
17
23
40
33
27
13
6
12
25
45
20
50
31
16
48
42
10
26
19
11
22
47
14
3
51
2
46
30
38
8
49
29
43
21
41
28
24
37
39
34
32
4
35
5
9
15

> <PUBCHEM_MMFF94_PARTIAL_CHARGES>
26
1 -0.56
11 0.28
13 0.28
15 0.56
18 0.06
19 0.06
2 -0.43
23 0.14
24 0.28
25 0.66
26 0.66
28 -0.29
3 -0.68
31 0.08
32 -0.15
33 -0.12
34 0.71
35 0.14
4 -0.43
5 -0.57
55 0.4
59 0.15
6 -0.57
66 0.15
7 -0.23
8 -0.57

> <PUBCHEM_EFFECTIVE_ROTOR_COUNT>
4

> <PUBCHEM_PHARMACOPHORE_FEATURES>
14
1 1 acceptor
1 27 hydrophobe
1 3 acceptor
1 3 donor
1 5 acceptor
1 6 acceptor
1 8 acceptor
3 24 29 30 hydrophobe
5 1 9 10 11 15 rings
5 2 10 15 18 25 rings
5 4 19 20 24 26 rings
5 7 31 32 33 34 rings
5 9 11 12 13 14 rings
7 12 13 16 17 19 20 21 rings

> <PUBCHEM_HEAVY_ATOM_COUNT>
35

> <PUBCHEM_ATOM_DEF_STEREO_COUNT>
9

> <PUBCHEM_ATOM_UDEF_STEREO_COUNT>
0

> <PUBCHEM_BOND_DEF_STEREO_COUNT>
1

> <PUBCHEM_BOND_UDEF_STEREO_COUNT>
0

> <PUBCHEM_ISOTOPIC_ATOM_COUNT>
0

> <PUBCHEM_COMPONENT_COUNT>
1

> <PUBCHEM_CACTVS_TAUTO_COUNT>
12

> <PUBCHEM_CONFORMER_ID>
060DE23400000001

> <PUBCHEM_MMFF94_ENERGY>
117.426

> <PUBCHEM_FEATURE_SELFOVERLAP>
72.047

> <PUBCHEM_SHAPE_FINGERPRINT>
10074138 170 18337942420326917808
10165383 225 17913792534649078985
11049842 53 18048625645473274174
11059845 2 18048865313696806552
11578080 2 17985290507459204028
11763715 3 18046082698115599598
12107183 9 17903068937782272442
12128747 34 18129095633346119694
12160290 23 18269255937825142853
12166972 35 17968373576236238735
12422481 6 17463409409221200336
12655364 131 17255358697589689946
12788726 201 18335711571648421688
13009979 54 18188778378030572286
131258 43 18050299355758026484
13140716 1 18267025131895853601
13583140 156 17917700332249718466
14713325 29 18339942453463345007
15021287 119 17386569030155605640
15163728 17 17981614762161361488
15230672 131 17976828584800971558
15876981 60 18261965161988974468
17818456 19 18408046216793965686
1813 80 17910677888415767951
20775438 99 16829488617533080119
21033648 29 17560806541274624578
21033650 10 18337410261806268554
21591340 35 16832917456838246744
21703447 108 17184468158062458123
22956985 138 17253982564350774571
23559900 14 18059308556778978062
25019877 29 16917074399667479607
35225 105 18051376666452338205
376196 1 17627790812219993557
460360 51 17897717661581059638
4616759 239 17824533304975695176
469060 322 18267043720936661833
508706 21 18272379632958083596
550186 7 18271814492661012332
57124632 79 17545889222281720481
581034 39 18120101584737952652
6700243 42 17625306148164717468
79837 15 18266462005569139955
9849439 229 17765715724373845265
9862522 239 18268709420179108749
9981440 41 18120659028996780177

> <PUBCHEM_SHAPE_MULTIPOLES>
673.33
10.35
5.75
1.93
16.47
4.25
-0.4
-1.15
2
-10.9
1.34
1.49
-0.05
-0.32

> <PUBCHEM_SHAPE_SELFOVERLAP>
1486.759

> <PUBCHEM_SHAPE_VOLUME>
366

> <PUBCHEM_COORDINATE_TYPE>
2
5
10

$$$$
