101651022
  -OEChem-03292013293D

 65 70  0     1  0  0  0  0  0999 V2000
    1.8966   -1.6119    1.8888 O   0  0  0  0  0  0  0  0  0  0  0  0
    4.6438    2.5488   -1.0879 O   0  0  0  0  0  0  0  0  0  0  0  0
   -0.2496   -2.4391    2.6330 O   0  0  0  0  0  0  0  0  0  0  0  0
   -1.0427    2.1089    1.0422 O   0  0  0  0  0  0  0  0  0  0  0  0
    3.5965    0.7412   -0.0176 N   0  0  0  0  0  0  0  0  0  0  0  0
    1.8327    1.7728    0.9340 N   0  0  0  0  0  0  0  0  0  0  0  0
   -1.7184   -0.0474    0.4407 N   0  0  0  0  0  0  0  0  0  0  0  0
   -1.9087   -2.6735    1.0575 N   0  0  0  0  0  0  0  0  0  0  0  0
   -3.7226   -0.3617   -0.8032 N   0  0  0  0  0  0  0  0  0  0  0  0
    1.9783   -0.8433    0.6953 C   0  0  2  0  0  0  0  0  0  0  0  0
    2.6052    0.5393    1.0034 C   0  0  1  0  0  0  0  0  0  0  0  0
    0.6166   -0.8184    0.0074 C   0  0  0  0  0  0  0  0  0  0  0  0
    2.7990    2.8276    0.5157 C   0  0  0  0  0  0  0  0  0  0  0  0
    3.0480   -1.4363   -0.2103 C   0  0  0  0  0  0  0  0  0  0  0  0
    3.9464   -0.4457   -0.6332 C   0  0  0  0  0  0  0  0  0  0  0  0
    3.8362    2.0614   -0.3151 C   0  0  0  0  0  0  0  0  0  0  0  0
   -0.5151   -0.6687    1.0174 C   0  0  2  0  0  0  0  0  0  0  0  0
    3.4521    3.4700    1.7379 C   0  0  0  0  0  0  0  0  0  0  0  0
    2.1052    3.8807   -0.3504 C   0  0  0  0  0  0  0  0  0  0  0  0
    3.1600   -2.7295   -0.6923 C   0  0  0  0  0  0  0  0  0  0  0  0
   -0.8842   -1.9876    1.6813 C   0  0  0  0  0  0  0  0  0  0  0  0
    4.9381   -0.6910   -1.5619 C   0  0  0  0  0  0  0  0  0  0  0  0
   -2.3527   -2.3201   -0.2773 C   0  0  2  0  0  0  0  0  0  0  0  0
   -2.6606   -0.8321   -0.2286 C   0  0  0  0  0  0  0  0  0  0  0  0
   -3.5461   -3.1704   -0.6928 C   0  0  0  0  0  0  0  0  0  0  0  0
    4.1791   -3.0073   -1.6085 C   0  0  0  0  0  0  0  0  0  0  0  0
    5.0554   -1.9963   -2.0431 C   0  0  0  0  0  0  0  0  0  0  0  0
   -1.8508    1.3459    0.5206 C   0  0  0  0  0  0  0  0  0  0  0  0
   -3.0743    1.8957   -0.1011 C   0  0  0  0  0  0  0  0  0  0  0  0
   -3.1616   -4.6483   -0.7559 C   0  0  0  0  0  0  0  0  0  0  0  0
   -4.7173   -2.9643    0.2673 C   0  0  0  0  0  0  0  0  0  0  0  0
   -3.9572    1.0183   -0.7372 C   0  0  0  0  0  0  0  0  0  0  0  0
   -3.3375    3.2693   -0.0562 C   0  0  0  0  0  0  0  0  0  0  0  0
   -5.1140    1.5365   -1.3305 C   0  0  0  0  0  0  0  0  0  0  0  0
   -4.4940    3.7706   -0.6516 C   0  0  0  0  0  0  0  0  0  0  0  0
   -5.3816    2.9057   -1.2881 C   0  0  0  0  0  0  0  0  0  0  0  0
    3.1293    0.5065    1.9692 H   0  0  0  0  0  0  0  0  0  0  0  0
    0.5799   -0.0487   -0.7731 H   0  0  0  0  0  0  0  0  0  0  0  0
    0.4775   -1.7652   -0.5288 H   0  0  0  0  0  0  0  0  0  0  0  0
    1.1246    1.6876    0.2075 H   0  0  0  0  0  0  0  0  0  0  0  0
   -0.1964   -0.0093    1.8348 H   0  0  0  0  0  0  0  0  0  0  0  0
    2.8118    4.6546   -0.6715 H   0  0  0  0  0  0  0  0  0  0  0  0
    2.7057    3.9449    2.3845 H   0  0  0  0  0  0  0  0  0  0  0  0
    4.0057    2.7406    2.3400 H   0  0  0  0  0  0  0  0  0  0  0  0
    1.6818    3.4365   -1.2592 H   0  0  0  0  0  0  0  0  0  0  0  0
    4.1726    4.2386    1.4347 H   0  0  0  0  0  0  0  0  0  0  0  0
    1.2925    4.3723    0.1960 H   0  0  0  0  0  0  0  0  0  0  0  0
    2.7944   -1.8690    2.1598 H   0  0  0  0  0  0  0  0  0  0  0  0
    2.4689   -3.5071   -0.3857 H   0  0  0  0  0  0  0  0  0  0  0  0
   -1.5225   -2.4767   -0.9738 H   0  0  0  0  0  0  0  0  0  0  0  0
    5.6139    0.0847   -1.9022 H   0  0  0  0  0  0  0  0  0  0  0  0
   -2.1542   -3.5769    1.4490 H   0  0  0  0  0  0  0  0  0  0  0  0
   -3.8702   -2.8686   -1.6972 H   0  0  0  0  0  0  0  0  0  0  0  0
    4.2874   -4.0143   -2.0029 H   0  0  0  0  0  0  0  0  0  0  0  0
    5.8310   -2.2359   -2.7658 H   0  0  0  0  0  0  0  0  0  0  0  0
   -4.4679   -3.2576    1.2928 H   0  0  0  0  0  0  0  0  0  0  0  0
   -5.5586   -3.5966   -0.0419 H   0  0  0  0  0  0  0  0  0  0  0  0
   -2.9528   -5.0760    0.2293 H   0  0  0  0  0  0  0  0  0  0  0  0
   -2.2804   -4.7974   -1.3889 H   0  0  0  0  0  0  0  0  0  0  0  0
   -3.9805   -5.2317   -1.1917 H   0  0  0  0  0  0  0  0  0  0  0  0
   -5.1034   -1.9446    0.2984 H   0  0  0  0  0  0  0  0  0  0  0  0
   -2.6576    3.9598    0.4349 H   0  0  0  0  0  0  0  0  0  0  0  0
   -5.8160    0.8739   -1.8312 H   0  0  0  0  0  0  0  0  0  0  0  0
   -4.7031    4.8359   -0.6195 H   0  0  0  0  0  0  0  0  0  0  0  0
   -6.2825    3.2968   -1.7519 H   0  0  0  0  0  0  0  0  0  0  0  0
  1 10  1  0  0  0  0
  1 48  1  0  0  0  0
  2 16  2  0  0  0  0
  3 21  2  0  0  0  0
  4 28  2  0  0  0  0
  5 11  1  0  0  0  0
  5 15  1  0  0  0  0
  5 16  1  0  0  0  0
  6 11  1  0  0  0  0
  6 13  1  0  0  0  0
  6 40  1  0  0  0  0
  7 17  1  0  0  0  0
  7 24  1  0  0  0  0
  7 28  1  0  0  0  0
  8 21  1  0  0  0  0
  8 23  1  0  0  0  0
  8 52  1  0  0  0  0
  9 24  2  0  0  0  0
  9 32  1  0  0  0  0
 10 11  1  0  0  0  0
 10 12  1  0  0  0  0
 10 14  1  0  0  0  0
 11 37  1  0  0  0  0
 12 17  1  0  0  0  0
 12 38  1  0  0  0  0
 12 39  1  0  0  0  0
 13 16  1  0  0  0  0
 13 18  1  0  0  0  0
 13 19  1  0  0  0  0
 14 15  1  0  0  0  0
 14 20  2  0  0  0  0
 15 22  2  0  0  0  0
 17 21  1  0  0  0  0
 17 41  1  0  0  0  0
 18 43  1  0  0  0  0
 18 44  1  0  0  0  0
 18 46  1  0  0  0  0
 19 42  1  0  0  0  0
 19 45  1  0  0  0  0
 19 47  1  0  0  0  0
 20 26  1  0  0  0  0
 20 49  1  0  0  0  0
 22 27  1  0  0  0  0
 22 51  1  0  0  0  0
 23 24  1  0  0  0  0
 23 25  1  0  0  0  0
 23 50  1  0  0  0  0
 25 30  1  0  0  0  0
 25 31  1  0  0  0  0
 25 53  1  0  0  0  0
 26 27  2  0  0  0  0
 26 54  1  0  0  0  0
 27 55  1  0  0  0  0
 28 29  1  0  0  0  0
 29 32  1  0  0  0  0
 29 33  2  0  0  0  0
 30 58  1  0  0  0  0
 30 59  1  0  0  0  0
 30 60  1  0  0  0  0
 31 56  1  0  0  0  0
 31 57  1  0  0  0  0
 31 61  1  0  0  0  0
 32 34  2  0  0  0  0
 33 35  1  0  0  0  0
 33 62  1  0  0  0  0
 34 36  1  0  0  0  0
 34 63  1  0  0  0  0
 35 36  2  0  0  0  0
 35 64  1  0  0  0  0
 36 65  1  0  0  0  0
M  END
> <PUBCHEM_COMPOUND_CID>
101651022

> <PUBCHEM_CONFORMER_RMSD>
0.8

> <PUBCHEM_CONFORMER_DIVERSEORDER>
1
2
3
4
5

> <PUBCHEM_MMFF94_PARTIAL_CHARGES>
41
1 -0.68
10 0.42
11 0.57
13 0.33
14 -0.14
15 0.12
16 0.57
17 0.36
2 -0.57
20 -0.15
21 0.57
22 -0.15
23 0.36
24 0.45
26 -0.15
27 -0.15
28 0.54
29 0.09
3 -0.57
32 0.18
33 -0.15
34 -0.15
35 -0.15
36 -0.15
4 -0.57
40 0.36
48 0.4
49 0.15
5 -0.48
51 0.15
52 0.37
54 0.15
55 0.15
6 -0.9
62 0.15
63 0.15
64 0.15
65 0.15
7 -0.42
8 -0.73
9 -0.63

> <PUBCHEM_EFFECTIVE_ROTOR_COUNT>
4.2

> <PUBCHEM_PHARMACOPHORE_FEATURES>
16
1 1 acceptor
1 1 donor
1 2 acceptor
1 3 acceptor
1 4 acceptor
1 6 cation
1 6 donor
1 8 donor
3 13 18 19 hydrophobe
3 25 30 31 hydrophobe
5 5 10 11 14 15 rings
5 5 6 11 13 16 rings
6 14 15 20 22 26 27 rings
6 29 32 33 34 35 36 rings
6 7 8 17 21 23 24 rings
6 7 9 24 28 29 32 rings

> <PUBCHEM_HEAVY_ATOM_COUNT>
36

> <PUBCHEM_ATOM_DEF_STEREO_COUNT>
4

> <PUBCHEM_ATOM_UDEF_STEREO_COUNT>
0

> <PUBCHEM_BOND_DEF_STEREO_COUNT>
0

> <PUBCHEM_BOND_UDEF_STEREO_COUNT>
0

> <PUBCHEM_ISOTOPIC_ATOM_COUNT>
0

> <PUBCHEM_COMPONENT_COUNT>
1

> <PUBCHEM_CACTVS_TAUTO_COUNT>
69

> <PUBCHEM_CONFORMER_ID>
060F124E00000001

> <PUBCHEM_MMFF94_ENERGY>
134.6114

> <PUBCHEM_FEATURE_SELFOVERLAP>
81.657

> <PUBCHEM_SHAPE_FINGERPRINT>
10483366 6 17692539909777436542
10675989 125 17831871148878685142
11513181 2 18266468787623174940
11621639 336 16975626373726881537
11720765 8 18057034715029501440
12107698 1 18337667637131215678
12633046 712 17275106167433189571
12788726 201 17972023997584373641
13690498 29 18269296675632709262
14068700 686 17981318212013166745
14725015 67 17760909032908557224
14790565 3 18268705023093362625
15064981 194 18337410270127749789
15210252 30 17823149943090919204
15219462 58 17968098672085568994
15276724 80 18339930411150714895
15324884 4 16969723654901437048
15361156 5 18190196756562458623
15392192 29 17771368386998079110
15484559 13 17906153067998027389
17909252 39 18129670828034608178
18681886 176 17905304253348049339
19319366 153 17461444620006850859
20465049 17 18191875513434017953
20775438 99 18056446583197456245
21033648 144 18272373087391468512
21033650 10 18186808014549779370
22393880 68 18408882949353384644
22440779 20 17029712781031581746
23559900 14 18272364239869277290
238 59 18197788906544389570
3380486 145 17614016500025868555
340366 18 18340206271934866918
354706 132 17749399178117582254
4058900 60 17686062696058855497
4280585 95 18268150856257968582
437795 70 17840877278332901820
46194498 28 18271256026859734742
508180 173 18195248802160219440
508706 21 18042412489858257456
513532 50 18127676163755026482
5252454 2 17822848659228660271
57527295 17 18187374207857948810
70251023 43 18270695271518804050
7399639 24 17912354639421373752
9709674 26 18341891913290913332

> <PUBCHEM_SHAPE_MULTIPOLES>
692.48
11.66
5.93
1.67
1.1
0.15
-0.4
2.48
6.53
3.11
0.48
-1.04
-0.59
2.79

> <PUBCHEM_SHAPE_SELFOVERLAP>
1544.767

> <PUBCHEM_SHAPE_VOLUME>
366.4

> <PUBCHEM_COORDINATE_TYPE>
2
5
10

$$$$
