101649993
  -OEChem-03292013293D

 53 54  0     1  0  0  0  0  0999 V2000
   -1.8412    1.0291   -1.5000 O   0  0  0  0  0  0  0  0  0  0  0  0
    1.2870    1.4952    1.6465 O   0  0  0  0  0  0  0  0  0  0  0  0
    0.2148   -2.4524    0.3118 O   0  0  0  0  0  0  0  0  0  0  0  0
    7.6459   -1.0860   -0.0228 O   0  5  0  0  0  0  0  0  0  0  0  0
    7.2975    0.4615   -1.5403 O   0  0  0  0  0  0  0  0  0  0  0  0
   -3.9739    1.9485   -0.2071 N   0  0  1  0  0  0  0  0  0  0  0  0
   -0.9109    0.2196    0.4746 N   0  0  0  0  0  0  0  0  0  0  0  0
    6.8932   -0.2650   -0.6006 N   0  3  0  0  0  0  0  0  0  0  0  0
   -5.2885    0.0625   -0.4761 C   0  0  2  0  0  0  0  0  0  0  0  0
   -4.0716   -0.3789    0.3348 C   0  0  0  0  0  0  0  0  0  0  0  0
   -3.2088    0.8802    0.4463 C   0  0  1  0  0  0  0  0  0  0  0  0
   -5.3814    1.5473   -0.1539 C   0  0  0  0  0  0  0  0  0  0  0  0
   -6.5536   -0.7075   -0.1387 C   0  0  0  0  0  0  0  0  0  0  0  0
   -1.9284    0.7333   -0.3110 C   0  0  0  0  0  0  0  0  0  0  0  0
   -6.3986   -2.1982   -0.4355 C   0  0  0  0  0  0  0  0  0  0  0  0
   -3.7521    3.2583    0.3904 C   0  0  0  0  0  0  0  0  0  0  0  0
    0.4202   -0.0391   -0.0253 C   0  0  1  0  0  0  0  0  0  0  0  0
   -7.6549   -2.9734   -0.0715 C   0  0  0  0  0  0  0  0  0  0  0  0
    1.4495    0.1806    1.1041 C   0  0  1  0  0  0  0  0  0  0  0  0
    0.4653   -1.4376   -0.6524 C   0  0  0  0  0  0  0  0  0  0  0  0
    2.8881    0.0622    0.6536 C   0  0  0  0  0  0  0  0  0  0  0  0
    3.7434   -0.8440    1.2804 C   0  0  0  0  0  0  0  0  0  0  0  0
    3.3597    0.8597   -0.3892 C   0  0  0  0  0  0  0  0  0  0  0  0
    5.0705   -0.9525    0.8647 C   0  0  0  0  0  0  0  0  0  0  0  0
    4.6867    0.7513   -0.8048 C   0  0  0  0  0  0  0  0  0  0  0  0
    5.5421   -0.1548   -0.1779 C   0  0  0  0  0  0  0  0  0  0  0  0
   -5.0645   -0.0590   -1.5458 H   0  0  0  0  0  0  0  0  0  0  0  0
   -3.5569   -1.2173   -0.1476 H   0  0  0  0  0  0  0  0  0  0  0  0
   -4.3729   -0.6990    1.3401 H   0  0  0  0  0  0  0  0  0  0  0  0
   -3.0156    1.0990    1.5044 H   0  0  0  0  0  0  0  0  0  0  0  0
   -5.9838    2.0843   -0.8937 H   0  0  0  0  0  0  0  0  0  0  0  0
   -5.8141    1.7085    0.8420 H   0  0  0  0  0  0  0  0  0  0  0  0
   -6.8094   -0.5699    0.9195 H   0  0  0  0  0  0  0  0  0  0  0  0
   -7.3915   -0.3032   -0.7200 H   0  0  0  0  0  0  0  0  0  0  0  0
   -6.1798   -2.3452   -1.4996 H   0  0  0  0  0  0  0  0  0  0  0  0
   -5.5604   -2.6207    0.1292 H   0  0  0  0  0  0  0  0  0  0  0  0
   -2.6969    3.5427    0.3159 H   0  0  0  0  0  0  0  0  0  0  0  0
   -4.0423    3.2887    1.4467 H   0  0  0  0  0  0  0  0  0  0  0  0
   -4.3257    4.0229   -0.1448 H   0  0  0  0  0  0  0  0  0  0  0  0
   -1.1225   -0.0679    1.4260 H   0  0  0  0  0  0  0  0  0  0  0  0
    0.5935    0.6918   -0.8247 H   0  0  0  0  0  0  0  0  0  0  0  0
   -7.8801   -2.8773    0.9954 H   0  0  0  0  0  0  0  0  0  0  0  0
   -8.5176   -2.6106   -0.6393 H   0  0  0  0  0  0  0  0  0  0  0  0
   -7.5231   -4.0364   -0.2964 H   0  0  0  0  0  0  0  0  0  0  0  0
    1.2545   -0.5192    1.9263 H   0  0  0  0  0  0  0  0  0  0  0  0
    1.4420   -1.6306   -1.1073 H   0  0  0  0  0  0  0  0  0  0  0  0
   -0.2935   -1.5295   -1.4376 H   0  0  0  0  0  0  0  0  0  0  0  0
    0.3611    1.5811    1.9308 H   0  0  0  0  0  0  0  0  0  0  0  0
    3.3895   -1.4722    2.0934 H   0  0  0  0  0  0  0  0  0  0  0  0
    2.7137    1.5802   -0.8828 H   0  0  0  0  0  0  0  0  0  0  0  0
    0.2587   -3.3052   -0.1532 H   0  0  0  0  0  0  0  0  0  0  0  0
    5.7080   -1.6692    1.3760 H   0  0  0  0  0  0  0  0  0  0  0  0
    5.0202    1.3905   -1.6184 H   0  0  0  0  0  0  0  0  0  0  0  0
  1 14  2  0  0  0  0
  2 19  1  0  0  0  0
  2 48  1  0  0  0  0
  3 20  1  0  0  0  0
  3 51  1  0  0  0  0
  4  8  1  0  0  0  0
  5  8  2  0  0  0  0
  6 11  1  0  0  0  0
  6 12  1  0  0  0  0
  6 16  1  0  0  0  0
  7 14  1  0  0  0  0
  7 17  1  0  0  0  0
  7 40  1  0  0  0  0
  8 26  1  0  0  0  0
  9 10  1  0  0  0  0
  9 12  1  0  0  0  0
  9 13  1  0  0  0  0
  9 27  1  0  0  0  0
 10 11  1  0  0  0  0
 10 28  1  0  0  0  0
 10 29  1  0  0  0  0
 11 14  1  0  0  0  0
 11 30  1  0  0  0  0
 12 31  1  0  0  0  0
 12 32  1  0  0  0  0
 13 15  1  0  0  0  0
 13 33  1  0  0  0  0
 13 34  1  0  0  0  0
 15 18  1  0  0  0  0
 15 35  1  0  0  0  0
 15 36  1  0  0  0  0
 16 37  1  0  0  0  0
 16 38  1  0  0  0  0
 16 39  1  0  0  0  0
 17 19  1  0  0  0  0
 17 20  1  0  0  0  0
 17 41  1  0  0  0  0
 18 42  1  0  0  0  0
 18 43  1  0  0  0  0
 18 44  1  0  0  0  0
 19 21  1  0  0  0  0
 19 45  1  0  0  0  0
 20 46  1  0  0  0  0
 20 47  1  0  0  0  0
 21 22  2  0  0  0  0
 21 23  1  0  0  0  0
 22 24  1  0  0  0  0
 22 49  1  0  0  0  0
 23 25  2  0  0  0  0
 23 50  1  0  0  0  0
 24 26  2  0  0  0  0
 24 52  1  0  0  0  0
 25 26  1  0  0  0  0
 25 53  1  0  0  0  0
M  CHG  2   4  -1   8   1
M  END
> <PUBCHEM_COMPOUND_CID>
101649993

> <PUBCHEM_CONFORMER_RMSD>
1

> <PUBCHEM_CONFORMER_DIVERSEORDER>
1
55
40
59
36
14
27
73
28
30
26
42
63
45
72
22
41
77
8
38
46
10
32
69
15
2
20
61
49
35
13
23
17
7
67
66
9
76
53
62
60
25
51
18
50
6
48
70
68
21
12
31
56
43
24
57
65
33
16
39
54
44
37
74
11
75
19
29
47
52
64
58
71
34
3
4
5

> <PUBCHEM_MMFF94_PARTIAL_CHARGES>
28
1 -0.57
11 0.33
12 0.27
14 0.57
16 0.27
17 0.3
19 0.42
2 -0.68
20 0.28
21 -0.14
22 -0.15
23 -0.15
24 -0.15
25 -0.15
26 0.13
3 -0.68
4 -0.52
40 0.37
48 0.4
49 0.15
5 -0.52
50 0.15
51 0.4
52 0.15
53 0.15
6 -0.81
7 -0.73
8 0.91

> <PUBCHEM_EFFECTIVE_ROTOR_COUNT>
10

> <PUBCHEM_PHARMACOPHORE_FEATURES>
13
1 1 acceptor
1 18 hydrophobe
1 2 acceptor
1 2 donor
1 3 acceptor
1 3 donor
1 4 acceptor
1 4 anion
1 5 acceptor
1 6 cation
1 7 donor
5 6 9 10 11 12 rings
6 21 22 23 24 25 26 rings

> <PUBCHEM_HEAVY_ATOM_COUNT>
26

> <PUBCHEM_ATOM_DEF_STEREO_COUNT>
4

> <PUBCHEM_ATOM_UDEF_STEREO_COUNT>
0

> <PUBCHEM_BOND_DEF_STEREO_COUNT>
0

> <PUBCHEM_BOND_UDEF_STEREO_COUNT>
0

> <PUBCHEM_ISOTOPIC_ATOM_COUNT>
0

> <PUBCHEM_COMPONENT_COUNT>
1

> <PUBCHEM_CACTVS_TAUTO_COUNT>
2

> <PUBCHEM_CONFORMER_ID>
060F0E4900000001

> <PUBCHEM_MMFF94_ENERGY>
58.0559

> <PUBCHEM_FEATURE_SELFOVERLAP>
66.059

> <PUBCHEM_SHAPE_FINGERPRINT>
10299344 5 18333450928222916851
10595046 47 18260829284661963064
11315181 36 18259706692634474669
11524674 6 16558750148549890999
11646440 116 16486974003133001666
11963148 33 18412535531509108407
12107183 9 17324069348204696905
12166972 35 18410576209971709361
12236239 1 18334577902647049992
12516196 113 11819279944692030318
13631057 29 18411979174904362403
13668630 136 18130793343549393734
13673619 4 17988641939291650681
13685833 64 16128657448960459628
13782708 43 18202843262269981391
14251764 18 18040154011660460074
14429380 56 16298386911551733966
1454969 45 18113898277725766791
14729087 3 10809336750666233415
14856354 85 18412830200903777567
15142383 8 12679472975462890539
15183329 4 17894912906445164640
1577012 14 18040714731887824329
17844677 252 18272089400448767016
18608769 82 18201717392238200727
18681886 176 18336542802122938120
18927931 339 18273206513875161317
21150785 3 17967533492911601910
21267235 1 18339924913697746075
21315759 40 18186239507219328612
21315763 28 18409729552470310500
21781051 124 17988091092071221230
21796203 349 17975444561769917635
2297311 6 18343865520211240169
23081809 10 17894910685688759304
23522609 53 18042989595993069476
23559900 14 15936697050845978197
246663 6 17846221080752922487
300161 21 11097850787706143265
4325135 7 18408040706667591863
4339292 15 17988630931306568343
445580 167 18114463461025064196
497634 4 18186515484844012405
58260988 114 15051152607256492349
59755656 215 17918274220888568342
636775 8 18343309192416953038
9996256 80 18410009914248774791

> <PUBCHEM_SHAPE_MULTIPOLES>
490.78
21.13
2.44
1.09
5.62
0.04
0.03
-9.12
-4.31
-5.72
0.14
1.17
0.15
-0.74

> <PUBCHEM_SHAPE_SELFOVERLAP>
1010.158

> <PUBCHEM_SHAPE_VOLUME>
283.8

> <PUBCHEM_COORDINATE_TYPE>
2
5
10

$$$$
