101687175
  -OEChem-03292013293D

 41 42  0     1  0  0  0  0  0999 V2000
    1.9941    0.8222   -0.3304 O   0  0  0  0  0  0  0  0  0  0  0  0
    5.6278    0.4345   -0.0872 O   0  0  0  0  0  0  0  0  0  0  0  0
    4.6922   -2.2695   -0.4981 O   0  0  0  0  0  0  0  0  0  0  0  0
    0.2194   -0.6488    0.0314 O   0  0  0  0  0  0  0  0  0  0  0  0
    2.0662   -2.6580    0.7801 O   0  0  0  0  0  0  0  0  0  0  0  0
    2.6941    3.4792   -0.2573 O   0  0  0  0  0  0  0  0  0  0  0  0
   -0.5179    0.9521    1.5121 O   0  0  0  0  0  0  0  0  0  0  0  0
   -2.9355    1.8770    0.6479 O   0  0  0  0  0  0  0  0  0  0  0  0
   -5.4501    1.0684   -0.1676 O   0  0  0  0  0  0  0  0  0  0  0  0
    4.3006    0.0915   -0.4771 C   0  0  1  0  0  0  0  0  0  0  0  0
    3.9223   -1.2526    0.1451 C   0  0  1  0  0  0  0  0  0  0  0  0
    3.3390    1.1913   -0.0205 C   0  0  1  0  0  0  0  0  0  0  0  0
    2.4337   -1.5483   -0.0391 C   0  0  2  0  0  0  0  0  0  0  0  0
    1.5747   -0.3499    0.3644 C   0  0  1  0  0  0  0  0  0  0  0  0
    3.6247    2.5170   -0.7189 C   0  0  0  0  0  0  0  0  0  0  0  0
   -0.7252    0.0802    0.6826 C   0  0  0  0  0  0  0  0  0  0  0  0
   -2.0864   -0.3248    0.2497 C   0  0  0  0  0  0  0  0  0  0  0  0
   -3.1405    0.5886    0.2489 C   0  0  0  0  0  0  0  0  0  0  0  0
   -2.3033   -1.6405   -0.1602 C   0  0  0  0  0  0  0  0  0  0  0  0
   -4.4115    0.1867   -0.1616 C   0  0  0  0  0  0  0  0  0  0  0  0
   -3.5743   -2.0424   -0.5708 C   0  0  0  0  0  0  0  0  0  0  0  0
   -4.6284   -1.1287   -0.5715 C   0  0  0  0  0  0  0  0  0  0  0  0
   -6.7160    0.5749   -0.6018 C   0  0  0  0  0  0  0  0  0  0  0  0
    4.2927    0.0067   -1.5707 H   0  0  0  0  0  0  0  0  0  0  0  0
    4.1999   -1.2844    1.2052 H   0  0  0  0  0  0  0  0  0  0  0  0
    3.4141    1.3561    1.0631 H   0  0  0  0  0  0  0  0  0  0  0  0
    2.2249   -1.8379   -1.0758 H   0  0  0  0  0  0  0  0  0  0  0  0
    1.6534   -0.1886    1.4488 H   0  0  0  0  0  0  0  0  0  0  0  0
    3.4967    2.4226   -1.8024 H   0  0  0  0  0  0  0  0  0  0  0  0
    4.6360    2.8748   -0.5037 H   0  0  0  0  0  0  0  0  0  0  0  0
    5.6424    0.5259    0.8808 H   0  0  0  0  0  0  0  0  0  0  0  0
    4.4547   -2.2780   -1.4410 H   0  0  0  0  0  0  0  0  0  0  0  0
    2.2440   -2.4213    1.7063 H   0  0  0  0  0  0  0  0  0  0  0  0
    2.8914    4.3130   -0.7171 H   0  0  0  0  0  0  0  0  0  0  0  0
   -1.5062   -2.3792   -0.1579 H   0  0  0  0  0  0  0  0  0  0  0  0
   -3.7431   -3.0678   -0.8868 H   0  0  0  0  0  0  0  0  0  0  0  0
   -5.5874   -1.5122   -0.9024 H   0  0  0  0  0  0  0  0  0  0  0  0
   -1.9977    2.0324    0.8415 H   0  0  0  0  0  0  0  0  0  0  0  0
   -7.0932   -0.2097    0.0630 H   0  0  0  0  0  0  0  0  0  0  0  0
   -6.6875    0.2565   -1.6495 H   0  0  0  0  0  0  0  0  0  0  0  0
   -7.4239    1.4083   -0.5426 H   0  0  0  0  0  0  0  0  0  0  0  0
  1 12  1  0  0  0  0
  1 14  1  0  0  0  0
  2 10  1  0  0  0  0
  2 31  1  0  0  0  0
  3 11  1  0  0  0  0
  3 32  1  0  0  0  0
  4 14  1  0  0  0  0
  4 16  1  0  0  0  0
  5 13  1  0  0  0  0
  5 33  1  0  0  0  0
  6 15  1  0  0  0  0
  6 34  1  0  0  0  0
  7 16  2  0  0  0  0
  8 18  1  0  0  0  0
  8 38  1  0  0  0  0
  9 20  1  0  0  0  0
  9 23  1  0  0  0  0
 10 11  1  0  0  0  0
 10 12  1  0  0  0  0
 10 24  1  0  0  0  0
 11 13  1  0  0  0  0
 11 25  1  0  0  0  0
 12 15  1  0  0  0  0
 12 26  1  0  0  0  0
 13 14  1  0  0  0  0
 13 27  1  0  0  0  0
 14 28  1  0  0  0  0
 15 29  1  0  0  0  0
 15 30  1  0  0  0  0
 16 17  1  0  0  0  0
 17 18  2  0  0  0  0
 17 19  1  0  0  0  0
 18 20  1  0  0  0  0
 19 21  2  0  0  0  0
 19 35  1  0  0  0  0
 20 22  2  0  0  0  0
 21 22  1  0  0  0  0
 21 36  1  0  0  0  0
 22 37  1  0  0  0  0
 23 39  1  0  0  0  0
 23 40  1  0  0  0  0
 23 41  1  0  0  0  0
M  END
> <PUBCHEM_COMPOUND_CID>
101687175

> <PUBCHEM_CONFORMER_RMSD>
0.8

> <PUBCHEM_CONFORMER_DIVERSEORDER>
1
168
119
53
139
132
176
74
187
47
181
133
165
19
152
97
24
134
190
146
122
41
127
84
55
135
100
125
67
38
188
8
31
162
118
174
104
128
178
160
44
106
194
98
46
10
36
39
140
50
14
126
34
116
144
137
153
147
173
177
30
113
81
157
114
72
65
78
92
4
103
57
155
163
5
143
189
15
101
171
83
124
158
199
193
85
43
64
73
99
170
48
195
175
105
82
18
115
13
121
180
77
161
89
59
20
32
3
79
154
58
159
66
112
151
9
167
29
164
191
108
16
150
179
95
138
197
91
33
109
12
201
156
141
35
45
183
107
21
182
26
96
196
169
27
63
149
54
22
25
2
40
198
68
93
42
69
110
120
17
11
148
202
145
80
129
86
184
76
130
23
28
185
200
71
90
60
87
136
61
37
102
94
6
142
131
49
70
123
172
186
52
7
88
62
192
75
166
111
117
56
51

> <PUBCHEM_MMFF94_PARTIAL_CHARGES>
31
1 -0.56
10 0.28
11 0.28
12 0.28
13 0.28
14 0.56
15 0.28
16 0.63
17 0.09
18 0.08
19 -0.15
2 -0.68
20 0.08
21 -0.15
22 -0.15
23 0.28
3 -0.68
31 0.4
32 0.4
33 0.4
34 0.4
35 0.15
36 0.15
37 0.15
38 0.45
4 -0.43
5 -0.68
6 -0.68
7 -0.57
8 -0.53
9 -0.36

> <PUBCHEM_EFFECTIVE_ROTOR_COUNT>
6.2

> <PUBCHEM_PHARMACOPHORE_FEATURES>
14
1 1 acceptor
1 2 acceptor
1 2 donor
1 3 acceptor
1 3 donor
1 5 acceptor
1 5 donor
1 6 acceptor
1 6 donor
1 7 acceptor
1 8 donor
1 9 acceptor
6 1 10 11 12 13 14 rings
6 17 18 19 20 21 22 rings

> <PUBCHEM_HEAVY_ATOM_COUNT>
23

> <PUBCHEM_ATOM_DEF_STEREO_COUNT>
5

> <PUBCHEM_ATOM_UDEF_STEREO_COUNT>
0

> <PUBCHEM_BOND_DEF_STEREO_COUNT>
0

> <PUBCHEM_BOND_UDEF_STEREO_COUNT>
0

> <PUBCHEM_ISOTOPIC_ATOM_COUNT>
0

> <PUBCHEM_COMPONENT_COUNT>
1

> <PUBCHEM_CACTVS_TAUTO_COUNT>
3

> <PUBCHEM_CONFORMER_ID>
060F9F8700000001

> <PUBCHEM_MMFF94_ENERGY>
75.3557

> <PUBCHEM_FEATURE_SELFOVERLAP>
71.066

> <PUBCHEM_SHAPE_FINGERPRINT>
10595046 47 18340486763606633869
10616163 171 18343302599906228935
12107183 9 17763183535919089547
12236239 1 18343300353353022087
12788726 201 17632021858251061089
13167823 11 18412262843781420079
13583140 156 18041573446701476307
13760787 19 18412822499711255135
14528608 73 18337391646605657052
14790565 3 18270407071351113249
15183329 4 18411980248240069469
15196674 1 18411981390585403543
15420108 30 17118053824596511056
17492 89 18412548742632955150
17834072 33 18411417327992749079
17844677 252 18337117847189197675
17959699 21 18335138717495446293
18186145 218 17313099774081361427
18335252 114 18335973174402902149
18681886 176 18273210933164705370
200 152 18272651255158712011
20511986 3 18271228495707377838
20612939 158 18408889529074541940
20645477 56 17967530177798021791
20645477 70 18412546479211226174
21033648 29 16660631973536052861
21267235 1 18341339907035994667
21709351 56 18410289242089698630
221357 26 18334856074087346836
22393880 68 18269560592629405156
23402539 116 18342733023160446775
23402655 69 18410575089074337662
23522609 53 17843990219917792033
23557571 272 17203052880746280048
23559900 14 18343576356514783827
29717793 49 18060421283113684390
300161 21 18412538816794059827
3004659 81 18341610391112143690
3545911 37 18408886239440654189
4073 2 17968382350301088538
4214541 1 18411982451246893487
4280585 95 17553782659492366086
474 4 18041282170324630380
5104073 3 18408886269532020755
543358 83 18409450258788444634
58051976 100 18409166602105621119
59755656 520 16805321106882249883
633830 44 17822569507607729811
67856867 119 18339635754555200552
77779 3 18410575114997167743
9709674 26 18410300232663783906
9971528 1 18411136910179080978
9981440 41 17833829757171399584

> <PUBCHEM_SHAPE_MULTIPOLES>
420.51
13.41
2.68
0.83
7.81
0.7
-0.1
1.54
3.18
-2.63
0.23
0.11
0.06
-0.77

> <PUBCHEM_SHAPE_SELFOVERLAP>
885.009

> <PUBCHEM_SHAPE_VOLUME>
234.6

> <PUBCHEM_COORDINATE_TYPE>
2
5
10

$$$$
