101643697
  -OEChem-03292013293D

 36 38  0     0  0  0  0  0  0999 V2000
   -2.8455   -1.1113   -0.0849 O   0  5  0  0  0  0  0  0  0  0  0  0
   -1.6792   -3.7158    0.9991 O   0  5  0  0  0  0  0  0  0  0  0  0
   -1.5955   -3.6664   -1.1940 O   0  0  0  0  0  0  0  0  0  0  0  0
    2.9399    0.4945    0.1721 N   0  0  0  0  0  0  0  0  0  0  0  0
    0.3209    1.4234    0.0928 N   0  0  0  0  0  0  0  0  0  0  0  0
    5.1160    2.1075   -0.8430 N   0  3  0  0  0  0  0  0  0  0  0  0
   -1.2286   -3.2542   -0.0720 N   0  3  0  0  0  0  0  0  0  0  0  0
    0.5395    0.0943    0.0713 C   0  0  0  0  0  0  0  0  0  0  0  0
   -0.5163   -0.8307    0.0100 C   0  0  0  0  0  0  0  0  0  0  0  0
    1.8410   -0.3991    0.1099 C   0  0  0  0  0  0  0  0  0  0  0  0
   -2.0539    1.0499   -0.0062 C   0  0  0  0  0  0  0  0  0  0  0  0
   -1.8211   -0.3290   -0.0285 C   0  0  0  0  0  0  0  0  0  0  0  0
   -0.2531   -2.2115   -0.0112 C   0  0  0  0  0  0  0  0  0  0  0  0
    4.2935    0.0475    0.2139 C   0  0  0  0  0  0  0  0  0  0  0  0
   -0.9380    1.9016    0.0555 C   0  0  0  0  0  0  0  0  0  0  0  0
    2.1060   -1.7707    0.0890 C   0  0  0  0  0  0  0  0  0  0  0  0
    1.0571   -2.6791    0.0283 C   0  0  0  0  0  0  0  0  0  0  0  0
    5.2425    1.2257    0.3440 C   0  0  0  0  0  0  0  0  0  0  0  0
   -3.3546    1.5818   -0.0438 C   0  0  0  0  0  0  0  0  0  0  0  0
   -1.1632    3.2753    0.0776 C   0  0  0  0  0  0  0  0  0  0  0  0
   -3.5528    2.9591   -0.0203 C   0  0  0  0  0  0  0  0  0  0  0  0
   -2.4546    3.8072    0.0405 C   0  0  0  0  0  0  0  0  0  0  0  0
    4.5455   -0.5171   -0.6923 H   0  0  0  0  0  0  0  0  0  0  0  0
    4.4578   -0.6037    1.0809 H   0  0  0  0  0  0  0  0  0  0  0  0
    2.7193    1.4810    0.2537 H   0  0  0  0  0  0  0  0  0  0  0  0
    3.1123   -2.1767    0.1161 H   0  0  0  0  0  0  0  0  0  0  0  0
    1.2820   -3.7431    0.0124 H   0  0  0  0  0  0  0  0  0  0  0  0
    5.0188    1.8432    1.2195 H   0  0  0  0  0  0  0  0  0  0  0  0
    6.2850    0.8971    0.3842 H   0  0  0  0  0  0  0  0  0  0  0  0
   -4.2462    0.9608   -0.0918 H   0  0  0  0  0  0  0  0  0  0  0  0
   -0.3189    3.9608    0.1251 H   0  0  0  0  0  0  0  0  0  0  0  0
    5.7609    2.9064   -0.7798 H   0  0  0  0  0  0  0  0  0  0  0  0
    4.1658    2.4893   -0.9377 H   0  0  0  0  0  0  0  0  0  0  0  0
    5.3368    1.6046   -1.7129 H   0  0  0  0  0  0  0  0  0  0  0  0
   -4.5582    3.3679   -0.0493 H   0  0  0  0  0  0  0  0  0  0  0  0
   -2.5980    4.8836    0.0592 H   0  0  0  0  0  0  0  0  0  0  0  0
  1 12  1  0  0  0  0
  2  7  1  0  0  0  0
  3  7  2  0  0  0  0
  4 10  1  0  0  0  0
  4 14  1  0  0  0  0
  4 25  1  0  0  0  0
  5  8  2  0  0  0  0
  5 15  1  0  0  0  0
  6 18  1  0  0  0  0
  6 32  1  0  0  0  0
  6 33  1  0  0  0  0
  6 34  1  0  0  0  0
  7 13  1  0  0  0  0
  8  9  1  0  0  0  0
  8 10  1  0  0  0  0
  9 12  2  0  0  0  0
  9 13  1  0  0  0  0
 10 16  2  0  0  0  0
 11 12  1  0  0  0  0
 11 15  1  0  0  0  0
 11 19  2  0  0  0  0
 13 17  2  0  0  0  0
 14 18  1  0  0  0  0
 14 23  1  0  0  0  0
 14 24  1  0  0  0  0
 15 20  2  0  0  0  0
 16 17  1  0  0  0  0
 16 26  1  0  0  0  0
 17 27  1  0  0  0  0
 18 28  1  0  0  0  0
 18 29  1  0  0  0  0
 19 21  1  0  0  0  0
 19 30  1  0  0  0  0
 20 22  1  0  0  0  0
 20 31  1  0  0  0  0
 21 22  2  0  0  0  0
 21 35  1  0  0  0  0
 22 36  1  0  0  0  0
M  CHG  4   1  -1   2  -1   6   1   7   1
M  END
> <PUBCHEM_COMPOUND_CID>
101643697

> <PUBCHEM_CONFORMER_RMSD>
0.6

> <PUBCHEM_CONFORMER_DIVERSEORDER>
1
8
3
6
2
5
4
7

> <PUBCHEM_MMFF94_PARTIAL_CHARGES>
30
1 -0.83
10 0.1
12 -0.17
13 0.13
14 0.37
15 0.31
16 -0.15
17 -0.15
18 0.5
19 -0.15
2 -0.52
20 -0.15
21 -0.15
22 -0.15
25 0.4
26 0.15
27 0.15
3 -0.52
30 0.15
31 0.15
32 0.45
33 0.45
34 0.45
35 0.15
36 0.15
4 -0.87
5 -0.62
6 -0.85
7 0.91
8 0.31

> <PUBCHEM_EFFECTIVE_ROTOR_COUNT>
4

> <PUBCHEM_PHARMACOPHORE_FEATURES>
11
1 2 acceptor
1 2 anion
1 3 acceptor
1 4 cation
1 4 donor
1 5 acceptor
1 6 cation
1 6 donor
6 11 15 19 20 21 22 rings
6 5 8 9 11 12 15 rings
6 8 9 10 13 16 17 rings

> <PUBCHEM_HEAVY_ATOM_COUNT>
22

> <PUBCHEM_ATOM_DEF_STEREO_COUNT>
0

> <PUBCHEM_ATOM_UDEF_STEREO_COUNT>
0

> <PUBCHEM_BOND_DEF_STEREO_COUNT>
0

> <PUBCHEM_BOND_UDEF_STEREO_COUNT>
0

> <PUBCHEM_ISOTOPIC_ATOM_COUNT>
0

> <PUBCHEM_COMPONENT_COUNT>
1

> <PUBCHEM_CACTVS_TAUTO_COUNT>
4

> <PUBCHEM_CONFORMER_ID>
060EF5B100000001

> <PUBCHEM_MMFF94_ENERGY>
102.6981

> <PUBCHEM_FEATURE_SELFOVERLAP>
55.966

> <PUBCHEM_SHAPE_FINGERPRINT>
10319926 262 18198318802888496296
10411042 1 17834393801961997266
10967382 1 17186437946017055211
1100329 8 18121220041750826931
11135609 187 18265035965333783757
12107183 9 18191010211564574994
12173636 292 18339074896040018364
12390115 104 18271542904662671608
12553582 1 18194954369351422811
12788726 201 18263911297380512914
13140716 1 18049165763174541635
13583140 156 16734377193458339672
138480 1 17114099963265126122
14508225 48 17838603805971803023
14790565 3 18340775818959035841
15042514 8 18336831999466593322
15442244 35 16467268216680351977
16087824 20 18339921615495601111
16945 1 18411133675341005723
19427546 62 18120938304744629681
19591789 44 18267866068927445241
20101258 96 17976551820642755032
20510252 161 18342740693381421137
21041028 32 17902803186174481723
21049683 271 16889770462936687270
2255824 54 17763742096542456306
23227448 37 18411983602583504860
2334 1 17545881989466596859
23366157 5 17612316251237237875
23557571 272 18272100443421192412
23558518 356 18336819784806911354
23559900 14 17547000836752212073
2748010 2 18266751190165478271
3071541 12 17619630181236961241
3091708 16 9270652677537252578
350125 39 18121783829154195232
394222 165 18044653105503147650
474 4 17978506438473448888
5104073 3 17975421209336799889
5486654 2 18411700993450474357
5939293 188 17113814090458500523
633830 44 17912642410630580821
7364860 26 17476073532156915303
7808743 9 18410011066096887552
84936 182 17912071751432435336
9709674 26 17546448878358410435
9981440 41 18264485087904982817

> <PUBCHEM_SHAPE_MULTIPOLES>
415.22
7.23
5.07
0.71
6.56
3.11
0.04
-8.81
0.14
-1.39
0.28
0.09
0.21
-0.33

> <PUBCHEM_SHAPE_SELFOVERLAP>
922.922

> <PUBCHEM_SHAPE_VOLUME>
221.8

> <PUBCHEM_COORDINATE_TYPE>
2
5
10

$$$$
