101643013
  -OEChem-03292013293D

 64 67  0     1  0  0  0  0  0999 V2000
    1.9261    1.1957    0.8886 O   0  0  0  0  0  0  0  0  0  0  0  0
    2.1589   -2.5841   -0.2593 O   0  0  0  0  0  0  0  0  0  0  0  0
    5.4278    0.5888    0.0173 O   0  0  0  0  0  0  0  0  0  0  0  0
   -2.9460    3.1409    0.8776 O   0  0  0  0  0  0  0  0  0  0  0  0
   -2.7988    0.1123   -0.8660 O   0  0  0  0  0  0  0  0  0  0  0  0
   -3.1959    0.4701    1.3860 O   0  0  0  0  0  0  0  0  0  0  0  0
   -3.7804   -3.3962   -0.1577 O   0  0  0  0  0  0  0  0  0  0  0  0
    1.9640   -0.2719   -0.9657 C   0  0  1  0  0  0  0  0  0  0  0  0
    1.0088    0.3751    0.0880 C   0  0  2  0  0  0  0  0  0  0  0  0
    2.8344    0.9496   -1.2797 C   0  0  2  0  0  0  0  0  0  0  0  0
    3.1655    1.3586    0.1556 C   0  0  2  0  0  0  0  0  0  0  0  0
    2.9152   -1.4006   -0.4894 C   0  0  1  0  0  0  0  0  0  0  0  0
    0.0450    1.3895   -0.6662 C   0  0  2  0  0  0  0  0  0  0  0  0
    3.7502   -1.0496    0.7620 C   0  0  2  0  0  0  0  0  0  0  0  0
    4.2219    0.4213    0.7576 C   0  0  1  0  0  0  0  0  0  0  0  0
    2.0653    2.0495   -1.9566 C   0  0  0  0  0  0  0  0  0  0  0  0
    0.2264   -0.5780    1.0157 C   0  0  0  0  0  0  0  0  0  0  0  0
    0.7728    2.2513   -1.6766 C   0  0  0  0  0  0  0  0  0  0  0  0
   -0.7921    2.2843    0.2812 C   0  0  0  0  0  0  0  0  0  0  0  0
    4.9045   -2.0389    0.9625 C   0  0  0  0  0  0  0  0  0  0  0  0
   -0.7134   -1.4832    0.6555 C   0  0  0  0  0  0  0  0  0  0  0  0
    0.4624   -0.4147    2.5084 C   0  0  0  0  0  0  0  0  0  0  0  0
   -2.3013    2.2376   -0.0104 C   0  0  1  0  0  0  0  0  0  0  0  0
   -1.2882   -1.8238   -0.7012 C   0  0  2  0  0  0  0  0  0  0  0  0
   -2.7600   -1.3411   -0.8677 C   0  0  1  0  0  0  0  0  0  0  0  0
   -2.8472    0.8514    0.2777 C   0  0  0  0  0  0  0  0  0  0  0  0
   -1.1764   -3.3329   -0.9463 C   0  0  0  0  0  0  0  0  0  0  0  0
   -3.8050   -1.9879    0.0399 C   0  0  1  0  0  0  0  0  0  0  0  0
   -4.2449    3.4874    0.4166 C   0  0  0  0  0  0  0  0  0  0  0  0
   -5.1998   -1.4606   -0.2472 C   0  0  0  0  0  0  0  0  0  0  0  0
    1.4062   -0.6271   -1.8403 H   0  0  0  0  0  0  0  0  0  0  0  0
    3.7101    0.7046   -1.8897 H   0  0  0  0  0  0  0  0  0  0  0  0
    3.4943    2.4017    0.2298 H   0  0  0  0  0  0  0  0  0  0  0  0
    3.6068   -1.6289   -1.3116 H   0  0  0  0  0  0  0  0  0  0  0  0
   -0.6237    0.8014   -1.2952 H   0  0  0  0  0  0  0  0  0  0  0  0
    3.1043   -1.1870    1.6323 H   0  0  0  0  0  0  0  0  0  0  0  0
    4.4281    0.7128    1.7947 H   0  0  0  0  0  0  0  0  0  0  0  0
    2.5770    2.6863   -2.6706 H   0  0  0  0  0  0  0  0  0  0  0  0
    0.2257    3.0362   -2.1899 H   0  0  0  0  0  0  0  0  0  0  0  0
   -0.6371    2.0092    1.3293 H   0  0  0  0  0  0  0  0  0  0  0  0
   -0.4602    3.3304    0.2279 H   0  0  0  0  0  0  0  0  0  0  0  0
    5.5890   -2.0371    0.1079 H   0  0  0  0  0  0  0  0  0  0  0  0
    4.5251   -3.0589    1.0844 H   0  0  0  0  0  0  0  0  0  0  0  0
    5.4779   -1.7862    1.8605 H   0  0  0  0  0  0  0  0  0  0  0  0
    1.8296   -2.8805   -1.1243 H   0  0  0  0  0  0  0  0  0  0  0  0
   -1.1808   -2.0514    1.4611 H   0  0  0  0  0  0  0  0  0  0  0  0
    5.6884    1.5231    0.0863 H   0  0  0  0  0  0  0  0  0  0  0  0
    0.2393    0.6078    2.8271 H   0  0  0  0  0  0  0  0  0  0  0  0
    1.4939   -0.6391    2.7818 H   0  0  0  0  0  0  0  0  0  0  0  0
   -0.1719   -1.0750    3.1105 H   0  0  0  0  0  0  0  0  0  0  0  0
   -2.4973    2.5262   -1.0505 H   0  0  0  0  0  0  0  0  0  0  0  0
   -0.6990   -1.3328   -1.4805 H   0  0  0  0  0  0  0  0  0  0  0  0
   -3.0359   -1.6075   -1.8981 H   0  0  0  0  0  0  0  0  0  0  0  0
   -1.4741   -3.9321   -0.0798 H   0  0  0  0  0  0  0  0  0  0  0  0
   -0.1394   -3.6076   -1.1587 H   0  0  0  0  0  0  0  0  0  0  0  0
   -1.7612   -3.6430   -1.8189 H   0  0  0  0  0  0  0  0  0  0  0  0
   -3.5746   -1.8221    1.0954 H   0  0  0  0  0  0  0  0  0  0  0  0
   -4.6921    4.1715    1.1432 H   0  0  0  0  0  0  0  0  0  0  0  0
   -4.8878    2.6060    0.3350 H   0  0  0  0  0  0  0  0  0  0  0  0
   -4.1862    4.0021   -0.5475 H   0  0  0  0  0  0  0  0  0  0  0  0
   -5.4881   -1.6677   -1.2840 H   0  0  0  0  0  0  0  0  0  0  0  0
   -5.2963   -0.3868   -0.0697 H   0  0  0  0  0  0  0  0  0  0  0  0
   -5.9356   -1.9729    0.3829 H   0  0  0  0  0  0  0  0  0  0  0  0
   -4.4417   -3.7899    0.4364 H   0  0  0  0  0  0  0  0  0  0  0  0
  1  9  1  0  0  0  0
  1 11  1  0  0  0  0
  2 12  1  0  0  0  0
  2 45  1  0  0  0  0
  3 15  1  0  0  0  0
  3 47  1  0  0  0  0
  4 23  1  0  0  0  0
  4 29  1  0  0  0  0
  5 25  1  0  0  0  0
  5 26  1  0  0  0  0
  6 26  2  0  0  0  0
  7 28  1  0  0  0  0
  7 64  1  0  0  0  0
  8  9  1  0  0  0  0
  8 10  1  0  0  0  0
  8 12  1  0  0  0  0
  8 31  1  0  0  0  0
  9 13  1  0  0  0  0
  9 17  1  0  0  0  0
 10 11  1  0  0  0  0
 10 16  1  0  0  0  0
 10 32  1  0  0  0  0
 11 15  1  0  0  0  0
 11 33  1  0  0  0  0
 12 14  1  0  0  0  0
 12 34  1  0  0  0  0
 13 18  1  0  0  0  0
 13 19  1  0  0  0  0
 13 35  1  0  0  0  0
 14 15  1  0  0  0  0
 14 20  1  0  0  0  0
 14 36  1  0  0  0  0
 15 37  1  0  0  0  0
 16 18  2  0  0  0  0
 16 38  1  0  0  0  0
 17 21  2  0  0  0  0
 17 22  1  0  0  0  0
 18 39  1  0  0  0  0
 19 23  1  0  0  0  0
 19 40  1  0  0  0  0
 19 41  1  0  0  0  0
 20 42  1  0  0  0  0
 20 43  1  0  0  0  0
 20 44  1  0  0  0  0
 21 24  1  0  0  0  0
 21 46  1  0  0  0  0
 22 48  1  0  0  0  0
 22 49  1  0  0  0  0
 22 50  1  0  0  0  0
 23 26  1  0  0  0  0
 23 51  1  0  0  0  0
 24 25  1  0  0  0  0
 24 27  1  0  0  0  0
 24 52  1  0  0  0  0
 25 28  1  0  0  0  0
 25 53  1  0  0  0  0
 27 54  1  0  0  0  0
 27 55  1  0  0  0  0
 27 56  1  0  0  0  0
 28 30  1  0  0  0  0
 28 57  1  0  0  0  0
 29 58  1  0  0  0  0
 29 59  1  0  0  0  0
 29 60  1  0  0  0  0
 30 61  1  0  0  0  0
 30 62  1  0  0  0  0
 30 63  1  0  0  0  0
M  END
> <PUBCHEM_COMPOUND_CID>
101643013

> <PUBCHEM_CONFORMER_RMSD>
0.8

> <PUBCHEM_CONFORMER_DIVERSEORDER>
1
2

> <PUBCHEM_MMFF94_PARTIAL_CHARGES>
30
1 -0.56
10 0.14
11 0.28
12 0.28
13 0.14
15 0.28
16 -0.29
17 -0.28
18 -0.29
2 -0.68
21 -0.29
22 0.14
23 0.34
24 0.14
25 0.28
26 0.66
28 0.28
29 0.28
3 -0.68
38 0.15
39 0.15
4 -0.56
45 0.4
46 0.15
47 0.4
5 -0.43
6 -0.57
64 0.4
7 -0.68
9 0.42

> <PUBCHEM_EFFECTIVE_ROTOR_COUNT>
3.8

> <PUBCHEM_PHARMACOPHORE_FEATURES>
11
1 1 acceptor
1 2 acceptor
1 2 donor
1 3 acceptor
1 3 donor
1 4 acceptor
1 6 acceptor
1 7 acceptor
1 7 donor
8 1 8 9 10 11 12 14 15 rings
8 1 8 9 10 11 13 16 18 rings

> <PUBCHEM_HEAVY_ATOM_COUNT>
30

> <PUBCHEM_ATOM_DEF_STEREO_COUNT>
12

> <PUBCHEM_ATOM_UDEF_STEREO_COUNT>
0

> <PUBCHEM_BOND_DEF_STEREO_COUNT>
1

> <PUBCHEM_BOND_UDEF_STEREO_COUNT>
0

> <PUBCHEM_ISOTOPIC_ATOM_COUNT>
0

> <PUBCHEM_COMPONENT_COUNT>
1

> <PUBCHEM_CACTVS_TAUTO_COUNT>
1

> <PUBCHEM_CONFORMER_ID>
060EF30500000001

> <PUBCHEM_MMFF94_ENERGY>
107.9262

> <PUBCHEM_FEATURE_SELFOVERLAP>
56.773

> <PUBCHEM_SHAPE_FINGERPRINT>
10863032 1 18272086037736864900
10906281 52 17749403585292214404
1100329 8 17836648517915817831
11370993 70 18057318392607003624
11513181 2 17917425372337937662
11578080 2 17988916795243970616
12107183 9 18049435951230477754
12293681 4 18189060965752290963
12422481 6 18121495761297599882
12553582 1 18054234494872981079
12633257 1 18060137609398704352
12788726 201 18195543685940165453
13009979 54 18409451383985220282
13140716 1 18266740169020706543
13224815 77 18411985770987516438
13583140 156 17346015806695979288
138480 1 16394936835810056397
14178342 30 18410290294151223860
14251751 93 18339080389508573787
15420108 30 17831852452695959977
16945 1 18411423942237233596
17349148 13 18115019826798693682
17492 89 18410011035457363138
17980427 23 18041002873503416564
1813 80 17821439171447927086
19141452 34 18265050219812481524
19319366 153 17253441608950983725
20691752 17 17313388881520834096
20775438 99 16400228282848656127
23557571 272 18131073739982949704
23558518 356 18334019405952190017
23559900 14 18341883134547208640
25147074 1 18186811283531360916
338550 245 18335991882879159149
350125 39 18413389817772614323
4340502 62 17915172412666407361
463206 1 17978225285777976167
5104073 3 18340475682833597480
7064713 232 18269829818422944240
7164475 11 18409168848157070285
9981440 41 16962949558751057072

> <PUBCHEM_SHAPE_MULTIPOLES>
576.3
8.94
3.85
1.5
0.7
0.07
0.19
-1.68
1.13
-3.8
-0.52
0.53
0.28
-1.74

> <PUBCHEM_SHAPE_SELFOVERLAP>
1223.347

> <PUBCHEM_SHAPE_VOLUME>
317.9

> <PUBCHEM_COORDINATE_TYPE>
2
5
10

$$$$
