101679506
  -OEChem-03292013293D

 48 48  0     1  0  0  0  0  0999 V2000
   -0.6653    2.9811   -0.9991 O   0  0  0  0  0  0  0  0  0  0  0  0
    4.5274    1.3492   -0.1733 O   0  0  0  0  0  0  0  0  0  0  0  0
   -5.1768   -0.0744    1.9530 O   0  0  0  0  0  0  0  0  0  0  0  0
   -2.6906   -2.4564   -1.1062 O   0  0  0  0  0  0  0  0  0  0  0  0
    2.2517    2.3897   -1.2691 O   0  0  0  0  0  0  0  0  0  0  0  0
   -3.9193   -1.2372    0.4132 N   0  0  0  0  0  0  0  0  0  0  0  0
   -2.8868    1.1463   -0.6037 C   0  0  0  0  0  0  0  0  0  0  0  0
   -1.6705    1.2261    0.3227 C   0  0  0  0  0  0  0  0  0  0  0  0
   -0.4119    1.7059   -0.4098 C   0  0  2  0  0  0  0  0  0  0  0  0
   -2.8567   -0.0980   -1.4854 C   0  0  0  0  0  0  0  0  0  0  0  0
   -4.2013    1.1902    0.1690 C   0  0  0  0  0  0  0  0  0  0  0  0
    0.7741    1.8250    0.5526 C   0  0  0  0  0  0  0  0  0  0  0  0
   -3.1203   -1.3710   -0.7159 C   0  0  0  0  0  0  0  0  0  0  0  0
   -4.4701   -0.0776    0.9452 C   0  0  0  0  0  0  0  0  0  0  0  0
    2.1217    1.8584   -0.1642 C   0  0  0  0  0  0  0  0  0  0  0  0
    3.3297    1.2547    0.5800 C   0  0  2  0  0  0  0  0  0  0  0  0
    3.5299    2.0383    1.8823 C   0  0  0  0  0  0  0  0  0  0  0  0
    3.0554   -0.2071    0.8692 C   0  0  0  0  0  0  0  0  0  0  0  0
    2.8098   -1.2083   -0.0056 C   0  0  0  0  0  0  0  0  0  0  0  0
    2.8059   -1.0336   -1.5023 C   0  0  0  0  0  0  0  0  0  0  0  0
    2.5484   -2.5502    0.5198 C   0  0  0  0  0  0  0  0  0  0  0  0
    2.2871   -3.6570   -0.1941 C   0  0  0  0  0  0  0  0  0  0  0  0
    2.0284   -4.9941    0.4218 C   0  0  0  0  0  0  0  0  0  0  0  0
   -2.8894    2.0228   -1.2635 H   0  0  0  0  0  0  0  0  0  0  0  0
   -1.4764    0.2634    0.8095 H   0  0  0  0  0  0  0  0  0  0  0  0
   -1.8889    1.9461    1.1228 H   0  0  0  0  0  0  0  0  0  0  0  0
   -0.1601    1.0155   -1.2214 H   0  0  0  0  0  0  0  0  0  0  0  0
   -5.0396    1.3251   -0.5256 H   0  0  0  0  0  0  0  0  0  0  0  0
   -4.2119    2.0369    0.8646 H   0  0  0  0  0  0  0  0  0  0  0  0
   -1.8971   -0.1952   -2.0029 H   0  0  0  0  0  0  0  0  0  0  0  0
   -3.6343   -0.0252   -2.2560 H   0  0  0  0  0  0  0  0  0  0  0  0
    0.7040    2.7406    1.1511 H   0  0  0  0  0  0  0  0  0  0  0  0
    0.7614    0.9703    1.2355 H   0  0  0  0  0  0  0  0  0  0  0  0
   -4.1138   -2.0948    0.9229 H   0  0  0  0  0  0  0  0  0  0  0  0
   -0.9091    3.5972   -0.2873 H   0  0  0  0  0  0  0  0  0  0  0  0
    3.6854    3.1026    1.6687 H   0  0  0  0  0  0  0  0  0  0  0  0
    4.4251    1.6953    2.4149 H   0  0  0  0  0  0  0  0  0  0  0  0
    2.6768    1.9547    2.5641 H   0  0  0  0  0  0  0  0  0  0  0  0
    3.0446   -0.4562    1.9316 H   0  0  0  0  0  0  0  0  0  0  0  0
    5.2397    0.9118    0.3243 H   0  0  0  0  0  0  0  0  0  0  0  0
    3.1133   -0.0380   -1.8266 H   0  0  0  0  0  0  0  0  0  0  0  0
    3.5059   -1.7320   -1.9748 H   0  0  0  0  0  0  0  0  0  0  0  0
    1.8033   -1.2123   -1.9059 H   0  0  0  0  0  0  0  0  0  0  0  0
    2.5704   -2.6469    1.6047 H   0  0  0  0  0  0  0  0  0  0  0  0
    2.2472   -3.6267   -1.2789 H   0  0  0  0  0  0  0  0  0  0  0  0
    2.7681   -5.7172    0.0649 H   0  0  0  0  0  0  0  0  0  0  0  0
    2.0784   -4.9666    1.5149 H   0  0  0  0  0  0  0  0  0  0  0  0
    1.0338   -5.3493    0.1350 H   0  0  0  0  0  0  0  0  0  0  0  0
  1  9  1  0  0  0  0
  1 35  1  0  0  0  0
  2 16  1  0  0  0  0
  2 40  1  0  0  0  0
  3 14  2  0  0  0  0
  4 13  2  0  0  0  0
  5 15  2  0  0  0  0
  6 13  1  0  0  0  0
  6 14  1  0  0  0  0
  6 34  1  0  0  0  0
  7  8  1  0  0  0  0
  7 10  1  0  0  0  0
  7 11  1  0  0  0  0
  7 24  1  0  0  0  0
  8  9  1  0  0  0  0
  8 25  1  0  0  0  0
  8 26  1  0  0  0  0
  9 12  1  0  0  0  0
  9 27  1  0  0  0  0
 10 13  1  0  0  0  0
 10 30  1  0  0  0  0
 10 31  1  0  0  0  0
 11 14  1  0  0  0  0
 11 28  1  0  0  0  0
 11 29  1  0  0  0  0
 12 15  1  0  0  0  0
 12 32  1  0  0  0  0
 12 33  1  0  0  0  0
 15 16  1  0  0  0  0
 16 17  1  0  0  0  0
 16 18  1  0  0  0  0
 17 36  1  0  0  0  0
 17 37  1  0  0  0  0
 17 38  1  0  0  0  0
 18 19  2  0  0  0  0
 18 39  1  0  0  0  0
 19 20  1  0  0  0  0
 19 21  1  0  0  0  0
 20 41  1  0  0  0  0
 20 42  1  0  0  0  0
 20 43  1  0  0  0  0
 21 22  2  0  0  0  0
 21 44  1  0  0  0  0
 22 23  1  0  0  0  0
 22 45  1  0  0  0  0
 23 46  1  0  0  0  0
 23 47  1  0  0  0  0
 23 48  1  0  0  0  0
M  END
> <PUBCHEM_COMPOUND_CID>
101679506

> <PUBCHEM_CONFORMER_RMSD>
1.2

> <PUBCHEM_CONFORMER_DIVERSEORDER>
1
53
74
106
50
24
55
34
93
32
8
54
73
29
85
83
57
119
39
68
62
35
11
47
15
10
90
26
84
89
75
70
51
78
109
69
110
120
112
60
16
45
25
59
58
63
115
14
97
65
81
86
37
116
87
64
46
104
33
6
100
38
67
82
56
61
117
23
107
4
114
52
98
95
2
44
79
88
3
113
27
66
36
31
99
111
19
102
18
5
30
22
13
103
105
80
92
96
21
108
72
101
71
94
41
43
76
40
48
42
7
20
12
17
49
77
118
9
91
28

> <PUBCHEM_MMFF94_PARTIAL_CHARGES>
26
1 -0.68
10 0.06
11 0.06
12 0.06
13 0.57
14 0.57
15 0.45
16 0.48
18 -0.29
19 -0.14
2 -0.68
20 0.14
21 -0.15
22 -0.29
23 0.14
3 -0.57
34 0.37
35 0.4
39 0.15
4 -0.57
40 0.4
44 0.15
45 0.15
5 -0.57
6 -0.49
9 0.28

> <PUBCHEM_EFFECTIVE_ROTOR_COUNT>
7.8

> <PUBCHEM_PHARMACOPHORE_FEATURES>
11
1 1 acceptor
1 1 donor
1 2 acceptor
1 2 donor
1 20 hydrophobe
1 23 hydrophobe
1 3 acceptor
1 4 acceptor
1 5 acceptor
1 6 donor
6 6 7 10 11 13 14 rings

> <PUBCHEM_HEAVY_ATOM_COUNT>
23

> <PUBCHEM_ATOM_DEF_STEREO_COUNT>
2

> <PUBCHEM_ATOM_UDEF_STEREO_COUNT>
0

> <PUBCHEM_BOND_DEF_STEREO_COUNT>
2

> <PUBCHEM_BOND_UDEF_STEREO_COUNT>
0

> <PUBCHEM_ISOTOPIC_ATOM_COUNT>
0

> <PUBCHEM_COMPONENT_COUNT>
1

> <PUBCHEM_CACTVS_TAUTO_COUNT>
10

> <PUBCHEM_CONFORMER_ID>
060F819200000001

> <PUBCHEM_MMFF94_ENERGY>
43.9663

> <PUBCHEM_FEATURE_SELFOVERLAP>
55.829

> <PUBCHEM_SHAPE_FINGERPRINT>
10074138 170 17188925497071052184
10616163 171 18339921644441578983
114674 6 18335703793352476946
12422481 6 18196342915535921738
12553582 1 18339358552728084118
12596602 18 17274545450698952561
12633257 1 17845651430840469079
12788726 201 17059786515805401345
12839892 36 18194373728843999440
12990986 174 17543062386566391906
13122387 1 18411129225728981191
13533116 47 18272363123658023169
14178342 30 18127404781540075909
14617045 38 18411146839531552709
14863182 85 18335426789916418188
14916288 52 17906727012582780214
15338160 23 16687910015720243968
15537594 2 18340778112359808229
1813 80 17530971293418713333
19930381 70 18336264557447262091
20775530 9 18048035168890030470
21421861 104 18337956688471967168
21673915 165 18198897200604591924
23559900 14 18262796259725250588
345986 75 17845092857574403785
3737641 26 18339932493840204902
5281201 14 12324228439076506321
5486654 36 17836933300080065696
57091435 65 18339080389324496662
6433294 58 18338516318294758210
7097593 13 18342175553247639453

> <PUBCHEM_SHAPE_MULTIPOLES>
439
9.56
4.62
1.41
7.62
5.46
0.15
0.88
2.65
-5.17
0.05
0.36
-0.29
0.25

> <PUBCHEM_SHAPE_SELFOVERLAP>
881.305

> <PUBCHEM_SHAPE_VOLUME>
255.9

> <PUBCHEM_COORDINATE_TYPE>
2
5
10

$$$$
