101656818
  -OEChem-03292013293D

 44 46  0     0  0  0  0  0  0999 V2000
    2.6264    0.4458   -0.7671 O   0  0  0  0  0  0  0  0  0  0  0  0
   -5.0473    0.7749    0.2662 O   0  0  0  0  0  0  0  0  0  0  0  0
   -3.5005    0.5570    1.9961 O   0  0  0  0  0  0  0  0  0  0  0  0
   -2.3035   -3.5953   -0.0504 O   0  0  0  0  0  0  0  0  0  0  0  0
   -0.8468    3.5764   -0.3716 O   0  0  0  0  0  0  0  0  0  0  0  0
   -4.1718   -1.8148   -0.0466 O   0  0  0  0  0  0  0  0  0  0  0  0
   -3.2520    2.6803   -0.2325 O   0  0  0  0  0  0  0  0  0  0  0  0
   -1.0002   -0.1266   -0.2189 C   0  0  0  0  0  0  0  0  0  0  0  0
    0.3716   -0.4146   -0.4227 C   0  0  0  0  0  0  0  0  0  0  0  0
   -1.8972   -1.2058   -0.0805 C   0  0  0  0  0  0  0  0  0  0  0  0
   -1.4046    1.2244   -0.1896 C   0  0  0  0  0  0  0  0  0  0  0  0
   -3.7119    0.4629    0.5960 C   0  0  0  0  0  0  0  0  0  0  0  0
    0.8017   -1.7503   -0.4732 C   0  0  0  0  0  0  0  0  0  0  0  0
   -3.3370   -0.9327    0.1262 C   0  0  0  0  0  0  0  0  0  0  0  0
   -2.8339    1.5548    0.0214 C   0  0  0  0  0  0  0  0  0  0  0  0
    1.2867    0.6384   -0.5816 C   0  0  0  0  0  0  0  0  0  0  0  0
   -1.4570   -2.5316   -0.1441 C   0  0  0  0  0  0  0  0  0  0  0  0
   -0.4833    2.2628   -0.3602 C   0  0  0  0  0  0  0  0  0  0  0  0
   -0.1061   -2.7995   -0.3364 C   0  0  0  0  0  0  0  0  0  0  0  0
    0.8616    1.9657   -0.5521 C   0  0  0  0  0  0  0  0  0  0  0  0
    2.2292   -2.1634   -0.6669 C   0  0  0  0  0  0  0  0  0  0  0  0
    3.4991    1.0092    0.2080 C   0  0  0  0  0  0  0  0  0  0  0  0
    4.9189    0.7253   -0.1700 C   0  0  0  0  0  0  0  0  0  0  0  0
    5.8568    0.0773    0.5464 C   0  0  0  0  0  0  0  0  0  0  0  0
    5.6560   -0.5148    1.9125 C   0  0  0  0  0  0  0  0  0  0  0  0
    7.2450   -0.1060   -0.0084 C   0  0  0  0  0  0  0  0  0  0  0  0
    0.2242   -3.8349   -0.3826 H   0  0  0  0  0  0  0  0  0  0  0  0
    1.5606    2.7829   -0.7106 H   0  0  0  0  0  0  0  0  0  0  0  0
    2.6220   -1.7995   -1.6215 H   0  0  0  0  0  0  0  0  0  0  0  0
    2.8502   -1.8327    0.1710 H   0  0  0  0  0  0  0  0  0  0  0  0
    2.3361   -3.2545   -0.7027 H   0  0  0  0  0  0  0  0  0  0  0  0
   -5.1084    0.8546   -0.7012 H   0  0  0  0  0  0  0  0  0  0  0  0
   -3.7535   -0.2911    2.3985 H   0  0  0  0  0  0  0  0  0  0  0  0
    3.3926    2.0991    0.2452 H   0  0  0  0  0  0  0  0  0  0  0  0
    3.2326    0.6157    1.1922 H   0  0  0  0  0  0  0  0  0  0  0  0
   -3.1920   -3.3020    0.2033 H   0  0  0  0  0  0  0  0  0  0  0  0
   -1.7722    3.6764   -0.1010 H   0  0  0  0  0  0  0  0  0  0  0  0
    5.2016    1.1094   -1.1497 H   0  0  0  0  0  0  0  0  0  0  0  0
    7.9816    0.3659    0.6502 H   0  0  0  0  0  0  0  0  0  0  0  0
    4.6475   -0.3836    2.3080 H   0  0  0  0  0  0  0  0  0  0  0  0
    6.3478   -0.0543    2.6259 H   0  0  0  0  0  0  0  0  0  0  0  0
    7.3594    0.3356   -1.0040 H   0  0  0  0  0  0  0  0  0  0  0  0
    7.4828   -1.1718   -0.0894 H   0  0  0  0  0  0  0  0  0  0  0  0
    5.8562   -1.5913    1.8868 H   0  0  0  0  0  0  0  0  0  0  0  0
  1 16  1  0  0  0  0
  1 22  1  0  0  0  0
  2 12  1  0  0  0  0
  2 32  1  0  0  0  0
  3 12  1  0  0  0  0
  3 33  1  0  0  0  0
  4 17  1  0  0  0  0
  4 36  1  0  0  0  0
  5 18  1  0  0  0  0
  5 37  1  0  0  0  0
  6 14  2  0  0  0  0
  7 15  2  0  0  0  0
  8  9  1  0  0  0  0
  8 10  1  0  0  0  0
  8 11  2  0  0  0  0
  9 13  1  0  0  0  0
  9 16  2  0  0  0  0
 10 14  1  0  0  0  0
 10 17  2  0  0  0  0
 11 15  1  0  0  0  0
 11 18  1  0  0  0  0
 12 14  1  0  0  0  0
 12 15  1  0  0  0  0
 13 19  2  0  0  0  0
 13 21  1  0  0  0  0
 16 20  1  0  0  0  0
 17 19  1  0  0  0  0
 18 20  2  0  0  0  0
 19 27  1  0  0  0  0
 20 28  1  0  0  0  0
 21 29  1  0  0  0  0
 21 30  1  0  0  0  0
 21 31  1  0  0  0  0
 22 23  1  0  0  0  0
 22 34  1  0  0  0  0
 22 35  1  0  0  0  0
 23 24  2  0  0  0  0
 23 38  1  0  0  0  0
 24 25  1  0  0  0  0
 24 26  1  0  0  0  0
 25 40  1  0  0  0  0
 25 41  1  0  0  0  0
 25 44  1  0  0  0  0
 26 39  1  0  0  0  0
 26 42  1  0  0  0  0
 26 43  1  0  0  0  0
M  END
> <PUBCHEM_COMPOUND_CID>
101656818

> <PUBCHEM_CONFORMER_RMSD>
0.6

> <PUBCHEM_CONFORMER_DIVERSEORDER>
7
40
31
29
24
27
14
9
8
37
4
3
17
6
10
33
42
1
16
28
12
15
41
5
30
26
32
20
18
2
34
11
19
36
25
39
22
35
23
38
21
13

> <PUBCHEM_MMFF94_PARTIAL_CHARGES>
31
1 -0.36
10 0.09
11 0.09
12 0.68
13 -0.14
14 0.42
15 0.42
16 0.08
17 0.08
18 0.08
19 -0.15
2 -0.68
20 -0.15
21 0.14
22 0.42
23 -0.29
24 -0.28
25 0.14
26 0.14
27 0.15
28 0.15
3 -0.68
32 0.4
33 0.4
36 0.45
37 0.45
38 0.15
4 -0.53
5 -0.53
6 -0.57
7 -0.57

> <PUBCHEM_EFFECTIVE_ROTOR_COUNT>
3.2

> <PUBCHEM_PHARMACOPHORE_FEATURES>
13
1 1 acceptor
1 2 acceptor
1 2 donor
1 3 acceptor
1 3 donor
1 4 donor
1 5 donor
1 6 acceptor
1 7 acceptor
3 24 25 26 hydrophobe
6 8 10 11 12 14 15 rings
6 8 9 10 13 17 19 rings
6 8 9 11 16 18 20 rings

> <PUBCHEM_HEAVY_ATOM_COUNT>
26

> <PUBCHEM_ATOM_DEF_STEREO_COUNT>
0

> <PUBCHEM_ATOM_UDEF_STEREO_COUNT>
0

> <PUBCHEM_BOND_DEF_STEREO_COUNT>
0

> <PUBCHEM_BOND_UDEF_STEREO_COUNT>
0

> <PUBCHEM_ISOTOPIC_ATOM_COUNT>
0

> <PUBCHEM_COMPONENT_COUNT>
1

> <PUBCHEM_CACTVS_TAUTO_COUNT>
72

> <PUBCHEM_CONFORMER_ID>
060F28F200000007

> <PUBCHEM_MMFF94_ENERGY>
77.2911

> <PUBCHEM_FEATURE_SELFOVERLAP>
66.146

> <PUBCHEM_SHAPE_FINGERPRINT>
10319926 262 18341596107205926114
10411042 1 17906735052698884991
10675989 125 16893690754297758013
10967382 1 18338527352487286791
1100329 8 18338239391746280389
11112241 14 16701720757810876266
11524674 6 17561360674129666782
11720765 8 15975777207328015791
12236239 1 17822012034465624268
12403260 363 18196371644287379479
12422481 6 18264202522607880610
12633257 1 18272373092166406208
12838862 33 18338784646888246357
12839892 36 18410848846411646242
12930653 34 18195810656976257036
13140716 1 18267872876551161001
13402501 40 18272089379669528316
13583140 156 14692572156548272518
13862211 1 18338796839619891895
14117953 113 18336548226814541029
14420673 8 18338797811348325290
14790565 3 18266193879314765076
14866123 147 18409444812970847706
15042514 8 18409450327555231710
15537594 2 17967809449773241890
15685185 35 16665175315482978788
16110190 28 18337949095666542072
16728300 4 17749937856936773715
16945 1 18266193888389080285
17492 89 17832988625874696898
1813 80 17240485793464744198
19591789 44 18339082708453465908
21236236 1 18342737459513672686
21267235 1 18336271248605038102
21796203 349 17829369995558138968
22182313 1 18192438476056031148
2334 1 18338528460557259127
23402539 116 18342451577604922583
23559900 14 18200047179073964894
2748010 2 18192445082200976869
335352 9 18410012173828691429
34934 24 18410010997128860773
350125 39 18411701006044790508
392239 28 17988929989204194664
4093350 32 16772961289490559687
4409770 3 18115010919000320109
5104073 3 18193287295112149553
5265222 85 18270688701225500452
5364581 5 17983275300657780336
58807428 26 18409736131701091642
59755656 215 18342462487708279158
7226269 152 18060139825865735568
9862522 239 18339630162417811638
9981440 41 18191866730431821057

> <PUBCHEM_SHAPE_MULTIPOLES>
493.98
11.45
3.36
0.99
19.69
0.61
-0.48
-0.7
-3.91
-3.06
0.63
0.48
-0.01
-0.25

> <PUBCHEM_SHAPE_SELFOVERLAP>
1092.031

> <PUBCHEM_SHAPE_VOLUME>
263.5

> <PUBCHEM_COORDINATE_TYPE>
2
5
10

$$$$
