101600054
  -OEChem-03292013293D

 68 71  0     1  0  0  0  0  0999 V2000
    2.1041   -1.3250    0.1405 O   0  0  0  0  0  0  0  0  0  0  0  0
   -0.5515    1.7568   -2.2058 O   0  0  0  0  0  0  0  0  0  0  0  0
   -2.6261    0.8407    1.4604 O   0  0  0  0  0  0  0  0  0  0  0  0
    4.1778    0.0180    1.2246 O   0  0  0  0  0  0  0  0  0  0  0  0
   -1.5513   -1.6161    2.4640 O   0  0  0  0  0  0  0  0  0  0  0  0
   -4.8168    0.8642   -0.4083 O   0  0  0  0  0  0  0  0  0  0  0  0
    2.0858   -2.1175   -2.0263 O   0  0  0  0  0  0  0  0  0  0  0  0
    0.9476    0.7302    0.7984 C   0  0  1  0  0  0  0  0  0  0  0  0
    0.2069    1.9618    0.1467 C   0  0  2  0  0  0  0  0  0  0  0  0
    1.6693   -0.0510   -0.3137 C   0  0  1  0  0  0  0  0  0  0  0  0
   -1.0185    1.7214   -0.8375 C   0  0  2  0  0  0  0  0  0  0  0  0
   -1.7393    0.3464   -0.7665 C   0  0  1  0  0  0  0  0  0  0  0  0
    2.8610    0.8851   -0.6128 C   0  0  2  0  0  0  0  0  0  0  0  0
   -2.2178   -0.2185    0.5944 C   0  0  1  0  0  0  0  0  0  0  0  0
    2.1700    1.2568    1.6793 C   0  0  0  0  0  0  0  0  0  0  0  0
    0.0747   -0.0733    1.7860 C   0  0  0  0  0  0  0  0  0  0  0  0
    3.4262    1.1639    0.7940 C   0  0  1  0  0  0  0  0  0  0  0  0
    1.2607    2.9023   -0.5232 C   0  0  0  0  0  0  0  0  0  0  0  0
   -1.0614   -0.9606    1.2866 C   0  0  1  0  0  0  0  0  0  0  0  0
   -3.4669   -1.1104    0.2229 C   0  0  0  0  0  0  0  0  0  0  0  0
    2.3424    2.1506   -1.3184 C   0  0  0  0  0  0  0  0  0  0  0  0
   -2.9499    0.2156   -1.7406 C   0  0  0  0  0  0  0  0  0  0  0  0
   -4.1240   -0.2768   -0.9045 C   0  0  2  0  0  0  0  0  0  0  0  0
   -1.9757    2.9328   -0.6810 C   0  0  0  0  0  0  0  0  0  0  0  0
    4.3650    2.3575    0.9313 C   0  0  0  0  0  0  0  0  0  0  0  0
   -4.4534   -1.3413    1.3829 C   0  0  0  0  0  0  0  0  0  0  0  0
   -3.0794   -2.4927   -0.3566 C   0  0  0  0  0  0  0  0  0  0  0  0
    2.2753   -2.2788   -0.8286 C   0  0  0  0  0  0  0  0  0  0  0  0
    2.7366   -3.5656   -0.1853 C   0  0  0  0  0  0  0  0  0  0  0  0
    2.9288   -4.6765   -1.2029 C   0  0  0  0  0  0  0  0  0  0  0  0
   -0.2052    2.5207    1.0007 H   0  0  0  0  0  0  0  0  0  0  0  0
    1.0432   -0.1797   -1.1943 H   0  0  0  0  0  0  0  0  0  0  0  0
   -1.0381   -0.3959   -1.1712 H   0  0  0  0  0  0  0  0  0  0  0  0
    3.6070    0.3764   -1.2342 H   0  0  0  0  0  0  0  0  0  0  0  0
    1.9771    2.2748    2.0355 H   0  0  0  0  0  0  0  0  0  0  0  0
    2.3100    0.6475    2.5809 H   0  0  0  0  0  0  0  0  0  0  0  0
   -0.3147    0.6149    2.5503 H   0  0  0  0  0  0  0  0  0  0  0  0
    0.7367   -0.7404    2.3591 H   0  0  0  0  0  0  0  0  0  0  0  0
    1.7355    3.5110    0.2535 H   0  0  0  0  0  0  0  0  0  0  0  0
    0.7840    3.6404   -1.1782 H   0  0  0  0  0  0  0  0  0  0  0  0
   -0.6567   -1.7414    0.6334 H   0  0  0  0  0  0  0  0  0  0  0  0
    1.9509    1.8662   -2.3011 H   0  0  0  0  0  0  0  0  0  0  0  0
    3.1735    2.8345   -1.5271 H   0  0  0  0  0  0  0  0  0  0  0  0
   -3.1866    1.1310   -2.2862 H   0  0  0  0  0  0  0  0  0  0  0  0
   -2.7033   -0.5347   -2.5032 H   0  0  0  0  0  0  0  0  0  0  0  0
   -4.8328   -0.8622   -1.5000 H   0  0  0  0  0  0  0  0  0  0  0  0
   -2.7558    2.9537   -1.4460 H   0  0  0  0  0  0  0  0  0  0  0  0
   -1.4331    3.8756   -0.8146 H   0  0  0  0  0  0  0  0  0  0  0  0
   -2.4521    2.9656    0.3013 H   0  0  0  0  0  0  0  0  0  0  0  0
    5.2305    2.2395    0.2694 H   0  0  0  0  0  0  0  0  0  0  0  0
    4.7614    2.4237    1.9513 H   0  0  0  0  0  0  0  0  0  0  0  0
    3.8877    3.3126    0.7025 H   0  0  0  0  0  0  0  0  0  0  0  0
   -4.7969   -0.4060    1.8357 H   0  0  0  0  0  0  0  0  0  0  0  0
   -5.3459   -1.8692    1.0267 H   0  0  0  0  0  0  0  0  0  0  0  0
   -4.0118   -1.9520    2.1756 H   0  0  0  0  0  0  0  0  0  0  0  0
   -2.3374   -2.4245   -1.1577 H   0  0  0  0  0  0  0  0  0  0  0  0
   -2.6630   -3.1433    0.4201 H   0  0  0  0  0  0  0  0  0  0  0  0
   -3.9587   -3.0036   -0.7661 H   0  0  0  0  0  0  0  0  0  0  0  0
   -0.0571    0.9465   -2.4032 H   0  0  0  0  0  0  0  0  0  0  0  0
   -2.7760    0.4670    2.3454 H   0  0  0  0  0  0  0  0  0  0  0  0
    4.4619    0.1687    2.1424 H   0  0  0  0  0  0  0  0  0  0  0  0
   -0.8490   -2.2041    2.7906 H   0  0  0  0  0  0  0  0  0  0  0  0
   -5.1813    1.3421   -1.1727 H   0  0  0  0  0  0  0  0  0  0  0  0
    1.9852   -3.8730    0.5497 H   0  0  0  0  0  0  0  0  0  0  0  0
    3.6846   -3.3746    0.3285 H   0  0  0  0  0  0  0  0  0  0  0  0
    1.9941   -4.8912   -1.7315 H   0  0  0  0  0  0  0  0  0  0  0  0
    3.6799   -4.3995   -1.9501 H   0  0  0  0  0  0  0  0  0  0  0  0
    3.2607   -5.5940   -0.7075 H   0  0  0  0  0  0  0  0  0  0  0  0
  1 10  1  0  0  0  0
  1 28  1  0  0  0  0
  2 11  1  0  0  0  0
  2 59  1  0  0  0  0
  3 14  1  0  0  0  0
  3 60  1  0  0  0  0
  4 17  1  0  0  0  0
  4 61  1  0  0  0  0
  5 19  1  0  0  0  0
  5 62  1  0  0  0  0
  6 23  1  0  0  0  0
  6 63  1  0  0  0  0
  7 28  2  0  0  0  0
  8  9  1  0  0  0  0
  8 10  1  0  0  0  0
  8 15  1  0  0  0  0
  8 16  1  0  0  0  0
  9 11  1  0  0  0  0
  9 18  1  0  0  0  0
  9 31  1  0  0  0  0
 10 13  1  0  0  0  0
 10 32  1  0  0  0  0
 11 12  1  0  0  0  0
 11 24  1  0  0  0  0
 12 14  1  0  0  0  0
 12 22  1  0  0  0  0
 12 33  1  0  0  0  0
 13 17  1  0  0  0  0
 13 21  1  0  0  0  0
 13 34  1  0  0  0  0
 14 19  1  0  0  0  0
 14 20  1  0  0  0  0
 15 17  1  0  0  0  0
 15 35  1  0  0  0  0
 15 36  1  0  0  0  0
 16 19  1  0  0  0  0
 16 37  1  0  0  0  0
 16 38  1  0  0  0  0
 17 25  1  0  0  0  0
 18 21  1  0  0  0  0
 18 39  1  0  0  0  0
 18 40  1  0  0  0  0
 19 41  1  0  0  0  0
 20 23  1  0  0  0  0
 20 26  1  0  0  0  0
 20 27  1  0  0  0  0
 21 42  1  0  0  0  0
 21 43  1  0  0  0  0
 22 23  1  0  0  0  0
 22 44  1  0  0  0  0
 22 45  1  0  0  0  0
 23 46  1  0  0  0  0
 24 47  1  0  0  0  0
 24 48  1  0  0  0  0
 24 49  1  0  0  0  0
 25 50  1  0  0  0  0
 25 51  1  0  0  0  0
 25 52  1  0  0  0  0
 26 53  1  0  0  0  0
 26 54  1  0  0  0  0
 26 55  1  0  0  0  0
 27 56  1  0  0  0  0
 27 57  1  0  0  0  0
 27 58  1  0  0  0  0
 28 29  1  0  0  0  0
 29 30  1  0  0  0  0
 29 64  1  0  0  0  0
 29 65  1  0  0  0  0
 30 66  1  0  0  0  0
 30 67  1  0  0  0  0
 30 68  1  0  0  0  0
M  END
> <PUBCHEM_COMPOUND_CID>
101600054

> <PUBCHEM_CONFORMER_RMSD>
0.8

> <PUBCHEM_CONFORMER_DIVERSEORDER>
1
2
6
4
3
8
9
5
7

> <PUBCHEM_MMFF94_PARTIAL_CHARGES>
20
1 -0.43
10 0.28
11 0.28
14 0.28
17 0.28
19 0.28
2 -0.68
23 0.28
28 0.66
29 0.06
3 -0.68
4 -0.68
5 -0.68
59 0.4
6 -0.68
60 0.4
61 0.4
62 0.4
63 0.4
7 -0.57

> <PUBCHEM_EFFECTIVE_ROTOR_COUNT>
5.2

> <PUBCHEM_PHARMACOPHORE_FEATURES>
16
1 2 acceptor
1 2 donor
1 3 acceptor
1 3 donor
1 30 hydrophobe
1 4 acceptor
1 4 donor
1 5 acceptor
1 5 donor
1 6 acceptor
1 6 donor
1 7 acceptor
3 20 26 27 hydrophobe
5 12 14 20 22 23 rings
7 8 9 11 12 14 16 19 rings
8 8 9 10 13 15 17 18 21 rings

> <PUBCHEM_HEAVY_ATOM_COUNT>
30

> <PUBCHEM_ATOM_DEF_STEREO_COUNT>
10

> <PUBCHEM_ATOM_UDEF_STEREO_COUNT>
0

> <PUBCHEM_BOND_DEF_STEREO_COUNT>
0

> <PUBCHEM_BOND_UDEF_STEREO_COUNT>
0

> <PUBCHEM_ISOTOPIC_ATOM_COUNT>
0

> <PUBCHEM_COMPONENT_COUNT>
1

> <PUBCHEM_CACTVS_TAUTO_COUNT>
2

> <PUBCHEM_CONFORMER_ID>
060E4B3600000001

> <PUBCHEM_MMFF94_ENERGY>
147.7237

> <PUBCHEM_FEATURE_SELFOVERLAP>
81.234

> <PUBCHEM_SHAPE_FINGERPRINT>
10064457 181 17628915917758385158
10863032 1 18059857229717853001
10906281 52 18187090588932791508
11370993 70 18058160807471381155
11578080 2 18200039426073179696
12156800 1 15157654356410731033
12293681 25 18115042843407789722
12422481 6 18267280124289028762
12553582 1 18262808487476127757
12788726 201 18259989271049145533
13140716 1 18053661666041149969
13224815 77 18338797926235931641
133893 2 18199489721788005258
13583140 156 17560518521089371937
13911987 19 18196656426436867868
14223421 5 18412542089606618724
14659021 117 17614561437471901734
14863182 85 18338806735667205390
15219462 58 17632852040774039091
15420108 30 16461968085292507771
16945 1 18336270127550138449
17349148 13 18262794189329403152
17980427 23 17532362265774664556
18981168 100 8213554702650665998
20600515 1 17023182781330943709
20691752 17 17532376365872455517
20775530 9 18267873787079356078
21033648 29 18057023925993306528
21285901 2 18113328717880578087
22182313 1 18259984860343747643
23402539 116 17895740919772742416
23419403 2 17124756550658894586
23557571 272 17895202120478383883
23559900 14 18334014969414360740
35225 105 16980979303077974262
4280585 95 17903068942188340074
469060 322 17908970351174022015
5262128 65 18260268525194597317
59755656 215 18411978031904822700
70251023 43 18196089950267771655
7288768 16 16410374477132610824
9709674 26 18338227146577982036

> <PUBCHEM_SHAPE_MULTIPOLES>
576.3
7.7
4.09
1.88
3.1
4.07
0.22
1.08
0.71
-4.1
-1.76
0.24
0.13
1.85

> <PUBCHEM_SHAPE_SELFOVERLAP>
1227.372

> <PUBCHEM_SHAPE_VOLUME>
316

> <PUBCHEM_COORDINATE_TYPE>
2
5
10

$$$$
