101657608
  -OEChem-03292013293D

 29 29  0     1  0  0  0  0  0999 V2000
   -1.5131    1.5036    1.6237 O   0  0  0  0  0  0  0  0  0  0  0  0
    0.0674    2.5213   -0.3748 O   0  0  0  0  0  0  0  0  0  0  0  0
   -3.9367   -0.6911   -0.5462 O   0  0  0  0  0  0  0  0  0  0  0  0
   -2.7442   -1.4564    1.2393 O   0  0  0  0  0  0  0  0  0  0  0  0
    3.8574    0.4711    0.2355 O   0  0  0  0  0  0  0  0  0  0  0  0
    0.2472   -0.0863   -1.8518 N   0  0  0  0  0  0  0  0  0  0  0  0
    1.8788   -0.6705   -0.2156 N   0  0  0  0  0  0  0  0  0  0  0  0
   -0.8162    0.5772    0.7930 C   0  0  2  0  0  0  0  0  0  0  0  0
    0.4276    1.2737    0.2276 C   0  0  1  0  0  0  0  0  0  0  0  0
   -1.7237    0.0732   -0.3330 C   0  0  1  0  0  0  0  0  0  0  0  0
    1.1527    0.4187   -0.8172 C   0  0  2  0  0  0  0  0  0  0  0  0
   -0.9315   -0.7766   -1.3313 C   0  0  0  0  0  0  0  0  0  0  0  0
   -2.8269   -0.7765    0.2273 C   0  0  0  0  0  0  0  0  0  0  0  0
    3.1750   -0.5497    0.2613 C   0  0  0  0  0  0  0  0  0  0  0  0
    3.6861   -1.8317    0.8622 C   0  0  0  0  0  0  0  0  0  0  0  0
   -0.5008   -0.2599    1.4286 H   0  0  0  0  0  0  0  0  0  0  0  0
    1.0988    1.5244    1.0585 H   0  0  0  0  0  0  0  0  0  0  0  0
   -2.1805    0.9388   -0.8316 H   0  0  0  0  0  0  0  0  0  0  0  0
    1.8869    1.0516   -1.3308 H   0  0  0  0  0  0  0  0  0  0  0  0
   -0.6416   -1.7339   -0.8796 H   0  0  0  0  0  0  0  0  0  0  0  0
   -1.5786   -1.0333   -2.1789 H   0  0  0  0  0  0  0  0  0  0  0  0
    0.7605   -0.7065   -2.4768 H   0  0  0  0  0  0  0  0  0  0  0  0
    1.4040   -1.5620   -0.1150 H   0  0  0  0  0  0  0  0  0  0  0  0
   -0.9015    1.7871    2.3246 H   0  0  0  0  0  0  0  0  0  0  0  0
    0.8885    2.9597   -0.6562 H   0  0  0  0  0  0  0  0  0  0  0  0
   -4.6699   -1.2414   -0.1970 H   0  0  0  0  0  0  0  0  0  0  0  0
    3.4878   -2.6717    0.1903 H   0  0  0  0  0  0  0  0  0  0  0  0
    4.7655   -1.7590    1.0217 H   0  0  0  0  0  0  0  0  0  0  0  0
    3.1909   -2.0069    1.8211 H   0  0  0  0  0  0  0  0  0  0  0  0
  1  8  1  0  0  0  0
  1 24  1  0  0  0  0
  2  9  1  0  0  0  0
  2 25  1  0  0  0  0
  3 13  1  0  0  0  0
  3 26  1  0  0  0  0
  4 13  2  0  0  0  0
  5 14  2  0  0  0  0
  6 11  1  0  0  0  0
  6 12  1  0  0  0  0
  6 22  1  0  0  0  0
  7 11  1  0  0  0  0
  7 14  1  0  0  0  0
  7 23  1  0  0  0  0
  8  9  1  0  0  0  0
  8 10  1  0  0  0  0
  8 16  1  0  0  0  0
  9 11  1  0  0  0  0
  9 17  1  0  0  0  0
 10 12  1  0  0  0  0
 10 13  1  0  0  0  0
 10 18  1  0  0  0  0
 11 19  1  0  0  0  0
 12 20  1  0  0  0  0
 12 21  1  0  0  0  0
 14 15  1  0  0  0  0
 15 27  1  0  0  0  0
 15 28  1  0  0  0  0
 15 29  1  0  0  0  0
M  END
> <PUBCHEM_COMPOUND_CID>
101657608

> <PUBCHEM_CONFORMER_RMSD>
0.6

> <PUBCHEM_CONFORMER_DIVERSEORDER>
1
7
4
8
11
2
3
9
10
6
5

> <PUBCHEM_MMFF94_PARTIAL_CHARGES>
20
1 -0.68
10 0.06
11 0.57
12 0.27
13 0.66
14 0.57
15 0.06
2 -0.68
22 0.36
23 0.37
24 0.4
25 0.4
26 0.5
3 -0.65
4 -0.57
5 -0.57
6 -0.9
7 -0.73
8 0.28
9 0.28

> <PUBCHEM_EFFECTIVE_ROTOR_COUNT>
4.2

> <PUBCHEM_PHARMACOPHORE_FEATURES>
12
1 1 acceptor
1 1 donor
1 2 acceptor
1 2 donor
1 3 acceptor
1 4 acceptor
1 5 acceptor
1 6 cation
1 6 donor
1 7 donor
3 3 4 13 anion
6 6 8 9 10 11 12 rings

> <PUBCHEM_HEAVY_ATOM_COUNT>
15

> <PUBCHEM_ATOM_DEF_STEREO_COUNT>
4

> <PUBCHEM_ATOM_UDEF_STEREO_COUNT>
0

> <PUBCHEM_BOND_DEF_STEREO_COUNT>
0

> <PUBCHEM_BOND_UDEF_STEREO_COUNT>
0

> <PUBCHEM_ISOTOPIC_ATOM_COUNT>
0

> <PUBCHEM_COMPONENT_COUNT>
1

> <PUBCHEM_CACTVS_TAUTO_COUNT>
6

> <PUBCHEM_CONFORMER_ID>
060F2C0800000001

> <PUBCHEM_MMFF94_ENERGY>
21.4615

> <PUBCHEM_FEATURE_SELFOVERLAP>
60.999

> <PUBCHEM_SHAPE_FINGERPRINT>
10922049 32 11527951183301474468
11127187 94 13551771599016096306
11132069 177 15913319208577057343
11769659 78 18114180882083716747
12251169 10 17632850941288836202
13024252 1 17096653093292155996
14943859 89 8502653709746112326
15375462 189 18340204218946020790
15375462 478 18059855081985921341
16945 1 17418093225980997204
17834072 14 18408317778849097701
18186145 218 11169916091252526486
200 152 17967526849040313106
20281407 28 17603305951237837078
20388701 513 17489317347397952593
20653085 51 10951759794509741622
21296965 67 18334287665135202196
23382010 3 10809640254108049670
23402539 116 18268419154122248957
23419403 2 17843650401419796233
23559900 14 18187635878613018848
2748010 2 17343811212714889717
53812654 25 17274538857786918501
81228 2 18122922944359396689

> <PUBCHEM_SHAPE_MULTIPOLES>
269.38
5.85
1.75
1.34
2.6
0.58
-0.14
-3.29
1.37
0.17
0.4
-0.44
-0.04
-0.44

> <PUBCHEM_SHAPE_SELFOVERLAP>
541.987

> <PUBCHEM_SHAPE_VOLUME>
155.4

> <PUBCHEM_COORDINATE_TYPE>
2
5
10

$$$$
