101659926
  -OEChem-03292013293D

 49 50  0     1  0  0  0  0  0999 V2000
   -4.2076    0.4479    2.4662 O   0  0  0  0  0  0  0  0  0  0  0  0
   -0.7449   -2.9168    0.5513 O   0  0  0  0  0  0  0  0  0  0  0  0
   -2.1788   -3.8023   -1.6592 O   0  0  0  0  0  0  0  0  0  0  0  0
    6.6195   -0.3896    0.0663 O   0  0  0  0  0  0  0  0  0  0  0  0
   -2.3627    2.2980   -0.1664 N   0  0  0  0  0  0  0  0  0  0  0  0
    5.5043   -2.0322    1.2137 N   0  0  0  0  0  0  0  0  0  0  0  0
   -1.3066    3.3099   -0.1270 C   0  0  1  0  0  0  0  0  0  0  0  0
    0.0608    2.6659    0.1688 C   0  0  0  0  0  0  0  0  0  0  0  0
    0.5213    1.6212   -0.8591 C   0  0  0  0  0  0  0  0  0  0  0  0
   -2.7386    1.8938    1.1790 C   0  0  0  0  0  0  0  0  0  0  0  0
   -3.8444    0.8319    1.1407 C   0  0  1  0  0  0  0  0  0  0  0  0
   -1.2667    4.0597   -1.4589 C   0  0  0  0  0  0  0  0  0  0  0  0
    1.8365    0.9675   -0.5175 C   0  0  0  0  0  0  0  0  0  0  0  0
   -3.3977   -0.4066    0.3954 C   0  0  0  0  0  0  0  0  0  0  0  0
    1.8577   -0.1954    0.2525 C   0  0  0  0  0  0  0  0  0  0  0  0
    3.0317    1.5255   -0.9713 C   0  0  0  0  0  0  0  0  0  0  0  0
   -2.2651   -1.1032    0.8169 C   0  0  0  0  0  0  0  0  0  0  0  0
   -4.1175   -0.8515   -0.7135 C   0  0  0  0  0  0  0  0  0  0  0  0
    3.0740   -0.8004    0.5687 C   0  0  0  0  0  0  0  0  0  0  0  0
    4.2481    0.9205   -0.6550 C   0  0  0  0  0  0  0  0  0  0  0  0
    4.2693   -0.2425    0.1148 C   0  0  0  0  0  0  0  0  0  0  0  0
   -1.8527   -2.2449    0.1298 C   0  0  0  0  0  0  0  0  0  0  0  0
   -3.7051   -1.9931   -1.4006 C   0  0  0  0  0  0  0  0  0  0  0  0
   -2.5726   -2.6898   -0.9789 C   0  0  0  0  0  0  0  0  0  0  0  0
    5.5377   -0.8735    0.4435 C   0  0  0  0  0  0  0  0  0  0  0  0
   -1.5200    4.0551    0.6506 H   0  0  0  0  0  0  0  0  0  0  0  0
    0.0619    2.2166    1.1692 H   0  0  0  0  0  0  0  0  0  0  0  0
    0.8155    3.4632    0.2177 H   0  0  0  0  0  0  0  0  0  0  0  0
   -3.1841    2.6742   -0.6398 H   0  0  0  0  0  0  0  0  0  0  0  0
   -0.2376    0.8368   -0.9704 H   0  0  0  0  0  0  0  0  0  0  0  0
    0.6147    2.0795   -1.8510 H   0  0  0  0  0  0  0  0  0  0  0  0
   -1.8858    1.5171    1.7535 H   0  0  0  0  0  0  0  0  0  0  0  0
   -3.1169    2.7551    1.7458 H   0  0  0  0  0  0  0  0  0  0  0  0
   -4.7421    1.2577    0.6757 H   0  0  0  0  0  0  0  0  0  0  0  0
   -1.1705    3.3846   -2.3158 H   0  0  0  0  0  0  0  0  0  0  0  0
   -2.1885    4.6354   -1.6023 H   0  0  0  0  0  0  0  0  0  0  0  0
   -0.4305    4.7666   -1.4858 H   0  0  0  0  0  0  0  0  0  0  0  0
    0.9339   -0.6313    0.6185 H   0  0  0  0  0  0  0  0  0  0  0  0
    3.0278    2.4324   -1.5701 H   0  0  0  0  0  0  0  0  0  0  0  0
   -1.7052   -0.7697    1.6868 H   0  0  0  0  0  0  0  0  0  0  0  0
   -5.0013   -0.3185   -1.0536 H   0  0  0  0  0  0  0  0  0  0  0  0
   -4.8039   -0.3182    2.4069 H   0  0  0  0  0  0  0  0  0  0  0  0
    3.0150   -1.6984    1.1717 H   0  0  0  0  0  0  0  0  0  0  0  0
    5.1657    1.3743   -1.0200 H   0  0  0  0  0  0  0  0  0  0  0  0
   -4.2749   -2.3284   -2.2631 H   0  0  0  0  0  0  0  0  0  0  0  0
   -0.3938   -2.4829    1.3478 H   0  0  0  0  0  0  0  0  0  0  0  0
   -2.7948   -3.9580   -2.3956 H   0  0  0  0  0  0  0  0  0  0  0  0
    4.6728   -2.4894    1.5645 H   0  0  0  0  0  0  0  0  0  0  0  0
    6.3768   -2.4880    1.4626 H   0  0  0  0  0  0  0  0  0  0  0  0
  1 11  1  0  0  0  0
  1 42  1  0  0  0  0
  2 22  1  0  0  0  0
  2 46  1  0  0  0  0
  3 24  1  0  0  0  0
  3 47  1  0  0  0  0
  4 25  2  0  0  0  0
  5  7  1  0  0  0  0
  5 10  1  0  0  0  0
  5 29  1  0  0  0  0
  6 25  1  0  0  0  0
  6 48  1  0  0  0  0
  6 49  1  0  0  0  0
  7  8  1  0  0  0  0
  7 12  1  0  0  0  0
  7 26  1  0  0  0  0
  8  9  1  0  0  0  0
  8 27  1  0  0  0  0
  8 28  1  0  0  0  0
  9 13  1  0  0  0  0
  9 30  1  0  0  0  0
  9 31  1  0  0  0  0
 10 11  1  0  0  0  0
 10 32  1  0  0  0  0
 10 33  1  0  0  0  0
 11 14  1  0  0  0  0
 11 34  1  0  0  0  0
 12 35  1  0  0  0  0
 12 36  1  0  0  0  0
 12 37  1  0  0  0  0
 13 15  2  0  0  0  0
 13 16  1  0  0  0  0
 14 17  2  0  0  0  0
 14 18  1  0  0  0  0
 15 19  1  0  0  0  0
 15 38  1  0  0  0  0
 16 20  2  0  0  0  0
 16 39  1  0  0  0  0
 17 22  1  0  0  0  0
 17 40  1  0  0  0  0
 18 23  2  0  0  0  0
 18 41  1  0  0  0  0
 19 21  2  0  0  0  0
 19 43  1  0  0  0  0
 20 21  1  0  0  0  0
 20 44  1  0  0  0  0
 21 25  1  0  0  0  0
 22 24  2  0  0  0  0
 23 24  1  0  0  0  0
 23 45  1  0  0  0  0
M  END
> <PUBCHEM_COMPOUND_CID>
101659926

> <PUBCHEM_CONFORMER_RMSD>
1.2

> <PUBCHEM_CONFORMER_DIVERSEORDER>
1
47
35
33
40
88
84
59
92
82
22
5
95
65
97
26
87
77
89
68
79
15
66
91
39
67
4
49
17
80
76
61
20
38
103
102
25
90
8
3
28
53
48
83
81
24
29
30
100
37
86
63
93
14
7
18
75
70
98
71
60
34
57
6
58
54
27
73
96
21
55
51
46
85
43
31
101
78
62
99
69
2
19
16
23
72
42
64
50
10
32
44
45
11
36
94
41
56
12
13
74
52
9

> <PUBCHEM_MMFF94_PARTIAL_CHARGES>
36
1 -0.68
10 0.27
11 0.42
13 -0.14
14 -0.14
15 -0.15
16 -0.15
17 -0.15
18 -0.15
19 -0.15
2 -0.53
20 -0.15
21 0.09
22 0.08
23 -0.15
24 0.08
25 0.54
29 0.36
3 -0.53
38 0.15
39 0.15
4 -0.57
40 0.15
41 0.15
42 0.4
43 0.15
44 0.15
45 0.15
46 0.45
47 0.45
48 0.37
49 0.37
5 -0.9
6 -0.8
7 0.27
9 0.14

> <PUBCHEM_EFFECTIVE_ROTOR_COUNT>
8

> <PUBCHEM_PHARMACOPHORE_FEATURES>
10
1 1 acceptor
1 1 donor
1 2 donor
1 3 donor
1 4 acceptor
1 5 cation
1 5 donor
1 6 donor
6 13 15 16 19 20 21 rings
6 14 17 18 22 23 24 rings

> <PUBCHEM_HEAVY_ATOM_COUNT>
25

> <PUBCHEM_ATOM_DEF_STEREO_COUNT>
1

> <PUBCHEM_ATOM_UDEF_STEREO_COUNT>
1

> <PUBCHEM_BOND_DEF_STEREO_COUNT>
0

> <PUBCHEM_BOND_UDEF_STEREO_COUNT>
0

> <PUBCHEM_ISOTOPIC_ATOM_COUNT>
0

> <PUBCHEM_COMPONENT_COUNT>
1

> <PUBCHEM_CACTVS_TAUTO_COUNT>
96

> <PUBCHEM_CONFORMER_ID>
060F351600000001

> <PUBCHEM_MMFF94_ENERGY>
58.1249

> <PUBCHEM_FEATURE_SELFOVERLAP>
50.752

> <PUBCHEM_SHAPE_FINGERPRINT>
10483366 6 18265872719847334429
10871710 139 18336259047019454347
11014199 57 18124032592083760494
11552529 35 17917426561995508306
12166972 35 17968655059523737831
12422481 6 17904511526918160489
12553582 1 18263372528187724749
12633257 1 18060431208851995681
12788726 201 18335126562732483826
13004483 165 18408600383582075045
13583140 156 15051735274497082390
13773456 30 17687735043753169317
14068700 675 17916858157992829527
14117953 113 18340206285263218773
14251751 93 18189054188013952384
14844126 61 18336262332158311321
14910302 57 17916601846823272670
15420108 30 17913502246910738049
15537594 2 18190200020774487636
19319366 153 17033079623449077741
20261772 1 18337966626799644592
20621476 51 18343014527669425438
20775438 99 16686785219203368511
20775530 9 17768813418148613975
21796203 349 17901992695855140416
23559900 14 18057593468235638905
23728640 28 18200326497708132027
338550 245 18116723919946660806
397830 11 18130204014618919570
4409770 3 18263071129132301421
57527295 17 16836842151715629839
57527585 103 18044116728792954643
602551 16 18202286896664669276
7471813 234 17912636105734290599

> <PUBCHEM_SHAPE_MULTIPOLES>
481.05
11.32
4.4
1.44
16.86
1.26
0.21
-5.55
2.23
-3.76
-1.77
-1.52
-0.1
-2.34

> <PUBCHEM_SHAPE_SELFOVERLAP>
1008.022

> <PUBCHEM_SHAPE_VOLUME>
271.1

> <PUBCHEM_COORDINATE_TYPE>
2
5
10

$$$$
