101643005
  -OEChem-03292013293D

 53 55  0     1  0  0  0  0  0999 V2000
   -0.8908   -1.0586   -0.6592 O   0  0  0  0  0  0  0  0  0  0  0  0
    0.5023    0.7298   -1.1571 O   0  0  0  0  0  0  0  0  0  0  0  0
    4.2997   -0.9497    1.8542 O   0  0  0  0  0  0  0  0  0  0  0  0
   -2.2004    0.3602    0.6506 O   0  0  0  0  0  0  0  0  0  0  0  0
   -3.0599   -1.3723   -2.4493 O   0  0  0  0  0  0  0  0  0  0  0  0
   -5.6559   -0.9927   -1.1087 O   0  0  0  0  0  0  0  0  0  0  0  0
    5.1289    0.4818   -0.8191 O   0  0  0  0  0  0  0  0  0  0  0  0
   -5.6747    1.4864    0.3777 O   0  0  0  0  0  0  0  0  0  0  0  0
    4.2183    2.6100   -0.7881 O   0  0  0  0  0  0  0  0  0  0  0  0
   -2.0765    2.5153    2.3523 O   0  0  0  0  0  0  0  0  0  0  0  0
    1.4729   -1.3869   -0.3054 C   0  0  1  0  0  0  0  0  0  0  0  0
    2.8152   -0.6826   -0.0348 C   0  0  2  0  0  0  0  0  0  0  0  0
    1.4796   -2.4798    0.7805 C   0  0  1  0  0  0  0  0  0  0  0  0
    2.9516   -0.6698    1.4981 C   0  0  1  0  0  0  0  0  0  0  0  0
    2.0187   -1.7658    2.0253 C   0  0  0  0  0  0  0  0  0  0  0  0
    0.3032   -0.3819   -0.2698 C   0  0  2  0  0  0  0  0  0  0  0  0
    2.8506    0.6798   -0.6441 C   0  0  0  0  0  0  0  0  0  0  0  0
    0.1688   -3.2024    1.0430 C   0  0  0  0  0  0  0  0  0  0  0  0
   -2.0123   -0.1759   -0.6570 C   0  0  2  0  0  0  0  0  0  0  0  0
    1.7639    1.2595   -1.1632 C   0  0  0  0  0  0  0  0  0  0  0  0
   -3.2412   -0.9752   -1.0903 C   0  0  1  0  0  0  0  0  0  0  0  0
   -4.5172   -0.1415   -0.9711 C   0  0  2  0  0  0  0  0  0  0  0  0
   -4.6032    0.5468    0.3912 C   0  0  1  0  0  0  0  0  0  0  0  0
   -3.2964    1.2745    0.7155 C   0  0  1  0  0  0  0  0  0  0  0  0
    4.1235    1.3922   -0.7574 C   0  0  0  0  0  0  0  0  0  0  0  0
   -3.3154    1.8707    2.1195 C   0  0  0  0  0  0  0  0  0  0  0  0
    6.4471    1.0281   -0.9332 C   0  0  0  0  0  0  0  0  0  0  0  0
    1.4901   -1.8594   -1.2972 H   0  0  0  0  0  0  0  0  0  0  0  0
    3.6036   -1.3107   -0.4723 H   0  0  0  0  0  0  0  0  0  0  0  0
    2.2186   -3.2378    0.4825 H   0  0  0  0  0  0  0  0  0  0  0  0
    2.6847    0.2997    1.9351 H   0  0  0  0  0  0  0  0  0  0  0  0
    1.1953   -1.3005    2.5808 H   0  0  0  0  0  0  0  0  0  0  0  0
    2.5200   -2.4677    2.7002 H   0  0  0  0  0  0  0  0  0  0  0  0
    0.1846    0.0118    0.7479 H   0  0  0  0  0  0  0  0  0  0  0  0
   -0.5939   -2.5346    1.4554 H   0  0  0  0  0  0  0  0  0  0  0  0
    0.3194   -4.0094    1.7683 H   0  0  0  0  0  0  0  0  0  0  0  0
   -0.2201   -3.6488    0.1224 H   0  0  0  0  0  0  0  0  0  0  0  0
   -1.8367    0.6363   -1.3745 H   0  0  0  0  0  0  0  0  0  0  0  0
    1.7598    2.2098   -1.6803 H   0  0  0  0  0  0  0  0  0  0  0  0
   -3.3269   -1.8956   -0.5006 H   0  0  0  0  0  0  0  0  0  0  0  0
    4.3467   -0.9680    2.8253 H   0  0  0  0  0  0  0  0  0  0  0  0
   -4.5840    0.5911   -1.7839 H   0  0  0  0  0  0  0  0  0  0  0  0
   -4.8294   -0.1961    1.1659 H   0  0  0  0  0  0  0  0  0  0  0  0
   -3.1118    2.0904    0.0033 H   0  0  0  0  0  0  0  0  0  0  0  0
   -3.4298    1.0860    2.8748 H   0  0  0  0  0  0  0  0  0  0  0  0
   -4.1198    2.6035    2.2340 H   0  0  0  0  0  0  0  0  0  0  0  0
   -2.9838   -0.5684   -2.9911 H   0  0  0  0  0  0  0  0  0  0  0  0
   -5.6157   -1.6672   -0.4094 H   0  0  0  0  0  0  0  0  0  0  0  0
   -5.4768    2.1580   -0.2973 H   0  0  0  0  0  0  0  0  0  0  0  0
   -2.1086    2.8828    3.2520 H   0  0  0  0  0  0  0  0  0  0  0  0
    7.1567    0.1975   -0.9749 H   0  0  0  0  0  0  0  0  0  0  0  0
    6.6779    1.6441   -0.0589 H   0  0  0  0  0  0  0  0  0  0  0  0
    6.5360    1.6134   -1.8534 H   0  0  0  0  0  0  0  0  0  0  0  0
  1 16  1  0  0  0  0
  1 19  1  0  0  0  0
  2 16  1  0  0  0  0
  2 20  1  0  0  0  0
  3 14  1  0  0  0  0
  3 41  1  0  0  0  0
  4 19  1  0  0  0  0
  4 24  1  0  0  0  0
  5 21  1  0  0  0  0
  5 47  1  0  0  0  0
  6 22  1  0  0  0  0
  6 48  1  0  0  0  0
  7 25  1  0  0  0  0
  7 27  1  0  0  0  0
  8 23  1  0  0  0  0
  8 49  1  0  0  0  0
  9 25  2  0  0  0  0
 10 26  1  0  0  0  0
 10 50  1  0  0  0  0
 11 12  1  0  0  0  0
 11 13  1  0  0  0  0
 11 16  1  0  0  0  0
 11 28  1  0  0  0  0
 12 14  1  0  0  0  0
 12 17  1  0  0  0  0
 12 29  1  0  0  0  0
 13 15  1  0  0  0  0
 13 18  1  0  0  0  0
 13 30  1  0  0  0  0
 14 15  1  0  0  0  0
 14 31  1  0  0  0  0
 15 32  1  0  0  0  0
 15 33  1  0  0  0  0
 16 34  1  0  0  0  0
 17 20  2  0  0  0  0
 17 25  1  0  0  0  0
 18 35  1  0  0  0  0
 18 36  1  0  0  0  0
 18 37  1  0  0  0  0
 19 21  1  0  0  0  0
 19 38  1  0  0  0  0
 20 39  1  0  0  0  0
 21 22  1  0  0  0  0
 21 40  1  0  0  0  0
 22 23  1  0  0  0  0
 22 42  1  0  0  0  0
 23 24  1  0  0  0  0
 23 43  1  0  0  0  0
 24 26  1  0  0  0  0
 24 44  1  0  0  0  0
 26 45  1  0  0  0  0
 26 46  1  0  0  0  0
 27 51  1  0  0  0  0
 27 52  1  0  0  0  0
 27 53  1  0  0  0  0
M  END
> <PUBCHEM_COMPOUND_CID>
101643005

> <PUBCHEM_CONFORMER_RMSD>
0.8

> <PUBCHEM_CONFORMER_DIVERSEORDER>
1
91
84
19
108
100
95
76
44
4
98
90
46
31
22
77
111
7
24
25
27
101
89
48
29
47
62
51
110
55
93
8
80
12
33
74
53
38
20
3
56
10
112
109
23
13
114
67
30
18
97
34
85
70
103
16
82
45
17
92
21
78
105
94
11
104
49
113
36
9
37
61
28
26
99
60
15
66
83
63
88
6
42
2
96
40
59
65
106
81
75
41
87
54
35
14
39
43
71
86
58
69
79
64
72
73
102
5
107
32
52
50
57
68

> <PUBCHEM_MMFF94_PARTIAL_CHARGES>
29
1 -0.56
10 -0.68
12 0.14
14 0.28
16 0.56
17 -0.12
19 0.56
2 -0.36
20 -0.07
21 0.28
22 0.28
23 0.28
24 0.28
25 0.71
26 0.28
27 0.28
3 -0.68
39 0.15
4 -0.56
41 0.4
47 0.4
48 0.4
49 0.4
5 -0.68
50 0.4
6 -0.68
7 -0.43
8 -0.68
9 -0.57

> <PUBCHEM_EFFECTIVE_ROTOR_COUNT>
7.2

> <PUBCHEM_PHARMACOPHORE_FEATURES>
17
1 1 acceptor
1 10 acceptor
1 10 donor
1 2 acceptor
1 3 acceptor
1 3 donor
1 4 acceptor
1 5 acceptor
1 5 donor
1 6 acceptor
1 6 donor
1 8 acceptor
1 8 donor
1 9 acceptor
5 11 12 13 14 15 rings
6 2 11 12 16 17 20 rings
6 4 19 21 22 23 24 rings

> <PUBCHEM_HEAVY_ATOM_COUNT>
27

> <PUBCHEM_ATOM_DEF_STEREO_COUNT>
10

> <PUBCHEM_ATOM_UDEF_STEREO_COUNT>
0

> <PUBCHEM_BOND_DEF_STEREO_COUNT>
0

> <PUBCHEM_BOND_UDEF_STEREO_COUNT>
0

> <PUBCHEM_ISOTOPIC_ATOM_COUNT>
0

> <PUBCHEM_COMPONENT_COUNT>
1

> <PUBCHEM_CACTVS_TAUTO_COUNT>
1

> <PUBCHEM_CONFORMER_ID>
060EF2FD00000001

> <PUBCHEM_MMFF94_ENERGY>
78.2318

> <PUBCHEM_FEATURE_SELFOVERLAP>
86.531

> <PUBCHEM_SHAPE_FINGERPRINT>
10498660 4 17632573829888239297
10670039 82 17917996057331785420
11595378 159 18130500830416983665
11640471 11 18271531879670922755
12236239 1 18413107255673292806
12390115 104 17752786885465415292
12596602 18 18408890650509197883
12644460 14 17749383759364233130
12788726 201 18131631184526866851
13140716 1 17895190034889124378
13583140 156 15792009030228574836
13631057 29 18191025814780522495
13947920 75 18131915961927207164
13965767 371 17552651253093947641
14739800 52 17916006019333524776
15183329 4 18341623594838170070
15238133 3 18201148871690669048
17138139 8 18050546732932235087
1813 80 17904763280726898314
18681886 176 17917145104125138788
20511986 3 18339351977513312681
20645477 70 17604134952903622278
20715895 44 17763737695045828277
20739085 24 17895199853110074740
21133410 230 16752129237890432281
21756936 100 18338523040155621974
21792961 116 15267075739974536804
221357 26 12967130476112787059
23557571 272 16988567922238045861
23558518 356 17319306693783321198
23559900 14 16845291631168692757
335352 9 18113899399508491582
341906 21 17774997939142411521
38570 142 18266484073417179012
474 4 18333733532770621622
5104073 3 17895191133952028187
5281201 14 14117797998788210289
5895379 119 17774449278329127144
59755656 520 18261115213725748030
6034566 193 17026864045441040748
633830 44 18409731768003737206
7495541 125 15123509254754179436
7808743 9 17488479476651660145
9849439 229 17055286077654243281
9981440 41 16976728630207524216

> <PUBCHEM_SHAPE_MULTIPOLES>
496.95
12.07
2.62
1.95
0.66
0.97
0.71
-5.85
-1.88
-1.49
0.97
1.39
-0.18
-3.29

> <PUBCHEM_SHAPE_SELFOVERLAP>
1042.883

> <PUBCHEM_SHAPE_VOLUME>
278.3

> <PUBCHEM_COORDINATE_TYPE>
2
5
10

$$$$
