101608096
  -OEChem-03292013293D

 46 48  0     0  0  0  0  0  0999 V2000
   -0.5309    2.9415   -0.1738 O   0  0  0  0  0  0  0  0  0  0  0  0
    1.4113   -2.6509    0.7823 O   0  0  0  0  0  0  0  0  0  0  0  0
    1.9599    2.5186   -0.4562 O   0  0  0  0  0  0  0  0  0  0  0  0
    4.4864    2.2643   -0.7769 O   0  0  0  0  0  0  0  0  0  0  0  0
   -3.2587    2.5267   -0.7976 O   0  0  0  0  0  0  0  0  0  0  0  0
    6.3395   -2.0413   -0.0942 O   0  0  0  0  0  0  0  0  0  0  0  0
   -3.7857    2.1904    1.3878 O   0  0  0  0  0  0  0  0  0  0  0  0
   -2.0215   -0.2510    0.7642 C   0  0  0  0  0  0  0  0  0  0  0  0
    0.3602   -0.5726    0.4768 C   0  0  0  0  0  0  0  0  0  0  0  0
    0.5028    0.7784    0.1537 C   0  0  0  0  0  0  0  0  0  0  0  0
   -3.3589   -0.8308    1.0943 C   0  0  0  0  0  0  0  0  0  0  0  0
   -0.9052   -1.0876    0.7825 C   0  0  0  0  0  0  0  0  0  0  0  0
   -1.8793    1.0972    0.4418 C   0  0  0  0  0  0  0  0  0  0  0  0
   -0.6201    1.6145    0.1364 C   0  0  0  0  0  0  0  0  0  0  0  0
    3.0084    0.4417   -0.1483 C   0  0  0  0  0  0  0  0  0  0  0  0
    2.8658   -0.9094    0.1746 C   0  0  0  0  0  0  0  0  0  0  0  0
    1.5365   -1.4659    0.4987 C   0  0  0  0  0  0  0  0  0  0  0  0
    1.8320    1.3349   -0.1713 C   0  0  0  0  0  0  0  0  0  0  0  0
   -4.2337   -1.1189   -0.1204 C   0  0  0  0  0  0  0  0  0  0  0  0
   -3.6496   -2.0493   -1.1614 C   0  0  0  0  0  0  0  0  0  0  0  0
    4.2741    0.9569   -0.4532 C   0  0  0  0  0  0  0  0  0  0  0  0
    3.9886   -1.7454    0.1925 C   0  0  0  0  0  0  0  0  0  0  0  0
   -3.0509    1.9678    0.4239 C   0  0  0  0  0  0  0  0  0  0  0  0
   -5.4547   -0.5552   -0.2183 C   0  0  0  0  0  0  0  0  0  0  0  0
    5.2479   -1.2279   -0.1120 C   0  0  0  0  0  0  0  0  0  0  0  0
    5.3904    0.1203   -0.4341 C   0  0  0  0  0  0  0  0  0  0  0  0
   -3.9909   -3.5067   -0.8866 C   0  0  0  0  0  0  0  0  0  0  0  0
   -6.4640   -0.7404   -1.3050 C   0  0  0  0  0  0  0  0  0  0  0  0
   -3.2222   -1.7834    1.6262 H   0  0  0  0  0  0  0  0  0  0  0  0
   -3.8756   -0.2065    1.8324 H   0  0  0  0  0  0  0  0  0  0  0  0
   -1.0241   -2.1390    1.0334 H   0  0  0  0  0  0  0  0  0  0  0  0
   -4.0193   -1.7810   -2.1580 H   0  0  0  0  0  0  0  0  0  0  0  0
   -2.5645   -1.9388   -1.2383 H   0  0  0  0  0  0  0  0  0  0  0  0
    3.8904   -2.7990    0.4424 H   0  0  0  0  0  0  0  0  0  0  0  0
   -5.7817    0.1073    0.5814 H   0  0  0  0  0  0  0  0  0  0  0  0
    6.3741    0.5189   -0.6706 H   0  0  0  0  0  0  0  0  0  0  0  0
   -3.5794   -3.8353    0.0735 H   0  0  0  0  0  0  0  0  0  0  0  0
   -5.0739   -3.6671   -0.8670 H   0  0  0  0  0  0  0  0  0  0  0  0
   -3.5700   -4.1462   -1.6692 H   0  0  0  0  0  0  0  0  0  0  0  0
    0.3832    3.1964   -0.3650 H   0  0  0  0  0  0  0  0  0  0  0  0
   -6.6174    0.2058   -1.8329 H   0  0  0  0  0  0  0  0  0  0  0  0
   -6.1835   -1.5003   -2.0375 H   0  0  0  0  0  0  0  0  0  0  0  0
   -7.4201   -1.0448   -0.8672 H   0  0  0  0  0  0  0  0  0  0  0  0
    3.6558    2.7624   -0.7609 H   0  0  0  0  0  0  0  0  0  0  0  0
   -4.0486    3.1083   -0.8035 H   0  0  0  0  0  0  0  0  0  0  0  0
    6.0597   -2.9406    0.1484 H   0  0  0  0  0  0  0  0  0  0  0  0
  1 14  1  0  0  0  0
  1 40  1  0  0  0  0
  2 17  2  0  0  0  0
  3 18  2  0  0  0  0
  4 21  1  0  0  0  0
  4 44  1  0  0  0  0
  5 23  1  0  0  0  0
  5 45  1  0  0  0  0
  6 25  1  0  0  0  0
  6 46  1  0  0  0  0
  7 23  2  0  0  0  0
  8 11  1  0  0  0  0
  8 12  2  0  0  0  0
  8 13  1  0  0  0  0
  9 10  2  0  0  0  0
  9 12  1  0  0  0  0
  9 17  1  0  0  0  0
 10 14  1  0  0  0  0
 10 18  1  0  0  0  0
 11 19  1  0  0  0  0
 11 29  1  0  0  0  0
 11 30  1  0  0  0  0
 12 31  1  0  0  0  0
 13 14  2  0  0  0  0
 13 23  1  0  0  0  0
 15 16  2  0  0  0  0
 15 18  1  0  0  0  0
 15 21  1  0  0  0  0
 16 17  1  0  0  0  0
 16 22  1  0  0  0  0
 19 20  1  0  0  0  0
 19 24  2  0  0  0  0
 20 27  1  0  0  0  0
 20 32  1  0  0  0  0
 20 33  1  0  0  0  0
 21 26  2  0  0  0  0
 22 25  2  0  0  0  0
 22 34  1  0  0  0  0
 24 28  1  0  0  0  0
 24 35  1  0  0  0  0
 25 26  1  0  0  0  0
 26 36  1  0  0  0  0
 27 37  1  0  0  0  0
 27 38  1  0  0  0  0
 27 39  1  0  0  0  0
 28 41  1  0  0  0  0
 28 42  1  0  0  0  0
 28 43  1  0  0  0  0
M  END
> <PUBCHEM_COMPOUND_CID>
101608096

> <PUBCHEM_CONFORMER_RMSD>
0.8

> <PUBCHEM_CONFORMER_DIVERSEORDER>
1
5
4
6
7
2
3

> <PUBCHEM_MMFF94_PARTIAL_CHARGES>
35
1 -0.53
10 0.09
11 0.28
12 -0.15
13 0.09
14 0.08
15 0.09
16 0.09
17 0.4
18 0.4
19 -0.28
2 -0.57
20 0.14
21 0.08
22 -0.15
23 0.63
24 -0.29
25 0.08
26 -0.15
28 0.14
3 -0.57
31 0.15
34 0.15
35 0.15
36 0.15
4 -0.53
40 0.45
44 0.45
45 0.5
46 0.45
5 -0.65
6 -0.53
7 -0.57
8 -0.14
9 0.09

> <PUBCHEM_EFFECTIVE_ROTOR_COUNT>
4

> <PUBCHEM_PHARMACOPHORE_FEATURES>
13
1 1 donor
1 2 acceptor
1 27 hydrophobe
1 28 hydrophobe
1 3 acceptor
1 4 donor
1 5 acceptor
1 6 donor
1 7 acceptor
3 5 7 23 anion
6 15 16 21 22 25 26 rings
6 8 9 10 12 13 14 rings
6 9 10 15 16 17 18 rings

> <PUBCHEM_HEAVY_ATOM_COUNT>
28

> <PUBCHEM_ATOM_DEF_STEREO_COUNT>
0

> <PUBCHEM_ATOM_UDEF_STEREO_COUNT>
0

> <PUBCHEM_BOND_DEF_STEREO_COUNT>
1

> <PUBCHEM_BOND_UDEF_STEREO_COUNT>
0

> <PUBCHEM_ISOTOPIC_ATOM_COUNT>
0

> <PUBCHEM_COMPONENT_COUNT>
1

> <PUBCHEM_CACTVS_TAUTO_COUNT>
998

> <PUBCHEM_CONFORMER_ID>
060E6AA000000001

> <PUBCHEM_MMFF94_ENERGY>
82.9715

> <PUBCHEM_FEATURE_SELFOVERLAP>
66.07

> <PUBCHEM_SHAPE_FINGERPRINT>
10369192 42 16626273472372005000
10622 236 18128519634839487607
10693767 8 18198891694963707223
11135609 187 18117277175700381676
11578080 2 16155673398631926182
11607047 403 16980935301375247770
12166972 35 17603590758903435030
12236239 1 18202285831375831163
12403260 363 18408041810590114426
12788726 201 18060419097903537603
13140716 1 18336279971783992944
13583140 156 14996288058270133168
14068700 675 17775277292748032937
14117953 113 18271805683947319711
15183329 4 18336537254026959447
15196674 1 18335990796357876304
15250474 111 18412543202061573298
16087824 20 18266176129470535789
17349148 13 18040430014331864666
17857418 61 18343020007973685862
18681886 176 18412259515930637914
19591789 44 18408609171242820696
200 152 18342175583449553979
20028762 73 18342454829544914942
20775438 99 17263536195157687471
21033648 29 15430036595034292918
21236236 1 18411140199601868417
21267235 1 18336838523516608731
21709351 56 18334014948060927974
221357 26 18335134297958112349
22393880 68 18261667086937043460
23402539 116 18337673018983382074
23557571 272 17846500300908544179
23559900 14 18339354296774345833
23622692 118 18342452647326144005
25147074 1 18340498802416224169
2871803 45 18261109681754713794
3004659 81 18260542338013124078
335352 9 18190749639539715052
34797466 226 16917072196006371000
34934 24 18117279142636381081
350125 39 18410859845833441065
463206 1 18339082712996502251
5104073 3 18408610245079961312
5283173 99 18041551439162892677
7495541 125 17346597517145735898
9709674 26 18334870415394188946

> <PUBCHEM_SHAPE_MULTIPOLES>
535.14
13.19
3.27
1
1.93
0.18
0
-5.38
-3.73
-1.17
-0.41
-0.93
-0.09
-1.61

> <PUBCHEM_SHAPE_SELFOVERLAP>
1182.724

> <PUBCHEM_SHAPE_VOLUME>
284.3

> <PUBCHEM_COORDINATE_TYPE>
2
5
10

$$$$
