101638
  -OEChem-03292013323D

 37 38  0     1  0  0  0  0  0999 V2000
    0.6913    0.4953    1.4564 O   0  0  0  0  0  0  0  0  0  0  0  0
    0.7459   -2.3570   -0.5939 O   0  0  0  0  0  0  0  0  0  0  0  0
   -0.8774   -3.4572    0.5305 O   0  0  0  0  0  0  0  0  0  0  0  0
   -0.4434   -0.0339   -0.4952 N   0  0  0  0  0  0  0  0  0  0  0  0
    0.3710    2.9648   -0.4876 N   0  0  0  0  0  0  0  0  0  0  0  0
   -3.3323    1.0830   -0.3585 N   0  0  0  0  0  0  0  0  0  0  0  0
    4.4256    0.6143    0.9222 N   0  0  0  0  0  0  0  0  0  0  0  0
   -5.3617    0.8739    0.5189 N   0  0  0  0  0  0  0  0  0  0  0  0
    4.5406   -1.0702   -0.5204 N   0  0  0  0  0  0  0  0  0  0  0  0
   -1.2252   -1.1083    0.0680 C   0  0  1  0  0  0  0  0  0  0  0  0
    1.1923    1.7550   -0.5517 C   0  0  1  0  0  0  0  0  0  0  0  0
   -2.5669   -1.2677   -0.6601 C   0  0  0  0  0  0  0  0  0  0  0  0
    2.5843    2.0368    0.0341 C   0  0  0  0  0  0  0  0  0  0  0  0
    0.4654    0.6894    0.2630 C   0  0  0  0  0  0  0  0  0  0  0  0
   -3.5823   -0.2325   -0.2348 C   0  0  0  0  0  0  0  0  0  0  0  0
    3.4860    0.8238   -0.0158 C   0  0  0  0  0  0  0  0  0  0  0  0
   -0.4544   -2.4199    0.0310 C   0  0  0  0  0  0  0  0  0  0  0  0
   -4.8134   -0.3646    0.2980 C   0  0  0  0  0  0  0  0  0  0  0  0
    3.5514   -0.1954   -0.8944 C   0  0  0  0  0  0  0  0  0  0  0  0
   -4.4443    1.7235    0.1133 C   0  0  0  0  0  0  0  0  0  0  0  0
    5.0475   -0.5532    0.5767 C   0  0  0  0  0  0  0  0  0  0  0  0
   -1.3875   -0.8875    1.1312 H   0  0  0  0  0  0  0  0  0  0  0  0
    1.2764    1.4398   -1.5978 H   0  0  0  0  0  0  0  0  0  0  0  0
   -2.9934   -2.2586   -0.4568 H   0  0  0  0  0  0  0  0  0  0  0  0
   -2.4298   -1.2098   -1.7478 H   0  0  0  0  0  0  0  0  0  0  0  0
    3.0682    2.8427   -0.5332 H   0  0  0  0  0  0  0  0  0  0  0  0
    2.5026    2.3833    1.0734 H   0  0  0  0  0  0  0  0  0  0  0  0
   -0.5170    0.1480   -1.4921 H   0  0  0  0  0  0  0  0  0  0  0  0
    0.2605    3.2645    0.4802 H   0  0  0  0  0  0  0  0  0  0  0  0
   -0.5639    2.7693   -0.8427 H   0  0  0  0  0  0  0  0  0  0  0  0
   -2.4980    1.5217   -0.7259 H   0  0  0  0  0  0  0  0  0  0  0  0
    4.6396    1.1935    1.7240 H   0  0  0  0  0  0  0  0  0  0  0  0
   -5.3535   -1.2677    0.5422 H   0  0  0  0  0  0  0  0  0  0  0  0
    2.9600   -0.3732   -1.7806 H   0  0  0  0  0  0  0  0  0  0  0  0
   -4.5211    2.8013    0.1329 H   0  0  0  0  0  0  0  0  0  0  0  0
    5.8551   -0.9688    1.1623 H   0  0  0  0  0  0  0  0  0  0  0  0
    1.2078   -3.2224   -0.5901 H   0  0  0  0  0  0  0  0  0  0  0  0
  1 14  2  0  0  0  0
  2 17  1  0  0  0  0
  2 37  1  0  0  0  0
  3 17  2  0  0  0  0
  4 10  1  0  0  0  0
  4 14  1  0  0  0  0
  4 28  1  0  0  0  0
  5 11  1  0  0  0  0
  5 29  1  0  0  0  0
  5 30  1  0  0  0  0
  6 15  1  0  0  0  0
  6 20  1  0  0  0  0
  6 31  1  0  0  0  0
  7 16  1  0  0  0  0
  7 21  1  0  0  0  0
  7 32  1  0  0  0  0
  8 18  1  0  0  0  0
  8 20  2  0  0  0  0
  9 19  1  0  0  0  0
  9 21  2  0  0  0  0
 10 12  1  0  0  0  0
 10 17  1  0  0  0  0
 10 22  1  0  0  0  0
 11 13  1  0  0  0  0
 11 14  1  0  0  0  0
 11 23  1  0  0  0  0
 12 15  1  0  0  0  0
 12 24  1  0  0  0  0
 12 25  1  0  0  0  0
 13 16  1  0  0  0  0
 13 26  1  0  0  0  0
 13 27  1  0  0  0  0
 15 18  2  0  0  0  0
 16 19  2  0  0  0  0
 18 33  1  0  0  0  0
 19 34  1  0  0  0  0
 20 35  1  0  0  0  0
 21 36  1  0  0  0  0
M  END
> <PUBCHEM_COMPOUND_CID>
101638

> <PUBCHEM_CONFORMER_RMSD>
1

> <PUBCHEM_CONFORMER_DIVERSEORDER>
1
162
140
48
231
291
128
346
184
129
5
159
335
171
315
168
10
225
232
303
119
22
289
244
241
120
160
208
253
276
345
14
348
98
82
332
144
344
38
325
113
236
164
114
260
309
227
239
116
34
287
182
247
149
264
233
327
351
141
71
35
104
263
189
103
329
150
57
136
137
130
25
85
281
170
312
21
308
179
146
235
15
292
256
28
100
134
202
97
101
87
273
196
89
47
42
17
165
266
347
154
72
337
243
320
173
143
213
23
91
16
300
123
272
299
301
222
217
33
319
174
201
99
248
197
298
172
166
84
250
318
321
148
198
310
324
205
262
206
340
125
27
132
219
29
135
229
339
216
74
131
86
322
54
185
67
294
115
7
56
18
316
133
169
152
66
107
220
193
259
106
39
76
75
147
158
32
293
221
336
254
304
59
83
60
45
31
3
268
112
277
142
302
110
349
167
286
207
209
63
90
49
343
94
61
157
127
177
20
195
210
109
269
342
46
78
305
163
228
11
96
283
70
176
211
12
311
296
215
183
242
191
73
102
8
24
314
80
117
326
237
53
255
192
2
238
306
180
230
50
41
252
223
279
155
151
224
121
265
249
290
328
13
251
161
40
323
19
92
218
178
338
145
330
333
118
124
122
245
51
275
234
199
77
258
271
6
138
65
285
226
280
194
44
278
240
313
317
55
9
212
181
270
153
200
58
187
295
139
334
64
108
267
297
257
37
274
214
81
43
69
175
190
331
203
52
282
246
186
261
156
93
126
79
36
307
288
111
352
68
95
350
62
341
88
30
26
188
284
105
4
204

> <PUBCHEM_MMFF94_PARTIAL_CHARGES>
31
1 -0.57
10 0.36
11 0.33
12 0.18
13 0.18
14 0.57
15 -0.33
16 -0.33
17 0.66
18 0.08
19 0.08
2 -0.65
20 0.04
21 0.04
28 0.37
29 0.36
3 -0.57
30 0.36
31 0.27
32 0.27
33 0.15
34 0.15
35 0.15
36 0.15
37 0.5
4 -0.73
5 -0.99
6 0.03
7 0.03
8 -0.57
9 -0.57

> <PUBCHEM_EFFECTIVE_ROTOR_COUNT>
8

> <PUBCHEM_PHARMACOPHORE_FEATURES>
13
1 1 acceptor
1 2 acceptor
1 3 acceptor
1 4 donor
1 5 cation
1 5 donor
1 6 donor
1 7 donor
3 2 3 17 anion
3 6 8 20 cation
3 7 9 21 cation
5 6 8 15 18 20 rings
5 7 9 16 19 21 rings

> <PUBCHEM_HEAVY_ATOM_COUNT>
21

> <PUBCHEM_ATOM_DEF_STEREO_COUNT>
0

> <PUBCHEM_ATOM_UDEF_STEREO_COUNT>
2

> <PUBCHEM_BOND_DEF_STEREO_COUNT>
0

> <PUBCHEM_BOND_UDEF_STEREO_COUNT>
0

> <PUBCHEM_ISOTOPIC_ATOM_COUNT>
0

> <PUBCHEM_COMPONENT_COUNT>
1

> <PUBCHEM_CACTVS_TAUTO_COUNT>
8

> <PUBCHEM_CONFORMER_ID>
00018D0600000001

> <PUBCHEM_MMFF94_ENERGY>
23.5054

> <PUBCHEM_FEATURE_SELFOVERLAP>
66.032

> <PUBCHEM_SHAPE_FINGERPRINT>
10062212 137 18131061679852257767
10922049 32 18334297582631517611
11458722 120 18410575067530916473
11578080 2 17414710170621089104
12403260 363 18267581493485708479
12592029 89 18334016064330704819
12788726 201 18130802135321685656
13177829 73 18201722808497812329
13544592 145 18271812311218552206
13583140 156 16128080277943021070
13675066 3 18201438124721186089
14178342 30 17762604488950676784
14251751 93 18409161104589498341
14466204 15 18339641140149102497
14790565 3 18408328765333905636
15099037 51 18409450293100541318
15196674 1 18411982498243555524
15256400 18 18412263921696859541
15295992 7 17986957538748350289
15442244 35 18265330792772233140
15885798 251 18335419062985675900
1601671 61 18409728422176337648
17093844 170 18341049632113951468
1813 80 17385722495832425684
19141452 34 18341890822669998062
19591789 44 18336543811418770309
19784866 9 18341614772368747233
20832881 197 18059858316386458810
21279426 13 18197219135507435516
21330990 113 18261675857160165404
21524375 3 18342176713284669087
23402539 116 18272081704114947941
23558518 356 17901384820327160523
23559900 14 17988640839764399912
3004659 81 18333456418145903478
3084891 72 18341896277146504113
335352 9 18411138022264647614
34934 24 18264487455159864880
350125 39 18339083804319148083
3680242 22 18336265622514521794
38695281 34 17988642952656428599
495365 180 17131261476365545424
5104073 3 18339079414113141809
532947 4 18270407074670394279
5385378 56 18267873774716037547
59755656 215 18264206920533085613
6138700 20 18339365137324736710
6430166 295 18411698794395238877
7164475 11 17834954552802135159
7226269 152 18060418006254266736
9709674 26 18197780110050499366
9996256 80 18272934972994775775

> <PUBCHEM_SHAPE_MULTIPOLES>
384.68
10.47
2.85
0.88
1.62
1
0.08
-1.92
1.16
0.39
-0.12
-0.35
0
0

> <PUBCHEM_SHAPE_SELFOVERLAP>
810.968

> <PUBCHEM_SHAPE_VOLUME>
218.5

> <PUBCHEM_COORDINATE_TYPE>
2
5
10

$$$$
