101672936
  -OEChem-03292013293D

 58 64  0     1  0  0  0  0  0999 V2000
    1.6001    1.3335   -1.8640 S   0  0  0  0  0  0  0  0  0  0  0  0
    3.1782    2.0782   -0.7599 S   0  0  0  0  0  0  0  0  0  0  0  0
    0.3125   -2.4572   -1.3830 O   0  0  0  0  0  0  0  0  0  0  0  0
    2.0636    0.7782    2.3356 O   0  0  0  0  0  0  0  0  0  0  0  0
    2.8770   -1.8784   -2.1679 O   0  0  0  0  0  0  0  0  0  0  0  0
    1.2228   -0.1475    0.3803 N   0  0  0  0  0  0  0  0  0  0  0  0
   -0.2990   -1.4988    1.6509 N   0  0  0  0  0  0  0  0  0  0  0  0
    3.7387   -0.5815   -0.4200 N   0  0  0  0  0  0  0  0  0  0  0  0
   -2.7254    2.2808   -2.1332 N   0  0  0  0  0  0  0  0  0  0  0  0
   -0.9996   -0.5665   -0.5050 C   0  0  1  0  0  0  0  0  0  0  0  0
   -0.1545   -0.3189    0.8082 C   0  0  2  0  0  0  0  0  0  0  0  0
    1.3992   -0.3062   -1.0572 C   0  0  1  0  0  0  0  0  0  0  0  0
    0.1203   -1.0400   -1.5097 C   0  0  1  0  0  0  0  0  0  0  0  0
   -1.8812   -1.7112   -0.0369 C   0  0  0  0  0  0  0  0  0  0  0  0
    3.5056    0.6493    0.3720 C   0  0  2  0  0  0  0  0  0  0  0  0
   -1.8383    0.6478   -0.9194 C   0  0  0  0  0  0  0  0  0  0  0  0
    2.2191    0.4112    1.1737 C   0  0  0  0  0  0  0  0  0  0  0  0
    2.7176   -1.0565   -1.2674 C   0  0  0  0  0  0  0  0  0  0  0  0
   -1.4319   -2.1765    1.2060 C   0  0  0  0  0  0  0  0  0  0  0  0
    4.6502    1.0422    1.3115 C   0  0  0  0  0  0  0  0  0  0  0  0
   -2.7365    1.3791   -0.0926 C   0  0  0  0  0  0  0  0  0  0  0  0
   -2.9527   -2.3082   -0.6850 C   0  0  0  0  0  0  0  0  0  0  0  0
   -1.8533    1.2260   -2.1678 C   0  0  0  0  0  0  0  0  0  0  0  0
    5.0712   -1.1657   -0.5046 C   0  0  0  0  0  0  0  0  0  0  0  0
   -2.0329   -3.2680    1.8094 C   0  0  0  0  0  0  0  0  0  0  0  0
   -3.2795    2.3979   -0.8784 C   0  0  0  0  0  0  0  0  0  0  0  0
    5.9396    1.2456    0.5226 C   0  0  0  0  0  0  0  0  0  0  0  0
    4.2885    2.3017    2.0919 C   0  0  0  0  0  0  0  0  0  0  0  0
   -3.5793   -3.3903   -0.0656 C   0  0  0  0  0  0  0  0  0  0  0  0
   -3.1216   -3.8680    1.1716 C   0  0  0  0  0  0  0  0  0  0  0  0
   -3.1407    1.2717    1.2528 C   0  0  0  0  0  0  0  0  0  0  0  0
   -4.2104    3.3185   -0.3839 C   0  0  0  0  0  0  0  0  0  0  0  0
   -4.0711    2.1855    1.7612 C   0  0  0  0  0  0  0  0  0  0  0  0
   -4.5964    3.1923    0.9537 C   0  0  0  0  0  0  0  0  0  0  0  0
   -0.4500    0.5719    1.3718 H   0  0  0  0  0  0  0  0  0  0  0  0
   -0.1372   -0.8637   -2.5582 H   0  0  0  0  0  0  0  0  0  0  0  0
    0.0072   -1.5325    2.6128 H   0  0  0  0  0  0  0  0  0  0  0  0
    4.8226    0.2468    2.0492 H   0  0  0  0  0  0  0  0  0  0  0  0
    0.9088   -2.7357   -2.0986 H   0  0  0  0  0  0  0  0  0  0  0  0
   -3.2948   -1.9553   -1.6518 H   0  0  0  0  0  0  0  0  0  0  0  0
   -1.3413    0.9880   -3.0889 H   0  0  0  0  0  0  0  0  0  0  0  0
    5.7076   -0.5785   -1.1678 H   0  0  0  0  0  0  0  0  0  0  0  0
    4.9957   -2.1554   -0.9699 H   0  0  0  0  0  0  0  0  0  0  0  0
    5.4848   -1.3391    0.4899 H   0  0  0  0  0  0  0  0  0  0  0  0
   -1.6727   -3.6553    2.7570 H   0  0  0  0  0  0  0  0  0  0  0  0
    6.4931    2.1091    0.9152 H   0  0  0  0  0  0  0  0  0  0  0  0
    3.5683    2.1612    2.8971 H   0  0  0  0  0  0  0  0  0  0  0  0
    5.1846    2.6458    2.6281 H   0  0  0  0  0  0  0  0  0  0  0  0
    6.6405    0.4164    0.6606 H   0  0  0  0  0  0  0  0  0  0  0  0
    5.8252    1.4490   -0.5446 H   0  0  0  0  0  0  0  0  0  0  0  0
    3.9774    3.1590    1.4915 H   0  0  0  0  0  0  0  0  0  0  0  0
   -2.9355    2.8845   -2.9160 H   0  0  0  0  0  0  0  0  0  0  0  0
   -4.4221   -3.8756   -0.5502 H   0  0  0  0  0  0  0  0  0  0  0  0
   -3.6136   -4.7201    1.6330 H   0  0  0  0  0  0  0  0  0  0  0  0
   -2.7570    0.4946    1.9058 H   0  0  0  0  0  0  0  0  0  0  0  0
   -4.6199    4.1025   -1.0118 H   0  0  0  0  0  0  0  0  0  0  0  0
   -4.3881    2.1064    2.7977 H   0  0  0  0  0  0  0  0  0  0  0  0
   -5.3182    3.8910    1.3690 H   0  0  0  0  0  0  0  0  0  0  0  0
  1  2  1  0  0  0  0
  1 12  1  0  0  0  0
  2 15  1  0  0  0  0
  3 13  1  0  0  0  0
  3 39  1  0  0  0  0
  4 17  2  0  0  0  0
  5 18  2  0  0  0  0
  6 11  1  0  0  0  0
  6 12  1  0  0  0  0
  6 17  1  0  0  0  0
  7 11  1  0  0  0  0
  7 19  1  0  0  0  0
  7 37  1  0  0  0  0
  8 15  1  0  0  0  0
  8 18  1  0  0  0  0
  8 24  1  0  0  0  0
  9 23  1  0  0  0  0
  9 26  1  0  0  0  0
  9 52  1  0  0  0  0
 10 11  1  0  0  0  0
 10 13  1  0  0  0  0
 10 14  1  0  0  0  0
 10 16  1  0  0  0  0
 11 35  1  0  0  0  0
 12 13  1  0  0  0  0
 12 18  1  0  0  0  0
 13 36  1  0  0  0  0
 14 19  1  0  0  0  0
 14 22  2  0  0  0  0
 15 17  1  0  0  0  0
 15 20  1  0  0  0  0
 16 21  1  0  0  0  0
 16 23  2  0  0  0  0
 19 25  2  0  0  0  0
 20 27  1  0  0  0  0
 20 28  1  0  0  0  0
 20 38  1  0  0  0  0
 21 26  1  0  0  0  0
 21 31  2  0  0  0  0
 22 29  1  0  0  0  0
 22 40  1  0  0  0  0
 23 41  1  0  0  0  0
 24 42  1  0  0  0  0
 24 43  1  0  0  0  0
 24 44  1  0  0  0  0
 25 30  1  0  0  0  0
 25 45  1  0  0  0  0
 26 32  2  0  0  0  0
 27 46  1  0  0  0  0
 27 49  1  0  0  0  0
 27 50  1  0  0  0  0
 28 47  1  0  0  0  0
 28 48  1  0  0  0  0
 28 51  1  0  0  0  0
 29 30  2  0  0  0  0
 29 53  1  0  0  0  0
 30 54  1  0  0  0  0
 31 33  1  0  0  0  0
 31 55  1  0  0  0  0
 32 34  1  0  0  0  0
 32 56  1  0  0  0  0
 33 34  2  0  0  0  0
 33 57  1  0  0  0  0
 34 58  1  0  0  0  0
M  END
> <PUBCHEM_COMPOUND_CID>
101672936

> <PUBCHEM_CONFORMER_RMSD>
0.8

> <PUBCHEM_CONFORMER_DIVERSEORDER>
4
2
5
1
3

> <PUBCHEM_MMFF94_PARTIAL_CHARGES>
42
1 -0.23
10 0.32
11 0.67
12 0.59
13 0.28
14 -0.14
15 0.59
16 -0.18
17 0.57
18 0.57
19 0.1
2 -0.23
22 -0.15
23 -0.3
24 0.3
25 -0.15
26 -0.15
29 -0.15
3 -0.68
30 -0.15
31 -0.15
32 -0.15
33 -0.15
34 -0.15
37 0.4
39 0.4
4 -0.57
40 0.15
41 0.15
45 0.15
5 -0.57
52 0.27
53 0.15
54 0.15
55 0.15
56 0.15
57 0.15
58 0.15
6 -0.66
7 -0.87
8 -0.66
9 0.03

> <PUBCHEM_EFFECTIVE_ROTOR_COUNT>
3

> <PUBCHEM_PHARMACOPHORE_FEATURES>
15
1 3 acceptor
1 3 donor
1 4 acceptor
1 5 acceptor
1 7 cation
1 7 donor
1 9 cation
1 9 donor
3 20 27 28 hydrophobe
5 6 10 11 12 13 rings
5 7 10 11 14 19 rings
5 9 16 21 23 26 rings
6 14 19 22 25 29 30 rings
6 21 26 31 32 33 34 rings
8 1 2 6 8 12 15 17 18 rings

> <PUBCHEM_HEAVY_ATOM_COUNT>
34

> <PUBCHEM_ATOM_DEF_STEREO_COUNT>
5

> <PUBCHEM_ATOM_UDEF_STEREO_COUNT>
0

> <PUBCHEM_BOND_DEF_STEREO_COUNT>
0

> <PUBCHEM_BOND_UDEF_STEREO_COUNT>
0

> <PUBCHEM_ISOTOPIC_ATOM_COUNT>
0

> <PUBCHEM_COMPONENT_COUNT>
1

> <PUBCHEM_CACTVS_TAUTO_COUNT>
21

> <PUBCHEM_CONFORMER_ID>
060F67E800000004

> <PUBCHEM_MMFF94_ENERGY>
151.7298

> <PUBCHEM_FEATURE_SELFOVERLAP>
76.771

> <PUBCHEM_SHAPE_FINGERPRINT>
10006869 2 17905052804324031365
10074138 170 18186806911222901427
10165383 225 17975721414607228877
10930396 42 17620157242464861226
11578080 2 18200897122340888596
12160290 23 18040724683960123223
12422481 6 18266766703951316387
12633046 712 17270363866128776494
12633257 1 18040991860843292028
12788726 201 18044381762238431171
131258 38 15077124320990516939
13140716 1 18342741784651241190
13149001 5 17982757189355638439
13540713 4 18130803247670443838
13583140 156 17704076230583357986
13692114 37 18412268316339875687
14028597 1 17749665303140049283
14068700 675 17244682792119015298
14178342 30 18187363255221429642
14468879 13 17988064673420927712
14705955 166 18340764961148966504
14713325 29 18271523195041360857
14955137 171 16226331387930648140
15219462 58 18049127194400138802
15338160 23 18265901430685913896
17349148 13 16661196087420635018
18393751 57 17331398087631776584
20600515 1 17681825542832421451
21033648 144 18341601608452961524
21033648 29 18189892011506231620
21049683 118 18265880385873028953
21344244 78 17690588668039360347
22182313 1 18059866094635554974
22393880 68 15840968045436199252
23557571 272 18265325282387117027
23559900 14 17461428411253591926
24893989 43 13931292295598827977
25222932 49 14784111975813421025
27425 322 18200306607630954741
283562 15 18263351650721237243
3380486 145 17768237274071801791
3380486 77 16807004557594407135
3729539 64 17472441853846367239
376196 1 17985819346466121973
460360 51 16950826021631232754
469060 322 17483937642950789047
474 4 17987790796347293869
5081480 168 15551955946793166636
5104073 3 18410845578326325178
5265222 85 17752516203700088358
57527585 21 18055903531833441701
59755656 520 18337952269151053445
6009941 240 18412538787757651536
6523845 18 18117565015976256821
7288768 16 18342174419524564273
7399639 24 17912639408785518280
81228 2 18261398905327459335
9658208 31 18265348221981401575
9981440 41 17630295693218810162

> <PUBCHEM_SHAPE_MULTIPOLES>
669.87
9.87
4.3
2.2
8.31
1.33
-0.03
-4.99
-2.81
-6.94
-0.76
0.39
-0.39
1.67

> <PUBCHEM_SHAPE_SELFOVERLAP>
1500.611

> <PUBCHEM_SHAPE_VOLUME>
360.2

> <PUBCHEM_COORDINATE_TYPE>
2
5
10

$$$$
