101610367
  -OEChem-03292013293D

 54 57  0     1  0  0  0  0  0999 V2000
    2.1452   -4.5483   -0.3896 S   0  0  0  0  0  0  0  0  0  0  0  0
   -2.0110    1.8472    2.1669 O   0  0  0  0  0  0  0  0  0  0  0  0
    1.1456   -2.7754    2.0797 O   0  0  0  0  0  0  0  0  0  0  0  0
    4.5850    1.0667   -1.3637 O   0  0  0  0  0  0  0  0  0  0  0  0
    0.6953   -0.5617    1.6805 N   0  0  0  0  0  0  0  0  0  0  0  0
   -3.8014    1.1473    0.7973 N   0  0  0  0  0  0  0  0  0  0  0  0
    2.5532   -0.5646   -0.2853 N   0  0  0  0  0  0  0  0  0  0  0  0
   -0.5044    0.5789   -0.1455 C   0  0  1  0  0  0  0  0  0  0  0  0
    0.6951    0.6034    0.7995 C   0  0  2  0  0  0  0  0  0  0  0  0
   -1.7330    0.0209    0.5529 C   0  0  2  0  0  0  0  0  0  0  0  0
    2.0141    0.6570    0.0593 C   0  0  0  0  0  0  0  0  0  0  0  0
   -2.7735   -0.5037   -0.3941 C   0  0  0  0  0  0  0  0  0  0  0  0
   -2.4928    1.1318    1.3006 C   0  0  0  0  0  0  0  0  0  0  0  0
   -0.7763    1.9829   -0.6887 C   0  0  0  0  0  0  0  0  0  0  0  0
    1.9174   -1.8405   -0.0169 C   0  0  2  0  0  0  0  0  0  0  0  0
   -3.9728    0.1837   -0.2049 C   0  0  0  0  0  0  0  0  0  0  0  0
    2.6083    1.8333   -0.1978 C   0  0  0  0  0  0  0  0  0  0  0  0
    1.2383   -1.7907    1.3480 C   0  0  0  0  0  0  0  0  0  0  0  0
   -2.6773   -1.5164   -1.3326 C   0  0  0  0  0  0  0  0  0  0  0  0
    2.1517    3.2093    0.1510 C   0  0  0  0  0  0  0  0  0  0  0  0
    2.9526   -2.9559   -0.0839 C   0  0  0  0  0  0  0  0  0  0  0  0
   -5.1055   -0.1083   -0.9451 C   0  0  0  0  0  0  0  0  0  0  0  0
   -4.8523    2.0382    1.2289 C   0  0  0  0  0  0  0  0  0  0  0  0
    3.8997    1.9671   -0.9173 C   0  0  0  0  0  0  0  0  0  0  0  0
   -3.8106   -1.8246   -2.0896 C   0  0  0  0  0  0  0  0  0  0  0  0
   -5.0144   -1.1258   -1.8976 C   0  0  0  0  0  0  0  0  0  0  0  0
    3.2350    4.0788   -0.4030 C   0  0  0  0  0  0  0  0  0  0  0  0
    4.2215    3.4038   -1.0034 C   0  0  0  0  0  0  0  0  0  0  0  0
    3.4673   -5.6343    0.1946 C   0  0  0  0  0  0  0  0  0  0  0  0
   -0.2687   -0.0655   -1.0028 H   0  0  0  0  0  0  0  0  0  0  0  0
    0.6115    1.4518    1.4893 H   0  0  0  0  0  0  0  0  0  0  0  0
   -1.5538   -0.7915    1.2622 H   0  0  0  0  0  0  0  0  0  0  0  0
   -1.7315    2.0291   -1.2241 H   0  0  0  0  0  0  0  0  0  0  0  0
   -0.0262    2.2449   -1.4412 H   0  0  0  0  0  0  0  0  0  0  0  0
   -0.7896    2.7567    0.0837 H   0  0  0  0  0  0  0  0  0  0  0  0
    0.2333   -0.4783    2.5813 H   0  0  0  0  0  0  0  0  0  0  0  0
    1.1360   -1.9894   -0.7728 H   0  0  0  0  0  0  0  0  0  0  0  0
    3.4128   -0.5558   -0.8243 H   0  0  0  0  0  0  0  0  0  0  0  0
   -1.7522   -2.0631   -1.4795 H   0  0  0  0  0  0  0  0  0  0  0  0
    2.0793    3.3495    1.2338 H   0  0  0  0  0  0  0  0  0  0  0  0
    1.2221    3.5082   -0.3244 H   0  0  0  0  0  0  0  0  0  0  0  0
    3.5323   -3.0005    0.8453 H   0  0  0  0  0  0  0  0  0  0  0  0
    3.6572   -2.7892   -0.9062 H   0  0  0  0  0  0  0  0  0  0  0  0
   -6.0387    0.4249   -0.8032 H   0  0  0  0  0  0  0  0  0  0  0  0
   -5.6895    1.4506    1.6166 H   0  0  0  0  0  0  0  0  0  0  0  0
   -5.1818    2.6466    0.3816 H   0  0  0  0  0  0  0  0  0  0  0  0
   -4.4850    2.6988    2.0191 H   0  0  0  0  0  0  0  0  0  0  0  0
   -3.7625   -2.6148   -2.8341 H   0  0  0  0  0  0  0  0  0  0  0  0
   -5.8839   -1.3822   -2.4970 H   0  0  0  0  0  0  0  0  0  0  0  0
    3.2179    5.1571   -0.3209 H   0  0  0  0  0  0  0  0  0  0  0  0
    5.1021    3.8080   -1.4726 H   0  0  0  0  0  0  0  0  0  0  0  0
    3.1660   -6.6757    0.0541 H   0  0  0  0  0  0  0  0  0  0  0  0
    3.6549   -5.4688    1.2588 H   0  0  0  0  0  0  0  0  0  0  0  0
    4.3842   -5.4581   -0.3738 H   0  0  0  0  0  0  0  0  0  0  0  0
  1 21  1  0  0  0  0
  1 29  1  0  0  0  0
  2 13  2  0  0  0  0
  3 18  2  0  0  0  0
  4 24  2  0  0  0  0
  5  9  1  0  0  0  0
  5 18  1  0  0  0  0
  5 36  1  0  0  0  0
  6 13  1  0  0  0  0
  6 16  1  0  0  0  0
  6 23  1  0  0  0  0
  7 11  1  0  0  0  0
  7 15  1  0  0  0  0
  7 38  1  0  0  0  0
  8  9  1  0  0  0  0
  8 10  1  0  0  0  0
  8 14  1  0  0  0  0
  8 30  1  0  0  0  0
  9 11  1  0  0  0  0
  9 31  1  0  0  0  0
 10 12  1  0  0  0  0
 10 13  1  0  0  0  0
 10 32  1  0  0  0  0
 11 17  2  0  0  0  0
 12 16  1  0  0  0  0
 12 19  2  0  0  0  0
 14 33  1  0  0  0  0
 14 34  1  0  0  0  0
 14 35  1  0  0  0  0
 15 18  1  0  0  0  0
 15 21  1  0  0  0  0
 15 37  1  0  0  0  0
 16 22  2  0  0  0  0
 17 20  1  0  0  0  0
 17 24  1  0  0  0  0
 19 25  1  0  0  0  0
 19 39  1  0  0  0  0
 20 27  1  0  0  0  0
 20 40  1  0  0  0  0
 20 41  1  0  0  0  0
 21 42  1  0  0  0  0
 21 43  1  0  0  0  0
 22 26  1  0  0  0  0
 22 44  1  0  0  0  0
 23 45  1  0  0  0  0
 23 46  1  0  0  0  0
 23 47  1  0  0  0  0
 24 28  1  0  0  0  0
 25 26  2  0  0  0  0
 25 48  1  0  0  0  0
 26 49  1  0  0  0  0
 27 28  2  0  0  0  0
 27 50  1  0  0  0  0
 28 51  1  0  0  0  0
 29 52  1  0  0  0  0
 29 53  1  0  0  0  0
 29 54  1  0  0  0  0
M  END
> <PUBCHEM_COMPOUND_CID>
101610367

> <PUBCHEM_CONFORMER_RMSD>
0.8

> <PUBCHEM_CONFORMER_DIVERSEORDER>
3
109
89
1
17
88
56
105
110
98
79
4
72
33
90
84
104
30
10
21
69
20
37
62
26
92
2
80
91
78
67
61
111
63
52
7
108
28
59
13
53
48
100
81
74
12
65
58
71
9
96
64
83
76
25
82
73
16
70
101
97
57
85
11
68
29
32
19
60
54
99
55
94
49
93
44
8
95
34
77
75
23
102
86
22
40
35
14
45
107
66
18
15
24
27
50
36
43
87
42
46
103
39
38
6
106
41
5
51
47
31

> <PUBCHEM_MMFF94_PARTIAL_CHARGES>
35
1 -0.46
10 0.2
11 -0.04
12 -0.14
13 0.57
15 0.43
16 0.12
17 -0.12
18 0.57
19 -0.15
2 -0.57
20 0.28
21 0.23
22 -0.15
23 0.3
24 0.54
25 -0.15
26 -0.15
27 -0.29
28 -0.14
29 0.23
3 -0.57
36 0.37
38 0.4
39 0.15
4 -0.57
44 0.15
48 0.15
49 0.15
5 -0.73
50 0.15
51 0.15
6 -0.48
7 -0.87
9 0.44

> <PUBCHEM_EFFECTIVE_ROTOR_COUNT>
5.4

> <PUBCHEM_PHARMACOPHORE_FEATURES>
12
1 14 hydrophobe
1 2 acceptor
1 29 hydrophobe
1 3 acceptor
1 4 acceptor
1 5 donor
1 7 cation
1 7 donor
5 17 20 24 27 28 rings
5 6 10 12 13 16 rings
6 12 16 19 22 25 26 rings
6 5 7 9 11 15 18 rings

> <PUBCHEM_HEAVY_ATOM_COUNT>
29

> <PUBCHEM_ATOM_DEF_STEREO_COUNT>
0

> <PUBCHEM_ATOM_UDEF_STEREO_COUNT>
4

> <PUBCHEM_BOND_DEF_STEREO_COUNT>
1

> <PUBCHEM_BOND_UDEF_STEREO_COUNT>
0

> <PUBCHEM_ISOTOPIC_ATOM_COUNT>
0

> <PUBCHEM_COMPONENT_COUNT>
1

> <PUBCHEM_CACTVS_TAUTO_COUNT>
160

> <PUBCHEM_CONFORMER_ID>
060E737F00000003

> <PUBCHEM_MMFF94_ENERGY>
84.8578

> <PUBCHEM_FEATURE_SELFOVERLAP>
60.988

> <PUBCHEM_SHAPE_FINGERPRINT>
10622 236 18058145286114364591
10759866 29 18343016722729795759
10764073 3 13194499593585290584
10940486 97 17985541156823069959
11049842 53 16555117181315440525
11069576 57 18127101213283913191
11488393 25 18187912942611006326
11578080 2 17981002459340479489
12107183 9 17983021042408353609
12160290 23 17178020583369342074
12553582 1 17901381195607157651
12788726 201 17847064411273106193
12969540 114 17678447778207433820
13004483 165 17762336912430288898
13009979 54 17844811377976113011
13540713 5 18202000989577095201
13583140 156 17970638385696176697
13726171 33 17131007493353820745
15021287 119 18050857619733491635
15842332 3 18130798810768546153
17818456 19 17700695056461355897
1813 80 18049151181803276546
19319366 153 18126553742276425911
20028762 73 18343297102906720414
20511986 3 18272357703288275397
21033648 144 17896314895165896404
21033648 29 15719658970250642700
21781055 127 16269694971088843137
22393880 68 18270112543267066213
22907989 373 17179139898748662716
23559900 14 17131001862508783493
23566358 27 18410297973610751715
238 59 18335703887914980130
24771293 8 18342450423445584626
266924 1 18272089413713041425
340366 18 17982731870712870745
394222 165 17825924156291606042
4280585 95 17977371751559871298
4409770 3 17544196438304922090
4516262 110 18408608080601670221
469060 322 16590562438561318595
474 4 18334858376221517784
6034566 193 17463427348978700509
6058803 2 18201440242741638201
633830 44 18337118967780588324
70251023 43 18263075522783137167
9981440 41 18194401323724189296

> <PUBCHEM_SHAPE_MULTIPOLES>
568.1
9.88
5.86
1.69
7.77
5.99
0.23
-2.08
-3.83
-10.81
-0.25
1.36
0.19
-3.48

> <PUBCHEM_SHAPE_SELFOVERLAP>
1218.508

> <PUBCHEM_SHAPE_VOLUME>
316.7

> <PUBCHEM_COORDINATE_TYPE>
2
5
10

$$$$
