101656410
  -OEChem-03292013293D

 30 32  0     1  0  0  0  0  0999 V2000
   -1.2415   -2.2802   -0.1476 S   0  0  0  0  0  0  0  0  0  0  0  0
   -4.5421    0.4728   -0.1579 S   0  0  2  0  0  0  0  0  0  0  0  0
   -1.5043    1.5753   -0.0230 O   0  0  0  0  0  0  0  0  0  0  0  0
   -5.6224   -0.5628    0.0127 O   0  0  0  0  0  0  0  0  0  0  0  0
    1.6600   -1.3927   -0.0235 N   0  0  0  0  0  0  0  0  0  0  0  0
    1.2510    0.7958    0.0403 N   0  0  0  0  0  0  0  0  0  0  0  0
    3.5641    1.5257    0.1425 N   0  0  0  0  0  0  0  0  0  0  0  0
   -0.6751   -0.6659   -0.0742 C   0  0  0  0  0  0  0  0  0  0  0  0
    0.7137   -0.4033   -0.0195 C   0  0  0  0  0  0  0  0  0  0  0  0
   -1.7085    0.2450   -0.0758 C   0  0  0  0  0  0  0  0  0  0  0  0
   -2.9820   -0.3907   -0.1379 C   0  0  0  0  0  0  0  0  0  0  0  0
    2.8872   -0.7906    0.0380 C   0  0  0  0  0  0  0  0  0  0  0  0
    2.6040    0.5699    0.0770 C   0  0  0  0  0  0  0  0  0  0  0  0
   -2.8736   -1.7632   -0.1816 C   0  0  0  0  0  0  0  0  0  0  0  0
    4.1914   -1.2723    0.0638 C   0  0  0  0  0  0  0  0  0  0  0  0
    5.1883   -0.3025    0.1312 C   0  0  0  0  0  0  0  0  0  0  0  0
   -4.3737    1.3245    1.4346 C   0  0  0  0  0  0  0  0  0  0  0  0
    4.8277    1.0403    0.1671 C   0  0  0  0  0  0  0  0  0  0  0  0
   -1.3640    2.2748   -1.2663 C   0  0  0  0  0  0  0  0  0  0  0  0
    1.4866   -2.3886   -0.0643 H   0  0  0  0  0  0  0  0  0  0  0  0
   -3.6658   -2.4973   -0.2326 H   0  0  0  0  0  0  0  0  0  0  0  0
    4.4198   -2.3305    0.0338 H   0  0  0  0  0  0  0  0  0  0  0  0
    6.2339   -0.5917    0.1555 H   0  0  0  0  0  0  0  0  0  0  0  0
   -5.3404    1.7674    1.6875 H   0  0  0  0  0  0  0  0  0  0  0  0
   -3.6330    2.1225    1.3595 H   0  0  0  0  0  0  0  0  0  0  0  0
   -4.0913    0.6136    2.2151 H   0  0  0  0  0  0  0  0  0  0  0  0
    5.5995    1.8037    0.2198 H   0  0  0  0  0  0  0  0  0  0  0  0
   -1.1314    3.3196   -1.0439 H   0  0  0  0  0  0  0  0  0  0  0  0
   -2.3011    2.2349   -1.8297 H   0  0  0  0  0  0  0  0  0  0  0  0
   -0.5506    1.8514   -1.8634 H   0  0  0  0  0  0  0  0  0  0  0  0
  1  8  1  0  0  0  0
  1 14  1  0  0  0  0
  2  4  2  0  0  0  0
  2 11  1  0  0  0  0
  2 17  1  0  0  0  0
  3 10  1  0  0  0  0
  3 19  1  0  0  0  0
  5  9  1  0  0  0  0
  5 12  1  0  0  0  0
  5 20  1  0  0  0  0
  6  9  2  0  0  0  0
  6 13  1  0  0  0  0
  7 13  1  0  0  0  0
  7 18  2  0  0  0  0
  8  9  1  0  0  0  0
  8 10  2  0  0  0  0
 10 11  1  0  0  0  0
 11 14  2  0  0  0  0
 12 13  2  0  0  0  0
 12 15  1  0  0  0  0
 14 21  1  0  0  0  0
 15 16  2  0  0  0  0
 15 22  1  0  0  0  0
 16 18  1  0  0  0  0
 16 23  1  0  0  0  0
 17 24  1  0  0  0  0
 17 25  1  0  0  0  0
 17 26  1  0  0  0  0
 18 27  1  0  0  0  0
 19 28  1  0  0  0  0
 19 29  1  0  0  0  0
 19 30  1  0  0  0  0
M  END
> <PUBCHEM_COMPOUND_CID>
101656410

> <PUBCHEM_CONFORMER_RMSD>
0.6

> <PUBCHEM_CONFORMER_DIVERSEORDER>
1
25
6
35
33
38
36
13
24
15
3
4
20
8
27
16
37
34
28
11
9
5
26
12
10
17
29
22
30
2
19
32
31
21
7
14
23
18

> <PUBCHEM_MMFF94_PARTIAL_CHARGES>
24
1 -0.08
10 0.06
11 0.01
12 -0.15
13 0.48
14 -0.11
15 -0.15
16 -0.15
17 0.19
18 0.16
19 0.28
2 0.3
20 0.27
21 0.15
22 0.15
23 0.15
27 0.15
3 -0.34
4 -0.5
5 0.03
6 -0.57
7 -0.57
8 0.04
9 0.19

> <PUBCHEM_EFFECTIVE_ROTOR_COUNT>
3

> <PUBCHEM_PHARMACOPHORE_FEATURES>
8
1 3 acceptor
1 4 acceptor
1 5 donor
1 7 acceptor
3 5 6 9 cation
5 1 8 10 11 14 rings
5 5 6 9 12 13 rings
6 7 12 13 15 16 18 rings

> <PUBCHEM_HEAVY_ATOM_COUNT>
19

> <PUBCHEM_ATOM_DEF_STEREO_COUNT>
0

> <PUBCHEM_ATOM_UDEF_STEREO_COUNT>
1

> <PUBCHEM_BOND_DEF_STEREO_COUNT>
0

> <PUBCHEM_BOND_UDEF_STEREO_COUNT>
0

> <PUBCHEM_ISOTOPIC_ATOM_COUNT>
0

> <PUBCHEM_COMPONENT_COUNT>
1

> <PUBCHEM_CACTVS_TAUTO_COUNT>
5

> <PUBCHEM_CONFORMER_ID>
060F275A00000001

> <PUBCHEM_MMFF94_ENERGY>
42.9414

> <PUBCHEM_FEATURE_SELFOVERLAP>
40.725

> <PUBCHEM_SHAPE_FINGERPRINT>
10608611 8 18410285913717033532
11132069 177 18408882957790409829
12107183 9 17766002692343948795
12236239 1 18202001023472661891
12390115 104 18128550266656589713
12403259 415 18411689981571143096
12403814 3 18261109660533286165
12969540 114 18115847682130224095
13140716 1 18263367056304028513
14251764 18 18410007733291423514
15196674 1 18411417349298806374
15209294 21 18130514041704997577
17802600 8 18409442579518729628
17834072 33 18131066065050445615
1813 80 17095526192763247182
19050596 39 18408320008285368466
19141452 34 18341612650570870703
200 152 17846493738261799719
20510252 161 18341328881844318553
20645477 56 18407758118924982380
20645477 70 18202004287827707510
21033648 29 18187629302638897837
21267235 1 18410300211093651046
21652331 79 18334573542706650828
23402539 116 18340760520458834367
23402655 69 18271806852257135550
23557571 272 18341336608838578964
23559900 14 18342736326143485770
26918003 58 16950285117702360361
335352 9 18411136918188981678
34934 24 18333724728409684491
350125 39 18409730617089527980
3545911 37 18411136948512020318
4028521 119 18187353320692594183
4214541 1 18413107268547677403
474 4 17749394831679334324
5104073 3 18410571820804757810
5374978 207 18334569153365904608
542803 24 17703791413874093243
59755656 215 18342464703705935422
69090 78 18412259532198033055
77779 3 18412545439944866578
9709674 26 18412267250745257798

> <PUBCHEM_SHAPE_MULTIPOLES>
372.03
11.02
2.08
0.82
2.22
0.04
-0.05
-1.2
-1.66
-0.67
0.28
-0.64
-0.34
-0.24

> <PUBCHEM_SHAPE_SELFOVERLAP>
789.115

> <PUBCHEM_SHAPE_VOLUME>
212.2

> <PUBCHEM_COORDINATE_TYPE>
2
5
10

$$$$
