101686384
  -OEChem-03292013293D

 34 35  0     0  0  0  0  0  0999 V2000
    0.1602   -1.6899    0.7478 S   0  0  0  0  0  0  0  0  0  0  0  0
    2.5391   -1.1175    0.1777 O   0  0  0  0  0  0  0  0  0  0  0  0
    0.2403   -3.0451    0.2339 O   0  0  0  0  0  0  0  0  0  0  0  0
    0.3347   -1.4437    2.1670 O   0  0  0  0  0  0  0  0  0  0  0  0
    1.4814    2.6936    0.9723 O   0  0  0  0  0  0  0  0  0  0  0  0
    3.1955   -0.2720   -1.8729 O   0  0  0  0  0  0  0  0  0  0  0  0
    1.2144   -0.6734   -0.1675 N   0  0  0  0  0  0  0  0  0  0  0  0
    1.8433    1.3541    1.0499 N   0  0  0  0  0  0  0  0  0  0  0  0
   -5.2126    0.3893   -0.8171 N   0  0  0  0  0  0  0  0  0  0  0  0
   -1.4327   -1.0729    0.2842 C   0  0  0  0  0  0  0  0  0  0  0  0
    1.1346    0.7486    0.0927 C   0  0  0  0  0  0  0  0  0  0  0  0
   -1.9160   -1.2902   -1.0060 C   0  0  0  0  0  0  0  0  0  0  0  0
   -2.2046   -0.3697    1.2091 C   0  0  0  0  0  0  0  0  0  0  0  0
    0.3162    1.6465   -0.6142 C   0  0  0  0  0  0  0  0  0  0  0  0
   -3.1714   -0.8044   -1.3714 C   0  0  0  0  0  0  0  0  0  0  0  0
   -3.4600    0.1161    0.8436 C   0  0  0  0  0  0  0  0  0  0  0  0
   -3.9434   -0.1011   -0.4467 C   0  0  0  0  0  0  0  0  0  0  0  0
    0.5717    2.8550   -0.0223 C   0  0  0  0  0  0  0  0  0  0  0  0
    0.0766    4.2190   -0.2448 C   0  0  0  0  0  0  0  0  0  0  0  0
    3.4365   -0.8307   -0.8112 C   0  0  0  0  0  0  0  0  0  0  0  0
    4.7959   -1.3117   -0.4041 C   0  0  0  0  0  0  0  0  0  0  0  0
   -1.3247   -1.8327   -1.7386 H   0  0  0  0  0  0  0  0  0  0  0  0
   -1.8507   -0.1835    2.2187 H   0  0  0  0  0  0  0  0  0  0  0  0
   -0.3564    1.4520   -1.4364 H   0  0  0  0  0  0  0  0  0  0  0  0
   -3.5365   -0.9794   -2.3802 H   0  0  0  0  0  0  0  0  0  0  0  0
   -4.0518    0.6635    1.5728 H   0  0  0  0  0  0  0  0  0  0  0  0
   -0.4093    4.6039    0.6571 H   0  0  0  0  0  0  0  0  0  0  0  0
    0.9011    4.8901   -0.5047 H   0  0  0  0  0  0  0  0  0  0  0  0
   -0.6528    4.2464   -1.0603 H   0  0  0  0  0  0  0  0  0  0  0  0
   -5.7727    0.9004   -0.1480 H   0  0  0  0  0  0  0  0  0  0  0  0
   -5.5625    0.2328   -1.7530 H   0  0  0  0  0  0  0  0  0  0  0  0
    5.1097   -0.8042    0.5115 H   0  0  0  0  0  0  0  0  0  0  0  0
    5.5147   -1.0787   -1.1950 H   0  0  0  0  0  0  0  0  0  0  0  0
    4.7776   -2.3946   -0.2580 H   0  0  0  0  0  0  0  0  0  0  0  0
  1  3  2  0  0  0  0
  1  4  2  0  0  0  0
  1  7  1  0  0  0  0
  1 10  1  0  0  0  0
  2  7  1  0  0  0  0
  2 20  1  0  0  0  0
  5  8  1  0  0  0  0
  5 18  1  0  0  0  0
  6 20  2  0  0  0  0
  7 11  1  0  0  0  0
  8 11  2  0  0  0  0
  9 17  1  0  0  0  0
  9 30  1  0  0  0  0
  9 31  1  0  0  0  0
 10 12  2  0  0  0  0
 10 13  1  0  0  0  0
 11 14  1  0  0  0  0
 12 15  1  0  0  0  0
 12 22  1  0  0  0  0
 13 16  2  0  0  0  0
 13 23  1  0  0  0  0
 14 18  2  0  0  0  0
 14 24  1  0  0  0  0
 15 17  2  0  0  0  0
 15 25  1  0  0  0  0
 16 17  1  0  0  0  0
 16 26  1  0  0  0  0
 18 19  1  0  0  0  0
 19 27  1  0  0  0  0
 19 28  1  0  0  0  0
 19 29  1  0  0  0  0
 20 21  1  0  0  0  0
 21 32  1  0  0  0  0
 21 33  1  0  0  0  0
 21 34  1  0  0  0  0
M  END
> <PUBCHEM_COMPOUND_CID>
101686384

> <PUBCHEM_CONFORMER_RMSD>
0.8

> <PUBCHEM_CONFORMER_DIVERSEORDER>
1
26
32
39
25
51
18
40
2
30
31
44
36
42
8
55
5
10
63
59
46
6
50
60
54
35
53
12
34
56
11
14
4
3
38
58
24
23
22
48
37
19
57
9
16
47
45
13
15
61
49
41
20
28
7
33
21
17
29
43
52
27
62

> <PUBCHEM_MMFF94_PARTIAL_CHARGES>
28
1 1.45
10 -0.01
11 0.43
12 -0.15
13 -0.15
14 -0.15
15 -0.15
16 -0.15
17 0.1
18 -0.04
19 0.18
2 -0.07
20 0.66
21 0.06
22 0.15
23 0.15
24 0.15
25 0.15
26 0.15
3 -0.65
30 0.4
31 0.4
4 -0.65
5 -0.02
6 -0.57
7 -0.37
8 -0.41
9 -0.9

> <PUBCHEM_EFFECTIVE_ROTOR_COUNT>
5

> <PUBCHEM_PHARMACOPHORE_FEATURES>
8
1 3 acceptor
1 4 acceptor
1 6 acceptor
1 8 acceptor
1 9 cation
1 9 donor
5 5 8 11 14 18 rings
6 10 12 13 15 16 17 rings

> <PUBCHEM_HEAVY_ATOM_COUNT>
21

> <PUBCHEM_ATOM_DEF_STEREO_COUNT>
0

> <PUBCHEM_ATOM_UDEF_STEREO_COUNT>
0

> <PUBCHEM_BOND_DEF_STEREO_COUNT>
0

> <PUBCHEM_BOND_UDEF_STEREO_COUNT>
0

> <PUBCHEM_ISOTOPIC_ATOM_COUNT>
0

> <PUBCHEM_COMPONENT_COUNT>
1

> <PUBCHEM_CACTVS_TAUTO_COUNT>
4

> <PUBCHEM_CONFORMER_ID>
060F9C7000000001

> <PUBCHEM_MMFF94_ENERGY>
43.367

> <PUBCHEM_FEATURE_SELFOVERLAP>
40.615

> <PUBCHEM_SHAPE_FINGERPRINT>
10366900 7 17748821922028926315
104564 63 18192715531490320592
12654903 92 18202565085659238567
12788726 201 18265342720539797406
13134695 92 18412263956230561148
13149001 5 18191883407573566086
13464514 151 18193844970798654348
14181834 199 17702669994098168676
14250199 8 18270400619760971493
15210252 30 17894635811792524613
15238133 3 17751061545151606065
15490181 8 17762330714312017120
15848700 24 18343582919652027822
1601671 61 18197215850290178161
16752209 62 18191034408972703862
16945 1 18412266129336404163
17357779 13 18341886351408855804
17492 89 18056470888460322775
18186145 218 18339355362031535055
18981168 100 17902806488945829129
20233049 118 18187081741478860326
21285901 2 17987528004630945166
23175994 123 18261970577847652030
23402539 116 18343023246864642174
23419403 2 16519672435393133352
23493267 7 16153427238030892915
23558518 356 17612301253280310883
23559900 14 16343693340415234042
25 1 18186802465583791131
266924 87 18120943802397662406
2748010 2 18118409681192500627
3060560 45 18341883087434359247
3084891 72 18335143046854512682
3084891 8 18125444116000628566
3250762 1 17831029287706282482
3286 77 18189344631025171927
350125 39 17975710694079116835
474 4 18265883847611497953
7164475 11 18049162168677512766
7226269 152 18259700095627699866
74978 22 18268432502257904567
7832392 63 18341324548628115391
81228 2 18125185765628473048
9981440 41 17335324417182920448

> <PUBCHEM_SHAPE_MULTIPOLES>
391.73
7.02
3.46
1.39
1.89
4.19
-0.13
-2.55
2.65
-1.63
-0.31
0.09
-0.37
0.29

> <PUBCHEM_SHAPE_SELFOVERLAP>
812.894

> <PUBCHEM_SHAPE_VOLUME>
223.6

> <PUBCHEM_COORDINATE_TYPE>
2
5
10

$$$$
