101601578
  -OEChem-03292013293D

 51 54  0     1  0  0  0  0  0999 V2000
    1.0728   -0.4545   -1.2417 S   0  0  0  0  0  0  0  0  0  0  0  0
   -3.3835   -0.9561    0.4462 S   0  0  0  0  0  0  0  0  0  0  0  0
    0.9665    3.6449    0.9655 O   0  0  0  0  0  0  0  0  0  0  0  0
   -2.0064    3.6860   -0.1063 O   0  0  0  0  0  0  0  0  0  0  0  0
    4.9865    1.3963   -1.2356 O   0  0  0  0  0  0  0  0  0  0  0  0
   -2.5532    2.0821    1.4295 O   0  0  0  0  0  0  0  0  0  0  0  0
    6.5917    0.5825    0.8508 O   0  0  0  0  0  0  0  0  0  0  0  0
   -5.7760    0.5638    1.4177 O   0  5  0  0  0  0  0  0  0  0  0  0
    0.2074    1.9394   -0.4749 N   0  0  0  0  0  0  0  0  0  0  0  0
    3.1598    1.3631    0.1976 N   0  0  0  0  0  0  0  0  0  0  0  0
   -6.0858   -0.4847    0.7591 N   0  3  0  0  0  0  0  0  0  0  0  0
    1.1465    1.3456   -1.4112 C   0  0  1  0  0  0  0  0  0  0  0  0
    2.2511    2.1216   -0.6520 C   0  0  1  0  0  0  0  0  0  0  0  0
    1.0755    2.7853    0.1223 C   0  0  0  0  0  0  0  0  0  0  0  0
   -1.1022    1.5892   -0.3876 C   0  0  0  0  0  0  0  0  0  0  0  0
   -1.5785    0.4687   -0.9802 C   0  0  0  0  0  0  0  0  0  0  0  0
   -0.6899   -0.5413   -1.7005 C   0  0  0  0  0  0  0  0  0  0  0  0
   -3.0317    0.0588   -0.9984 C   0  0  0  0  0  0  0  0  0  0  0  0
    4.4731    1.0587   -0.1709 C   0  0  0  0  0  0  0  0  0  0  0  0
   -1.9699    2.4502    0.4300 C   0  0  0  0  0  0  0  0  0  0  0  0
    5.2141    0.2396    0.8767 C   0  0  1  0  0  0  0  0  0  0  0  0
    5.0754   -1.2435    0.6258 C   0  0  0  0  0  0  0  0  0  0  0  0
   -5.1245   -1.3218    0.2260 C   0  0  0  0  0  0  0  0  0  0  0  0
    4.0170   -1.9514    1.1953 C   0  0  0  0  0  0  0  0  0  0  0  0
    6.0058   -1.9050   -0.1754 C   0  0  0  0  0  0  0  0  0  0  0  0
   -5.4807   -2.4602   -0.4894 C   0  0  0  0  0  0  0  0  0  0  0  0
    3.8891   -3.3211    0.9637 C   0  0  0  0  0  0  0  0  0  0  0  0
    5.8781   -3.2745   -0.4072 C   0  0  0  0  0  0  0  0  0  0  0  0
    4.8198   -3.9826    0.1624 C   0  0  0  0  0  0  0  0  0  0  0  0
   -7.4195   -0.7930    0.5727 C   0  0  0  0  0  0  0  0  0  0  0  0
   -6.8263   -2.7609   -0.6711 C   0  0  0  0  0  0  0  0  0  0  0  0
   -7.8019   -1.9254   -0.1388 C   0  0  0  0  0  0  0  0  0  0  0  0
    0.9982    1.7042   -2.4374 H   0  0  0  0  0  0  0  0  0  0  0  0
    2.7815    2.8485   -1.2797 H   0  0  0  0  0  0  0  0  0  0  0  0
   -1.0111   -1.5628   -1.4722 H   0  0  0  0  0  0  0  0  0  0  0  0
   -0.7830   -0.3990   -2.7828 H   0  0  0  0  0  0  0  0  0  0  0  0
    2.8331    1.0208    1.0982 H   0  0  0  0  0  0  0  0  0  0  0  0
   -3.2656   -0.4915   -1.9169 H   0  0  0  0  0  0  0  0  0  0  0  0
   -3.6850    0.9383   -0.9916 H   0  0  0  0  0  0  0  0  0  0  0  0
    4.8457    0.4819    1.8806 H   0  0  0  0  0  0  0  0  0  0  0  0
   -2.5762    4.2956    0.4095 H   0  0  0  0  0  0  0  0  0  0  0  0
    6.6671    1.5111    1.1299 H   0  0  0  0  0  0  0  0  0  0  0  0
    3.2851   -1.4477    1.8211 H   0  0  0  0  0  0  0  0  0  0  0  0
    6.8319   -1.3759   -0.6424 H   0  0  0  0  0  0  0  0  0  0  0  0
   -4.7292   -3.1220   -0.9116 H   0  0  0  0  0  0  0  0  0  0  0  0
    3.0646   -3.8721    1.4065 H   0  0  0  0  0  0  0  0  0  0  0  0
    6.6006   -3.7893   -1.0338 H   0  0  0  0  0  0  0  0  0  0  0  0
    4.7198   -5.0487   -0.0188 H   0  0  0  0  0  0  0  0  0  0  0  0
   -8.1172   -0.0969    1.0153 H   0  0  0  0  0  0  0  0  0  0  0  0
   -7.1150   -3.6473   -1.2283 H   0  0  0  0  0  0  0  0  0  0  0  0
   -8.8540   -2.1538   -0.2767 H   0  0  0  0  0  0  0  0  0  0  0  0
  1 12  1  0  0  0  0
  1 17  1  0  0  0  0
  2 18  1  0  0  0  0
  2 23  1  0  0  0  0
  3 14  2  0  0  0  0
  4 20  1  0  0  0  0
  4 41  1  0  0  0  0
  5 19  2  0  0  0  0
  6 20  2  0  0  0  0
  7 21  1  0  0  0  0
  7 42  1  0  0  0  0
  8 11  1  0  0  0  0
  9 12  1  0  0  0  0
  9 14  1  0  0  0  0
  9 15  1  0  0  0  0
 10 13  1  0  0  0  0
 10 19  1  0  0  0  0
 10 37  1  0  0  0  0
 11 23  1  0  0  0  0
 11 30  2  0  0  0  0
 12 13  1  0  0  0  0
 12 33  1  0  0  0  0
 13 14  1  0  0  0  0
 13 34  1  0  0  0  0
 15 16  2  0  0  0  0
 15 20  1  0  0  0  0
 16 17  1  0  0  0  0
 16 18  1  0  0  0  0
 17 35  1  0  0  0  0
 17 36  1  0  0  0  0
 18 38  1  0  0  0  0
 18 39  1  0  0  0  0
 19 21  1  0  0  0  0
 21 22  1  0  0  0  0
 21 40  1  0  0  0  0
 22 24  2  0  0  0  0
 22 25  1  0  0  0  0
 23 26  2  0  0  0  0
 24 27  1  0  0  0  0
 24 43  1  0  0  0  0
 25 28  2  0  0  0  0
 25 44  1  0  0  0  0
 26 31  1  0  0  0  0
 26 45  1  0  0  0  0
 27 29  2  0  0  0  0
 27 46  1  0  0  0  0
 28 29  1  0  0  0  0
 28 47  1  0  0  0  0
 29 48  1  0  0  0  0
 30 32  1  0  0  0  0
 30 49  1  0  0  0  0
 31 32  2  0  0  0  0
 31 50  1  0  0  0  0
 32 51  1  0  0  0  0
M  CHG  2   8  -1  11   1
M  END
> <PUBCHEM_COMPOUND_CID>
101601578

> <PUBCHEM_CONFORMER_RMSD>
1

> <PUBCHEM_CONFORMER_DIVERSEORDER>
3
44
153
180
20
198
66
210
157
52
175
191
134
14
68
141
5
114
37
113
206
218
45
43
95
85
86
214
15
179
64
203
186
160
219
63
84
161
146
29
116
57
184
105
98
83
67
35
195
188
118
155
53
80
123
75
31
172
126
100
169
150
25
139
42
209
71
58
166
196
216
28
60
173
27
110
4
108
208
70
136
49
131
82
47
178
125
73
46
164
12
62
111
189
224
223
163
99
11
9
156
204
193
192
220
74
69
24
93
182
144
177
143
23
22
211
137
217
140
133
154
88
222
19
103
18
147
200
174
87
6
212
40
132
185
72
171
170
61
81
78
30
117
38
207
79
167
165
17
101
194
168
90
55
181
59
8
34
109
159
41
96
32
121
202
104
48
13
183
162
16
197
65
107
130
54
221
33
127
128
215
142
176
94
201
92
119
115
124
158
2
89
112
120
7
149
129
190
135
97
106
148
199
39
145
91
122
76
138
187
205
10
152
151
1
102
51
213
26
77
56
36
21
50

> <PUBCHEM_MMFF94_PARTIAL_CHARGES>
44
1 -0.45
10 -0.65
11 0.57
12 0.44
13 0.28
14 0.58
15 0.12
16 -0.28
17 0.37
18 0.37
19 0.57
2 -0.33
20 0.71
21 0.48
22 -0.14
23 0.19
24 -0.15
25 -0.15
26 -0.15
27 -0.15
28 -0.15
29 -0.15
3 -0.57
30 -0.06
31 -0.15
32 -0.15
37 0.37
4 -0.65
41 0.5
42 0.4
43 0.15
44 0.15
45 0.15
46 0.15
47 0.15
48 0.15
49 0.15
5 -0.57
50 0.15
51 0.15
6 -0.57
7 -0.68
8 -0.75
9 -0.39

> <PUBCHEM_EFFECTIVE_ROTOR_COUNT>
8.6

> <PUBCHEM_PHARMACOPHORE_FEATURES>
13
1 10 donor
1 3 acceptor
1 4 acceptor
1 5 acceptor
1 6 acceptor
1 7 acceptor
1 7 donor
1 8 anion
3 4 6 20 anion
4 9 12 13 14 rings
6 1 9 12 15 16 17 rings
6 11 23 26 30 31 32 rings
6 22 24 25 27 28 29 rings

> <PUBCHEM_HEAVY_ATOM_COUNT>
32

> <PUBCHEM_ATOM_DEF_STEREO_COUNT>
2

> <PUBCHEM_ATOM_UDEF_STEREO_COUNT>
1

> <PUBCHEM_BOND_DEF_STEREO_COUNT>
0

> <PUBCHEM_BOND_UDEF_STEREO_COUNT>
0

> <PUBCHEM_ISOTOPIC_ATOM_COUNT>
0

> <PUBCHEM_COMPONENT_COUNT>
1

> <PUBCHEM_CACTVS_TAUTO_COUNT>
2

> <PUBCHEM_CONFORMER_ID>
060E512A00000003

> <PUBCHEM_MMFF94_ENERGY>
86.0894

> <PUBCHEM_FEATURE_SELFOVERLAP>
66.283

> <PUBCHEM_SHAPE_FINGERPRINT>
117089 54 18267872675279321582
11991303 11 17244414193328132421
12107183 9 18341058415749554553
12422481 6 17561084674613577847
13533116 47 18408887364569143960
1361 2 18408039624036010682
13782708 43 18040991865264450775
13885169 86 9583519828440158203
13911852 28 18410008827796096247
13989917 61 18263647423185627539
14068700 675 18410291385294664771
15064986 96 17488461876466291022
15347590 135 18201144551708145264
15475509 35 18341607161602660104
15721738 202 18342454820785785890
15840311 113 10159707902055046635
16728300 4 18341044104043019367
17492 89 18265610992797777926
1768 124 18410852196154126526
19301679 30 18412545383746165198
19319366 153 18122627429725641252
19841028 212 18187636965224479642
21033648 29 15410909444494043323
22889206 1 17696744828525365065
23522609 53 18120688887536354589
25269216 80 15791738477538561343
2838139 119 10880003436498133819
3534868 343 18115602563567443084
3886686 26 17621888590857751974
474113 269 18343013394668432631
5104073 3 18129376017395518344
513202 73 18114177537042600461
7970288 3 18410852209044017323
86090 222 17821723957612873642

> <PUBCHEM_SHAPE_MULTIPOLES>
616.09
19.74
4.6
1.27
17.85
0.35
-0.11
19.7
3.7
-3.34
0.52
0.02
-0.13
-1.34

> <PUBCHEM_SHAPE_SELFOVERLAP>
1301.26

> <PUBCHEM_SHAPE_VOLUME>
345

> <PUBCHEM_COORDINATE_TYPE>
2
5
10

$$$$
