101623352
  -OEChem-03292013293D

 70 71  0     1  0  0  0  0  0999 V2000
   -5.2313    0.2419    0.2513 O   0  0  0  0  0  0  0  0  0  0  0  0
    3.3275    1.4440    0.4075 O   0  0  0  0  0  0  0  0  0  0  0  0
   -1.6174    0.9441    0.3793 O   0  0  0  0  0  0  0  0  0  0  0  0
   -2.7210    3.4796   -0.3565 O   0  0  0  0  0  0  0  0  0  0  0  0
    6.4360    0.0951   -1.9366 O   0  0  0  0  0  0  0  0  0  0  0  0
    3.8091   -1.1149   -2.1731 O   0  0  0  0  0  0  0  0  0  0  0  0
    6.9552    0.9657    0.7562 O   0  0  0  0  0  0  0  0  0  0  0  0
    3.6183    2.5752    2.8872 O   0  0  0  0  0  0  0  0  0  0  0  0
   -0.8953    0.7509   -1.8023 O   0  0  0  0  0  0  0  0  0  0  0  0
    1.6813    0.4411   -0.9781 N   0  0  0  0  0  0  0  0  0  0  0  0
   -3.4457    2.4839    0.3610 C   0  0  2  0  0  0  0  0  0  0  0  0
   -2.9619    1.0975   -0.0792 C   0  0  2  0  0  0  0  0  0  0  0  0
   -4.9592    2.6577    0.1602 C   0  0  2  0  0  0  0  0  0  0  0  0
   -3.8479   -0.0074    0.5157 C   0  0  2  0  0  0  0  0  0  0  0  0
    5.4729    0.0471   -0.8818 C   0  0  2  0  0  0  0  0  0  0  0  0
    4.0660    0.1065   -1.4820 C   0  0  2  0  0  0  0  0  0  0  0  0
   -5.6835    1.4759    0.8065 C   0  0  0  0  0  0  0  0  0  0  0  0
    5.7216    1.2061    0.0847 C   0  0  1  0  0  0  0  0  0  0  0  0
    3.0120    0.2973   -0.3844 C   0  0  1  0  0  0  0  0  0  0  0  0
    4.5749    1.3184    1.0951 C   0  0  1  0  0  0  0  0  0  0  0  0
   -5.3485    2.7898   -1.3181 C   0  0  0  0  0  0  0  0  0  0  0  0
   -3.5234   -1.3448   -0.0705 C   0  0  0  0  0  0  0  0  0  0  0  0
    4.7180    2.5411    1.9961 C   0  0  0  0  0  0  0  0  0  0  0  0
    0.6753    0.6329    0.0546 C   0  0  0  0  0  0  0  0  0  0  0  0
   -0.6764    0.7775   -0.5988 C   0  0  0  0  0  0  0  0  0  0  0  0
   -4.2986   -1.6676   -1.3186 C   0  0  0  0  0  0  0  0  0  0  0  0
   -2.6072   -2.1361    0.5209 C   0  0  0  0  0  0  0  0  0  0  0  0
   -2.7030    4.7137    0.3454 C   0  0  0  0  0  0  0  0  0  0  0  0
   -2.1742   -3.4502    0.0930 C   0  0  0  0  0  0  0  0  0  0  0  0
   -1.2487   -4.1607    0.7570 C   0  0  0  0  0  0  0  0  0  0  0  0
   -0.8112   -5.4737    0.3364 C   0  0  0  0  0  0  0  0  0  0  0  0
    0.1130   -6.1857    0.9979 C   0  0  0  0  0  0  0  0  0  0  0  0
    0.5733   -7.5419    0.5740 C   0  0  0  0  0  0  0  0  0  0  0  0
   -3.2139    2.5821    1.4320 H   0  0  0  0  0  0  0  0  0  0  0  0
   -3.0256    1.0629   -1.1738 H   0  0  0  0  0  0  0  0  0  0  0  0
   -5.2916    3.5752    0.6600 H   0  0  0  0  0  0  0  0  0  0  0  0
   -3.7109   -0.0469    1.6057 H   0  0  0  0  0  0  0  0  0  0  0  0
    5.6329   -0.9136   -0.3772 H   0  0  0  0  0  0  0  0  0  0  0  0
    4.0143    0.9197   -2.2167 H   0  0  0  0  0  0  0  0  0  0  0  0
   -5.5321    1.4632    1.8927 H   0  0  0  0  0  0  0  0  0  0  0  0
   -6.7624    1.5439    0.6310 H   0  0  0  0  0  0  0  0  0  0  0  0
    5.8305    2.1396   -0.4803 H   0  0  0  0  0  0  0  0  0  0  0  0
    2.9978   -0.5898    0.2647 H   0  0  0  0  0  0  0  0  0  0  0  0
    4.5296    0.4285    1.7376 H   0  0  0  0  0  0  0  0  0  0  0  0
   -5.0679    1.9077   -1.9016 H   0  0  0  0  0  0  0  0  0  0  0  0
   -4.8744    3.6640   -1.7754 H   0  0  0  0  0  0  0  0  0  0  0  0
   -6.4320    2.9191   -1.4158 H   0  0  0  0  0  0  0  0  0  0  0  0
    1.4645   -0.3940   -1.5222 H   0  0  0  0  0  0  0  0  0  0  0  0
    4.6992    3.4640    1.4068 H   0  0  0  0  0  0  0  0  0  0  0  0
    5.6436    2.5021    2.5784 H   0  0  0  0  0  0  0  0  0  0  0  0
    0.6407   -0.2301    0.7287 H   0  0  0  0  0  0  0  0  0  0  0  0
    0.8599    1.5500    0.6242 H   0  0  0  0  0  0  0  0  0  0  0  0
    6.3250    0.9395   -2.4059 H   0  0  0  0  0  0  0  0  0  0  0  0
    3.8387   -1.8395   -1.5253 H   0  0  0  0  0  0  0  0  0  0  0  0
    6.8541    0.1603    1.2916 H   0  0  0  0  0  0  0  0  0  0  0  0
   -5.3426   -1.8961   -1.0799 H   0  0  0  0  0  0  0  0  0  0  0  0
   -3.8956   -2.5268   -1.8604 H   0  0  0  0  0  0  0  0  0  0  0  0
   -4.2747   -0.8287   -2.0226 H   0  0  0  0  0  0  0  0  0  0  0  0
   -2.1232   -1.7660    1.4245 H   0  0  0  0  0  0  0  0  0  0  0  0
   -2.0998    5.4205   -0.2316 H   0  0  0  0  0  0  0  0  0  0  0  0
   -2.2388    4.5971    1.3298 H   0  0  0  0  0  0  0  0  0  0  0  0
   -3.7075    5.1328    0.4453 H   0  0  0  0  0  0  0  0  0  0  0  0
    3.7275    3.3620    3.4480 H   0  0  0  0  0  0  0  0  0  0  0  0
   -2.6259   -3.8727   -0.7987 H   0  0  0  0  0  0  0  0  0  0  0  0
   -0.7892   -3.7520    1.6543 H   0  0  0  0  0  0  0  0  0  0  0  0
   -1.2644   -5.8870   -0.5611 H   0  0  0  0  0  0  0  0  0  0  0  0
    0.5723   -5.7811    1.8967 H   0  0  0  0  0  0  0  0  0  0  0  0
    1.6508   -7.5265    0.3833 H   0  0  0  0  0  0  0  0  0  0  0  0
    0.3749   -8.2676    1.3687 H   0  0  0  0  0  0  0  0  0  0  0  0
    0.0708   -7.8859   -0.3355 H   0  0  0  0  0  0  0  0  0  0  0  0
  1 14  1  0  0  0  0
  1 17  1  0  0  0  0
  2 19  1  0  0  0  0
  2 20  1  0  0  0  0
  3 12  1  0  0  0  0
  3 25  1  0  0  0  0
  4 11  1  0  0  0  0
  4 28  1  0  0  0  0
  5 15  1  0  0  0  0
  5 53  1  0  0  0  0
  6 16  1  0  0  0  0
  6 54  1  0  0  0  0
  7 18  1  0  0  0  0
  7 55  1  0  0  0  0
  8 23  1  0  0  0  0
  8 63  1  0  0  0  0
  9 25  2  0  0  0  0
 10 19  1  0  0  0  0
 10 24  1  0  0  0  0
 10 48  1  0  0  0  0
 11 12  1  0  0  0  0
 11 13  1  0  0  0  0
 11 34  1  0  0  0  0
 12 14  1  0  0  0  0
 12 35  1  0  0  0  0
 13 17  1  0  0  0  0
 13 21  1  0  0  0  0
 13 36  1  0  0  0  0
 14 22  1  0  0  0  0
 14 37  1  0  0  0  0
 15 16  1  0  0  0  0
 15 18  1  0  0  0  0
 15 38  1  0  0  0  0
 16 19  1  0  0  0  0
 16 39  1  0  0  0  0
 17 40  1  0  0  0  0
 17 41  1  0  0  0  0
 18 20  1  0  0  0  0
 18 42  1  0  0  0  0
 19 43  1  0  0  0  0
 20 23  1  0  0  0  0
 20 44  1  0  0  0  0
 21 45  1  0  0  0  0
 21 46  1  0  0  0  0
 21 47  1  0  0  0  0
 22 26  1  0  0  0  0
 22 27  2  0  0  0  0
 23 49  1  0  0  0  0
 23 50  1  0  0  0  0
 24 25  1  0  0  0  0
 24 51  1  0  0  0  0
 24 52  1  0  0  0  0
 26 56  1  0  0  0  0
 26 57  1  0  0  0  0
 26 58  1  0  0  0  0
 27 29  1  0  0  0  0
 27 59  1  0  0  0  0
 28 60  1  0  0  0  0
 28 61  1  0  0  0  0
 28 62  1  0  0  0  0
 29 30  2  0  0  0  0
 29 64  1  0  0  0  0
 30 31  1  0  0  0  0
 30 65  1  0  0  0  0
 31 32  2  0  0  0  0
 31 66  1  0  0  0  0
 32 33  1  0  0  0  0
 32 67  1  0  0  0  0
 33 68  1  0  0  0  0
 33 69  1  0  0  0  0
 33 70  1  0  0  0  0
M  END
> <PUBCHEM_COMPOUND_CID>
101623352

> <PUBCHEM_CONFORMER_RMSD>
1.2

> <PUBCHEM_CONFORMER_DIVERSEORDER>
1
60
41
17
42
79
37
2
18
69
70
24
44
40
38
30
78
66
83
53
27
51
86
56
8
20
72
45
59
25
55
48
10
22
13
33
57
35
5
4
76
64
68
62
21
32
77
67
39
46
36
81
74
85
49
84
34
31
7
19
58
29
75
3
12
82
43
47
80
14
65
23
52
54
71
61
6
50
9
73
28
63
16
26
11
15

> <PUBCHEM_MMFF94_PARTIAL_CHARGES>
41
1 -0.56
10 -0.9
11 0.28
12 0.28
14 0.42
15 0.28
16 0.28
17 0.28
18 0.28
19 0.55
2 -0.56
20 0.28
22 -0.28
23 0.28
24 0.33
25 0.66
26 0.14
27 -0.15
28 0.28
29 -0.15
3 -0.43
30 -0.15
31 -0.15
32 -0.29
33 0.14
4 -0.56
48 0.36
5 -0.68
53 0.4
54 0.4
55 0.4
59 0.15
6 -0.68
63 0.4
64 0.15
65 0.15
66 0.15
67 0.15
7 -0.68
8 -0.68
9 -0.57

> <PUBCHEM_EFFECTIVE_ROTOR_COUNT>
12.4

> <PUBCHEM_PHARMACOPHORE_FEATURES>
18
1 1 acceptor
1 10 cation
1 10 donor
1 2 acceptor
1 26 hydrophobe
1 33 hydrophobe
1 4 acceptor
1 5 acceptor
1 5 donor
1 6 acceptor
1 6 donor
1 7 acceptor
1 7 donor
1 8 acceptor
1 8 donor
1 9 acceptor
6 1 11 12 13 14 17 rings
6 2 15 16 18 19 20 rings

> <PUBCHEM_HEAVY_ATOM_COUNT>
33

> <PUBCHEM_ATOM_DEF_STEREO_COUNT>
9

> <PUBCHEM_ATOM_UDEF_STEREO_COUNT>
0

> <PUBCHEM_BOND_DEF_STEREO_COUNT>
3

> <PUBCHEM_BOND_UDEF_STEREO_COUNT>
0

> <PUBCHEM_ISOTOPIC_ATOM_COUNT>
0

> <PUBCHEM_COMPONENT_COUNT>
1

> <PUBCHEM_CACTVS_TAUTO_COUNT>
3

> <PUBCHEM_CONFORMER_ID>
060EA63800000001

> <PUBCHEM_MMFF94_ENERGY>
74.1612

> <PUBCHEM_FEATURE_SELFOVERLAP>
91.37

> <PUBCHEM_SHAPE_FINGERPRINT>
10290309 65 18192429663216208173
10940486 97 18115884059991758852
11045977 3 18202569501175847084
13583140 156 17918276433002772484
14508693 111 17175449912568258658
14659021 117 18126273384218071607
14844126 61 18190462860236417203
15361156 5 18201727305260110228
15400415 2 18408889520764370780
15927050 60 18339929225734953655
16719943 64 18408610270491412239
17627616 140 17977675212346835731
20609170 109 16391769700913460880
21033648 29 18411695457111594417
21133410 52 15607362876183980086
21792961 116 17774454781200377836
22122407 14 16128107731516721121
23516275 137 17900283917773891330
23559900 14 18343588429842523676
3383291 50 18192995040079723339
3882209 13 17189799676923570119
4015057 19 17203604917351378153
4073 2 18341617061976686420
508706 21 18341332309328207042
5265222 85 18336563675690052389
5385378 56 18192727639899894673
613672 6 17547845712733908310
9981440 41 18334582326374025859

> <PUBCHEM_SHAPE_MULTIPOLES>
621.32
14.71
8.48
1.63
15.58
22.3
-0.06
-14.51
0.91
-4.66
-3.57
2.38
-0.78
1.87

> <PUBCHEM_SHAPE_SELFOVERLAP>
1254.095

> <PUBCHEM_SHAPE_VOLUME>
358.7

> <PUBCHEM_COORDINATE_TYPE>
2
5
10

$$$$
