101684212
  -OEChem-03292013293D

 62 65  0     1  0  0  0  0  0999 V2000
   -1.6394   -0.1113    0.7109 O   0  0  0  0  0  0  0  0  0  0  0  0
    1.8785   -2.5853    1.7150 O   0  0  0  0  0  0  0  0  0  0  0  0
   -2.9288   -0.7810    0.8882 O   0  0  0  0  0  0  0  0  0  0  0  0
    1.5792    3.6983   -0.2884 O   0  0  0  0  0  0  0  0  0  0  0  0
    4.9467    0.4270    0.3212 O   0  0  0  0  0  0  0  0  0  0  0  0
   -5.3235    1.8133    0.3964 O   0  0  0  0  0  0  0  0  0  0  0  0
   -7.3375    0.7314    0.2422 O   0  0  0  0  0  0  0  0  0  0  0  0
    6.1150   -0.5798   -1.3990 O   0  0  0  0  0  0  0  0  0  0  0  0
    0.3907    0.0895   -0.6564 C   0  0  1  0  0  0  0  0  0  0  0  0
    1.2342   -0.4776    0.5825 C   0  0  2  0  0  0  0  0  0  0  0  0
   -1.1024   -0.5151   -0.5764 C   0  0  1  0  0  0  0  0  0  0  0  0
    2.6285    0.2239    0.8635 C   0  0  2  0  0  0  0  0  0  0  0  0
    0.3614    1.6413   -0.5597 C   0  0  0  0  0  0  0  0  0  0  0  0
    1.2563   -2.0351    0.5581 C   0  0  2  0  0  0  0  0  0  0  0  0
    2.4557    1.7623    0.8260 C   0  0  0  0  0  0  0  0  0  0  0  0
    1.7371    2.2836   -0.4065 C   0  0  2  0  0  0  0  0  0  0  0  0
   -0.9723   -2.0463   -0.6159 C   0  0  0  0  0  0  0  0  0  0  0  0
   -2.0675    0.1057   -1.6321 C   0  0  0  0  0  0  0  0  0  0  0  0
   -0.1538   -2.6338    0.5017 C   0  0  0  0  0  0  0  0  0  0  0  0
    1.0029   -0.2893   -2.0335 C   0  0  0  0  0  0  0  0  0  0  0  0
    3.7560   -0.2080   -0.0927 C   0  0  0  0  0  0  0  0  0  0  0  0
    3.1404   -0.0906    2.2974 C   0  0  0  0  0  0  0  0  0  0  0  0
   -3.5506   -0.1777   -1.3455 C   0  0  0  0  0  0  0  0  0  0  0  0
   -3.8811   -0.0282    0.1449 C   0  0  1  0  0  0  0  0  0  0  0  0
   -1.4689   -2.8553   -1.5667 C   0  0  0  0  0  0  0  0  0  0  0  0
   -5.2835   -0.5325    0.4543 C   0  0  0  0  0  0  0  0  0  0  0  0
   -3.9686    1.4140    0.6212 C   0  0  0  0  0  0  0  0  0  0  0  0
   -6.1205    0.7061    0.3415 C   0  0  0  0  0  0  0  0  0  0  0  0
    6.0673    0.1560   -0.4225 C   0  0  0  0  0  0  0  0  0  0  0  0
    7.2485    0.8946    0.1303 C   0  0  0  0  0  0  0  0  0  0  0  0
    0.6491   -0.2163    1.4785 H   0  0  0  0  0  0  0  0  0  0  0  0
   -0.2690    1.9607    0.2807 H   0  0  0  0  0  0  0  0  0  0  0  0
   -0.1037    2.0765   -1.4522 H   0  0  0  0  0  0  0  0  0  0  0  0
    1.8369   -2.3814   -0.3036 H   0  0  0  0  0  0  0  0  0  0  0  0
    3.4176    2.2822    0.9258 H   0  0  0  0  0  0  0  0  0  0  0  0
    1.8840    2.0834    1.7098 H   0  0  0  0  0  0  0  0  0  0  0  0
    2.3525    2.1180   -1.2953 H   0  0  0  0  0  0  0  0  0  0  0  0
   -1.8265   -0.2129   -2.6515 H   0  0  0  0  0  0  0  0  0  0  0  0
   -1.9747    1.1955   -1.6252 H   0  0  0  0  0  0  0  0  0  0  0  0
   -0.6663   -2.4708    1.4589 H   0  0  0  0  0  0  0  0  0  0  0  0
   -0.0731   -3.7254    0.4126 H   0  0  0  0  0  0  0  0  0  0  0  0
    1.1801   -1.3620   -2.1423 H   0  0  0  0  0  0  0  0  0  0  0  0
    1.9448    0.2148   -2.2397 H   0  0  0  0  0  0  0  0  0  0  0  0
    0.3432    0.0113   -2.8539 H   0  0  0  0  0  0  0  0  0  0  0  0
    3.8990   -1.2940   -0.0575 H   0  0  0  0  0  0  0  0  0  0  0  0
    3.5591    0.0815   -1.1227 H   0  0  0  0  0  0  0  0  0  0  0  0
    3.5904   -1.0849    2.3722 H   0  0  0  0  0  0  0  0  0  0  0  0
    2.3280   -0.0279    3.0303 H   0  0  0  0  0  0  0  0  0  0  0  0
    3.9099    0.6212    2.6213 H   0  0  0  0  0  0  0  0  0  0  0  0
   -4.1793    0.4766   -1.9614 H   0  0  0  0  0  0  0  0  0  0  0  0
   -3.7721   -1.2036   -1.6608 H   0  0  0  0  0  0  0  0  0  0  0  0
    1.9154   -3.5504    1.6021 H   0  0  0  0  0  0  0  0  0  0  0  0
   -2.0266   -2.4867   -2.4180 H   0  0  0  0  0  0  0  0  0  0  0  0
   -1.3117   -3.9287   -1.5276 H   0  0  0  0  0  0  0  0  0  0  0  0
    1.1357    4.0121   -1.0949 H   0  0  0  0  0  0  0  0  0  0  0  0
   -5.3638   -0.9265    1.4727 H   0  0  0  0  0  0  0  0  0  0  0  0
   -5.6257   -1.2898   -0.2565 H   0  0  0  0  0  0  0  0  0  0  0  0
   -3.3055    2.0896    0.0733 H   0  0  0  0  0  0  0  0  0  0  0  0
   -3.7459    1.5187    1.6894 H   0  0  0  0  0  0  0  0  0  0  0  0
    7.0632    1.9709    0.0899 H   0  0  0  0  0  0  0  0  0  0  0  0
    8.1326    0.6696   -0.4730 H   0  0  0  0  0  0  0  0  0  0  0  0
    7.4365    0.5744    1.1581 H   0  0  0  0  0  0  0  0  0  0  0  0
  1  3  1  0  0  0  0
  1 11  1  0  0  0  0
  2 14  1  0  0  0  0
  2 52  1  0  0  0  0
  3 24  1  0  0  0  0
  4 16  1  0  0  0  0
  4 55  1  0  0  0  0
  5 21  1  0  0  0  0
  5 29  1  0  0  0  0
  6 27  1  0  0  0  0
  6 28  1  0  0  0  0
  7 28  2  0  0  0  0
  8 29  2  0  0  0  0
  9 10  1  0  0  0  0
  9 11  1  0  0  0  0
  9 13  1  0  0  0  0
  9 20  1  0  0  0  0
 10 12  1  0  0  0  0
 10 14  1  0  0  0  0
 10 31  1  0  0  0  0
 11 17  1  0  0  0  0
 11 18  1  0  0  0  0
 12 15  1  0  0  0  0
 12 21  1  0  0  0  0
 12 22  1  0  0  0  0
 13 16  1  0  0  0  0
 13 32  1  0  0  0  0
 13 33  1  0  0  0  0
 14 19  1  0  0  0  0
 14 34  1  0  0  0  0
 15 16  1  0  0  0  0
 15 35  1  0  0  0  0
 15 36  1  0  0  0  0
 16 37  1  0  0  0  0
 17 19  1  0  0  0  0
 17 25  2  0  0  0  0
 18 23  1  0  0  0  0
 18 38  1  0  0  0  0
 18 39  1  0  0  0  0
 19 40  1  0  0  0  0
 19 41  1  0  0  0  0
 20 42  1  0  0  0  0
 20 43  1  0  0  0  0
 20 44  1  0  0  0  0
 21 45  1  0  0  0  0
 21 46  1  0  0  0  0
 22 47  1  0  0  0  0
 22 48  1  0  0  0  0
 22 49  1  0  0  0  0
 23 24  1  0  0  0  0
 23 50  1  0  0  0  0
 23 51  1  0  0  0  0
 24 26  1  0  0  0  0
 24 27  1  0  0  0  0
 25 53  1  0  0  0  0
 25 54  1  0  0  0  0
 26 28  1  0  0  0  0
 26 56  1  0  0  0  0
 26 57  1  0  0  0  0
 27 58  1  0  0  0  0
 27 59  1  0  0  0  0
 29 30  1  0  0  0  0
 30 60  1  0  0  0  0
 30 61  1  0  0  0  0
 30 62  1  0  0  0  0
M  END
> <PUBCHEM_COMPOUND_CID>
101684212

> <PUBCHEM_CONFORMER_RMSD>
0.8

> <PUBCHEM_CONFORMER_DIVERSEORDER>
1
4
6
5
3
2

> <PUBCHEM_MMFF94_PARTIAL_CHARGES>
25
1 -0.28
11 0.42
14 0.28
16 0.28
17 -0.28
19 0.14
2 -0.68
21 0.28
24 0.28
25 -0.3
26 0.06
27 0.28
28 0.66
29 0.66
3 -0.28
30 0.06
4 -0.68
5 -0.43
52 0.4
53 0.15
54 0.15
55 0.4
6 -0.43
7 -0.57
8 -0.57

> <PUBCHEM_EFFECTIVE_ROTOR_COUNT>
5.6

> <PUBCHEM_PHARMACOPHORE_FEATURES>
10
1 2 acceptor
1 2 donor
1 4 acceptor
1 4 donor
1 7 acceptor
1 8 acceptor
5 6 24 26 27 28 rings
6 1 3 11 18 23 24 rings
6 9 10 11 14 17 19 rings
6 9 10 12 13 15 16 rings

> <PUBCHEM_HEAVY_ATOM_COUNT>
30

> <PUBCHEM_ATOM_DEF_STEREO_COUNT>
7

> <PUBCHEM_ATOM_UDEF_STEREO_COUNT>
0

> <PUBCHEM_BOND_DEF_STEREO_COUNT>
0

> <PUBCHEM_BOND_UDEF_STEREO_COUNT>
0

> <PUBCHEM_ISOTOPIC_ATOM_COUNT>
0

> <PUBCHEM_COMPONENT_COUNT>
1

> <PUBCHEM_CACTVS_TAUTO_COUNT>
4

> <PUBCHEM_CONFORMER_ID>
060F93F400000001

> <PUBCHEM_MMFF94_ENERGY>
101.7983

> <PUBCHEM_FEATURE_SELFOVERLAP>
50.772

> <PUBCHEM_SHAPE_FINGERPRINT>
10165383 225 18186803582375222554
10366900 7 17821721762910380315
10670039 82 16630249104580790865
10674148 151 18413109451519808954
1100329 8 18337390560232398376
12011746 2 18410015420565445432
12166972 35 17988924504763208937
12236239 1 17988640817698492045
12553582 1 18262780944140664328
12633257 1 17821721741678189331
12788726 201 18336257952177704096
13140716 1 18190456254143782929
13583140 156 18040703789054913567
13782708 43 12541240123641598208
14790565 3 18334581248110634204
14849402 71 18262525916998478669
14856354 85 16732990842197107066
14955137 171 18259992582483773948
15183329 4 16056884619717694498
15238133 3 18261685800152276549
15475509 8 18342466915624395372
15840311 113 17822300110395911524
15849732 13 18412830191691513052
1601671 61 18334293145777196464
16945 1 18190999327173259134
18681886 176 18272928349685402073
19319366 153 17603577526848012426
20739085 24 18267020553234070555
21033648 29 17917136239391774673
21285901 2 18058180440526397668
21403212 168 18412540998821971653
21521721 280 17676775361741292124
21756936 100 18201148931904866679
22224240 67 17749108906610051035
23558518 356 17903072579360598942
23559900 14 16200141123519332914
23622692 88 18410292531807962757
25223398 141 16127799911553092399
2838139 119 15482672377409602217
3004659 81 10015577294898670607
3009799 131 12031785851306248638
3178227 256 18261405454714677889
335352 9 18411983585028777612
350125 39 18333450958599041301
404807 14 15333256267677461118
4325135 7 13840265892666378404
4340502 62 15502375621700496256
46194498 28 11959721673605462275
474 4 18413108360160376217
58260988 393 14201391660456518750
59755656 215 17917716764129545348
59755656 520 18272364283135728311
6328613 192 18271248321920657016
633830 44 18270107037144820404
7164475 11 17768519848174966487
7226269 152 17703793621540369072
9999458 23 18333450971283340188

> <PUBCHEM_SHAPE_MULTIPOLES>
570.43
13.81
2.64
1.52
0.1
0.07
-0.03
-5.39
1.1
-0.12
-0.07
-0.62
0.5
-0.65

> <PUBCHEM_SHAPE_SELFOVERLAP>
1207.54

> <PUBCHEM_SHAPE_VOLUME>
315.2

> <PUBCHEM_COORDINATE_TYPE>
2
5
10

$$$$
