101649339
  -OEChem-03292013293D

 62 65  0     1  0  0  0  0  0999 V2000
   -0.9266    0.3509   -2.7850 O   0  0  0  0  0  0  0  0  0  0  0  0
   -2.3398   -1.9974   -0.3924 O   0  0  0  0  0  0  0  0  0  0  0  0
    0.4488    1.4459   -0.1910 O   0  0  0  0  0  0  0  0  0  0  0  0
   -4.1527    2.2661    1.1875 O   0  0  0  0  0  0  0  0  0  0  0  0
    1.4994    1.2428    1.8567 O   0  0  0  0  0  0  0  0  0  0  0  0
    7.0018   -0.6348    1.7136 O   0  0  0  0  0  0  0  0  0  0  0  0
    7.6167   -0.8108   -1.0857 O   0  0  0  0  0  0  0  0  0  0  0  0
   -1.9431    0.8390   -0.5469 C   0  0  1  0  0  0  0  0  0  0  0  0
   -1.7340   -0.1235   -1.6971 C   0  0  2  0  0  0  0  0  0  0  0  0
   -3.1999    0.2755    0.2730 C   0  0  2  0  0  0  0  0  0  0  0  0
   -1.2394   -1.3767   -1.0660 C   0  0  1  0  0  0  0  0  0  0  0  0
   -0.6013    0.5845    0.2461 C   0  0  1  0  0  0  0  0  0  0  0  0
   -2.2761   -0.0207   -3.1014 C   0  0  0  0  0  0  0  0  0  0  0  0
   -0.1760   -0.8696   -0.0803 C   0  0  0  0  0  0  0  0  0  0  0  0
   -2.9407   -1.2254    0.6659 C   0  0  1  0  0  0  0  0  0  0  0  0
   -2.1034    2.3029   -0.9765 C   0  0  0  0  0  0  0  0  0  0  0  0
   -4.5094    0.3258   -0.5737 C   0  0  0  0  0  0  0  0  0  0  0  0
   -3.4329    1.1151    1.5586 C   0  0  0  0  0  0  0  0  0  0  0  0
   -4.1754   -1.9858    1.0728 C   0  0  0  0  0  0  0  0  0  0  0  0
   -5.7289   -0.2802    0.1339 C   0  0  0  0  0  0  0  0  0  0  0  0
   -5.4325   -1.5669    0.8542 C   0  0  0  0  0  0  0  0  0  0  0  0
    1.4318    1.6861    0.7214 C   0  0  0  0  0  0  0  0  0  0  0  0
   -6.6224   -2.3542    1.3177 C   0  0  0  0  0  0  0  0  0  0  0  0
    2.4199    2.5909    0.0935 C   0  0  0  0  0  0  0  0  0  0  0  0
    3.6928    2.1953   -0.0425 C   0  0  0  0  0  0  0  0  0  0  0  0
    4.1609    0.9004    0.4029 C   0  0  0  0  0  0  0  0  0  0  0  0
    5.4350    0.4980    0.2697 C   0  0  0  0  0  0  0  0  0  0  0  0
    6.0070   -0.8302    0.7133 C   0  0  1  0  0  0  0  0  0  0  0  0
    6.5994   -1.6054   -0.4763 C   0  0  2  0  0  0  0  0  0  0  0  0
    7.2210   -2.9376   -0.0662 C   0  0  0  0  0  0  0  0  0  0  0  0
   -0.8238   -2.0968   -1.7773 H   0  0  0  0  0  0  0  0  0  0  0  0
   -0.7501    0.7048    1.3218 H   0  0  0  0  0  0  0  0  0  0  0  0
   -2.4256   -0.9348   -3.6615 H   0  0  0  0  0  0  0  0  0  0  0  0
   -2.9679    0.7748   -3.3431 H   0  0  0  0  0  0  0  0  0  0  0  0
   -0.1238   -1.4876    0.8216 H   0  0  0  0  0  0  0  0  0  0  0  0
    0.8113   -0.8851   -0.5575 H   0  0  0  0  0  0  0  0  0  0  0  0
   -2.2643   -1.2572    1.5293 H   0  0  0  0  0  0  0  0  0  0  0  0
   -3.0253    2.4744   -1.5382 H   0  0  0  0  0  0  0  0  0  0  0  0
   -1.2866    2.6231   -1.6334 H   0  0  0  0  0  0  0  0  0  0  0  0
   -2.0925    2.9758   -0.1138 H   0  0  0  0  0  0  0  0  0  0  0  0
   -4.3682   -0.2558   -1.4924 H   0  0  0  0  0  0  0  0  0  0  0  0
   -4.7631    1.3361   -0.9106 H   0  0  0  0  0  0  0  0  0  0  0  0
   -2.5100    1.4208    2.0541 H   0  0  0  0  0  0  0  0  0  0  0  0
   -4.0303    0.5718    2.2977 H   0  0  0  0  0  0  0  0  0  0  0  0
   -4.0089   -2.9316    1.5835 H   0  0  0  0  0  0  0  0  0  0  0  0
   -6.5076   -0.4534   -0.6193 H   0  0  0  0  0  0  0  0  0  0  0  0
   -6.1424    0.4385    0.8514 H   0  0  0  0  0  0  0  0  0  0  0  0
   -4.3077    2.7846    1.9952 H   0  0  0  0  0  0  0  0  0  0  0  0
   -7.2316   -1.7530    2.0003 H   0  0  0  0  0  0  0  0  0  0  0  0
   -6.3330   -3.2683    1.8468 H   0  0  0  0  0  0  0  0  0  0  0  0
   -7.2417   -2.6455    0.4632 H   0  0  0  0  0  0  0  0  0  0  0  0
    2.0741    3.5420   -0.2938 H   0  0  0  0  0  0  0  0  0  0  0  0
    4.4032    2.8618   -0.5233 H   0  0  0  0  0  0  0  0  0  0  0  0
    3.4659    0.1953    0.8453 H   0  0  0  0  0  0  0  0  0  0  0  0
    6.1513    1.1904   -0.1715 H   0  0  0  0  0  0  0  0  0  0  0  0
    5.2179   -1.4424    1.1671 H   0  0  0  0  0  0  0  0  0  0  0  0
    5.8196   -1.7811   -1.2271 H   0  0  0  0  0  0  0  0  0  0  0  0
    6.5923   -0.1424    2.4456 H   0  0  0  0  0  0  0  0  0  0  0  0
    8.0805   -2.7904    0.5966 H   0  0  0  0  0  0  0  0  0  0  0  0
    6.4898   -3.5766    0.4377 H   0  0  0  0  0  0  0  0  0  0  0  0
    7.5963   -3.4688   -0.9477 H   0  0  0  0  0  0  0  0  0  0  0  0
    7.9514   -1.3021   -1.8553 H   0  0  0  0  0  0  0  0  0  0  0  0
  1  9  1  0  0  0  0
  1 13  1  0  0  0  0
  2 11  1  0  0  0  0
  2 15  1  0  0  0  0
  3 12  1  0  0  0  0
  3 22  1  0  0  0  0
  4 18  1  0  0  0  0
  4 48  1  0  0  0  0
  5 22  2  0  0  0  0
  6 28  1  0  0  0  0
  6 58  1  0  0  0  0
  7 29  1  0  0  0  0
  7 62  1  0  0  0  0
  8  9  1  0  0  0  0
  8 10  1  0  0  0  0
  8 12  1  0  0  0  0
  8 16  1  0  0  0  0
  9 11  1  0  0  0  0
  9 13  1  0  0  0  0
 10 15  1  0  0  0  0
 10 17  1  0  0  0  0
 10 18  1  0  0  0  0
 11 14  1  0  0  0  0
 11 31  1  0  0  0  0
 12 14  1  0  0  0  0
 12 32  1  0  0  0  0
 13 33  1  0  0  0  0
 13 34  1  0  0  0  0
 14 35  1  0  0  0  0
 14 36  1  0  0  0  0
 15 19  1  0  0  0  0
 15 37  1  0  0  0  0
 16 38  1  0  0  0  0
 16 39  1  0  0  0  0
 16 40  1  0  0  0  0
 17 20  1  0  0  0  0
 17 41  1  0  0  0  0
 17 42  1  0  0  0  0
 18 43  1  0  0  0  0
 18 44  1  0  0  0  0
 19 21  2  0  0  0  0
 19 45  1  0  0  0  0
 20 21  1  0  0  0  0
 20 46  1  0  0  0  0
 20 47  1  0  0  0  0
 21 23  1  0  0  0  0
 22 24  1  0  0  0  0
 23 49  1  0  0  0  0
 23 50  1  0  0  0  0
 23 51  1  0  0  0  0
 24 25  2  0  0  0  0
 24 52  1  0  0  0  0
 25 26  1  0  0  0  0
 25 53  1  0  0  0  0
 26 27  2  0  0  0  0
 26 54  1  0  0  0  0
 27 28  1  0  0  0  0
 27 55  1  0  0  0  0
 28 29  1  0  0  0  0
 28 56  1  0  0  0  0
 29 30  1  0  0  0  0
 29 57  1  0  0  0  0
 30 59  1  0  0  0  0
 30 60  1  0  0  0  0
 30 61  1  0  0  0  0
M  END
> <PUBCHEM_COMPOUND_CID>
101649339

> <PUBCHEM_CONFORMER_RMSD>
1

> <PUBCHEM_CONFORMER_DIVERSEORDER>
2
40
15
43
37
48
16
10
66
31
78
20
7
59
12
19
75
11
36
26
44
53
30
28
45
6
3
22
70
65
33
42
39
57
56
46
60
62
61
47
73
76
72
14
71
49
5
4
54
67
21
58
9
18
17
34
29
8
1
35
69
74
41
23
63
51
55
25
64
13
77
24
68
32
27
38
52
50

> <PUBCHEM_MMFF94_PARTIAL_CHARGES>
35
1 -0.3
11 0.38
12 0.28
13 -0.05
15 0.42
18 0.28
19 -0.29
2 -0.56
20 0.14
21 -0.28
22 0.71
23 0.14
24 -0.14
25 -0.15
26 -0.15
27 -0.29
28 0.42
29 0.28
3 -0.43
33 0.1
34 0.1
4 -0.68
45 0.15
48 0.4
5 -0.57
52 0.15
53 0.15
54 0.15
55 0.15
58 0.4
6 -0.68
62 0.4
7 -0.68
8 0.09
9 -0.04

> <PUBCHEM_EFFECTIVE_ROTOR_COUNT>
8.4

> <PUBCHEM_PHARMACOPHORE_FEATURES>
11
1 1 acceptor
1 2 acceptor
1 4 acceptor
1 4 donor
1 5 acceptor
1 6 acceptor
1 6 donor
1 7 acceptor
1 7 donor
6 10 15 17 19 20 21 rings
8 2 8 9 10 11 12 14 15 rings

> <PUBCHEM_HEAVY_ATOM_COUNT>
30

> <PUBCHEM_ATOM_DEF_STEREO_COUNT>
8

> <PUBCHEM_ATOM_UDEF_STEREO_COUNT>
0

> <PUBCHEM_BOND_DEF_STEREO_COUNT>
2

> <PUBCHEM_BOND_UDEF_STEREO_COUNT>
0

> <PUBCHEM_ISOTOPIC_ATOM_COUNT>
0

> <PUBCHEM_COMPONENT_COUNT>
1

> <PUBCHEM_CACTVS_TAUTO_COUNT>
1

> <PUBCHEM_CONFORMER_ID>
060F0BBB00000002

> <PUBCHEM_MMFF94_ENERGY>
100.2377

> <PUBCHEM_FEATURE_SELFOVERLAP>
55.837

> <PUBCHEM_SHAPE_FINGERPRINT>
10366900 7 15068610626163202377
10670039 82 13768197256763249094
10692045 39 16343434929349021470
11273773 46 18264486192244522158
11387372 6 18261114131689979811
11578080 2 17024857166242573271
12422481 6 17489307439472741148
12633257 1 16414642712156936457
13073987 5 18343586278401629336
13673619 4 18040435520596157952
13782708 43 18041275551759168866
14347332 77 16950827151281348136
14400156 162 18336275578438560003
14420673 8 18338802208840448290
14840074 17 13262394475070482979
14955137 171 18273494576751702296
15064986 96 17774168885631570519
15183329 4 18187366511338948512
15575132 122 13118271568954272006
16728300 4 18202568349855651327
16994733 274 11959465474390598851
1813 80 16733259170542435325
1979834 28 17275112713269141550
21365058 113 17967258611206096228
21424621 283 12966590659069837259
21682296 61 18412267220405731778
23522609 53 17971224502513951196
23559900 14 18189611808256130057
3004659 81 18334579041108795428
3383291 50 18272369793225834426
46194498 28 17603584188495074356
474113 269 18271802484687482623
5104073 3 18343864446195454600
54039377 194 18412551994819315094
559249 180 18059574642154799568
56633871 153 18341047522725937615
6036956 94 9583228487956198226
6081469 158 18187359970177843311
999808 66 18408892836431631290

> <PUBCHEM_SHAPE_MULTIPOLES>
576.3
18.02
2.78
1.86
31.02
0.22
1.25
13.64
-4.52
1.02
-0.51
-1.22
-0.16
1.36

> <PUBCHEM_SHAPE_SELFOVERLAP>
1218.471

> <PUBCHEM_SHAPE_VOLUME>
318.5

> <PUBCHEM_COORDINATE_TYPE>
2
5
10

$$$$
