101663894
  -OEChem-03292013293D

 64 65  0     1  0  0  0  0  0999 V2000
   -2.1592   -1.4044    1.5113 O   0  0  0  0  0  0  0  0  0  0  0  0
   -5.3237   -1.1475    1.6383 O   0  0  0  0  0  0  0  0  0  0  0  0
   -3.6486    3.1032    1.1481 O   0  0  0  0  0  0  0  0  0  0  0  0
    0.1504   -1.9045   -2.7839 O   0  0  0  0  0  0  0  0  0  0  0  0
    1.5528    1.3672    1.3014 O   0  0  0  0  0  0  0  0  0  0  0  0
   -0.5473   -2.1383   -0.5809 N   0  0  0  0  0  0  0  0  0  0  0  0
   -4.6950    1.0858    1.6104 N   0  0  0  0  0  0  0  0  0  0  0  0
    2.0547    0.2053   -0.6484 N   0  0  0  0  0  0  0  0  0  0  0  0
   -3.6957   -0.3160    0.0473 C   0  0  1  0  0  0  0  0  0  0  0  0
   -1.9619   -2.0185   -0.8228 C   0  0  2  0  0  0  0  0  0  0  0  0
   -3.2352    1.1260   -0.2093 C   0  0  1  0  0  0  0  0  0  0  0  0
   -2.5737   -1.2737    0.3593 C   0  0  0  0  0  0  0  0  0  0  0  0
   -2.6589   -3.3664   -1.0858 C   0  0  0  0  0  0  0  0  0  0  0  0
   -4.6808   -0.2148    1.1781 C   0  0  0  0  0  0  0  0  0  0  0  0
   -3.8542    1.9200    0.9193 C   0  0  0  0  0  0  0  0  0  0  0  0
   -1.7366    1.3729   -0.2963 C   0  0  0  0  0  0  0  0  0  0  0  0
   -2.2046   -4.4236   -0.0745 C   0  0  0  0  0  0  0  0  0  0  0  0
   -2.4520   -3.8903   -2.5106 C   0  0  0  0  0  0  0  0  0  0  0  0
    0.4025   -2.0705   -1.5937 C   0  0  0  0  0  0  0  0  0  0  0  0
    1.8167   -2.2141   -1.0483 C   0  0  0  0  0  0  0  0  0  0  0  0
    2.2059   -1.1068   -0.0572 C   0  0  1  0  0  0  0  0  0  0  0  0
    3.6163   -1.2936    0.4640 C   0  0  0  0  0  0  0  0  0  0  0  0
    4.6908   -0.7122   -0.2089 C   0  0  0  0  0  0  0  0  0  0  0  0
    3.8403   -2.0467    1.6166 C   0  0  0  0  0  0  0  0  0  0  0  0
    1.7395    1.3327    0.0895 C   0  0  0  0  0  0  0  0  0  0  0  0
    5.9894   -0.8838    0.2706 C   0  0  0  0  0  0  0  0  0  0  0  0
    5.1388   -2.2184    2.0963 C   0  0  0  0  0  0  0  0  0  0  0  0
    6.2134   -1.6369    1.4233 C   0  0  0  0  0  0  0  0  0  0  0  0
    1.6462    2.5464   -0.7695 C   0  0  0  0  0  0  0  0  0  0  0  0
    1.3488    3.7350   -0.2263 C   0  0  0  0  0  0  0  0  0  0  0  0
    1.2425    4.9468   -1.0088 C   0  0  0  0  0  0  0  0  0  0  0  0
    0.9455    6.1410   -0.4755 C   0  0  0  0  0  0  0  0  0  0  0  0
    0.8330    7.3988   -1.2729 C   0  0  0  0  0  0  0  0  0  0  0  0
   -4.2478   -0.6937   -0.8220 H   0  0  0  0  0  0  0  0  0  0  0  0
   -2.0911   -1.3770   -1.7034 H   0  0  0  0  0  0  0  0  0  0  0  0
   -3.7044    1.4844   -1.1351 H   0  0  0  0  0  0  0  0  0  0  0  0
   -3.7399   -3.2247   -0.9539 H   0  0  0  0  0  0  0  0  0  0  0  0
   -1.5395    2.4363   -0.4710 H   0  0  0  0  0  0  0  0  0  0  0  0
   -1.2861    0.8180   -1.1236 H   0  0  0  0  0  0  0  0  0  0  0  0
   -1.2297    1.1046    0.6360 H   0  0  0  0  0  0  0  0  0  0  0  0
   -0.2431   -2.3240    0.3705 H   0  0  0  0  0  0  0  0  0  0  0  0
   -5.2571    1.3981    2.3944 H   0  0  0  0  0  0  0  0  0  0  0  0
   -1.1486   -4.6862   -0.1981 H   0  0  0  0  0  0  0  0  0  0  0  0
   -2.3587   -4.0868    0.9553 H   0  0  0  0  0  0  0  0  0  0  0  0
   -2.7848   -5.3442   -0.2043 H   0  0  0  0  0  0  0  0  0  0  0  0
   -1.4056   -4.1498   -2.6980 H   0  0  0  0  0  0  0  0  0  0  0  0
   -2.7590   -3.1421   -3.2485 H   0  0  0  0  0  0  0  0  0  0  0  0
   -3.0522   -4.7910   -2.6794 H   0  0  0  0  0  0  0  0  0  0  0  0
    1.8993   -3.2013   -0.5761 H   0  0  0  0  0  0  0  0  0  0  0  0
    2.4999   -2.2171   -1.9077 H   0  0  0  0  0  0  0  0  0  0  0  0
    1.5291   -1.1350    0.8062 H   0  0  0  0  0  0  0  0  0  0  0  0
    2.2301    0.2942   -1.6456 H   0  0  0  0  0  0  0  0  0  0  0  0
    4.5510   -0.1345   -1.1182 H   0  0  0  0  0  0  0  0  0  0  0  0
    3.0117   -2.5065    2.1486 H   0  0  0  0  0  0  0  0  0  0  0  0
    6.8268   -0.4345   -0.2553 H   0  0  0  0  0  0  0  0  0  0  0  0
    5.3134   -2.8053    2.9933 H   0  0  0  0  0  0  0  0  0  0  0  0
    7.2246   -1.7714    1.7961 H   0  0  0  0  0  0  0  0  0  0  0  0
    1.8222    2.4406   -1.8355 H   0  0  0  0  0  0  0  0  0  0  0  0
    1.1732    3.8257    0.8426 H   0  0  0  0  0  0  0  0  0  0  0  0
    1.4149    4.8662   -2.0792 H   0  0  0  0  0  0  0  0  0  0  0  0
    0.7710    6.2322    0.5939 H   0  0  0  0  0  0  0  0  0  0  0  0
    1.5559    8.1357   -0.9098 H   0  0  0  0  0  0  0  0  0  0  0  0
   -0.1713    7.8197   -1.1645 H   0  0  0  0  0  0  0  0  0  0  0  0
    1.0203    7.2335   -2.3386 H   0  0  0  0  0  0  0  0  0  0  0  0
  1 12  2  0  0  0  0
  2 14  2  0  0  0  0
  3 15  2  0  0  0  0
  4 19  2  0  0  0  0
  5 25  2  0  0  0  0
  6 10  1  0  0  0  0
  6 19  1  0  0  0  0
  6 41  1  0  0  0  0
  7 14  1  0  0  0  0
  7 15  1  0  0  0  0
  7 42  1  0  0  0  0
  8 21  1  0  0  0  0
  8 25  1  0  0  0  0
  8 52  1  0  0  0  0
  9 11  1  0  0  0  0
  9 12  1  0  0  0  0
  9 14  1  0  0  0  0
  9 34  1  0  0  0  0
 10 12  1  0  0  0  0
 10 13  1  0  0  0  0
 10 35  1  0  0  0  0
 11 15  1  0  0  0  0
 11 16  1  0  0  0  0
 11 36  1  0  0  0  0
 13 17  1  0  0  0  0
 13 18  1  0  0  0  0
 13 37  1  0  0  0  0
 16 38  1  0  0  0  0
 16 39  1  0  0  0  0
 16 40  1  0  0  0  0
 17 43  1  0  0  0  0
 17 44  1  0  0  0  0
 17 45  1  0  0  0  0
 18 46  1  0  0  0  0
 18 47  1  0  0  0  0
 18 48  1  0  0  0  0
 19 20  1  0  0  0  0
 20 21  1  0  0  0  0
 20 49  1  0  0  0  0
 20 50  1  0  0  0  0
 21 22  1  0  0  0  0
 21 51  1  0  0  0  0
 22 23  2  0  0  0  0
 22 24  1  0  0  0  0
 23 26  1  0  0  0  0
 23 53  1  0  0  0  0
 24 27  2  0  0  0  0
 24 54  1  0  0  0  0
 25 29  1  0  0  0  0
 26 28  2  0  0  0  0
 26 55  1  0  0  0  0
 27 28  1  0  0  0  0
 27 56  1  0  0  0  0
 28 57  1  0  0  0  0
 29 30  2  0  0  0  0
 29 58  1  0  0  0  0
 30 31  1  0  0  0  0
 30 59  1  0  0  0  0
 31 32  2  0  0  0  0
 31 60  1  0  0  0  0
 32 33  1  0  0  0  0
 32 61  1  0  0  0  0
 33 62  1  0  0  0  0
 33 63  1  0  0  0  0
 33 64  1  0  0  0  0
M  END
> <PUBCHEM_COMPOUND_CID>
101663894

> <PUBCHEM_CONFORMER_RMSD>
1.2

> <PUBCHEM_CONFORMER_DIVERSEORDER>
1
176
88
39
120
103
55
93
158
91
33
87
145
53
54
83
51
112
65
173
41
60
108
125
78
110
48
67
38
52
153
155
166
113
148
85
81
179
133
100
126
30
66
95
136
59
171
62
151
63
15
56
121
86
139
119
134
102
47
160
28
117
114
23
3
92
11
141
183
147
163
172
169
182
142
7
177
70
107
101
49
10
130
32
19
90
127
16
138
109
137
21
105
36
69
27
175
122
115
144
80
12
13
184
89
9
84
71
146
140
116
111
149
118
29
50
26
131
104
152
162
154
97
82
79
168
96
18
135
2
34
132
174
17
43
25
75
170
4
44
73
178
157
106
20
31
181
124
76
68
180
5
129
150
159
61
161
128
143
64
77
156
14
72
8
165
167
98
6
37
123
42
46
35
24
99
74
58
164
94
22
40
45
57

> <PUBCHEM_MMFF94_PARTIAL_CHARGES>
41
1 -0.57
10 0.36
11 0.06
12 0.45
14 0.57
15 0.57
19 0.57
2 -0.57
20 0.06
21 0.44
22 -0.14
23 -0.15
24 -0.15
25 0.62
26 -0.15
27 -0.15
28 -0.15
29 -0.14
3 -0.57
30 -0.15
31 -0.15
32 -0.29
33 0.14
4 -0.57
41 0.37
42 0.37
5 -0.57
52 0.37
53 0.15
54 0.15
55 0.15
56 0.15
57 0.15
58 0.15
59 0.15
6 -0.73
60 0.15
61 0.15
7 -0.49
8 -0.73
9 0.12

> <PUBCHEM_EFFECTIVE_ROTOR_COUNT>
12.6

> <PUBCHEM_PHARMACOPHORE_FEATURES>
13
1 1 acceptor
1 2 acceptor
1 3 acceptor
1 33 hydrophobe
1 4 acceptor
1 5 acceptor
1 6 donor
1 7 donor
1 8 donor
1 9 anion
3 13 17 18 hydrophobe
5 7 9 11 14 15 rings
6 22 23 24 26 27 28 rings

> <PUBCHEM_HEAVY_ATOM_COUNT>
33

> <PUBCHEM_ATOM_DEF_STEREO_COUNT>
4

> <PUBCHEM_ATOM_UDEF_STEREO_COUNT>
0

> <PUBCHEM_BOND_DEF_STEREO_COUNT>
2

> <PUBCHEM_BOND_UDEF_STEREO_COUNT>
0

> <PUBCHEM_ISOTOPIC_ATOM_COUNT>
0

> <PUBCHEM_COMPONENT_COUNT>
1

> <PUBCHEM_CACTVS_TAUTO_COUNT>
195

> <PUBCHEM_CONFORMER_ID>
060F449600000001

> <PUBCHEM_MMFF94_ENERGY>
63.3873

> <PUBCHEM_FEATURE_SELFOVERLAP>
65.972

> <PUBCHEM_SHAPE_FINGERPRINT>
10006869 2 17911524508575679751
10675989 125 16244606108018080780
10871710 139 17263016148053448559
12107698 1 18408324402089848771
12422481 6 18056752140409677498
12633257 1 18411983567791223663
12788726 201 18116718413872076600
13583140 156 18040994034318361131
14950920 106 18115876363732779979
15444296 121 18337687351104834258
16110190 28 18411698781779219712
16728300 4 17752754741398091531
19246450 95 17256498853036775218
21033648 29 17845934009381259979
2132832 1 18127391561467748191
21796203 349 18046945711606348992
22113638 7 18412546483432074021
238918 7 17840018551008485038
5047190 48 17979645537173910332
6371009 1 18343861109316542463
653340 110 17833550090043649472
9896288 288 17831004738195328522

> <PUBCHEM_SHAPE_MULTIPOLES>
634.83
10.86
8.39
1.92
6.4
19.67
-0.34
-7.54
7.21
1.07
-4.51
-0.56
-1.38
-3.64

> <PUBCHEM_SHAPE_SELFOVERLAP>
1312.582

> <PUBCHEM_SHAPE_VOLUME>
361.8

> <PUBCHEM_COORDINATE_TYPE>
2
5
10

$$$$
