101607250
  -OEChem-03292013293D

 49 52  0     1  0  0  0  0  0999 V2000
    2.6489    0.0744   -1.6430 O   0  0  0  0  0  0  0  0  0  0  0  0
   -1.0064   -3.1643    1.0147 O   0  0  0  0  0  0  0  0  0  0  0  0
   -0.6796   -2.9004   -1.2203 O   0  0  0  0  0  0  0  0  0  0  0  0
    1.7501   -1.5087    2.0091 O   0  0  0  0  0  0  0  0  0  0  0  0
   -0.8037    5.4838    0.6121 O   0  0  0  0  0  0  0  0  0  0  0  0
   -6.8921   -1.5730    0.2133 O   0  0  0  0  0  0  0  0  0  0  0  0
    7.2981    0.0612   -0.6757 O   0  0  0  0  0  0  0  0  0  0  0  0
   -1.4658   -0.0493   -0.4813 C   0  0  0  0  0  0  0  0  0  0  0  0
   -0.4606   -0.9753    0.2717 C   0  0  2  0  0  0  0  0  0  0  0  0
   -1.2873    1.4398   -0.1876 C   0  0  0  0  0  0  0  0  0  0  0  0
   -2.9261   -0.4590   -0.2948 C   0  0  0  0  0  0  0  0  0  0  0  0
    0.9651   -0.7104   -0.0843 C   0  0  0  0  0  0  0  0  0  0  0  0
   -0.7114   -2.4325   -0.0903 C   0  0  0  0  0  0  0  0  0  0  0  0
    2.0165   -1.0340    0.9129 C   0  0  0  0  0  0  0  0  0  0  0  0
   -1.5204    2.3817   -1.1896 C   0  0  0  0  0  0  0  0  0  0  0  0
   -3.6727   -0.8991   -1.3880 C   0  0  0  0  0  0  0  0  0  0  0  0
   -3.5125   -0.3933    0.9691 C   0  0  0  0  0  0  0  0  0  0  0  0
   -0.8916    1.8570    1.0833 C   0  0  0  0  0  0  0  0  0  0  0  0
    1.3590   -0.1935   -1.2553 C   0  0  0  0  0  0  0  0  0  0  0  0
    3.4070   -0.7519    0.5111 C   0  0  0  0  0  0  0  0  0  0  0  0
    3.6520   -0.2103   -0.7512 C   0  0  0  0  0  0  0  0  0  0  0  0
   -1.3576    3.7407   -0.9210 C   0  0  0  0  0  0  0  0  0  0  0  0
   -5.0054   -1.2730   -1.2173 C   0  0  0  0  0  0  0  0  0  0  0  0
   -0.7287    3.2160    1.3519 C   0  0  0  0  0  0  0  0  0  0  0  0
   -4.8454   -0.7673    1.1398 C   0  0  0  0  0  0  0  0  0  0  0  0
   -5.5919   -1.2071    0.0467 C   0  0  0  0  0  0  0  0  0  0  0  0
   -0.9617    4.1578    0.3498 C   0  0  0  0  0  0  0  0  0  0  0  0
    4.4682   -1.0221    1.3790 C   0  0  0  0  0  0  0  0  0  0  0  0
    4.9598    0.0641   -1.1522 C   0  0  0  0  0  0  0  0  0  0  0  0
    5.7754   -0.7469    0.9750 C   0  0  0  0  0  0  0  0  0  0  0  0
    6.0208   -0.2051   -0.2875 C   0  0  0  0  0  0  0  0  0  0  0  0
   -1.2793   -0.1763   -1.5567 H   0  0  0  0  0  0  0  0  0  0  0  0
   -0.6080   -0.8761    1.3535 H   0  0  0  0  0  0  0  0  0  0  0  0
   -1.8300    2.0708   -2.1838 H   0  0  0  0  0  0  0  0  0  0  0  0
   -3.2322   -0.9574   -2.3797 H   0  0  0  0  0  0  0  0  0  0  0  0
   -0.7154    1.1607    1.8958 H   0  0  0  0  0  0  0  0  0  0  0  0
   -2.9497   -0.0648    1.8375 H   0  0  0  0  0  0  0  0  0  0  0  0
    0.7098    0.0718   -2.0773 H   0  0  0  0  0  0  0  0  0  0  0  0
   -5.5818   -1.6152   -2.0725 H   0  0  0  0  0  0  0  0  0  0  0  0
   -1.5409    4.4697   -1.7056 H   0  0  0  0  0  0  0  0  0  0  0  0
   -5.2899   -0.7140    2.1301 H   0  0  0  0  0  0  0  0  0  0  0  0
   -0.4233    3.5286    2.3469 H   0  0  0  0  0  0  0  0  0  0  0  0
    4.2980   -1.4437    2.3656 H   0  0  0  0  0  0  0  0  0  0  0  0
    5.1534    0.4861   -2.1352 H   0  0  0  0  0  0  0  0  0  0  0  0
   -1.1828   -4.1037    0.7943 H   0  0  0  0  0  0  0  0  0  0  0  0
    6.5961   -0.9596    1.6552 H   0  0  0  0  0  0  0  0  0  0  0  0
   -0.5272    5.5910    1.5385 H   0  0  0  0  0  0  0  0  0  0  0  0
   -7.1323   -1.4648    1.1496 H   0  0  0  0  0  0  0  0  0  0  0  0
    7.9042   -0.1857    0.0438 H   0  0  0  0  0  0  0  0  0  0  0  0
  1 19  1  0  0  0  0
  1 21  1  0  0  0  0
  2 13  1  0  0  0  0
  2 45  1  0  0  0  0
  3 13  2  0  0  0  0
  4 14  2  0  0  0  0
  5 27  1  0  0  0  0
  5 47  1  0  0  0  0
  6 26  1  0  0  0  0
  6 48  1  0  0  0  0
  7 31  1  0  0  0  0
  7 49  1  0  0  0  0
  8  9  1  0  0  0  0
  8 10  1  0  0  0  0
  8 11  1  0  0  0  0
  8 32  1  0  0  0  0
  9 12  1  0  0  0  0
  9 13  1  0  0  0  0
  9 33  1  0  0  0  0
 10 15  2  0  0  0  0
 10 18  1  0  0  0  0
 11 16  2  0  0  0  0
 11 17  1  0  0  0  0
 12 14  1  0  0  0  0
 12 19  2  0  0  0  0
 14 20  1  0  0  0  0
 15 22  1  0  0  0  0
 15 34  1  0  0  0  0
 16 23  1  0  0  0  0
 16 35  1  0  0  0  0
 17 25  2  0  0  0  0
 17 37  1  0  0  0  0
 18 24  2  0  0  0  0
 18 36  1  0  0  0  0
 19 38  1  0  0  0  0
 20 21  2  0  0  0  0
 20 28  1  0  0  0  0
 21 29  1  0  0  0  0
 22 27  2  0  0  0  0
 22 40  1  0  0  0  0
 23 26  2  0  0  0  0
 23 39  1  0  0  0  0
 24 27  1  0  0  0  0
 24 42  1  0  0  0  0
 25 26  1  0  0  0  0
 25 41  1  0  0  0  0
 28 30  2  0  0  0  0
 28 43  1  0  0  0  0
 29 31  2  0  0  0  0
 29 44  1  0  0  0  0
 30 31  1  0  0  0  0
 30 46  1  0  0  0  0
M  END
> <PUBCHEM_COMPOUND_CID>
101607250

> <PUBCHEM_CONFORMER_RMSD>
0.8

> <PUBCHEM_CONFORMER_DIVERSEORDER>
1
15
12
11
13
8
10
4
9
16
6
5
14
3
2
7

> <PUBCHEM_MMFF94_PARTIAL_CHARGES>
47
1 -0.16
10 -0.14
11 -0.14
12 -0.12
13 0.66
14 0.47
15 -0.15
16 -0.15
17 -0.15
18 -0.15
19 -0.07
2 -0.65
20 0.09
21 0.08
22 -0.15
23 -0.15
24 -0.15
25 -0.15
26 0.08
27 0.08
28 -0.15
29 -0.15
3 -0.57
30 -0.15
31 0.08
34 0.15
35 0.15
36 0.15
37 0.15
38 0.15
39 0.15
4 -0.57
40 0.15
41 0.15
42 0.15
43 0.15
44 0.15
45 0.5
46 0.15
47 0.45
48 0.45
49 0.45
5 -0.53
6 -0.53
7 -0.53
8 0.29
9 0.2

> <PUBCHEM_EFFECTIVE_ROTOR_COUNT>
5

> <PUBCHEM_PHARMACOPHORE_FEATURES>
12
1 1 acceptor
1 2 acceptor
1 3 acceptor
1 4 acceptor
1 5 donor
1 6 donor
1 7 donor
3 2 3 13 anion
6 1 12 14 19 20 21 rings
6 10 15 18 22 24 27 rings
6 11 16 17 23 25 26 rings
6 20 21 28 29 30 31 rings

> <PUBCHEM_HEAVY_ATOM_COUNT>
31

> <PUBCHEM_ATOM_DEF_STEREO_COUNT>
1

> <PUBCHEM_ATOM_UDEF_STEREO_COUNT>
0

> <PUBCHEM_BOND_DEF_STEREO_COUNT>
0

> <PUBCHEM_BOND_UDEF_STEREO_COUNT>
0

> <PUBCHEM_ISOTOPIC_ATOM_COUNT>
0

> <PUBCHEM_COMPONENT_COUNT>
1

> <PUBCHEM_CACTVS_TAUTO_COUNT>
235

> <PUBCHEM_CONFORMER_ID>
060E675200000001

> <PUBCHEM_MMFF94_ENERGY>
87.7459

> <PUBCHEM_FEATURE_SELFOVERLAP>
60.983

> <PUBCHEM_SHAPE_FINGERPRINT>
102385 1 17836367047487340647
10670039 82 18337678516905336214
10930396 42 18192969699666474440
1100329 8 18265054819959962371
11421498 54 18261105240690302859
11607047 74 16911134992636345339
12107183 9 17614273369983720706
12107698 1 18412543224195565564
12166972 35 17822010947079243540
12236239 1 18040431079689930374
12516196 113 18410854391203804443
12788726 201 18335977588827032562
13140716 1 18265899244779305138
13149001 5 18120378911161084639
133893 2 17836624681279504349
13782708 43 17418099784897744974
13911987 19 18261100881715495031
14068700 675 18334856138733434996
14118638 360 18261678078745115742
14294032 229 18125169238072962481
14347332 77 18269277863765460798
14910302 57 17703523103520940758
14955137 171 18340496680934436231
15131766 46 15696286707988032016
15439362 3 18050563247366317909
15484559 13 14815838778663829886
15927050 60 17547857811750901837
1813 80 18272657869972681429
19319366 153 17968087668690495354
20600515 1 18129958882568777055
20642791 105 18189325788645026476
21033650 10 18194144953506322526
21049683 271 18114746053078412909
21285901 2 17917725573287025702
21641784 216 18260840262883527172
22907989 373 18194103141055976637
23402539 116 18343301465796966375
23558518 356 17974009444716834899
23576562 1 18195230338939378519
25019877 29 17060347348286957999
283562 15 18336829684726822203
3178227 256 18264502827090852667
469060 322 18340503174513538393
5171179 24 18199449113168192225
5219985 9 18410291432787023029
6086070 43 18338499929748771589
7226269 152 18408603668910023879
9849439 229 17476356107004944136
9962374 69 18126565846612915879

> <PUBCHEM_SHAPE_MULTIPOLES>
596.88
12.73
4.26
1.5
9.18
7.42
0.06
-7.51
-0.65
-3.97
0.75
0.3
-0.08
-0.68

> <PUBCHEM_SHAPE_SELFOVERLAP>
1326.698

> <PUBCHEM_SHAPE_VOLUME>
313.9

> <PUBCHEM_COORDINATE_TYPE>
2
5
10

$$$$
