101626738
  -OEChem-03292013293D

 36 38  0     1  0  0  0  0  0999 V2000
   -0.2828   -0.1387    1.7292 O   0  0  0  0  0  0  0  0  0  0  0  0
    2.3062   -0.6439   -0.6891 O   0  0  0  0  0  0  0  0  0  0  0  0
    0.6113   -2.7302    0.1597 O   0  0  0  0  0  0  0  0  0  0  0  0
    1.2032    2.2587    1.0465 O   0  0  0  0  0  0  0  0  0  0  0  0
    5.3698    1.0771   -1.0062 O   0  0  0  0  0  0  0  0  0  0  0  0
    4.7390   -1.0765   -1.4066 O   0  0  0  0  0  0  0  0  0  0  0  0
   -3.4617   -2.2554    0.2041 O   0  0  0  0  0  0  0  0  0  0  0  0
   -5.2318    1.7315   -1.2838 O   0  0  0  0  0  0  0  0  0  0  0  0
   -2.1149   -0.3482    0.2904 N   0  0  0  0  0  0  0  0  0  0  0  0
   -4.3414   -0.2690   -0.5364 N   0  0  0  0  0  0  0  0  0  0  0  0
    1.0797   -0.1349    1.3085 C   0  0  1  0  0  0  0  0  0  0  0  0
    1.0129   -0.3774   -0.1834 C   0  0  2  0  0  0  0  0  0  0  0  0
    0.0050   -1.5034   -0.2340 C   0  0  2  0  0  0  0  0  0  0  0  0
    1.8697    1.1290    1.6020 C   0  0  1  0  0  0  0  0  0  0  0  0
   -0.9896   -1.0483    0.8462 C   0  0  1  0  0  0  0  0  0  0  0  0
    3.2516    0.9677    0.9472 C   0  0  0  0  0  0  0  0  0  0  0  0
    3.1491    0.5056   -0.5200 C   0  0  1  0  0  0  0  0  0  0  0  0
    4.4792    0.0554   -1.0263 C   0  0  0  0  0  0  0  0  0  0  0  0
   -3.3100   -1.0485    0.0040 C   0  0  0  0  0  0  0  0  0  0  0  0
   -2.0262    1.0151    0.0358 C   0  0  0  0  0  0  0  0  0  0  0  0
   -3.0181    1.7447   -0.4792 C   0  0  0  0  0  0  0  0  0  0  0  0
   -4.3002    1.0897   -0.8084 C   0  0  0  0  0  0  0  0  0  0  0  0
    1.5860   -0.9680    1.8175 H   0  0  0  0  0  0  0  0  0  0  0  0
    0.5982    0.4784   -0.7296 H   0  0  0  0  0  0  0  0  0  0  0  0
   -0.4300   -1.6482   -1.2275 H   0  0  0  0  0  0  0  0  0  0  0  0
    1.9523    1.2946    2.6809 H   0  0  0  0  0  0  0  0  0  0  0  0
   -1.3381   -1.8917    1.4530 H   0  0  0  0  0  0  0  0  0  0  0  0
    3.8200    0.2238    1.5210 H   0  0  0  0  0  0  0  0  0  0  0  0
    3.8069    1.9117    0.9978 H   0  0  0  0  0  0  0  0  0  0  0  0
    2.7794    1.3062   -1.1722 H   0  0  0  0  0  0  0  0  0  0  0  0
   -0.0874   -3.4063    0.1772 H   0  0  0  0  0  0  0  0  0  0  0  0
    1.7519    3.0405    1.2288 H   0  0  0  0  0  0  0  0  0  0  0  0
   -1.1002    1.5181    0.2719 H   0  0  0  0  0  0  0  0  0  0  0  0
   -5.2097   -0.7515   -0.7508 H   0  0  0  0  0  0  0  0  0  0  0  0
   -2.9138    2.8070   -0.6631 H   0  0  0  0  0  0  0  0  0  0  0  0
    6.2521    0.8007   -1.3341 H   0  0  0  0  0  0  0  0  0  0  0  0
  1 11  1  0  0  0  0
  1 15  1  0  0  0  0
  2 12  1  0  0  0  0
  2 17  1  0  0  0  0
  3 13  1  0  0  0  0
  3 31  1  0  0  0  0
  4 14  1  0  0  0  0
  4 32  1  0  0  0  0
  5 18  1  0  0  0  0
  5 36  1  0  0  0  0
  6 18  2  0  0  0  0
  7 19  2  0  0  0  0
  8 22  2  0  0  0  0
  9 15  1  0  0  0  0
  9 19  1  0  0  0  0
  9 20  1  0  0  0  0
 10 19  1  0  0  0  0
 10 22  1  0  0  0  0
 10 34  1  0  0  0  0
 11 12  1  0  0  0  0
 11 14  1  0  0  0  0
 11 23  1  0  0  0  0
 12 13  1  0  0  0  0
 12 24  1  0  0  0  0
 13 15  1  0  0  0  0
 13 25  1  0  0  0  0
 14 16  1  0  0  0  0
 14 26  1  0  0  0  0
 15 27  1  0  0  0  0
 16 17  1  0  0  0  0
 16 28  1  0  0  0  0
 16 29  1  0  0  0  0
 17 18  1  0  0  0  0
 17 30  1  0  0  0  0
 20 21  2  0  0  0  0
 20 33  1  0  0  0  0
 21 22  1  0  0  0  0
 21 35  1  0  0  0  0
M  END
> <PUBCHEM_COMPOUND_CID>
101626738

> <PUBCHEM_CONFORMER_RMSD>
0.6

> <PUBCHEM_CONFORMER_DIVERSEORDER>
1
8
5
10
9
7
4
3
6
2

> <PUBCHEM_MMFF94_PARTIAL_CHARGES>
27
1 -0.56
10 -0.49
11 0.28
12 0.28
13 0.28
14 0.28
15 0.58
17 0.34
18 0.66
19 0.69
2 -0.56
20 -0.04
21 -0.14
22 0.62
3 -0.68
31 0.4
32 0.4
33 0.15
34 0.37
35 0.15
36 0.5
4 -0.68
5 -0.65
6 -0.57
7 -0.57
8 -0.57
9 -0.47

> <PUBCHEM_EFFECTIVE_ROTOR_COUNT>
3.4

> <PUBCHEM_PHARMACOPHORE_FEATURES>
15
1 1 acceptor
1 10 donor
1 2 acceptor
1 3 acceptor
1 3 donor
1 4 acceptor
1 4 donor
1 5 acceptor
1 6 acceptor
1 7 acceptor
1 8 acceptor
3 5 6 18 anion
5 1 11 12 13 15 rings
6 2 11 12 14 16 17 rings
6 9 10 19 20 21 22 rings

> <PUBCHEM_HEAVY_ATOM_COUNT>
22

> <PUBCHEM_ATOM_DEF_STEREO_COUNT>
6

> <PUBCHEM_ATOM_UDEF_STEREO_COUNT>
0

> <PUBCHEM_BOND_DEF_STEREO_COUNT>
0

> <PUBCHEM_BOND_UDEF_STEREO_COUNT>
0

> <PUBCHEM_ISOTOPIC_ATOM_COUNT>
0

> <PUBCHEM_COMPONENT_COUNT>
1

> <PUBCHEM_CACTVS_TAUTO_COUNT>
3

> <PUBCHEM_CONFORMER_ID>
060EB37200000001

> <PUBCHEM_MMFF94_ENERGY>
62.4677

> <PUBCHEM_FEATURE_SELFOVERLAP>
76.3

> <PUBCHEM_SHAPE_FINGERPRINT>
10498660 4 18333724715461739093
10646746 165 18335975441258942865
11046707 91 12679463075583982159
11961588 58 18113897212536947540
12186901 62 18408323311073040555
12236239 1 17022897964848603376
12403259 415 18342458196160198520
12596602 18 15068625968086947149
12730499 353 18411982430220560451
12892183 10 12757421709989588005
13464514 151 18197784301690439497
14739800 52 17751065011560122304
15210252 30 18259987033234066956
18186145 218 18130788992336150883
18769570 83 17822006549734910700
19784866 170 10881394344645918242
19784866 240 14764624214268010189
19862831 5 17846494824888428235
200 152 16559038181181681642
204376 136 14273741767357701112
20645477 70 17275108361791978550
20871999 31 18271536346537507472
21069387 34 15123513635610375388
21637258 2 14548450280928820444
21756936 100 16660653976611376648
221357 26 18060134319628068709
22182313 1 18128528452158484353
22224240 67 12252197289389356252
22393880 68 18343293777953368431
23114952 82 18197214737709181975
23402539 116 18261109699066465014
23493267 7 17822014232834823843
23557571 272 18336835272827667815
23559900 14 18201723972818551418
25 1 18341336591262817395
2838139 119 17605287366203006556
296302 2 14634868643497153577
3009799 131 17846212220746716906
3060560 45 18130492072530306524
3323516 105 18202281420164635419
3472631 163 17822008697001839573
4028521 119 18408318870103249861
4280585 95 17194054293218167894
474 4 16732989725447308629
5281201 14 18200876287264774505
56616090 163 18336548222946340687
59682541 52 17845078581156034805
633830 44 18200581583926000829
76465 3 14764350401544305076
7808743 9 17967810518698118949

> <PUBCHEM_SHAPE_MULTIPOLES>
395.83
9.8
2.09
1.35
0.14
0.47
-0.25
-2.89
5.48
-1.15
-0.06
0.9
-0.29
1.27

> <PUBCHEM_SHAPE_SELFOVERLAP>
854.062

> <PUBCHEM_SHAPE_VOLUME>
212.7

> <PUBCHEM_COORDINATE_TYPE>
2
5
10

$$$$
