101659189
  -OEChem-03292013293D

 40 40  0     1  0  0  0  0  0999 V2000
    5.3657    0.1826    0.9607 Cl  0  0  0  0  0  0  0  0  0  0  0  0
    4.3674   -2.4783    0.2861 Cl  0  0  0  0  0  0  0  0  0  0  0  0
   -3.5813    1.2996    1.0955 S   0  0  0  0  0  0  0  0  0  0  0  0
   -1.6491    0.7695   -0.7547 O   0  0  0  0  0  0  0  0  0  0  0  0
   -0.4501   -1.8317   -1.1978 O   0  0  0  0  0  0  0  0  0  0  0  0
   -2.2873   -3.1849    0.3842 O   0  0  0  0  0  0  0  0  0  0  0  0
   -4.5179   -1.4182    0.0374 O   0  0  0  0  0  0  0  0  0  0  0  0
    2.0732    2.6376   -0.9414 O   0  0  0  0  0  0  0  0  0  0  0  0
    3.3141   -0.0650   -1.3459 O   0  0  0  0  0  0  0  0  0  0  0  0
    1.7636    0.0815    0.3720 N   0  0  0  0  0  0  0  0  0  0  0  0
   -0.6467    0.1929    0.0967 C   0  0  1  0  0  0  0  0  0  0  0  0
   -0.7484   -1.3366    0.1098 C   0  0  1  0  0  0  0  0  0  0  0  0
   -2.1592   -1.7710    0.5134 C   0  0  1  0  0  0  0  0  0  0  0  0
    0.7065    0.6788   -0.4130 C   0  0  1  0  0  0  0  0  0  0  0  0
   -3.1967   -1.0894   -0.3785 C   0  0  2  0  0  0  0  0  0  0  0  0
   -3.0005    0.4336   -0.4127 C   0  0  1  0  0  0  0  0  0  0  0  0
    0.8129    2.2153   -0.4267 C   0  0  1  0  0  0  0  0  0  0  0  0
    0.6420    2.8301    0.9579 C   0  0  0  0  0  0  0  0  0  0  0  0
    2.9960   -0.2441   -0.1713 C   0  0  0  0  0  0  0  0  0  0  0  0
   -3.7387    2.9513    0.3847 C   0  0  0  0  0  0  0  0  0  0  0  0
    3.9345   -0.8538    0.8436 C   0  0  0  0  0  0  0  0  0  0  0  0
   -0.8025    0.5418    1.1239 H   0  0  0  0  0  0  0  0  0  0  0  0
   -0.0215   -1.7911    0.7911 H   0  0  0  0  0  0  0  0  0  0  0  0
   -2.3512   -1.5302    1.5655 H   0  0  0  0  0  0  0  0  0  0  0  0
    0.8458    0.3575   -1.4539 H   0  0  0  0  0  0  0  0  0  0  0  0
   -3.0933   -1.4874   -1.3959 H   0  0  0  0  0  0  0  0  0  0  0  0
   -3.6311    0.8132   -1.2248 H   0  0  0  0  0  0  0  0  0  0  0  0
    0.0490    2.6291   -1.0951 H   0  0  0  0  0  0  0  0  0  0  0  0
    1.6102   -0.0367    1.3693 H   0  0  0  0  0  0  0  0  0  0  0  0
   -0.9538   -1.3113   -1.8460 H   0  0  0  0  0  0  0  0  0  0  0  0
    1.3897    2.4509    1.6625 H   0  0  0  0  0  0  0  0  0  0  0  0
    0.7939    3.9148    0.9096 H   0  0  0  0  0  0  0  0  0  0  0  0
   -0.3547    2.6594    1.3715 H   0  0  0  0  0  0  0  0  0  0  0  0
   -1.6080   -3.5925    0.9480 H   0  0  0  0  0  0  0  0  0  0  0  0
   -5.1354   -0.9541   -0.5532 H   0  0  0  0  0  0  0  0  0  0  0  0
    2.0666    3.6091   -0.9820 H   0  0  0  0  0  0  0  0  0  0  0  0
   -4.4831    2.9564   -0.4157 H   0  0  0  0  0  0  0  0  0  0  0  0
   -2.7767    3.2962   -0.0034 H   0  0  0  0  0  0  0  0  0  0  0  0
   -4.0652    3.6467    1.1626 H   0  0  0  0  0  0  0  0  0  0  0  0
    3.4854   -0.9377    1.8364 H   0  0  0  0  0  0  0  0  0  0  0  0
  1 21  1  0  0  0  0
  2 21  1  0  0  0  0
  3 16  1  0  0  0  0
  3 20  1  0  0  0  0
  4 11  1  0  0  0  0
  4 16  1  0  0  0  0
  5 12  1  0  0  0  0
  5 30  1  0  0  0  0
  6 13  1  0  0  0  0
  6 34  1  0  0  0  0
  7 15  1  0  0  0  0
  7 35  1  0  0  0  0
  8 17  1  0  0  0  0
  8 36  1  0  0  0  0
  9 19  2  0  0  0  0
 10 14  1  0  0  0  0
 10 19  1  0  0  0  0
 10 29  1  0  0  0  0
 11 12  1  0  0  0  0
 11 14  1  0  0  0  0
 11 22  1  0  0  0  0
 12 13  1  0  0  0  0
 12 23  1  0  0  0  0
 13 15  1  0  0  0  0
 13 24  1  0  0  0  0
 14 17  1  0  0  0  0
 14 25  1  0  0  0  0
 15 16  1  0  0  0  0
 15 26  1  0  0  0  0
 16 27  1  0  0  0  0
 17 18  1  0  0  0  0
 17 28  1  0  0  0  0
 18 31  1  0  0  0  0
 18 32  1  0  0  0  0
 18 33  1  0  0  0  0
 19 21  1  0  0  0  0
 20 37  1  0  0  0  0
 20 38  1  0  0  0  0
 20 39  1  0  0  0  0
 21 40  1  0  0  0  0
M  END
> <PUBCHEM_COMPOUND_CID>
101659189

> <PUBCHEM_CONFORMER_RMSD>
0.8

> <PUBCHEM_CONFORMER_DIVERSEORDER>
1
85
34
88
104
96
75
124
18
86
87
129
117
16
74
30
98
130
93
11
12
69
66
92
81
44
50
118
52
119
82
27
28
54
122
57
103
7
97
125
112
110
64
128
121
13
71
111
17
56
51
116
102
115
95
14
105
43
83
31
15
58
26
67
127
106
76
70
68
109
6
21
3
91
107
45
48
100
77
61
90
22
126
80
101
89
79
73
123
29
8
20
78
60
55
39
47
108
46
35
38
120
40
53
94
114
2
62
59
36
19
63
113
4
84
49
23
65
9
32
72
25
33
24
5
42
99
37
10
41

> <PUBCHEM_MMFF94_PARTIAL_CHARGES>
25
1 -0.29
10 -0.73
11 0.28
12 0.28
13 0.28
14 0.3
15 0.28
16 0.51
17 0.28
19 0.57
2 -0.29
20 0.23
21 0.64
29 0.37
3 -0.46
30 0.4
34 0.4
35 0.4
36 0.4
4 -0.56
5 -0.68
6 -0.68
7 -0.68
8 -0.68
9 -0.57

> <PUBCHEM_EFFECTIVE_ROTOR_COUNT>
7.2

> <PUBCHEM_PHARMACOPHORE_FEATURES>
13
1 10 donor
1 20 hydrophobe
1 4 acceptor
1 5 acceptor
1 5 donor
1 6 acceptor
1 6 donor
1 7 acceptor
1 7 donor
1 8 acceptor
1 8 donor
1 9 acceptor
6 4 11 12 13 15 16 rings

> <PUBCHEM_HEAVY_ATOM_COUNT>
21

> <PUBCHEM_ATOM_DEF_STEREO_COUNT>
6

> <PUBCHEM_ATOM_UDEF_STEREO_COUNT>
1

> <PUBCHEM_BOND_DEF_STEREO_COUNT>
0

> <PUBCHEM_BOND_UDEF_STEREO_COUNT>
0

> <PUBCHEM_ISOTOPIC_ATOM_COUNT>
0

> <PUBCHEM_COMPONENT_COUNT>
1

> <PUBCHEM_CACTVS_TAUTO_COUNT>
2

> <PUBCHEM_CONFORMER_ID>
060F323500000001

> <PUBCHEM_MMFF94_ENERGY>
49.7721

> <PUBCHEM_FEATURE_SELFOVERLAP>
65.994

> <PUBCHEM_SHAPE_FINGERPRINT>
10062212 137 18341610391433754295
1100329 8 18340772533488077793
11132069 177 18340771420816786413
12403260 363 18413105078800061309
12553582 1 18335430040916244572
12633257 1 18339656615206095539
13140716 1 18413111654063260433
13533116 47 18339923848229430051
13583140 156 14835820868967804270
14178342 30 18337944684112390330
14790565 3 17834959672155563401
14866123 147 17763743187591094682
15196674 1 18339077099468958706
15375462 189 18040152886031005736
15442244 35 18409450301463817353
16945 1 18261109656064089741
17804303 29 18409731789610058735
1813 80 17458347403752893702
19078846 21 18409452479407829932
192875 21 18272078440293146309
19591789 44 17402619545355877869
20281475 54 18334297561066828396
20600515 1 18412545375742169684
21033648 29 17417798552728243450
21501502 16 18265622150563663381
21524375 3 18343025450536123789
23184049 29 18266741474748747847
23366157 5 17969506090177127548
23402539 116 18269827627999945380
23557571 272 18343304752179923636
23558518 356 18262805193410064169
23559900 14 18191014814630013192
23598291 2 18187089467988096740
23622692 118 17912069857225393614
3084891 72 18197779886574932801
3286 77 18339077194042395133
350125 39 18409450289354472937
5104073 3 18339072701601731578
5902787 121 18335697286761229552
7097593 13 18337672022266093798
7364860 26 18196087978787800248
74978 22 18336267941580128621
81228 2 18197511627508114512

> <PUBCHEM_SHAPE_MULTIPOLES>
399.56
9.17
3.37
1.04
6.11
0.4
-0.03
-1.66
2.21
-1.65
0.26
0.31
0.21
-0.56

> <PUBCHEM_SHAPE_SELFOVERLAP>
765.375

> <PUBCHEM_SHAPE_VOLUME>
247.1

> <PUBCHEM_COORDINATE_TYPE>
2
5
10

$$$$
