101657975
  -OEChem-03292013293D

 54 57  0     1  0  0  0  0  0999 V2000
    2.2739    0.5178   -0.2022 O   0  0  0  0  0  0  0  0  0  0  0  0
    2.7165   -1.4465    0.9765 O   0  0  0  0  0  0  0  0  0  0  0  0
    6.0362    1.9770    0.5613 O   0  0  0  0  0  0  0  0  0  0  0  0
    4.4395    3.1486   -1.5445 O   0  0  0  0  0  0  0  0  0  0  0  0
    5.4888   -0.9091    0.7868 O   0  0  0  0  0  0  0  0  0  0  0  0
    0.6695   -4.3176    0.2050 O   0  0  0  0  0  0  0  0  0  0  0  0
    0.3033   -0.6063    1.9273 O   0  0  0  0  0  0  0  0  0  0  0  0
   -2.2756    0.3985    1.3156 N   0  0  0  0  0  0  0  0  0  0  0  0
   -0.7644   -1.8105   -1.2227 N   0  0  0  0  0  0  0  0  0  0  0  0
    5.0489    1.2578   -0.1795 C   0  0  2  0  0  0  0  0  0  0  0  0
    3.9417    2.2382   -0.5674 C   0  0  2  0  0  0  0  0  0  0  0  0
    4.5016    0.1161    0.6772 C   0  0  1  0  0  0  0  0  0  0  0  0
    2.7332    1.4934   -1.1393 C   0  0  2  0  0  0  0  0  0  0  0  0
    3.2453   -0.4934    0.0550 C   0  0  2  0  0  0  0  0  0  0  0  0
    1.5709    2.4385   -1.4264 C   0  0  0  0  0  0  0  0  0  0  0  0
    1.5458   -2.0641    0.4648 C   0  0  2  0  0  0  0  0  0  0  0  0
    0.3388   -1.2166    0.8599 C   0  0  0  0  0  0  0  0  0  0  0  0
   -1.9665   -0.3754    0.2235 C   0  0  0  0  0  0  0  0  0  0  0  0
   -0.8309   -1.1231   -0.0592 C   0  0  0  0  0  0  0  0  0  0  0  0
    1.4839   -3.4825    1.0222 C   0  0  0  0  0  0  0  0  0  0  0  0
   -3.0478   -0.3075   -0.6545 C   0  0  0  0  0  0  0  0  0  0  0  0
   -4.0314    0.5400   -0.0530 C   0  0  0  0  0  0  0  0  0  0  0  0
   -3.5209    0.9648    1.1742 C   0  0  0  0  0  0  0  0  0  0  0  0
   -2.9750   -1.0223   -1.8605 C   0  0  0  0  0  0  0  0  0  0  0  0
   -1.8107   -1.7472   -2.0769 C   0  0  0  0  0  0  0  0  0  0  0  0
   -5.3123    0.9856   -0.4414 C   0  0  0  0  0  0  0  0  0  0  0  0
   -4.2268    1.8137    2.0346 C   0  0  0  0  0  0  0  0  0  0  0  0
   -4.0517   -1.0437   -2.8926 C   0  0  0  0  0  0  0  0  0  0  0  0
   -6.0301    1.8346    0.4085 C   0  0  0  0  0  0  0  0  0  0  0  0
   -5.4935    2.2412    1.6278 C   0  0  0  0  0  0  0  0  0  0  0  0
    5.5576    0.8705   -1.0701 H   0  0  0  0  0  0  0  0  0  0  0  0
    3.6477    2.8279    0.3095 H   0  0  0  0  0  0  0  0  0  0  0  0
    4.2940    0.4653    1.6957 H   0  0  0  0  0  0  0  0  0  0  0  0
    2.9955    0.9932   -2.0810 H   0  0  0  0  0  0  0  0  0  0  0  0
    3.5003   -1.0169   -0.8769 H   0  0  0  0  0  0  0  0  0  0  0  0
    1.2437    2.9454   -0.5118 H   0  0  0  0  0  0  0  0  0  0  0  0
    0.7071    1.8753   -1.7969 H   0  0  0  0  0  0  0  0  0  0  0  0
    1.8373    3.1937   -2.1715 H   0  0  0  0  0  0  0  0  0  0  0  0
    1.6101   -2.1233   -0.6285 H   0  0  0  0  0  0  0  0  0  0  0  0
    5.6179    2.3198    1.3694 H   0  0  0  0  0  0  0  0  0  0  0  0
    4.6920    2.6364   -2.3316 H   0  0  0  0  0  0  0  0  0  0  0  0
    5.6877   -1.2332   -0.1082 H   0  0  0  0  0  0  0  0  0  0  0  0
    2.4818   -3.9314    1.0758 H   0  0  0  0  0  0  0  0  0  0  0  0
    1.0688   -3.4920    2.0355 H   0  0  0  0  0  0  0  0  0  0  0  0
   -1.6721    0.5347    2.1147 H   0  0  0  0  0  0  0  0  0  0  0  0
   -1.6725   -2.3283   -2.9847 H   0  0  0  0  0  0  0  0  0  0  0  0
   -5.7536    0.6838   -1.3861 H   0  0  0  0  0  0  0  0  0  0  0  0
   -3.8094    2.1308    2.9845 H   0  0  0  0  0  0  0  0  0  0  0  0
   -4.9752   -1.4498   -2.4679 H   0  0  0  0  0  0  0  0  0  0  0  0
   -3.7832   -1.6658   -3.7531 H   0  0  0  0  0  0  0  0  0  0  0  0
   -4.2402   -0.0315   -3.2641 H   0  0  0  0  0  0  0  0  0  0  0  0
    1.0677   -4.3373   -0.6818 H   0  0  0  0  0  0  0  0  0  0  0  0
   -7.0172    2.1797    0.1124 H   0  0  0  0  0  0  0  0  0  0  0  0
   -6.0674    2.9010    2.2735 H   0  0  0  0  0  0  0  0  0  0  0  0
  1 13  1  0  0  0  0
  1 14  1  0  0  0  0
  2 14  1  0  0  0  0
  2 16  1  0  0  0  0
  3 10  1  0  0  0  0
  3 40  1  0  0  0  0
  4 11  1  0  0  0  0
  4 41  1  0  0  0  0
  5 12  1  0  0  0  0
  5 42  1  0  0  0  0
  6 20  1  0  0  0  0
  6 52  1  0  0  0  0
  7 17  2  0  0  0  0
  8 18  1  0  0  0  0
  8 23  1  0  0  0  0
  8 45  1  0  0  0  0
  9 19  2  0  0  0  0
  9 25  1  0  0  0  0
 10 11  1  0  0  0  0
 10 12  1  0  0  0  0
 10 31  1  0  0  0  0
 11 13  1  0  0  0  0
 11 32  1  0  0  0  0
 12 14  1  0  0  0  0
 12 33  1  0  0  0  0
 13 15  1  0  0  0  0
 13 34  1  0  0  0  0
 14 35  1  0  0  0  0
 15 36  1  0  0  0  0
 15 37  1  0  0  0  0
 15 38  1  0  0  0  0
 16 17  1  0  0  0  0
 16 20  1  0  0  0  0
 16 39  1  0  0  0  0
 17 19  1  0  0  0  0
 18 19  1  0  0  0  0
 18 21  2  0  0  0  0
 20 43  1  0  0  0  0
 20 44  1  0  0  0  0
 21 22  1  0  0  0  0
 21 24  1  0  0  0  0
 22 23  1  0  0  0  0
 22 26  2  0  0  0  0
 23 27  2  0  0  0  0
 24 25  2  0  0  0  0
 24 28  1  0  0  0  0
 25 46  1  0  0  0  0
 26 29  1  0  0  0  0
 26 47  1  0  0  0  0
 27 30  1  0  0  0  0
 27 48  1  0  0  0  0
 28 49  1  0  0  0  0
 28 50  1  0  0  0  0
 28 51  1  0  0  0  0
 29 30  2  0  0  0  0
 29 53  1  0  0  0  0
 30 54  1  0  0  0  0
M  END
> <PUBCHEM_COMPOUND_CID>
101657975

> <PUBCHEM_CONFORMER_RMSD>
1

> <PUBCHEM_CONFORMER_DIVERSEORDER>
1
106
211
104
145
178
202
46
9
63
32
57
13
207
226
216
4
86
144
114
195
69
98
22
92
217
120
165
78
68
249
133
7
77
180
157
108
126
124
198
25
174
234
169
194
117
3
184
27
16
236
177
33
72
48
19
80
26
146
54
59
83
159
8
10
123
167
71
5
82
125
79
14
150
12
99
154
231
131
112
243
56
149
250
128
97
181
94
34
85
70
119
113
135
62
75
188
158
29
193
130
187
190
51
20
115
140
2
223
168
49
88
23
81
132
65
93
30
212
53
61
164
142
43
175
118
237
166
100
229
206
203
28
45
242
147
192
42
173
143
170
105
107
50
245
139
96
39
134
220
163
210
37
148
208
224
109
15
185
91
151
244
248
156
6
122
116
60
246
219
103
66
141
196
232
41
24
240
101
21
241
11
204
35
137
172
89
209
233
67
189
17
205
102
155
76
247
52
138
38
110
227
215
201
199
87
136
44
73
153
58
90
239
221
191
127
36
214
18
47
238
213
176
64
179
84
225
121
129
31
235
186
95
74
160
161
182
171
218
183
222
55
230
200
40
162
111
228
197
152

> <PUBCHEM_MMFF94_PARTIAL_CHARGES>
37
1 -0.56
10 0.28
11 0.28
12 0.28
13 0.28
14 0.56
16 0.34
17 0.42
18 -0.15
19 0.4
2 -0.56
20 0.28
23 -0.15
24 -0.14
25 0.16
26 -0.15
27 -0.15
28 0.14
29 -0.15
3 -0.68
30 -0.15
4 -0.68
40 0.4
41 0.4
42 0.4
45 0.27
46 0.15
47 0.15
48 0.15
5 -0.68
52 0.4
53 0.15
54 0.15
6 -0.68
7 -0.57
8 0.03
9 -0.62

> <PUBCHEM_EFFECTIVE_ROTOR_COUNT>
6.2

> <PUBCHEM_PHARMACOPHORE_FEATURES>
18
1 1 acceptor
1 2 acceptor
1 3 acceptor
1 3 donor
1 4 acceptor
1 4 donor
1 5 acceptor
1 5 donor
1 6 acceptor
1 6 donor
1 7 acceptor
1 8 cation
1 8 donor
1 9 acceptor
5 8 18 21 22 23 rings
6 1 10 11 12 13 14 rings
6 22 23 26 27 29 30 rings
6 9 18 19 21 24 25 rings

> <PUBCHEM_HEAVY_ATOM_COUNT>
30

> <PUBCHEM_ATOM_DEF_STEREO_COUNT>
5

> <PUBCHEM_ATOM_UDEF_STEREO_COUNT>
1

> <PUBCHEM_BOND_DEF_STEREO_COUNT>
0

> <PUBCHEM_BOND_UDEF_STEREO_COUNT>
0

> <PUBCHEM_ISOTOPIC_ATOM_COUNT>
0

> <PUBCHEM_COMPONENT_COUNT>
1

> <PUBCHEM_CACTVS_TAUTO_COUNT>
34

> <PUBCHEM_CONFORMER_ID>
060F2D7700000001

> <PUBCHEM_MMFF94_ENERGY>
76.146

> <PUBCHEM_FEATURE_SELFOVERLAP>
91.601

> <PUBCHEM_SHAPE_FINGERPRINT>
10319926 262 14418402257334736336
10906281 52 18262524814314749836
11049842 53 16340339653724820271
11640471 11 18272092694846373127
12128747 34 15214674045816308378
12236239 1 18342734109328275403
12422481 6 18115301164289517120
12633257 1 16805614710435134217
12788726 201 17981327008164283127
13544653 18 11887686099522215786
13782708 43 16009028354396040738
14840074 17 18334861605947279756
15021287 119 18050278168289378611
15131766 46 18409157819050832589
1813 80 17692816982196832495
19319366 153 18341895139228617283
20511986 3 18200863020037268993
21033648 144 17895468223724892206
21033650 10 17630910341941733136
21298829 104 18410853291951100872
21756936 100 18341056323251129130
22122407 14 18115877304562641697
23366157 5 17340982084072821199
23559900 14 14202507566006508219
25147074 1 18057586712579454423
3459 110 17313393378230196267
3472631 163 17989207048854394937
38570 142 18340503191814512038
397830 11 17969242083486154881
4409770 3 14883999978529074967
474 4 18407760326348502371
5081480 168 17842004277709135726
5104073 3 17968371364312237778
57527293 21 15864366799219479907
6034566 193 18116442620324994957
633830 44 18411145735751714958

> <PUBCHEM_SHAPE_MULTIPOLES>
566.34
13.11
3.56
2.02
1.09
1.66
0.78
-11.11
-1.4
2.28
0
-1.99
0.14
-4.08

> <PUBCHEM_SHAPE_SELFOVERLAP>
1233.323

> <PUBCHEM_SHAPE_VOLUME>
307.8

> <PUBCHEM_COORDINATE_TYPE>
2
5
10

$$$$
