101639555
  -OEChem-03292013293D

 51 52  0     1  0  0  0  0  0999 V2000
   -3.0696   -0.7779   -0.2760 O   0  0  0  0  0  0  0  0  0  0  0  0
   -0.7802   -0.4946   -0.6236 O   0  0  0  0  0  0  0  0  0  0  0  0
   -3.6854    3.2799   -0.1167 O   0  0  0  0  0  0  0  0  0  0  0  0
   -0.9892    2.1693    0.2952 O   0  0  0  0  0  0  0  0  0  0  0  0
   -5.6771    1.4639    0.9699 O   0  0  0  0  0  0  0  0  0  0  0  0
   -6.4689   -1.0806    0.5479 O   0  0  0  0  0  0  0  0  0  0  0  0
   -5.1227   -2.1329   -0.9609 O   0  0  0  0  0  0  0  0  0  0  0  0
    3.2528   -1.0563   -0.6066 O   0  0  0  0  0  0  0  0  0  0  0  0
   -0.3141   -1.7120    0.0220 N   0  0  0  0  0  0  0  0  0  0  0  0
   -3.3919    1.9901    0.4224 C   0  0  2  0  0  0  0  0  0  0  0  0
   -2.1113    1.4498   -0.2149 C   0  0  2  0  0  0  0  0  0  0  0  0
   -4.5845    1.0767    0.1383 C   0  0  1  0  0  0  0  0  0  0  0  0
   -1.9163   -0.0323    0.1057 C   0  0  1  0  0  0  0  0  0  0  0  0
   -4.2347   -0.3760    0.4351 C   0  0  1  0  0  0  0  0  0  0  0  0
   -5.2899   -1.2975   -0.0849 C   0  0  0  0  0  0  0  0  0  0  0  0
    1.0081   -1.9415   -0.5409 C   0  0  1  0  0  0  0  0  0  0  0  0
    1.9677   -0.8675   -0.0272 C   0  0  0  0  0  0  0  0  0  0  0  0
    1.4907   -3.3493   -0.1902 C   0  0  0  0  0  0  0  0  0  0  0  0
    4.2407   -0.1929   -0.2115 C   0  0  0  0  0  0  0  0  0  0  0  0
    4.4485    0.9964   -0.9099 C   0  0  0  0  0  0  0  0  0  0  0  0
    5.0387   -0.5036    0.8896 C   0  0  0  0  0  0  0  0  0  0  0  0
    5.4543    1.8750   -0.5075 C   0  0  0  0  0  0  0  0  0  0  0  0
    6.0446    0.3749    1.2922 C   0  0  0  0  0  0  0  0  0  0  0  0
    3.6045    1.3474   -2.0905 C   0  0  0  0  0  0  0  0  0  0  0  0
    4.8327   -1.7728    1.6494 C   0  0  0  0  0  0  0  0  0  0  0  0
    6.2523    1.5643    0.5937 C   0  0  0  0  0  0  0  0  0  0  0  0
   -3.2589    2.1345    1.5011 H   0  0  0  0  0  0  0  0  0  0  0  0
   -2.1241    1.6100   -1.2995 H   0  0  0  0  0  0  0  0  0  0  0  0
   -4.9117    1.1965   -0.9018 H   0  0  0  0  0  0  0  0  0  0  0  0
   -1.7314   -0.1568    1.1831 H   0  0  0  0  0  0  0  0  0  0  0  0
   -4.1025   -0.5781    1.5053 H   0  0  0  0  0  0  0  0  0  0  0  0
   -3.7877    3.1890   -1.0794 H   0  0  0  0  0  0  0  0  0  0  0  0
   -0.9574    2.0364    1.2579 H   0  0  0  0  0  0  0  0  0  0  0  0
   -5.4039    1.3555    1.8969 H   0  0  0  0  0  0  0  0  0  0  0  0
    0.9672   -1.8871   -1.6374 H   0  0  0  0  0  0  0  0  0  0  0  0
   -0.9601   -2.3962   -0.3730 H   0  0  0  0  0  0  0  0  0  0  0  0
    1.6066    0.1340   -0.2890 H   0  0  0  0  0  0  0  0  0  0  0  0
    2.0420   -0.9189    1.0666 H   0  0  0  0  0  0  0  0  0  0  0  0
    1.5945   -3.4778    0.8931 H   0  0  0  0  0  0  0  0  0  0  0  0
    2.4629   -3.5588   -0.6486 H   0  0  0  0  0  0  0  0  0  0  0  0
    0.7872   -4.1065   -0.5544 H   0  0  0  0  0  0  0  0  0  0  0  0
   -7.1762   -1.6755    0.2190 H   0  0  0  0  0  0  0  0  0  0  0  0
    5.6267    2.8064   -1.0403 H   0  0  0  0  0  0  0  0  0  0  0  0
    6.6732    0.1476    2.1491 H   0  0  0  0  0  0  0  0  0  0  0  0
    2.6521    1.7750   -1.7625 H   0  0  0  0  0  0  0  0  0  0  0  0
    4.1033    2.0817   -2.7328 H   0  0  0  0  0  0  0  0  0  0  0  0
    3.4079    0.4688   -2.7139 H   0  0  0  0  0  0  0  0  0  0  0  0
    5.7164   -2.0307    2.2436 H   0  0  0  0  0  0  0  0  0  0  0  0
    4.6537   -2.6144    0.9721 H   0  0  0  0  0  0  0  0  0  0  0  0
    3.9832   -1.6737    2.3321 H   0  0  0  0  0  0  0  0  0  0  0  0
    7.0349    2.2489    0.9077 H   0  0  0  0  0  0  0  0  0  0  0  0
  1 13  1  0  0  0  0
  1 14  1  0  0  0  0
  2  9  1  0  0  0  0
  2 13  1  0  0  0  0
  3 10  1  0  0  0  0
  3 32  1  0  0  0  0
  4 11  1  0  0  0  0
  4 33  1  0  0  0  0
  5 12  1  0  0  0  0
  5 34  1  0  0  0  0
  6 15  1  0  0  0  0
  6 42  1  0  0  0  0
  7 15  2  0  0  0  0
  8 17  1  0  0  0  0
  8 19  1  0  0  0  0
  9 16  1  0  0  0  0
  9 36  1  0  0  0  0
 10 11  1  0  0  0  0
 10 12  1  0  0  0  0
 10 27  1  0  0  0  0
 11 13  1  0  0  0  0
 11 28  1  0  0  0  0
 12 14  1  0  0  0  0
 12 29  1  0  0  0  0
 13 30  1  0  0  0  0
 14 15  1  0  0  0  0
 14 31  1  0  0  0  0
 16 17  1  0  0  0  0
 16 18  1  0  0  0  0
 16 35  1  0  0  0  0
 17 37  1  0  0  0  0
 17 38  1  0  0  0  0
 18 39  1  0  0  0  0
 18 40  1  0  0  0  0
 18 41  1  0  0  0  0
 19 20  2  0  0  0  0
 19 21  1  0  0  0  0
 20 22  1  0  0  0  0
 20 24  1  0  0  0  0
 21 23  2  0  0  0  0
 21 25  1  0  0  0  0
 22 26  2  0  0  0  0
 22 43  1  0  0  0  0
 23 26  1  0  0  0  0
 23 44  1  0  0  0  0
 24 45  1  0  0  0  0
 24 46  1  0  0  0  0
 24 47  1  0  0  0  0
 25 48  1  0  0  0  0
 25 49  1  0  0  0  0
 25 50  1  0  0  0  0
 26 51  1  0  0  0  0
M  END
> <PUBCHEM_COMPOUND_CID>
101639555

> <PUBCHEM_CONFORMER_RMSD>
1

> <PUBCHEM_CONFORMER_DIVERSEORDER>
1
75
27
22
88
93
32
24
29
6
109
69
113
111
10
110
53
45
101
48
92
70
38
83
99
89
15
71
33
97
25
91
96
87
43
106
58
2
56
63
107
68
108
73
77
14
17
60
42
65
76
23
30
19
95
49
103
46
34
74
94
7
47
112
40
37
84
44
57
9
78
105
102
39
18
61
85
64
21
80
51
82
81
11
62
4
55
67
36
16
79
8
72
5
98
31
52
66
86
13
26
28
41
104
12
54
35
59
3
100
20
90
50

> <PUBCHEM_MMFF94_PARTIAL_CHARGES>
33
1 -0.56
10 0.28
11 0.28
12 0.28
13 0.56
14 0.34
15 0.66
16 0.27
17 0.28
19 0.08
2 -0.18
20 -0.14
21 -0.14
22 -0.15
23 -0.15
24 0.14
25 0.14
26 -0.15
3 -0.68
32 0.4
33 0.4
34 0.4
36 0.36
4 -0.68
42 0.5
43 0.15
44 0.15
5 -0.68
51 0.15
6 -0.65
7 -0.57
8 -0.36
9 -0.73

> <PUBCHEM_EFFECTIVE_ROTOR_COUNT>
8.2

> <PUBCHEM_PHARMACOPHORE_FEATURES>
13
1 1 acceptor
1 3 acceptor
1 3 donor
1 4 acceptor
1 4 donor
1 5 acceptor
1 5 donor
1 6 acceptor
1 7 acceptor
1 8 acceptor
3 6 7 15 anion
6 1 10 11 12 13 14 rings
6 19 20 21 22 23 26 rings

> <PUBCHEM_HEAVY_ATOM_COUNT>
26

> <PUBCHEM_ATOM_DEF_STEREO_COUNT>
5

> <PUBCHEM_ATOM_UDEF_STEREO_COUNT>
1

> <PUBCHEM_BOND_DEF_STEREO_COUNT>
0

> <PUBCHEM_BOND_UDEF_STEREO_COUNT>
0

> <PUBCHEM_ISOTOPIC_ATOM_COUNT>
0

> <PUBCHEM_COMPONENT_COUNT>
1

> <PUBCHEM_CACTVS_TAUTO_COUNT>
2

> <PUBCHEM_CONFORMER_ID>
060EE58300000001

> <PUBCHEM_MMFF94_ENERGY>
63.9508

> <PUBCHEM_FEATURE_SELFOVERLAP>
66.06

> <PUBCHEM_SHAPE_FINGERPRINT>
10090160 65 18260266364873935871
10670039 82 18336844021850214740
11724838 91 18334572490766821294
12107183 9 17829600661482505858
12166972 35 18408887322263283080
12403259 118 18335697204924917660
12422481 6 17823134532320915172
12596602 18 17968089824467925248
12633257 1 16588030125943439944
12788726 201 17610920258756367650
13533116 47 17531243920868139994
13785724 45 17762051048440743906
13914758 101 16298374748309612589
14341114 328 18412549790493289637
15927050 60 17405711861906608085
17857418 61 18335702771171229205
18222031 100 11602822393747027382
19377110 9 18408886235072165443
19489759 90 14056710249799409159
20511986 3 18187917353468325895
20715895 44 17903349312651788556
21302155 148 18343301444343085637
21304303 282 14419231246880303823
22149856 69 18200051581194306339
2215653 11 10881399854714438739
23272321 79 18412825797855365026
23559900 14 17910397186527993591
245318 6 17678760040053204276
34797466 226 17203337744388675676
3680242 22 18336270059247029736
38570 142 17242760773602028828
4325135 7 18411982481201011887
5104073 3 18265057942348394243
550186 72 18410853270212767141
6371009 1 18335697290550204333
67856867 119 18264768766374242330
960060 61 11312051059182039890
9981440 41 18334300867933788179

> <PUBCHEM_SHAPE_MULTIPOLES>
483.13
17.35
3.03
1.18
2.42
0.21
-0.13
-3.56
3.85
0.94
-0.19
-1.56
-0.08
-1.65

> <PUBCHEM_SHAPE_SELFOVERLAP>
998.783

> <PUBCHEM_SHAPE_VOLUME>
274.6

> <PUBCHEM_COORDINATE_TYPE>
2
5
10

$$$$
