101607566
  -OEChem-03292013293D

 60 64  0     1  0  0  0  0  0999 V2000
    2.4909    2.5299   -0.6491 O   0  0  0  0  0  0  0  0  0  0  0  0
    3.6042    0.5785    1.1341 O   0  0  0  0  0  0  0  0  0  0  0  0
    3.5769   -3.1307   -0.1938 O   0  0  0  0  0  0  0  0  0  0  0  0
   -0.0944    3.0303   -0.2284 O   0  0  0  0  0  0  0  0  0  0  0  0
    1.8857    1.3452    2.4683 O   0  0  0  0  0  0  0  0  0  0  0  0
    0.2744   -1.3806    0.5754 O   0  0  0  0  0  0  0  0  0  0  0  0
   -3.2614   -1.2608    0.0975 O   0  0  0  0  0  0  0  0  0  0  0  0
   -0.1489    3.2666    2.0689 O   0  0  0  0  0  0  0  0  0  0  0  0
   -2.9320    1.4314   -3.4388 O   0  0  0  0  0  0  0  0  0  0  0  0
   -3.3388   -1.3850    2.4030 O   0  0  0  0  0  0  0  0  0  0  0  0
    1.7470    1.5384    0.0870 C   0  0  2  0  0  0  0  0  0  0  0  0
    2.7378    1.1622   -0.9778 C   0  0  2  0  0  0  0  0  0  0  0  0
    3.9234    0.5748   -0.2816 C   0  0  2  0  0  0  0  0  0  0  0  0
    3.2714   -1.8615   -0.7998 C   0  0  2  0  0  0  0  0  0  0  0  0
    4.3688   -0.8276   -0.7136 C   0  0  0  0  0  0  0  0  0  0  0  0
    0.2475    1.6504   -0.0849 C   0  0  2  0  0  0  0  0  0  0  0  0
    2.6075   -2.3417    0.4983 C   0  0  1  0  0  0  0  0  0  0  0  0
    2.3843    1.1611    1.3693 C   0  0  0  0  0  0  0  0  0  0  0  0
   -0.3287    0.8426   -1.2618 C   0  0  0  0  0  0  0  0  0  0  0  0
    2.6513   -2.0736   -2.1567 C   0  0  0  0  0  0  0  0  0  0  0  0
   -1.7689    0.2818   -1.0672 C   0  0  1  0  0  0  0  0  0  0  0  0
    1.0761   -2.4639    0.4329 C   0  0  0  0  0  0  0  0  0  0  0  0
   -1.9748   -0.6430    0.1668 C   0  0  2  0  0  0  0  0  0  0  0  0
   -0.9860   -1.7553    0.2316 C   0  0  0  0  0  0  0  0  0  0  0  0
    0.3246   -3.5775    0.1388 C   0  0  0  0  0  0  0  0  0  0  0  0
   -1.0124   -3.1164   -0.0012 C   0  0  0  0  0  0  0  0  0  0  0  0
   -2.7679    1.4056   -1.0625 C   0  0  0  0  0  0  0  0  0  0  0  0
   -0.2627    3.7183    0.9375 C   0  0  0  0  0  0  0  0  0  0  0  0
   -2.1725   -3.9463   -0.3786 C   0  0  0  0  0  0  0  0  0  0  0  0
   -3.2841    1.8992   -2.3622 C   0  0  0  0  0  0  0  0  0  0  0  0
   -3.2298    1.9993    0.0447 C   0  0  0  0  0  0  0  0  0  0  0  0
   -0.6165    5.1428    0.6342 C   0  0  0  0  0  0  0  0  0  0  0  0
   -3.8272   -1.5789    1.2980 C   0  0  0  0  0  0  0  0  0  0  0  0
   -5.1648   -2.2157    1.0716 C   0  0  0  0  0  0  0  0  0  0  0  0
    2.4951    0.8321   -1.9688 H   0  0  0  0  0  0  0  0  0  0  0  0
    4.7810    1.2484   -0.4009 H   0  0  0  0  0  0  0  0  0  0  0  0
    4.8571   -0.7519   -1.6930 H   0  0  0  0  0  0  0  0  0  0  0  0
    5.1358   -1.1796   -0.0114 H   0  0  0  0  0  0  0  0  0  0  0  0
   -0.2028    1.2613    0.8326 H   0  0  0  0  0  0  0  0  0  0  0  0
    2.9505   -1.9297    1.4404 H   0  0  0  0  0  0  0  0  0  0  0  0
    0.3179   -0.0101   -1.4837 H   0  0  0  0  0  0  0  0  0  0  0  0
   -0.3080    1.4656   -2.1665 H   0  0  0  0  0  0  0  0  0  0  0  0
    2.1092   -3.0235   -2.2178 H   0  0  0  0  0  0  0  0  0  0  0  0
    3.4230   -2.0983   -2.9333 H   0  0  0  0  0  0  0  0  0  0  0  0
    1.9483   -1.2767   -2.4026 H   0  0  0  0  0  0  0  0  0  0  0  0
   -1.9825   -0.3434   -1.9473 H   0  0  0  0  0  0  0  0  0  0  0  0
   -1.8731   -0.0732    1.0968 H   0  0  0  0  0  0  0  0  0  0  0  0
    0.6966   -4.5796   -0.0222 H   0  0  0  0  0  0  0  0  0  0  0  0
   -1.8468   -4.9134   -0.7774 H   0  0  0  0  0  0  0  0  0  0  0  0
   -2.7750   -3.4670   -1.1561 H   0  0  0  0  0  0  0  0  0  0  0  0
   -2.8023   -4.1490    0.4922 H   0  0  0  0  0  0  0  0  0  0  0  0
   -4.0143    2.7245   -2.3109 H   0  0  0  0  0  0  0  0  0  0  0  0
   -2.9052    1.7354    1.0431 H   0  0  0  0  0  0  0  0  0  0  0  0
   -3.9532    2.8079   -0.0084 H   0  0  0  0  0  0  0  0  0  0  0  0
    0.1944    5.6142    0.0734 H   0  0  0  0  0  0  0  0  0  0  0  0
   -0.7564    5.6891    1.5714 H   0  0  0  0  0  0  0  0  0  0  0  0
   -1.5500    5.1799    0.0671 H   0  0  0  0  0  0  0  0  0  0  0  0
   -5.8608   -1.4750    0.6704 H   0  0  0  0  0  0  0  0  0  0  0  0
   -5.5540   -2.5880    2.0236 H   0  0  0  0  0  0  0  0  0  0  0  0
   -5.0706   -3.0616    0.3866 H   0  0  0  0  0  0  0  0  0  0  0  0
  1 11  1  0  0  0  0
  1 12  1  0  0  0  0
  2 13  1  0  0  0  0
  2 18  1  0  0  0  0
  3 14  1  0  0  0  0
  3 17  1  0  0  0  0
  4 16  1  0  0  0  0
  4 28  1  0  0  0  0
  5 18  2  0  0  0  0
  6 22  1  0  0  0  0
  6 24  1  0  0  0  0
  7 23  1  0  0  0  0
  7 33  1  0  0  0  0
  8 28  2  0  0  0  0
  9 30  2  0  0  0  0
 10 33  2  0  0  0  0
 11 12  1  0  0  0  0
 11 16  1  0  0  0  0
 11 18  1  0  0  0  0
 12 13  1  0  0  0  0
 12 35  1  0  0  0  0
 13 15  1  0  0  0  0
 13 36  1  0  0  0  0
 14 15  1  0  0  0  0
 14 17  1  0  0  0  0
 14 20  1  0  0  0  0
 15 37  1  0  0  0  0
 15 38  1  0  0  0  0
 16 19  1  0  0  0  0
 16 39  1  0  0  0  0
 17 22  1  0  0  0  0
 17 40  1  0  0  0  0
 19 21  1  0  0  0  0
 19 41  1  0  0  0  0
 19 42  1  0  0  0  0
 20 43  1  0  0  0  0
 20 44  1  0  0  0  0
 20 45  1  0  0  0  0
 21 23  1  0  0  0  0
 21 27  1  0  0  0  0
 21 46  1  0  0  0  0
 22 25  2  0  0  0  0
 23 24  1  0  0  0  0
 23 47  1  0  0  0  0
 24 26  2  0  0  0  0
 25 26  1  0  0  0  0
 25 48  1  0  0  0  0
 26 29  1  0  0  0  0
 27 30  1  0  0  0  0
 27 31  2  0  0  0  0
 28 32  1  0  0  0  0
 29 49  1  0  0  0  0
 29 50  1  0  0  0  0
 29 51  1  0  0  0  0
 30 52  1  0  0  0  0
 31 53  1  0  0  0  0
 31 54  1  0  0  0  0
 32 55  1  0  0  0  0
 32 56  1  0  0  0  0
 32 57  1  0  0  0  0
 33 34  1  0  0  0  0
 34 58  1  0  0  0  0
 34 59  1  0  0  0  0
 34 60  1  0  0  0  0
M  END
> <PUBCHEM_COMPOUND_CID>
101607566

> <PUBCHEM_CONFORMER_RMSD>
1

> <PUBCHEM_CONFORMER_DIVERSEORDER>
1
5
2
6
3
4
7

> <PUBCHEM_MMFF94_PARTIAL_CHARGES>
39
1 -0.3
10 -0.57
11 0.05
12 -0.05
13 0.38
14 -0.04
15 0.09
16 0.38
17 0.13
18 0.72
2 -0.43
20 0.09
21 0.14
22 0.05
23 0.46
24 -0.04
25 -0.15
26 -0.18
27 -0.12
28 0.66
29 0.18
3 -0.3
30 0.5
31 -0.3
32 0.06
33 0.66
34 0.06
35 0.1
4 -0.43
40 0.1
48 0.15
5 -0.57
52 0.06
53 0.15
54 0.15
6 -0.28
7 -0.43
8 -0.57
9 -0.57

> <PUBCHEM_EFFECTIVE_ROTOR_COUNT>
7.6

> <PUBCHEM_PHARMACOPHORE_FEATURES>
10
1 1 acceptor
1 10 acceptor
1 3 acceptor
1 31 hydrophobe
1 5 acceptor
1 6 acceptor
1 8 acceptor
1 9 acceptor
5 6 22 24 25 26 rings
6 1 2 11 12 13 18 rings

> <PUBCHEM_HEAVY_ATOM_COUNT>
34

> <PUBCHEM_ATOM_DEF_STEREO_COUNT>
7

> <PUBCHEM_ATOM_UDEF_STEREO_COUNT>
1

> <PUBCHEM_BOND_DEF_STEREO_COUNT>
0

> <PUBCHEM_BOND_UDEF_STEREO_COUNT>
0

> <PUBCHEM_ISOTOPIC_ATOM_COUNT>
0

> <PUBCHEM_COMPONENT_COUNT>
1

> <PUBCHEM_CACTVS_TAUTO_COUNT>
4

> <PUBCHEM_CONFORMER_ID>
060E688E00000001

> <PUBCHEM_MMFF94_ENERGY>
69.0255

> <PUBCHEM_FEATURE_SELFOVERLAP>
50.756

> <PUBCHEM_SHAPE_FINGERPRINT>
10675989 125 17543318602360608060
12156800 1 11248196087579044999
12553582 1 18193556906993536092
12633257 1 18053387879214109457
12788726 201 18337409205102246136
13140716 1 18337952273192969131
13402501 40 18409736200441673638
13726171 33 18041008340727960340
19319366 153 16754373809564100553
19591789 44 18409455773526692919
20764821 26 18409728435056231143
20905425 154 18339924939082921934
22182313 1 18335973216576835199
23558518 356 18053939555000341028
238 59 18127384852781137654
2748010 2 18336255773922143319
350125 39 18335710441935288511
508706 21 18113611262504826119
57527306 92 15794826111809645573
6287921 2 17405155508912255098
70251023 43 17700109042322266263

> <PUBCHEM_SHAPE_MULTIPOLES>
641.01
7.28
5.73
2.01
0.77
2.14
0.67
-3.39
0.33
1.49
-1.19
1.25
0.97
2.21

> <PUBCHEM_SHAPE_SELFOVERLAP>
1378.536

> <PUBCHEM_SHAPE_VOLUME>
351.4

> <PUBCHEM_COORDINATE_TYPE>
2
5
10

$$$$
