101689645
  -OEChem-03292013293D

 47 51  0     1  0  0  0  0  0999 V2000
   -2.1873   -0.4140    0.0239 O   0  0  0  0  0  0  0  0  0  0  0  0
   -1.4888    1.5330   -1.1764 O   0  0  0  0  0  0  0  0  0  0  0  0
   -0.8826   -3.0166    0.3199 O   0  0  0  0  0  0  0  0  0  0  0  0
   -1.3181    0.6521    2.4151 O   0  0  0  0  0  0  0  0  0  0  0  0
   -3.8762    1.2309    1.4285 O   0  0  0  0  0  0  0  0  0  0  0  0
    1.1274    2.3252   -0.1364 O   0  0  0  0  0  0  0  0  0  0  0  0
    2.0420   -2.8552   -0.8079 O   0  0  0  0  0  0  0  0  0  0  0  0
   -2.6905   -4.1845    1.1163 O   0  0  0  0  0  0  0  0  0  0  0  0
    3.5841    2.7753    0.5322 O   0  0  0  0  0  0  0  0  0  0  0  0
   -1.2462    0.6765   -0.0460 C   0  0  1  0  0  0  0  0  0  0  0  0
   -1.4488    1.4856    1.2657 C   0  0  1  0  0  0  0  0  0  0  0  0
   -2.0054   -1.4258   -0.9604 C   0  0  1  0  0  0  0  0  0  0  0  0
   -0.6683   -2.1019   -0.7635 C   0  0  1  0  0  0  0  0  0  0  0  0
    0.1865    0.1508   -0.1805 C   0  0  0  0  0  0  0  0  0  0  0  0
   -2.8170    2.1787    1.3198 C   0  0  1  0  0  0  0  0  0  0  0  0
    0.4393   -1.1442   -0.4397 C   0  0  0  0  0  0  0  0  0  0  0  0
   -2.7886    2.1320   -1.1996 C   0  0  1  0  0  0  0  0  0  0  0  0
   -3.0200    2.9951    0.0454 C   0  0  0  0  0  0  0  0  0  0  0  0
   -2.9735   -2.5483   -0.6533 C   0  0  0  0  0  0  0  0  0  0  0  0
    1.3236    1.1163   -0.0856 C   0  0  0  0  0  0  0  0  0  0  0  0
    1.8239   -1.6860   -0.5111 C   0  0  0  0  0  0  0  0  0  0  0  0
   -2.2107   -3.3472    0.3682 C   0  0  0  0  0  0  0  0  0  0  0  0
   -2.8795    2.9736   -2.4663 C   0  0  0  0  0  0  0  0  0  0  0  0
    2.6913    0.5785    0.0164 C   0  0  0  0  0  0  0  0  0  0  0  0
    2.9343   -0.7761   -0.1916 C   0  0  0  0  0  0  0  0  0  0  0  0
    3.7555    1.4415    0.3058 C   0  0  0  0  0  0  0  0  0  0  0  0
    4.2401   -1.2746   -0.1104 C   0  0  0  0  0  0  0  0  0  0  0  0
    5.0559    0.9427    0.3898 C   0  0  0  0  0  0  0  0  0  0  0  0
    5.2978   -0.4133    0.1817 C   0  0  0  0  0  0  0  0  0  0  0  0
   -0.6973    2.2765    1.3509 H   0  0  0  0  0  0  0  0  0  0  0  0
   -2.1524   -1.0013   -1.9590 H   0  0  0  0  0  0  0  0  0  0  0  0
   -0.4153   -2.6933   -1.6532 H   0  0  0  0  0  0  0  0  0  0  0  0
   -2.8760    2.8219    2.2050 H   0  0  0  0  0  0  0  0  0  0  0  0
   -3.5446    1.3400   -1.2621 H   0  0  0  0  0  0  0  0  0  0  0  0
   -4.0318    3.4161    0.0172 H   0  0  0  0  0  0  0  0  0  0  0  0
   -2.3070    3.8293    0.0506 H   0  0  0  0  0  0  0  0  0  0  0  0
   -3.1518   -3.1830   -1.5259 H   0  0  0  0  0  0  0  0  0  0  0  0
   -3.9115   -2.1867   -0.2242 H   0  0  0  0  0  0  0  0  0  0  0  0
   -2.1069    3.7503   -2.4783 H   0  0  0  0  0  0  0  0  0  0  0  0
   -3.8599    3.4507   -2.5583 H   0  0  0  0  0  0  0  0  0  0  0  0
   -2.7105    2.3496   -3.3507 H   0  0  0  0  0  0  0  0  0  0  0  0
   -1.4374    1.2124    3.2009 H   0  0  0  0  0  0  0  0  0  0  0  0
   -4.7119    1.7266    1.4673 H   0  0  0  0  0  0  0  0  0  0  0  0
    4.4535   -2.3281   -0.2698 H   0  0  0  0  0  0  0  0  0  0  0  0
    5.8860    1.6059    0.6183 H   0  0  0  0  0  0  0  0  0  0  0  0
    6.3106   -0.8003    0.2466 H   0  0  0  0  0  0  0  0  0  0  0  0
    2.6403    2.9928    0.5757 H   0  0  0  0  0  0  0  0  0  0  0  0
  1 10  1  0  0  0  0
  1 12  1  0  0  0  0
  2 10  1  0  0  0  0
  2 17  1  0  0  0  0
  3 13  1  0  0  0  0
  3 22  1  0  0  0  0
  4 11  1  0  0  0  0
  4 42  1  0  0  0  0
  5 15  1  0  0  0  0
  5 43  1  0  0  0  0
  6 20  2  0  0  0  0
  7 21  2  0  0  0  0
  8 22  2  0  0  0  0
  9 26  1  0  0  0  0
  9 47  1  0  0  0  0
 10 11  1  0  0  0  0
 10 14  1  0  0  0  0
 11 15  1  0  0  0  0
 11 30  1  0  0  0  0
 12 13  1  0  0  0  0
 12 19  1  0  0  0  0
 12 31  1  0  0  0  0
 13 16  1  0  0  0  0
 13 32  1  0  0  0  0
 14 16  2  0  0  0  0
 14 20  1  0  0  0  0
 15 18  1  0  0  0  0
 15 33  1  0  0  0  0
 16 21  1  0  0  0  0
 17 18  1  0  0  0  0
 17 23  1  0  0  0  0
 17 34  1  0  0  0  0
 18 35  1  0  0  0  0
 18 36  1  0  0  0  0
 19 22  1  0  0  0  0
 19 37  1  0  0  0  0
 19 38  1  0  0  0  0
 20 24  1  0  0  0  0
 21 25  1  0  0  0  0
 23 39  1  0  0  0  0
 23 40  1  0  0  0  0
 23 41  1  0  0  0  0
 24 25  2  0  0  0  0
 24 26  1  0  0  0  0
 25 27  1  0  0  0  0
 26 28  2  0  0  0  0
 27 29  2  0  0  0  0
 27 44  1  0  0  0  0
 28 29  1  0  0  0  0
 28 45  1  0  0  0  0
 29 46  1  0  0  0  0
M  END
> <PUBCHEM_COMPOUND_CID>
101689645

> <PUBCHEM_CONFORMER_RMSD>
0.6

> <PUBCHEM_CONFORMER_DIVERSEORDER>
1

> <PUBCHEM_MMFF94_PARTIAL_CHARGES>
33
1 -0.56
10 0.7
11 0.28
12 0.28
13 0.42
14 -0.12
15 0.28
16 -0.12
17 0.28
19 0.06
2 -0.56
20 0.47
21 0.47
22 0.66
24 0.09
25 0.09
26 0.08
27 -0.15
28 -0.15
29 -0.15
3 -0.43
4 -0.68
42 0.4
43 0.4
44 0.15
45 0.15
46 0.15
47 0.45
5 -0.68
6 -0.57
7 -0.57
8 -0.57
9 -0.53

> <PUBCHEM_EFFECTIVE_ROTOR_COUNT>
1.6

> <PUBCHEM_PHARMACOPHORE_FEATURES>
15
1 1 acceptor
1 2 acceptor
1 4 acceptor
1 4 donor
1 5 acceptor
1 5 donor
1 6 acceptor
1 7 acceptor
1 8 acceptor
1 9 donor
5 3 12 13 19 22 rings
6 1 10 12 13 14 16 rings
6 14 16 20 21 24 25 rings
6 2 10 11 15 17 18 rings
6 24 25 26 27 28 29 rings

> <PUBCHEM_HEAVY_ATOM_COUNT>
29

> <PUBCHEM_ATOM_DEF_STEREO_COUNT>
6

> <PUBCHEM_ATOM_UDEF_STEREO_COUNT>
0

> <PUBCHEM_BOND_DEF_STEREO_COUNT>
0

> <PUBCHEM_BOND_UDEF_STEREO_COUNT>
0

> <PUBCHEM_ISOTOPIC_ATOM_COUNT>
0

> <PUBCHEM_COMPONENT_COUNT>
1

> <PUBCHEM_CACTVS_TAUTO_COUNT>
10

> <PUBCHEM_CONFORMER_ID>
060FA92D00000001

> <PUBCHEM_MMFF94_ENERGY>
73.942

> <PUBCHEM_FEATURE_SELFOVERLAP>
76.434

> <PUBCHEM_SHAPE_FINGERPRINT>
10670039 82 18120385512937789124
10688039 33 18045499965648561215
10967382 1 18053384297543628798
1100329 8 17977095769814612378
11115154 58 17772449430810321599
11370993 70 18270401572795565377
11578080 2 12881942673024636537
11582403 64 16808953751529603477
11725454 13 17171225223399882885
12422481 6 18197241289265707955
12633257 1 18267015056229774178
12730499 353 17758111506757197741
12788726 201 18339060671361554331
13004483 165 18194679504218721491
13140716 1 18122911086060051131
13149001 5 17769404658761743366
13583140 156 17749670671194846120
138480 1 16754093437987549583
14178342 30 18412542141610326656
14223421 5 18268992149660764206
14787075 74 17917711254440995521
14790565 3 17836939897477600576
14955137 171 17399236348046589435
15131766 46 14762645243756678906
15324884 4 17825683152834111869
15420108 30 15109731966136681528
16728300 4 16596451014617509466
17138139 8 17698400491890263957
17349148 13 17845079684962706884
18219364 16 18192715540207063813
19591789 44 17620485601484136494
20510252 161 18200029697882044114
20739085 24 17760387868950349451
21033648 144 18341883087903974636
21033648 29 18264757767079437928
21236236 1 18342457071648899998
21641784 216 18045512064555441828
22182937 141 18342741801588283394
23227448 37 18413671292390635420
23419403 2 17272269517342841625
23558518 356 18262243329956722722
23559900 14 18269262633943089816
238 59 17760346813558414493
23845131 108 18192439559210488467
283562 15 18268140036475934930
335352 9 18197497316967072614
350125 39 18269558398233698720
352729 6 18201722821324301812
3886686 26 17976783585979790562
4340502 62 18057904476003536961
469060 322 17902241344195938040
474 4 17985545542026552096
5104073 3 18341322371665175130
57527452 28 14968215447949177829
633830 44 17627514826417384325
81228 2 18335986483989106487
9709674 26 18343866615195922286
9981440 41 17127847479744569714

> <PUBCHEM_SHAPE_MULTIPOLES>
543.98
8.07
4.46
1.42
9.27
2.78
-0.05
-2.88
-0.5
-4.21
0.08
-1.75
-0.8
1.1

> <PUBCHEM_SHAPE_SELFOVERLAP>
1223.562

> <PUBCHEM_SHAPE_VOLUME>
282.9

> <PUBCHEM_COORDINATE_TYPE>
2
5
10

$$$$
