10163420
  -OEChem-03292013303D

 56 57  0     0  0  0  0  0  0999 V2000
    5.9775   -2.2915   -0.4721 Cl  0  0  0  0  0  0  0  0  0  0  0  0
    6.1916    2.9856    0.8213 Cl  0  0  0  0  0  0  0  0  0  0  0  0
   -3.5676    1.4674   -1.2225 S   0  0  0  0  0  0  0  0  0  0  0  0
   -2.7479    2.4001   -1.9737 O   0  0  0  0  0  0  0  0  0  0  0  0
   -4.7524    0.9008   -1.8402 O   0  0  0  0  0  0  0  0  0  0  0  0
   -0.0969   -3.0357    0.3576 O   0  0  0  0  0  0  0  0  0  0  0  0
    1.2873    1.7392   -0.6876 O   0  0  0  0  0  0  0  0  0  0  0  0
    7.3012    0.2614    0.3245 O   0  0  0  0  0  0  0  0  0  0  0  0
   -3.9903    2.1683    0.2953 N   0  0  0  0  0  0  0  0  0  0  0  0
   -2.8543   -3.4478    0.1187 N   0  0  0  0  0  0  0  0  0  0  0  0
    1.0330   -0.5327   -0.1403 N   0  0  0  0  0  0  0  0  0  0  0  0
   -2.5257    0.1162   -0.7477 C   0  0  0  0  0  0  0  0  0  0  0  0
   -2.9927    3.0506    0.9525 C   0  0  0  0  0  0  0  0  0  0  0  0
   -4.7100    1.3164    1.2760 C   0  0  0  0  0  0  0  0  0  0  0  0
   -2.2761   -2.1838   -0.1309 C   0  0  0  0  0  0  0  0  0  0  0  0
   -3.0965   -1.1192   -0.5040 C   0  0  0  0  0  0  0  0  0  0  0  0
   -1.1640    0.3252   -0.6318 C   0  0  0  0  0  0  0  0  0  0  0  0
   -0.3436   -0.7394   -0.2587 C   0  0  0  0  0  0  0  0  0  0  0  0
   -0.8997   -1.9939   -0.0082 C   0  0  0  0  0  0  0  0  0  0  0  0
   -3.1855    4.4786    0.4838 C   0  0  0  0  0  0  0  0  0  0  0  0
   -5.5879    2.1815    2.1576 C   0  0  0  0  0  0  0  0  0  0  0  0
   -3.8489   -3.6053    1.1598 C   0  0  0  0  0  0  0  0  0  0  0  0
   -2.4691   -4.5981   -0.6730 C   0  0  0  0  0  0  0  0  0  0  0  0
    1.7470    0.6525   -0.3537 C   0  0  0  0  0  0  0  0  0  0  0  0
    3.2190    0.5490   -0.1747 C   0  0  0  0  0  0  0  0  0  0  0  0
    0.1302   -3.2165    1.7526 C   0  0  0  0  0  0  0  0  0  0  0  0
    3.9250    1.6747    0.1937 C   0  0  0  0  0  0  0  0  0  0  0  0
    3.8301   -0.6698   -0.3821 C   0  0  0  0  0  0  0  0  0  0  0  0
    5.2113   -0.7672   -0.2134 C   0  0  0  0  0  0  0  0  0  0  0  0
    5.3062    1.5773    0.3623 C   0  0  0  0  0  0  0  0  0  0  0  0
    5.9494    0.3564    0.1589 C   0  0  0  0  0  0  0  0  0  0  0  0
   -3.0491    3.0089    2.0438 H   0  0  0  0  0  0  0  0  0  0  0  0
   -1.9779    2.7221    0.7091 H   0  0  0  0  0  0  0  0  0  0  0  0
   -5.3552    0.6069    0.7479 H   0  0  0  0  0  0  0  0  0  0  0  0
   -3.9997    0.7448    1.8829 H   0  0  0  0  0  0  0  0  0  0  0  0
   -4.1676   -1.2712   -0.6010 H   0  0  0  0  0  0  0  0  0  0  0  0
   -0.7938    1.3162   -0.8381 H   0  0  0  0  0  0  0  0  0  0  0  0
   -2.4583    5.1377    0.9686 H   0  0  0  0  0  0  0  0  0  0  0  0
   -4.1891    4.8383    0.7346 H   0  0  0  0  0  0  0  0  0  0  0  0
   -3.0589    4.5779   -0.5978 H   0  0  0  0  0  0  0  0  0  0  0  0
   -6.2161    1.5479    2.7925 H   0  0  0  0  0  0  0  0  0  0  0  0
   -6.2488    2.8136    1.5547 H   0  0  0  0  0  0  0  0  0  0  0  0
   -5.0162    2.8348    2.8220 H   0  0  0  0  0  0  0  0  0  0  0  0
    1.5412   -1.3535    0.1751 H   0  0  0  0  0  0  0  0  0  0  0  0
   -3.9452   -4.6547    1.4588 H   0  0  0  0  0  0  0  0  0  0  0  0
   -4.8288   -3.2629    0.8118 H   0  0  0  0  0  0  0  0  0  0  0  0
   -3.5761   -3.0351    2.0546 H   0  0  0  0  0  0  0  0  0  0  0  0
   -2.1115   -4.3051   -1.6665 H   0  0  0  0  0  0  0  0  0  0  0  0
   -3.3226   -5.2688   -0.8216 H   0  0  0  0  0  0  0  0  0  0  0  0
   -1.6794   -5.1648   -0.1697 H   0  0  0  0  0  0  0  0  0  0  0  0
    0.8273   -4.0493    1.8797 H   0  0  0  0  0  0  0  0  0  0  0  0
    0.5744   -2.3202    2.1970 H   0  0  0  0  0  0  0  0  0  0  0  0
   -0.8035   -3.4634    2.2670 H   0  0  0  0  0  0  0  0  0  0  0  0
    3.4242    2.6250    0.3587 H   0  0  0  0  0  0  0  0  0  0  0  0
    3.2880   -1.5500   -0.7133 H   0  0  0  0  0  0  0  0  0  0  0  0
    7.5701   -0.6556    0.1419 H   0  0  0  0  0  0  0  0  0  0  0  0
  1 29  1  0  0  0  0
  2 30  1  0  0  0  0
  3  4  2  0  0  0  0
  3  5  2  0  0  0  0
  3  9  1  0  0  0  0
  3 12  1  0  0  0  0
  6 19  1  0  0  0  0
  6 26  1  0  0  0  0
  7 24  2  0  0  0  0
  8 31  1  0  0  0  0
  8 56  1  0  0  0  0
  9 13  1  0  0  0  0
  9 14  1  0  0  0  0
 10 15  1  0  0  0  0
 10 22  1  0  0  0  0
 10 23  1  0  0  0  0
 11 18  1  0  0  0  0
 11 24  1  0  0  0  0
 11 44  1  0  0  0  0
 12 16  1  0  0  0  0
 12 17  2  0  0  0  0
 13 20  1  0  0  0  0
 13 32  1  0  0  0  0
 13 33  1  0  0  0  0
 14 21  1  0  0  0  0
 14 34  1  0  0  0  0
 14 35  1  0  0  0  0
 15 16  2  0  0  0  0
 15 19  1  0  0  0  0
 16 36  1  0  0  0  0
 17 18  1  0  0  0  0
 17 37  1  0  0  0  0
 18 19  2  0  0  0  0
 20 38  1  0  0  0  0
 20 39  1  0  0  0  0
 20 40  1  0  0  0  0
 21 41  1  0  0  0  0
 21 42  1  0  0  0  0
 21 43  1  0  0  0  0
 22 45  1  0  0  0  0
 22 46  1  0  0  0  0
 22 47  1  0  0  0  0
 23 48  1  0  0  0  0
 23 49  1  0  0  0  0
 23 50  1  0  0  0  0
 24 25  1  0  0  0  0
 25 27  2  0  0  0  0
 25 28  1  0  0  0  0
 26 51  1  0  0  0  0
 26 52  1  0  0  0  0
 26 53  1  0  0  0  0
 27 30  1  0  0  0  0
 27 54  1  0  0  0  0
 28 29  2  0  0  0  0
 28 55  1  0  0  0  0
 29 31  1  0  0  0  0
 30 31  2  0  0  0  0
M  END
> <PUBCHEM_COMPOUND_CID>
10163420

> <PUBCHEM_CONFORMER_RMSD>
1

> <PUBCHEM_CONFORMER_DIVERSEORDER>
1
23
3
14
4
20
2
19
26
17
25
22
5
18
10
9
21
13
8
16
24
7
15
6
11
12

> <PUBCHEM_MMFF94_PARTIAL_CHARGES>
35
1 -0.18
10 -0.84
11 -0.55
12 -0.01
13 0.36
14 0.36
15 0.1
16 -0.15
17 -0.15
18 0.12
19 0.08
2 -0.18
22 0.37
23 0.37
24 0.54
25 0.09
26 0.28
27 -0.15
28 -0.15
29 0.18
3 1.45
30 0.18
31 0.08
36 0.15
37 0.15
4 -0.65
44 0.37
5 -0.65
54 0.15
55 0.15
56 0.45
6 -0.36
7 -0.57
8 -0.53
9 -0.85

> <PUBCHEM_EFFECTIVE_ROTOR_COUNT>
9

> <PUBCHEM_PHARMACOPHORE_FEATURES>
9
1 10 cation
1 11 donor
1 4 acceptor
1 5 acceptor
1 6 acceptor
1 7 acceptor
1 8 donor
6 12 15 16 17 18 19 rings
6 25 27 28 29 30 31 rings

> <PUBCHEM_HEAVY_ATOM_COUNT>
31

> <PUBCHEM_ATOM_DEF_STEREO_COUNT>
0

> <PUBCHEM_ATOM_UDEF_STEREO_COUNT>
0

> <PUBCHEM_BOND_DEF_STEREO_COUNT>
0

> <PUBCHEM_BOND_UDEF_STEREO_COUNT>
0

> <PUBCHEM_ISOTOPIC_ATOM_COUNT>
0

> <PUBCHEM_COMPONENT_COUNT>
1

> <PUBCHEM_CACTVS_TAUTO_COUNT>
7

> <PUBCHEM_CONFORMER_ID>
009B14DC00000001

> <PUBCHEM_MMFF94_ENERGY>
103.8154

> <PUBCHEM_FEATURE_SELFOVERLAP>
45.69

> <PUBCHEM_SHAPE_FINGERPRINT>
10835480 77 18341603867995895752
11405975 8 18411417302676320498
12107183 9 18265328401203469394
12788726 201 18045771540715112146
13140716 1 18264497346337535949
14713325 29 18411140264148106451
14790565 3 18050849918477106768
14866123 147 18409732824476189787
15021287 119 16877943850060177060
15183329 4 18341609266526732684
17844677 252 18338520862928956412
21033648 144 18410846673174227236
21033648 29 17632284718855036120
21236236 1 18337388339650001351
21756936 100 18201438043639183337
23522609 53 17896057524432114988
23559900 14 18049710012724155516
23845131 108 18119819015330292169
244849 19 17630357205782914311
255183 313 18339095860307984291
283562 15 18262793111694096891
392239 28 18199207195224757257
4073 2 18410572920975416906
445580 125 18342460292489263092
469060 322 17603591872048842619
5104073 3 18409724097830001866
57527306 92 16128107650771828513
59755656 520 18340772542114175247
7226269 152 17916866807561624336
79837 15 18408610236273644219
9709674 26 18190461756735997406

> <PUBCHEM_SHAPE_MULTIPOLES>
601.26
15.21
5.48
1.37
23.34
2.22
-0.13
-7.63
-2.69
-6.49
-1.43
-2.12
-0.4
0.34

> <PUBCHEM_SHAPE_SELFOVERLAP>
1227.773

> <PUBCHEM_SHAPE_VOLUME>
353.3

> <PUBCHEM_COORDINATE_TYPE>
2
5
10

$$$$
