101653444
  -OEChem-03292013293D

 54 59  0     1  0  0  0  0  0999 V2000
   -0.5066    0.3988   -1.7327 O   0  0  0  0  0  0  0  0  0  0  0  0
    0.3575    2.7371    0.5568 O   0  0  0  0  0  0  0  0  0  0  0  0
   -0.0395   -1.9181   -1.5571 O   0  0  0  0  0  0  0  0  0  0  0  0
   -3.3395   -0.3933    1.7024 O   0  0  0  0  0  0  0  0  0  0  0  0
   -3.0596    1.9812   -0.1563 O   0  0  0  0  0  0  0  0  0  0  0  0
    2.7218    0.5401    2.1913 O   0  0  0  0  0  0  0  0  0  0  0  0
    1.5040   -2.0840    1.5855 O   0  0  0  0  0  0  0  0  0  0  0  0
   -0.7038    3.2314   -1.4029 O   0  0  0  0  0  0  0  0  0  0  0  0
    0.0808   -3.7646   -0.2063 O   0  0  0  0  0  0  0  0  0  0  0  0
   -4.8892   -1.5501    0.4759 O   0  0  0  0  0  0  0  0  0  0  0  0
    0.0631    0.3609    0.5987 C   0  0  2  0  0  0  0  0  0  0  0  0
    1.1538   -0.3982   -0.1863 C   0  0  2  0  0  0  0  0  0  0  0  0
   -0.8229    0.9856   -0.4794 C   0  0  2  0  0  0  0  0  0  0  0  0
    0.7320    1.5603    1.2848 C   0  0  1  0  0  0  0  0  0  0  0  0
    2.3437    0.6044   -0.2151 C   0  0  1  0  0  0  0  0  0  0  0  0
   -2.2893    0.7897   -0.0446 C   0  0  1  0  0  0  0  0  0  0  0  0
   -0.8985   -0.3877    1.5257 C   0  0  0  0  0  0  0  0  0  0  0  0
    0.5150   -0.5929   -1.5566 C   0  0  2  0  0  0  0  0  0  0  0  0
    2.2335    1.3414    1.1258 C   0  0  2  0  0  0  0  0  0  0  0  0
   -2.1945    0.4124    1.4246 C   0  0  2  0  0  0  0  0  0  0  0  0
    1.4961   -1.8308    0.2060 C   0  0  2  0  0  0  0  0  0  0  0  0
   -0.4028    2.4324   -0.5285 C   0  0  0  0  0  0  0  0  0  0  0  0
    3.7304    0.0251   -0.4707 C   0  0  0  0  0  0  0  0  0  0  0  0
   -3.0529   -0.3965   -0.6394 C   0  0  1  0  0  0  0  0  0  0  0  0
    0.4437   -2.6372   -0.5021 C   0  0  0  0  0  0  0  0  0  0  0  0
   -3.8916   -0.8476    0.5347 C   0  0  0  0  0  0  0  0  0  0  0  0
    3.7673   -0.6526   -1.8519 C   0  0  0  0  0  0  0  0  0  0  0  0
    4.0691   -1.0167    0.6104 C   0  0  0  0  0  0  0  0  0  0  0  0
    4.7814    1.1490   -0.4333 C   0  0  0  0  0  0  0  0  0  0  0  0
   -3.9024   -0.0797   -1.8595 C   0  0  0  0  0  0  0  0  0  0  0  0
    0.4397    1.6890    2.3320 H   0  0  0  0  0  0  0  0  0  0  0  0
    2.1450    1.3435   -1.0066 H   0  0  0  0  0  0  0  0  0  0  0  0
   -0.5436   -0.4380    2.5607 H   0  0  0  0  0  0  0  0  0  0  0  0
   -1.0780   -1.4198    1.2127 H   0  0  0  0  0  0  0  0  0  0  0  0
    1.1929   -0.5201   -2.4083 H   0  0  0  0  0  0  0  0  0  0  0  0
    2.7794    2.2904    1.1147 H   0  0  0  0  0  0  0  0  0  0  0  0
   -2.1984    1.2826    2.0905 H   0  0  0  0  0  0  0  0  0  0  0  0
    2.3840   -2.2582   -0.2471 H   0  0  0  0  0  0  0  0  0  0  0  0
   -2.3852   -1.2325   -0.8664 H   0  0  0  0  0  0  0  0  0  0  0  0
   -3.9074    1.8447    0.2997 H   0  0  0  0  0  0  0  0  0  0  0  0
    2.5833    1.0351    3.0166 H   0  0  0  0  0  0  0  0  0  0  0  0
    5.0046   -0.7116    1.1047 H   0  0  0  0  0  0  0  0  0  0  0  0
    3.4930    0.0590   -2.6397 H   0  0  0  0  0  0  0  0  0  0  0  0
    3.1313   -1.5307   -1.9615 H   0  0  0  0  0  0  0  0  0  0  0  0
    4.7867   -0.9898   -2.0790 H   0  0  0  0  0  0  0  0  0  0  0  0
    4.8812    1.5983    0.5601 H   0  0  0  0  0  0  0  0  0  0  0  0
    5.7713    0.7674   -0.7105 H   0  0  0  0  0  0  0  0  0  0  0  0
    3.4343   -1.2318    1.4494 H   0  0  0  0  0  0  0  0  0  0  0  0
    4.3532   -1.9788    0.1619 H   0  0  0  0  0  0  0  0  0  0  0  0
    4.5305    1.9475   -1.1408 H   0  0  0  0  0  0  0  0  0  0  0  0
   -4.7206    0.6090   -1.6234 H   0  0  0  0  0  0  0  0  0  0  0  0
   -4.3607   -0.9940   -2.2525 H   0  0  0  0  0  0  0  0  0  0  0  0
   -3.2944    0.3613   -2.6554 H   0  0  0  0  0  0  0  0  0  0  0  0
    1.7214   -3.0228    1.7155 H   0  0  0  0  0  0  0  0  0  0  0  0
  1 13  1  0  0  0  0
  1 18  1  0  0  0  0
  2 14  1  0  0  0  0
  2 22  1  0  0  0  0
  3 18  1  0  0  0  0
  3 25  1  0  0  0  0
  4 20  1  0  0  0  0
  4 26  1  0  0  0  0
  5 16  1  0  0  0  0
  5 40  1  0  0  0  0
  6 19  1  0  0  0  0
  6 41  1  0  0  0  0
  7 21  1  0  0  0  0
  7 54  1  0  0  0  0
  8 22  2  0  0  0  0
  9 25  2  0  0  0  0
 10 26  2  0  0  0  0
 11 12  1  0  0  0  0
 11 13  1  0  0  0  0
 11 14  1  0  0  0  0
 11 17  1  0  0  0  0
 12 15  1  0  0  0  0
 12 18  1  0  0  0  0
 12 21  1  0  0  0  0
 13 16  1  0  0  0  0
 13 22  1  0  0  0  0
 14 19  1  0  0  0  0
 14 31  1  0  0  0  0
 15 19  1  0  0  0  0
 15 23  1  0  0  0  0
 15 32  1  0  0  0  0
 16 20  1  0  0  0  0
 16 24  1  0  0  0  0
 17 20  1  0  0  0  0
 17 33  1  0  0  0  0
 17 34  1  0  0  0  0
 18 35  1  0  0  0  0
 19 36  1  0  0  0  0
 20 37  1  0  0  0  0
 21 25  1  0  0  0  0
 21 38  1  0  0  0  0
 23 27  1  0  0  0  0
 23 28  1  0  0  0  0
 23 29  1  0  0  0  0
 24 26  1  0  0  0  0
 24 30  1  0  0  0  0
 24 39  1  0  0  0  0
 27 43  1  0  0  0  0
 27 44  1  0  0  0  0
 27 45  1  0  0  0  0
 28 42  1  0  0  0  0
 28 48  1  0  0  0  0
 28 49  1  0  0  0  0
 29 46  1  0  0  0  0
 29 47  1  0  0  0  0
 29 50  1  0  0  0  0
 30 51  1  0  0  0  0
 30 52  1  0  0  0  0
 30 53  1  0  0  0  0
M  END
> <PUBCHEM_COMPOUND_CID>
101653444

> <PUBCHEM_CONFORMER_RMSD>
0.8

> <PUBCHEM_CONFORMER_DIVERSEORDER>
1

> <PUBCHEM_MMFF94_PARTIAL_CHARGES>
24
1 -0.56
10 -0.57
13 0.34
14 0.28
16 0.28
18 0.56
19 0.28
2 -0.43
20 0.28
21 0.34
22 0.66
24 0.06
25 0.66
26 0.66
3 -0.43
4 -0.43
40 0.4
41 0.4
5 -0.68
54 0.4
6 -0.68
7 -0.68
8 -0.57
9 -0.57

> <PUBCHEM_EFFECTIVE_ROTOR_COUNT>
2.8

> <PUBCHEM_PHARMACOPHORE_FEATURES>
17
1 1 acceptor
1 10 acceptor
1 5 acceptor
1 5 donor
1 6 acceptor
1 6 donor
1 7 acceptor
1 7 donor
1 8 acceptor
1 9 acceptor
4 23 27 28 29 hydrophobe
5 1 11 12 13 18 rings
5 11 12 14 15 19 rings
5 11 13 16 17 20 rings
5 2 11 13 14 22 rings
5 3 12 18 21 25 rings
5 4 16 20 24 26 rings

> <PUBCHEM_HEAVY_ATOM_COUNT>
30

> <PUBCHEM_ATOM_DEF_STEREO_COUNT>
10

> <PUBCHEM_ATOM_UDEF_STEREO_COUNT>
1

> <PUBCHEM_BOND_DEF_STEREO_COUNT>
0

> <PUBCHEM_BOND_UDEF_STEREO_COUNT>
0

> <PUBCHEM_ISOTOPIC_ATOM_COUNT>
0

> <PUBCHEM_COMPONENT_COUNT>
1

> <PUBCHEM_CACTVS_TAUTO_COUNT>
4

> <PUBCHEM_CONFORMER_ID>
060F1BC400000001

> <PUBCHEM_MMFF94_ENERGY>
144.7823

> <PUBCHEM_FEATURE_SELFOVERLAP>
89.638

> <PUBCHEM_SHAPE_FINGERPRINT>
10076449 9 17773902916224705246
10863032 1 15936400143819293992
10906281 52 18115612395121310385
10948715 1 18335140847709333484
11370993 70 16587740953778959730
11578080 2 18051152305803212437
12011746 2 18410296951355755319
12035758 1 18270402831595347978
12969540 114 18261387918516052644
13140716 1 17837198647190926705
13224815 77 18409733928319175268
13583140 156 17241045517454529440
13965767 371 16194295991115228241
14223421 5 18193561060311313886
14787075 74 18059580242855086684
14790565 3 18340781410985122168
15209289 33 17918001589228336242
16945 1 18335133224005311185
17349148 13 17313109626641327806
17492 54 18339921618750799430
17980427 23 17386020480294092244
1813 80 18341067279602262877
19591789 44 18341894078276658174
20028762 73 17773597307305623591
20691752 17 18269253807283935366
20905425 154 18265052427367662450
21421861 104 17901116217557054979
22393880 68 18130773535023146333
23227448 37 18122353638561337444
23419403 2 12833658745008786932
23559900 14 17974563603009279626
2748010 2 18199731588402388144
296302 2 16877662348659462861
3493558 16 16805323292535314012
6669772 16 17468782013428977116
70251023 43 17983297023937627247
81228 2 17910089632731199534

> <PUBCHEM_SHAPE_MULTIPOLES>
558.69
6.96
2.82
1.77
0.51
0.48
0
0.82
-0.33
-0.03
-0.31
0.06
-0.01
0.43

> <PUBCHEM_SHAPE_SELFOVERLAP>
1282.084

> <PUBCHEM_SHAPE_VOLUME>
291

> <PUBCHEM_COORDINATE_TYPE>
2
5
10

$$$$
