101724973
  -OEChem-03292013293D

 40 44  0     1  0  0  0  0  0999 V2000
   -0.0798    2.7790    0.0646 O   0  0  0  0  0  0  0  0  0  0  0  0
    1.6742    2.2852    1.5515 O   0  0  0  0  0  0  0  0  0  0  0  0
    3.9055    1.0283   -1.9632 O   0  0  0  0  0  0  0  0  0  0  0  0
    5.2378   -0.8927   -0.4373 O   0  0  0  0  0  0  0  0  0  0  0  0
   -4.6286    1.5425    0.4280 O   0  0  0  0  0  0  0  0  0  0  0  0
   -5.3958   -0.8739   -0.1149 O   0  0  0  0  0  0  0  0  0  0  0  0
    1.0844    1.9653    0.2945 C   0  0  1  0  0  0  0  0  0  0  0  0
    0.6149    0.5340    0.2955 C   0  0  0  0  0  0  0  0  0  0  0  0
    2.0845    2.1173   -0.8523 C   0  0  0  0  0  0  0  0  0  0  0  0
    3.2893    1.1766   -0.6846 C   0  0  1  0  0  0  0  0  0  0  0  0
   -0.7096    0.5140    0.0795 C   0  0  0  0  0  0  0  0  0  0  0  0
    1.6662   -0.4849    0.4034 C   0  0  0  0  0  0  0  0  0  0  0  0
    2.9521   -0.1878   -0.1046 C   0  0  0  0  0  0  0  0  0  0  0  0
   -1.1392    1.8923    0.0833 C   0  0  0  0  0  0  0  0  0  0  0  0
   -1.6999   -0.5497   -0.1581 C   0  0  0  0  0  0  0  0  0  0  0  0
    1.4619   -1.6942    1.0815 C   0  0  0  0  0  0  0  0  0  0  0  0
    3.9755   -1.1436    0.0180 C   0  0  0  0  0  0  0  0  0  0  0  0
   -3.0639   -0.2018   -0.0446 C   0  0  0  0  0  0  0  0  0  0  0  0
   -2.4203    2.2625    0.1443 C   0  0  0  0  0  0  0  0  0  0  0  0
   -3.4705    1.2126    0.2015 C   0  0  0  0  0  0  0  0  0  0  0  0
   -1.3846   -1.8510   -0.5633 C   0  0  0  0  0  0  0  0  0  0  0  0
    2.4875   -2.6343    1.1885 C   0  0  0  0  0  0  0  0  0  0  0  0
    3.7397   -2.3643    0.6474 C   0  0  0  0  0  0  0  0  0  0  0  0
   -4.0683   -1.1607   -0.2304 C   0  0  0  0  0  0  0  0  0  0  0  0
   -2.3880   -2.8053   -0.7550 C   0  0  0  0  0  0  0  0  0  0  0  0
   -3.7251   -2.4655   -0.5732 C   0  0  0  0  0  0  0  0  0  0  0  0
    2.4435    3.1530   -0.9163 H   0  0  0  0  0  0  0  0  0  0  0  0
    1.5878    1.9359   -1.8167 H   0  0  0  0  0  0  0  0  0  0  0  0
    4.0154    1.6507   -0.0115 H   0  0  0  0  0  0  0  0  0  0  0  0
    0.5072   -1.9180    1.5508 H   0  0  0  0  0  0  0  0  0  0  0  0
    2.3024    3.0135    1.4118 H   0  0  0  0  0  0  0  0  0  0  0  0
   -2.7223    3.3021    0.1844 H   0  0  0  0  0  0  0  0  0  0  0  0
    4.1594    1.9153   -2.2706 H   0  0  0  0  0  0  0  0  0  0  0  0
   -0.3624   -2.1515   -0.7649 H   0  0  0  0  0  0  0  0  0  0  0  0
    2.3101   -3.5724    1.7063 H   0  0  0  0  0  0  0  0  0  0  0  0
    4.5302   -3.1032    0.7477 H   0  0  0  0  0  0  0  0  0  0  0  0
   -2.1221   -3.8144   -1.0575 H   0  0  0  0  0  0  0  0  0  0  0  0
   -4.4953   -3.2166   -0.7269 H   0  0  0  0  0  0  0  0  0  0  0  0
    5.8042   -1.6623   -0.2568 H   0  0  0  0  0  0  0  0  0  0  0  0
   -5.5236    0.0243    0.2253 H   0  0  0  0  0  0  0  0  0  0  0  0
  1  7  1  0  0  0  0
  1 14  1  0  0  0  0
  2  7  1  0  0  0  0
  2 31  1  0  0  0  0
  3 10  1  0  0  0  0
  3 33  1  0  0  0  0
  4 17  1  0  0  0  0
  4 39  1  0  0  0  0
  5 20  2  0  0  0  0
  6 24  1  0  0  0  0
  6 40  1  0  0  0  0
  7  8  1  0  0  0  0
  7  9  1  0  0  0  0
  8 11  2  0  0  0  0
  8 12  1  0  0  0  0
  9 10  1  0  0  0  0
  9 27  1  0  0  0  0
  9 28  1  0  0  0  0
 10 13  1  0  0  0  0
 10 29  1  0  0  0  0
 11 14  1  0  0  0  0
 11 15  1  0  0  0  0
 12 13  2  0  0  0  0
 12 16  1  0  0  0  0
 13 17  1  0  0  0  0
 14 19  2  0  0  0  0
 15 18  2  0  0  0  0
 15 21  1  0  0  0  0
 16 22  2  0  0  0  0
 16 30  1  0  0  0  0
 17 23  2  0  0  0  0
 18 20  1  0  0  0  0
 18 24  1  0  0  0  0
 19 20  1  0  0  0  0
 19 32  1  0  0  0  0
 21 25  2  0  0  0  0
 21 34  1  0  0  0  0
 22 23  1  0  0  0  0
 22 35  1  0  0  0  0
 23 36  1  0  0  0  0
 24 26  2  0  0  0  0
 25 26  1  0  0  0  0
 25 37  1  0  0  0  0
 26 38  1  0  0  0  0
M  END
> <PUBCHEM_COMPOUND_CID>
101724973

> <PUBCHEM_CONFORMER_RMSD>
0.6

> <PUBCHEM_CONFORMER_DIVERSEORDER>
1
2
3

> <PUBCHEM_MMFF94_PARTIAL_CHARGES>
36
1 -0.36
10 0.42
11 -0.03
12 0.03
13 -0.14
14 0.08
15 0.03
16 -0.15
17 0.08
18 0.09
19 -0.14
2 -0.68
20 0.47
21 -0.15
22 -0.15
23 -0.15
24 0.08
25 -0.15
26 -0.15
3 -0.68
30 0.15
31 0.4
32 0.15
33 0.4
34 0.15
35 0.15
36 0.15
37 0.15
38 0.15
39 0.45
4 -0.53
40 0.45
5 -0.57
6 -0.53
7 0.7
8 -0.17

> <PUBCHEM_EFFECTIVE_ROTOR_COUNT>
0.6

> <PUBCHEM_PHARMACOPHORE_FEATURES>
13
1 1 acceptor
1 2 acceptor
1 2 donor
1 3 acceptor
1 3 donor
1 4 donor
1 5 acceptor
1 6 donor
5 1 7 8 11 14 rings
6 11 14 15 18 19 20 rings
6 12 13 16 17 22 23 rings
6 15 18 21 24 25 26 rings
6 7 8 9 10 12 13 rings

> <PUBCHEM_HEAVY_ATOM_COUNT>
26

> <PUBCHEM_ATOM_DEF_STEREO_COUNT>
0

> <PUBCHEM_ATOM_UDEF_STEREO_COUNT>
2

> <PUBCHEM_BOND_DEF_STEREO_COUNT>
0

> <PUBCHEM_BOND_UDEF_STEREO_COUNT>
0

> <PUBCHEM_ISOTOPIC_ATOM_COUNT>
0

> <PUBCHEM_COMPONENT_COUNT>
1

> <PUBCHEM_CACTVS_TAUTO_COUNT>
15

> <PUBCHEM_CONFORMER_ID>
0610332D00000001

> <PUBCHEM_MMFF94_ENERGY>
88.8772

> <PUBCHEM_FEATURE_SELFOVERLAP>
66.269

> <PUBCHEM_SHAPE_FINGERPRINT>
10369192 42 17127575973840673296
10616163 171 18412263921728735503
10759866 29 18333740117024058478
10967382 1 18338512070629683083
1100329 8 18339078194363430833
11578080 2 17897417593685988092
12236239 1 18334017151405647830
12553582 1 18339347617725764331
12633257 1 18059584555329449257
12788726 201 17987811717428515657
13140716 1 18341610387513307593
13224815 77 18259978305622156945
13692114 37 14238258757867392927
13726171 33 17986701296388784472
14117953 113 17617369581103800301
14178342 30 17909529998339121513
14790565 3 18053390898751055785
14931854 50 18334579066092856766
15196674 1 18411419513988619341
15442244 35 18411695487365295083
16752209 62 18271796918013662615
17349148 13 17846211164311375855
17492 89 18196085771386080879
17804303 29 18272367555747501737
1813 80 17676479549425067980
19319366 153 18187364380529618170
19591789 44 18410854352401282275
20028762 73 17988915670674864279
20291156 8 18410287004037476402
20691752 17 17676761041613088376
20905425 154 18270682090010159380
21267235 1 18410581686175960643
21634736 98 18408040736468696502
221490 88 18263648531275802299
22393880 68 18411990186683739956
23557571 272 18131633344811111522
23559900 14 18342728654546100185
2748010 2 16895408776112868248
3004659 81 18333730200213824510
335352 9 18340765954040739789
34934 24 18412260640605427052
350125 39 18411136897315544473
4280585 95 17764600815815853526
46194498 28 17168983546960848973
463206 1 18336549420767722554
474 4 17676777573258598548
5104073 3 18413670214417232825
7097593 13 18264197015816605731
9709674 26 18195241354934620099
9981440 41 17471290025337762760

> <PUBCHEM_SHAPE_MULTIPOLES>
499.85
9.04
3.44
1.03
1.94
0.22
-0.08
3.25
-1.22
0.22
0.23
-0.83
-0.03
-1.6

> <PUBCHEM_SHAPE_SELFOVERLAP>
1150.419

> <PUBCHEM_SHAPE_VOLUME>
254.9

> <PUBCHEM_COORDINATE_TYPE>
2
5
10

$$$$
