101782929
  -OEChem-03292013293D

 50 52  0     1  0  0  0  0  0999 V2000
   -3.7526    1.6412   -0.2124 S   0  0  0  0  0  0  0  0  0  0  0  0
   -4.3748    1.7728    1.0913 O   0  0  0  0  0  0  0  0  0  0  0  0
   -3.7688    2.7527   -1.1439 O   0  0  0  0  0  0  0  0  0  0  0  0
   -8.1912    0.2708    0.2713 O   0  0  0  0  0  0  0  0  0  0  0  0
   -7.0339   -1.1764    1.5770 O   0  0  0  0  0  0  0  0  0  0  0  0
    2.2754   -0.4871    1.7962 O   0  0  0  0  0  0  0  0  0  0  0  0
   -4.3633    0.2612   -0.9932 N   0  0  0  0  0  0  0  0  0  0  0  0
    3.0392    0.3346   -0.1424 N   0  0  0  0  0  0  0  0  0  0  0  0
    3.6535   -0.7370    1.7833 N   0  0  0  0  0  0  0  0  0  0  0  0
   -5.4274   -1.9698   -0.8335 C   0  0  1  0  0  0  0  0  0  0  0  0
   -4.3084   -1.0549   -0.3177 C   0  0  0  0  0  0  0  0  0  0  0  0
   -6.8143   -1.2986   -0.8561 C   0  0  0  0  0  0  0  0  0  0  0  0
   -5.0524   -2.5651   -2.1934 C   0  0  0  0  0  0  0  0  0  0  0  0
   -2.0589    1.1995    0.0345 C   0  0  0  0  0  0  0  0  0  0  0  0
   -7.3270   -0.7618    0.4655 C   0  0  0  0  0  0  0  0  0  0  0  0
   -1.6720    0.5444    1.2037 C   0  0  0  0  0  0  0  0  0  0  0  0
   -1.1090    1.5069   -0.9398 C   0  0  0  0  0  0  0  0  0  0  0  0
    0.6145    0.5044    0.4245 C   0  0  0  0  0  0  0  0  0  0  0  0
   -0.3353    0.1968    1.3987 C   0  0  0  0  0  0  0  0  0  0  0  0
    0.2275    1.1593   -0.7447 C   0  0  0  0  0  0  0  0  0  0  0  0
    1.9967    0.1459    0.6266 C   0  0  0  0  0  0  0  0  0  0  0  0
    5.3931   -0.2517    0.1565 C   0  0  0  0  0  0  0  0  0  0  0  0
    4.0321   -0.2235    0.6090 C   0  0  0  0  0  0  0  0  0  0  0  0
    5.7281    0.3006   -1.0799 C   0  0  0  0  0  0  0  0  0  0  0  0
    6.3813   -0.8318    0.9518 C   0  0  0  0  0  0  0  0  0  0  0  0
    8.0390   -0.3080   -0.7256 C   0  0  0  0  0  0  0  0  0  0  0  0
    7.0510    0.2724   -1.5210 C   0  0  0  0  0  0  0  0  0  0  0  0
    7.7042   -0.8601    0.5108 C   0  0  0  0  0  0  0  0  0  0  0  0
    9.4535   -0.3376   -1.1972 C   0  0  0  0  0  0  0  0  0  0  0  0
   -5.4830   -2.8150   -0.1332 H   0  0  0  0  0  0  0  0  0  0  0  0
   -4.4283   -0.9176    0.7619 H   0  0  0  0  0  0  0  0  0  0  0  0
   -3.3281   -1.5109   -0.4918 H   0  0  0  0  0  0  0  0  0  0  0  0
   -6.8100   -0.4777   -1.5839 H   0  0  0  0  0  0  0  0  0  0  0  0
   -7.5600   -2.0245   -1.2038 H   0  0  0  0  0  0  0  0  0  0  0  0
   -4.3216    0.2343   -2.0196 H   0  0  0  0  0  0  0  0  0  0  0  0
   -5.8060   -3.2918   -2.5151 H   0  0  0  0  0  0  0  0  0  0  0  0
   -4.0898   -3.0849   -2.1436 H   0  0  0  0  0  0  0  0  0  0  0  0
   -4.9835   -1.7916   -2.9650 H   0  0  0  0  0  0  0  0  0  0  0  0
   -2.3959    0.2928    1.9735 H   0  0  0  0  0  0  0  0  0  0  0  0
   -1.3893    2.0100   -1.8608 H   0  0  0  0  0  0  0  0  0  0  0  0
   -0.0724   -0.3133    2.3218 H   0  0  0  0  0  0  0  0  0  0  0  0
    0.9509    1.4072   -1.5177 H   0  0  0  0  0  0  0  0  0  0  0  0
   -8.5322    0.6255    1.1200 H   0  0  0  0  0  0  0  0  0  0  0  0
    4.9812    0.7601   -1.7225 H   0  0  0  0  0  0  0  0  0  0  0  0
    6.1582   -1.2714    1.9208 H   0  0  0  0  0  0  0  0  0  0  0  0
    7.3001    0.7074   -2.4853 H   0  0  0  0  0  0  0  0  0  0  0  0
    8.4658   -1.3133    1.1400 H   0  0  0  0  0  0  0  0  0  0  0  0
    9.9785    0.5643   -0.8672 H   0  0  0  0  0  0  0  0  0  0  0  0
    9.9821   -1.2139   -0.8069 H   0  0  0  0  0  0  0  0  0  0  0  0
    9.5046   -0.3936   -2.2899 H   0  0  0  0  0  0  0  0  0  0  0  0
  1  2  2  0  0  0  0
  1  3  2  0  0  0  0
  1  7  1  0  0  0  0
  1 14  1  0  0  0  0
  4 15  1  0  0  0  0
  4 43  1  0  0  0  0
  5 15  2  0  0  0  0
  6  9  1  0  0  0  0
  6 21  1  0  0  0  0
  7 11  1  0  0  0  0
  7 35  1  0  0  0  0
  8 21  2  0  0  0  0
  8 23  1  0  0  0  0
  9 23  2  0  0  0  0
 10 11  1  0  0  0  0
 10 12  1  0  0  0  0
 10 13  1  0  0  0  0
 10 30  1  0  0  0  0
 11 31  1  0  0  0  0
 11 32  1  0  0  0  0
 12 15  1  0  0  0  0
 12 33  1  0  0  0  0
 12 34  1  0  0  0  0
 13 36  1  0  0  0  0
 13 37  1  0  0  0  0
 13 38  1  0  0  0  0
 14 16  2  0  0  0  0
 14 17  1  0  0  0  0
 16 19  1  0  0  0  0
 16 39  1  0  0  0  0
 17 20  2  0  0  0  0
 17 40  1  0  0  0  0
 18 19  2  0  0  0  0
 18 20  1  0  0  0  0
 18 21  1  0  0  0  0
 19 41  1  0  0  0  0
 20 42  1  0  0  0  0
 22 23  1  0  0  0  0
 22 24  2  0  0  0  0
 22 25  1  0  0  0  0
 24 27  1  0  0  0  0
 24 44  1  0  0  0  0
 25 28  2  0  0  0  0
 25 45  1  0  0  0  0
 26 27  2  0  0  0  0
 26 28  1  0  0  0  0
 26 29  1  0  0  0  0
 27 46  1  0  0  0  0
 28 47  1  0  0  0  0
 29 48  1  0  0  0  0
 29 49  1  0  0  0  0
 29 50  1  0  0  0  0
M  END
> <PUBCHEM_COMPOUND_CID>
101782929

> <PUBCHEM_CONFORMER_RMSD>
1

> <PUBCHEM_CONFORMER_DIVERSEORDER>
1
35
15
34
22
17
13
28
18
7
21
33
16
26
11
2
4
27
24
32
20
5
31
9
8
23
29
25
19
6
30
14
10
3
12

> <PUBCHEM_MMFF94_PARTIAL_CHARGES>
37
1 1.45
11 0.36
12 0.06
14 -0.01
15 0.66
16 -0.15
17 -0.15
18 0.05
19 -0.15
2 -0.65
20 -0.15
21 0.43
22 0.05
23 0.46
24 -0.15
25 -0.15
26 -0.14
27 -0.15
28 -0.15
29 0.14
3 -0.65
35 0.42
39 0.15
4 -0.65
40 0.15
41 0.15
42 0.15
43 0.5
44 0.15
45 0.15
46 0.15
47 0.15
5 -0.57
6 -0.02
7 -0.91
8 -0.57
9 -0.41

> <PUBCHEM_EFFECTIVE_ROTOR_COUNT>
8

> <PUBCHEM_PHARMACOPHORE_FEATURES>
11
1 13 hydrophobe
1 2 acceptor
1 3 acceptor
1 4 acceptor
1 5 acceptor
1 7 donor
3 4 5 15 anion
3 8 9 23 cation
5 6 8 9 21 23 rings
6 14 16 17 18 19 20 rings
6 22 24 25 26 27 28 rings

> <PUBCHEM_HEAVY_ATOM_COUNT>
29

> <PUBCHEM_ATOM_DEF_STEREO_COUNT>
1

> <PUBCHEM_ATOM_UDEF_STEREO_COUNT>
0

> <PUBCHEM_BOND_DEF_STEREO_COUNT>
0

> <PUBCHEM_BOND_UDEF_STEREO_COUNT>
0

> <PUBCHEM_ISOTOPIC_ATOM_COUNT>
0

> <PUBCHEM_COMPONENT_COUNT>
1

> <PUBCHEM_CACTVS_TAUTO_COUNT>
8

> <PUBCHEM_CONFORMER_ID>
0611159100000001

> <PUBCHEM_MMFF94_ENERGY>
45.3266

> <PUBCHEM_FEATURE_SELFOVERLAP>
55.898

> <PUBCHEM_SHAPE_FINGERPRINT>
10 15 13470691455404907274
10299344 5 18408886230613466146
10595046 47 17822006455081580088
11524674 6 16558746841282485887
117089 54 18120093051287541779
12082328 90 17312817157049551551
12838862 33 16660642999840799236
13540713 5 17170659000591841144
13673619 4 18130784576951846329
13690498 29 18334287661368197717
13885169 127 16845579694999678251
14123256 10 17603304860131319594
14344974 204 16915648396936433199
14767858 380 17748541546015126330
14856354 85 18130788958372194165
15183329 4 18040432196618719914
15301273 46 16343706529763375506
15352257 5 17775569727811773014
15461852 350 18040720246926356956
15510794 2 17203608173410945454
1577012 14 17676486095530194352
18608769 82 17560798853335971166
18643901 69 18273214210034614519
21150785 3 16805604776054140891
21267235 1 18333733533261381473
21403212 168 12895078405228838613
21591340 7 11743836954916734397
21792961 116 16917069906340610704
23081809 10 17822005364207424816
23522609 53 18189920637975039980
23559900 14 17022910081700925428
246663 6 17846782905851907230
3178227 256 15769776862608259494
335352 9 17095249099903540878
335507 130 18407763629589647222
397830 11 17560220544621431056
4017518 198 17775281665384080471
4325135 7 18113620079629371606
437795 83 15936400114071217214
445580 167 17894633673578740524
484989 97 17169001134651485337
504579 68 17676489449867945582
54039377 194 18260270789539427215
5937810 71 15647320906669510375
6009941 240 16630532826152652363
6058803 2 17317307424919412480
6201320 215 11747198183016150870
636775 72 11963383038183049983
9980921 7 15502671455254167630
999808 66 16559032696983127254

> <PUBCHEM_SHAPE_MULTIPOLES>
556.37
27.47
1.86
1.62
21.26
0.44
-0.14
12.19
3.64
-4.75
0.87
0.44
0.06
-0.5

> <PUBCHEM_SHAPE_SELFOVERLAP>
1175.279

> <PUBCHEM_SHAPE_VOLUME>
312.9

> <PUBCHEM_COORDINATE_TYPE>
2
5
10

$$$$
