101724972
  -OEChem-03292013293D

 38 42  0     1  0  0  0  0  0999 V2000
   -0.0680    2.7676   -0.1080 O   0  0  0  0  0  0  0  0  0  0  0  0
    1.6766    2.2236   -1.5887 O   0  0  0  0  0  0  0  0  0  0  0  0
    4.1759    1.2407    1.5503 O   0  0  0  0  0  0  0  0  0  0  0  0
    5.1793   -0.9616    0.6284 O   0  0  0  0  0  0  0  0  0  0  0  0
   -4.6368    1.5705   -0.3418 O   0  0  0  0  0  0  0  0  0  0  0  0
   -5.4087   -0.8501    0.1591 O   0  0  0  0  0  0  0  0  0  0  0  0
    1.0944    1.9407   -0.3172 C   0  0  2  0  0  0  0  0  0  0  0  0
    0.6081    0.5199   -0.2912 C   0  0  0  0  0  0  0  0  0  0  0  0
   -0.7162    0.5081   -0.0839 C   0  0  0  0  0  0  0  0  0  0  0  0
    2.1022    2.1537    0.8135 C   0  0  0  0  0  0  0  0  0  0  0  0
    1.6542   -0.4958   -0.3965 C   0  0  0  0  0  0  0  0  0  0  0  0
   -1.1350    1.8887   -0.0968 C   0  0  0  0  0  0  0  0  0  0  0  0
    2.9097   -0.2298    0.1797 C   0  0  0  0  0  0  0  0  0  0  0  0
    3.1586    1.0607    0.8855 C   0  0  0  0  0  0  0  0  0  0  0  0
   -1.7103   -0.5527    0.1466 C   0  0  0  0  0  0  0  0  0  0  0  0
   -3.0734   -0.1924    0.0624 C   0  0  0  0  0  0  0  0  0  0  0  0
   -2.4139    2.2687   -0.1352 C   0  0  0  0  0  0  0  0  0  0  0  0
    1.4853   -1.6731   -1.1346 C   0  0  0  0  0  0  0  0  0  0  0  0
    3.9474   -1.1644    0.0815 C   0  0  0  0  0  0  0  0  0  0  0  0
   -3.4744    1.2281   -0.1587 C   0  0  0  0  0  0  0  0  0  0  0  0
   -1.3973   -1.8674    0.5084 C   0  0  0  0  0  0  0  0  0  0  0  0
    2.5230   -2.6018   -1.2352 C   0  0  0  0  0  0  0  0  0  0  0  0
   -4.0814   -1.1480    0.2455 C   0  0  0  0  0  0  0  0  0  0  0  0
    3.7475   -2.3522   -0.6202 C   0  0  0  0  0  0  0  0  0  0  0  0
   -2.4046   -2.8183    0.6961 C   0  0  0  0  0  0  0  0  0  0  0  0
   -3.7422   -2.4633    0.5510 C   0  0  0  0  0  0  0  0  0  0  0  0
    1.5949    2.1898    1.7857 H   0  0  0  0  0  0  0  0  0  0  0  0
    2.6187    3.1111    0.6744 H   0  0  0  0  0  0  0  0  0  0  0  0
   -2.7079    3.3106   -0.1777 H   0  0  0  0  0  0  0  0  0  0  0  0
    0.5514   -1.8801   -1.6511 H   0  0  0  0  0  0  0  0  0  0  0  0
    2.3041    2.9575   -1.4804 H   0  0  0  0  0  0  0  0  0  0  0  0
   -0.3738   -2.1829    0.6771 H   0  0  0  0  0  0  0  0  0  0  0  0
    2.3770   -3.5171   -1.8014 H   0  0  0  0  0  0  0  0  0  0  0  0
    4.5487   -3.0814   -0.7076 H   0  0  0  0  0  0  0  0  0  0  0  0
   -2.1411   -3.8372    0.9662 H   0  0  0  0  0  0  0  0  0  0  0  0
   -4.5153   -3.2121    0.7012 H   0  0  0  0  0  0  0  0  0  0  0  0
    5.2296   -0.0898    1.0482 H   0  0  0  0  0  0  0  0  0  0  0  0
   -5.5367    0.0583   -0.1526 H   0  0  0  0  0  0  0  0  0  0  0  0
  1  7  1  0  0  0  0
  1 12  1  0  0  0  0
  2  7  1  0  0  0  0
  2 31  1  0  0  0  0
  3 14  2  0  0  0  0
  4 19  1  0  0  0  0
  4 37  1  0  0  0  0
  5 20  2  0  0  0  0
  6 23  1  0  0  0  0
  6 38  1  0  0  0  0
  7  8  1  0  0  0  0
  7 10  1  0  0  0  0
  8  9  2  0  0  0  0
  8 11  1  0  0  0  0
  9 12  1  0  0  0  0
  9 15  1  0  0  0  0
 10 14  1  0  0  0  0
 10 27  1  0  0  0  0
 10 28  1  0  0  0  0
 11 13  2  0  0  0  0
 11 18  1  0  0  0  0
 12 17  2  0  0  0  0
 13 14  1  0  0  0  0
 13 19  1  0  0  0  0
 15 16  2  0  0  0  0
 15 21  1  0  0  0  0
 16 20  1  0  0  0  0
 16 23  1  0  0  0  0
 17 20  1  0  0  0  0
 17 29  1  0  0  0  0
 18 22  2  0  0  0  0
 18 30  1  0  0  0  0
 19 24  2  0  0  0  0
 21 25  2  0  0  0  0
 21 32  1  0  0  0  0
 22 24  1  0  0  0  0
 22 33  1  0  0  0  0
 23 26  2  0  0  0  0
 24 34  1  0  0  0  0
 25 26  1  0  0  0  0
 25 35  1  0  0  0  0
 26 36  1  0  0  0  0
M  END
> <PUBCHEM_COMPOUND_CID>
101724972

> <PUBCHEM_CONFORMER_RMSD>
0.6

> <PUBCHEM_CONFORMER_DIVERSEORDER>
1
2

> <PUBCHEM_MMFF94_PARTIAL_CHARGES>
36
1 -0.36
10 0.06
11 0.03
12 0.08
13 0.09
14 0.42
15 0.03
16 0.09
17 -0.14
18 -0.15
19 0.08
2 -0.68
20 0.47
21 -0.15
22 -0.15
23 0.08
24 -0.15
25 -0.15
26 -0.15
29 0.15
3 -0.57
30 0.15
31 0.4
32 0.15
33 0.15
34 0.15
35 0.15
36 0.15
37 0.45
38 0.45
4 -0.53
5 -0.57
6 -0.53
7 0.7
8 -0.17
9 -0.03

> <PUBCHEM_EFFECTIVE_ROTOR_COUNT>
0.4

> <PUBCHEM_PHARMACOPHORE_FEATURES>
12
1 1 acceptor
1 2 acceptor
1 2 donor
1 3 acceptor
1 4 donor
1 5 acceptor
1 6 donor
5 1 7 8 9 12 rings
6 11 13 18 19 22 24 rings
6 15 16 21 23 25 26 rings
6 7 8 10 11 13 14 rings
6 9 12 15 16 17 20 rings

> <PUBCHEM_HEAVY_ATOM_COUNT>
26

> <PUBCHEM_ATOM_DEF_STEREO_COUNT>
0

> <PUBCHEM_ATOM_UDEF_STEREO_COUNT>
1

> <PUBCHEM_BOND_DEF_STEREO_COUNT>
0

> <PUBCHEM_BOND_UDEF_STEREO_COUNT>
0

> <PUBCHEM_ISOTOPIC_ATOM_COUNT>
0

> <PUBCHEM_COMPONENT_COUNT>
1

> <PUBCHEM_CACTVS_TAUTO_COUNT>
45

> <PUBCHEM_CONFORMER_ID>
0610332C00000001

> <PUBCHEM_MMFF94_ENERGY>
87.9734

> <PUBCHEM_FEATURE_SELFOVERLAP>
61.197

> <PUBCHEM_SHAPE_FINGERPRINT>
10319926 262 18266440046203631666
10616163 171 18048323528703902757
10693767 8 17910932679620402135
10906281 52 18269854028995388244
10967382 1 18338521966297630079
1100329 8 16609418581524458451
11135609 12 18188223086214778273
11578080 2 16987412382904279835
11680986 33 18413109446138391997
116883 192 18409736153196617687
11963148 33 17758958512150771699
12553582 1 18265923335029400263
12633257 1 18197497333687915050
13140716 1 18411146835500394681
13224815 77 18271533069018225821
13402501 40 18341332189180145934
13583140 156 17774429598736177273
14223421 5 18340769333425452048
14790565 3 17546739153117449617
14866123 147 17406280923403039979
15196674 1 18410291410768822169
15927050 60 16468399613739333565
17349148 13 18411973689576887245
17492 89 18190462859978155379
1813 80 17313100869129347076
18681886 176 18120380015163410924
19591789 44 17401495849083814617
20691752 17 17313104146231429177
20905425 154 18267316502081647015
21033648 29 17846483829782908538
21267235 1 18408612465198205347
21792934 111 18410578410244574955
21859007 373 17750776793542513381
22122407 14 16343699928525243345
23184049 29 18335707173428012599
23559900 14 18411699863968761140
335352 9 18336548227404858093
394222 165 16957318912661068292
463206 1 18056474195817203527
5104073 3 18413387626827649713
5309563 4 16748761416964366179
6823239 73 18342464720885589722
8809292 202 18337675221773876363
9709674 26 18411982472737768583

> <PUBCHEM_SHAPE_MULTIPOLES>
499.85
9.07
3.44
1.01
1.97
0.2
-0.05
3.17
1.5
0.21
-0.24
-0.8
0
1.53

> <PUBCHEM_SHAPE_SELFOVERLAP>
1156.684

> <PUBCHEM_SHAPE_VOLUME>
253.2

> <PUBCHEM_COORDINATE_TYPE>
2
5
10

$$$$
