10172878
  -OEChem-03292013303D

 51 54  0     0  0  0  0  0  0999 V2000
   -1.7805    2.4919   -0.1446 S   0  0  0  0  0  0  0  0  0  0  0  0
   -8.4128    0.1674    0.4050 O   0  0  0  0  0  0  0  0  0  0  0  0
   -7.9817   -1.9639   -0.2566 O   0  0  0  0  0  0  0  0  0  0  0  0
    2.4203    0.9590   -0.0534 N   0  0  0  0  0  0  0  0  0  0  0  0
    2.7176   -1.7998    0.0995 N   0  0  0  0  0  0  0  0  0  0  0  0
   -1.0963    0.0027   -0.0093 N   0  0  0  0  0  0  0  0  0  0  0  0
    4.8385    1.3546   -0.0510 C   0  0  0  0  0  0  0  0  0  0  0  0
    5.1645   -1.6713    0.0894 C   0  0  0  0  0  0  0  0  0  0  0  0
    6.1594    0.6229   -0.3752 C   0  0  0  0  0  0  0  0  0  0  0  0
    6.3002   -0.6750    0.4110 C   0  0  0  0  0  0  0  0  0  0  0  0
    3.6561    0.3964   -0.0270 C   0  0  0  0  0  0  0  0  0  0  0  0
    3.8052   -0.9869    0.0690 C   0  0  0  0  0  0  0  0  0  0  0  0
    4.9326    2.0443    1.3258 C   0  0  0  0  0  0  0  0  0  0  0  0
    4.6310    2.4422   -1.1266 C   0  0  0  0  0  0  0  0  0  0  0  0
    5.4000   -2.3247   -1.2881 C   0  0  0  0  0  0  0  0  0  0  0  0
    5.1960   -2.7784    1.1647 C   0  0  0  0  0  0  0  0  0  0  0  0
    1.3577    0.1371   -0.0114 C   0  0  0  0  0  0  0  0  0  0  0  0
    1.5041   -1.2227    0.0616 C   0  0  0  0  0  0  0  0  0  0  0  0
    0.0651    0.7519   -0.0471 C   0  0  0  0  0  0  0  0  0  0  0  0
   -0.1065    2.1200   -0.1200 C   0  0  0  0  0  0  0  0  0  0  0  0
   -2.1295    0.8141   -0.0548 C   0  0  0  0  0  0  0  0  0  0  0  0
   -3.5112    0.3957   -0.0351 C   0  0  0  0  0  0  0  0  0  0  0  0
   -3.8475   -0.9127   -0.3789 C   0  0  0  0  0  0  0  0  0  0  0  0
   -4.5071    1.3010    0.3292 C   0  0  0  0  0  0  0  0  0  0  0  0
   -5.1824   -1.3168   -0.3586 C   0  0  0  0  0  0  0  0  0  0  0  0
   -5.8420    0.8969    0.3495 C   0  0  0  0  0  0  0  0  0  0  0  0
   -6.1797   -0.4121    0.0056 C   0  0  0  0  0  0  0  0  0  0  0  0
   -7.5712   -0.8338    0.0275 C   0  0  0  0  0  0  0  0  0  0  0  0
    7.0159    1.2738   -0.1580 H   0  0  0  0  0  0  0  0  0  0  0  0
    6.2174    0.4004   -1.4483 H   0  0  0  0  0  0  0  0  0  0  0  0
    7.2753   -1.1287    0.1916 H   0  0  0  0  0  0  0  0  0  0  0  0
    6.3119   -0.4451    1.4839 H   0  0  0  0  0  0  0  0  0  0  0  0
    5.7958    2.7180    1.3723 H   0  0  0  0  0  0  0  0  0  0  0  0
    4.0379    2.6433    1.5349 H   0  0  0  0  0  0  0  0  0  0  0  0
    5.0277    1.3201    2.1423 H   0  0  0  0  0  0  0  0  0  0  0  0
    4.4869    1.9971   -2.1183 H   0  0  0  0  0  0  0  0  0  0  0  0
    3.7524    3.0634   -0.9169 H   0  0  0  0  0  0  0  0  0  0  0  0
    5.4974    3.1115   -1.1816 H   0  0  0  0  0  0  0  0  0  0  0  0
    4.6533   -3.1008   -1.4956 H   0  0  0  0  0  0  0  0  0  0  0  0
    5.3363   -1.5967   -2.1043 H   0  0  0  0  0  0  0  0  0  0  0  0
    6.3869   -2.7986   -1.3373 H   0  0  0  0  0  0  0  0  0  0  0  0
    6.1854   -3.2472    1.2175 H   0  0  0  0  0  0  0  0  0  0  0  0
    4.9625   -2.3745    2.1570 H   0  0  0  0  0  0  0  0  0  0  0  0
    4.4701   -3.5730    0.9563 H   0  0  0  0  0  0  0  0  0  0  0  0
    0.6695   -1.9132    0.0940 H   0  0  0  0  0  0  0  0  0  0  0  0
    0.6316    2.9093   -0.1604 H   0  0  0  0  0  0  0  0  0  0  0  0
   -3.0882   -1.6349   -0.6689 H   0  0  0  0  0  0  0  0  0  0  0  0
   -4.3097    2.3243    0.6337 H   0  0  0  0  0  0  0  0  0  0  0  0
   -5.4249   -2.3409   -0.6305 H   0  0  0  0  0  0  0  0  0  0  0  0
   -6.5863    1.6312    0.6448 H   0  0  0  0  0  0  0  0  0  0  0  0
   -9.3485   -0.1274    0.4170 H   0  0  0  0  0  0  0  0  0  0  0  0
  1 20  1  0  0  0  0
  1 21  1  0  0  0  0
  2 28  1  0  0  0  0
  2 51  1  0  0  0  0
  3 28  2  0  0  0  0
  4 11  2  0  0  0  0
  4 17  1  0  0  0  0
  5 12  2  0  0  0  0
  5 18  1  0  0  0  0
  6 19  1  0  0  0  0
  6 21  2  0  0  0  0
  7  9  1  0  0  0  0
  7 11  1  0  0  0  0
  7 13  1  0  0  0  0
  7 14  1  0  0  0  0
  8 10  1  0  0  0  0
  8 12  1  0  0  0  0
  8 15  1  0  0  0  0
  8 16  1  0  0  0  0
  9 10  1  0  0  0  0
  9 29  1  0  0  0  0
  9 30  1  0  0  0  0
 10 31  1  0  0  0  0
 10 32  1  0  0  0  0
 11 12  1  0  0  0  0
 13 33  1  0  0  0  0
 13 34  1  0  0  0  0
 13 35  1  0  0  0  0
 14 36  1  0  0  0  0
 14 37  1  0  0  0  0
 14 38  1  0  0  0  0
 15 39  1  0  0  0  0
 15 40  1  0  0  0  0
 15 41  1  0  0  0  0
 16 42  1  0  0  0  0
 16 43  1  0  0  0  0
 16 44  1  0  0  0  0
 17 18  2  0  0  0  0
 17 19  1  0  0  0  0
 18 45  1  0  0  0  0
 19 20  2  0  0  0  0
 20 46  1  0  0  0  0
 21 22  1  0  0  0  0
 22 23  2  0  0  0  0
 22 24  1  0  0  0  0
 23 25  1  0  0  0  0
 23 47  1  0  0  0  0
 24 26  2  0  0  0  0
 24 48  1  0  0  0  0
 25 27  2  0  0  0  0
 25 49  1  0  0  0  0
 26 27  1  0  0  0  0
 26 50  1  0  0  0  0
 27 28  1  0  0  0  0
M  END
> <PUBCHEM_COMPOUND_CID>
10172878

> <PUBCHEM_CONFORMER_RMSD>
0.8

> <PUBCHEM_CONFORMER_DIVERSEORDER>
1
3
2

> <PUBCHEM_MMFF94_PARTIAL_CHARGES>
29
1 -0.08
11 0.17
12 0.17
17 0.36
18 0.16
19 0.17
2 -0.65
20 -0.11
21 0.33
22 0.05
23 -0.15
24 -0.15
25 -0.15
26 -0.15
27 0.09
28 0.63
3 -0.57
4 -0.62
45 0.15
46 0.15
47 0.15
48 0.15
49 0.15
5 -0.62
50 0.15
51 0.5
6 -0.57
7 0.14
8 0.14

> <PUBCHEM_EFFECTIVE_ROTOR_COUNT>
3.8

> <PUBCHEM_PHARMACOPHORE_FEATURES>
12
1 2 acceptor
1 3 acceptor
1 4 acceptor
1 5 acceptor
1 6 acceptor
3 2 3 28 anion
3 7 13 14 hydrophobe
3 8 15 16 hydrophobe
5 1 6 19 20 21 rings
6 22 23 24 25 26 27 rings
6 4 5 11 12 17 18 rings
6 7 8 9 10 11 12 rings

> <PUBCHEM_HEAVY_ATOM_COUNT>
28

> <PUBCHEM_ATOM_DEF_STEREO_COUNT>
0

> <PUBCHEM_ATOM_UDEF_STEREO_COUNT>
0

> <PUBCHEM_BOND_DEF_STEREO_COUNT>
0

> <PUBCHEM_BOND_UDEF_STEREO_COUNT>
0

> <PUBCHEM_ISOTOPIC_ATOM_COUNT>
0

> <PUBCHEM_COMPONENT_COUNT>
1

> <PUBCHEM_CACTVS_TAUTO_COUNT>
1

> <PUBCHEM_CONFORMER_ID>
009B39CE00000001

> <PUBCHEM_MMFF94_ENERGY>
84.9923

> <PUBCHEM_FEATURE_SELFOVERLAP>
60.988

> <PUBCHEM_SHAPE_FINGERPRINT>
10 15 13182731555029871787
10299344 5 18341897398523377899
10411042 1 18192148188998866802
10595046 47 18409451379627475560
11315181 36 18344149198949097153
11524674 6 16415478268781001607
11719270 70 17989205919288650087
11724838 91 18409445895644717868
11963148 33 18263074569169347514
11991303 11 14490484105369354209
12107183 9 17691691077988949304
12166972 35 17967255286568898148
12236239 1 18342460335655330881
12516196 113 18343301487725639193
12616971 3 17917417714452673236
13533116 47 18408603643746517834
13685833 64 18410294714189328099
13692114 37 18334286604964843154
13782708 43 18337389335871066450
13835254 42 18409448051387251628
14178184 131 18057043726294031855
14251764 18 18273216413579631839
14347332 77 18189049811458231820
15119646 104 18408045126030865765
15183329 4 18341899588714255331
15352257 5 18411418419151890475
15716309 27 18272088297459127991
15927050 60 17552632965149912228
16110190 28 18343864429183935239
17492 89 18195244408798948158
17844677 252 18336551516801576620
18222031 100 17095246904104393860
20028762 73 18341048519591717710
20157964 124 18261393369182855208
21130935 74 18343585144698723643
21267235 1 18341052926332781590
21315763 28 18410011018260799273
21792934 111 18341320120453991241
22149856 69 17917159312114162267
23522609 53 18197246743948669529
23559900 14 18409722958962593688
23569943 247 17752480967186804363
24771750 20 17464549967746988925
255183 451 18267594520591093966
3004659 81 18187365415246685307
3383291 50 18114749334761105563
3411729 13 16557606712228281968
34797466 226 17167582717375696532
350125 39 18411698756194311268
397830 11 14404322023399539975
4073 2 18114748255705727899
4325135 7 18409168826613668580
439807 62 18409448068339202073
5104073 3 18271519797859783008
9831232 110 17986683575448433782
9962374 69 18341887485924099006
9996256 80 18412263900185002408
999808 66 18041008371404271619

> <PUBCHEM_SHAPE_MULTIPOLES>
553.39
22.19
2.7
0.87
30.81
0.03
0.01
8.36
0.77
-3.09
-0.04
-1.07
0.02
-0.53

> <PUBCHEM_SHAPE_SELFOVERLAP>
1204.044

> <PUBCHEM_SHAPE_VOLUME>
307.5

> <PUBCHEM_COORDINATE_TYPE>
2
5
10

$$$$
