101789797
  -OEChem-03292013293D

 51 57  0     1  0  0  0  0  0999 V2000
    0.2801   -1.2728    0.6810 O   0  0  0  0  0  0  0  0  0  0  0  0
    3.7817    2.0030    2.1553 O   0  0  0  0  0  0  0  0  0  0  0  0
    0.2591    1.3169   -3.7860 O   0  0  0  0  0  0  0  0  0  0  0  0
   -2.8338   -1.9115   -1.7200 O   0  0  0  0  0  0  0  0  0  0  0  0
    0.7295    1.5403    0.4372 N   0  0  1  0  0  0  0  0  0  0  0  0
    2.7164    0.5292    0.6702 N   0  0  0  0  0  0  0  0  0  0  0  0
   -1.6796    0.0151   -1.0674 N   0  0  0  0  0  0  0  0  0  0  0  0
   -0.2113    2.2247   -1.7305 N   0  0  0  0  0  0  0  0  0  0  0  0
   -2.3847    1.2259    0.8556 N   0  0  0  0  0  0  0  0  0  0  0  0
    1.5860    0.5731   -0.2089 C   0  0  1  0  0  0  0  0  0  0  0  0
    1.1497   -0.8874   -0.3847 C   0  0  2  0  0  0  0  0  0  0  0  0
    0.4902   -1.1218   -1.7468 C   0  0  0  0  0  0  0  0  0  0  0  0
    1.6454    2.5347    1.0488 C   0  0  1  0  0  0  0  0  0  0  0  0
   -0.4210    2.0185   -0.3137 C   0  0  1  0  0  0  0  0  0  0  0  0
    2.4806   -1.5722   -0.1109 C   0  0  0  0  0  0  0  0  0  0  0  0
   -0.6630   -0.1564   -2.1138 C   0  0  2  0  0  0  0  0  0  0  0  0
    3.3369   -0.7031    0.5967 C   0  0  0  0  0  0  0  0  0  0  0  0
    2.8846    1.6853    1.3932 C   0  0  0  0  0  0  0  0  0  0  0  0
   -1.5725    1.0484   -0.1394 C   0  0  0  0  0  0  0  0  0  0  0  0
   -0.1933    1.1931   -2.6483 C   0  0  0  0  0  0  0  0  0  0  0  0
    2.0608    3.7030    0.1606 C   0  0  0  0  0  0  0  0  0  0  0  0
    2.8578   -2.8810   -0.3464 C   0  0  0  0  0  0  0  0  0  0  0  0
    4.5496   -1.1084    1.1114 C   0  0  0  0  0  0  0  0  0  0  0  0
   -2.6977   -0.9454   -0.9748 C   0  0  0  0  0  0  0  0  0  0  0  0
    4.0998   -3.3030    0.1395 C   0  0  0  0  0  0  0  0  0  0  0  0
    4.9325   -2.4285    0.8656 C   0  0  0  0  0  0  0  0  0  0  0  0
   -3.6489   -0.7472    0.1391 C   0  0  0  0  0  0  0  0  0  0  0  0
   -3.4493    0.3282    1.0092 C   0  0  0  0  0  0  0  0  0  0  0  0
   -4.7218   -1.6265    0.3213 C   0  0  0  0  0  0  0  0  0  0  0  0
   -4.3434    0.5140    2.0696 C   0  0  0  0  0  0  0  0  0  0  0  0
   -5.6045   -1.4285    1.3819 C   0  0  0  0  0  0  0  0  0  0  0  0
   -5.4159   -0.3598    2.2556 C   0  0  0  0  0  0  0  0  0  0  0  0
    1.9993    0.9645   -1.1519 H   0  0  0  0  0  0  0  0  0  0  0  0
    0.0919   -2.1451   -1.7693 H   0  0  0  0  0  0  0  0  0  0  0  0
    1.2520   -1.0714   -2.5362 H   0  0  0  0  0  0  0  0  0  0  0  0
    1.2063    2.8994    1.9837 H   0  0  0  0  0  0  0  0  0  0  0  0
   -0.7598    2.9784    0.0961 H   0  0  0  0  0  0  0  0  0  0  0  0
   -1.1773   -0.6129   -2.9720 H   0  0  0  0  0  0  0  0  0  0  0  0
    0.1210    3.1341   -2.0361 H   0  0  0  0  0  0  0  0  0  0  0  0
    2.5101    3.3630   -0.7788 H   0  0  0  0  0  0  0  0  0  0  0  0
    2.8114    4.3191    0.6684 H   0  0  0  0  0  0  0  0  0  0  0  0
    1.2097    4.3481   -0.0773 H   0  0  0  0  0  0  0  0  0  0  0  0
   -0.1531   -2.1073    0.4338 H   0  0  0  0  0  0  0  0  0  0  0  0
    2.2062   -3.5728   -0.8684 H   0  0  0  0  0  0  0  0  0  0  0  0
    5.1939   -0.4380    1.6674 H   0  0  0  0  0  0  0  0  0  0  0  0
    4.4217   -4.3275   -0.0292 H   0  0  0  0  0  0  0  0  0  0  0  0
    5.8865   -2.7901    1.2408 H   0  0  0  0  0  0  0  0  0  0  0  0
   -4.8852   -2.4663   -0.3483 H   0  0  0  0  0  0  0  0  0  0  0  0
   -4.2091    1.3435    2.7598 H   0  0  0  0  0  0  0  0  0  0  0  0
   -6.4392   -2.1079    1.5277 H   0  0  0  0  0  0  0  0  0  0  0  0
   -6.1036   -0.2060    3.0821 H   0  0  0  0  0  0  0  0  0  0  0  0
  1 11  1  0  0  0  0
  1 43  1  0  0  0  0
  2 18  2  0  0  0  0
  3 20  2  0  0  0  0
  4 24  2  0  0  0  0
  5 10  1  0  0  0  0
  5 13  1  0  0  0  0
  5 14  1  0  0  0  0
  6 10  1  0  0  0  0
  6 17  1  0  0  0  0
  6 18  1  0  0  0  0
  7 16  1  0  0  0  0
  7 19  1  0  0  0  0
  7 24  1  0  0  0  0
  8 14  1  0  0  0  0
  8 20  1  0  0  0  0
  8 39  1  0  0  0  0
  9 19  2  0  0  0  0
  9 28  1  0  0  0  0
 10 11  1  0  0  0  0
 10 33  1  0  0  0  0
 11 12  1  0  0  0  0
 11 15  1  0  0  0  0
 12 16  1  0  0  0  0
 12 34  1  0  0  0  0
 12 35  1  0  0  0  0
 13 18  1  0  0  0  0
 13 21  1  0  0  0  0
 13 36  1  0  0  0  0
 14 19  1  0  0  0  0
 14 37  1  0  0  0  0
 15 17  1  0  0  0  0
 15 22  2  0  0  0  0
 16 20  1  0  0  0  0
 16 38  1  0  0  0  0
 17 23  2  0  0  0  0
 21 40  1  0  0  0  0
 21 41  1  0  0  0  0
 21 42  1  0  0  0  0
 22 25  1  0  0  0  0
 22 44  1  0  0  0  0
 23 26  1  0  0  0  0
 23 45  1  0  0  0  0
 24 27  1  0  0  0  0
 25 26  2  0  0  0  0
 25 46  1  0  0  0  0
 26 47  1  0  0  0  0
 27 28  1  0  0  0  0
 27 29  2  0  0  0  0
 28 30  2  0  0  0  0
 29 31  1  0  0  0  0
 29 48  1  0  0  0  0
 30 32  1  0  0  0  0
 30 49  1  0  0  0  0
 31 32  2  0  0  0  0
 31 50  1  0  0  0  0
 32 51  1  0  0  0  0
M  END
> <PUBCHEM_COMPOUND_CID>
101789797

> <PUBCHEM_CONFORMER_RMSD>
0.6

> <PUBCHEM_CONFORMER_DIVERSEORDER>
1

> <PUBCHEM_MMFF94_PARTIAL_CHARGES>
40
1 -0.68
10 0.57
11 0.42
13 0.33
14 0.63
15 -0.14
16 0.36
17 0.12
18 0.57
19 0.45
2 -0.57
20 0.57
22 -0.15
23 -0.15
24 0.54
25 -0.15
26 -0.15
27 0.09
28 0.18
29 -0.15
3 -0.57
30 -0.15
31 -0.15
32 -0.15
39 0.37
4 -0.57
43 0.4
44 0.15
45 0.15
46 0.15
47 0.15
48 0.15
49 0.15
5 -0.81
50 0.15
51 0.15
6 -0.48
7 -0.42
8 -0.73
9 -0.63

> <PUBCHEM_EFFECTIVE_ROTOR_COUNT>
0.6

> <PUBCHEM_PHARMACOPHORE_FEATURES>
13
1 1 acceptor
1 1 donor
1 2 acceptor
1 3 acceptor
1 4 acceptor
1 5 cation
1 8 donor
5 5 6 10 13 18 rings
5 6 10 11 15 17 rings
6 15 17 22 23 25 26 rings
6 27 28 29 30 31 32 rings
6 7 8 14 16 19 20 rings
6 7 9 19 24 27 28 rings

> <PUBCHEM_HEAVY_ATOM_COUNT>
32

> <PUBCHEM_ATOM_DEF_STEREO_COUNT>
5

> <PUBCHEM_ATOM_UDEF_STEREO_COUNT>
0

> <PUBCHEM_BOND_DEF_STEREO_COUNT>
0

> <PUBCHEM_BOND_UDEF_STEREO_COUNT>
0

> <PUBCHEM_ISOTOPIC_ATOM_COUNT>
0

> <PUBCHEM_COMPONENT_COUNT>
1

> <PUBCHEM_CACTVS_TAUTO_COUNT>
2

> <PUBCHEM_CONFORMER_ID>
0611306500000001

> <PUBCHEM_MMFF94_ENERGY>
133.8571

> <PUBCHEM_FEATURE_SELFOVERLAP>
66.403

> <PUBCHEM_SHAPE_FINGERPRINT>
10764073 3 16123048625014019262
11578080 2 18187641367022762877
11720765 8 9509809586668233008
11954058 11 18042136486902269755
12107183 9 18126862503744513625
12363563 72 16732973258748553729
12422481 6 16987436395897853414
12633257 1 17918276428755004579
12714826 92 17824816746424694126
12892183 10 18272370914480577289
13103583 49 18271254815657631131
13140716 1 18127963127552592704
13383661 66 14709501242038024216
13544653 18 18187367597206304607
13583140 156 18340762642309497015
13782708 43 17604706639564790618
13965767 371 17560812051749677897
14341114 328 17703793669101293043
14739800 52 16916493895312210120
14790565 3 17979068615987436856
14950920 106 18272931618129641083
14955137 171 17631740370336538002
15064986 96 16772677581247464934
15163728 17 12751235896036684147
15475509 84 17917437453927661665
17974551 9 18060134379530810171
17980427 23 16916776354279691545
1813 80 17749118772308191983
19319366 153 17841991384180993632
20642791 268 17846770828356508722
20715895 44 17486511299984006321
20739085 24 18342173384584885496
21033648 29 18260255348857405809
21421861 104 18199767941137184369
21756936 100 16700602623020580640
23559900 14 17603865637416786895
3004659 81 12252444679632135345
3117164 225 18130230354814621067
3633792 109 18128795539896820559
3737641 26 18118970183047056410
392239 28 17051876916749060627
5104073 3 18129683979794428579
621550 5 18115029585096265708
6669772 16 16519373450129669876
6823239 73 16443352008961679473
7097593 13 18202280329311605033
86090 222 17822019709045416131

> <PUBCHEM_SHAPE_MULTIPOLES>
610.16
9.79
3.38
2.41
6.92
0.78
1.67
-7.18
-7.74
-4.05
-0.25
1.05
0.92
0.42

> <PUBCHEM_SHAPE_SELFOVERLAP>
1403.412

> <PUBCHEM_SHAPE_VOLUME>
310

> <PUBCHEM_COORDINATE_TYPE>
2
5
10

$$$$
