101711978
  -OEChem-03292013293D

 31 32  0     0  0  0  0  0  0999 V2000
    0.7083    1.7245    0.3595 N   0  0  0  0  0  0  0  0  0  0  0  0
   -0.4551   -2.5437    0.5136 N   0  0  0  0  0  0  0  0  0  0  0  0
    2.0663    1.7717    0.4152 N   0  0  0  0  0  0  0  0  0  0  0  0
    4.1881    0.7075    0.1904 N   0  0  0  0  0  0  0  0  0  0  0  0
   -1.0559   -3.7533    0.0581 N   0  0  0  0  0  0  0  0  0  0  0  0
    4.9660   -0.2883   -0.3465 N   0  0  0  0  0  0  0  0  0  0  0  0
    0.8030   -0.5874   -0.2733 C   0  0  0  0  0  0  0  0  0  0  0  0
    0.1037    0.5657    0.0218 C   0  0  0  0  0  0  0  0  0  0  0  0
    0.1233   -1.8610   -0.6452 C   0  0  0  0  0  0  0  0  0  0  0  0
   -1.3415    0.6294   -0.0071 C   0  0  0  0  0  0  0  0  0  0  0  0
    2.1848   -0.5392   -0.2167 C   0  0  0  0  0  0  0  0  0  0  0  0
    2.7757    0.6588    0.1314 C   0  0  0  0  0  0  0  0  0  0  0  0
   -2.0753    0.3393    1.1431 C   0  0  0  0  0  0  0  0  0  0  0  0
   -2.0008    0.9808   -1.1849 C   0  0  0  0  0  0  0  0  0  0  0  0
   -3.4686    0.4007    1.1155 C   0  0  0  0  0  0  0  0  0  0  0  0
   -3.3940    1.0422   -1.2125 C   0  0  0  0  0  0  0  0  0  0  0  0
   -4.1279    0.7521   -0.0623 C   0  0  0  0  0  0  0  0  0  0  0  0
   -0.6462   -1.6558   -1.4015 H   0  0  0  0  0  0  0  0  0  0  0  0
    0.8438   -2.5257   -1.1430 H   0  0  0  0  0  0  0  0  0  0  0  0
    2.7581   -1.4349   -0.4327 H   0  0  0  0  0  0  0  0  0  0  0  0
   -1.5769    0.0663    2.0703 H   0  0  0  0  0  0  0  0  0  0  0  0
   -1.4435    1.2098   -2.0901 H   0  0  0  0  0  0  0  0  0  0  0  0
    0.2890   -2.7773    1.1708 H   0  0  0  0  0  0  0  0  0  0  0  0
   -4.0400    0.1752    2.0111 H   0  0  0  0  0  0  0  0  0  0  0  0
   -3.9076    1.3157   -2.1296 H   0  0  0  0  0  0  0  0  0  0  0  0
   -5.2127    0.7999   -0.0839 H   0  0  0  0  0  0  0  0  0  0  0  0
    4.6120    1.5999    0.4140 H   0  0  0  0  0  0  0  0  0  0  0  0
   -1.3985   -4.2742    0.8645 H   0  0  0  0  0  0  0  0  0  0  0  0
   -1.8811   -3.5307   -0.4979 H   0  0  0  0  0  0  0  0  0  0  0  0
    5.8619   -0.2987    0.1390 H   0  0  0  0  0  0  0  0  0  0  0  0
    5.1747   -0.0528   -1.3160 H   0  0  0  0  0  0  0  0  0  0  0  0
  1  3  1  0  0  0  0
  1  8  2  0  0  0  0
  2  5  1  0  0  0  0
  2  9  1  0  0  0  0
  2 23  1  0  0  0  0
  3 12  2  0  0  0  0
  4  6  1  0  0  0  0
  4 12  1  0  0  0  0
  4 27  1  0  0  0  0
  5 28  1  0  0  0  0
  5 29  1  0  0  0  0
  6 30  1  0  0  0  0
  6 31  1  0  0  0  0
  7  8  1  0  0  0  0
  7  9  1  0  0  0  0
  7 11  2  0  0  0  0
  8 10  1  0  0  0  0
  9 18  1  0  0  0  0
  9 19  1  0  0  0  0
 10 13  2  0  0  0  0
 10 14  1  0  0  0  0
 11 12  1  0  0  0  0
 11 20  1  0  0  0  0
 13 15  1  0  0  0  0
 13 21  1  0  0  0  0
 14 16  2  0  0  0  0
 14 22  1  0  0  0  0
 15 17  2  0  0  0  0
 15 24  1  0  0  0  0
 16 17  1  0  0  0  0
 16 25  1  0  0  0  0
 17 26  1  0  0  0  0
M  END
> <PUBCHEM_COMPOUND_CID>
101711978

> <PUBCHEM_CONFORMER_RMSD>
0.6

> <PUBCHEM_CONFORMER_DIVERSEORDER>
1
12
11
8
6
13
9
10
2
5
7
4
3

> <PUBCHEM_MMFF94_PARTIAL_CHARGES>
28
1 -0.31
11 -0.15
12 0.41
13 -0.15
14 -0.15
15 -0.15
16 -0.15
17 -0.15
2 -0.63
20 0.15
21 0.15
22 0.15
23 0.36
24 0.15
25 0.15
26 0.15
27 0.4
28 0.36
29 0.36
3 -0.31
30 0.36
31 0.36
4 -0.51
5 -0.72
6 -0.71
7 -0.14
8 0.31
9 0.41

> <PUBCHEM_EFFECTIVE_ROTOR_COUNT>
4

> <PUBCHEM_PHARMACOPHORE_FEATURES>
8
1 1 acceptor
1 2 donor
1 4 donor
1 5 donor
1 6 donor
3 3 4 12 cation
6 1 3 7 8 11 12 rings
6 10 13 14 15 16 17 rings

> <PUBCHEM_HEAVY_ATOM_COUNT>
17

> <PUBCHEM_ATOM_DEF_STEREO_COUNT>
0

> <PUBCHEM_ATOM_UDEF_STEREO_COUNT>
0

> <PUBCHEM_BOND_DEF_STEREO_COUNT>
0

> <PUBCHEM_BOND_UDEF_STEREO_COUNT>
0

> <PUBCHEM_ISOTOPIC_ATOM_COUNT>
0

> <PUBCHEM_COMPONENT_COUNT>
1

> <PUBCHEM_CACTVS_TAUTO_COUNT>
16

> <PUBCHEM_CONFORMER_ID>
0610006A00000001

> <PUBCHEM_MMFF94_ENERGY>
54.3593

> <PUBCHEM_FEATURE_SELFOVERLAP>
43.469

> <PUBCHEM_SHAPE_FINGERPRINT>
11578080 2 12149841755011289249
12119455 92 18260824882357303833
12236239 1 17275102812889631545
12730499 353 18262796243220627725
13140716 1 18269831090176395256
13380535 76 18344149193746924302
13464514 151 17828755145467598213
13583140 156 16878764111093292608
14115302 16 18336837459024082964
14911166 2 18342176661692379028
15207287 21 17894636941900984387
15219456 202 18042405738248873637
15295992 7 17346040090266874618
15309172 13 18410014325396335657
16945 1 17846208925958506004
18175812 5 17967535687750841893
18186145 218 18272928319262135804
19049666 15 17755581547496547773
200 152 18059848455352920293
20344682 1 17967250871553137445
204376 136 18409732863151461582
20645477 70 18055342553638520717
21501502 16 18121223348807138028
21524375 3 18342737420589941663
23236772 104 17632578210934131657
23402539 116 17989203712091924360
23419403 2 15010732363935967404
23493267 7 17676765375198576096
23557571 272 17313671443129864205
23558518 356 17829041353698209384
23559900 14 17168704103477392218
25 1 18342172233027065925
2748010 2 17984419904624397948
350125 39 17835805574886540200
4340502 62 18271541840338431371
633830 44 18130516227495275917
69090 78 18408320016437433779
77492 1 17274819121667500685
81228 2 17830725822386084179
8272917 22 18198909098423800093

> <PUBCHEM_SHAPE_MULTIPOLES>
319.97
7.03
2.43
1.01
3.7
3.27
0.04
-2.79
0.18
-0.18
-0.1
-0.88
-0.15
0.51

> <PUBCHEM_SHAPE_SELFOVERLAP>
681.007

> <PUBCHEM_SHAPE_VOLUME>
175.5

> <PUBCHEM_COORDINATE_TYPE>
2
5
10

$$$$
