101706275
  -OEChem-03292013293D

 41 41  0     1  0  0  0  0  0999 V2000
    5.3216   -1.2833    1.2491 O   0  0  0  0  0  0  0  0  0  0  0  0
    3.4991    0.4116   -1.4353 O   0  0  0  0  0  0  0  0  0  0  0  0
    1.3783   -0.7234   -0.0183 O   0  0  0  0  0  0  0  0  0  0  0  0
    6.0979    0.9677   -1.5167 O   0  0  0  0  0  0  0  0  0  0  0  0
    5.8297    2.7211    0.4915 O   0  0  0  0  0  0  0  0  0  0  0  0
   -4.9173    2.4430    0.2383 O   0  0  0  0  0  0  0  0  0  0  0  0
    0.4530   -2.8035    0.3748 O   0  0  0  0  0  0  0  0  0  0  0  0
   -7.1552    0.8807   -0.2899 O   0  0  0  0  0  0  0  0  0  0  0  0
    5.1565   -0.6588   -0.0249 C   0  0  1  0  0  0  0  0  0  0  0  0
    3.7104   -0.1531   -0.1418 C   0  0  2  0  0  0  0  0  0  0  0  0
    6.2233    0.4298   -0.2081 C   0  0  2  0  0  0  0  0  0  0  0  0
    2.6894   -1.2716    0.0734 C   0  0  0  0  0  0  0  0  0  0  0  0
    6.0779    1.5579    0.7936 C   0  0  0  0  0  0  0  0  0  0  0  0
    0.3540   -1.6070    0.1534 C   0  0  0  0  0  0  0  0  0  0  0  0
   -3.4099   -0.8813    0.0386 C   0  0  0  0  0  0  0  0  0  0  0  0
   -0.9176   -0.8598    0.0248 C   0  0  0  0  0  0  0  0  0  0  0  0
   -2.0824   -1.5105    0.1548 C   0  0  0  0  0  0  0  0  0  0  0  0
   -3.5433    0.4984    0.1943 C   0  0  0  0  0  0  0  0  0  0  0  0
   -4.7997    1.0945    0.0846 C   0  0  0  0  0  0  0  0  0  0  0  0
   -4.5330   -1.6650   -0.2267 C   0  0  0  0  0  0  0  0  0  0  0  0
   -5.9227    0.3108   -0.1806 C   0  0  0  0  0  0  0  0  0  0  0  0
   -5.7893   -1.0690   -0.3362 C   0  0  0  0  0  0  0  0  0  0  0  0
   -3.7207    3.1711    0.5073 C   0  0  0  0  0  0  0  0  0  0  0  0
    5.3147   -1.4221   -0.7981 H   0  0  0  0  0  0  0  0  0  0  0  0
    3.5175    0.6356    0.5951 H   0  0  0  0  0  0  0  0  0  0  0  0
    7.2275    0.0086   -0.0891 H   0  0  0  0  0  0  0  0  0  0  0  0
    2.8032   -2.0352   -0.7055 H   0  0  0  0  0  0  0  0  0  0  0  0
    2.8175   -1.7317    1.0594 H   0  0  0  0  0  0  0  0  0  0  0  0
    6.2276   -1.6343    1.2875 H   0  0  0  0  0  0  0  0  0  0  0  0
    2.5740    0.7087   -1.4763 H   0  0  0  0  0  0  0  0  0  0  0  0
    6.2236    1.2736    1.8500 H   0  0  0  0  0  0  0  0  0  0  0  0
    6.8494    1.5684   -1.6590 H   0  0  0  0  0  0  0  0  0  0  0  0
   -0.8427    0.1980   -0.1982 H   0  0  0  0  0  0  0  0  0  0  0  0
   -2.0928   -2.5804    0.3502 H   0  0  0  0  0  0  0  0  0  0  0  0
   -2.6606    1.0793    0.4280 H   0  0  0  0  0  0  0  0  0  0  0  0
   -4.4475   -2.7417   -0.3522 H   0  0  0  0  0  0  0  0  0  0  0  0
   -6.6558   -1.6913   -0.5433 H   0  0  0  0  0  0  0  0  0  0  0  0
   -7.8102    0.1858   -0.4748 H   0  0  0  0  0  0  0  0  0  0  0  0
   -4.0000    4.2267    0.5920 H   0  0  0  0  0  0  0  0  0  0  0  0
   -3.0074    3.0995   -0.3210 H   0  0  0  0  0  0  0  0  0  0  0  0
   -3.2798    2.8839    1.4680 H   0  0  0  0  0  0  0  0  0  0  0  0
  1  9  1  0  0  0  0
  1 29  1  0  0  0  0
  2 10  1  0  0  0  0
  2 30  1  0  0  0  0
  3 12  1  0  0  0  0
  3 14  1  0  0  0  0
  4 11  1  0  0  0  0
  4 32  1  0  0  0  0
  5 13  2  0  0  0  0
  6 19  1  0  0  0  0
  6 23  1  0  0  0  0
  7 14  2  0  0  0  0
  8 21  1  0  0  0  0
  8 38  1  0  0  0  0
  9 10  1  0  0  0  0
  9 11  1  0  0  0  0
  9 24  1  0  0  0  0
 10 12  1  0  0  0  0
 10 25  1  0  0  0  0
 11 13  1  0  0  0  0
 11 26  1  0  0  0  0
 12 27  1  0  0  0  0
 12 28  1  0  0  0  0
 13 31  1  0  0  0  0
 14 16  1  0  0  0  0
 15 17  1  0  0  0  0
 15 18  2  0  0  0  0
 15 20  1  0  0  0  0
 16 17  2  0  0  0  0
 16 33  1  0  0  0  0
 17 34  1  0  0  0  0
 18 19  1  0  0  0  0
 18 35  1  0  0  0  0
 19 21  2  0  0  0  0
 20 22  2  0  0  0  0
 20 36  1  0  0  0  0
 21 22  1  0  0  0  0
 22 37  1  0  0  0  0
 23 39  1  0  0  0  0
 23 40  1  0  0  0  0
 23 41  1  0  0  0  0
M  END
> <PUBCHEM_COMPOUND_CID>
101706275

> <PUBCHEM_CONFORMER_RMSD>
1

> <PUBCHEM_CONFORMER_DIVERSEORDER>
1
63
76
58
8
92
38
59
57
43
24
51
48
39
107
105
95
61
109
79
91
112
83
67
82
35
113
25
70
5
26
84
81
27
71
55
47
94
75
34
42
86
52
85
22
32
110
54
4
69
111
50
12
87
64
49
56
65
45
19
97
96
44
20
88
21
100
53
23
17
90
46
7
78
2
101
41
29
15
106
89
98
36
74
102
13
60
103
30
16
80
66
40
77
11
108
93
62
72
9
99
18
33
31
6
104
10
3
14
37
73
68
28

> <PUBCHEM_MMFF94_PARTIAL_CHARGES>
33
1 -0.68
10 0.28
11 0.34
12 0.28
13 0.45
14 0.71
15 0.03
16 -0.14
17 -0.18
18 -0.15
19 0.08
2 -0.68
20 -0.15
21 0.08
22 -0.15
23 0.28
29 0.4
3 -0.43
30 0.4
31 0.06
32 0.4
33 0.15
34 0.15
35 0.15
36 0.15
37 0.15
38 0.45
4 -0.68
5 -0.57
6 -0.36
7 -0.57
8 -0.53
9 0.28

> <PUBCHEM_EFFECTIVE_ROTOR_COUNT>
9

> <PUBCHEM_PHARMACOPHORE_FEATURES>
11
1 1 acceptor
1 1 donor
1 2 acceptor
1 2 donor
1 4 acceptor
1 4 donor
1 5 acceptor
1 6 acceptor
1 7 acceptor
1 8 donor
6 15 18 19 20 21 22 rings

> <PUBCHEM_HEAVY_ATOM_COUNT>
23

> <PUBCHEM_ATOM_DEF_STEREO_COUNT>
3

> <PUBCHEM_ATOM_UDEF_STEREO_COUNT>
0

> <PUBCHEM_BOND_DEF_STEREO_COUNT>
1

> <PUBCHEM_BOND_UDEF_STEREO_COUNT>
0

> <PUBCHEM_ISOTOPIC_ATOM_COUNT>
0

> <PUBCHEM_COMPONENT_COUNT>
1

> <PUBCHEM_CACTVS_TAUTO_COUNT>
4

> <PUBCHEM_CONFORMER_ID>
060FEA2300000001

> <PUBCHEM_MMFF94_ENERGY>
61.5024

> <PUBCHEM_FEATURE_SELFOVERLAP>
55.85

> <PUBCHEM_SHAPE_FINGERPRINT>
10 15 18187652397073206779
10087517 78 18409165498346537869
10411042 1 17979073018909417135
10595046 47 18410290294415364083
10730089 173 18342177752476642599
12107183 9 17543343861490050059
12236239 1 18259982677931032435
13167372 99 18408602535581768738
13533116 47 17749381530482422594
13668630 136 10879995765522941253
13785724 45 17759234103850488186
14251764 18 18040716991256964791
14251764 30 7997975669700906574
14251764 75 17694512451414011889
14556957 393 15984838063424075624
14739800 52 18337660958388044586
14933364 13 18341896298542407634
15183329 4 18342740710724781624
15348495 7 12396592861287919991
15419008 145 18261659386921077448
20058555 10 18409728452157368797
20281389 69 18334855000239572744
20511986 3 18187633696506044311
21150785 3 17275100652652736495
21315763 28 18412542111382310866
21315764 268 18335414647812010652
21623969 137 13262390055981509384
23035841 295 9583522018625423095
23559900 14 18270389607792515665
2767999 5 18333730225814667310
2838139 119 18342452634472871182
2916195 48 18341611551053799130
312425 54 11818987487441733300
34797466 226 17703517652690314502
397830 11 13768793294374741532
4073 2 17968101957893805770
441001 317 18411420592489595403
44249763 50 17488445546646988714
445580 37 18340779177606708172
465052 167 7925915889709345434
5104073 3 18113900433461830795
543368 44 18412544302289963215
59682541 52 16917078720214843894
636775 72 18341610477702982800
7062679 6 18409172094967521742
9981440 41 18261119556312471459

> <PUBCHEM_SHAPE_MULTIPOLES>
426.37
20.54
2.74
0.86
9.53
1.63
-0.14
9.66
-1.08
-1.19
0.58
1.15
0.1
-0.56

> <PUBCHEM_SHAPE_SELFOVERLAP>
875.122

> <PUBCHEM_SHAPE_VOLUME>
244.1

> <PUBCHEM_COORDINATE_TYPE>
2
5
10

$$$$
