101749247
  -OEChem-03292013293D

 35 37  0     1  0  0  0  0  0999 V2000
   -0.9915    1.0386    2.2289 S   0  0  0  0  0  0  0  0  0  0  0  0
   -2.3001   -0.5054    1.8643 S   0  0  0  0  0  0  0  0  0  0  0  0
   -0.2433   -2.2892   -0.3777 O   0  0  0  0  0  0  0  0  0  0  0  0
   -1.5913    2.7489   -0.8039 O   0  0  0  0  0  0  0  0  0  0  0  0
    1.2138    2.6463   -0.7125 O   0  0  0  0  0  0  0  0  0  0  0  0
   -2.6484   -3.0353    0.3756 O   0  0  0  0  0  0  0  0  0  0  0  0
    0.2998   -0.0438    0.0554 N   0  0  0  0  0  0  0  0  0  0  0  0
   -2.2452    0.5196   -0.6758 N   0  0  0  0  0  0  0  0  0  0  0  0
   -0.2449    1.2391    0.5618 C   0  0  1  0  0  0  0  0  0  0  0  0
   -2.0540   -0.7436    0.0543 C   0  0  1  0  0  0  0  0  0  0  0  0
   -0.5869   -1.1258   -0.1649 C   0  0  0  0  0  0  0  0  0  0  0  0
   -1.3965    1.6019   -0.4018 C   0  0  0  0  0  0  0  0  0  0  0  0
    0.7223    2.4372    0.5960 C   0  0  0  0  0  0  0  0  0  0  0  0
   -2.9720   -1.8910   -0.3878 C   0  0  0  0  0  0  0  0  0  0  0  0
    1.7041   -0.3004   -0.0292 C   0  0  0  0  0  0  0  0  0  0  0  0
   -3.4039    0.7087   -1.5413 C   0  0  0  0  0  0  0  0  0  0  0  0
    2.2548   -0.7807   -1.2173 C   0  0  0  0  0  0  0  0  0  0  0  0
    2.5229   -0.0708    1.0763 C   0  0  0  0  0  0  0  0  0  0  0  0
    3.6246   -1.0314   -1.3000 C   0  0  0  0  0  0  0  0  0  0  0  0
    3.8926   -0.3213    0.9938 C   0  0  0  0  0  0  0  0  0  0  0  0
    4.4434   -0.8016   -0.1943 C   0  0  0  0  0  0  0  0  0  0  0  0
    1.5719    2.3042    1.2682 H   0  0  0  0  0  0  0  0  0  0  0  0
    0.2219    3.3607    0.9144 H   0  0  0  0  0  0  0  0  0  0  0  0
   -4.0308   -1.6605   -0.2274 H   0  0  0  0  0  0  0  0  0  0  0  0
   -2.8412   -2.1370   -1.4478 H   0  0  0  0  0  0  0  0  0  0  0  0
   -3.3855   -0.0378   -2.3392 H   0  0  0  0  0  0  0  0  0  0  0  0
   -3.3990    1.7011   -1.9998 H   0  0  0  0  0  0  0  0  0  0  0  0
   -4.3141    0.6063   -0.9441 H   0  0  0  0  0  0  0  0  0  0  0  0
    1.6316   -0.9560   -2.0905 H   0  0  0  0  0  0  0  0  0  0  0  0
    2.1147    0.2652    2.0250 H   0  0  0  0  0  0  0  0  0  0  0  0
    0.5001    3.0283   -1.2501 H   0  0  0  0  0  0  0  0  0  0  0  0
   -1.8183   -3.4053    0.0318 H   0  0  0  0  0  0  0  0  0  0  0  0
    4.0537   -1.4037   -2.2255 H   0  0  0  0  0  0  0  0  0  0  0  0
    4.5289   -0.1510    1.8573 H   0  0  0  0  0  0  0  0  0  0  0  0
    5.5096   -0.9983   -0.2580 H   0  0  0  0  0  0  0  0  0  0  0  0
  1  2  1  0  0  0  0
  1  9  1  0  0  0  0
  2 10  1  0  0  0  0
  3 11  2  0  0  0  0
  4 12  2  0  0  0  0
  5 13  1  0  0  0  0
  5 31  1  0  0  0  0
  6 14  1  0  0  0  0
  6 32  1  0  0  0  0
  7  9  1  0  0  0  0
  7 11  1  0  0  0  0
  7 15  1  0  0  0  0
  8 10  1  0  0  0  0
  8 12  1  0  0  0  0
  8 16  1  0  0  0  0
  9 12  1  0  0  0  0
  9 13  1  0  0  0  0
 10 11  1  0  0  0  0
 10 14  1  0  0  0  0
 13 22  1  0  0  0  0
 13 23  1  0  0  0  0
 14 24  1  0  0  0  0
 14 25  1  0  0  0  0
 15 17  2  0  0  0  0
 15 18  1  0  0  0  0
 16 26  1  0  0  0  0
 16 27  1  0  0  0  0
 16 28  1  0  0  0  0
 17 19  1  0  0  0  0
 17 29  1  0  0  0  0
 18 20  2  0  0  0  0
 18 30  1  0  0  0  0
 19 21  2  0  0  0  0
 19 33  1  0  0  0  0
 20 21  1  0  0  0  0
 20 34  1  0  0  0  0
 21 35  1  0  0  0  0
M  END
> <PUBCHEM_COMPOUND_CID>
101749247

> <PUBCHEM_CONFORMER_RMSD>
0.6

> <PUBCHEM_CONFORMER_DIVERSEORDER>
1
4
2
5
3

> <PUBCHEM_MMFF94_PARTIAL_CHARGES>
28
1 -0.23
10 0.59
11 0.57
12 0.57
13 0.28
14 0.28
15 0.12
16 0.3
17 -0.15
18 -0.15
19 -0.15
2 -0.23
20 -0.15
21 -0.15
29 0.15
3 -0.57
30 0.15
31 0.4
32 0.4
33 0.15
34 0.15
35 0.15
4 -0.57
5 -0.68
6 -0.68
7 -0.48
8 -0.66
9 0.59

> <PUBCHEM_EFFECTIVE_ROTOR_COUNT>
3.8

> <PUBCHEM_PHARMACOPHORE_FEATURES>
8
1 3 acceptor
1 4 acceptor
1 5 acceptor
1 5 donor
1 6 acceptor
1 6 donor
6 15 17 18 19 20 21 rings
8 1 2 7 8 9 10 11 12 rings

> <PUBCHEM_HEAVY_ATOM_COUNT>
21

> <PUBCHEM_ATOM_DEF_STEREO_COUNT>
2

> <PUBCHEM_ATOM_UDEF_STEREO_COUNT>
0

> <PUBCHEM_BOND_DEF_STEREO_COUNT>
0

> <PUBCHEM_BOND_UDEF_STEREO_COUNT>
0

> <PUBCHEM_ISOTOPIC_ATOM_COUNT>
0

> <PUBCHEM_COMPONENT_COUNT>
1

> <PUBCHEM_CACTVS_TAUTO_COUNT>
1

> <PUBCHEM_CONFORMER_ID>
061091FF00000001

> <PUBCHEM_MMFF94_ENERGY>
96.9797

> <PUBCHEM_FEATURE_SELFOVERLAP>
40.611

> <PUBCHEM_SHAPE_FINGERPRINT>
10863032 1 18192423289399968077
10989021 7 18267871764006723862
11315181 36 18040432145611706442
11578080 2 17098018816084156756
12035758 1 18409730660445175465
12236239 1 17458342992868965990
12423570 1 17615956043285198313
12491281 212 15068631456627272804
12553582 1 18335149721064742714
12714826 92 18187093861860920739
13024252 1 16153724097744059913
13140716 1 18338797926684025929
13172582 1 18341345417531289432
13224815 77 17775287158082040374
13583140 156 17168434783179183208
14142880 1 17916310428718021481
14181834 199 18194400224043898684
14614273 12 18267868280856721287
14790565 3 18266184915955622349
14817 1 17182711954492812697
16752209 62 18262231132091521786
16945 1 18336539426642263389
17357779 13 18201143416955557013
19868273 325 18410297982221609956
20600515 1 18339346497097872888
20905425 154 17979077415968335196
21339142 51 18408881828192879711
21731516 1 18262531388954715962
22182313 1 18120355795615215373
2306618 200 18342740663332272970
2334 1 18121775295033092133
23402539 116 18199453407939471750
23419403 2 17629736093403287273
23493267 7 17823993225079071930
23557571 272 18272370828786822956
23559900 14 18341044117740148190
2748010 2 18193542579383582845
298252 57 17825093823508056105
7364860 26 17983578799535154832
81228 2 18342469096924313226
9709674 26 18057323886456121470

> <PUBCHEM_SHAPE_MULTIPOLES>
406.43
6.13
2.68
1.61
5.25
0.36
0.53
-2.62
-0.86
-1.58
-0.33
-0.62
0.37
0.66

> <PUBCHEM_SHAPE_SELFOVERLAP>
854.163

> <PUBCHEM_SHAPE_VOLUME>
230

> <PUBCHEM_COORDINATE_TYPE>
2
5
10

$$$$
