101789796
  -OEChem-03292013293D

 52 59  0     1  0  0  0  0  0999 V2000
   -0.2690   -1.2678   -0.9619 O   0  0  0  0  0  0  0  0  0  0  0  0
   -3.8661    2.2685   -1.4496 O   0  0  0  0  0  0  0  0  0  0  0  0
   -0.2111    0.2092    4.0266 O   0  0  0  0  0  0  0  0  0  0  0  0
    2.9336   -2.3385    1.2160 O   0  0  0  0  0  0  0  0  0  0  0  0
   -0.7174    1.4555   -0.0212 N   0  0  2  0  0  0  0  0  0  0  0  0
   -2.7141    0.4872   -0.4401 N   0  0  0  0  0  0  0  0  0  0  0  0
    0.2112    1.6061    2.2543 N   0  0  0  0  0  0  0  0  0  0  0  0
    1.7335   -0.3365    1.0651 N   0  0  0  0  0  0  0  0  0  0  0  0
    2.3958    1.3278   -0.5003 N   0  0  0  0  0  0  0  0  0  0  0  0
   -1.7057    2.5202   -0.3907 C   0  0  0  0  0  0  0  0  0  0  0  0
   -1.5449    0.3368    0.3875 C   0  0  1  0  0  0  0  0  0  0  0  0
   -1.8405    3.8434    0.3096 C   0  0  0  0  0  0  0  0  0  0  0  0
   -1.2824    3.7839   -1.0875 C   0  0  0  0  0  0  0  0  0  0  0  0
   -1.0874   -1.1133    0.1950 C   0  0  2  0  0  0  0  0  0  0  0  0
   -2.9380    1.7731   -0.8338 C   0  0  0  0  0  0  0  0  0  0  0  0
    0.4237    1.7604    0.8318 C   0  0  1  0  0  0  0  0  0  0  0  0
   -0.4011   -1.6598    1.4513 C   0  0  0  0  0  0  0  0  0  0  0  0
   -2.4153   -1.7373   -0.2095 C   0  0  0  0  0  0  0  0  0  0  0  0
   -3.3100   -0.7412   -0.6527 C   0  0  0  0  0  0  0  0  0  0  0  0
    0.7313   -0.7838    2.0406 C   0  0  2  0  0  0  0  0  0  0  0  0
    1.5959    0.8908    0.4219 C   0  0  0  0  0  0  0  0  0  0  0  0
    0.2326    0.3808    2.8916 C   0  0  0  0  0  0  0  0  0  0  0  0
   -2.7634   -3.0726   -0.2956 C   0  0  0  0  0  0  0  0  0  0  0  0
   -4.5344   -1.0366   -1.2135 C   0  0  0  0  0  0  0  0  0  0  0  0
    2.7709   -1.2209    0.7341 C   0  0  0  0  0  0  0  0  0  0  0  0
   -4.0150   -3.3914   -0.8327 C   0  0  0  0  0  0  0  0  0  0  0  0
   -4.8874   -2.3852   -1.2920 C   0  0  0  0  0  0  0  0  0  0  0  0
    3.7092   -0.7308   -0.2973 C   0  0  0  0  0  0  0  0  0  0  0  0
    3.4795    0.5219   -0.8732 C   0  0  0  0  0  0  0  0  0  0  0  0
    4.8008   -1.5117   -0.6930 C   0  0  0  0  0  0  0  0  0  0  0  0
    4.3615    0.9859   -1.8554 C   0  0  0  0  0  0  0  0  0  0  0  0
    5.6713   -1.0358   -1.6723 C   0  0  0  0  0  0  0  0  0  0  0  0
    5.4524    0.2115   -2.2533 C   0  0  0  0  0  0  0  0  0  0  0  0
   -1.9388    0.4851    1.4056 H   0  0  0  0  0  0  0  0  0  0  0  0
   -1.1605    4.0977    1.1121 H   0  0  0  0  0  0  0  0  0  0  0  0
   -1.8997    4.1677   -1.8910 H   0  0  0  0  0  0  0  0  0  0  0  0
   -0.2249    3.9806   -1.2155 H   0  0  0  0  0  0  0  0  0  0  0  0
   -2.8326    4.2623    0.4340 H   0  0  0  0  0  0  0  0  0  0  0  0
    0.7485    2.7963    0.6813 H   0  0  0  0  0  0  0  0  0  0  0  0
   -1.1510   -1.8324    2.2346 H   0  0  0  0  0  0  0  0  0  0  0  0
    0.0262   -2.6417    1.2070 H   0  0  0  0  0  0  0  0  0  0  0  0
    1.2645   -1.4233    2.7591 H   0  0  0  0  0  0  0  0  0  0  0  0
   -0.1475    2.4025    2.7720 H   0  0  0  0  0  0  0  0  0  0  0  0
    0.6055   -0.8949   -0.7801 H   0  0  0  0  0  0  0  0  0  0  0  0
   -2.0834   -3.8561    0.0195 H   0  0  0  0  0  0  0  0  0  0  0  0
   -5.2090   -0.2652   -1.5655 H   0  0  0  0  0  0  0  0  0  0  0  0
   -4.3142   -4.4334   -0.9137 H   0  0  0  0  0  0  0  0  0  0  0  0
   -5.8485   -2.6656   -1.7154 H   0  0  0  0  0  0  0  0  0  0  0  0
    4.9880   -2.4870   -0.2527 H   0  0  0  0  0  0  0  0  0  0  0  0
    4.2035    1.9572   -2.3182 H   0  0  0  0  0  0  0  0  0  0  0  0
    6.5203   -1.6378   -1.9830 H   0  0  0  0  0  0  0  0  0  0  0  0
    6.1307    0.5817   -3.0165 H   0  0  0  0  0  0  0  0  0  0  0  0
  1 14  1  0  0  0  0
  1 44  1  0  0  0  0
  2 15  2  0  0  0  0
  3 22  2  0  0  0  0
  4 25  2  0  0  0  0
  5 10  1  0  0  0  0
  5 11  1  0  0  0  0
  5 16  1  0  0  0  0
  6 11  1  0  0  0  0
  6 15  1  0  0  0  0
  6 19  1  0  0  0  0
  7 16  1  0  0  0  0
  7 22  1  0  0  0  0
  7 43  1  0  0  0  0
  8 20  1  0  0  0  0
  8 21  1  0  0  0  0
  8 25  1  0  0  0  0
  9 21  2  0  0  0  0
  9 29  1  0  0  0  0
 10 12  1  0  0  0  0
 10 13  1  0  0  0  0
 10 15  1  0  0  0  0
 11 14  1  0  0  0  0
 11 34  1  0  0  0  0
 12 13  1  0  0  0  0
 12 35  1  0  0  0  0
 12 38  1  0  0  0  0
 13 36  1  0  0  0  0
 13 37  1  0  0  0  0
 14 17  1  0  0  0  0
 14 18  1  0  0  0  0
 16 21  1  0  0  0  0
 16 39  1  0  0  0  0
 17 20  1  0  0  0  0
 17 40  1  0  0  0  0
 17 41  1  0  0  0  0
 18 19  1  0  0  0  0
 18 23  2  0  0  0  0
 19 24  2  0  0  0  0
 20 22  1  0  0  0  0
 20 42  1  0  0  0  0
 23 26  1  0  0  0  0
 23 45  1  0  0  0  0
 24 27  1  0  0  0  0
 24 46  1  0  0  0  0
 25 28  1  0  0  0  0
 26 27  2  0  0  0  0
 26 47  1  0  0  0  0
 27 48  1  0  0  0  0
 28 29  1  0  0  0  0
 28 30  2  0  0  0  0
 29 31  2  0  0  0  0
 30 32  1  0  0  0  0
 30 49  1  0  0  0  0
 31 33  1  0  0  0  0
 31 50  1  0  0  0  0
 32 33  2  0  0  0  0
 32 51  1  0  0  0  0
 33 52  1  0  0  0  0
M  END
> <PUBCHEM_COMPOUND_CID>
101789796

> <PUBCHEM_CONFORMER_RMSD>
0.6

> <PUBCHEM_CONFORMER_DIVERSEORDER>
1

> <PUBCHEM_MMFF94_PARTIAL_CHARGES>
46
1 -0.68
10 0.16
11 0.57
12 -0.2
13 -0.2
14 0.42
15 0.63
16 0.63
18 -0.14
19 0.12
2 -0.57
20 0.36
21 0.45
22 0.57
23 -0.15
24 -0.15
25 0.54
26 -0.15
27 -0.15
28 0.09
29 0.18
3 -0.57
30 -0.15
31 -0.15
32 -0.15
33 -0.15
35 0.1
36 0.1
37 0.1
38 0.1
4 -0.57
43 0.37
44 0.4
45 0.15
46 0.15
47 0.15
48 0.15
49 0.15
5 -0.7
50 0.15
51 0.15
52 0.15
6 -0.48
7 -0.73
8 -0.42
9 -0.63

> <PUBCHEM_EFFECTIVE_ROTOR_COUNT>
0.8

> <PUBCHEM_PHARMACOPHORE_FEATURES>
13
1 1 acceptor
1 1 donor
1 2 acceptor
1 3 acceptor
1 4 acceptor
1 5 cation
1 7 donor
5 5 6 10 11 15 rings
5 6 11 14 18 19 rings
6 18 19 23 24 26 27 rings
6 28 29 30 31 32 33 rings
6 7 8 16 20 21 22 rings
6 8 9 21 25 28 29 rings

> <PUBCHEM_HEAVY_ATOM_COUNT>
33

> <PUBCHEM_ATOM_DEF_STEREO_COUNT>
4

> <PUBCHEM_ATOM_UDEF_STEREO_COUNT>
0

> <PUBCHEM_BOND_DEF_STEREO_COUNT>
0

> <PUBCHEM_BOND_UDEF_STEREO_COUNT>
0

> <PUBCHEM_ISOTOPIC_ATOM_COUNT>
0

> <PUBCHEM_COMPONENT_COUNT>
1

> <PUBCHEM_CACTVS_TAUTO_COUNT>
2

> <PUBCHEM_CONFORMER_ID>
0611306400000001

> <PUBCHEM_MMFF94_ENERGY>
140.7307

> <PUBCHEM_FEATURE_SELFOVERLAP>
66.409

> <PUBCHEM_SHAPE_FINGERPRINT>
10165383 225 17985275067115597945
10169797 241 16884974350831756067
10940486 97 17685465690392470539
11445158 3 16759215062002887474
11578080 2 18060131064016570096
12553582 1 18335979887009186139
12714826 92 18060418010411986070
12788726 201 18335699421049148635
12969540 114 15285358431346033790
13009979 54 17753014290434198811
131258 43 17771071785046415957
13135754 10 15983447112716806034
13782708 43 17202758345523420823
14251757 5 18411139112917354247
14790565 3 18052253995501997437
14955137 171 18191884503449272051
15475509 8 18341610460823170351
15664445 248 18048583017701398873
16994733 274 14779810673656573823
17909252 39 18340771554371904510
20642791 178 17330263975530750721
20775438 99 17260729163452086791
21033650 10 18335990783483361730
22182313 1 17986369265251084945
22393880 68 18410295796584390678
22907989 373 18043511847041681005
23419403 2 17346014762670708648
23559900 14 18054216907293536511
244849 19 17130967880864758953
25265897 201 17905078887491303974
255183 451 17909269423207108431
27425 322 17315650486539576261
3027735 51 18201170849091628750
3117164 225 10015592688040289564
340366 18 17614557039050649334
4340502 62 8357998683595725335
484985 159 17344653455854551606
497634 4 17630915801093294316
563151 40 17628928820405106273
621550 5 17917430990259765067
633830 44 16806167627302513704
6823239 73 18195792180337640227
70251023 43 18268720565804027026
9981440 41 17895479249702708272

> <PUBCHEM_SHAPE_MULTIPOLES>
630.74
9.59
3.83
2.39
7.72
1.94
2.24
-5.83
-8.5
-4.65
-0.96
1.16
0.21
-0.58

> <PUBCHEM_SHAPE_SELFOVERLAP>
1458.416

> <PUBCHEM_SHAPE_VOLUME>
321.5

> <PUBCHEM_COORDINATE_TYPE>
2
5
10

$$$$
