101789798
  -OEChem-03292013293D

 60 66  0     1  0  0  0  0  0999 V2000
    0.0204    1.3072   -1.1358 O   0  0  0  0  0  0  0  0  0  0  0  0
    4.0173   -1.7695   -0.7369 O   0  0  0  0  0  0  0  0  0  0  0  0
   -0.0769    1.0080    4.0558 O   0  0  0  0  0  0  0  0  0  0  0  0
   -3.3809    2.4271    0.6877 O   0  0  0  0  0  0  0  0  0  0  0  0
    0.7491   -1.0455    0.4009 N   0  0  1  0  0  0  0  0  0  0  0  0
    2.6278    0.0371   -0.1793 N   0  0  0  0  0  0  0  0  0  0  0  0
   -1.9425    0.6133    1.0213 N   0  0  0  0  0  0  0  0  0  0  0  0
   -0.2447   -0.7958    2.6450 N   0  0  0  0  0  0  0  0  0  0  0  0
   -2.3354   -1.4374   -0.1197 N   0  0  0  0  0  0  0  0  0  0  0  0
    1.4220    0.2254    0.5686 C   0  0  1  0  0  0  0  0  0  0  0  0
    0.8024    1.5238    0.0368 C   0  0  2  0  0  0  0  0  0  0  0  0
    1.8460   -2.0451    0.4114 C   0  0  2  0  0  0  0  0  0  0  0  0
    0.0006    2.2513    1.1208 C   0  0  0  0  0  0  0  0  0  0  0  0
   -0.3778   -1.2945    1.2933 C   0  0  1  0  0  0  0  0  0  0  0  0
    2.0622    2.1978   -0.4867 C   0  0  0  0  0  0  0  0  0  0  0  0
   -1.0434    1.3959    1.8799 C   0  0  2  0  0  0  0  0  0  0  0  0
    3.0116   -1.2805   -0.2521 C   0  0  0  0  0  0  0  0  0  0  0  0
    3.0841    1.2437   -0.6729 C   0  0  0  0  0  0  0  0  0  0  0  0
    1.4987   -3.2933   -0.3839 C   0  0  2  0  0  0  0  0  0  0  0  0
   -1.6315   -0.7014    0.6828 C   0  0  0  0  0  0  0  0  0  0  0  0
   -0.4452    0.5284    2.9839 C   0  0  0  0  0  0  0  0  0  0  0  0
    2.6820   -4.2758   -0.4966 C   0  0  0  0  0  0  0  0  0  0  0  0
    2.2541    3.5086   -0.8817 C   0  0  0  0  0  0  0  0  0  0  0  0
    4.2863    1.5480   -1.2748 C   0  0  0  0  0  0  0  0  0  0  0  0
    1.0198   -2.9060   -1.7885 C   0  0  0  0  0  0  0  0  0  0  0  0
   -3.0652    1.2586    0.4821 C   0  0  0  0  0  0  0  0  0  0  0  0
    3.4798    3.8447   -1.4662 C   0  0  0  0  0  0  0  0  0  0  0  0
    4.4812    2.8741   -1.6660 C   0  0  0  0  0  0  0  0  0  0  0  0
    3.1815   -4.7789    0.8502 C   0  0  0  0  0  0  0  0  0  0  0  0
   -3.8960    0.4287   -0.4156 C   0  0  0  0  0  0  0  0  0  0  0  0
   -3.4938   -0.8835   -0.6804 C   0  0  0  0  0  0  0  0  0  0  0  0
   -5.0580    0.9521   -0.9930 C   0  0  0  0  0  0  0  0  0  0  0  0
   -4.2745   -1.6698   -1.5352 C   0  0  0  0  0  0  0  0  0  0  0  0
   -5.8261    0.1564   -1.8420 C   0  0  0  0  0  0  0  0  0  0  0  0
   -5.4351   -1.1531   -2.1132 C   0  0  0  0  0  0  0  0  0  0  0  0
    1.7807    0.3636    1.6009 H   0  0  0  0  0  0  0  0  0  0  0  0
    2.1432   -2.2745    1.4420 H   0  0  0  0  0  0  0  0  0  0  0  0
   -0.5304    3.0887    0.6485 H   0  0  0  0  0  0  0  0  0  0  0  0
    0.6891    2.6922    1.8538 H   0  0  0  0  0  0  0  0  0  0  0  0
   -0.5560   -2.3723    1.3858 H   0  0  0  0  0  0  0  0  0  0  0  0
   -1.6800    2.1093    2.4233 H   0  0  0  0  0  0  0  0  0  0  0  0
    0.6739   -3.8204    0.1126 H   0  0  0  0  0  0  0  0  0  0  0  0
    0.1871   -1.4013    3.3362 H   0  0  0  0  0  0  0  0  0  0  0  0
   -0.7666    0.7963   -0.8985 H   0  0  0  0  0  0  0  0  0  0  0  0
    3.5115   -3.9066   -1.1024 H   0  0  0  0  0  0  0  0  0  0  0  0
    2.3197   -5.1566   -1.0457 H   0  0  0  0  0  0  0  0  0  0  0  0
    1.4750    4.2539   -0.7679 H   0  0  0  0  0  0  0  0  0  0  0  0
    5.0599    0.8050   -1.4271 H   0  0  0  0  0  0  0  0  0  0  0  0
    1.7865   -2.3745   -2.3614 H   0  0  0  0  0  0  0  0  0  0  0  0
    0.1180   -2.2865   -1.7638 H   0  0  0  0  0  0  0  0  0  0  0  0
    0.7613   -3.8067   -2.3574 H   0  0  0  0  0  0  0  0  0  0  0  0
    3.6578    4.8677   -1.7881 H   0  0  0  0  0  0  0  0  0  0  0  0
    5.4185    3.1642   -2.1339 H   0  0  0  0  0  0  0  0  0  0  0  0
    3.8990   -5.5929    0.7033 H   0  0  0  0  0  0  0  0  0  0  0  0
    3.6911   -3.9889    1.4093 H   0  0  0  0  0  0  0  0  0  0  0  0
    2.3573   -5.1625    1.4599 H   0  0  0  0  0  0  0  0  0  0  0  0
   -5.3791    1.9707   -0.7946 H   0  0  0  0  0  0  0  0  0  0  0  0
   -3.9818   -2.6934   -1.7567 H   0  0  0  0  0  0  0  0  0  0  0  0
   -6.7292    0.5577   -2.2925 H   0  0  0  0  0  0  0  0  0  0  0  0
   -6.0335   -1.7725   -2.7750 H   0  0  0  0  0  0  0  0  0  0  0  0
  1 11  1  0  0  0  0
  1 44  1  0  0  0  0
  2 17  2  0  0  0  0
  3 21  2  0  0  0  0
  4 26  2  0  0  0  0
  5 10  1  0  0  0  0
  5 12  1  0  0  0  0
  5 14  1  0  0  0  0
  6 10  1  0  0  0  0
  6 17  1  0  0  0  0
  6 18  1  0  0  0  0
  7 16  1  0  0  0  0
  7 20  1  0  0  0  0
  7 26  1  0  0  0  0
  8 14  1  0  0  0  0
  8 21  1  0  0  0  0
  8 43  1  0  0  0  0
  9 20  2  0  0  0  0
  9 31  1  0  0  0  0
 10 11  1  0  0  0  0
 10 36  1  0  0  0  0
 11 13  1  0  0  0  0
 11 15  1  0  0  0  0
 12 17  1  0  0  0  0
 12 19  1  0  0  0  0
 12 37  1  0  0  0  0
 13 16  1  0  0  0  0
 13 38  1  0  0  0  0
 13 39  1  0  0  0  0
 14 20  1  0  0  0  0
 14 40  1  0  0  0  0
 15 18  1  0  0  0  0
 15 23  2  0  0  0  0
 16 21  1  0  0  0  0
 16 41  1  0  0  0  0
 18 24  2  0  0  0  0
 19 22  1  0  0  0  0
 19 25  1  0  0  0  0
 19 42  1  0  0  0  0
 22 29  1  0  0  0  0
 22 45  1  0  0  0  0
 22 46  1  0  0  0  0
 23 27  1  0  0  0  0
 23 47  1  0  0  0  0
 24 28  1  0  0  0  0
 24 48  1  0  0  0  0
 25 49  1  0  0  0  0
 25 50  1  0  0  0  0
 25 51  1  0  0  0  0
 26 30  1  0  0  0  0
 27 28  2  0  0  0  0
 27 52  1  0  0  0  0
 28 53  1  0  0  0  0
 29 54  1  0  0  0  0
 29 55  1  0  0  0  0
 29 56  1  0  0  0  0
 30 31  1  0  0  0  0
 30 32  2  0  0  0  0
 31 33  2  0  0  0  0
 32 34  1  0  0  0  0
 32 57  1  0  0  0  0
 33 35  1  0  0  0  0
 33 58  1  0  0  0  0
 34 35  2  0  0  0  0
 34 59  1  0  0  0  0
 35 60  1  0  0  0  0
M  END
> <PUBCHEM_COMPOUND_CID>
101789798

> <PUBCHEM_CONFORMER_RMSD>
0.8

> <PUBCHEM_CONFORMER_DIVERSEORDER>
1
2

> <PUBCHEM_MMFF94_PARTIAL_CHARGES>
40
1 -0.68
10 0.57
11 0.42
12 0.33
14 0.63
15 -0.14
16 0.36
17 0.57
18 0.12
2 -0.57
20 0.45
21 0.57
23 -0.15
24 -0.15
26 0.54
27 -0.15
28 -0.15
3 -0.57
30 0.09
31 0.18
32 -0.15
33 -0.15
34 -0.15
35 -0.15
4 -0.57
43 0.37
44 0.4
47 0.15
48 0.15
5 -0.81
52 0.15
53 0.15
57 0.15
58 0.15
59 0.15
6 -0.48
60 0.15
7 -0.42
8 -0.73
9 -0.63

> <PUBCHEM_EFFECTIVE_ROTOR_COUNT>
2.6

> <PUBCHEM_PHARMACOPHORE_FEATURES>
15
1 1 acceptor
1 1 donor
1 2 acceptor
1 25 hydrophobe
1 29 hydrophobe
1 3 acceptor
1 4 acceptor
1 5 cation
1 8 donor
5 5 6 10 12 17 rings
5 6 10 11 15 18 rings
6 15 18 23 24 27 28 rings
6 30 31 32 33 34 35 rings
6 7 8 14 16 20 21 rings
6 7 9 20 26 30 31 rings

> <PUBCHEM_HEAVY_ATOM_COUNT>
35

> <PUBCHEM_ATOM_DEF_STEREO_COUNT>
6

> <PUBCHEM_ATOM_UDEF_STEREO_COUNT>
0

> <PUBCHEM_BOND_DEF_STEREO_COUNT>
0

> <PUBCHEM_BOND_UDEF_STEREO_COUNT>
0

> <PUBCHEM_ISOTOPIC_ATOM_COUNT>
0

> <PUBCHEM_COMPONENT_COUNT>
1

> <PUBCHEM_CACTVS_TAUTO_COUNT>
2

> <PUBCHEM_CONFORMER_ID>
0611306600000001

> <PUBCHEM_MMFF94_ENERGY>
139.3822

> <PUBCHEM_FEATURE_SELFOVERLAP>
76.554

> <PUBCHEM_SHAPE_FINGERPRINT>
10928967 22 17559378353533716479
11007060 377 18055375749826665676
11477941 20 17188457818146313142
11578080 2 16445351986363830390
11582403 64 17315338465734084608
11720765 8 18193535805930260332
11763715 3 17346046545755935162
12156800 1 17262689567114054040
12160290 23 17481164709792378114
12788726 201 17202226057088038689
13009979 54 17772754870649397731
13383661 66 17270626876783015167
133893 2 18195274155605017522
13911987 19 18048335610463536564
14068700 675 18057312886844656178
14713325 29 17682127912645373931
15219462 58 15049760405627283354
15439362 3 18334010592531742252
17138139 8 17701813512725488655
19319366 153 18198611318965692695
20505436 4 17268964217717451608
21033648 144 17823421667763893436
22393880 68 18128815433557679101
23559900 14 18199445750339836919
238 59 18336836397708023236
24771293 8 18341892940959449306
3380486 145 17904497203455025848
3493558 16 13919361756833820951
376196 1 17822846627461598805
4017518 198 18271248322648287478
404807 78 17612581633769134663
4280585 95 17977372842138497806
44802255 64 17608954297737476932
46194498 28 18261098652790323351
463206 1 17774709940253323175
57527293 21 17548419203301978418
57527295 17 17099181897195982155
5895379 119 17756390839594555773
9981440 41 18118126003077006536

> <PUBCHEM_SHAPE_MULTIPOLES>
671.9
9.35
4.92
2.44
10.34
3.61
2.2
-1.82
-7.85
-7.77
-1.36
0.99
-0.61
-2.33

> <PUBCHEM_SHAPE_SELFOVERLAP>
1524.311

> <PUBCHEM_SHAPE_VOLUME>
347.5

> <PUBCHEM_COORDINATE_TYPE>
2
5
10

$$$$
