101705554
  -OEChem-03292013293D

 36 36  0     1  0  0  0  0  0999 V2000
   -2.5312   -1.5775   -0.4982 O   0  0  0  0  0  0  0  0  0  0  0  0
    1.0596    1.0987   -1.9842 O   0  0  0  0  0  0  0  0  0  0  0  0
    0.3107    1.6727    0.1350 N   0  0  0  0  0  0  0  0  0  0  0  0
   -4.0812   -0.5562    2.0378 N   0  0  0  0  0  0  0  0  0  0  0  0
   -4.7934   -1.4045   -0.8590 N   0  0  0  0  0  0  0  0  0  0  0  0
    1.5307   -1.7752   -1.2333 N   0  0  0  0  0  0  0  0  0  0  0  0
   -2.4993    0.9245    0.9024 C   0  0  0  0  0  0  0  0  0  0  0  0
   -2.0897    1.5814   -0.4238 C   0  0  0  0  0  0  0  0  0  0  0  0
   -3.7764    0.0847    0.7578 C   0  0  1  0  0  0  0  0  0  0  0  0
   -0.8321    2.4351   -0.2873 C   0  0  0  0  0  0  0  0  0  0  0  0
   -3.6116   -1.0499   -0.2439 C   0  0  0  0  0  0  0  0  0  0  0  0
    1.1761    1.0575   -0.7622 C   0  0  0  0  0  0  0  0  0  0  0  0
    2.2954    0.2841   -0.1656 C   0  0  0  0  0  0  0  0  0  0  0  0
    2.4440   -1.0814   -0.4084 C   0  0  0  0  0  0  0  0  0  0  0  0
    3.2077    0.9502    0.6526 C   0  0  0  0  0  0  0  0  0  0  0  0
    3.5048   -1.7807    0.1670 C   0  0  0  0  0  0  0  0  0  0  0  0
    4.2686    0.2510    1.2281 C   0  0  0  0  0  0  0  0  0  0  0  0
    4.4172   -1.1145    0.9853 C   0  0  0  0  0  0  0  0  0  0  0  0
   -1.6790    0.2913    1.2648 H   0  0  0  0  0  0  0  0  0  0  0  0
   -2.6560    1.7052    1.6579 H   0  0  0  0  0  0  0  0  0  0  0  0
   -1.9158    0.8215   -1.1933 H   0  0  0  0  0  0  0  0  0  0  0  0
   -2.9096    2.2161   -0.7808 H   0  0  0  0  0  0  0  0  0  0  0  0
   -4.6100    0.7315    0.4604 H   0  0  0  0  0  0  0  0  0  0  0  0
   -0.9876    3.2257    0.4545 H   0  0  0  0  0  0  0  0  0  0  0  0
   -0.6092    2.9164   -1.2460 H   0  0  0  0  0  0  0  0  0  0  0  0
    0.4746    1.5725    1.1327 H   0  0  0  0  0  0  0  0  0  0  0  0
   -4.1912    0.1560    2.7588 H   0  0  0  0  0  0  0  0  0  0  0  0
   -4.9793   -1.0349    1.9748 H   0  0  0  0  0  0  0  0  0  0  0  0
    3.1086    2.0150    0.8478 H   0  0  0  0  0  0  0  0  0  0  0  0
   -5.6776   -0.9579   -0.6382 H   0  0  0  0  0  0  0  0  0  0  0  0
   -4.8172   -2.1420   -1.5553 H   0  0  0  0  0  0  0  0  0  0  0  0
    3.6325   -2.8451   -0.0137 H   0  0  0  0  0  0  0  0  0  0  0  0
    4.9797    0.7698    1.8643 H   0  0  0  0  0  0  0  0  0  0  0  0
    5.2434   -1.6589    1.4333 H   0  0  0  0  0  0  0  0  0  0  0  0
    1.6545   -2.7656   -1.3976 H   0  0  0  0  0  0  0  0  0  0  0  0
    0.7508   -1.2930   -1.6587 H   0  0  0  0  0  0  0  0  0  0  0  0
  1 11  2  0  0  0  0
  2 12  2  0  0  0  0
  3 10  1  0  0  0  0
  3 12  1  0  0  0  0
  3 26  1  0  0  0  0
  4  9  1  0  0  0  0
  4 27  1  0  0  0  0
  4 28  1  0  0  0  0
  5 11  1  0  0  0  0
  5 30  1  0  0  0  0
  5 31  1  0  0  0  0
  6 14  1  0  0  0  0
  6 35  1  0  0  0  0
  6 36  1  0  0  0  0
  7  8  1  0  0  0  0
  7  9  1  0  0  0  0
  7 19  1  0  0  0  0
  7 20  1  0  0  0  0
  8 10  1  0  0  0  0
  8 21  1  0  0  0  0
  8 22  1  0  0  0  0
  9 11  1  0  0  0  0
  9 23  1  0  0  0  0
 10 24  1  0  0  0  0
 10 25  1  0  0  0  0
 12 13  1  0  0  0  0
 13 14  1  0  0  0  0
 13 15  2  0  0  0  0
 14 16  2  0  0  0  0
 15 17  1  0  0  0  0
 15 29  1  0  0  0  0
 16 18  1  0  0  0  0
 16 32  1  0  0  0  0
 17 18  2  0  0  0  0
 17 33  1  0  0  0  0
 18 34  1  0  0  0  0
M  END
> <PUBCHEM_COMPOUND_CID>
101705554

> <PUBCHEM_CONFORMER_RMSD>
1

> <PUBCHEM_CONFORMER_DIVERSEORDER>
1
22
107
74
76
117
70
113
48
82
12
118
109
69
23
105
94
83
61
89
44
90
101
72
52
30
115
25
67
24
63
50
95
102
55
47
20
91
28
27
17
18
60
5
41
104
35
86
10
33
65
64
79
99
43
13
53
4
108
36
57
59
11
2
114
78
110
31
62
68
14
49
29
19
51
6
106
92
39
66
16
100
46
54
88
81
77
84
40
34
93
71
87
15
26
7
42
73
96
85
9
37
97
3
56
8
38
32
98
75
80
45
58
103
111
116
112
21

> <PUBCHEM_MMFF94_PARTIAL_CHARGES>
27
1 -0.57
10 0.3
11 0.57
12 0.54
13 0.09
14 0.1
15 -0.15
16 -0.15
17 -0.15
18 -0.15
2 -0.57
26 0.37
27 0.36
28 0.36
29 0.15
3 -0.73
30 0.37
31 0.37
32 0.15
33 0.15
34 0.15
35 0.4
36 0.4
4 -0.99
5 -0.8
6 -0.9
9 0.33

> <PUBCHEM_EFFECTIVE_ROTOR_COUNT>
7

> <PUBCHEM_PHARMACOPHORE_FEATURES>
9
1 1 acceptor
1 2 acceptor
1 3 donor
1 4 cation
1 4 donor
1 5 donor
1 6 cation
1 6 donor
6 13 14 15 16 17 18 rings

> <PUBCHEM_HEAVY_ATOM_COUNT>
18

> <PUBCHEM_ATOM_DEF_STEREO_COUNT>
1

> <PUBCHEM_ATOM_UDEF_STEREO_COUNT>
0

> <PUBCHEM_BOND_DEF_STEREO_COUNT>
0

> <PUBCHEM_BOND_UDEF_STEREO_COUNT>
0

> <PUBCHEM_ISOTOPIC_ATOM_COUNT>
0

> <PUBCHEM_COMPONENT_COUNT>
1

> <PUBCHEM_CACTVS_TAUTO_COUNT>
35

> <PUBCHEM_CONFORMER_ID>
060FE75200000001

> <PUBCHEM_MMFF94_ENERGY>
44.6484

> <PUBCHEM_FEATURE_SELFOVERLAP>
45.672

> <PUBCHEM_SHAPE_FINGERPRINT>
10447042 23 18269822250695577463
11552529 35 17059763515975936407
12346177 29 17896032148799809765
12363563 72 17967542271909183585
12553582 1 18339096972351066333
12633257 1 17704076183238433105
13544653 18 18333729117586712096
14178342 30 18200041629164302241
1420 369 18334580148339894075
14341114 328 17132119064758542609
17834072 14 18410281506779940221
19107657 9 9367352517977377581
19141452 34 18341614785554602169
193927 3 17968104100775693042
19433438 48 18202002135985398475
20261772 1 18059847394226875694
20671657 53 16732987534993304461
21673915 165 18342451556367767922
21713013 43 16009039435933656553
22646028 28 18113621170403456113
23402539 116 17386003910911429424
24859131 72 18343014480319036599
251288 83 18343581845926086408
339767 52 18271792571533399367
3797600 57 17060337470030884104
59027123 10 12324250467973842976
5924683 9 18131625682620896073
633830 44 8214151754544164985
7064713 232 17846503612576359707
9882013 296 17988921193110814392

> <PUBCHEM_SHAPE_MULTIPOLES>
338.77
9.62
2.22
1.39
2.92
0.28
-0.1
-4.77
-3.35
0.38
0.5
0.32
-0.06
-0.15

> <PUBCHEM_SHAPE_SELFOVERLAP>
690.265

> <PUBCHEM_SHAPE_VOLUME>
195

> <PUBCHEM_COORDINATE_TYPE>
2
5
10

$$$$
