101744342
  -OEChem-03292013293D

 44 46  0     1  0  0  0  0  0999 V2000
   -0.0496   -1.4939   -0.4734 O   0  0  0  0  0  0  0  0  0  0  0  0
    0.0791    0.5398    0.6861 O   0  0  0  0  0  0  0  0  0  0  0  0
    1.8104   -2.0339    0.8454 O   0  0  0  0  0  0  0  0  0  0  0  0
   -1.6450    0.2830   -1.8066 O   0  0  0  0  0  0  0  0  0  0  0  0
    3.6393    0.5236    0.5305 O   0  0  0  0  0  0  0  0  0  0  0  0
   -1.9627    2.2911   -0.3977 O   0  0  0  0  0  0  0  0  0  0  0  0
    2.1616    1.0858    2.2148 O   0  0  0  0  0  0  0  0  0  0  0  0
   -3.5567    1.2142    0.8814 O   0  0  0  0  0  0  0  0  0  0  0  0
   -0.7866   -0.5520    0.3305 C   0  0  1  0  0  0  0  0  0  0  0  0
    1.3346   -1.2186   -0.2264 C   0  0  2  0  0  0  0  0  0  0  0  0
    1.3522    0.2777    0.0932 C   0  0  1  0  0  0  0  0  0  0  0  0
   -2.0123   -0.0518   -0.4746 C   0  0  2  0  0  0  0  0  0  0  0  0
   -1.2571   -1.2435    1.6249 C   0  0  0  0  0  0  0  0  0  0  0  0
    2.1681   -1.5861   -1.4551 C   0  0  0  0  0  0  0  0  0  0  0  0
    1.5451    1.1905   -1.0851 C   0  0  0  0  0  0  0  0  0  0  0  0
    1.8691   -0.7086   -2.6700 C   0  0  0  0  0  0  0  0  0  0  0  0
   -2.1999   -2.4160    1.3408 C   0  0  0  0  0  0  0  0  0  0  0  0
   -3.1371   -1.0475   -0.5295 C   0  0  0  0  0  0  0  0  0  0  0  0
    2.4041    0.6811    1.0858 C   0  0  0  0  0  0  0  0  0  0  0  0
    1.7724    0.7453   -2.3284 C   0  0  0  0  0  0  0  0  0  0  0  0
   -3.2125   -2.1147    0.2784 C   0  0  0  0  0  0  0  0  0  0  0  0
   -2.6186    1.2024    0.0959 C   0  0  0  0  0  0  0  0  0  0  0  0
    4.7416    0.8738    1.3735 C   0  0  0  0  0  0  0  0  0  0  0  0
   -2.4394    3.5585    0.0657 C   0  0  0  0  0  0  0  0  0  0  0  0
   -1.7543   -0.5113    2.2748 H   0  0  0  0  0  0  0  0  0  0  0  0
   -0.4002   -1.6092    2.2027 H   0  0  0  0  0  0  0  0  0  0  0  0
    3.2368   -1.5194   -1.2116 H   0  0  0  0  0  0  0  0  0  0  0  0
    1.9901   -2.6333   -1.7326 H   0  0  0  0  0  0  0  0  0  0  0  0
    1.4682    2.2631   -0.9224 H   0  0  0  0  0  0  0  0  0  0  0  0
    0.9297   -1.0215   -3.1407 H   0  0  0  0  0  0  0  0  0  0  0  0
    2.6618   -0.8533   -3.4130 H   0  0  0  0  0  0  0  0  0  0  0  0
   -2.7168   -2.6881    2.2681 H   0  0  0  0  0  0  0  0  0  0  0  0
   -1.6201   -3.2929    1.0294 H   0  0  0  0  0  0  0  0  0  0  0  0
   -3.9271   -0.8988   -1.2624 H   0  0  0  0  0  0  0  0  0  0  0  0
    1.8673    1.4617   -3.1391 H   0  0  0  0  0  0  0  0  0  0  0  0
   -4.0447   -2.8040    0.1687 H   0  0  0  0  0  0  0  0  0  0  0  0
    2.0125   -2.9177    0.4955 H   0  0  0  0  0  0  0  0  0  0  0  0
   -2.4470    0.4898   -2.3165 H   0  0  0  0  0  0  0  0  0  0  0  0
    5.6649    0.7034    0.8135 H   0  0  0  0  0  0  0  0  0  0  0  0
    4.7505    0.2417    2.2665 H   0  0  0  0  0  0  0  0  0  0  0  0
    4.6871    1.9315    1.6481 H   0  0  0  0  0  0  0  0  0  0  0  0
   -1.8340    4.3402   -0.4007 H   0  0  0  0  0  0  0  0  0  0  0  0
   -2.3291    3.6298    1.1519 H   0  0  0  0  0  0  0  0  0  0  0  0
   -3.4839    3.7005   -0.2278 H   0  0  0  0  0  0  0  0  0  0  0  0
  1  9  1  0  0  0  0
  1 10  1  0  0  0  0
  2  9  1  0  0  0  0
  2 11  1  0  0  0  0
  3 10  1  0  0  0  0
  3 37  1  0  0  0  0
  4 12  1  0  0  0  0
  4 38  1  0  0  0  0
  5 19  1  0  0  0  0
  5 23  1  0  0  0  0
  6 22  1  0  0  0  0
  6 24  1  0  0  0  0
  7 19  2  0  0  0  0
  8 22  2  0  0  0  0
  9 12  1  0  0  0  0
  9 13  1  0  0  0  0
 10 11  1  0  0  0  0
 10 14  1  0  0  0  0
 11 15  1  0  0  0  0
 11 19  1  0  0  0  0
 12 18  1  0  0  0  0
 12 22  1  0  0  0  0
 13 17  1  0  0  0  0
 13 25  1  0  0  0  0
 13 26  1  0  0  0  0
 14 16  1  0  0  0  0
 14 27  1  0  0  0  0
 14 28  1  0  0  0  0
 15 20  2  0  0  0  0
 15 29  1  0  0  0  0
 16 20  1  0  0  0  0
 16 30  1  0  0  0  0
 16 31  1  0  0  0  0
 17 21  1  0  0  0  0
 17 32  1  0  0  0  0
 17 33  1  0  0  0  0
 18 21  2  0  0  0  0
 18 34  1  0  0  0  0
 20 35  1  0  0  0  0
 21 36  1  0  0  0  0
 23 39  1  0  0  0  0
 23 40  1  0  0  0  0
 23 41  1  0  0  0  0
 24 42  1  0  0  0  0
 24 43  1  0  0  0  0
 24 44  1  0  0  0  0
M  END
> <PUBCHEM_COMPOUND_CID>
101744342

> <PUBCHEM_CONFORMER_RMSD>
0.8

> <PUBCHEM_CONFORMER_DIVERSEORDER>
3
12
15
5
9
17
18
16
6
11
2
7
14
10
4
8
1
13

> <PUBCHEM_MMFF94_PARTIAL_CHARGES>
28
1 -0.56
10 0.56
11 0.48
12 0.48
15 -0.29
16 0.14
17 0.14
18 -0.29
19 0.66
2 -0.56
20 -0.29
21 -0.29
22 0.66
23 0.28
24 0.28
29 0.15
3 -0.68
34 0.15
35 0.15
36 0.15
37 0.4
38 0.4
4 -0.68
5 -0.43
6 -0.43
7 -0.57
8 -0.57
9 0.56

> <PUBCHEM_EFFECTIVE_ROTOR_COUNT>
5.4

> <PUBCHEM_PHARMACOPHORE_FEATURES>
11
1 1 acceptor
1 2 acceptor
1 3 acceptor
1 3 donor
1 4 acceptor
1 4 donor
1 7 acceptor
1 8 acceptor
5 1 2 9 10 11 rings
6 10 11 14 15 16 20 rings
6 9 12 13 17 18 21 rings

> <PUBCHEM_HEAVY_ATOM_COUNT>
24

> <PUBCHEM_ATOM_DEF_STEREO_COUNT>
4

> <PUBCHEM_ATOM_UDEF_STEREO_COUNT>
0

> <PUBCHEM_BOND_DEF_STEREO_COUNT>
0

> <PUBCHEM_BOND_UDEF_STEREO_COUNT>
0

> <PUBCHEM_ISOTOPIC_ATOM_COUNT>
0

> <PUBCHEM_COMPONENT_COUNT>
1

> <PUBCHEM_CACTVS_TAUTO_COUNT>
1

> <PUBCHEM_CONFORMER_ID>
06107ED600000003

> <PUBCHEM_MMFF94_ENERGY>
42.6982

> <PUBCHEM_FEATURE_SELFOVERLAP>
56.215

> <PUBCHEM_SHAPE_FINGERPRINT>
10863032 1 18271800177603676966
11578080 2 17844835653257935424
12553582 1 18048615990619036915
12633257 1 17827330225990372242
12788726 201 18042987526176749137
12892183 10 18264753502545126386
13009979 54 17822015358221542112
13134695 92 15285627842102618518
13140716 1 18192153904803915481
13464514 151 17844810291713351344
13965767 371 17245538980590420477
14178342 30 18187365406704490154
14223421 5 18272087209988363787
15375462 478 18042955665718950670
16945 1 18113910359357799119
17349148 13 17895464942454585651
17980427 23 18261386818888763588
18915476 22 17275110504706248838
18981168 100 18267606674409329801
19049666 15 18271813354331232435
20600515 1 17897446314210936343
22112679 90 17458351878560124799
23402539 116 18267286807105315927
23419403 2 17702405995427781988
23557571 272 18410570725667055319
23558518 356 18261958432239275635
23559900 14 18337401452296036510
2748010 2 18202012005413965495
5845 1 18117858796166152115
633830 44 14764076734997707760
6992083 37 17241032237230936504
81228 2 18410022052485632505

> <PUBCHEM_SHAPE_MULTIPOLES>
446.95
6.05
2.69
2.04
1.83
1.29
-0.72
0.83
1.81
-2.59
0.36
1.81
-0.12
0.86

> <PUBCHEM_SHAPE_SELFOVERLAP>
964.901

> <PUBCHEM_SHAPE_VOLUME>
241.9

> <PUBCHEM_COORDINATE_TYPE>
2
5
10

$$$$
