101712484
  -OEChem-03292013293D

 74 79  0     1  0  0  0  0  0999 V2000
   -0.0426   -0.2175   -2.5197 O   0  0  0  0  0  0  0  0  0  0  0  0
    1.7078   -2.0682   -1.3658 O   0  0  0  0  0  0  0  0  0  0  0  0
   -1.8678   -1.9087   -1.6146 O   0  0  0  0  0  0  0  0  0  0  0  0
    3.8618   -1.7463    0.6907 O   0  0  0  0  0  0  0  0  0  0  0  0
   -0.5700    2.6071    2.2142 O   0  0  0  0  0  0  0  0  0  0  0  0
    4.6180    1.0940   -0.3175 O   0  0  0  0  0  0  0  0  0  0  0  0
   -4.0336   -2.1994    0.7850 O   0  0  0  0  0  0  0  0  0  0  0  0
   -1.6230    1.6577   -0.8924 N   0  0  2  0  0  0  0  0  0  0  0  0
   -0.6999    0.4095    1.0346 C   0  0  1  0  0  0  0  0  0  0  0  0
   -1.7200   -0.7296    0.6139 C   0  0  2  0  0  0  0  0  0  0  0  0
    0.6518   -0.1436    1.6536 C   0  0  1  0  0  0  0  0  0  0  0  0
   -0.4213    0.9574   -0.3900 C   0  0  1  0  0  0  0  0  0  0  0  0
   -0.0043   -0.3729   -1.1096 C   0  0  2  0  0  0  0  0  0  0  0  0
    1.4642   -1.1603    0.8226 C   0  0  1  0  0  0  0  0  0  0  0  0
    1.4345   -0.8214   -0.6859 C   0  0  1  0  0  0  0  0  0  0  0  0
   -1.0194   -1.4335   -0.5905 C   0  0  2  0  0  0  0  0  0  0  0  0
   -3.0879   -0.0806    0.2158 C   0  0  2  0  0  0  0  0  0  0  0  0
   -1.3248    1.4056    2.0761 C   0  0  2  0  0  0  0  0  0  0  0  0
    1.7212    0.9280    2.0093 C   0  0  0  0  0  0  0  0  0  0  0  0
    3.0513    0.4488    1.4074 C   0  0  1  0  0  0  0  0  0  0  0  0
    2.8698   -1.0592    1.4227 C   0  0  2  0  0  0  0  0  0  0  0  0
    2.5564    0.1539   -1.1310 C   0  0  0  0  0  0  0  0  0  0  0  0
   -2.8483    0.8545   -1.0075 C   0  0  0  0  0  0  0  0  0  0  0  0
   -3.6464    0.7041    1.4264 C   0  0  0  0  0  0  0  0  0  0  0  0
    3.2196    0.9922   -0.0249 C   0  0  2  0  0  0  0  0  0  0  0  0
   -2.7639    1.8459    1.8599 C   0  0  0  0  0  0  0  0  0  0  0  0
   -4.1805   -1.1244   -0.1145 C   0  0  0  0  0  0  0  0  0  0  0  0
   -1.3865    2.4710   -2.0773 C   0  0  0  0  0  0  0  0  0  0  0  0
    1.6873   -1.8838   -2.7652 C   0  0  0  0  0  0  0  0  0  0  0  0
   -2.5350    3.4357   -2.3191 C   0  0  0  0  0  0  0  0  0  0  0  0
    5.0709   -1.8828    1.4323 C   0  0  0  0  0  0  0  0  0  0  0  0
    4.8633    2.0871   -1.2982 C   0  0  0  0  0  0  0  0  0  0  0  0
   -5.0026   -3.2204    0.5592 C   0  0  0  0  0  0  0  0  0  0  0  0
   -1.8412   -1.4299    1.4488 H   0  0  0  0  0  0  0  0  0  0  0  0
    0.3820   -0.6486    2.5934 H   0  0  0  0  0  0  0  0  0  0  0  0
    0.4016    1.6775   -0.3730 H   0  0  0  0  0  0  0  0  0  0  0  0
    1.1089   -2.1827    0.9973 H   0  0  0  0  0  0  0  0  0  0  0  0
   -0.5220   -2.3315   -0.2174 H   0  0  0  0  0  0  0  0  0  0  0  0
   -1.2932    0.9032    3.0526 H   0  0  0  0  0  0  0  0  0  0  0  0
    1.4961    1.9330    1.6534 H   0  0  0  0  0  0  0  0  0  0  0  0
    1.8100    0.9872    3.1015 H   0  0  0  0  0  0  0  0  0  0  0  0
    3.8948    0.7697    2.0283 H   0  0  0  0  0  0  0  0  0  0  0  0
    2.8405   -1.4388    2.4543 H   0  0  0  0  0  0  0  0  0  0  0  0
    2.2112    0.8511   -1.9020 H   0  0  0  0  0  0  0  0  0  0  0  0
    3.3685   -0.4116   -1.6109 H   0  0  0  0  0  0  0  0  0  0  0  0
   -3.7269    1.5060   -1.0849 H   0  0  0  0  0  0  0  0  0  0  0  0
   -2.8240    0.2779   -1.9390 H   0  0  0  0  0  0  0  0  0  0  0  0
   -3.7863    0.0234    2.2770 H   0  0  0  0  0  0  0  0  0  0  0  0
   -4.6387    1.1130    1.1950 H   0  0  0  0  0  0  0  0  0  0  0  0
    2.7992    2.0063   -0.0488 H   0  0  0  0  0  0  0  0  0  0  0  0
   -2.8194    2.6765    1.1461 H   0  0  0  0  0  0  0  0  0  0  0  0
   -3.1547    2.2736    2.7930 H   0  0  0  0  0  0  0  0  0  0  0  0
   -4.1140   -1.4859   -1.1448 H   0  0  0  0  0  0  0  0  0  0  0  0
   -5.1831   -0.6881   -0.0160 H   0  0  0  0  0  0  0  0  0  0  0  0
    0.4176    0.6039   -2.7554 H   0  0  0  0  0  0  0  0  0  0  0  0
   -1.2511    1.8682   -2.9800 H   0  0  0  0  0  0  0  0  0  0  0  0
   -0.4766    3.0679   -1.9419 H   0  0  0  0  0  0  0  0  0  0  0  0
   -2.3165   -2.7021   -1.2756 H   0  0  0  0  0  0  0  0  0  0  0  0
   -0.9396    3.1084    2.9611 H   0  0  0  0  0  0  0  0  0  0  0  0
    2.3936   -2.6231   -3.1646 H   0  0  0  0  0  0  0  0  0  0  0  0
    2.0337   -0.9357   -3.1832 H   0  0  0  0  0  0  0  0  0  0  0  0
    0.7258   -2.2027   -3.1821 H   0  0  0  0  0  0  0  0  0  0  0  0
   -3.4319    2.9322   -2.6928 H   0  0  0  0  0  0  0  0  0  0  0  0
   -2.7931    3.9922   -1.4116 H   0  0  0  0  0  0  0  0  0  0  0  0
   -2.2447    4.1683   -3.0805 H   0  0  0  0  0  0  0  0  0  0  0  0
    5.7873   -2.4299    0.8133 H   0  0  0  0  0  0  0  0  0  0  0  0
    5.4997   -0.9060    1.6716 H   0  0  0  0  0  0  0  0  0  0  0  0
    4.8979   -2.4562    2.3482 H   0  0  0  0  0  0  0  0  0  0  0  0
    5.9407    2.1208   -1.4840 H   0  0  0  0  0  0  0  0  0  0  0  0
    4.5512    3.0735   -0.9408 H   0  0  0  0  0  0  0  0  0  0  0  0
    4.3653    1.8519   -2.2431 H   0  0  0  0  0  0  0  0  0  0  0  0
   -4.8358   -4.0180    1.2879 H   0  0  0  0  0  0  0  0  0  0  0  0
   -4.8914   -3.6356   -0.4471 H   0  0  0  0  0  0  0  0  0  0  0  0
   -6.0134   -2.8247    0.6966 H   0  0  0  0  0  0  0  0  0  0  0  0
  1 13  1  0  0  0  0
  1 55  1  0  0  0  0
  2 15  1  0  0  0  0
  2 29  1  0  0  0  0
  3 16  1  0  0  0  0
  3 58  1  0  0  0  0
  4 21  1  0  0  0  0
  4 31  1  0  0  0  0
  5 18  1  0  0  0  0
  5 59  1  0  0  0  0
  6 25  1  0  0  0  0
  6 32  1  0  0  0  0
  7 27  1  0  0  0  0
  7 33  1  0  0  0  0
  8 12  1  0  0  0  0
  8 23  1  0  0  0  0
  8 28  1  0  0  0  0
  9 10  1  0  0  0  0
  9 11  1  0  0  0  0
  9 12  1  0  0  0  0
  9 18  1  0  0  0  0
 10 16  1  0  0  0  0
 10 17  1  0  0  0  0
 10 34  1  0  0  0  0
 11 14  1  0  0  0  0
 11 19  1  0  0  0  0
 11 35  1  0  0  0  0
 12 13  1  0  0  0  0
 12 36  1  0  0  0  0
 13 15  1  0  0  0  0
 13 16  1  0  0  0  0
 14 15  1  0  0  0  0
 14 21  1  0  0  0  0
 14 37  1  0  0  0  0
 15 22  1  0  0  0  0
 16 38  1  0  0  0  0
 17 23  1  0  0  0  0
 17 24  1  0  0  0  0
 17 27  1  0  0  0  0
 18 26  1  0  0  0  0
 18 39  1  0  0  0  0
 19 20  1  0  0  0  0
 19 40  1  0  0  0  0
 19 41  1  0  0  0  0
 20 21  1  0  0  0  0
 20 25  1  0  0  0  0
 20 42  1  0  0  0  0
 21 43  1  0  0  0  0
 22 25  1  0  0  0  0
 22 44  1  0  0  0  0
 22 45  1  0  0  0  0
 23 46  1  0  0  0  0
 23 47  1  0  0  0  0
 24 26  1  0  0  0  0
 24 48  1  0  0  0  0
 24 49  1  0  0  0  0
 25 50  1  0  0  0  0
 26 51  1  0  0  0  0
 26 52  1  0  0  0  0
 27 53  1  0  0  0  0
 27 54  1  0  0  0  0
 28 30  1  0  0  0  0
 28 56  1  0  0  0  0
 28 57  1  0  0  0  0
 29 60  1  0  0  0  0
 29 61  1  0  0  0  0
 29 62  1  0  0  0  0
 30 63  1  0  0  0  0
 30 64  1  0  0  0  0
 30 65  1  0  0  0  0
 31 66  1  0  0  0  0
 31 67  1  0  0  0  0
 31 68  1  0  0  0  0
 32 69  1  0  0  0  0
 32 70  1  0  0  0  0
 32 71  1  0  0  0  0
 33 72  1  0  0  0  0
 33 73  1  0  0  0  0
 33 74  1  0  0  0  0
M  END
> <PUBCHEM_COMPOUND_CID>
101712484

> <PUBCHEM_CONFORMER_RMSD>
1

> <PUBCHEM_CONFORMER_DIVERSEORDER>
1

> <PUBCHEM_MMFF94_PARTIAL_CHARGES>
25
1 -0.68
12 0.27
13 0.28
15 0.28
16 0.28
18 0.28
2 -0.56
21 0.28
23 0.27
25 0.28
27 0.28
28 0.27
29 0.28
3 -0.68
31 0.28
32 0.28
33 0.28
4 -0.56
5 -0.68
55 0.4
58 0.4
59 0.4
6 -0.56
7 -0.56
8 -0.81

> <PUBCHEM_EFFECTIVE_ROTOR_COUNT>
8

> <PUBCHEM_PHARMACOPHORE_FEATURES>
15
1 1 acceptor
1 1 donor
1 2 acceptor
1 3 acceptor
1 3 donor
1 4 acceptor
1 5 acceptor
1 5 donor
1 6 acceptor
1 7 acceptor
1 8 cation
6 9 10 17 18 24 26 rings
8 11 14 15 19 20 21 22 25 rings
8 8 9 10 12 13 16 17 23 rings
8 9 10 11 12 13 14 15 16 rings

> <PUBCHEM_HEAVY_ATOM_COUNT>
33

> <PUBCHEM_ATOM_DEF_STEREO_COUNT>
13

> <PUBCHEM_ATOM_UDEF_STEREO_COUNT>
0

> <PUBCHEM_BOND_DEF_STEREO_COUNT>
0

> <PUBCHEM_BOND_UDEF_STEREO_COUNT>
0

> <PUBCHEM_ISOTOPIC_ATOM_COUNT>
0

> <PUBCHEM_COMPONENT_COUNT>
1

> <PUBCHEM_CACTVS_TAUTO_COUNT>
1

> <PUBCHEM_CONFORMER_ID>
0610026400000001

> <PUBCHEM_MMFF94_ENERGY>
204.2434

> <PUBCHEM_FEATURE_SELFOVERLAP>
77.635

> <PUBCHEM_SHAPE_FINGERPRINT>
10165383 225 17631187448815241942
10863032 1 17968645026295290156
10930396 42 12399085596721305860
11115154 58 16589129689496563247
11578080 2 18194980551488189093
11763715 3 17749404658105435495
12011746 2 17561088042237033427
12156800 1 16541028511510729613
12403814 3 18335697243637704181
12553582 1 17560799974026802059
12633257 1 18338521820115774650
12788726 201 18202012056895622754
13140716 1 16626881179720771786
13224815 77 18411422795248499611
13583140 156 18267000804963946218
13726171 33 17845675731860694608
14223421 5 17632304410763383051
14289901 80 17967524649647747280
14787075 74 18195251245959453395
14955137 171 17486225696942102795
15238133 3 17774728537160573344
16945 1 18118100688281021154
17349148 13 17416098630552974986
1813 80 18189351202831238307
18393751 57 17610327622163024472
18981168 100 18053671273846392612
20691752 17 18188792586014638859
22182313 1 16558475167172886368
23559900 14 18188755151000435930
238 59 17273106039285320021
3797600 57 18201164342273547754
392239 28 17023756761156727792
469060 322 18114747169132041536
57527293 21 18336839636313993467
57527358 35 18113331986419326484
70251023 43 17458618999756411922

> <PUBCHEM_SHAPE_MULTIPOLES>
633.06
8.21
3.07
2.58
2.99
0.79
-0.29
-2.84
1.06
-2.1
-1.09
0.12
0.7
-0.26

> <PUBCHEM_SHAPE_SELFOVERLAP>
1384.199

> <PUBCHEM_SHAPE_VOLUME>
337.4

> <PUBCHEM_COORDINATE_TYPE>
2
5
10

$$$$
