10177526
  -OEChem-03292013303D

 51 53  0     1  0  0  0  0  0999 V2000
   -2.4385    0.3147    0.4545 O   0  0  0  0  0  0  0  0  0  0  0  0
   -0.5527   -0.0480   -0.8706 O   0  0  0  0  0  0  0  0  0  0  0  0
   -3.8616   -3.4612   -0.3098 O   0  0  0  0  0  0  0  0  0  0  0  0
   -5.6377   -1.4430    0.7523 O   0  0  0  0  0  0  0  0  0  0  0  0
   -1.8608   -2.2389   -2.0940 O   0  0  0  0  0  0  0  0  0  0  0  0
   -3.8733    2.2731    1.7438 O   0  0  0  0  0  0  0  0  0  0  0  0
    5.9906   -1.9865   -0.1507 O   0  0  0  0  0  0  0  0  0  0  0  0
   -3.7039   -2.0614   -0.5465 C   0  0  1  0  0  0  0  0  0  0  0  0
   -4.2203   -1.3128    0.6823 C   0  0  1  0  0  0  0  0  0  0  0  0
   -2.2291   -1.7516   -0.8039 C   0  0  2  0  0  0  0  0  0  0  0  0
   -3.8515    0.1708    0.6092 C   0  0  1  0  0  0  0  0  0  0  0  0
   -1.9621   -0.2470   -0.7662 C   0  0  1  0  0  0  0  0  0  0  0  0
   -4.2534    0.9158    1.8783 C   0  0  0  0  0  0  0  0  0  0  0  0
   -0.1139    1.2475   -0.8483 C   0  0  0  0  0  0  0  0  0  0  0  0
    0.7618    1.6817    0.1428 C   0  0  0  0  0  0  0  0  0  0  0  0
    1.2447    0.7479    1.2032 C   0  0  0  0  0  0  0  0  0  0  0  0
   -0.5559    2.1276   -1.8324 C   0  0  0  0  0  0  0  0  0  0  0  0
    1.1989    3.0063    0.1502 C   0  0  0  0  0  0  0  0  0  0  0  0
    2.5190    0.0139    0.8396 C   0  0  0  0  0  0  0  0  0  0  0  0
   -0.1187    3.4522   -1.8249 C   0  0  0  0  0  0  0  0  0  0  0  0
    0.7587    3.8915   -0.8336 C   0  0  0  0  0  0  0  0  0  0  0  0
    3.7388    0.5788    1.1659 C   0  0  0  0  0  0  0  0  0  0  0  0
    2.4330   -1.2042    0.1900 C   0  0  0  0  0  0  0  0  0  0  0  0
    4.9120   -0.0970    0.8309 C   0  0  0  0  0  0  0  0  0  0  0  0
    3.6063   -1.8802   -0.1449 C   0  0  0  0  0  0  0  0  0  0  0  0
    4.8458   -1.3265    0.1754 C   0  0  0  0  0  0  0  0  0  0  0  0
    7.2235   -1.3638    0.2073 C   0  0  0  0  0  0  0  0  0  0  0  0
   -4.3076   -1.8272   -1.4320 H   0  0  0  0  0  0  0  0  0  0  0  0
   -3.8038   -1.7694    1.5887 H   0  0  0  0  0  0  0  0  0  0  0  0
   -1.5979   -2.2745   -0.0754 H   0  0  0  0  0  0  0  0  0  0  0  0
   -4.3464    0.6590   -0.2413 H   0  0  0  0  0  0  0  0  0  0  0  0
   -2.4615    0.2341   -1.6173 H   0  0  0  0  0  0  0  0  0  0  0  0
   -3.7429    0.5118    2.7588 H   0  0  0  0  0  0  0  0  0  0  0  0
   -5.3332    0.8754    2.0471 H   0  0  0  0  0  0  0  0  0  0  0  0
   -4.8049   -3.6226   -0.1366 H   0  0  0  0  0  0  0  0  0  0  0  0
   -6.0166   -1.0341   -0.0444 H   0  0  0  0  0  0  0  0  0  0  0  0
   -2.4114   -1.7869   -2.7559 H   0  0  0  0  0  0  0  0  0  0  0  0
   -2.9137    2.2959    1.5869 H   0  0  0  0  0  0  0  0  0  0  0  0
    0.4633    0.0213    1.4648 H   0  0  0  0  0  0  0  0  0  0  0  0
    1.4012    1.3007    2.1406 H   0  0  0  0  0  0  0  0  0  0  0  0
   -1.2229    1.8012   -2.6248 H   0  0  0  0  0  0  0  0  0  0  0  0
    1.8821    3.3637    0.9161 H   0  0  0  0  0  0  0  0  0  0  0  0
   -0.4577    4.1405   -2.5937 H   0  0  0  0  0  0  0  0  0  0  0  0
    1.0998    4.9227   -0.8286 H   0  0  0  0  0  0  0  0  0  0  0  0
    3.8000    1.5353    1.6768 H   0  0  0  0  0  0  0  0  0  0  0  0
    1.4750   -1.6504   -0.0578 H   0  0  0  0  0  0  0  0  0  0  0  0
    5.8404    0.3897    1.1096 H   0  0  0  0  0  0  0  0  0  0  0  0
    3.5483   -2.8385   -0.6537 H   0  0  0  0  0  0  0  0  0  0  0  0
    7.3230   -1.2630    1.2933 H   0  0  0  0  0  0  0  0  0  0  0  0
    7.3578   -0.4090   -0.3124 H   0  0  0  0  0  0  0  0  0  0  0  0
    8.0290   -2.0258   -0.1273 H   0  0  0  0  0  0  0  0  0  0  0  0
  1 11  1  0  0  0  0
  1 12  1  0  0  0  0
  2 12  1  0  0  0  0
  2 14  1  0  0  0  0
  3  8  1  0  0  0  0
  3 35  1  0  0  0  0
  4  9  1  0  0  0  0
  4 36  1  0  0  0  0
  5 10  1  0  0  0  0
  5 37  1  0  0  0  0
  6 13  1  0  0  0  0
  6 38  1  0  0  0  0
  7 26  1  0  0  0  0
  7 27  1  0  0  0  0
  8  9  1  0  0  0  0
  8 10  1  0  0  0  0
  8 28  1  0  0  0  0
  9 11  1  0  0  0  0
  9 29  1  0  0  0  0
 10 12  1  0  0  0  0
 10 30  1  0  0  0  0
 11 13  1  0  0  0  0
 11 31  1  0  0  0  0
 12 32  1  0  0  0  0
 13 33  1  0  0  0  0
 13 34  1  0  0  0  0
 14 15  1  0  0  0  0
 14 17  2  0  0  0  0
 15 16  1  0  0  0  0
 15 18  2  0  0  0  0
 16 19  1  0  0  0  0
 16 39  1  0  0  0  0
 16 40  1  0  0  0  0
 17 20  1  0  0  0  0
 17 41  1  0  0  0  0
 18 21  1  0  0  0  0
 18 42  1  0  0  0  0
 19 22  2  0  0  0  0
 19 23  1  0  0  0  0
 20 21  2  0  0  0  0
 20 43  1  0  0  0  0
 21 44  1  0  0  0  0
 22 24  1  0  0  0  0
 22 45  1  0  0  0  0
 23 25  2  0  0  0  0
 23 46  1  0  0  0  0
 24 26  2  0  0  0  0
 24 47  1  0  0  0  0
 25 26  1  0  0  0  0
 25 48  1  0  0  0  0
 27 49  1  0  0  0  0
 27 50  1  0  0  0  0
 27 51  1  0  0  0  0
M  END
> <PUBCHEM_COMPOUND_CID>
10177526

> <PUBCHEM_CONFORMER_RMSD>
1

> <PUBCHEM_CONFORMER_DIVERSEORDER>
1
91
348
353
247
41
287
497
54
293
417
192
16
37
35
548
14
530
481
48
299
467
88
372
124
218
21
316
377
440
26
508
322
106
84
60
363
228
365
189
184
393
157
270
24
23
368
242
510
4
380
123
254
321
319
75
49
402
2
9
74
263
370
96
155
146
292
38
52
43
108
59
345
107
64
447
492
78
384
27
220
3
28
50
178
301
95
484
294
398
72
6
34
551
215
8
435
451
310
115
332
152
329
324
7
347
79
134
127
151
129
453
150
164
429
36
73
70
235
390
40
250
55
57
58
240

> <PUBCHEM_MMFF94_PARTIAL_CHARGES>
39
1 -0.56
10 0.28
11 0.28
12 0.56
13 0.28
14 0.08
15 -0.14
16 0.29
17 -0.15
18 -0.15
19 -0.14
2 -0.36
20 -0.15
21 -0.15
22 -0.15
23 -0.15
24 -0.15
25 -0.15
26 0.08
27 0.28
3 -0.68
35 0.4
36 0.4
37 0.4
38 0.4
4 -0.68
41 0.15
42 0.15
43 0.15
44 0.15
45 0.15
46 0.15
47 0.15
48 0.15
5 -0.68
6 -0.68
7 -0.36
8 0.28
9 0.28

> <PUBCHEM_EFFECTIVE_ROTOR_COUNT>
7.2

> <PUBCHEM_PHARMACOPHORE_FEATURES>
14
1 1 acceptor
1 2 acceptor
1 3 acceptor
1 3 donor
1 4 acceptor
1 4 donor
1 5 acceptor
1 5 donor
1 6 acceptor
1 6 donor
1 7 acceptor
6 1 8 9 10 11 12 rings
6 14 15 17 18 20 21 rings
6 19 22 23 24 25 26 rings

> <PUBCHEM_HEAVY_ATOM_COUNT>
27

> <PUBCHEM_ATOM_DEF_STEREO_COUNT>
5

> <PUBCHEM_ATOM_UDEF_STEREO_COUNT>
0

> <PUBCHEM_BOND_DEF_STEREO_COUNT>
0

> <PUBCHEM_BOND_UDEF_STEREO_COUNT>
0

> <PUBCHEM_ISOTOPIC_ATOM_COUNT>
0

> <PUBCHEM_COMPONENT_COUNT>
1

> <PUBCHEM_CACTVS_TAUTO_COUNT>
1

> <PUBCHEM_CONFORMER_ID>
009B4BF600000001

> <PUBCHEM_MMFF94_ENERGY>
92.4633

> <PUBCHEM_FEATURE_SELFOVERLAP>
71.111

> <PUBCHEM_SHAPE_FINGERPRINT>
10764073 3 17127067715083160116
11014199 57 18265332983347952947
11069576 57 17404280284745510831
11763715 3 17056661914270291477
12107183 9 18341340989700030825
12128747 34 16988290746391690866
12160290 23 17611431209007882628
12553582 1 18188755215393355306
12633257 1 16988842816961056907
12714826 92 17968928695905454228
12788726 201 17896312507216704000
12892183 10 17845364617061037176
13009979 54 18341620368700831385
13103583 49 18201446852115824545
13533116 47 18121217843039041763
13583140 156 16701160027748989568
14251764 30 18260547822918586946
14341114 176 18342460386936573347
14420673 8 18201445727120002182
14739800 52 17486773262154508505
14955137 171 18336835272220778994
15064986 96 16701186261536418838
15537594 2 18261111820923260370
16110190 28 18342179955631315720
17492 89 18120375616969011771
17780758 139 18131066017726768882
17818456 19 18130796697955827073
17974551 9 17775279499606966601
17980427 23 18060423491518398965
1813 80 18187365445506849708
20567600 254 10592046851378876170
20600515 1 18201733807560858812
20739085 24 18190456250149957196
21033648 144 12247684846329436184
21033648 29 17702932661391966065
21330990 113 17911254818376779589
22849341 161 18335432287131795569
22950370 63 18409450293417019822
23522609 53 18193303869861001128
23559900 14 18266450100447432987
23566358 27 18045786946804506797
23598288 3 17753314384173043888
2838139 119 8862935079257255482
3633792 109 18267564971126212215
437795 70 17753574011231272269
4409770 3 17971746675657065061
5104073 3 18201987812696910554
513202 73 18043816372690942482
5486654 36 18408891762689976219
59444896 2 17834162715726563996
6287921 2 18053089916000263632
6823239 73 14563095917845429957
7097593 13 18270119140378653641

> <PUBCHEM_SHAPE_MULTIPOLES>
514.56
12.31
3.98
1.58
11.27
2.65
-0.11
-11.4
4.24
-1.29
-1.79
-1.39
0.68
-0.83

> <PUBCHEM_SHAPE_SELFOVERLAP>
1095.74

> <PUBCHEM_SHAPE_VOLUME>
284.1

> <PUBCHEM_COORDINATE_TYPE>
2
5
10

$$$$
