101792077
  -OEChem-03292013293D

 52 55  0     1  0  0  0  0  0999 V2000
    2.7777   -1.5884    0.7635 O   0  0  0  0  0  0  0  0  0  0  0  0
    1.5975   -4.1933   -0.3479 O   0  0  0  0  0  0  0  0  0  0  0  0
    5.5250   -1.5647    0.2440 O   0  0  0  0  0  0  0  0  0  0  0  0
    1.1690    0.1623    0.1945 N   0  0  0  0  0  0  0  0  0  0  0  0
    0.0087    2.0642    0.2700 N   0  0  0  0  0  0  0  0  0  0  0  0
    3.4009    1.0495   -0.1680 N   0  0  0  0  0  0  0  0  0  0  0  0
   -3.3014   -0.5459    1.1729 N   0  0  0  0  0  0  0  0  0  0  0  0
   -1.5804   -1.2432    0.0868 N   0  0  0  0  0  0  0  0  0  0  0  0
   -2.8064   -1.5793    0.4727 N   0  0  0  0  0  0  0  0  0  0  0  0
    3.3778    3.4874   -0.2810 N   0  0  0  0  0  0  0  0  0  0  0  0
    1.3669    4.7650   -0.0542 N   0  0  0  0  0  0  0  0  0  0  0  0
    1.4720   -1.3147    0.2219 C   0  0  1  0  0  0  0  0  0  0  0  0
    1.4372   -1.9581   -1.1600 C   0  0  0  0  0  0  0  0  0  0  0  0
    2.3437   -3.1524   -0.9743 C   0  0  1  0  0  0  0  0  0  0  0  0
    3.4029   -2.6315   -0.0115 C   0  0  1  0  0  0  0  0  0  0  0  0
    4.6042   -2.0290   -0.7274 C   0  0  0  0  0  0  0  0  0  0  0  0
   -0.0588    0.7512    0.3422 C   0  0  0  0  0  0  0  0  0  0  0  0
    2.0774    1.1665    0.0162 C   0  0  0  0  0  0  0  0  0  0  0  0
    1.3380    2.3374    0.0664 C   0  0  0  0  0  0  0  0  0  0  0  0
   -1.3218    0.0142    0.5576 C   0  0  0  0  0  0  0  0  0  0  0  0
   -2.4090    0.4782    1.2547 C   0  0  0  0  0  0  0  0  0  0  0  0
    2.0371    3.5299   -0.0907 C   0  0  0  0  0  0  0  0  0  0  0  0
   -4.6278   -0.6051    1.7320 C   0  0  0  0  0  0  0  0  0  0  0  0
   -5.7239   -0.8883    0.6986 C   0  0  0  0  0  0  0  0  0  0  0  0
   -5.8625    0.2219   -0.3476 C   0  0  0  0  0  0  0  0  0  0  0  0
    3.9677    2.2677   -0.3074 C   0  0  0  0  0  0  0  0  0  0  0  0
   -7.0221   -0.0598   -1.3037 C   0  0  0  0  0  0  0  0  0  0  0  0
   -7.1895    1.0582   -2.3204 C   0  0  0  0  0  0  0  0  0  0  0  0
    0.7535   -1.7685    0.9119 H   0  0  0  0  0  0  0  0  0  0  0  0
    1.8581   -1.2813   -1.9130 H   0  0  0  0  0  0  0  0  0  0  0  0
    0.4201   -2.2206   -1.4643 H   0  0  0  0  0  0  0  0  0  0  0  0
    2.7438   -3.5419   -1.9147 H   0  0  0  0  0  0  0  0  0  0  0  0
    3.7353   -3.3974    0.6981 H   0  0  0  0  0  0  0  0  0  0  0  0
    4.3201   -1.1828   -1.3592 H   0  0  0  0  0  0  0  0  0  0  0  0
    5.1022   -2.7821   -1.3463 H   0  0  0  0  0  0  0  0  0  0  0  0
    2.2081   -4.9338   -0.1912 H   0  0  0  0  0  0  0  0  0  0  0  0
    6.2821   -1.1874   -0.2357 H   0  0  0  0  0  0  0  0  0  0  0  0
   -2.6164    1.4022    1.7765 H   0  0  0  0  0  0  0  0  0  0  0  0
   -4.8259    0.3417    2.2470 H   0  0  0  0  0  0  0  0  0  0  0  0
   -4.6150   -1.3978    2.4888 H   0  0  0  0  0  0  0  0  0  0  0  0
   -5.5321   -1.8438    0.1952 H   0  0  0  0  0  0  0  0  0  0  0  0
   -6.6756   -0.9995    1.2328 H   0  0  0  0  0  0  0  0  0  0  0  0
   -4.9340    0.3162   -0.9227 H   0  0  0  0  0  0  0  0  0  0  0  0
   -6.0290    1.1809    0.1581 H   0  0  0  0  0  0  0  0  0  0  0  0
    5.0414    2.2709   -0.4616 H   0  0  0  0  0  0  0  0  0  0  0  0
   -6.8481   -1.0049   -1.8311 H   0  0  0  0  0  0  0  0  0  0  0  0
   -7.9542   -0.1707   -0.7374 H   0  0  0  0  0  0  0  0  0  0  0  0
    0.3664    4.7993    0.0874 H   0  0  0  0  0  0  0  0  0  0  0  0
    1.8969    5.6179   -0.1712 H   0  0  0  0  0  0  0  0  0  0  0  0
   -6.2850    1.1764   -2.9257 H   0  0  0  0  0  0  0  0  0  0  0  0
   -7.3985    2.0115   -1.8246 H   0  0  0  0  0  0  0  0  0  0  0  0
   -8.0227    0.8360   -2.9944 H   0  0  0  0  0  0  0  0  0  0  0  0
  1 12  1  0  0  0  0
  1 15  1  0  0  0  0
  2 14  1  0  0  0  0
  2 36  1  0  0  0  0
  3 16  1  0  0  0  0
  3 37  1  0  0  0  0
  4 12  1  0  0  0  0
  4 17  1  0  0  0  0
  4 18  1  0  0  0  0
  5 17  2  0  0  0  0
  5 19  1  0  0  0  0
  6 18  2  0  0  0  0
  6 26  1  0  0  0  0
  7  9  1  0  0  0  0
  7 21  1  0  0  0  0
  7 23  1  0  0  0  0
  8  9  2  0  0  0  0
  8 20  1  0  0  0  0
 10 22  1  0  0  0  0
 10 26  2  0  0  0  0
 11 22  1  0  0  0  0
 11 48  1  0  0  0  0
 11 49  1  0  0  0  0
 12 13  1  0  0  0  0
 12 29  1  0  0  0  0
 13 14  1  0  0  0  0
 13 30  1  0  0  0  0
 13 31  1  0  0  0  0
 14 15  1  0  0  0  0
 14 32  1  0  0  0  0
 15 16  1  0  0  0  0
 15 33  1  0  0  0  0
 16 34  1  0  0  0  0
 16 35  1  0  0  0  0
 17 20  1  0  0  0  0
 18 19  1  0  0  0  0
 19 22  2  0  0  0  0
 20 21  2  0  0  0  0
 21 38  1  0  0  0  0
 23 24  1  0  0  0  0
 23 39  1  0  0  0  0
 23 40  1  0  0  0  0
 24 25  1  0  0  0  0
 24 41  1  0  0  0  0
 24 42  1  0  0  0  0
 25 27  1  0  0  0  0
 25 43  1  0  0  0  0
 25 44  1  0  0  0  0
 26 45  1  0  0  0  0
 27 28  1  0  0  0  0
 27 46  1  0  0  0  0
 27 47  1  0  0  0  0
 28 50  1  0  0  0  0
 28 51  1  0  0  0  0
 28 52  1  0  0  0  0
M  END
> <PUBCHEM_COMPOUND_CID>
101792077

> <PUBCHEM_CONFORMER_RMSD>
1

> <PUBCHEM_CONFORMER_DIVERSEORDER>
1
9
65
80
78
27
52
18
74
19
57
67
79
47
46
82
49
59
5
39
66
29
33
25
50
36
8
45
20
81
24
38
84
58
75
77
43
3
17
40
54
26
68
61
56
60
42
2
22
34
14
55
30
11
44
48
69
37
35
6
28
10
62
41
70
13
51
64
73
31
71
15
83
21
76
23
4
12
63
7
72
32
53
16

> <PUBCHEM_MMFF94_PARTIAL_CHARGES>
29
1 -0.56
10 -0.62
11 -0.9
12 0.54
14 0.28
15 0.28
16 0.28
17 0.19
18 0.11
19 0.23
2 -0.68
20 0.23
21 -0.3
22 0.41
23 0.26
26 0.47
3 -0.68
36 0.4
37 0.4
38 0.15
4 0.05
45 0.15
48 0.4
49 0.4
5 -0.57
6 -0.57
7 0.31
8 -0.23
9 -0.42

> <PUBCHEM_EFFECTIVE_ROTOR_COUNT>
8

> <PUBCHEM_PHARMACOPHORE_FEATURES>
15
1 1 acceptor
1 11 cation
1 11 donor
1 2 acceptor
1 2 donor
1 28 hydrophobe
1 3 acceptor
1 3 donor
3 4 5 17 cation
3 4 6 18 cation
3 6 10 26 cation
5 1 12 13 14 15 rings
5 4 5 17 18 19 rings
5 7 8 9 20 21 rings
6 6 10 18 19 22 26 rings

> <PUBCHEM_HEAVY_ATOM_COUNT>
28

> <PUBCHEM_ATOM_DEF_STEREO_COUNT>
3

> <PUBCHEM_ATOM_UDEF_STEREO_COUNT>
0

> <PUBCHEM_BOND_DEF_STEREO_COUNT>
0

> <PUBCHEM_BOND_UDEF_STEREO_COUNT>
0

> <PUBCHEM_ISOTOPIC_ATOM_COUNT>
0

> <PUBCHEM_COMPONENT_COUNT>
1

> <PUBCHEM_CACTVS_TAUTO_COUNT>
3

> <PUBCHEM_CONFORMER_ID>
0611394D00000001

> <PUBCHEM_MMFF94_ENERGY>
45.2517

> <PUBCHEM_FEATURE_SELFOVERLAP>
76.731

> <PUBCHEM_SHAPE_FINGERPRINT>
10411042 1 18266469698251855426
10693767 8 18059871545081208830
1100329 8 18339368569241086858
11069576 57 17988927743326454879
11578080 2 17603863403369168262
12553582 1 18123213237151879490
12838862 33 18340482370594087972
13140716 1 17980206606068449184
138480 1 18339375071520308074
14117953 113 18341610382854674870
14415361 349 17632298952129664974
14790565 3 17834968841947462161
15081414 286 18260557757626569045
15183329 4 18336541604865850695
15927050 60 17981336900196067558
16989378 47 17488487228887885727
16994733 274 15502957306064061750
18222031 100 18270962336700647986
19591789 44 17835815457869538634
20157964 124 18411136966087476375
20645477 70 18409172134044454683
21033648 29 17458065985006227585
21304303 282 17049896691954627880
2132832 1 18201725003194491433
21585481 104 18195217016425775269
21968339 14 18342164609903753181
23559900 14 18410293623109594243
24771293 8 18202003192737212370
25147074 1 17845951649650299121
3633792 109 18341609283790939489
376196 1 17972876144713242729
38695281 34 18196378232508501730
3882209 13 17323775796028681459
4015057 19 18411141342617025121
46194498 28 18337099099899537919
57035037 87 16443353066183258214
59682541 52 18339909434714603367
59755656 215 18334299807139922140
60123966 16 18334847321518744445
6443956 14 18337403677220814788
8272917 22 18340498853686332019

> <PUBCHEM_SHAPE_MULTIPOLES>
518.77
13.69
4.71
1.28
28.03
2.57
0.28
-1.97
5.12
-8.35
0.89
2.62
-0.17
1.33

> <PUBCHEM_SHAPE_SELFOVERLAP>
1108.496

> <PUBCHEM_SHAPE_VOLUME>
283

> <PUBCHEM_COORDINATE_TYPE>
2
5
10

$$$$
