101790377
  -OEChem-03292013293D

 57 61  0     1  0  0  0  0  0999 V2000
   -1.6464    1.8828    0.8621 O   0  0  0  0  0  0  0  0  0  0  0  0
   -2.9960   -1.2961   -0.0252 O   0  0  0  0  0  0  0  0  0  0  0  0
   -0.6831    0.1526   -0.4950 O   0  0  0  0  0  0  0  0  0  0  0  0
   -6.2197   -2.4157   -0.7672 O   0  0  0  0  0  0  0  0  0  0  0  0
   -3.6671   -3.4905   -0.0044 O   0  0  0  0  0  0  0  0  0  0  0  0
    4.9515   -0.9989    0.7534 O   0  0  0  0  0  0  0  0  0  0  0  0
    3.3414    2.8390   -0.2672 O   0  0  0  0  0  0  0  0  0  0  0  0
    4.2685   -2.2971   -1.6053 O   0  0  0  0  0  0  0  0  0  0  0  0
    5.6255    1.1953    0.4598 O   0  0  0  0  0  0  0  0  0  0  0  0
   -3.6415   -0.0068   -0.0515 C   0  0  2  0  0  0  0  0  0  0  0  0
   -1.4994    1.3457   -0.4644 C   0  0  1  0  0  0  0  0  0  0  0  0
   -2.8923    0.9399   -1.0029 C   0  0  0  0  0  0  0  0  0  0  0  0
   -3.6455    0.5866    1.3654 C   0  0  0  0  0  0  0  0  0  0  0  0
   -0.8439    2.4306   -1.3644 C   0  0  2  0  0  0  0  0  0  0  0  0
   -5.0423   -0.3231   -0.5611 C   0  0  0  0  0  0  0  0  0  0  0  0
   -2.2312    0.9777    1.8012 C   0  0  2  0  0  0  0  0  0  0  0  0
    0.5386    2.7916   -0.7959 C   0  0  0  0  0  0  0  0  0  0  0  0
   -5.3059   -1.6940    0.0174 C   0  0  2  0  0  0  0  0  0  0  0  0
    1.3089    1.5615   -0.4151 C   0  0  0  0  0  0  0  0  0  0  0  0
   -1.6629    3.7162   -1.5146 C   0  0  0  0  0  0  0  0  0  0  0  0
    0.6582    0.3211   -0.2789 C   0  0  0  0  0  0  0  0  0  0  0  0
   -3.9291   -2.2982   -0.0068 C   0  0  0  0  0  0  0  0  0  0  0  0
   -2.2526    1.6765    3.1547 C   0  0  0  0  0  0  0  0  0  0  0  0
    2.6857    1.6530   -0.1691 C   0  0  0  0  0  0  0  0  0  0  0  0
    1.3719   -0.8354    0.0605 C   0  0  0  0  0  0  0  0  0  0  0  0
    2.7318   -0.7276    0.2866 C   0  0  0  0  0  0  0  0  0  0  0  0
    3.3590    0.4955    0.1769 C   0  0  0  0  0  0  0  0  0  0  0  0
    3.7177   -1.7616    0.6706 C   0  0  1  0  0  0  0  0  0  0  0  0
    4.7738    0.3291    0.4683 C   0  0  0  0  0  0  0  0  0  0  0  0
    3.8873   -2.8673   -0.3560 C   0  0  2  0  0  0  0  0  0  0  0  0
    4.9393   -3.8824    0.0680 C   0  0  0  0  0  0  0  0  0  0  0  0
   -2.7693    0.4557   -1.9801 H   0  0  0  0  0  0  0  0  0  0  0  0
   -3.5204    1.8280   -1.1323 H   0  0  0  0  0  0  0  0  0  0  0  0
   -4.0552   -0.1265    2.0904 H   0  0  0  0  0  0  0  0  0  0  0  0
   -4.2860    1.4782    1.3727 H   0  0  0  0  0  0  0  0  0  0  0  0
   -0.6925    2.0006   -2.3651 H   0  0  0  0  0  0  0  0  0  0  0  0
   -5.0638   -0.3729   -1.6581 H   0  0  0  0  0  0  0  0  0  0  0  0
   -5.7954    0.4133   -0.2624 H   0  0  0  0  0  0  0  0  0  0  0  0
   -1.5973    0.0873    1.8882 H   0  0  0  0  0  0  0  0  0  0  0  0
    0.4363    3.4265    0.0935 H   0  0  0  0  0  0  0  0  0  0  0  0
    1.0921    3.3623   -1.5520 H   0  0  0  0  0  0  0  0  0  0  0  0
   -5.6588   -1.6469    1.0522 H   0  0  0  0  0  0  0  0  0  0  0  0
   -1.0927    4.4752   -2.0618 H   0  0  0  0  0  0  0  0  0  0  0  0
   -2.5812    3.5411   -2.0823 H   0  0  0  0  0  0  0  0  0  0  0  0
   -1.9349    4.1385   -0.5419 H   0  0  0  0  0  0  0  0  0  0  0  0
   -2.8334    2.6045    3.1093 H   0  0  0  0  0  0  0  0  0  0  0  0
   -1.2368    1.9569    3.4540 H   0  0  0  0  0  0  0  0  0  0  0  0
   -2.6789    1.0319    3.9292 H   0  0  0  0  0  0  0  0  0  0  0  0
    0.8682   -1.7925    0.1535 H   0  0  0  0  0  0  0  0  0  0  0  0
   -6.9501   -1.8198   -1.0053 H   0  0  0  0  0  0  0  0  0  0  0  0
    3.4974   -2.1571    1.6684 H   0  0  0  0  0  0  0  0  0  0  0  0
    2.9329   -3.3854   -0.5076 H   0  0  0  0  0  0  0  0  0  0  0  0
    4.2822    2.7101   -0.0615 H   0  0  0  0  0  0  0  0  0  0  0  0
    5.9316   -3.4236    0.1369 H   0  0  0  0  0  0  0  0  0  0  0  0
    5.0188   -4.6816   -0.6770 H   0  0  0  0  0  0  0  0  0  0  0  0
    4.6908   -4.3337    1.0333 H   0  0  0  0  0  0  0  0  0  0  0  0
    4.3495   -3.0229   -2.2472 H   0  0  0  0  0  0  0  0  0  0  0  0
  1 11  1  0  0  0  0
  1 16  1  0  0  0  0
  2 10  1  0  0  0  0
  2 22  1  0  0  0  0
  3 11  1  0  0  0  0
  3 21  1  0  0  0  0
  4 18  1  0  0  0  0
  4 50  1  0  0  0  0
  5 22  2  0  0  0  0
  6 28  1  0  0  0  0
  6 29  1  0  0  0  0
  7 24  1  0  0  0  0
  7 53  1  0  0  0  0
  8 30  1  0  0  0  0
  8 57  1  0  0  0  0
  9 29  2  0  0  0  0
 10 12  1  0  0  0  0
 10 13  1  0  0  0  0
 10 15  1  0  0  0  0
 11 12  1  0  0  0  0
 11 14  1  0  0  0  0
 12 32  1  0  0  0  0
 12 33  1  0  0  0  0
 13 16  1  0  0  0  0
 13 34  1  0  0  0  0
 13 35  1  0  0  0  0
 14 17  1  0  0  0  0
 14 20  1  0  0  0  0
 14 36  1  0  0  0  0
 15 18  1  0  0  0  0
 15 37  1  0  0  0  0
 15 38  1  0  0  0  0
 16 23  1  0  0  0  0
 16 39  1  0  0  0  0
 17 19  1  0  0  0  0
 17 40  1  0  0  0  0
 17 41  1  0  0  0  0
 18 22  1  0  0  0  0
 18 42  1  0  0  0  0
 19 21  2  0  0  0  0
 19 24  1  0  0  0  0
 20 43  1  0  0  0  0
 20 44  1  0  0  0  0
 20 45  1  0  0  0  0
 21 25  1  0  0  0  0
 23 46  1  0  0  0  0
 23 47  1  0  0  0  0
 23 48  1  0  0  0  0
 24 27  2  0  0  0  0
 25 26  2  0  0  0  0
 25 49  1  0  0  0  0
 26 27  1  0  0  0  0
 26 28  1  0  0  0  0
 27 29  1  0  0  0  0
 28 30  1  0  0  0  0
 28 51  1  0  0  0  0
 30 31  1  0  0  0  0
 30 52  1  0  0  0  0
 31 54  1  0  0  0  0
 31 55  1  0  0  0  0
 31 56  1  0  0  0  0
M  END
> <PUBCHEM_COMPOUND_CID>
101790377

> <PUBCHEM_CONFORMER_RMSD>
0.8

> <PUBCHEM_CONFORMER_DIVERSEORDER>
1
2
3

> <PUBCHEM_MMFF94_PARTIAL_CHARGES>
28
1 -0.56
10 0.28
11 0.56
16 0.28
17 0.14
18 0.34
19 -0.14
2 -0.43
21 0.08
22 0.66
24 0.08
25 -0.15
26 -0.14
27 0.09
28 0.42
29 0.63
3 -0.36
30 0.28
4 -0.68
49 0.15
5 -0.57
50 0.4
53 0.45
57 0.4
6 -0.43
7 -0.53
8 -0.68
9 -0.57

> <PUBCHEM_EFFECTIVE_ROTOR_COUNT>
3.4

> <PUBCHEM_PHARMACOPHORE_FEATURES>
14
1 1 acceptor
1 3 acceptor
1 4 acceptor
1 4 donor
1 5 acceptor
1 7 donor
1 8 acceptor
1 8 donor
1 9 acceptor
5 2 10 15 18 22 rings
5 6 26 27 28 29 rings
6 1 10 11 12 13 16 rings
6 19 21 24 25 26 27 rings
6 3 11 14 17 19 21 rings

> <PUBCHEM_HEAVY_ATOM_COUNT>
31

> <PUBCHEM_ATOM_DEF_STEREO_COUNT>
7

> <PUBCHEM_ATOM_UDEF_STEREO_COUNT>
0

> <PUBCHEM_BOND_DEF_STEREO_COUNT>
0

> <PUBCHEM_BOND_UDEF_STEREO_COUNT>
0

> <PUBCHEM_ISOTOPIC_ATOM_COUNT>
0

> <PUBCHEM_COMPONENT_COUNT>
1

> <PUBCHEM_CACTVS_TAUTO_COUNT>
8

> <PUBCHEM_CONFORMER_ID>
061132A900000001

> <PUBCHEM_MMFF94_ENERGY>
87.6253

> <PUBCHEM_FEATURE_SELFOVERLAP>
71.217

> <PUBCHEM_SHAPE_FINGERPRINT>
10622 236 18056459863659361687
10928967 22 18047206163093061882
11497681 19 18272088318681192582
11552529 35 18060414741847188007
11578080 2 18128795573962127601
11595378 159 16558752282573409160
11963148 33 18334847360253428346
12107183 9 17982178824621647417
12403259 226 18336540517595943044
12596599 1 18271257009990033227
12596602 18 17917714621431800088
12623949 98 18202009811018506998
12633257 1 18057339287686046595
12892183 10 17704068469809621424
12916754 54 18339079289669859200
13004483 165 18336536192774489141
13009979 54 18131081393546073776
13533116 47 18271245014584322859
13544653 18 18040720263842748253
13583140 156 15768920243643722354
13690498 29 17970922054952445054
14341114 176 18343306950428160938
1454969 45 18190461743935257948
14950920 106 17845091766695038450
15352361 1 18334852844440413759
15361156 5 17895772685683413484
15475509 35 17769092690324443099
15927050 60 17040359588731549012
17492 89 18337947888295253286
17974551 9 16052408344519157087
1813 80 17748831804041741476
21033650 10 16588863447697407653
23559900 14 18410282632187978545
2838139 119 8718561497401194371
32027 91 17907851809100272254
3380486 145 18262812774033408929
3633792 109 18126843795125726345
404807 14 18194404394699918107
439807 62 18050001388688128343
46194498 28 17024580325762214335
463206 1 18042405905768507131
484985 159 17908423550160061049
497634 4 18271529706059034424
5104073 3 18059290951201577730
5326457 24 18412545448313339667
57527295 17 17095785669455615569
613672 6 17967254229811192843
70251023 43 18260267421540840249
9709674 26 18261112941872203298
9981440 41 15049765903443729649

> <PUBCHEM_SHAPE_MULTIPOLES>
585.14
12.32
4.22
1.51
2.16
1.28
-1.09
10.78
-0.1
0.66
1.35
-1.27
-0.96
-0.24

> <PUBCHEM_SHAPE_SELFOVERLAP>
1292.412

> <PUBCHEM_SHAPE_VOLUME>
316

> <PUBCHEM_COORDINATE_TYPE>
2
5
10

$$$$
