101787073
  -OEChem-03292013293D

 31 32  0     1  0  0  0  0  0999 V2000
    1.0249    0.9968    1.2584 O   0  0  0  0  0  0  0  0  0  0  0  0
    2.7851    1.4989   -1.8351 O   0  0  0  0  0  0  0  0  0  0  0  0
    1.1691    3.7970    1.5775 O   0  0  0  0  0  0  0  0  0  0  0  0
   -0.1856   -2.9081    0.9162 O   0  0  0  0  0  0  0  0  0  0  0  0
   -4.3464   -1.3928   -0.3272 O   0  0  0  0  0  0  0  0  0  0  0  0
   -0.4284   -0.6339    0.4464 N   0  0  0  0  0  0  0  0  0  0  0  0
    3.1748   -0.7083   -0.2066 N   0  0  0  0  0  0  0  0  0  0  0  0
   -2.2550   -2.1391    0.2946 N   0  0  0  0  0  0  0  0  0  0  0  0
    3.4576   -1.9117   -0.3212 N   0  3  0  0  0  0  0  0  0  0  0  0
    3.7296   -3.0148   -0.4225 N   0  5  0  0  0  0  0  0  0  0  0  0
   -4.0878    2.1861   -0.9163 N   0  0  0  0  0  0  0  0  0  0  0  0
    1.7943   -0.3456   -0.5563 C   0  0  2  0  0  0  0  0  0  0  0  0
    1.7254    1.1053   -0.9896 C   0  0  1  0  0  0  0  0  0  0  0  0
    0.9530   -0.3332    0.7129 C   0  0  1  0  0  0  0  0  0  0  0  0
    1.7487    1.8361    0.3426 C   0  0  1  0  0  0  0  0  0  0  0  0
    1.1040    3.2098    0.2884 C   0  0  0  0  0  0  0  0  0  0  0  0
   -1.2949    0.3821    0.0603 C   0  0  0  0  0  0  0  0  0  0  0  0
   -0.8965   -1.9593    0.5782 C   0  0  0  0  0  0  0  0  0  0  0  0
   -2.5934    0.2036   -0.2091 C   0  0  0  0  0  0  0  0  0  0  0  0
   -3.1623   -1.1643   -0.0933 C   0  0  0  0  0  0  0  0  0  0  0  0
   -3.4163    1.2952   -0.5984 C   0  0  0  0  0  0  0  0  0  0  0  0
    1.4130   -1.0151   -1.3377 H   0  0  0  0  0  0  0  0  0  0  0  0
    0.7907    1.2951   -1.5279 H   0  0  0  0  0  0  0  0  0  0  0  0
    1.3328   -1.0283    1.4702 H   0  0  0  0  0  0  0  0  0  0  0  0
    2.7708    1.9337    0.7303 H   0  0  0  0  0  0  0  0  0  0  0  0
    0.0543    3.1827   -0.0080 H   0  0  0  0  0  0  0  0  0  0  0  0
    1.6435    3.8561   -0.4117 H   0  0  0  0  0  0  0  0  0  0  0  0
    2.7781    0.9070   -2.6064 H   0  0  0  0  0  0  0  0  0  0  0  0
   -0.8931    1.3762   -0.0242 H   0  0  0  0  0  0  0  0  0  0  0  0
   -2.6142   -3.0856    0.3829 H   0  0  0  0  0  0  0  0  0  0  0  0
    0.7696    4.6810    1.5106 H   0  0  0  0  0  0  0  0  0  0  0  0
  1 14  1  0  0  0  0
  1 15  1  0  0  0  0
  2 13  1  0  0  0  0
  2 28  1  0  0  0  0
  3 16  1  0  0  0  0
  3 31  1  0  0  0  0
  4 18  2  0  0  0  0
  5 20  2  0  0  0  0
  6 14  1  0  0  0  0
  6 17  1  0  0  0  0
  6 18  1  0  0  0  0
  7  9  2  0  0  0  0
  7 12  1  0  0  0  0
  8 18  1  0  0  0  0
  8 20  1  0  0  0  0
  8 30  1  0  0  0  0
  9 10  2  0  0  0  0
 11 21  3  0  0  0  0
 12 13  1  0  0  0  0
 12 14  1  0  0  0  0
 12 22  1  0  0  0  0
 13 15  1  0  0  0  0
 13 23  1  0  0  0  0
 14 24  1  0  0  0  0
 15 16  1  0  0  0  0
 15 25  1  0  0  0  0
 16 26  1  0  0  0  0
 16 27  1  0  0  0  0
 17 19  2  0  0  0  0
 17 29  1  0  0  0  0
 19 20  1  0  0  0  0
 19 21  1  0  0  0  0
M  CHG  2   9   1  10  -1
M  END
> <PUBCHEM_COMPOUND_CID>
101787073

> <PUBCHEM_CONFORMER_RMSD>
0.6

> <PUBCHEM_CONFORMER_DIVERSEORDER>
1
30
57
14
23
16
63
45
33
22
47
42
11
36
41
31
10
21
62
32
59
56
48
35
46
52
51
55
27
19
26
61
28
8
44
13
54
18
12
53
40
24
9
5
25
2
17
50
34
58
3
39
38
49
29
7
43
37
60
4
15
6
20

> <PUBCHEM_MMFF94_PARTIAL_CHARGES>
25
1 -0.56
10 -0.37
11 -0.56
12 0.25
13 0.28
14 0.58
15 0.28
16 0.28
17 -0.04
18 0.69
19 0.08
2 -0.68
20 0.62
21 0.49
28 0.4
29 0.15
3 -0.68
30 0.37
31 0.4
4 -0.57
5 -0.57
6 -0.47
7 -0.56
8 -0.49
9 0.69

> <PUBCHEM_EFFECTIVE_ROTOR_COUNT>
4

> <PUBCHEM_PHARMACOPHORE_FEATURES>
11
1 1 acceptor
1 11 acceptor
1 2 acceptor
1 2 donor
1 3 acceptor
1 3 donor
1 4 acceptor
1 5 acceptor
1 8 donor
5 1 12 13 14 15 rings
6 6 8 17 18 19 20 rings

> <PUBCHEM_HEAVY_ATOM_COUNT>
21

> <PUBCHEM_ATOM_DEF_STEREO_COUNT>
4

> <PUBCHEM_ATOM_UDEF_STEREO_COUNT>
0

> <PUBCHEM_BOND_DEF_STEREO_COUNT>
0

> <PUBCHEM_BOND_UDEF_STEREO_COUNT>
0

> <PUBCHEM_ISOTOPIC_ATOM_COUNT>
0

> <PUBCHEM_COMPONENT_COUNT>
1

> <PUBCHEM_CACTVS_TAUTO_COUNT>
3

> <PUBCHEM_CONFORMER_ID>
061125C100000001

> <PUBCHEM_MMFF94_ENERGY>
46.6327

> <PUBCHEM_FEATURE_SELFOVERLAP>
55.829

> <PUBCHEM_SHAPE_FINGERPRINT>
104564 63 17620188737338605576
10498660 4 17900818559507471877
10608611 8 18266454498135403753
10764073 3 17904719433574378008
116883 192 17982177721168622838
12035759 4 17543351553496427418
12403259 226 18408884044870777455
12788726 201 18052829048624837590
13134695 92 18200861890740256908
14866123 147 17188415962998707866
16945 1 18048606102949609122
18186145 218 18201164346795543713
19049666 15 18338236084542139905
19591789 44 16467003238425033762
20600515 1 18046600370924713560
22802520 49 18191876827567539907
229495 10 17392247057781653992
23419403 2 16913373288456219896
23558518 356 18114739459876417043
23559900 14 18266737076638887680
2748010 2 18188761859966081925
3084891 72 18051408474737422307
3286 77 18410005559368071943
350125 39 18335145280548177627
621550 34 17908422811910781523
7364860 26 18268428113006692656
81228 2 15812250631437555339
9709674 26 18337951315436750611

> <PUBCHEM_SHAPE_MULTIPOLES>
372.94
6.47
3.85
1.11
3.67
1.06
0.04
-1.5
2.26
-1.89
-0.93
-0.55
0.61
0.99

> <PUBCHEM_SHAPE_SELFOVERLAP>
788.805

> <PUBCHEM_SHAPE_VOLUME>
204.4

> <PUBCHEM_COORDINATE_TYPE>
2
5
10

$$$$
