101700650
  -OEChem-03292013293D

 61 64  0     1  0  0  0  0  0999 V2000
    2.6271   -0.1928    1.8329 S   0  0  0  0  0  0  0  0  0  0  0  0
   -1.9541    1.4710   -0.9058 O   0  0  0  0  0  0  0  0  0  0  0  0
    1.7437    4.0511   -1.8845 O   0  0  0  0  0  0  0  0  0  0  0  0
   -1.8589   -0.0602    1.9951 O   0  0  0  0  0  0  0  0  0  0  0  0
   -0.1823   -1.5191    1.3459 O   0  0  0  0  0  0  0  0  0  0  0  0
   -3.3593   -1.7113    1.1013 O   0  0  0  0  0  0  0  0  0  0  0  0
   -4.3814    0.2981    0.6414 O   0  0  0  0  0  0  0  0  0  0  0  0
   -0.4850    1.9587    0.8747 N   0  0  0  0  0  0  0  0  0  0  0  0
    3.1393   -2.0071   -1.0358 N   0  0  0  0  0  0  0  0  0  0  0  0
    4.4645   -3.6679   -0.4299 N   0  0  0  0  0  0  0  0  0  0  0  0
    0.4825    3.0631    0.7129 C   0  0  2  0  0  0  0  0  0  0  0  0
   -0.2029    3.3234   -0.6729 C   0  0  2  0  0  0  0  0  0  0  0  0
    1.8545    2.3981    0.9498 C   0  0  2  0  0  0  0  0  0  0  0  0
   -1.1100    2.1160   -0.3255 C   0  0  0  0  0  0  0  0  0  0  0  0
    1.4672    1.0028    1.4101 C   0  0  0  0  0  0  0  0  0  0  0  0
    0.1417    0.8284    1.3135 C   0  0  0  0  0  0  0  0  0  0  0  0
    0.6243    3.1702   -1.9337 C   0  0  1  0  0  0  0  0  0  0  0  0
    2.6386    3.1957    1.9896 C   0  0  0  0  0  0  0  0  0  0  0  0
    3.6632   -0.1846    0.3208 C   0  0  2  0  0  0  0  0  0  0  0  0
   -0.2028    3.4964   -3.1710 C   0  0  0  0  0  0  0  0  0  0  0  0
   -0.6254   -0.3989    1.5426 C   0  0  0  0  0  0  0  0  0  0  0  0
    2.8214   -0.5986   -0.9113 C   0  0  0  0  0  0  0  0  0  0  0  0
    4.8002   -1.2459    0.4320 C   0  0  0  0  0  0  0  0  0  0  0  0
    4.2204   -2.3891   -0.3038 C   0  0  0  0  0  0  0  0  0  0  0  0
    2.6239   -3.0710   -1.6720 C   0  0  0  0  0  0  0  0  0  0  0  0
    3.4662   -4.1021   -1.2883 C   0  0  0  0  0  0  0  0  0  0  0  0
   -2.7504   -1.1521    2.2766 C   0  0  0  0  0  0  0  0  0  0  0  0
   -4.7382   -1.6135   -0.8380 C   0  0  0  0  0  0  0  0  0  0  0  0
   -4.1546   -0.8748    0.3703 C   0  0  0  0  0  0  0  0  0  0  0  0
   -5.5776   -2.8047   -0.3571 C   0  0  0  0  0  0  0  0  0  0  0  0
   -5.6019   -0.6449   -1.6572 C   0  0  0  0  0  0  0  0  0  0  0  0
   -3.5940   -2.1341   -1.7228 C   0  0  0  0  0  0  0  0  0  0  0  0
    0.2605    3.8637    1.4334 H   0  0  0  0  0  0  0  0  0  0  0  0
   -0.7659    4.2677   -0.6672 H   0  0  0  0  0  0  0  0  0  0  0  0
    2.4244    2.3541    0.0175 H   0  0  0  0  0  0  0  0  0  0  0  0
    1.0169    2.1500   -2.0165 H   0  0  0  0  0  0  0  0  0  0  0  0
    2.1157    3.2290    2.9523 H   0  0  0  0  0  0  0  0  0  0  0  0
    2.7784    4.2291    1.6538 H   0  0  0  0  0  0  0  0  0  0  0  0
    3.6296    2.7620    2.1579 H   0  0  0  0  0  0  0  0  0  0  0  0
    4.0943    0.8146    0.2070 H   0  0  0  0  0  0  0  0  0  0  0  0
   -1.0729    2.8390   -3.2574 H   0  0  0  0  0  0  0  0  0  0  0  0
    0.4038    3.3938   -4.0771 H   0  0  0  0  0  0  0  0  0  0  0  0
   -0.5565    4.5332   -3.1431 H   0  0  0  0  0  0  0  0  0  0  0  0
    1.7388   -0.4819   -0.8395 H   0  0  0  0  0  0  0  0  0  0  0  0
    3.1908   -0.1142   -1.8215 H   0  0  0  0  0  0  0  0  0  0  0  0
    5.0750   -1.4960    1.4603 H   0  0  0  0  0  0  0  0  0  0  0  0
    5.6941   -0.8936   -0.0948 H   0  0  0  0  0  0  0  0  0  0  0  0
    2.2625    3.9122   -2.6951 H   0  0  0  0  0  0  0  0  0  0  0  0
    1.7542   -3.0324   -2.3120 H   0  0  0  0  0  0  0  0  0  0  0  0
    3.4038   -5.1396   -1.5839 H   0  0  0  0  0  0  0  0  0  0  0  0
   -3.5342   -0.7881    2.9505 H   0  0  0  0  0  0  0  0  0  0  0  0
   -2.2202   -1.9528    2.8047 H   0  0  0  0  0  0  0  0  0  0  0  0
   -6.0298   -1.1404   -2.5358 H   0  0  0  0  0  0  0  0  0  0  0  0
   -6.4323   -0.2521   -1.0591 H   0  0  0  0  0  0  0  0  0  0  0  0
   -3.9798   -2.6170   -2.6276 H   0  0  0  0  0  0  0  0  0  0  0  0
   -2.9731   -2.8671   -1.1952 H   0  0  0  0  0  0  0  0  0  0  0  0
   -6.0511   -3.3212   -1.1994 H   0  0  0  0  0  0  0  0  0  0  0  0
   -6.3703   -2.4739    0.3238 H   0  0  0  0  0  0  0  0  0  0  0  0
   -4.9710   -3.5394    0.1843 H   0  0  0  0  0  0  0  0  0  0  0  0
   -2.9340   -1.3152   -2.0318 H   0  0  0  0  0  0  0  0  0  0  0  0
   -5.0160    0.2125   -2.0083 H   0  0  0  0  0  0  0  0  0  0  0  0
  1 15  1  0  0  0  0
  1 19  1  0  0  0  0
  2 14  2  0  0  0  0
  3 17  1  0  0  0  0
  3 48  1  0  0  0  0
  4 21  1  0  0  0  0
  4 27  1  0  0  0  0
  5 21  2  0  0  0  0
  6 27  1  0  0  0  0
  6 29  1  0  0  0  0
  7 29  2  0  0  0  0
  8 11  1  0  0  0  0
  8 14  1  0  0  0  0
  8 16  1  0  0  0  0
  9 22  1  0  0  0  0
  9 24  1  0  0  0  0
  9 25  1  0  0  0  0
 10 24  2  0  0  0  0
 10 26  1  0  0  0  0
 11 12  1  0  0  0  0
 11 13  1  0  0  0  0
 11 33  1  0  0  0  0
 12 14  1  0  0  0  0
 12 17  1  0  0  0  0
 12 34  1  0  0  0  0
 13 15  1  0  0  0  0
 13 18  1  0  0  0  0
 13 35  1  0  0  0  0
 15 16  2  0  0  0  0
 16 21  1  0  0  0  0
 17 20  1  0  0  0  0
 17 36  1  0  0  0  0
 18 37  1  0  0  0  0
 18 38  1  0  0  0  0
 18 39  1  0  0  0  0
 19 22  1  0  0  0  0
 19 23  1  0  0  0  0
 19 40  1  0  0  0  0
 20 41  1  0  0  0  0
 20 42  1  0  0  0  0
 20 43  1  0  0  0  0
 22 44  1  0  0  0  0
 22 45  1  0  0  0  0
 23 24  1  0  0  0  0
 23 46  1  0  0  0  0
 23 47  1  0  0  0  0
 25 26  2  0  0  0  0
 25 49  1  0  0  0  0
 26 50  1  0  0  0  0
 27 51  1  0  0  0  0
 27 52  1  0  0  0  0
 28 29  1  0  0  0  0
 28 30  1  0  0  0  0
 28 31  1  0  0  0  0
 28 32  1  0  0  0  0
 30 57  1  0  0  0  0
 30 58  1  0  0  0  0
 30 59  1  0  0  0  0
 31 53  1  0  0  0  0
 31 54  1  0  0  0  0
 31 61  1  0  0  0  0
 32 55  1  0  0  0  0
 32 56  1  0  0  0  0
 32 60  1  0  0  0  0
M  END
> <PUBCHEM_COMPOUND_CID>
101700650

> <PUBCHEM_CONFORMER_RMSD>
1

> <PUBCHEM_CONFORMER_DIVERSEORDER>
1
65
24
53
9
152
95
80
15
133
113
25
120
44
75
99
60
142
119
59
62
22
81
48
71
106
115
32
157
102
161
149
121
77
47
14
153
130
101
33
41
72
7
135
36
20
143
89
94
57
154
39
90
43
12
26
117
156
37
8
19
109
3
162
58
79
51
140
126
76
151
70
84
118
131
13
50
63
67
21
160
52
148
38
128
54
11
23
92
116
159
96
136
64
155
68
103
97
78
158
138
74
16
56
17
82
4
45
5
132
123
110
29
40
98
134
105
150
87
85
10
88
100
46
129
146
86
137
18
73
6
122
111
66
55
49
127
141
28
35
112
144
108
145
2
30
27
107
31
42
83
61
34
91
147
125
104
69
139
114
124
93

> <PUBCHEM_MMFF94_PARTIAL_CHARGES>
30
1 -0.33
10 -0.57
11 0.22
12 0.05
13 0.14
14 0.58
15 -0.04
16 0.12
17 0.28
19 0.23
2 -0.57
21 0.71
22 0.26
23 0.18
24 0.01
25 -0.3
26 0.08
27 0.56
28 0.06
29 0.66
3 -0.68
4 -0.43
48 0.4
49 0.15
5 -0.57
50 0.15
6 -0.43
7 -0.57
8 -0.39
9 0.05

> <PUBCHEM_EFFECTIVE_ROTOR_COUNT>
10

> <PUBCHEM_PHARMACOPHORE_FEATURES>
10
1 2 acceptor
1 3 acceptor
1 3 donor
1 5 acceptor
1 7 acceptor
3 9 10 24 cation
4 28 30 31 32 hydrophobe
5 9 10 24 25 26 rings
5 9 19 22 23 24 rings
7 8 11 12 13 14 15 16 rings

> <PUBCHEM_HEAVY_ATOM_COUNT>
32

> <PUBCHEM_ATOM_DEF_STEREO_COUNT>
5

> <PUBCHEM_ATOM_UDEF_STEREO_COUNT>
0

> <PUBCHEM_BOND_DEF_STEREO_COUNT>
0

> <PUBCHEM_BOND_UDEF_STEREO_COUNT>
0

> <PUBCHEM_ISOTOPIC_ATOM_COUNT>
0

> <PUBCHEM_COMPONENT_COUNT>
1

> <PUBCHEM_CACTVS_TAUTO_COUNT>
4

> <PUBCHEM_CONFORMER_ID>
060FD42A00000001

> <PUBCHEM_MMFF94_ENERGY>
97.0626

> <PUBCHEM_FEATURE_SELFOVERLAP>
51.039

> <PUBCHEM_SHAPE_FINGERPRINT>
11285246 1 18117565019886556814
11477941 20 17755621211746263822
11513181 2 18409451422745914885
12160290 23 17756993311398750504
12293681 25 17982703330676249008
12977781 61 17693621885438897698
13583140 156 16415184707212412601
13690498 29 17762930687586007974
1454969 45 18272651277741201298
14863182 85 18053097616634551896
15475509 8 18262239890236732985
17357779 13 18407760326369393691
17909252 39 18340483473661990473
1813 80 18408601474482175499
18365409 1 17048226568488891390
19315092 285 17345742122911282143
20775530 9 18195546817388237378
21285901 2 18261659450490719208
21344244 181 17478042762020063205
21860390 5 17679850789456805869
24893989 43 16821571888782985029
26353 1 18260275130817355765
38695281 34 17760656162831015412
4066623 53 18046039607057060767
4280585 95 18261382334789561826
44802255 64 15874240620350000772
46194498 28 18043525230317971767
5080951 261 17904191530384909626
5081480 168 17749682873777059189
66674814 147 17983831622384893422

> <PUBCHEM_SHAPE_MULTIPOLES>
612.24
9.97
5.63
2.51
10.32
1.06
0.63
-12.18
1.7
-4.99
3.66
0.26
1.47
1.56

> <PUBCHEM_SHAPE_SELFOVERLAP>
1293.207

> <PUBCHEM_SHAPE_VOLUME>
350.2

> <PUBCHEM_COORDINATE_TYPE>
2
5
10

$$$$
