101844051
  -OEChem-03292013293D

 66 68  0     1  0  0  0  0  0999 V2000
    5.1175    1.2923    1.0523 O   0  0  0  0  0  0  0  0  0  0  0  0
    3.2259   -0.0240   -0.8844 O   0  0  0  0  0  0  0  0  0  0  0  0
    6.5412   -1.1800    0.1765 O   0  0  0  0  0  0  0  0  0  0  0  0
    2.8060    0.6611    2.6902 O   0  0  0  0  0  0  0  0  0  0  0  0
    5.1914    2.7931   -2.2838 O   0  0  0  0  0  0  0  0  0  0  0  0
    6.1797   -3.1560   -0.9644 O   0  0  0  0  0  0  0  0  0  0  0  0
   -6.1611   -1.2639   -0.1873 O   0  0  0  0  0  0  0  0  0  0  0  0
   -9.8229    0.6786   -0.3167 O   0  0  0  0  0  0  0  0  0  0  0  0
   -7.2592   -3.2477   -0.3149 O   0  0  0  0  0  0  0  0  0  0  0  0
    4.6637   -0.0117   -0.8630 C   0  0  2  0  0  0  0  0  0  0  0  0
    4.7866   -0.0683    1.4476 C   0  0  2  0  0  0  0  0  0  0  0  0
    5.1416   -0.9473    0.2412 C   0  0  2  0  0  0  0  0  0  0  0  0
    5.2543    1.3225   -0.3860 C   0  0  1  0  0  0  0  0  0  0  0  0
    3.2544   -0.1515    1.6067 C   0  0  2  0  0  0  0  0  0  0  0  0
    2.5442    0.3232    0.3263 C   0  0  2  0  0  0  0  0  0  0  0  0
    5.1310   -0.3920   -2.2623 C   0  0  0  0  0  0  0  0  0  0  0  0
    5.5481   -0.4020    2.7242 C   0  0  0  0  0  0  0  0  0  0  0  0
    4.6754    2.5989   -0.9695 C   0  0  1  0  0  0  0  0  0  0  0  0
    1.1606   -0.2462    0.2351 C   0  0  0  0  0  0  0  0  0  0  0  0
    5.0081    3.8163   -0.1185 C   0  0  0  0  0  0  0  0  0  0  0  0
    6.9262   -2.3292   -0.4582 C   0  0  0  0  0  0  0  0  0  0  0  0
   -0.0106    0.4078    0.1947 C   0  0  0  0  0  0  0  0  0  0  0  0
    8.4206   -2.4418   -0.4495 C   0  0  0  0  0  0  0  0  0  0  0  0
   -1.3300   -0.1779    0.1063 C   0  0  0  0  0  0  0  0  0  0  0  0
   -2.4507    0.5599    0.0713 C   0  0  0  0  0  0  0  0  0  0  0  0
   -3.7740   -0.0186   -0.0183 C   0  0  0  0  0  0  0  0  0  0  0  0
   -4.8924    0.7197   -0.0531 C   0  0  0  0  0  0  0  0  0  0  0  0
   -6.2090    0.1539   -0.1424 C   0  0  0  0  0  0  0  0  0  0  0  0
   -7.3775    0.8241   -0.1822 C   0  0  0  0  0  0  0  0  0  0  0  0
   -8.5961    0.0381   -0.2736 C   0  0  0  0  0  0  0  0  0  0  0  0
   -7.4957    2.3263   -0.1388 C   0  0  0  0  0  0  0  0  0  0  0  0
   -7.2921   -2.0227   -0.2745 C   0  0  0  0  0  0  0  0  0  0  0  0
   -8.5720   -1.2986   -0.3184 C   0  0  0  0  0  0  0  0  0  0  0  0
  -10.3332    0.8635    0.9875 C   0  0  0  0  0  0  0  0  0  0  0  0
    4.5855   -1.8928    0.2826 H   0  0  0  0  0  0  0  0  0  0  0  0
    6.3370    1.3218   -0.5776 H   0  0  0  0  0  0  0  0  0  0  0  0
    2.9843   -1.1881    1.8483 H   0  0  0  0  0  0  0  0  0  0  0  0
    2.4507    1.4148    0.3580 H   0  0  0  0  0  0  0  0  0  0  0  0
    4.6869    0.2709   -3.0131 H   0  0  0  0  0  0  0  0  0  0  0  0
    4.7947   -1.4021   -2.5207 H   0  0  0  0  0  0  0  0  0  0  0  0
    6.2187   -0.3452   -2.3708 H   0  0  0  0  0  0  0  0  0  0  0  0
    6.6271   -0.2696    2.5886 H   0  0  0  0  0  0  0  0  0  0  0  0
    5.3592   -1.4317    3.0433 H   0  0  0  0  0  0  0  0  0  0  0  0
    5.2643    0.2728    3.5392 H   0  0  0  0  0  0  0  0  0  0  0  0
    3.5883    2.5413   -1.0627 H   0  0  0  0  0  0  0  0  0  0  0  0
    1.1237   -1.3352    0.1868 H   0  0  0  0  0  0  0  0  0  0  0  0
    1.8481    0.5254    2.7865 H   0  0  0  0  0  0  0  0  0  0  0  0
    4.6527    4.7316   -0.6047 H   0  0  0  0  0  0  0  0  0  0  0  0
    4.5490    3.7604    0.8730 H   0  0  0  0  0  0  0  0  0  0  0  0
    6.0918    3.9273   -0.0014 H   0  0  0  0  0  0  0  0  0  0  0  0
    4.7906    3.6036   -2.6416 H   0  0  0  0  0  0  0  0  0  0  0  0
    0.0226    1.4955    0.2361 H   0  0  0  0  0  0  0  0  0  0  0  0
    8.7181   -3.3642   -0.9563 H   0  0  0  0  0  0  0  0  0  0  0  0
    8.7830   -2.4777    0.5809 H   0  0  0  0  0  0  0  0  0  0  0  0
    8.8581   -1.5941   -0.9827 H   0  0  0  0  0  0  0  0  0  0  0  0
   -1.3837   -1.2632    0.0675 H   0  0  0  0  0  0  0  0  0  0  0  0
   -2.3881    1.6453    0.1105 H   0  0  0  0  0  0  0  0  0  0  0  0
   -3.8075   -1.1043   -0.0606 H   0  0  0  0  0  0  0  0  0  0  0  0
   -4.7989    1.7997   -0.0015 H   0  0  0  0  0  0  0  0  0  0  0  0
   -7.8046    2.6581    0.8573 H   0  0  0  0  0  0  0  0  0  0  0  0
   -8.2363    2.6782   -0.8660 H   0  0  0  0  0  0  0  0  0  0  0  0
   -6.5675    2.8449   -0.3898 H   0  0  0  0  0  0  0  0  0  0  0  0
   -9.4812   -1.8855   -0.3887 H   0  0  0  0  0  0  0  0  0  0  0  0
  -11.2646    1.4327    0.9097 H   0  0  0  0  0  0  0  0  0  0  0  0
   -9.6488    1.4304    1.6268 H   0  0  0  0  0  0  0  0  0  0  0  0
  -10.5693   -0.0974    1.4584 H   0  0  0  0  0  0  0  0  0  0  0  0
  1 11  1  0  0  0  0
  1 13  1  0  0  0  0
  2 10  1  0  0  0  0
  2 15  1  0  0  0  0
  3 12  1  0  0  0  0
  3 21  1  0  0  0  0
  4 14  1  0  0  0  0
  4 47  1  0  0  0  0
  5 18  1  0  0  0  0
  5 51  1  0  0  0  0
  6 21  2  0  0  0  0
  7 28  1  0  0  0  0
  7 32  1  0  0  0  0
  8 30  1  0  0  0  0
  8 34  1  0  0  0  0
  9 32  2  0  0  0  0
 10 12  1  0  0  0  0
 10 13  1  0  0  0  0
 10 16  1  0  0  0  0
 11 12  1  0  0  0  0
 11 14  1  0  0  0  0
 11 17  1  0  0  0  0
 12 35  1  0  0  0  0
 13 18  1  0  0  0  0
 13 36  1  0  0  0  0
 14 15  1  0  0  0  0
 14 37  1  0  0  0  0
 15 19  1  0  0  0  0
 15 38  1  0  0  0  0
 16 39  1  0  0  0  0
 16 40  1  0  0  0  0
 16 41  1  0  0  0  0
 17 42  1  0  0  0  0
 17 43  1  0  0  0  0
 17 44  1  0  0  0  0
 18 20  1  0  0  0  0
 18 45  1  0  0  0  0
 19 22  2  0  0  0  0
 19 46  1  0  0  0  0
 20 48  1  0  0  0  0
 20 49  1  0  0  0  0
 20 50  1  0  0  0  0
 21 23  1  0  0  0  0
 22 24  1  0  0  0  0
 22 52  1  0  0  0  0
 23 53  1  0  0  0  0
 23 54  1  0  0  0  0
 23 55  1  0  0  0  0
 24 25  2  0  0  0  0
 24 56  1  0  0  0  0
 25 26  1  0  0  0  0
 25 57  1  0  0  0  0
 26 27  2  0  0  0  0
 26 58  1  0  0  0  0
 27 28  1  0  0  0  0
 27 59  1  0  0  0  0
 28 29  2  0  0  0  0
 29 30  1  0  0  0  0
 29 31  1  0  0  0  0
 30 33  2  0  0  0  0
 31 60  1  0  0  0  0
 31 61  1  0  0  0  0
 31 62  1  0  0  0  0
 32 33  1  0  0  0  0
 33 63  1  0  0  0  0
 34 64  1  0  0  0  0
 34 65  1  0  0  0  0
 34 66  1  0  0  0  0
M  END
> <PUBCHEM_COMPOUND_CID>
101844051

> <PUBCHEM_CONFORMER_RMSD>
1

> <PUBCHEM_CONFORMER_DIVERSEORDER>
1
6
16
9
12
4
13
10
14
8
3
2
15
11
5
7

> <PUBCHEM_MMFF94_PARTIAL_CHARGES>
40
1 -0.56
10 0.28
11 0.28
12 0.28
13 0.28
14 0.28
15 0.42
18 0.28
19 -0.29
2 -0.56
21 0.66
22 -0.15
23 0.06
24 -0.15
25 -0.15
26 -0.15
27 -0.15
28 0.08
29 -0.14
3 -0.43
30 0.08
31 0.14
32 0.71
33 -0.14
34 0.28
4 -0.68
46 0.15
47 0.4
5 -0.68
51 0.4
52 0.15
56 0.15
57 0.15
58 0.15
59 0.15
6 -0.57
63 0.15
7 -0.23
8 -0.36
9 -0.57

> <PUBCHEM_EFFECTIVE_ROTOR_COUNT>
9.2

> <PUBCHEM_PHARMACOPHORE_FEATURES>
11
1 1 acceptor
1 2 acceptor
1 4 acceptor
1 4 donor
1 5 acceptor
1 5 donor
1 6 acceptor
1 8 acceptor
1 9 acceptor
6 7 28 29 30 32 33 rings
8 1 2 10 11 12 13 14 15 rings

> <PUBCHEM_HEAVY_ATOM_COUNT>
34

> <PUBCHEM_ATOM_DEF_STEREO_COUNT>
7

> <PUBCHEM_ATOM_UDEF_STEREO_COUNT>
0

> <PUBCHEM_BOND_DEF_STEREO_COUNT>
3

> <PUBCHEM_BOND_UDEF_STEREO_COUNT>
0

> <PUBCHEM_ISOTOPIC_ATOM_COUNT>
0

> <PUBCHEM_COMPONENT_COUNT>
1

> <PUBCHEM_CACTVS_TAUTO_COUNT>
4

> <PUBCHEM_CONFORMER_ID>
0612045300000001

> <PUBCHEM_MMFF94_ENERGY>
111.7612

> <PUBCHEM_FEATURE_SELFOVERLAP>
55.83

> <PUBCHEM_SHAPE_FINGERPRINT>
10299344 5 17967248694426574859
11386260 185 18114185246313971636
11607047 74 18270398417197830904
11719270 70 18131070433211956391
12082328 90 18410853288083031383
12089408 11 18411138057394382477
15183329 4 15285354016557295279
15419008 47 17775558733508203905
15419008 91 18129642155013042217
15510794 2 17917988382884577879
15554971 5 17703791410444399721
1577012 14 18335983168706987837
439807 62 18131070407299363690
4625314 4 18407759231864792109
504579 68 17240485801348017247
59521099 67 18342738516804517824
68570916 9 18336542841484122845
9831232 110 18342179908318773494
9962374 69 18408037421223539966

> <PUBCHEM_SHAPE_MULTIPOLES>
646.88
35.11
2.93
1.61
74.38
0.51
-0.62
-7.98
2.78
-4.12
1.16
-4.11
0.28
-0.76

> <PUBCHEM_SHAPE_SELFOVERLAP>
1359.706

> <PUBCHEM_SHAPE_VOLUME>
364.7

> <PUBCHEM_COORDINATE_TYPE>
2
5
10

$$$$
