101883143
  -OEChem-03292013293D

 70 71  0     1  0  0  0  0  0999 V2000
    0.3547    1.8335   -1.2016 O   0  0  0  0  0  0  0  0  0  0  0  0
    2.7579    3.5885   -1.4411 O   0  0  0  0  0  0  0  0  0  0  0  0
    1.8416   -3.4260   -1.8256 O   0  0  0  0  0  0  0  0  0  0  0  0
    0.1052   -2.2610    2.4832 O   0  0  0  0  0  0  0  0  0  0  0  0
    0.5029   -4.1433    0.4904 O   0  0  0  0  0  0  0  0  0  0  0  0
    7.0116    0.5846    1.0897 O   0  0  0  0  0  0  0  0  0  0  0  0
   -0.7457   -0.6607   -1.6924 O   0  0  0  0  0  0  0  0  0  0  0  0
   -1.1535    3.7655    0.0901 O   0  0  0  0  0  0  0  0  0  0  0  0
   -7.4902   -1.5572    0.0342 O   0  0  0  0  0  0  0  0  0  0  0  0
    3.4458    1.4477    0.8413 N   0  0  0  0  0  0  0  0  0  0  0  0
    2.4232    1.1575   -0.1691 C   0  0  2  0  0  0  0  0  0  0  0  0
    1.2746    2.1952   -0.1622 C   0  0  1  0  0  0  0  0  0  0  0  0
    1.9076   -0.2648    0.0079 C   0  0  0  0  0  0  0  0  0  0  0  0
    1.7411    3.6254   -0.4431 C   0  0  0  0  0  0  0  0  0  0  0  0
    4.7238    0.8744    0.4546 C   0  0  0  0  0  0  0  0  0  0  0  0
    1.2332   -0.6220    1.1755 C   0  0  0  0  0  0  0  0  0  0  0  0
    2.1099   -1.2102   -0.9976 C   0  0  0  0  0  0  0  0  0  0  0  0
   -0.9232    1.5582   -0.8096 C   0  0  0  0  0  0  0  0  0  0  0  0
    1.6378   -2.5126   -0.8357 C   0  0  0  0  0  0  0  0  0  0  0  0
    0.7608   -1.9245    1.3373 C   0  0  0  0  0  0  0  0  0  0  0  0
    5.7860    1.1771    1.4993 C   0  0  0  0  0  0  0  0  0  0  0  0
    0.9633   -2.8698    0.3319 C   0  0  0  0  0  0  0  0  0  0  0  0
   -1.4734    0.3010   -1.0591 C   0  0  0  0  0  0  0  0  0  0  0  0
   -1.6791    2.5339   -0.1597 C   0  0  0  0  0  0  0  0  0  0  0  0
   -2.7797    0.0196   -0.6589 C   0  0  0  0  0  0  0  0  0  0  0  0
   -2.9854    2.2524    0.2404 C   0  0  0  0  0  0  0  0  0  0  0  0
   -3.5358    0.9953   -0.0092 C   0  0  0  0  0  0  0  0  0  0  0  0
    3.0418   -4.1942   -1.7612 C   0  0  0  0  0  0  0  0  0  0  0  0
   -0.0594   -1.2353    3.4605 C   0  0  0  0  0  0  0  0  0  0  0  0
   -4.8983    0.7024    0.4073 C   0  0  0  0  0  0  0  0  0  0  0  0
   -0.8192   -4.4150    0.0308 C   0  0  0  0  0  0  0  0  0  0  0  0
   -0.8315   -0.7064   -3.1154 C   0  0  0  0  0  0  0  0  0  0  0  0
   -1.9931    4.7048    0.7590 C   0  0  0  0  0  0  0  0  0  0  0  0
   -5.4251   -0.5310    0.5820 C   0  0  0  0  0  0  0  0  0  0  0  0
   -6.8303   -0.7831    1.0262 C   0  0  0  0  0  0  0  0  0  0  0  0
    2.8742    1.2053   -1.1707 H   0  0  0  0  0  0  0  0  0  0  0  0
    0.7786    2.1869    0.8182 H   0  0  0  0  0  0  0  0  0  0  0  0
    3.5602    2.4540    0.9494 H   0  0  0  0  0  0  0  0  0  0  0  0
    2.1671    4.0817    0.4557 H   0  0  0  0  0  0  0  0  0  0  0  0
    0.9480    4.2685   -0.8278 H   0  0  0  0  0  0  0  0  0  0  0  0
    5.0590    1.2717   -0.5121 H   0  0  0  0  0  0  0  0  0  0  0  0
    4.6588   -0.2141    0.3383 H   0  0  0  0  0  0  0  0  0  0  0  0
    1.1075    0.1479    1.9284 H   0  0  0  0  0  0  0  0  0  0  0  0
    2.6329   -0.9407   -1.9119 H   0  0  0  0  0  0  0  0  0  0  0  0
    5.5097    0.7611    2.4740 H   0  0  0  0  0  0  0  0  0  0  0  0
    5.9412    2.2561    1.6045 H   0  0  0  0  0  0  0  0  0  0  0  0
    3.0511    4.5046   -1.5833 H   0  0  0  0  0  0  0  0  0  0  0  0
   -3.1787   -0.9650   -0.8871 H   0  0  0  0  0  0  0  0  0  0  0  0
   -3.6155    2.9740    0.7505 H   0  0  0  0  0  0  0  0  0  0  0  0
    7.6711    0.7921    1.7735 H   0  0  0  0  0  0  0  0  0  0  0  0
    3.0737   -4.7827   -0.8389 H   0  0  0  0  0  0  0  0  0  0  0  0
    3.9184   -3.5412   -1.8212 H   0  0  0  0  0  0  0  0  0  0  0  0
    3.0564   -4.8788   -2.6136 H   0  0  0  0  0  0  0  0  0  0  0  0
   -0.6031   -1.6772    4.3021 H   0  0  0  0  0  0  0  0  0  0  0  0
    0.9041   -0.8910    3.8514 H   0  0  0  0  0  0  0  0  0  0  0  0
   -0.6760   -0.4125    3.0822 H   0  0  0  0  0  0  0  0  0  0  0  0
   -5.5326    1.5653    0.5999 H   0  0  0  0  0  0  0  0  0  0  0  0
   -1.0410   -5.4674    0.2275 H   0  0  0  0  0  0  0  0  0  0  0  0
   -0.8967   -4.2362   -1.0463 H   0  0  0  0  0  0  0  0  0  0  0  0
   -1.5477   -3.7976    0.5659 H   0  0  0  0  0  0  0  0  0  0  0  0
   -0.2259   -1.5449   -3.4697 H   0  0  0  0  0  0  0  0  0  0  0  0
   -0.4402    0.2174   -3.5526 H   0  0  0  0  0  0  0  0  0  0  0  0
   -1.8668   -0.8646   -3.4338 H   0  0  0  0  0  0  0  0  0  0  0  0
   -1.4142    5.6272    0.8743 H   0  0  0  0  0  0  0  0  0  0  0  0
   -2.2541    4.3667    1.7676 H   0  0  0  0  0  0  0  0  0  0  0  0
   -2.8748    4.9571    0.1601 H   0  0  0  0  0  0  0  0  0  0  0  0
   -4.8245   -1.4236    0.4320 H   0  0  0  0  0  0  0  0  0  0  0  0
   -6.8276   -1.3448    1.9653 H   0  0  0  0  0  0  0  0  0  0  0  0
   -7.3898    0.1463    1.1723 H   0  0  0  0  0  0  0  0  0  0  0  0
   -8.3927   -1.7236    0.3558 H   0  0  0  0  0  0  0  0  0  0  0  0
  1 12  1  0  0  0  0
  1 18  1  0  0  0  0
  2 14  1  0  0  0  0
  2 47  1  0  0  0  0
  3 19  1  0  0  0  0
  3 28  1  0  0  0  0
  4 20  1  0  0  0  0
  4 29  1  0  0  0  0
  5 22  1  0  0  0  0
  5 31  1  0  0  0  0
  6 21  1  0  0  0  0
  6 50  1  0  0  0  0
  7 23  1  0  0  0  0
  7 32  1  0  0  0  0
  8 24  1  0  0  0  0
  8 33  1  0  0  0  0
  9 35  1  0  0  0  0
  9 70  1  0  0  0  0
 10 11  1  0  0  0  0
 10 15  1  0  0  0  0
 10 38  1  0  0  0  0
 11 12  1  0  0  0  0
 11 13  1  0  0  0  0
 11 36  1  0  0  0  0
 12 14  1  0  0  0  0
 12 37  1  0  0  0  0
 13 16  2  0  0  0  0
 13 17  1  0  0  0  0
 14 39  1  0  0  0  0
 14 40  1  0  0  0  0
 15 21  1  0  0  0  0
 15 41  1  0  0  0  0
 15 42  1  0  0  0  0
 16 20  1  0  0  0  0
 16 43  1  0  0  0  0
 17 19  2  0  0  0  0
 17 44  1  0  0  0  0
 18 23  2  0  0  0  0
 18 24  1  0  0  0  0
 19 22  1  0  0  0  0
 20 22  2  0  0  0  0
 21 45  1  0  0  0  0
 21 46  1  0  0  0  0
 23 25  1  0  0  0  0
 24 26  2  0  0  0  0
 25 27  2  0  0  0  0
 25 48  1  0  0  0  0
 26 27  1  0  0  0  0
 26 49  1  0  0  0  0
 27 30  1  0  0  0  0
 28 51  1  0  0  0  0
 28 52  1  0  0  0  0
 28 53  1  0  0  0  0
 29 54  1  0  0  0  0
 29 55  1  0  0  0  0
 29 56  1  0  0  0  0
 30 34  2  0  0  0  0
 30 57  1  0  0  0  0
 31 58  1  0  0  0  0
 31 59  1  0  0  0  0
 31 60  1  0  0  0  0
 32 61  1  0  0  0  0
 32 62  1  0  0  0  0
 32 63  1  0  0  0  0
 33 64  1  0  0  0  0
 33 65  1  0  0  0  0
 33 66  1  0  0  0  0
 34 35  1  0  0  0  0
 34 67  1  0  0  0  0
 35 68  1  0  0  0  0
 35 69  1  0  0  0  0
M  END
> <PUBCHEM_COMPOUND_CID>
101883143

> <PUBCHEM_CONFORMER_RMSD>
1.2

> <PUBCHEM_CONFORMER_DIVERSEORDER>
1
13
28
31
34
25
23
16
22
14
7
11
9
35
19
26
18
2
29
10
8
4
27
20
32
21
15
12
30
24
5
3
17
33
6

> <PUBCHEM_MMFF94_PARTIAL_CHARGES>
45
1 -0.36
10 -0.9
11 0.41
12 0.28
13 -0.14
14 0.28
15 0.27
16 -0.15
17 -0.15
18 0.08
19 0.08
2 -0.68
20 0.08
21 0.28
22 0.08
23 0.08
24 0.08
25 -0.15
26 -0.15
27 0.03
28 0.28
29 0.28
3 -0.36
30 -0.18
31 0.28
32 0.28
33 0.28
34 -0.29
35 0.42
38 0.36
4 -0.36
43 0.15
44 0.15
47 0.4
48 0.15
49 0.15
5 -0.36
50 0.4
57 0.15
6 -0.68
67 0.15
7 -0.36
70 0.4
8 -0.36
9 -0.68

> <PUBCHEM_EFFECTIVE_ROTOR_COUNT>
15

> <PUBCHEM_PHARMACOPHORE_FEATURES>
16
1 1 acceptor
1 10 cation
1 10 donor
1 2 acceptor
1 2 donor
1 3 acceptor
1 4 acceptor
1 5 acceptor
1 6 acceptor
1 6 donor
1 7 acceptor
1 8 acceptor
1 9 acceptor
1 9 donor
6 13 16 17 19 20 22 rings
6 18 23 24 25 26 27 rings

> <PUBCHEM_HEAVY_ATOM_COUNT>
35

> <PUBCHEM_ATOM_DEF_STEREO_COUNT>
2

> <PUBCHEM_ATOM_UDEF_STEREO_COUNT>
0

> <PUBCHEM_BOND_DEF_STEREO_COUNT>
1

> <PUBCHEM_BOND_UDEF_STEREO_COUNT>
0

> <PUBCHEM_ISOTOPIC_ATOM_COUNT>
0

> <PUBCHEM_COMPONENT_COUNT>
1

> <PUBCHEM_CACTVS_TAUTO_COUNT>
1

> <PUBCHEM_CONFORMER_ID>
06129D0700000001

> <PUBCHEM_MMFF94_ENERGY>
145.6436

> <PUBCHEM_FEATURE_SELFOVERLAP>
81.226

> <PUBCHEM_SHAPE_FINGERPRINT>
10165383 225 16988841704801657197
1100329 8 18192989546209142829
11421498 54 18131634469755018241
12156800 1 16958203971991126925
12553582 1 17328862093519998412
12788726 201 16170623939160942460
13140716 1 18194958767324184812
13692114 37 18126561451784893703
13726171 33 16469252839948848912
14178342 30 18265330616942993516
14713325 29 18267855259154832794
16728300 4 17461128034336809218
17909252 39 18055928601694373110
20028762 73 18340487867007066446
21197605 99 17974300008408989371
23559900 14 18193278495109385381
392239 28 18260555558307401881
563151 248 17917706946156170678
70251023 43 18266475230327436179
9896288 288 18269836419503322584

> <PUBCHEM_SHAPE_MULTIPOLES>
662.48
10.64
5.84
2.14
9.03
0.76
0.42
-0.46
4.15
-1.99
-0.87
-0.81
1.41
1.2

> <PUBCHEM_SHAPE_SELFOVERLAP>
1372.151

> <PUBCHEM_SHAPE_VOLUME>
381.3

> <PUBCHEM_COORDINATE_TYPE>
2
5
10

$$$$
