101800314
  -OEChem-03292013293D

 67 70  0     1  0  0  0  0  0999 V2000
    0.7911   -0.7255    0.8051 O   0  0  0  0  0  0  0  0  0  0  0  0
   -0.0974   -0.8082   -1.9741 O   0  0  0  0  0  0  0  0  0  0  0  0
   -3.1194    2.0042   -1.5048 O   0  0  0  0  0  0  0  0  0  0  0  0
   -1.5523    2.4232    1.2782 O   0  0  0  0  0  0  0  0  0  0  0  0
    4.1449    0.4479    2.3861 O   0  0  0  0  0  0  0  0  0  0  0  0
    4.1448   -0.5535   -1.9378 O   0  0  0  0  0  0  0  0  0  0  0  0
   -0.9233   -0.5472   -0.8251 C   0  0  1  0  0  0  0  0  0  0  0  0
   -3.3631   -0.0922   -0.2944 C   0  0  2  0  0  0  0  0  0  0  0  0
   -0.5650    0.8909   -0.3583 C   0  0  2  0  0  0  0  0  0  0  0  0
   -3.1065    1.4114   -0.2148 C   0  0  2  0  0  0  0  0  0  0  0  0
   -2.3996   -0.7713   -1.2714 C   0  0  2  0  0  0  0  0  0  0  0  0
    0.7529    0.6705    0.4437 C   0  0  2  0  0  0  0  0  0  0  0  0
   -4.3004    1.8810    0.6297 C   0  0  2  0  0  0  0  0  0  0  0  0
   -1.7223    1.6151    0.3674 C   0  0  0  0  0  0  0  0  0  0  0  0
   -4.8507   -0.1581   -0.6386 C   0  0  0  0  0  0  0  0  0  0  0  0
   -0.4168   -1.3702    0.3712 C   0  0  1  0  0  0  0  0  0  0  0  0
   -5.4751    1.0203    0.1188 C   0  0  0  0  0  0  0  0  0  0  0  0
    1.9872    0.9395   -0.4348 C   0  0  0  0  0  0  0  0  0  0  0  0
   -2.7837   -2.2418   -1.4775 C   0  0  0  0  0  0  0  0  0  0  0  0
    0.9380    1.4498    1.7469 C   0  0  0  0  0  0  0  0  0  0  0  0
   -4.6197    3.3694    0.5577 C   0  0  0  0  0  0  0  0  0  0  0  0
   -0.0916   -2.8058    0.1324 C   0  0  0  0  0  0  0  0  0  0  0  0
    3.2184    0.2800    0.1449 C   0  0  2  0  0  0  0  0  0  0  0  0
    3.9302    1.1639    1.1774 C   0  0  2  0  0  0  0  0  0  0  0  0
    4.2743    0.1186   -0.9246 C   0  0  0  0  0  0  0  0  0  0  0  0
   -0.5452   -3.8863    0.7950 C   0  0  0  0  0  0  0  0  0  0  0  0
    5.2622    1.4678    0.5675 C   0  0  0  0  0  0  0  0  0  0  0  0
    5.4912    0.8903   -0.6142 C   0  0  0  0  0  0  0  0  0  0  0  0
   -1.5091   -3.7255    1.9414 C   0  0  0  0  0  0  0  0  0  0  0  0
   -0.1730   -5.3114    0.4984 C   0  0  0  0  0  0  0  0  0  0  0  0
    6.6788    0.9534   -1.4914 C   0  0  0  0  0  0  0  0  0  0  0  0
   -3.2348   -0.5429    0.7011 H   0  0  0  0  0  0  0  0  0  0  0  0
   -0.3558    1.5356   -1.2237 H   0  0  0  0  0  0  0  0  0  0  0  0
   -2.5167   -0.3052   -2.2602 H   0  0  0  0  0  0  0  0  0  0  0  0
   -4.1204    1.6242    1.6831 H   0  0  0  0  0  0  0  0  0  0  0  0
   -5.3016   -1.1102   -0.3409 H   0  0  0  0  0  0  0  0  0  0  0  0
   -5.0137   -0.0345   -1.7159 H   0  0  0  0  0  0  0  0  0  0  0  0
   -1.1243   -1.2430    1.1930 H   0  0  0  0  0  0  0  0  0  0  0  0
   -6.1441    1.5777   -0.5466 H   0  0  0  0  0  0  0  0  0  0  0  0
   -6.0771    0.6661    0.9632 H   0  0  0  0  0  0  0  0  0  0  0  0
    1.8220    0.5267   -1.4357 H   0  0  0  0  0  0  0  0  0  0  0  0
    2.1293    2.0169   -0.5912 H   0  0  0  0  0  0  0  0  0  0  0  0
   -2.9133   -2.7644   -0.5272 H   0  0  0  0  0  0  0  0  0  0  0  0
   -2.0334   -2.7678   -2.0759 H   0  0  0  0  0  0  0  0  0  0  0  0
   -3.7332   -2.3183   -2.0187 H   0  0  0  0  0  0  0  0  0  0  0  0
    1.7558    1.0682    2.3579 H   0  0  0  0  0  0  0  0  0  0  0  0
    0.0837    1.2849    2.4133 H   0  0  0  0  0  0  0  0  0  0  0  0
    1.0590    2.5245    1.5832 H   0  0  0  0  0  0  0  0  0  0  0  0
   -0.3586   -0.1931   -2.6804 H   0  0  0  0  0  0  0  0  0  0  0  0
   -4.8932    3.6808   -0.4557 H   0  0  0  0  0  0  0  0  0  0  0  0
   -3.7640    3.9708    0.8789 H   0  0  0  0  0  0  0  0  0  0  0  0
   -5.4631    3.6089    1.2142 H   0  0  0  0  0  0  0  0  0  0  0  0
   -2.9377    2.9538   -1.4045 H   0  0  0  0  0  0  0  0  0  0  0  0
    0.6165   -2.9907   -0.6750 H   0  0  0  0  0  0  0  0  0  0  0  0
    3.0453   -0.7259    0.5425 H   0  0  0  0  0  0  0  0  0  0  0  0
    3.4194    2.1052    1.3970 H   0  0  0  0  0  0  0  0  0  0  0  0
    5.9849    2.1041    1.0627 H   0  0  0  0  0  0  0  0  0  0  0  0
   -1.4494   -2.7623    2.4510 H   0  0  0  0  0  0  0  0  0  0  0  0
   -1.2964   -4.4740    2.7140 H   0  0  0  0  0  0  0  0  0  0  0  0
   -2.5364   -3.8856    1.5999 H   0  0  0  0  0  0  0  0  0  0  0  0
   -1.0673   -5.8974    0.2631 H   0  0  0  0  0  0  0  0  0  0  0  0
    0.3284   -5.7645    1.3595 H   0  0  0  0  0  0  0  0  0  0  0  0
    0.5058   -5.3793   -0.3580 H   0  0  0  0  0  0  0  0  0  0  0  0
    4.6045    1.0419    3.0042 H   0  0  0  0  0  0  0  0  0  0  0  0
    7.0975   -0.0464   -1.6429 H   0  0  0  0  0  0  0  0  0  0  0  0
    7.4620    1.5847   -1.0595 H   0  0  0  0  0  0  0  0  0  0  0  0
    6.4123    1.3683   -2.4684 H   0  0  0  0  0  0  0  0  0  0  0  0
  1 12  1  0  0  0  0
  1 16  1  0  0  0  0
  2  7  1  0  0  0  0
  2 49  1  0  0  0  0
  3 10  1  0  0  0  0
  3 53  1  0  0  0  0
  4 14  2  0  0  0  0
  5 24  1  0  0  0  0
  5 64  1  0  0  0  0
  6 25  2  0  0  0  0
  7  9  1  0  0  0  0
  7 11  1  0  0  0  0
  7 16  1  0  0  0  0
  8 10  1  0  0  0  0
  8 11  1  0  0  0  0
  8 15  1  0  0  0  0
  8 32  1  0  0  0  0
  9 12  1  0  0  0  0
  9 14  1  0  0  0  0
  9 33  1  0  0  0  0
 10 13  1  0  0  0  0
 10 14  1  0  0  0  0
 11 19  1  0  0  0  0
 11 34  1  0  0  0  0
 12 18  1  0  0  0  0
 12 20  1  0  0  0  0
 13 17  1  0  0  0  0
 13 21  1  0  0  0  0
 13 35  1  0  0  0  0
 15 17  1  0  0  0  0
 15 36  1  0  0  0  0
 15 37  1  0  0  0  0
 16 22  1  0  0  0  0
 16 38  1  0  0  0  0
 17 39  1  0  0  0  0
 17 40  1  0  0  0  0
 18 23  1  0  0  0  0
 18 41  1  0  0  0  0
 18 42  1  0  0  0  0
 19 43  1  0  0  0  0
 19 44  1  0  0  0  0
 19 45  1  0  0  0  0
 20 46  1  0  0  0  0
 20 47  1  0  0  0  0
 20 48  1  0  0  0  0
 21 50  1  0  0  0  0
 21 51  1  0  0  0  0
 21 52  1  0  0  0  0
 22 26  2  0  0  0  0
 22 54  1  0  0  0  0
 23 24  1  0  0  0  0
 23 25  1  0  0  0  0
 23 55  1  0  0  0  0
 24 27  1  0  0  0  0
 24 56  1  0  0  0  0
 25 28  1  0  0  0  0
 26 29  1  0  0  0  0
 26 30  1  0  0  0  0
 27 28  2  0  0  0  0
 27 57  1  0  0  0  0
 28 31  1  0  0  0  0
 29 58  1  0  0  0  0
 29 59  1  0  0  0  0
 29 60  1  0  0  0  0
 30 61  1  0  0  0  0
 30 62  1  0  0  0  0
 30 63  1  0  0  0  0
 31 65  1  0  0  0  0
 31 66  1  0  0  0  0
 31 67  1  0  0  0  0
M  END
> <PUBCHEM_COMPOUND_CID>
101800314

> <PUBCHEM_CONFORMER_RMSD>
0.8

> <PUBCHEM_CONFORMER_DIVERSEORDER>
1
3
7
8
2
9
6
4
10
5

> <PUBCHEM_MMFF94_PARTIAL_CHARGES>
27
1 -0.56
10 0.34
12 0.28
14 0.45
16 0.42
2 -0.68
22 -0.29
23 0.06
24 0.42
25 0.49
26 -0.28
27 -0.29
28 -0.12
29 0.14
3 -0.68
30 0.14
31 0.14
4 -0.57
49 0.4
5 -0.68
53 0.4
54 0.15
57 0.15
6 -0.57
64 0.4
7 0.28
9 0.06

> <PUBCHEM_EFFECTIVE_ROTOR_COUNT>
4.8

> <PUBCHEM_PHARMACOPHORE_FEATURES>
14
1 1 acceptor
1 2 acceptor
1 2 donor
1 3 acceptor
1 3 donor
1 4 acceptor
1 5 acceptor
1 5 donor
1 6 acceptor
3 26 29 30 hydrophobe
5 1 7 9 12 16 rings
5 23 24 25 27 28 rings
5 8 10 13 15 17 rings
6 7 8 9 10 11 14 rings

> <PUBCHEM_HEAVY_ATOM_COUNT>
31

> <PUBCHEM_ATOM_DEF_STEREO_COUNT>
10

> <PUBCHEM_ATOM_UDEF_STEREO_COUNT>
0

> <PUBCHEM_BOND_DEF_STEREO_COUNT>
0

> <PUBCHEM_BOND_UDEF_STEREO_COUNT>
0

> <PUBCHEM_ISOTOPIC_ATOM_COUNT>
0

> <PUBCHEM_COMPONENT_COUNT>
1

> <PUBCHEM_CACTVS_TAUTO_COUNT>
4

> <PUBCHEM_CONFORMER_ID>
0611597A00000001

> <PUBCHEM_MMFF94_ENERGY>
99.4436

> <PUBCHEM_FEATURE_SELFOVERLAP>
71.23

> <PUBCHEM_SHAPE_FINGERPRINT>
107951 10 18411987952815592215
11007060 377 18272092733406510417
121448 382 18413388748025077425
12160290 23 17827332669442245259
12236239 1 17967530173123707460
12293681 160 18059577940679147072
12788726 201 18194670682171415499
13140716 1 18266451019059069363
13540713 5 17983844594261455693
13583140 156 15719387373666590244
13782708 43 13613654390335607685
13941206 138 18408043987595747194
14251757 17 17632858620305181108
14251757 5 18264775535310908746
14790565 3 18410855412984021353
14840074 17 17603868905417777852
15183329 4 17203615847916473884
15361156 5 18128823134608243956
15575132 122 18040432157584674421
15775530 1 17695338566249149464
15927050 60 18410857650631197918
17980427 23 16588028970370833221
19319366 153 18339355263173726631
19958102 18 18335133194473420414
20600515 1 17181601636716587985
20739085 24 17969787367183811660
21033648 29 18412535509822989704
21033650 10 18272660060279525096
21796203 349 16971714337678303347
22956985 138 17535738608090725179
23366157 5 17829605059428997691
23559900 14 17775282777400612456
3380486 145 17129019675114535698
3383291 50 18266737076961550827
3759504 43 18408044021817770312
404807 14 15262323491051047772
4058900 60 18263370178851040265
4073 2 18338800139283266548
4409770 3 18263374748823207643
5283173 99 18202565090223484416
563151 40 18412834573032979875
59755656 215 18059856155775309613
59755656 520 18260829306553654374
633830 44 18201711812912126989
6669772 16 18340493257455449510
9709674 26 18127688443040203660
9896288 288 18341339942244812555
9981440 41 18335143064260657555

> <PUBCHEM_SHAPE_MULTIPOLES>
602.75
11.54
4.39
1.7
12
7.02
-0.11
-9.38
2.54
-4.28
-1.93
1.01
0.27
-0.14

> <PUBCHEM_SHAPE_SELFOVERLAP>
1291.163

> <PUBCHEM_SHAPE_VOLUME>
336.3

> <PUBCHEM_COORDINATE_TYPE>
2
5
10

$$$$
