101885878
  -OEChem-03292013293D

 61 63  0     1  0  0  0  0  0999 V2000
    1.8806    0.0121   -1.8889 O   0  0  0  0  0  0  0  0  0  0  0  0
   -0.0585    0.7129   -2.8776 O   0  0  0  0  0  0  0  0  0  0  0  0
    4.4703   -1.0786   -0.3238 O   0  0  0  0  0  0  0  0  0  0  0  0
   -0.9127   -1.3635   -0.3605 O   0  0  0  0  0  0  0  0  0  0  0  0
    2.4977   -2.2805   -0.3484 O   0  0  0  0  0  0  0  0  0  0  0  0
   -2.4921    2.6170   -1.1371 O   0  0  0  0  0  0  0  0  0  0  0  0
   -2.1414    2.6975    1.1364 O   0  0  0  0  0  0  0  0  0  0  0  0
   -1.5990   -3.5575   -0.3133 O   0  0  0  0  0  0  0  0  0  0  0  0
    1.3209    0.3783    0.3681 C   0  0  2  0  0  0  0  0  0  0  0  0
    0.3889    1.2229   -0.5235 C   0  0  1  0  0  0  0  0  0  0  0  0
    1.7019    1.0221    1.7386 C   0  0  0  0  0  0  0  0  0  0  0  0
    0.7784    2.7122   -0.5746 C   0  0  0  0  0  0  0  0  0  0  0  0
    2.0672    2.5154    1.5764 C   0  0  0  0  0  0  0  0  0  0  0  0
    2.4786    0.1100   -0.5893 C   0  0  1  0  0  0  0  0  0  0  0  0
    1.0219    3.3134    0.8033 C   0  0  0  0  0  0  0  0  0  0  0  0
    0.6596    0.6285   -1.8925 C   0  0  0  0  0  0  0  0  0  0  0  0
    2.8997    0.2965    2.3878 C   0  0  0  0  0  0  0  0  0  0  0  0
    0.5197    0.8863    2.7276 C   0  0  0  0  0  0  0  0  0  0  0  0
   -1.0644    1.0245   -0.2131 C   0  0  0  0  0  0  0  0  0  0  0  0
    3.1177   -1.2274   -0.4082 C   0  0  0  0  0  0  0  0  0  0  0  0
   -1.6250   -0.1921   -0.1477 C   0  0  0  0  0  0  0  0  0  0  0  0
   -1.9468    2.1980    0.0373 C   0  0  0  0  0  0  0  0  0  0  0  0
   -2.9844   -0.4871    0.1376 C   0  0  0  0  0  0  0  0  0  0  0  0
   -3.1591   -1.8025    0.1132 C   0  0  0  0  0  0  0  0  0  0  0  0
   -1.8385   -2.3653   -0.2041 C   0  0  0  0  0  0  0  0  0  0  0  0
    5.2123   -2.2897   -0.1482 C   0  0  0  0  0  0  0  0  0  0  0  0
   -4.3745   -2.6113    0.3416 C   0  0  0  0  0  0  0  0  0  0  0  0
   -3.3681    3.7458   -1.0467 C   0  0  0  0  0  0  0  0  0  0  0  0
    6.6874   -1.9577   -0.0731 C   0  0  0  0  0  0  0  0  0  0  0  0
   -5.6378   -1.8699   -0.1136 C   0  0  0  0  0  0  0  0  0  0  0  0
   -4.5004   -3.0102    1.8163 C   0  0  0  0  0  0  0  0  0  0  0  0
    0.8928   -0.5932    0.6242 H   0  0  0  0  0  0  0  0  0  0  0  0
    0.0488    3.3168   -1.1262 H   0  0  0  0  0  0  0  0  0  0  0  0
    1.7060    2.8276   -1.1543 H   0  0  0  0  0  0  0  0  0  0  0  0
    3.0296    2.6075    1.0561 H   0  0  0  0  0  0  0  0  0  0  0  0
    2.2122    2.9782    2.5611 H   0  0  0  0  0  0  0  0  0  0  0  0
    3.2242    0.9113   -0.6141 H   0  0  0  0  0  0  0  0  0  0  0  0
    1.3890    4.3395    0.6768 H   0  0  0  0  0  0  0  0  0  0  0  0
    0.1073    3.4015    1.3890 H   0  0  0  0  0  0  0  0  0  0  0  0
    0.2432   -0.1653    2.8664 H   0  0  0  0  0  0  0  0  0  0  0  0
    3.8226    0.4419    1.8182 H   0  0  0  0  0  0  0  0  0  0  0  0
    0.7870    1.2852    3.7134 H   0  0  0  0  0  0  0  0  0  0  0  0
    3.0915    0.6800    3.3971 H   0  0  0  0  0  0  0  0  0  0  0  0
    2.7128   -0.7794    2.4756 H   0  0  0  0  0  0  0  0  0  0  0  0
   -0.3723    1.4209    2.4058 H   0  0  0  0  0  0  0  0  0  0  0  0
   -3.7525    0.2408    0.3464 H   0  0  0  0  0  0  0  0  0  0  0  0
    4.8955   -2.7801    0.7790 H   0  0  0  0  0  0  0  0  0  0  0  0
    5.0257   -2.9585   -0.9958 H   0  0  0  0  0  0  0  0  0  0  0  0
   -4.3079   -3.5282   -0.2579 H   0  0  0  0  0  0  0  0  0  0  0  0
   -3.7304    3.9761   -2.0521 H   0  0  0  0  0  0  0  0  0  0  0  0
   -2.8265    4.6145   -0.6604 H   0  0  0  0  0  0  0  0  0  0  0  0
   -4.2254    3.5089   -0.4095 H   0  0  0  0  0  0  0  0  0  0  0  0
    7.0151   -1.4500   -0.9863 H   0  0  0  0  0  0  0  0  0  0  0  0
    6.8864   -1.2745    0.7592 H   0  0  0  0  0  0  0  0  0  0  0  0
    7.2858   -2.8630    0.0620 H   0  0  0  0  0  0  0  0  0  0  0  0
   -5.8392   -0.9842    0.4993 H   0  0  0  0  0  0  0  0  0  0  0  0
   -6.5115   -2.5267   -0.0344 H   0  0  0  0  0  0  0  0  0  0  0  0
   -4.5946   -2.1314    2.4643 H   0  0  0  0  0  0  0  0  0  0  0  0
   -3.6240   -3.5795    2.1457 H   0  0  0  0  0  0  0  0  0  0  0  0
   -5.3835   -3.6393    1.9720 H   0  0  0  0  0  0  0  0  0  0  0  0
   -5.5580   -1.5540   -1.1598 H   0  0  0  0  0  0  0  0  0  0  0  0
  1 14  1  0  0  0  0
  1 16  1  0  0  0  0
  2 16  2  0  0  0  0
  3 20  1  0  0  0  0
  3 26  1  0  0  0  0
  4 21  1  0  0  0  0
  4 25  1  0  0  0  0
  5 20  2  0  0  0  0
  6 22  1  0  0  0  0
  6 28  1  0  0  0  0
  7 22  2  0  0  0  0
  8 25  2  0  0  0  0
  9 10  1  0  0  0  0
  9 11  1  0  0  0  0
  9 14  1  0  0  0  0
  9 32  1  0  0  0  0
 10 12  1  0  0  0  0
 10 16  1  0  0  0  0
 10 19  1  0  0  0  0
 11 13  1  0  0  0  0
 11 17  1  0  0  0  0
 11 18  1  0  0  0  0
 12 15  1  0  0  0  0
 12 33  1  0  0  0  0
 12 34  1  0  0  0  0
 13 15  1  0  0  0  0
 13 35  1  0  0  0  0
 13 36  1  0  0  0  0
 14 20  1  0  0  0  0
 14 37  1  0  0  0  0
 15 38  1  0  0  0  0
 15 39  1  0  0  0  0
 17 41  1  0  0  0  0
 17 43  1  0  0  0  0
 17 44  1  0  0  0  0
 18 40  1  0  0  0  0
 18 42  1  0  0  0  0
 18 45  1  0  0  0  0
 19 21  2  0  0  0  0
 19 22  1  0  0  0  0
 21 23  1  0  0  0  0
 23 24  2  0  0  0  0
 23 46  1  0  0  0  0
 24 25  1  0  0  0  0
 24 27  1  0  0  0  0
 26 29  1  0  0  0  0
 26 47  1  0  0  0  0
 26 48  1  0  0  0  0
 27 30  1  0  0  0  0
 27 31  1  0  0  0  0
 27 49  1  0  0  0  0
 28 50  1  0  0  0  0
 28 51  1  0  0  0  0
 28 52  1  0  0  0  0
 29 53  1  0  0  0  0
 29 54  1  0  0  0  0
 29 55  1  0  0  0  0
 30 56  1  0  0  0  0
 30 57  1  0  0  0  0
 30 61  1  0  0  0  0
 31 58  1  0  0  0  0
 31 59  1  0  0  0  0
 31 60  1  0  0  0  0
M  END
> <PUBCHEM_COMPOUND_CID>
101885878

> <PUBCHEM_CONFORMER_RMSD>
1

> <PUBCHEM_CONFORMER_DIVERSEORDER>
1
31
7
17
38
37
10
20
43
35
28
14
19
4
13
3
34
15
18
25
24
29
32
8
39
16
33
42
40
41
22
6
36
9
21
5
23
12
2
30
11
26
27

> <PUBCHEM_MMFF94_PARTIAL_CHARGES>
22
1 -0.43
10 0.2
14 0.34
16 0.66
19 -0.12
2 -0.57
20 0.66
21 0.08
22 0.71
23 -0.15
24 -0.12
25 0.71
26 0.28
27 0.14
28 0.28
3 -0.43
4 -0.23
46 0.15
5 -0.57
6 -0.43
7 -0.57
8 -0.57

> <PUBCHEM_EFFECTIVE_ROTOR_COUNT>
8.4

> <PUBCHEM_PHARMACOPHORE_FEATURES>
9
1 2 acceptor
1 5 acceptor
1 7 acceptor
1 8 acceptor
3 11 17 18 hydrophobe
3 27 30 31 hydrophobe
5 1 9 10 14 16 rings
5 4 21 23 24 25 rings
6 9 10 11 12 13 15 rings

> <PUBCHEM_HEAVY_ATOM_COUNT>
31

> <PUBCHEM_ATOM_DEF_STEREO_COUNT>
3

> <PUBCHEM_ATOM_UDEF_STEREO_COUNT>
0

> <PUBCHEM_BOND_DEF_STEREO_COUNT>
1

> <PUBCHEM_BOND_UDEF_STEREO_COUNT>
0

> <PUBCHEM_ISOTOPIC_ATOM_COUNT>
0

> <PUBCHEM_COMPONENT_COUNT>
1

> <PUBCHEM_CACTVS_TAUTO_COUNT>
3

> <PUBCHEM_CONFORMER_ID>
0612A7B600000001

> <PUBCHEM_MMFF94_ENERGY>
76.1662

> <PUBCHEM_FEATURE_SELFOVERLAP>
45.839

> <PUBCHEM_SHAPE_FINGERPRINT>
10863032 1 18412829058300512860
1100329 8 17544470856703320691
11578080 2 18341617018373762856
12553582 1 17903919199488407159
12633257 1 17203055187070124479
12788726 201 18187081810356703225
13140716 1 18197779903612279786
13383661 66 15649624507482379347
13692114 37 18269262497158069357
14223421 5 18339631364761254129
14787075 74 17553750777601032172
14866123 147 18263930943188503211
15664445 248 17901958770161695901
16945 1 18129084792310574664
17349148 13 17338993471265028503
17980427 23 12750937958650716954
1813 80 17677040356200202094
19315092 285 17416684842203058099
19784866 135 18409453591503880723
20600515 1 17985001301383682884
20691752 17 17980757456724308215
21421861 104 18189614032843253385
23419403 2 17775272863856224017
23559900 14 18337665408006032189
350125 39 18411986832271816905
70251023 43 18189063143089141715

> <PUBCHEM_SHAPE_MULTIPOLES>
591.01
9.35
4.52
1.96
3.45
1.19
0.48
-10.94
0.75
-2.85
0.11
0.64
0.81
2.17

> <PUBCHEM_SHAPE_SELFOVERLAP>
1261.572

> <PUBCHEM_SHAPE_VOLUME>
329.7

> <PUBCHEM_COORDINATE_TYPE>
2
5
10

$$$$
