10182969
  -OEChem-03292013303D

 59 63  0     0  0  0  0  0  0999 V2000
    0.6539   -0.7935   -0.0443 O   0  0  0  0  0  0  0  0  0  0  0  0
   -5.2901   -2.3943    0.0792 O   0  0  0  0  0  0  0  0  0  0  0  0
    4.2415    4.7044    0.3809 O   0  0  0  0  0  0  0  0  0  0  0  0
    4.2176   -5.1098   -0.4262 O   0  0  0  0  0  0  0  0  0  0  0  0
   -0.2018    1.4032   -0.1468 N   0  0  0  0  0  0  0  0  0  0  0  0
   -5.6743   -0.0783    0.0162 N   0  0  0  0  0  0  0  0  0  0  0  0
    3.3615    0.3416   -0.0085 N   0  0  0  0  0  0  0  0  0  0  0  0
    4.4199    1.1707    0.0724 N   0  0  0  0  0  0  0  0  0  0  0  0
    6.0746    3.3533    0.2808 N   0  0  0  0  0  0  0  0  0  0  0  0
    1.3993    3.3431    0.2047 C   0  0  0  0  0  0  0  0  0  0  0  0
    0.1326    2.8147   -0.4920 C   0  0  0  0  0  0  0  0  0  0  0  0
    2.4574    2.3219    0.1260 C   0  0  0  0  0  0  0  0  0  0  0  0
    2.1584    0.9858    0.0121 C   0  0  0  0  0  0  0  0  0  0  0  0
   -6.6672    0.9607   -0.3063 C   0  0  0  0  0  0  0  0  0  0  0  0
   -8.0527    0.6974    0.2592 C   0  0  0  0  0  0  0  0  0  0  0  0
   -8.4842   -0.7032   -0.1155 C   0  0  0  0  0  0  0  0  0  0  0  0
   -7.5097   -1.6904    0.4887 C   0  0  0  0  0  0  0  0  0  0  0  0
    0.8300    0.4224   -0.0521 C   0  0  0  0  0  0  0  0  0  0  0  0
   -1.5934    1.0267   -0.1047 C   0  0  0  0  0  0  0  0  0  0  0  0
   -4.2785    0.2995   -0.0253 C   0  0  0  0  0  0  0  0  0  0  0  0
   -6.0521   -1.4263    0.1524 C   0  0  0  0  0  0  0  0  0  0  0  0
    3.8595    2.3819    0.1573 C   0  0  0  0  0  0  0  0  0  0  0  0
   -1.9831   -0.0981    0.6158 C   0  0  0  0  0  0  0  0  0  0  0  0
   -2.5362    1.7907   -0.7855 C   0  0  0  0  0  0  0  0  0  0  0  0
   -3.3291   -0.4626    0.6557 C   0  0  0  0  0  0  0  0  0  0  0  0
   -3.8821    1.4261   -0.7458 C   0  0  0  0  0  0  0  0  0  0  0  0
    3.5777   -1.0325   -0.1138 C   0  0  0  0  0  0  0  0  0  0  0  0
    4.6921    3.5452    0.2709 C   0  0  0  0  0  0  0  0  0  0  0  0
    3.7155   -1.6105   -1.3692 C   0  0  0  0  0  0  0  0  0  0  0  0
    3.6524   -1.8051    1.0382 C   0  0  0  0  0  0  0  0  0  0  0  0
    3.9313   -2.9848   -1.4745 C   0  0  0  0  0  0  0  0  0  0  0  0
    3.8679   -3.1792    0.9329 C   0  0  0  0  0  0  0  0  0  0  0  0
    4.0073   -3.7690   -0.3235 C   0  0  0  0  0  0  0  0  0  0  0  0
    4.2845   -5.8517    0.7907 C   0  0  0  0  0  0  0  0  0  0  0  0
    1.1795    3.5465    1.2597 H   0  0  0  0  0  0  0  0  0  0  0  0
    1.7042    4.2853   -0.2614 H   0  0  0  0  0  0  0  0  0  0  0  0
   -0.6857    3.4855   -0.2106 H   0  0  0  0  0  0  0  0  0  0  0  0
    0.2660    2.8482   -1.5808 H   0  0  0  0  0  0  0  0  0  0  0  0
   -8.7624    1.4336   -0.1336 H   0  0  0  0  0  0  0  0  0  0  0  0
   -8.0398    0.8067    1.3507 H   0  0  0  0  0  0  0  0  0  0  0  0
   -6.7267    1.0246   -1.4000 H   0  0  0  0  0  0  0  0  0  0  0  0
   -6.3315    1.9266    0.0887 H   0  0  0  0  0  0  0  0  0  0  0  0
   -8.5082   -0.8123   -1.2065 H   0  0  0  0  0  0  0  0  0  0  0  0
   -9.4957   -0.9001    0.2562 H   0  0  0  0  0  0  0  0  0  0  0  0
   -7.7640   -2.6998    0.1448 H   0  0  0  0  0  0  0  0  0  0  0  0
   -7.5945   -1.6857    1.5822 H   0  0  0  0  0  0  0  0  0  0  0  0
   -1.2915   -0.6805    1.2154 H   0  0  0  0  0  0  0  0  0  0  0  0
   -2.2690    2.6506   -1.3919 H   0  0  0  0  0  0  0  0  0  0  0  0
   -3.5993   -1.3069    1.2819 H   0  0  0  0  0  0  0  0  0  0  0  0
   -4.5805    2.0302   -1.3169 H   0  0  0  0  0  0  0  0  0  0  0  0
    3.6575   -1.0103   -2.2737 H   0  0  0  0  0  0  0  0  0  0  0  0
    3.5447   -1.3562    2.0224 H   0  0  0  0  0  0  0  0  0  0  0  0
    4.0391   -3.4386   -2.4558 H   0  0  0  0  0  0  0  0  0  0  0  0
    3.9161   -3.7286    1.8669 H   0  0  0  0  0  0  0  0  0  0  0  0
    6.4916    2.4310    0.2037 H   0  0  0  0  0  0  0  0  0  0  0  0
    6.7095    4.1400    0.3668 H   0  0  0  0  0  0  0  0  0  0  0  0
    5.1330   -5.5371    1.4077 H   0  0  0  0  0  0  0  0  0  0  0  0
    4.4560   -6.8992    0.5216 H   0  0  0  0  0  0  0  0  0  0  0  0
    3.3364   -5.8134    1.3379 H   0  0  0  0  0  0  0  0  0  0  0  0
  1 18  2  0  0  0  0
  2 21  2  0  0  0  0
  3 28  2  0  0  0  0
  4 33  1  0  0  0  0
  4 34  1  0  0  0  0
  5 11  1  0  0  0  0
  5 18  1  0  0  0  0
  5 19  1  0  0  0  0
  6 14  1  0  0  0  0
  6 20  1  0  0  0  0
  6 21  1  0  0  0  0
  7  8  1  0  0  0  0
  7 13  1  0  0  0  0
  7 27  1  0  0  0  0
  8 22  2  0  0  0  0
  9 28  1  0  0  0  0
  9 55  1  0  0  0  0
  9 56  1  0  0  0  0
 10 11  1  0  0  0  0
 10 12  1  0  0  0  0
 10 35  1  0  0  0  0
 10 36  1  0  0  0  0
 11 37  1  0  0  0  0
 11 38  1  0  0  0  0
 12 13  2  0  0  0  0
 12 22  1  0  0  0  0
 13 18  1  0  0  0  0
 14 15  1  0  0  0  0
 14 41  1  0  0  0  0
 14 42  1  0  0  0  0
 15 16  1  0  0  0  0
 15 39  1  0  0  0  0
 15 40  1  0  0  0  0
 16 17  1  0  0  0  0
 16 43  1  0  0  0  0
 16 44  1  0  0  0  0
 17 21  1  0  0  0  0
 17 45  1  0  0  0  0
 17 46  1  0  0  0  0
 19 23  2  0  0  0  0
 19 24  1  0  0  0  0
 20 25  2  0  0  0  0
 20 26  1  0  0  0  0
 22 28  1  0  0  0  0
 23 25  1  0  0  0  0
 23 47  1  0  0  0  0
 24 26  2  0  0  0  0
 24 48  1  0  0  0  0
 25 49  1  0  0  0  0
 26 50  1  0  0  0  0
 27 29  2  0  0  0  0
 27 30  1  0  0  0  0
 29 31  1  0  0  0  0
 29 51  1  0  0  0  0
 30 32  2  0  0  0  0
 30 52  1  0  0  0  0
 31 33  2  0  0  0  0
 31 53  1  0  0  0  0
 32 33  1  0  0  0  0
 32 54  1  0  0  0  0
 34 57  1  0  0  0  0
 34 58  1  0  0  0  0
 34 59  1  0  0  0  0
M  END
> <PUBCHEM_COMPOUND_CID>
10182969

> <PUBCHEM_CONFORMER_RMSD>
1

> <PUBCHEM_CONFORMER_DIVERSEORDER>
1
3
4
2

> <PUBCHEM_MMFF94_PARTIAL_CHARGES>
42
1 -0.57
10 0.18
11 0.3
12 -0.18
13 -0.24
14 0.3
17 0.06
18 0.71
19 0.12
2 -0.57
20 0.12
21 0.57
22 0.2
23 -0.15
24 -0.15
25 -0.15
26 -0.15
27 -0.02
28 0.72
29 -0.15
3 -0.57
30 -0.15
31 -0.15
32 -0.15
33 0.08
34 0.28
4 -0.36
47 0.15
48 0.15
49 0.15
5 -0.48
50 0.15
51 0.15
52 0.15
53 0.15
54 0.15
55 0.37
56 0.37
6 -0.48
7 0.59
8 -0.71
9 -0.8

> <PUBCHEM_EFFECTIVE_ROTOR_COUNT>
6.6

> <PUBCHEM_PHARMACOPHORE_FEATURES>
11
1 1 acceptor
1 2 acceptor
1 3 acceptor
1 4 acceptor
1 8 acceptor
1 9 donor
5 7 8 12 13 22 rings
6 19 20 23 24 25 26 rings
6 27 29 30 31 32 33 rings
6 5 10 11 12 13 18 rings
6 6 14 15 16 17 21 rings

> <PUBCHEM_HEAVY_ATOM_COUNT>
34

> <PUBCHEM_ATOM_DEF_STEREO_COUNT>
0

> <PUBCHEM_ATOM_UDEF_STEREO_COUNT>
0

> <PUBCHEM_BOND_DEF_STEREO_COUNT>
0

> <PUBCHEM_BOND_UDEF_STEREO_COUNT>
0

> <PUBCHEM_ISOTOPIC_ATOM_COUNT>
0

> <PUBCHEM_COMPONENT_COUNT>
1

> <PUBCHEM_CACTVS_TAUTO_COUNT>
2

> <PUBCHEM_CONFORMER_ID>
009B613900000001

> <PUBCHEM_MMFF94_ENERGY>
135.2811

> <PUBCHEM_FEATURE_SELFOVERLAP>
55.916

> <PUBCHEM_SHAPE_FINGERPRINT>
10050765 1 18339080376666707721
10319688 140 18410855447786923210
10411042 1 18123189001105121666
10951579 204 17023735707754077653
11135926 11 18267570472177660060
11409948 41 18268973424368862799
117089 54 17981894038199953366
11719270 70 18339076112032766728
11963148 33 18268424801730255047
12107183 9 17983308032033635793
13383665 225 17967829231702407965
13533116 47 18272369780672572993
1361 4 18339641248330555551
13782708 43 18187928327400053879
13785724 45 18126573318810823910
13835254 42 18410856534351320021
13955234 65 18342734139815410280
14118638 360 18201725063487823225
14150023 79 18338236089285558564
14556957 393 13479118091937124207
14675020 138 18129367371748197440
15001296 14 18334570257395000875
15328684 2 16988299599037018755
15400415 2 18122624130742442257
15467298 65 18056746840589535367
15890870 6 18194966464634215984
15927050 60 18197777910769242366
16990366 60 18118961400266210634
16992752 21 17979362954950465870
17492 89 18339359643691806088
19315958 150 18409452527306669289
19319366 153 18200027490480194828
19427546 62 18121781905236440464
20505436 4 17774156954481402556
20775438 99 18335693996379581075
21130935 74 18410859863582879611
21133410 32 16375563737630339778
21279426 13 18188483567924433661
21792938 169 18339905083591511190
22311459 1 18339079423057419453
22956985 138 18264762157357927658
23559900 14 18265042531752488888
23569914 152 17617059579692951103
23569943 247 18118688717409133251
255183 451 18128545877458203678
32027 91 18193267503755078023
404807 14 18122351168770175011
4073 2 18189338047193189835
4093350 32 17704079516064904853
4144715 1 18261399957995243825
4403749 210 17761493990781104000
4461854 278 17615426074185755034
4874694 18 18336819918520025219
50009960 94 18042663049534622418
5104073 3 18201155460556038881
5309563 4 18124035624568184790
57359948 33 17749388178490248013
6441014 3 17689715260058543098
6679774 75 18262782078829852058
6695519 79 17621340342957226769
6697151 62 18051385414983741877
70251023 43 18265054639586900752
7970288 3 18049721811158501986
9831232 110 18337389332083073263
9962374 69 18340477902847145743

> <PUBCHEM_SHAPE_MULTIPOLES>
651.32
19.81
6.33
0.9
43.16
4.59
-0.13
7.76
0.99
-17.04
0.67
-0.62
0.47
1.2

> <PUBCHEM_SHAPE_SELFOVERLAP>
1434.874

> <PUBCHEM_SHAPE_VOLUME>
349.5

> <PUBCHEM_COORDINATE_TYPE>
2
5
10

$$$$
