101810305
  -OEChem-03292013293D

 47 51  0     1  0  0  0  0  0999 V2000
   -2.9180   -1.4397    1.7129 O   0  0  0  0  0  0  0  0  0  0  0  0
   -1.8629    1.1330   -0.7015 O   0  0  0  0  0  0  0  0  0  0  0  0
   -1.9022   -3.8257   -0.4501 O   0  0  0  0  0  0  0  0  0  0  0  0
    2.9661   -2.8777   -0.5934 O   0  0  0  0  0  0  0  0  0  0  0  0
    0.5313    2.3624    0.7028 O   0  0  0  0  0  0  0  0  0  0  0  0
    4.9957   -1.3344   -0.4465 O   0  0  0  0  0  0  0  0  0  0  0  0
   -4.5288    1.5186   -1.1824 O   0  0  0  0  0  0  0  0  0  0  0  0
   -3.0471   -1.9410    0.3664 C   0  0  1  0  0  0  0  0  0  0  0  0
   -2.9570   -0.4687    0.6588 C   0  0  2  0  0  0  0  0  0  0  0  0
   -1.6941    0.2935    0.4411 C   0  0  1  0  0  0  0  0  0  0  0  0
   -1.8299   -2.6573   -0.0912 C   0  0  0  0  0  0  0  0  0  0  0  0
   -0.4762   -0.5580    0.1986 C   0  0  0  0  0  0  0  0  0  0  0  0
   -4.4077   -2.5090    0.0806 C   0  0  0  0  0  0  0  0  0  0  0  0
   -0.5347   -1.9354   -0.0817 C   0  0  0  0  0  0  0  0  0  0  0  0
    0.8024    0.0021    0.2013 C   0  0  0  0  0  0  0  0  0  0  0  0
    0.6359   -2.6852   -0.3435 C   0  0  0  0  0  0  0  0  0  0  0  0
    1.9766   -0.7352   -0.0558 C   0  0  0  0  0  0  0  0  0  0  0  0
    1.8974   -2.0861   -0.3313 C   0  0  0  0  0  0  0  0  0  0  0  0
   -2.4358    2.3807   -0.3440 C   0  0  1  0  0  0  0  0  0  0  0  0
    1.2314    1.4070    0.4475 C   0  0  0  0  0  0  0  0  0  0  0  0
    3.1282    0.1370    0.0201 C   0  0  0  0  0  0  0  0  0  0  0  0
    2.7017    1.4372    0.3232 C   0  0  0  0  0  0  0  0  0  0  0  0
   -1.9287    3.4306   -1.3164 C   0  0  0  0  0  0  0  0  0  0  0  0
    4.4781   -0.1166   -0.1519 C   0  0  0  0  0  0  0  0  0  0  0  0
   -3.9532    2.2648   -0.3900 C   0  0  0  0  0  0  0  0  0  0  0  0
    3.5657    2.5052    0.4638 C   0  0  0  0  0  0  0  0  0  0  0  0
    5.3771    0.9485   -0.0149 C   0  0  0  0  0  0  0  0  0  0  0  0
    4.9249    2.2460    0.2899 C   0  0  0  0  0  0  0  0  0  0  0  0
   -4.7364    3.1036    0.5875 C   0  0  0  0  0  0  0  0  0  0  0  0
   -3.8495    0.1299    0.6864 H   0  0  0  0  0  0  0  0  0  0  0  0
   -1.5007    0.8742    1.3526 H   0  0  0  0  0  0  0  0  0  0  0  0
   -5.2086   -1.8926    0.5030 H   0  0  0  0  0  0  0  0  0  0  0  0
   -4.5679   -2.5752   -1.0002 H   0  0  0  0  0  0  0  0  0  0  0  0
   -4.4999   -3.5137    0.5058 H   0  0  0  0  0  0  0  0  0  0  0  0
    0.5590   -3.7507   -0.5533 H   0  0  0  0  0  0  0  0  0  0  0  0
   -2.1388    2.6868    0.6661 H   0  0  0  0  0  0  0  0  0  0  0  0
   -2.2231    3.1841   -2.3431 H   0  0  0  0  0  0  0  0  0  0  0  0
   -0.8357    3.4832   -1.3058 H   0  0  0  0  0  0  0  0  0  0  0  0
   -2.3318    4.4201   -1.0795 H   0  0  0  0  0  0  0  0  0  0  0  0
    3.2124    3.5022    0.6984 H   0  0  0  0  0  0  0  0  0  0  0  0
    2.6701   -3.7891   -0.7581 H   0  0  0  0  0  0  0  0  0  0  0  0
    6.4459    0.7904   -0.1424 H   0  0  0  0  0  0  0  0  0  0  0  0
    5.6451    3.0537    0.3904 H   0  0  0  0  0  0  0  0  0  0  0  0
   -4.5032    4.1599    0.4346 H   0  0  0  0  0  0  0  0  0  0  0  0
   -4.4849    2.8047    1.6080 H   0  0  0  0  0  0  0  0  0  0  0  0
   -5.8076    2.9523    0.4279 H   0  0  0  0  0  0  0  0  0  0  0  0
    5.9633   -1.2712   -0.5198 H   0  0  0  0  0  0  0  0  0  0  0  0
  1  8  1  0  0  0  0
  1  9  1  0  0  0  0
  2 10  1  0  0  0  0
  2 19  1  0  0  0  0
  3 11  2  0  0  0  0
  4 18  1  0  0  0  0
  4 41  1  0  0  0  0
  5 20  2  0  0  0  0
  6 24  1  0  0  0  0
  6 47  1  0  0  0  0
  7 25  2  0  0  0  0
  8  9  1  0  0  0  0
  8 11  1  0  0  0  0
  8 13  1  0  0  0  0
  9 10  1  0  0  0  0
  9 30  1  0  0  0  0
 10 12  1  0  0  0  0
 10 31  1  0  0  0  0
 11 14  1  0  0  0  0
 12 14  1  0  0  0  0
 12 15  2  0  0  0  0
 13 32  1  0  0  0  0
 13 33  1  0  0  0  0
 13 34  1  0  0  0  0
 14 16  2  0  0  0  0
 15 17  1  0  0  0  0
 15 20  1  0  0  0  0
 16 18  1  0  0  0  0
 16 35  1  0  0  0  0
 17 18  2  0  0  0  0
 17 21  1  0  0  0  0
 19 23  1  0  0  0  0
 19 25  1  0  0  0  0
 19 36  1  0  0  0  0
 20 22  1  0  0  0  0
 21 22  2  0  0  0  0
 21 24  1  0  0  0  0
 22 26  1  0  0  0  0
 23 37  1  0  0  0  0
 23 38  1  0  0  0  0
 23 39  1  0  0  0  0
 24 27  2  0  0  0  0
 25 29  1  0  0  0  0
 26 28  2  0  0  0  0
 26 40  1  0  0  0  0
 27 28  1  0  0  0  0
 27 42  1  0  0  0  0
 28 43  1  0  0  0  0
 29 44  1  0  0  0  0
 29 45  1  0  0  0  0
 29 46  1  0  0  0  0
M  END
> <PUBCHEM_COMPOUND_CID>
101810305

> <PUBCHEM_CONFORMER_RMSD>
0.8

> <PUBCHEM_CONFORMER_DIVERSEORDER>
1
4
2
3
6
5

> <PUBCHEM_MMFF94_PARTIAL_CHARGES>
33
1 -0.3
10 0.52
11 0.48
12 -0.14
13 0.09
14 0.09
15 0.09
16 -0.15
18 0.08
19 0.34
2 -0.56
20 0.4
22 0.09
24 0.08
25 0.45
26 -0.15
27 -0.15
28 -0.15
29 0.06
3 -0.57
30 0.1
35 0.15
4 -0.53
40 0.15
41 0.45
42 0.15
43 0.15
47 0.45
5 -0.57
6 -0.53
7 -0.57
8 0.05
9 -0.05

> <PUBCHEM_EFFECTIVE_ROTOR_COUNT>
3.4

> <PUBCHEM_PHARMACOPHORE_FEATURES>
11
1 1 acceptor
1 2 acceptor
1 3 acceptor
1 4 donor
1 5 acceptor
1 6 donor
1 7 acceptor
5 15 17 20 21 22 rings
6 12 14 15 16 17 18 rings
6 21 22 24 26 27 28 rings
7 1 8 9 10 11 12 14 rings

> <PUBCHEM_HEAVY_ATOM_COUNT>
29

> <PUBCHEM_ATOM_DEF_STEREO_COUNT>
3

> <PUBCHEM_ATOM_UDEF_STEREO_COUNT>
1

> <PUBCHEM_BOND_DEF_STEREO_COUNT>
0

> <PUBCHEM_BOND_UDEF_STEREO_COUNT>
0

> <PUBCHEM_ISOTOPIC_ATOM_COUNT>
0

> <PUBCHEM_COMPONENT_COUNT>
1

> <PUBCHEM_CACTVS_TAUTO_COUNT>
68

> <PUBCHEM_CONFORMER_ID>
0611808100000001

> <PUBCHEM_MMFF94_ENERGY>
94.9966

> <PUBCHEM_FEATURE_SELFOVERLAP>
56.017

> <PUBCHEM_SHAPE_FINGERPRINT>
10165383 225 18338241440535819097
10411042 1 17689715685138641626
10670039 82 18188786066708088476
10675989 125 17545310883081052645
1100329 8 18121496847945664914
11014199 57 17761497293114900011
11115154 58 17629178689313494455
11595378 159 17971168543268305696
12107183 9 18191012410107971010
12403259 226 18269271442503970794
12403259 415 18272089456963596392
12422481 6 18190488071963262321
12788726 201 18189888893412020931
13140716 1 18265053539690391339
133893 2 15911939192830287941
13402501 40 18410292489022164101
138480 1 17186155367027988703
13944108 23 16386473915680377356
140371 6 18117005592328245683
14223421 5 18410859871207560194
14251751 93 18337667611471636194
14790565 3 17980769238083884369
14955137 171 17759250982934103131
15196674 1 18411420626775324842
17980427 23 17458914841715362396
19591789 44 18340771528686737066
21033648 144 18335128761455572516
21033648 29 18272078453199544024
21236236 1 18410854386734711801
21267235 1 18197792183446427682
21279426 13 18341621374213834550
22182313 1 18339940237218080599
22393880 68 18412550907775734390
23227448 37 18412260657642663948
23558518 356 18260550077427952242
23559900 14 18270117886617806058
335352 9 18339924789001237534
3380486 145 18337689576272427265
350125 39 18340210798714345833
508706 21 18410290332726671854
5104073 3 18407755937424631000
5265222 85 18194695989310746420
9709674 26 18339922597771305436

> <PUBCHEM_SHAPE_MULTIPOLES>
555.72
10.04
4.58
0.9
5.09
0.17
-0.02
-4.16
-0.03
-3.68
0.71
-0.57
-0.23
1.32

> <PUBCHEM_SHAPE_SELFOVERLAP>
1254.145

> <PUBCHEM_SHAPE_VOLUME>
291.1

> <PUBCHEM_COORDINATE_TYPE>
2
5
10

$$$$
