101849408
  -OEChem-03292013293D

 56 58  0     1  0  0  0  0  0999 V2000
   -3.4349    1.3837   -0.3147 O   0  0  0  0  0  0  0  0  0  0  0  0
    0.5809    0.7066    0.4863 O   0  0  0  0  0  0  0  0  0  0  0  0
    1.7754   -2.3569    0.4408 O   0  0  0  0  0  0  0  0  0  0  0  0
   -3.7369    3.6560   -0.0823 O   0  0  0  0  0  0  0  0  0  0  0  0
    2.3157    0.9322    1.9821 O   0  0  0  0  0  0  0  0  0  0  0  0
    2.8654   -4.3930    0.3806 O   0  0  0  0  0  0  0  0  0  0  0  0
    1.3910    1.3542   -2.3544 O   0  0  0  0  0  0  0  0  0  0  0  0
    4.8364    3.6420   -1.4477 O   0  0  0  0  0  0  0  0  0  0  0  0
   -2.3337    0.4839   -0.0743 C   0  0  2  0  0  0  0  0  0  0  0  0
   -2.8013   -0.9769    0.0356 C   0  0  2  0  0  0  0  0  0  0  0  0
   -1.7351    1.0084    1.2277 C   0  0  1  0  0  0  0  0  0  0  0  0
   -0.3323    0.5069    1.5626 C   0  0  1  0  0  0  0  0  0  0  0  0
   -1.6232   -1.9527    0.0131 C   0  0  0  0  0  0  0  0  0  0  0  0
   -0.3165   -0.9793    1.9475 C   0  0  0  0  0  0  0  0  0  0  0  0
   -0.5457   -1.9685    0.8244 C   0  0  0  0  0  0  0  0  0  0  0  0
   -3.6678   -1.4447   -1.1210 C   0  0  0  0  0  0  0  0  0  0  0  0
   -1.8496   -2.9284   -1.1219 C   0  0  0  0  0  0  0  0  0  0  0  0
   -1.9180    2.4721    0.9898 C   0  0  0  0  0  0  0  0  0  0  0  0
   -3.1385   -2.5080   -1.7394 C   0  0  0  0  0  0  0  0  0  0  0  0
   -3.1201    2.6314    0.1431 C   0  0  0  0  0  0  0  0  0  0  0  0
    0.5468   -3.0030    0.6990 C   0  0  0  0  0  0  0  0  0  0  0  0
   -4.9940   -0.8487   -1.4430 C   0  0  0  0  0  0  0  0  0  0  0  0
   -1.2016    3.5241    1.3924 C   0  0  0  0  0  0  0  0  0  0  0  0
    1.8825    0.9094    0.8385 C   0  0  0  0  0  0  0  0  0  0  0  0
    2.7156    1.0968   -0.3886 C   0  0  0  0  0  0  0  0  0  0  0  0
    2.8698   -3.1720    0.3008 C   0  0  0  0  0  0  0  0  0  0  0  0
    2.2654    0.4646   -1.6739 C   0  0  0  0  0  0  0  0  0  0  0  0
    3.7991    1.8831   -0.2433 C   0  0  0  0  0  0  0  0  0  0  0  0
    4.0958   -2.3530    0.0323 C   0  0  0  0  0  0  0  0  0  0  0  0
    4.8093    2.2298   -1.2919 C   0  0  0  0  0  0  0  0  0  0  0  0
   -1.6435    0.5935   -0.9241 H   0  0  0  0  0  0  0  0  0  0  0  0
   -3.3846   -1.1266    0.9540 H   0  0  0  0  0  0  0  0  0  0  0  0
   -2.4025    0.7548    2.0653 H   0  0  0  0  0  0  0  0  0  0  0  0
   -0.0016    1.0711    2.4456 H   0  0  0  0  0  0  0  0  0  0  0  0
   -1.0583   -1.1686    2.7347 H   0  0  0  0  0  0  0  0  0  0  0  0
    0.6519   -1.1921    2.4188 H   0  0  0  0  0  0  0  0  0  0  0  0
   -1.9376   -3.9542   -0.7494 H   0  0  0  0  0  0  0  0  0  0  0  0
   -1.0468   -2.8663   -1.8637 H   0  0  0  0  0  0  0  0  0  0  0  0
   -3.5963   -3.0283   -2.5690 H   0  0  0  0  0  0  0  0  0  0  0  0
    0.3490   -3.7268   -0.0977 H   0  0  0  0  0  0  0  0  0  0  0  0
    0.6144   -3.5605    1.6419 H   0  0  0  0  0  0  0  0  0  0  0  0
   -5.5723   -1.4973   -2.1100 H   0  0  0  0  0  0  0  0  0  0  0  0
   -4.8797    0.1165   -1.9437 H   0  0  0  0  0  0  0  0  0  0  0  0
   -5.5824   -0.7081   -0.5309 H   0  0  0  0  0  0  0  0  0  0  0  0
   -0.3189    3.4000    2.0097 H   0  0  0  0  0  0  0  0  0  0  0  0
   -1.4746    4.5377    1.1186 H   0  0  0  0  0  0  0  0  0  0  0  0
    1.7331   -0.4735   -1.4888 H   0  0  0  0  0  0  0  0  0  0  0  0
    3.1056    0.2249   -2.3317 H   0  0  0  0  0  0  0  0  0  0  0  0
    4.0139    2.3153    0.7333 H   0  0  0  0  0  0  0  0  0  0  0  0
    4.0437   -1.9279   -0.9721 H   0  0  0  0  0  0  0  0  0  0  0  0
    4.9799   -2.9935    0.1003 H   0  0  0  0  0  0  0  0  0  0  0  0
    4.1901   -1.5647    0.7834 H   0  0  0  0  0  0  0  0  0  0  0  0
    4.5935    1.7863   -2.2660 H   0  0  0  0  0  0  0  0  0  0  0  0
    5.8008    1.8958   -0.9700 H   0  0  0  0  0  0  0  0  0  0  0  0
    1.1068    0.9074   -3.1699 H   0  0  0  0  0  0  0  0  0  0  0  0
    5.5219    3.8436   -2.1073 H   0  0  0  0  0  0  0  0  0  0  0  0
  1  9  1  0  0  0  0
  1 20  1  0  0  0  0
  2 12  1  0  0  0  0
  2 24  1  0  0  0  0
  3 21  1  0  0  0  0
  3 26  1  0  0  0  0
  4 20  2  0  0  0  0
  5 24  2  0  0  0  0
  6 26  2  0  0  0  0
  7 27  1  0  0  0  0
  7 55  1  0  0  0  0
  8 30  1  0  0  0  0
  8 56  1  0  0  0  0
  9 10  1  0  0  0  0
  9 11  1  0  0  0  0
  9 31  1  0  0  0  0
 10 13  1  0  0  0  0
 10 16  1  0  0  0  0
 10 32  1  0  0  0  0
 11 12  1  0  0  0  0
 11 18  1  0  0  0  0
 11 33  1  0  0  0  0
 12 14  1  0  0  0  0
 12 34  1  0  0  0  0
 13 15  2  0  0  0  0
 13 17  1  0  0  0  0
 14 15  1  0  0  0  0
 14 35  1  0  0  0  0
 14 36  1  0  0  0  0
 15 21  1  0  0  0  0
 16 19  2  0  0  0  0
 16 22  1  0  0  0  0
 17 19  1  0  0  0  0
 17 37  1  0  0  0  0
 17 38  1  0  0  0  0
 18 20  1  0  0  0  0
 18 23  2  0  0  0  0
 19 39  1  0  0  0  0
 21 40  1  0  0  0  0
 21 41  1  0  0  0  0
 22 42  1  0  0  0  0
 22 43  1  0  0  0  0
 22 44  1  0  0  0  0
 23 45  1  0  0  0  0
 23 46  1  0  0  0  0
 24 25  1  0  0  0  0
 25 27  1  0  0  0  0
 25 28  2  0  0  0  0
 26 29  1  0  0  0  0
 27 47  1  0  0  0  0
 27 48  1  0  0  0  0
 28 30  1  0  0  0  0
 28 49  1  0  0  0  0
 29 50  1  0  0  0  0
 29 51  1  0  0  0  0
 29 52  1  0  0  0  0
 30 53  1  0  0  0  0
 30 54  1  0  0  0  0
M  END
> <PUBCHEM_COMPOUND_CID>
101849408

> <PUBCHEM_CONFORMER_RMSD>
1

> <PUBCHEM_CONFORMER_DIVERSEORDER>
1
7
12
10
11
14
3
5
9
8
2
6
15
13
4

> <PUBCHEM_MMFF94_PARTIAL_CHARGES>
36
1 -0.43
10 0.28
11 0.14
12 0.28
13 -0.28
14 0.14
15 -0.28
16 -0.28
17 0.28
18 -0.12
19 -0.29
2 -0.43
20 0.71
21 0.42
22 0.14
23 -0.3
24 0.71
25 -0.12
26 0.66
27 0.42
28 -0.29
29 0.06
3 -0.43
30 0.42
39 0.15
4 -0.57
45 0.15
46 0.15
49 0.15
5 -0.57
55 0.4
56 0.4
6 -0.57
7 -0.68
8 -0.68
9 0.28

> <PUBCHEM_EFFECTIVE_ROTOR_COUNT>
8.8

> <PUBCHEM_PHARMACOPHORE_FEATURES>
10
1 4 acceptor
1 5 acceptor
1 6 acceptor
1 7 acceptor
1 7 donor
1 8 acceptor
1 8 donor
5 1 9 11 18 20 rings
5 10 13 16 17 19 rings
7 9 10 11 12 13 14 15 rings

> <PUBCHEM_HEAVY_ATOM_COUNT>
30

> <PUBCHEM_ATOM_DEF_STEREO_COUNT>
4

> <PUBCHEM_ATOM_UDEF_STEREO_COUNT>
0

> <PUBCHEM_BOND_DEF_STEREO_COUNT>
1

> <PUBCHEM_BOND_UDEF_STEREO_COUNT>
0

> <PUBCHEM_ISOTOPIC_ATOM_COUNT>
0

> <PUBCHEM_COMPONENT_COUNT>
1

> <PUBCHEM_CACTVS_TAUTO_COUNT>
2

> <PUBCHEM_CONFORMER_ID>
0612194000000001

> <PUBCHEM_MMFF94_ENERGY>
57.1758

> <PUBCHEM_FEATURE_SELFOVERLAP>
50.797

> <PUBCHEM_SHAPE_FINGERPRINT>
10756046 5 18341043021769152723
1100329 8 18055063260384006755
121448 382 18126299759833275488
12539773 59 15584623712194326063
12553582 1 18197208372725696931
12788726 201 18339642368446283185
13140716 1 18200026215175211915
133893 2 17895187771288203162
13583140 156 17536610504095158627
13642711 20 17766525286811205805
13911987 19 17830460831461960372
14790565 3 17194036700714975529
14955137 171 17547036034104246171
15664445 248 17911785075597968665
20600515 1 17480281801184939865
20691752 17 17532366470294244602
20905425 154 18130495422774050623
22113638 7 17834957473369034906
22393880 68 18271817813177290100
22907989 373 17827658154990464348
23558518 356 18335415725716998555
23559900 14 17486186943574205818
25265897 201 17698189282009037342
266924 87 18338237179769447274
340366 18 18051128090565938021
350125 39 18198054782210177403
4409770 3 17686351162978469714
463206 1 18198049485704053534
469060 322 17974595763834831307
59554788 191 18126838296966265879
9981440 41 18263084482369526578

> <PUBCHEM_SHAPE_MULTIPOLES>
570.43
8.3
5.28
1.8
3.56
0.68
0.26
-2.63
4.73
1.53
-0.26
0.3
-0.38
-2.97

> <PUBCHEM_SHAPE_SELFOVERLAP>
1204.751

> <PUBCHEM_SHAPE_VOLUME>
318.8

> <PUBCHEM_COORDINATE_TYPE>
2
5
10

$$$$
