101835237
  -OEChem-03292013293D

 43 45  0     1  0  0  0  0  0999 V2000
    2.7368   -2.1293    0.1295 S   0  0  2  0  0  0  0  0  0  0  0  0
    2.5932   -2.9452   -1.1230 O   0  0  0  0  0  0  0  0  0  0  0  0
    2.4849    2.1181    1.3344 O   0  0  0  0  0  0  0  0  0  0  0  0
    3.7876    2.5585   -0.9568 O   0  0  0  0  0  0  0  0  0  0  0  0
    5.7874    1.4667   -0.8879 O   0  0  0  0  0  0  0  0  0  0  0  0
   -1.4207   -1.5342    1.1530 O   0  0  0  0  0  0  0  0  0  0  0  0
   -3.8909   -0.4847    0.9054 O   0  0  0  0  0  0  0  0  0  0  0  0
    2.3945    0.5056   -0.3909 N   0  0  0  0  0  0  0  0  0  0  0  0
   -0.3902    0.5402    0.9561 N   0  0  0  0  0  0  0  0  0  0  0  0
    1.5377   -0.6655   -0.1433 C   0  0  2  0  0  0  0  0  0  0  0  0
    4.2499   -0.9965   -0.0993 C   0  0  0  0  0  0  0  0  0  0  0  0
    3.7231    0.2134   -0.8879 C   0  0  2  0  0  0  0  0  0  0  0  0
    0.9839    0.0776    1.0862 C   0  0  1  0  0  0  0  0  0  0  0  0
    2.0464    1.1422    0.7675 C   0  0  0  0  0  0  0  0  0  0  0  0
    4.7875   -0.6836    1.3050 C   0  0  0  0  0  0  0  0  0  0  0  0
    5.3207   -1.7561   -0.8917 C   0  0  0  0  0  0  0  0  0  0  0  0
    4.5658    1.4496   -0.9102 C   0  0  0  0  0  0  0  0  0  0  0  0
   -1.4927   -0.3176    1.0011 C   0  0  0  0  0  0  0  0  0  0  0  0
   -2.8060    0.4165    0.8403 C   0  0  0  0  0  0  0  0  0  0  0  0
   -5.0206   -0.1593    0.1923 C   0  0  0  0  0  0  0  0  0  0  0  0
   -5.3483    1.1793   -0.0227 C   0  0  0  0  0  0  0  0  0  0  0  0
   -5.8387   -1.1679   -0.3163 C   0  0  0  0  0  0  0  0  0  0  0  0
   -6.4943    1.5094   -0.7462 C   0  0  0  0  0  0  0  0  0  0  0  0
   -6.9846   -0.8380   -1.0399 C   0  0  0  0  0  0  0  0  0  0  0  0
   -7.3125    0.5007   -1.2548 C   0  0  0  0  0  0  0  0  0  0  0  0
    0.8352   -0.8456   -0.9636 H   0  0  0  0  0  0  0  0  0  0  0  0
    3.5745   -0.0683   -1.9397 H   0  0  0  0  0  0  0  0  0  0  0  0
    1.1598   -0.4177    2.0475 H   0  0  0  0  0  0  0  0  0  0  0  0
    4.9738   -2.0145   -1.8984 H   0  0  0  0  0  0  0  0  0  0  0  0
    5.6674   -0.0339    1.2641 H   0  0  0  0  0  0  0  0  0  0  0  0
    4.0435   -0.1979    1.9424 H   0  0  0  0  0  0  0  0  0  0  0  0
    6.2332   -1.1609   -1.0004 H   0  0  0  0  0  0  0  0  0  0  0  0
    5.0893   -1.6029    1.8216 H   0  0  0  0  0  0  0  0  0  0  0  0
    5.5949   -2.6932   -0.3932 H   0  0  0  0  0  0  0  0  0  0  0  0
   -0.5765    1.5325    0.8293 H   0  0  0  0  0  0  0  0  0  0  0  0
    4.3221    3.3810   -0.9697 H   0  0  0  0  0  0  0  0  0  0  0  0
   -2.8932    1.1536    1.6466 H   0  0  0  0  0  0  0  0  0  0  0  0
   -2.7521    0.9273   -0.1304 H   0  0  0  0  0  0  0  0  0  0  0  0
   -4.7521    1.9933    0.3790 H   0  0  0  0  0  0  0  0  0  0  0  0
   -5.5881   -2.2123   -0.1520 H   0  0  0  0  0  0  0  0  0  0  0  0
   -6.7533    2.5516   -0.9087 H   0  0  0  0  0  0  0  0  0  0  0  0
   -7.6219   -1.6234   -1.4357 H   0  0  0  0  0  0  0  0  0  0  0  0
   -8.2055    0.7575   -1.8169 H   0  0  0  0  0  0  0  0  0  0  0  0
  1  2  2  0  0  0  0
  1 10  1  0  0  0  0
  1 11  1  0  0  0  0
  3 14  2  0  0  0  0
  4 17  1  0  0  0  0
  4 36  1  0  0  0  0
  5 17  2  0  0  0  0
  6 18  2  0  0  0  0
  7 19  1  0  0  0  0
  7 20  1  0  0  0  0
  8 10  1  0  0  0  0
  8 12  1  0  0  0  0
  8 14  1  0  0  0  0
  9 13  1  0  0  0  0
  9 18  1  0  0  0  0
  9 35  1  0  0  0  0
 10 13  1  0  0  0  0
 10 26  1  0  0  0  0
 11 12  1  0  0  0  0
 11 15  1  0  0  0  0
 11 16  1  0  0  0  0
 12 17  1  0  0  0  0
 12 27  1  0  0  0  0
 13 14  1  0  0  0  0
 13 28  1  0  0  0  0
 15 30  1  0  0  0  0
 15 31  1  0  0  0  0
 15 33  1  0  0  0  0
 16 29  1  0  0  0  0
 16 32  1  0  0  0  0
 16 34  1  0  0  0  0
 18 19  1  0  0  0  0
 19 37  1  0  0  0  0
 19 38  1  0  0  0  0
 20 21  2  0  0  0  0
 20 22  1  0  0  0  0
 21 23  1  0  0  0  0
 21 39  1  0  0  0  0
 22 24  2  0  0  0  0
 22 40  1  0  0  0  0
 23 25  2  0  0  0  0
 23 41  1  0  0  0  0
 24 25  1  0  0  0  0
 24 42  1  0  0  0  0
 25 43  1  0  0  0  0
M  END
> <PUBCHEM_COMPOUND_CID>
101835237

> <PUBCHEM_CONFORMER_RMSD>
0.8

> <PUBCHEM_CONFORMER_DIVERSEORDER>
1
68
15
139
126
11
94
120
107
141
154
131
150
149
151
31
132
143
27
144
112
23
88
61
2
48
64
32
105
99
22
56
121
21
114
49
87
7
110
14
86
80
3
116
43
74
78
138
28
54
100
71
10
79
73
134
39
47
152
77
135
148
81
50
91
18
122
118
93
109
65
19
146
133
129
108
102
46
62
60
106
90
66
97
25
136
20
53
37
33
35
4
92
38
30
115
142
58
59
123
17
104
117
12
85
95
140
111
124
45
52
84
44
34
101
130
137
40
89
57
6
8
82
156
67
75
83
72
98
125
55
155
147
63
113
145
29
96
42
127
9
69
128
13
119
41
76
16
24
153
70
51
103
36
5
26

> <PUBCHEM_MMFF94_PARTIAL_CHARGES>
30
1 0.13
10 0.4
11 0.19
12 0.36
13 0.28
14 0.58
17 0.66
18 0.57
19 0.34
2 -0.5
20 0.08
21 -0.15
22 -0.15
23 -0.15
24 -0.15
25 -0.15
3 -0.57
35 0.37
36 0.5
39 0.15
4 -0.65
40 0.15
41 0.15
42 0.15
43 0.15
5 -0.57
6 -0.57
7 -0.36
8 -0.59
9 -0.65

> <PUBCHEM_EFFECTIVE_ROTOR_COUNT>
6.6

> <PUBCHEM_PHARMACOPHORE_FEATURES>
12
1 2 acceptor
1 3 acceptor
1 4 acceptor
1 5 acceptor
1 6 acceptor
1 7 acceptor
1 9 donor
3 11 15 16 hydrophobe
3 4 5 17 anion
4 8 10 13 14 rings
6 20 21 22 23 24 25 rings
7 1 8 10 11 12 13 14 rings

> <PUBCHEM_HEAVY_ATOM_COUNT>
25

> <PUBCHEM_ATOM_DEF_STEREO_COUNT>
3

> <PUBCHEM_ATOM_UDEF_STEREO_COUNT>
1

> <PUBCHEM_BOND_DEF_STEREO_COUNT>
0

> <PUBCHEM_BOND_UDEF_STEREO_COUNT>
0

> <PUBCHEM_ISOTOPIC_ATOM_COUNT>
0

> <PUBCHEM_COMPONENT_COUNT>
1

> <PUBCHEM_CACTVS_TAUTO_COUNT>
2

> <PUBCHEM_CONFORMER_ID>
0611E1E500000001

> <PUBCHEM_MMFF94_ENERGY>
71.61

> <PUBCHEM_FEATURE_SELFOVERLAP>
64.839

> <PUBCHEM_SHAPE_FINGERPRINT>
10595046 47 18411419493109686933
10670039 82 17095802101763204397
10693767 8 17845108285640854286
11069576 57 17987523606400382694
11089746 13 17676485034340592801
11135609 127 18337382841881242604
11719270 70 18343015580327166474
12166972 35 14764633027055390931
12516196 113 12967125026015754371
13668630 136 16343983633296816069
14528608 73 18259700112744128985
15183329 4 18409730630311773617
15238133 3 14129062529727066781
15348495 7 9295283955073010869
15475509 35 13326304615607237716
15716309 27 11959730482699482109
16993427 108 16881861233976380346
17857418 61 17847056662967793147
18222031 100 16630531734455427608
20157964 124 18334579039979933519
20281389 69 16443059487835615581
20645477 70 18410864243895717754
21150785 3 17132117974153723744
22061861 79 18272366460905231815
221357 26 18408601435827944109
22289505 5 18335139786662851572
22956985 138 16269418988811172806
23081809 10 17846508002006276859
23198884 109 18113615686763966487
23522609 53 17630075778320376065
23559900 14 18342735260669791625
2838139 119 17458618983304315117
29717793 49 18342179929587361238
3004659 81 18411697656012829155
3383291 50 14045444697307378453
3472631 163 17095809930966260709
3663271 9 9007054678348485581
4073 2 17530972426946954435
439807 62 18201716298002956263
474113 269 17896315815259926610
59682541 52 18341041935680289311
960060 61 18341896290231898521

> <PUBCHEM_SHAPE_MULTIPOLES>
473.16
18.98
2.24
1.32
29.83
0.13
0.08
-1.29
-7.77
-2.84
-0.53
-0.32
-0.07
0.04

> <PUBCHEM_SHAPE_SELFOVERLAP>
989.779

> <PUBCHEM_SHAPE_VOLUME>
267.8

> <PUBCHEM_COORDINATE_TYPE>
2
5
10

$$$$
