101835682
  -OEChem-03292013293D

 54 58  0     1  0  0  0  0  0999 V2000
    2.5846   -0.1392   -1.0327 O   0  0  0  0  0  0  0  0  0  0  0  0
    1.1931    1.1810    0.3645 O   0  0  0  0  0  0  0  0  0  0  0  0
    5.3141    2.4525    0.7092 O   0  0  0  0  0  0  0  0  0  0  0  0
    5.3256   -0.3101    1.4263 O   0  0  0  0  0  0  0  0  0  0  0  0
    3.9571    2.2919   -1.7152 O   0  0  0  0  0  0  0  0  0  0  0  0
   -3.5263    0.2684    0.3490 O   0  0  0  0  0  0  0  0  0  0  0  0
   -0.7633   -1.4537   -1.3507 O   0  0  0  0  0  0  0  0  0  0  0  0
   -1.1044    0.1949    3.1464 O   0  0  0  0  0  0  0  0  0  0  0  0
   -5.7799   -0.1393    0.3316 O   0  0  0  0  0  0  0  0  0  0  0  0
   -0.5950   -2.2683   -3.4846 O   0  0  0  0  0  0  0  0  0  0  0  0
    4.1660    1.6140    0.6015 C   0  0  2  0  0  0  0  0  0  0  0  0
    4.6135    0.1843    0.2947 C   0  0  2  0  0  0  0  0  0  0  0  0
    3.2356    2.1430   -0.4914 C   0  0  2  0  0  0  0  0  0  0  0  0
    3.3924   -0.7003    0.0070 C   0  0  2  0  0  0  0  0  0  0  0  0
    2.0846    1.1711   -0.7452 C   0  0  1  0  0  0  0  0  0  0  0  0
    3.7949   -2.1004   -0.4477 C   0  0  0  0  0  0  0  0  0  0  0  0
   -0.0969    1.5671    0.1143 C   0  0  0  0  0  0  0  0  0  0  0  0
   -1.1691    0.7126    0.3609 C   0  0  0  0  0  0  0  0  0  0  0  0
   -0.9362   -0.6179    0.8908 C   0  0  0  0  0  0  0  0  0  0  0  0
   -2.4619    1.1557    0.0892 C   0  0  0  0  0  0  0  0  0  0  0  0
   -0.3250    2.8467   -0.3972 C   0  0  0  0  0  0  0  0  0  0  0  0
   -2.7083    2.4276   -0.4209 C   0  0  0  0  0  0  0  0  0  0  0  0
   -1.6276    3.2779   -0.6650 C   0  0  0  0  0  0  0  0  0  0  0  0
   -0.7343   -1.7004    0.0371 C   0  0  0  0  0  0  0  0  0  0  0  0
   -0.9132   -0.8304    2.2674 C   0  0  0  0  0  0  0  0  0  0  0  0
   -0.5105   -2.9856    0.5238 C   0  0  0  0  0  0  0  0  0  0  0  0
   -4.0817    2.8244   -0.6812 C   0  0  0  0  0  0  0  0  0  0  0  0
   -0.6899   -2.1130    2.7739 C   0  0  0  0  0  0  0  0  0  0  0  0
   -0.4889   -3.1898    1.9053 C   0  0  0  0  0  0  0  0  0  0  0  0
   -5.0841    1.9781   -0.4325 C   0  0  0  0  0  0  0  0  0  0  0  0
   -0.3078   -4.0684   -0.4237 C   0  0  0  0  0  0  0  0  0  0  0  0
   -4.8486    0.6264    0.1079 C   0  0  0  0  0  0  0  0  0  0  0  0
   -0.3368   -3.8266   -1.7364 C   0  0  0  0  0  0  0  0  0  0  0  0
   -0.5718   -2.4745   -2.2763 C   0  0  0  0  0  0  0  0  0  0  0  0
    3.6596    1.6422    1.5744 H   0  0  0  0  0  0  0  0  0  0  0  0
    5.3068    0.1851   -0.5546 H   0  0  0  0  0  0  0  0  0  0  0  0
    2.8725    3.1359   -0.2043 H   0  0  0  0  0  0  0  0  0  0  0  0
    2.7811   -0.8135    0.9118 H   0  0  0  0  0  0  0  0  0  0  0  0
    1.5662    1.4677   -1.6663 H   0  0  0  0  0  0  0  0  0  0  0  0
    4.3792   -2.0575   -1.3734 H   0  0  0  0  0  0  0  0  0  0  0  0
    2.9047   -2.7004   -0.6658 H   0  0  0  0  0  0  0  0  0  0  0  0
    4.3834   -2.6175    0.3158 H   0  0  0  0  0  0  0  0  0  0  0  0
    5.0012    3.3538    0.8971 H   0  0  0  0  0  0  0  0  0  0  0  0
    4.7100   -0.3443    2.1783 H   0  0  0  0  0  0  0  0  0  0  0  0
    3.3520    2.6858   -2.3667 H   0  0  0  0  0  0  0  0  0  0  0  0
    0.4992    3.5292   -0.5845 H   0  0  0  0  0  0  0  0  0  0  0  0
   -1.7838    4.2783   -1.0608 H   0  0  0  0  0  0  0  0  0  0  0  0
   -4.2775    3.8141   -1.0786 H   0  0  0  0  0  0  0  0  0  0  0  0
   -0.6694   -2.2903    3.8462 H   0  0  0  0  0  0  0  0  0  0  0  0
   -0.3166   -4.1800    2.3196 H   0  0  0  0  0  0  0  0  0  0  0  0
   -6.1117    2.2671   -0.6242 H   0  0  0  0  0  0  0  0  0  0  0  0
   -0.1328   -5.0705   -0.0484 H   0  0  0  0  0  0  0  0  0  0  0  0
   -0.1858   -4.6295   -2.4497 H   0  0  0  0  0  0  0  0  0  0  0  0
   -1.0528   -0.1493    4.0545 H   0  0  0  0  0  0  0  0  0  0  0  0
  1 14  1  0  0  0  0
  1 15  1  0  0  0  0
  2 15  1  0  0  0  0
  2 17  1  0  0  0  0
  3 11  1  0  0  0  0
  3 43  1  0  0  0  0
  4 12  1  0  0  0  0
  4 44  1  0  0  0  0
  5 13  1  0  0  0  0
  5 45  1  0  0  0  0
  6 20  1  0  0  0  0
  6 32  1  0  0  0  0
  7 24  1  0  0  0  0
  7 34  1  0  0  0  0
  8 25  1  0  0  0  0
  8 54  1  0  0  0  0
  9 32  2  0  0  0  0
 10 34  2  0  0  0  0
 11 12  1  0  0  0  0
 11 13  1  0  0  0  0
 11 35  1  0  0  0  0
 12 14  1  0  0  0  0
 12 36  1  0  0  0  0
 13 15  1  0  0  0  0
 13 37  1  0  0  0  0
 14 16  1  0  0  0  0
 14 38  1  0  0  0  0
 15 39  1  0  0  0  0
 16 40  1  0  0  0  0
 16 41  1  0  0  0  0
 16 42  1  0  0  0  0
 17 18  2  0  0  0  0
 17 21  1  0  0  0  0
 18 19  1  0  0  0  0
 18 20  1  0  0  0  0
 19 24  1  0  0  0  0
 19 25  2  0  0  0  0
 20 22  2  0  0  0  0
 21 23  2  0  0  0  0
 21 46  1  0  0  0  0
 22 23  1  0  0  0  0
 22 27  1  0  0  0  0
 23 47  1  0  0  0  0
 24 26  2  0  0  0  0
 25 28  1  0  0  0  0
 26 29  1  0  0  0  0
 26 31  1  0  0  0  0
 27 30  2  0  0  0  0
 27 48  1  0  0  0  0
 28 29  2  0  0  0  0
 28 49  1  0  0  0  0
 29 50  1  0  0  0  0
 30 32  1  0  0  0  0
 30 51  1  0  0  0  0
 31 33  2  0  0  0  0
 31 52  1  0  0  0  0
 33 34  1  0  0  0  0
 33 53  1  0  0  0  0
M  END
> <PUBCHEM_COMPOUND_CID>
101835682

> <PUBCHEM_CONFORMER_RMSD>
0.8

> <PUBCHEM_CONFORMER_DIVERSEORDER>
1
75
45
51
72
6
47
59
70
66
18
19
74
5
31
57
61
60
32
63
65
55
7
64
58
27
73
56
71
49
69
17
54
30
20
12
43
46
15
42
16
34
35
53
29
33
37
40
44
48
52
28
14
22
62
8
38
50
10
26
21
25
9
23
39
41
36
68
11
24
13
67
4
3
2

> <PUBCHEM_MMFF94_PARTIAL_CHARGES>
43
1 -0.56
10 -0.57
11 0.28
12 0.28
13 0.28
14 0.28
15 0.56
17 0.08
2 -0.36
20 0.08
21 -0.15
22 0.03
23 -0.15
24 0.08
25 0.08
26 0.03
27 -0.18
28 -0.15
29 -0.15
3 -0.68
30 -0.14
31 -0.18
32 0.71
33 -0.14
34 0.71
4 -0.68
43 0.4
44 0.4
45 0.4
46 0.15
47 0.15
48 0.15
49 0.15
5 -0.68
50 0.15
51 0.15
52 0.15
53 0.15
54 0.45
6 -0.23
7 -0.23
8 -0.53
9 -0.57

> <PUBCHEM_EFFECTIVE_ROTOR_COUNT>
4.2

> <PUBCHEM_PHARMACOPHORE_FEATURES>
16
1 1 acceptor
1 10 acceptor
1 2 acceptor
1 3 acceptor
1 3 donor
1 4 acceptor
1 4 donor
1 5 acceptor
1 5 donor
1 8 donor
1 9 acceptor
6 1 11 12 13 14 15 rings
6 17 18 20 21 22 23 rings
6 19 24 25 26 28 29 rings
6 6 20 22 27 30 32 rings
6 7 24 26 31 33 34 rings

> <PUBCHEM_HEAVY_ATOM_COUNT>
34

> <PUBCHEM_ATOM_DEF_STEREO_COUNT>
5

> <PUBCHEM_ATOM_UDEF_STEREO_COUNT>
0

> <PUBCHEM_BOND_DEF_STEREO_COUNT>
0

> <PUBCHEM_BOND_UDEF_STEREO_COUNT>
0

> <PUBCHEM_ISOTOPIC_ATOM_COUNT>
0

> <PUBCHEM_COMPONENT_COUNT>
1

> <PUBCHEM_CACTVS_TAUTO_COUNT>
7

> <PUBCHEM_CONFORMER_ID>
0611E3A200000001

> <PUBCHEM_MMFF94_ENERGY>
124.4811

> <PUBCHEM_FEATURE_SELFOVERLAP>
81.31

> <PUBCHEM_SHAPE_FINGERPRINT>
11488393 25 18126854789809364131
11578080 2 17199385141921222529
11828532 37 16955087948588416075
12156800 1 17269424973203271878
12553582 1 17614578355226098994
12788726 201 18118675762916816779
133893 2 17626412037534525307
1361 2 18413107242872838893
14674994 50 16986320644871806839
14955137 171 16035227195641443449
15131766 46 15215005209671081340
15274700 242 18190716770191818418
15664445 248 17331397567977143427
17980427 23 12901831554681765181
20197701 30 18334850589529946133
20567600 347 18189338974568528173
20691752 17 16522750788645825357
20905425 154 17110156024047122558
21133665 82 18338518526793931556
23559900 14 17474943230420297399
23598288 3 17972336258696907100
23728640 28 18409725188366800226
3298306 158 18265613186861220340
3383291 50 18260261911446531402
376196 1 18263076617847317105
38695281 34 18341887442783911215
469060 322 17692540326726705298
59755656 215 17973160634889026165
6138700 20 17973163924907691386

> <PUBCHEM_SHAPE_MULTIPOLES>
641.01
8.89
4.88
2.22
1.89
2.57
-0.11
-7.7
-0.51
-0.15
1.5
-0.13
2.26
0.53

> <PUBCHEM_SHAPE_SELFOVERLAP>
1426.343

> <PUBCHEM_SHAPE_VOLUME>
339.6

> <PUBCHEM_COORDINATE_TYPE>
2
5
10

$$$$
