101880326
  -OEChem-03292013293D

 43 45  0     1  0  0  0  0  0999 V2000
   -4.8948    0.2063   -2.5109 Cl  0  0  0  0  0  0  0  0  0  0  0  0
    0.7495    2.9576   -1.4181 O   0  0  0  0  0  0  0  0  0  0  0  0
    2.1794    3.9839    0.0005 O   0  0  0  0  0  0  0  0  0  0  0  0
   -1.4011    1.2009    2.3849 O   0  0  0  0  0  0  0  0  0  0  0  0
   -1.8159   -1.7036    2.1186 O   0  0  0  0  0  0  0  0  0  0  0  0
   -0.2343    1.3403    0.3855 N   0  0  0  0  0  0  0  0  0  0  0  0
    3.8786   -0.2323   -1.3217 N   0  0  0  0  0  0  0  0  0  0  0  0
    2.0011    1.2992    1.4102 C   0  0  0  0  0  0  0  0  0  0  0  0
    2.6327    0.4405    0.3877 C   0  0  0  0  0  0  0  0  0  0  0  0
    0.8396    2.1691    0.8733 C   0  0  1  0  0  0  0  0  0  0  0  0
    2.4292   -0.9569    0.2116 C   0  0  0  0  0  0  0  0  0  0  0  0
    3.2223   -1.3537   -0.8671 C   0  0  0  0  0  0  0  0  0  0  0  0
    3.5288    0.8570   -0.5696 C   0  0  0  0  0  0  0  0  0  0  0  0
    1.6439   -1.9250    0.8684 C   0  0  0  0  0  0  0  0  0  0  0  0
    1.3271    3.1259   -0.2046 C   0  0  0  0  0  0  0  0  0  0  0  0
    3.2695   -2.6758   -1.3238 C   0  0  0  0  0  0  0  0  0  0  0  0
   -1.2798    0.9200    1.1955 C   0  0  0  0  0  0  0  0  0  0  0  0
   -2.2940    0.0483    0.5485 C   0  0  0  0  0  0  0  0  0  0  0  0
    1.6811   -3.2513    0.4227 C   0  0  0  0  0  0  0  0  0  0  0  0
    2.4822   -3.6186   -0.6567 C   0  0  0  0  0  0  0  0  0  0  0  0
   -3.0222    0.5057   -0.5498 C   0  0  0  0  0  0  0  0  0  0  0  0
   -2.5157   -1.2356    1.0465 C   0  0  0  0  0  0  0  0  0  0  0  0
   -3.9721   -0.3209   -1.1499 C   0  0  0  0  0  0  0  0  0  0  0  0
   -2.7757    1.8860   -1.0766 C   0  0  0  0  0  0  0  0  0  0  0  0
   -3.4658   -2.0621    0.4465 C   0  0  0  0  0  0  0  0  0  0  0  0
   -4.1940   -1.6048   -0.6518 C   0  0  0  0  0  0  0  0  0  0  0  0
    1.6344    0.6866    2.2434 H   0  0  0  0  0  0  0  0  0  0  0  0
    2.7685    1.9573    1.8398 H   0  0  0  0  0  0  0  0  0  0  0  0
    0.4456    2.7886    1.6881 H   0  0  0  0  0  0  0  0  0  0  0  0
    3.9577    1.8259   -0.7836 H   0  0  0  0  0  0  0  0  0  0  0  0
   -0.1917    1.0201   -0.5780 H   0  0  0  0  0  0  0  0  0  0  0  0
    4.5263   -0.2165   -2.0973 H   0  0  0  0  0  0  0  0  0  0  0  0
    1.0186   -1.6577    1.7144 H   0  0  0  0  0  0  0  0  0  0  0  0
    3.8928   -2.9628   -2.1640 H   0  0  0  0  0  0  0  0  0  0  0  0
    1.0779   -4.0021    0.9261 H   0  0  0  0  0  0  0  0  0  0  0  0
    2.4959   -4.6544   -0.9861 H   0  0  0  0  0  0  0  0  0  0  0  0
   -2.0244    1.8611   -1.8721 H   0  0  0  0  0  0  0  0  0  0  0  0
   -3.6866    2.3428   -1.4766 H   0  0  0  0  0  0  0  0  0  0  0  0
   -2.4545    2.5854   -0.2982 H   0  0  0  0  0  0  0  0  0  0  0  0
   -3.6433   -3.0634    0.8296 H   0  0  0  0  0  0  0  0  0  0  0  0
   -4.9305   -2.2614   -1.1079 H   0  0  0  0  0  0  0  0  0  0  0  0
    1.0963    3.5924   -2.0807 H   0  0  0  0  0  0  0  0  0  0  0  0
   -1.2096   -1.0238    2.4536 H   0  0  0  0  0  0  0  0  0  0  0  0
  1 23  1  0  0  0  0
  2 15  1  0  0  0  0
  2 42  1  0  0  0  0
  3 15  2  0  0  0  0
  4 17  2  0  0  0  0
  5 22  1  0  0  0  0
  5 43  1  0  0  0  0
  6 10  1  0  0  0  0
  6 17  1  0  0  0  0
  6 31  1  0  0  0  0
  7 12  1  0  0  0  0
  7 13  1  0  0  0  0
  7 32  1  0  0  0  0
  8  9  1  0  0  0  0
  8 10  1  0  0  0  0
  8 27  1  0  0  0  0
  8 28  1  0  0  0  0
  9 11  1  0  0  0  0
  9 13  2  0  0  0  0
 10 15  1  0  0  0  0
 10 29  1  0  0  0  0
 11 12  1  0  0  0  0
 11 14  2  0  0  0  0
 12 16  2  0  0  0  0
 13 30  1  0  0  0  0
 14 19  1  0  0  0  0
 14 33  1  0  0  0  0
 16 20  1  0  0  0  0
 16 34  1  0  0  0  0
 17 18  1  0  0  0  0
 18 21  1  0  0  0  0
 18 22  2  0  0  0  0
 19 20  2  0  0  0  0
 19 35  1  0  0  0  0
 20 36  1  0  0  0  0
 21 23  2  0  0  0  0
 21 24  1  0  0  0  0
 22 25  1  0  0  0  0
 23 26  1  0  0  0  0
 24 37  1  0  0  0  0
 24 38  1  0  0  0  0
 24 39  1  0  0  0  0
 25 26  2  0  0  0  0
 25 40  1  0  0  0  0
 26 41  1  0  0  0  0
M  END
> <PUBCHEM_COMPOUND_CID>
101880326

> <PUBCHEM_CONFORMER_RMSD>
0.8

> <PUBCHEM_CONFORMER_DIVERSEORDER>
1
11
41
46
105
87
50
73
78
110
115
76
59
25
99
74
83
95
24
92
72
103
2
28
79
98
15
114
85
36
56
38
58
47
53
57
112
31
6
33
32
29
107
8
116
100
44
39
93
102
80
81
14
13
16
91
70
108
12
97
90
22
60
89
52
63
111
30
51
3
113
84
9
27
26
49
20
96
45
71
48
94
35
86
21
10
54
68
109
17
69
88
104
4
40
18
65
64
37
55
7
66
101
77
61
75
19
106
117
82
62
42
67
43
34
5
23

> <PUBCHEM_MMFF94_PARTIAL_CHARGES>
36
1 -0.18
10 0.36
12 -0.15
13 -0.3
14 -0.15
15 0.66
16 -0.15
17 0.54
18 0.09
19 -0.15
2 -0.65
20 -0.15
21 -0.14
22 0.08
23 0.18
24 0.14
25 -0.15
26 -0.15
3 -0.57
30 0.15
31 0.37
32 0.27
33 0.15
34 0.15
35 0.15
36 0.15
4 -0.57
40 0.15
41 0.15
42 0.5
43 0.45
5 -0.53
6 -0.73
7 0.03
8 0.18
9 -0.18

> <PUBCHEM_EFFECTIVE_ROTOR_COUNT>
6

> <PUBCHEM_PHARMACOPHORE_FEATURES>
11
1 2 acceptor
1 3 acceptor
1 4 acceptor
1 5 donor
1 6 donor
1 7 cation
1 7 donor
3 2 3 15 anion
5 7 9 11 12 13 rings
6 11 12 14 16 19 20 rings
6 18 21 22 23 25 26 rings

> <PUBCHEM_HEAVY_ATOM_COUNT>
26

> <PUBCHEM_ATOM_DEF_STEREO_COUNT>
1

> <PUBCHEM_ATOM_UDEF_STEREO_COUNT>
0

> <PUBCHEM_BOND_DEF_STEREO_COUNT>
0

> <PUBCHEM_BOND_UDEF_STEREO_COUNT>
0

> <PUBCHEM_ISOTOPIC_ATOM_COUNT>
0

> <PUBCHEM_COMPONENT_COUNT>
1

> <PUBCHEM_CACTVS_TAUTO_COUNT>
165

> <PUBCHEM_CONFORMER_ID>
0612920600000001

> <PUBCHEM_MMFF94_ENERGY>
61.7182

> <PUBCHEM_FEATURE_SELFOVERLAP>
55.973

> <PUBCHEM_SHAPE_FINGERPRINT>
11370993 70 18047462606635796133
11640471 11 13190341296221719587
12156800 1 13558177152060022210
12553582 1 18122077407364778506
12788726 201 17617095811324908968
13911987 19 18264222468541914452
14251757 17 18262784212748004855
14537116 161 18048849955057845621
14659021 117 17761769573083900058
15210252 30 17894919481813651236
15635459 17 18411418444584227115
17138139 8 16695242610919049311
17492 54 18043833080794258004
20645477 70 18267580389478523097
20775530 9 18198347255902288214
21315764 21 16301206947859702355
21756936 100 8573267662867046346
21864079 5 12685629128361001183
23559900 14 18337378418254247057
238 59 18337388361035101938
25222932 49 15765798979593933053
26353 1 18041570122181024692
3027735 51 17117471074827699045
35225 105 17047676816627157398
4280585 95 18192989319177522770
46194498 28 18042125534672062861
5262128 65 18271252624876345083
9709674 26 18336259137145176155

> <PUBCHEM_SHAPE_MULTIPOLES>
503.5
8.17
4.25
1.83
5.48
0.76
-0.07
-3.52
4.55
-3.75
0.36
1.31
0.03
0.99

> <PUBCHEM_SHAPE_SELFOVERLAP>
1091.946

> <PUBCHEM_SHAPE_VOLUME>
274.8

> <PUBCHEM_COORDINATE_TYPE>
2
5
10

$$$$
