101894326
  -OEChem-03292013293D

 36 39  0     1  0  0  0  0  0999 V2000
    1.1626    0.8652    1.4966 O   0  0  0  0  0  0  0  0  0  0  0  0
    2.8346    1.7937    0.1731 O   0  0  0  0  0  0  0  0  0  0  0  0
    1.5193   -2.4129   -1.9609 O   0  0  0  0  0  0  0  0  0  0  0  0
    0.5112   -0.4324   -2.4686 O   0  0  0  0  0  0  0  0  0  0  0  0
   -1.6474   -2.6261    1.1439 O   0  0  0  0  0  0  0  0  0  0  0  0
   -0.7748    3.0724   -0.6003 O   0  0  0  0  0  0  0  0  0  0  0  0
   -3.7518   -1.3969    0.5383 O   0  0  0  0  0  0  0  0  0  0  0  0
    1.2943   -0.8491   -0.2049 C   0  0  1  0  0  0  0  0  0  0  0  0
    0.7892    0.5958    0.1262 C   0  0  2  0  0  0  0  0  0  0  0  0
    2.8199   -0.9993    0.0550 C   0  0  0  0  0  0  0  0  0  0  0  0
    2.5736    1.0977    1.3963 C   0  0  2  0  0  0  0  0  0  0  0  0
    1.6121    1.6925   -0.5748 C   0  0  0  0  0  0  0  0  0  0  0  0
    0.5651   -1.8894    0.6633 C   0  0  0  0  0  0  0  0  0  0  0  0
    3.2692   -0.2578    1.3210 C   0  0  0  0  0  0  0  0  0  0  0  0
   -0.7239    0.6933    0.0292 C   0  0  0  0  0  0  0  0  0  0  0  0
    1.0529   -1.1754   -1.6636 C   0  0  0  0  0  0  0  0  0  0  0  0
   -1.5317   -0.4189    0.3331 C   0  0  0  0  0  0  0  0  0  0  0  0
   -0.9325   -1.7146    0.7324 C   0  0  0  0  0  0  0  0  0  0  0  0
   -1.3814    1.8856   -0.3240 C   0  0  0  0  0  0  0  0  0  0  0  0
   -2.9327   -0.3391    0.2700 C   0  0  0  0  0  0  0  0  0  0  0  0
   -2.7762    1.9639   -0.3885 C   0  0  0  0  0  0  0  0  0  0  0  0
   -3.5516    0.8518   -0.0931 C   0  0  0  0  0  0  0  0  0  0  0  0
    3.3829   -0.5993   -0.8000 H   0  0  0  0  0  0  0  0  0  0  0  0
    3.1142   -2.0541    0.1298 H   0  0  0  0  0  0  0  0  0  0  0  0
    2.9191    1.6854    2.2515 H   0  0  0  0  0  0  0  0  0  0  0  0
    1.2381    2.7057   -0.4997 H   0  0  0  0  0  0  0  0  0  0  0  0
    1.8383    1.4989   -1.6258 H   0  0  0  0  0  0  0  0  0  0  0  0
    0.9190   -1.8427    1.7007 H   0  0  0  0  0  0  0  0  0  0  0  0
    0.7560   -2.9091    0.3076 H   0  0  0  0  0  0  0  0  0  0  0  0
    3.0194   -0.8539    2.2056 H   0  0  0  0  0  0  0  0  0  0  0  0
    4.3571   -0.1318    1.2910 H   0  0  0  0  0  0  0  0  0  0  0  0
   -3.2804    2.8881   -0.6611 H   0  0  0  0  0  0  0  0  0  0  0  0
    1.3708   -2.6437   -2.9026 H   0  0  0  0  0  0  0  0  0  0  0  0
   -4.6347    0.9200   -0.1458 H   0  0  0  0  0  0  0  0  0  0  0  0
   -1.4281    3.7580   -0.8188 H   0  0  0  0  0  0  0  0  0  0  0  0
   -3.2460   -2.2234    0.5547 H   0  0  0  0  0  0  0  0  0  0  0  0
  1  9  1  0  0  0  0
  1 11  1  0  0  0  0
  2 11  1  0  0  0  0
  2 12  1  0  0  0  0
  3 16  1  0  0  0  0
  3 33  1  0  0  0  0
  4 16  2  0  0  0  0
  5 18  2  0  0  0  0
  6 19  1  0  0  0  0
  6 35  1  0  0  0  0
  7 20  1  0  0  0  0
  7 36  1  0  0  0  0
  8  9  1  0  0  0  0
  8 10  1  0  0  0  0
  8 13  1  0  0  0  0
  8 16  1  0  0  0  0
  9 12  1  0  0  0  0
  9 15  1  0  0  0  0
 10 14  1  0  0  0  0
 10 23  1  0  0  0  0
 10 24  1  0  0  0  0
 11 14  1  0  0  0  0
 11 25  1  0  0  0  0
 12 26  1  0  0  0  0
 12 27  1  0  0  0  0
 13 18  1  0  0  0  0
 13 28  1  0  0  0  0
 13 29  1  0  0  0  0
 14 30  1  0  0  0  0
 14 31  1  0  0  0  0
 15 17  1  0  0  0  0
 15 19  2  0  0  0  0
 17 18  1  0  0  0  0
 17 20  2  0  0  0  0
 19 21  1  0  0  0  0
 20 22  1  0  0  0  0
 21 22  2  0  0  0  0
 21 32  1  0  0  0  0
 22 34  1  0  0  0  0
M  END
> <PUBCHEM_COMPOUND_CID>
101894326

> <PUBCHEM_CONFORMER_RMSD>
0.6

> <PUBCHEM_CONFORMER_DIVERSEORDER>
1
2

> <PUBCHEM_MMFF94_PARTIAL_CHARGES>
25
1 -0.56
11 0.56
12 0.28
13 0.06
15 -0.14
16 0.66
17 0.09
18 0.42
19 0.08
2 -0.56
20 0.08
21 -0.15
22 -0.15
3 -0.65
32 0.15
33 0.5
34 0.15
35 0.45
36 0.45
4 -0.57
5 -0.57
6 -0.53
7 -0.53
8 0.06
9 0.42

> <PUBCHEM_EFFECTIVE_ROTOR_COUNT>
2.2

> <PUBCHEM_PHARMACOPHORE_FEATURES>
11
1 1 acceptor
1 2 acceptor
1 3 acceptor
1 4 acceptor
1 5 acceptor
1 6 donor
1 7 donor
3 3 4 16 anion
6 15 17 19 20 21 22 rings
6 8 9 13 15 17 18 rings
8 1 2 8 9 10 11 12 14 rings

> <PUBCHEM_HEAVY_ATOM_COUNT>
22

> <PUBCHEM_ATOM_DEF_STEREO_COUNT>
3

> <PUBCHEM_ATOM_UDEF_STEREO_COUNT>
0

> <PUBCHEM_BOND_DEF_STEREO_COUNT>
0

> <PUBCHEM_BOND_UDEF_STEREO_COUNT>
0

> <PUBCHEM_ISOTOPIC_ATOM_COUNT>
0

> <PUBCHEM_COMPONENT_COUNT>
1

> <PUBCHEM_CACTVS_TAUTO_COUNT>
16

> <PUBCHEM_CONFORMER_ID>
0612C8B600000001

> <PUBCHEM_MMFF94_ENERGY>
85.0707

> <PUBCHEM_FEATURE_SELFOVERLAP>
55.975

> <PUBCHEM_SHAPE_FINGERPRINT>
10863032 1 18261109729189297160
10906281 52 18192161597359159721
10948715 1 18342731966245245792
10967382 1 18190180285542057617
1100329 8 16463886114280612427
11582403 64 16828051168702612432
12011746 2 18335693889315640798
12423570 1 17988346075478178846
12633257 1 18337101250966321504
13134695 92 17631160884474099594
13140716 1 18335705988407403553
14142880 1 15616894417129857121
14223421 5 18339357457548028371
15219456 202 18271804601172033049
15309172 13 17632570604209414352
15852999 172 18343010077988062233
16945 1 18334566937052120506
19049666 15 18054228726346676289
20511035 2 18341883139110551640
20691752 17 18114752538373417657
20905425 154 17109615601228901621
21330990 113 17680699325219298890
22112679 90 15968220366951939278
22802520 49 18269288884519069063
2334 1 18335704957536143809
23402539 116 18338217371659768479
23419403 2 17699845116814139070
23557571 272 18411426094321453075
23559900 14 18050289172570590878
2748010 2 18336272266954989649
484985 159 16017129461785689130
495365 180 17559935689315820561
77492 1 14476952363820563105
81228 2 18263945305516455841
84936 31 16701742631493869190

> <PUBCHEM_SHAPE_MULTIPOLES>
411.66
4.95
2.74
1.5
1.92
0.16
0.73
0.5
-1.14
0.57
0.14
-0.94
-0.57
1.11

> <PUBCHEM_SHAPE_SELFOVERLAP>
933.276

> <PUBCHEM_SHAPE_VOLUME>
210.5

> <PUBCHEM_COORDINATE_TYPE>
2
5
10

$$$$
