101840124
  -OEChem-03292013293D

 79 82  0     1  0  0  0  0  0999 V2000
    1.1449    1.5670    2.3170 O   0  0  0  0  0  0  0  0  0  0  0  0
    2.7000    3.1122    2.8691 O   0  0  0  0  0  0  0  0  0  0  0  0
    6.6200   -0.6481    0.0023 O   0  0  0  0  0  0  0  0  0  0  0  0
    6.8018   -0.6063   -2.2581 O   0  0  0  0  0  0  0  0  0  0  0  0
   -4.5953   -0.4582   -2.3401 O   0  0  0  0  0  0  0  0  0  0  0  0
   -3.6128    1.6888   -0.6425 O   0  0  0  0  0  0  0  0  0  0  0  0
   -5.9210    1.8966   -2.3469 O   0  0  0  0  0  0  0  0  0  0  0  0
    1.7276   -0.3975    0.8612 C   0  0  2  0  0  0  0  0  0  0  0  0
    2.7723    0.5869    0.2842 C   0  0  2  0  0  0  0  0  0  0  0  0
    0.9507   -1.1258   -0.2606 C   0  0  1  0  0  0  0  0  0  0  0  0
    3.8087   -0.2733   -0.5205 C   0  0  1  0  0  0  0  0  0  0  0  0
    0.9064    0.1705    2.0427 C   0  0  2  0  0  0  0  0  0  0  0  0
    1.9483   -1.9913   -1.0466 C   0  0  0  0  0  0  0  0  0  0  0  0
   -0.2208   -1.8616    0.3037 C   0  0  0  0  0  0  0  0  0  0  0  0
    3.1257   -1.1678   -1.5845 C   0  0  0  0  0  0  0  0  0  0  0  0
   -0.9457   -1.3518    1.3063 C   0  0  0  0  0  0  0  0  0  0  0  0
    3.4181    1.2744    1.5034 C   0  0  0  0  0  0  0  0  0  0  0  0
   -0.6102   -0.0597    1.9646 C   0  0  0  0  0  0  0  0  0  0  0  0
    4.9225    0.5437   -1.1857 C   0  0  0  0  0  0  0  0  0  0  0  0
   -2.1638   -2.1678    1.6047 C   0  0  2  0  0  0  0  0  0  0  0  0
    2.1354    1.6714   -0.6237 C   0  0  0  0  0  0  0  0  0  0  0  0
   -0.8356   -3.1003   -0.2510 C   0  0  0  0  0  0  0  0  0  0  0  0
   -1.8775   -3.4580    0.8154 C   0  0  0  0  0  0  0  0  0  0  0  0
    2.4057    2.0684    2.2943 C   0  0  0  0  0  0  0  0  0  0  0  0
   -3.4453   -1.4823    1.1438 C   0  0  1  0  0  0  0  0  0  0  0  0
    5.1843    1.8344   -0.3977 C   0  0  0  0  0  0  0  0  0  0  0  0
    4.4914    0.9095   -2.6153 C   0  0  0  0  0  0  0  0  0  0  0  0
    6.2038   -0.2880   -1.2393 C   0  0  0  0  0  0  0  0  0  0  0  0
   -3.4698   -1.2354   -0.3771 C   0  0  0  0  0  0  0  0  0  0  0  0
   -4.6610   -2.3251    1.5461 C   0  0  0  0  0  0  0  0  0  0  0  0
   -4.6905   -0.4650   -0.9142 C   0  0  1  0  0  0  0  0  0  0  0  0
   -4.8259    0.9775   -0.3769 C   0  0  2  0  0  0  0  0  0  0  0  0
   -6.0178    1.8091   -0.9233 C   0  0  0  0  0  0  0  0  0  0  0  0
   -6.0232    3.2324   -0.3566 C   0  0  0  0  0  0  0  0  0  0  0  0
   -7.3511    1.1202   -0.5982 C   0  0  0  0  0  0  0  0  0  0  0  0
    2.3074   -1.1992    1.3538 H   0  0  0  0  0  0  0  0  0  0  0  0
    0.5231   -0.3970   -0.9605 H   0  0  0  0  0  0  0  0  0  0  0  0
    4.2543   -0.9653    0.2084 H   0  0  0  0  0  0  0  0  0  0  0  0
    1.2446   -0.3537    2.9493 H   0  0  0  0  0  0  0  0  0  0  0  0
    2.3370   -2.7932   -0.4052 H   0  0  0  0  0  0  0  0  0  0  0  0
    1.4451   -2.4832   -1.8884 H   0  0  0  0  0  0  0  0  0  0  0  0
    3.8569   -1.8579   -2.0234 H   0  0  0  0  0  0  0  0  0  0  0  0
    2.6902   -0.5911   -2.4055 H   0  0  0  0  0  0  0  0  0  0  0  0
    4.1363    2.0649    1.3827 H   0  0  0  0  0  0  0  0  0  0  0  0
    3.8634    0.5344    2.1801 H   0  0  0  0  0  0  0  0  0  0  0  0
   -1.0948    0.7639    1.4260 H   0  0  0  0  0  0  0  0  0  0  0  0
   -1.0201   -0.0328    2.9818 H   0  0  0  0  0  0  0  0  0  0  0  0
   -2.2130   -2.3937    2.6769 H   0  0  0  0  0  0  0  0  0  0  0  0
    1.2203    2.0593   -0.1585 H   0  0  0  0  0  0  0  0  0  0  0  0
    1.7894    1.2622   -1.5762 H   0  0  0  0  0  0  0  0  0  0  0  0
    2.7165    2.5603   -0.8449 H   0  0  0  0  0  0  0  0  0  0  0  0
   -1.2879   -2.9108   -1.2287 H   0  0  0  0  0  0  0  0  0  0  0  0
   -0.1089   -3.9118   -0.3544 H   0  0  0  0  0  0  0  0  0  0  0  0
   -2.7519   -3.9493    0.3807 H   0  0  0  0  0  0  0  0  0  0  0  0
   -1.4330   -4.1934    1.5015 H   0  0  0  0  0  0  0  0  0  0  0  0
   -3.5195   -0.5215    1.6677 H   0  0  0  0  0  0  0  0  0  0  0  0
    4.4699    2.6475   -0.4098 H   0  0  0  0  0  0  0  0  0  0  0  0
    4.4901    0.0570   -3.3046 H   0  0  0  0  0  0  0  0  0  0  0  0
    5.2392    1.5901   -3.0477 H   0  0  0  0  0  0  0  0  0  0  0  0
    3.5474    1.4451   -2.7003 H   0  0  0  0  0  0  0  0  0  0  0  0
    5.6872    1.6440    0.5577 H   0  0  0  0  0  0  0  0  0  0  0  0
    6.0171    2.3275   -0.9324 H   0  0  0  0  0  0  0  0  0  0  0  0
   -3.4532   -2.1916   -0.9148 H   0  0  0  0  0  0  0  0  0  0  0  0
   -2.5694   -0.7070   -0.7090 H   0  0  0  0  0  0  0  0  0  0  0  0
   -4.7771   -3.2200    0.9273 H   0  0  0  0  0  0  0  0  0  0  0  0
   -5.5841   -1.7422    1.4616 H   0  0  0  0  0  0  0  0  0  0  0  0
   -4.5873   -2.6432    2.5919 H   0  0  0  0  0  0  0  0  0  0  0  0
   -5.5934   -1.0345   -0.6750 H   0  0  0  0  0  0  0  0  0  0  0  0
    7.4416   -1.1830   -0.0285 H   0  0  0  0  0  0  0  0  0  0  0  0
   -4.9321    0.9384    0.7142 H   0  0  0  0  0  0  0  0  0  0  0  0
   -5.4253   -0.0939   -2.6905 H   0  0  0  0  0  0  0  0  0  0  0  0
   -2.9315    1.3496   -0.0383 H   0  0  0  0  0  0  0  0  0  0  0  0
   -5.1300    3.7861   -0.6659 H   0  0  0  0  0  0  0  0  0  0  0  0
   -6.8786    3.8025   -0.7375 H   0  0  0  0  0  0  0  0  0  0  0  0
   -6.0716    3.2289    0.7371 H   0  0  0  0  0  0  0  0  0  0  0  0
   -7.4537    0.1684   -1.1294 H   0  0  0  0  0  0  0  0  0  0  0  0
   -8.1962    1.7359   -0.9283 H   0  0  0  0  0  0  0  0  0  0  0  0
   -7.4595    0.9405    0.4763 H   0  0  0  0  0  0  0  0  0  0  0  0
   -6.6784    2.4140   -2.6699 H   0  0  0  0  0  0  0  0  0  0  0  0
  1 12  1  0  0  0  0
  1 24  1  0  0  0  0
  2 24  2  0  0  0  0
  3 28  1  0  0  0  0
  3 69  1  0  0  0  0
  4 28  2  0  0  0  0
  5 31  1  0  0  0  0
  5 71  1  0  0  0  0
  6 32  1  0  0  0  0
  6 72  1  0  0  0  0
  7 33  1  0  0  0  0
  7 79  1  0  0  0  0
  8  9  1  0  0  0  0
  8 10  1  0  0  0  0
  8 12  1  0  0  0  0
  8 36  1  0  0  0  0
  9 11  1  0  0  0  0
  9 17  1  0  0  0  0
  9 21  1  0  0  0  0
 10 13  1  0  0  0  0
 10 14  1  0  0  0  0
 10 37  1  0  0  0  0
 11 15  1  0  0  0  0
 11 19  1  0  0  0  0
 11 38  1  0  0  0  0
 12 18  1  0  0  0  0
 12 39  1  0  0  0  0
 13 15  1  0  0  0  0
 13 40  1  0  0  0  0
 13 41  1  0  0  0  0
 14 16  2  0  0  0  0
 14 22  1  0  0  0  0
 15 42  1  0  0  0  0
 15 43  1  0  0  0  0
 16 18  1  0  0  0  0
 16 20  1  0  0  0  0
 17 24  1  0  0  0  0
 17 44  1  0  0  0  0
 17 45  1  0  0  0  0
 18 46  1  0  0  0  0
 18 47  1  0  0  0  0
 19 26  1  0  0  0  0
 19 27  1  0  0  0  0
 19 28  1  0  0  0  0
 20 23  1  0  0  0  0
 20 25  1  0  0  0  0
 20 48  1  0  0  0  0
 21 49  1  0  0  0  0
 21 50  1  0  0  0  0
 21 51  1  0  0  0  0
 22 23  1  0  0  0  0
 22 52  1  0  0  0  0
 22 53  1  0  0  0  0
 23 54  1  0  0  0  0
 23 55  1  0  0  0  0
 25 29  1  0  0  0  0
 25 30  1  0  0  0  0
 25 56  1  0  0  0  0
 26 57  1  0  0  0  0
 26 61  1  0  0  0  0
 26 62  1  0  0  0  0
 27 58  1  0  0  0  0
 27 59  1  0  0  0  0
 27 60  1  0  0  0  0
 29 31  1  0  0  0  0
 29 63  1  0  0  0  0
 29 64  1  0  0  0  0
 30 65  1  0  0  0  0
 30 66  1  0  0  0  0
 30 67  1  0  0  0  0
 31 32  1  0  0  0  0
 31 68  1  0  0  0  0
 32 33  1  0  0  0  0
 32 70  1  0  0  0  0
 33 34  1  0  0  0  0
 33 35  1  0  0  0  0
 34 73  1  0  0  0  0
 34 74  1  0  0  0  0
 34 75  1  0  0  0  0
 35 76  1  0  0  0  0
 35 77  1  0  0  0  0
 35 78  1  0  0  0  0
M  END
> <PUBCHEM_COMPOUND_CID>
101840124

> <PUBCHEM_CONFORMER_RMSD>
1

> <PUBCHEM_CONFORMER_DIVERSEORDER>
1
55
79
32
85
27
48
50
57
38
75
84
58
5
62
82
70
76
37
46
99
44
92
29
94
24
86
9
96
23
54
34
30
59
80
61
17
81
36
3
69
100
8
90
49
83
33
71
73
14
39
89
72
7
51
74
95
40
64
60
41
43
45
18
65
98
88
87
63
19
35
13
20
66
6
97
4
11
52
26
78
15
31
28
42
68
91
21
25
2
77
53
67
22
93
56
12
47
16
10

> <PUBCHEM_MMFF94_PARTIAL_CHARGES>
25
1 -0.43
10 0.14
12 0.28
14 -0.28
16 -0.28
17 0.06
18 0.14
19 0.06
2 -0.57
20 0.14
22 0.14
24 0.66
28 0.66
3 -0.65
31 0.28
32 0.28
33 0.28
4 -0.57
5 -0.68
6 -0.68
69 0.5
7 -0.68
71 0.4
72 0.4
79 0.4

> <PUBCHEM_EFFECTIVE_ROTOR_COUNT>
8.8

> <PUBCHEM_PHARMACOPHORE_FEATURES>
17
1 2 acceptor
1 3 acceptor
1 30 hydrophobe
1 4 acceptor
1 5 acceptor
1 5 donor
1 6 acceptor
1 6 donor
1 7 acceptor
1 7 donor
3 19 26 27 hydrophobe
3 3 4 28 anion
3 33 34 35 hydrophobe
5 14 16 20 22 23 rings
6 1 8 9 12 17 24 rings
6 8 10 12 14 16 18 rings
6 8 9 10 11 13 15 rings

> <PUBCHEM_HEAVY_ATOM_COUNT>
35

> <PUBCHEM_ATOM_DEF_STEREO_COUNT>
9

> <PUBCHEM_ATOM_UDEF_STEREO_COUNT>
0

> <PUBCHEM_BOND_DEF_STEREO_COUNT>
0

> <PUBCHEM_BOND_UDEF_STEREO_COUNT>
0

> <PUBCHEM_ISOTOPIC_ATOM_COUNT>
0

> <PUBCHEM_COMPONENT_COUNT>
1

> <PUBCHEM_CACTVS_TAUTO_COUNT>
2

> <PUBCHEM_CONFORMER_ID>
0611F4FC00000001

> <PUBCHEM_MMFF94_ENERGY>
156.0752

> <PUBCHEM_FEATURE_SELFOVERLAP>
86.48

> <PUBCHEM_SHAPE_FINGERPRINT>
105312 117 18334858342115019399
10622 236 14332580933975200837
10670039 82 18113615694873924885
10794284 68 9653562056677775184
10928967 22 11023543674973028381
11115154 58 16343705383656032993
11135609 99 11958639706861737460
11578080 2 18267015245319611592
11720765 8 17700401499287940971
1200032 147 17896609397042043113
12047536 79 13985767475079786591
12107698 1 17532666834727020303
12403259 415 18340770454839405523
12616971 3 15984278442313121851
12892183 10 13262669297617547087
13540713 4 18057320810795112722
13726171 33 17823435931524564677
13782708 43 18127419074975933803
13944108 23 17762897663613785733
14068700 675 13038902213954252331
14294032 229 17676199192205698583
14347329 18 18187081758632485521
14747281 78 18129953274064317813
14790565 3 12468926472249035854
15001296 14 17677332847911199509
15163728 17 18186800258350435331
15183329 4 18272655618945477662
15188451 53 13110965301265505133
15238133 3 17749378295997222648
15297060 5 18261682489048651341
15324884 4 17984137329582009994
15510800 12 9439405731586786753
15975801 100 17459743731675321476
16120349 67 18264776472057098873
16994733 274 17459758206464000204
17349148 13 15123243177219588634
18608769 82 18335427894108180635
19053607 189 17606661549664029989
19304671 126 17631149949936842233
20715895 44 18335425634353872950
21033648 144 17843403131235031058
21033648 29 18337949103448894099
21033650 10 17896041107995808939
21223535 225 17560531590638223249
21756936 100 16515694367794692459
21814621 53 17749115530335617650
21859007 373 18339912792751592944
22121540 332 18341319068287542164
22393880 68 18131060576277745031
23536364 44 18059868237444654961
23569914 2 17905568397641921820
24771293 8 16486978423540404082
25223398 141 18262527008225866943
2838139 119 18333730225814622183
3459 39 17750217176261615205
38570 142 16732708233412061064
3882209 13 17694506945081491006
3918712 181 17968087574623357717
392239 28 13984673576647237519
4015057 19 17346321569443886314
4098825 35 18260556606079377211
437795 139 13901901215905574421
439807 62 13110956536023276701
46194498 28 18123485026787082792
474113 269 17916023457249276302
5081480 168 17844828042502118209
508180 173 17917710171671537001
508706 21 18337949125277521911
57035037 87 18334574690444685308
57527295 17 18343013372677092027
6086070 43 18201996646785261434
6523845 18 18411708699228101539
7808743 9 17967250888996581431
9849439 229 17605538969924486885

> <PUBCHEM_SHAPE_MULTIPOLES>
679.2
16.36
3.37
2.51
6.63
0.38
0.7
-9.76
-9.94
4.29
0.7
-1.84
-1.14
3.11

> <PUBCHEM_SHAPE_SELFOVERLAP>
1439.523

> <PUBCHEM_SHAPE_VOLUME>
376.6

> <PUBCHEM_COORDINATE_TYPE>
2
5
10

$$$$
