101888873
  -OEChem-03292013293D

 47 51  0     0  0  0  0  0  0999 V2000
    0.2398   -2.1248    0.0440 O   0  0  0  0  0  0  0  0  0  0  0  0
   -3.8290    2.8037    0.0674 O   0  0  0  0  0  0  0  0  0  0  0  0
    2.6992   -2.4531    0.0189 O   0  0  0  0  0  0  0  0  0  0  0  0
    3.5886    2.8148   -0.0107 O   0  0  0  0  0  0  0  0  0  0  0  0
   -5.0093   -0.1341   -1.2002 O   0  0  0  0  0  0  0  0  0  0  0  0
    5.1966   -2.9696   -0.0022 O   0  0  0  0  0  0  0  0  0  0  0  0
    8.1724    0.7146   -0.0527 O   0  0  0  0  0  0  0  0  0  0  0  0
   -7.1222   -0.8911    2.2827 O   0  0  0  0  0  0  0  0  0  0  0  0
   -6.8144   -0.7357   -2.4431 O   0  0  0  0  0  0  0  0  0  0  0  0
   -0.6404    0.1121    0.0452 C   0  0  0  0  0  0  0  0  0  0  0  0
    1.7642   -0.2898    0.0216 C   0  0  0  0  0  0  0  0  0  0  0  0
   -0.4016    1.5057    0.0380 C   0  0  0  0  0  0  0  0  0  0  0  0
    1.9995    1.0837    0.0140 C   0  0  0  0  0  0  0  0  0  0  0  0
    0.4499   -0.7737    0.0372 C   0  0  0  0  0  0  0  0  0  0  0  0
   -1.9643   -0.3574    0.0600 C   0  0  0  0  0  0  0  0  0  0  0  0
    0.9215    1.9777    0.0224 C   0  0  0  0  0  0  0  0  0  0  0  0
   -3.0371    0.5343    0.0675 C   0  0  0  0  0  0  0  0  0  0  0  0
    4.2739   -0.7215   -0.0032 C   0  0  0  0  0  0  0  0  0  0  0  0
    2.8925   -1.2442    0.0131 C   0  0  0  0  0  0  0  0  0  0  0  0
    4.5097    0.6547   -0.0116 C   0  0  0  0  0  0  0  0  0  0  0  0
    3.3813    1.6078   -0.0033 C   0  0  0  0  0  0  0  0  0  0  0  0
   -1.4937    2.3892    0.0459 C   0  0  0  0  0  0  0  0  0  0  0  0
   -2.8021    1.9056    0.0605 C   0  0  0  0  0  0  0  0  0  0  0  0
   -2.3098   -1.8207    0.0684 C   0  0  0  0  0  0  0  0  0  0  0  0
    5.3518   -1.6148   -0.0105 C   0  0  0  0  0  0  0  0  0  0  0  0
   -4.4292    0.0480    0.0828 C   0  0  0  0  0  0  0  0  0  0  0  0
    5.8236    1.1378   -0.0288 C   0  0  0  0  0  0  0  0  0  0  0  0
    6.8949    0.2441   -0.0365 C   0  0  0  0  0  0  0  0  0  0  0  0
    6.6596   -1.1293   -0.0270 C   0  0  0  0  0  0  0  0  0  0  0  0
   -5.1286   -0.1966    1.2002 C   0  0  0  0  0  0  0  0  0  0  0  0
   -6.4821   -0.6603    1.0877 C   0  0  0  0  0  0  0  0  0  0  0  0
   -6.2983   -0.5723   -1.3425 C   0  0  0  0  0  0  0  0  0  0  0  0
   -7.0567   -0.8449   -0.1057 C   0  0  0  0  0  0  0  0  0  0  0  0
    1.1022    3.0512    0.0165 H   0  0  0  0  0  0  0  0  0  0  0  0
   -1.3172    3.4636    0.0403 H   0  0  0  0  0  0  0  0  0  0  0  0
   -1.9324   -2.2976    0.9797 H   0  0  0  0  0  0  0  0  0  0  0  0
   -3.3747   -2.0616    0.0489 H   0  0  0  0  0  0  0  0  0  0  0  0
   -1.9137   -2.3111   -0.8278 H   0  0  0  0  0  0  0  0  0  0  0  0
    6.0201    2.2071   -0.0359 H   0  0  0  0  0  0  0  0  0  0  0  0
    7.4980   -1.8217   -0.0327 H   0  0  0  0  0  0  0  0  0  0  0  0
    0.9968   -2.5843    0.4388 H   0  0  0  0  0  0  0  0  0  0  0  0
   -4.6991   -0.0549    2.1864 H   0  0  0  0  0  0  0  0  0  0  0  0
   -3.4661    3.7059    0.0612 H   0  0  0  0  0  0  0  0  0  0  0  0
    4.2583   -3.2090    0.0161 H   0  0  0  0  0  0  0  0  0  0  0  0
   -8.0783   -1.1938   -0.2044 H   0  0  0  0  0  0  0  0  0  0  0  0
    8.1511    1.6869   -0.0573 H   0  0  0  0  0  0  0  0  0  0  0  0
   -8.0243   -1.1985    2.0869 H   0  0  0  0  0  0  0  0  0  0  0  0
  1 14  1  0  0  0  0
  1 41  1  0  0  0  0
  2 23  1  0  0  0  0
  2 43  1  0  0  0  0
  3 19  2  0  0  0  0
  4 21  2  0  0  0  0
  5 26  1  0  0  0  0
  5 32  1  0  0  0  0
  6 25  1  0  0  0  0
  6 44  1  0  0  0  0
  7 28  1  0  0  0  0
  7 46  1  0  0  0  0
  8 31  1  0  0  0  0
  8 47  1  0  0  0  0
  9 32  2  0  0  0  0
 10 12  1  0  0  0  0
 10 14  2  0  0  0  0
 10 15  1  0  0  0  0
 11 13  2  0  0  0  0
 11 14  1  0  0  0  0
 11 19  1  0  0  0  0
 12 16  2  0  0  0  0
 12 22  1  0  0  0  0
 13 16  1  0  0  0  0
 13 21  1  0  0  0  0
 15 17  2  0  0  0  0
 15 24  1  0  0  0  0
 16 34  1  0  0  0  0
 17 23  1  0  0  0  0
 17 26  1  0  0  0  0
 18 19  1  0  0  0  0
 18 20  2  0  0  0  0
 18 25  1  0  0  0  0
 20 21  1  0  0  0  0
 20 27  1  0  0  0  0
 22 23  2  0  0  0  0
 22 35  1  0  0  0  0
 24 36  1  0  0  0  0
 24 37  1  0  0  0  0
 24 38  1  0  0  0  0
 25 29  2  0  0  0  0
 26 30  2  0  0  0  0
 27 28  2  0  0  0  0
 27 39  1  0  0  0  0
 28 29  1  0  0  0  0
 29 40  1  0  0  0  0
 30 31  1  0  0  0  0
 30 42  1  0  0  0  0
 31 33  2  0  0  0  0
 32 33  1  0  0  0  0
 33 45  1  0  0  0  0
M  END
> <PUBCHEM_COMPOUND_CID>
101888873

> <PUBCHEM_CONFORMER_RMSD>
0.6

> <PUBCHEM_CONFORMER_DIVERSEORDER>
1
3
2
4

> <PUBCHEM_MMFF94_PARTIAL_CHARGES>
42
1 -0.53
11 0.09
13 0.09
14 0.08
15 -0.14
16 -0.15
17 0.03
18 0.09
19 0.4
2 -0.53
20 0.09
21 0.4
22 -0.15
23 0.08
24 0.14
25 0.08
26 0.05
27 -0.15
28 0.08
29 -0.15
3 -0.57
30 -0.15
31 0.08
32 0.71
33 -0.14
34 0.15
35 0.15
39 0.15
4 -0.57
40 0.15
41 0.45
42 0.15
43 0.45
44 0.45
45 0.15
46 0.45
47 0.45
5 -0.23
6 -0.53
7 -0.53
8 -0.53
9 -0.57

> <PUBCHEM_EFFECTIVE_ROTOR_COUNT>
1

> <PUBCHEM_PHARMACOPHORE_FEATURES>
13
1 1 donor
1 2 donor
1 3 acceptor
1 4 acceptor
1 6 donor
1 7 donor
1 8 donor
1 9 acceptor
6 10 11 12 13 14 16 rings
6 10 12 15 17 22 23 rings
6 11 13 18 19 20 21 rings
6 18 20 25 27 28 29 rings
6 5 26 30 31 32 33 rings

> <PUBCHEM_HEAVY_ATOM_COUNT>
33

> <PUBCHEM_ATOM_DEF_STEREO_COUNT>
0

> <PUBCHEM_ATOM_UDEF_STEREO_COUNT>
0

> <PUBCHEM_BOND_DEF_STEREO_COUNT>
0

> <PUBCHEM_BOND_UDEF_STEREO_COUNT>
0

> <PUBCHEM_ISOTOPIC_ATOM_COUNT>
0

> <PUBCHEM_COMPONENT_COUNT>
1

> <PUBCHEM_CACTVS_TAUTO_COUNT>
996

> <PUBCHEM_CONFORMER_ID>
0612B36900000001

> <PUBCHEM_MMFF94_ENERGY>
124.4549

> <PUBCHEM_FEATURE_SELFOVERLAP>
66.042

> <PUBCHEM_SHAPE_FINGERPRINT>
10 15 18334853966218409584
10050765 1 18122063100406533592
10299344 5 17775004600452071119
11135926 11 18409727366321836255
11578080 2 13263549027078496156
11963148 33 18335414711836288778
12166972 35 18131350817235332016
12236239 1 17775567546231616987
12516196 113 18059853965547904984
12838862 33 18337656612661966024
13073987 5 18338518539077407712
13533116 47 18342738537640284128
13685833 64 18408608058577259200
13782708 43 17749953254352402714
13811026 1 18409164377687043066
14068700 675 17418091057592602145
14118638 360 18408886201033998408
14170010 4 18410009957926330992
14251764 18 18273497879544401776
14394314 77 18343308028892798961
14849402 71 17917712460894835368
14856354 85 16415478273112612085
15064981 113 14057265529326667443
15131766 46 14403465521490539810
15183329 4 18412539916432320678
15196674 1 18338517431102458696
15419008 47 17530959194458937253
15483637 11 18120094150123819586
17492 89 18051694348404475590
17899979 129 16673288160312222381
18608769 82 18335987570368172754
18681886 176 18342730828406122560
20028762 73 18202559566574061894
20721686 56 18408327674406684562
21130935 74 18271526378076740674
21236236 1 18340206298179755505
21267235 1 18410300202819993720
21792934 111 18412822474331932905
22149856 69 18270975539667110032
22311459 1 18411419531753771618
23522609 53 17844834627220103729
23559900 14 18336541728507695217
23569914 152 17327988025448465319
24771750 20 17753628032808512924
255183 451 17985556555367847806
3004659 81 18187077369023051616
3178227 256 18409176523084273946
335352 9 18410856603269996876
3383291 50 18334013908215281954
34797466 226 17632582660974028436
350125 39 18411702071376378904
3633792 109 18334566924462825861
4073 2 18187370883188556881
4093350 32 16200153227486486728
4258327 124 16806751623260519054
4325135 7 18273494576640776357
44880568 143 16660362567480696037
46194498 28 17531245084661872180
50009960 94 17681540447436515178
5104073 3 18339642222448901344
59755656 215 18334574637986679774
9962374 69 18339634658868755606
9996256 80 18272089383252371533

> <PUBCHEM_SHAPE_MULTIPOLES>
626.3
20.53
2.54
1.03
2.45
0.46
0.11
-5.64
0.35
-1.82
-0.04
2.87
-0.28
-0.01

> <PUBCHEM_SHAPE_SELFOVERLAP>
1441.642

> <PUBCHEM_SHAPE_VOLUME>
318.9

> <PUBCHEM_COORDINATE_TYPE>
2
5
10

$$$$
