101844054
  -OEChem-03292013293D

 67 69  0     1  0  0  0  0  0999 V2000
    5.4865   -0.1052    0.8726 O   0  0  0  0  0  0  0  0  0  0  0  0
    3.4729    1.0057   -1.0368 O   0  0  0  0  0  0  0  0  0  0  0  0
    4.7575   -0.9583   -2.5849 O   0  0  0  0  0  0  0  0  0  0  0  0
    7.0035    1.4642    0.0262 O   0  0  0  0  0  0  0  0  0  0  0  0
    3.2297   -1.8712    1.2109 O   0  0  0  0  0  0  0  0  0  0  0  0
    5.1117    3.5348    0.4509 O   0  0  0  0  0  0  0  0  0  0  0  0
    2.2964   -3.6693    0.1005 O   0  0  0  0  0  0  0  0  0  0  0  0
   -5.9473   -0.1854   -1.1531 O   0  0  0  0  0  0  0  0  0  0  0  0
   -9.4810    0.7992    0.7816 O   0  0  0  0  0  0  0  0  0  0  0  0
   -7.1726   -0.9658   -2.8988 O   0  0  0  0  0  0  0  0  0  0  0  0
    4.9102    1.0177   -1.1215 C   0  0  2  0  0  0  0  0  0  0  0  0
    5.0974   -1.0687   -0.1482 C   0  0  2  0  0  0  0  0  0  0  0  0
    5.4113   -0.3768   -1.4756 C   0  0  1  0  0  0  0  0  0  0  0  0
    5.6110    1.1946    0.2443 C   0  0  1  0  0  0  0  0  0  0  0  0
    3.5762   -1.2708   -0.0367 C   0  0  2  0  0  0  0  0  0  0  0  0
    2.8531    0.0829   -0.1329 C   0  0  2  0  0  0  0  0  0  0  0  0
    5.2756    2.0681   -2.1653 C   0  0  0  0  0  0  0  0  0  0  0  0
    5.0577    2.2929    1.1443 C   0  0  1  0  0  0  0  0  0  0  0  0
    5.8911   -2.3532    0.0493 C   0  0  0  0  0  0  0  0  0  0  0  0
    1.4341   -0.0939   -0.5817 C   0  0  0  0  0  0  0  0  0  0  0  0
    5.8410    2.4065    2.4420 C   0  0  0  0  0  0  0  0  0  0  0  0
    2.5907   -3.0748    1.1286 C   0  0  0  0  0  0  0  0  0  0  0  0
    0.3061    0.2348    0.0666 C   0  0  0  0  0  0  0  0  0  0  0  0
    2.2906   -3.5821    2.5066 C   0  0  0  0  0  0  0  0  0  0  0  0
   -1.0500    0.0482   -0.4004 C   0  0  0  0  0  0  0  0  0  0  0  0
   -2.1223    0.4098    0.3216 C   0  0  0  0  0  0  0  0  0  0  0  0
   -3.4818    0.2276   -0.1391 C   0  0  0  0  0  0  0  0  0  0  0  0
   -4.5517    0.5895    0.5831 C   0  0  0  0  0  0  0  0  0  0  0  0
   -5.9038    0.4126    0.1335 C   0  0  0  0  0  0  0  0  0  0  0  0
   -7.0281    0.7481    0.7963 C   0  0  0  0  0  0  0  0  0  0  0  0
   -8.2965    0.4742    0.1425 C   0  0  0  0  0  0  0  0  0  0  0  0
   -7.0493    1.3853    2.1623 C   0  0  0  0  0  0  0  0  0  0  0  0
   -7.1265   -0.4506   -1.7871 C   0  0  0  0  0  0  0  0  0  0  0  0
   -8.3586   -0.0874   -1.0699 C   0  0  0  0  0  0  0  0  0  0  0  0
   -9.9345   -0.2830    1.5683 C   0  0  0  0  0  0  0  0  0  0  0  0
    6.4835   -0.3937   -1.6947 H   0  0  0  0  0  0  0  0  0  0  0  0
    3.2683   -1.9016   -0.8802 H   0  0  0  0  0  0  0  0  0  0  0  0
    2.8244    0.5422    0.8600 H   0  0  0  0  0  0  0  0  0  0  0  0
    4.8534    3.0471   -1.9213 H   0  0  0  0  0  0  0  0  0  0  0  0
    4.8386    1.7989   -3.1348 H   0  0  0  0  0  0  0  0  0  0  0  0
    6.3529    2.1775   -2.3150 H   0  0  0  0  0  0  0  0  0  0  0  0
    4.0143    2.1107    1.4065 H   0  0  0  0  0  0  0  0  0  0  0  0
    5.7404   -2.7594    1.0554 H   0  0  0  0  0  0  0  0  0  0  0  0
    6.9663   -2.1619   -0.0422 H   0  0  0  0  0  0  0  0  0  0  0  0
    5.6114   -3.1178   -0.6818 H   0  0  0  0  0  0  0  0  0  0  0  0
    5.0802   -1.8712   -2.6716 H   0  0  0  0  0  0  0  0  0  0  0  0
    7.3205    1.0592   -0.7931 H   0  0  0  0  0  0  0  0  0  0  0  0
    1.3262   -0.5407   -1.5709 H   0  0  0  0  0  0  0  0  0  0  0  0
    6.8769    2.7151    2.2649 H   0  0  0  0  0  0  0  0  0  0  0  0
    5.8411    1.4661    3.0010 H   0  0  0  0  0  0  0  0  0  0  0  0
    5.4005    3.1806    3.0807 H   0  0  0  0  0  0  0  0  0  0  0  0
    4.7494    4.2179    1.0405 H   0  0  0  0  0  0  0  0  0  0  0  0
    0.4093    0.6869    1.0519 H   0  0  0  0  0  0  0  0  0  0  0  0
    3.2220   -3.7198    3.0614 H   0  0  0  0  0  0  0  0  0  0  0  0
    1.7816   -4.5475    2.4349 H   0  0  0  0  0  0  0  0  0  0  0  0
    1.6334   -2.8792    3.0247 H   0  0  0  0  0  0  0  0  0  0  0  0
   -1.1736   -0.4057   -1.3806 H   0  0  0  0  0  0  0  0  0  0  0  0
   -1.9897    0.8633    1.3015 H   0  0  0  0  0  0  0  0  0  0  0  0
   -3.5855   -0.2233   -1.1228 H   0  0  0  0  0  0  0  0  0  0  0  0
   -4.3883    1.0295    1.5616 H   0  0  0  0  0  0  0  0  0  0  0  0
   -7.3030    0.6446    2.9270 H   0  0  0  0  0  0  0  0  0  0  0  0
   -7.7902    2.1919    2.2024 H   0  0  0  0  0  0  0  0  0  0  0  0
   -6.0992    1.8441    2.4450 H   0  0  0  0  0  0  0  0  0  0  0  0
   -9.3051   -0.2902   -1.5590 H   0  0  0  0  0  0  0  0  0  0  0  0
  -10.8301    0.0413    2.1071 H   0  0  0  0  0  0  0  0  0  0  0  0
   -9.1945   -0.5978    2.3111 H   0  0  0  0  0  0  0  0  0  0  0  0
  -10.2150   -1.1363    0.9406 H   0  0  0  0  0  0  0  0  0  0  0  0
  1 12  1  0  0  0  0
  1 14  1  0  0  0  0
  2 11  1  0  0  0  0
  2 16  1  0  0  0  0
  3 13  1  0  0  0  0
  3 46  1  0  0  0  0
  4 14  1  0  0  0  0
  4 47  1  0  0  0  0
  5 15  1  0  0  0  0
  5 22  1  0  0  0  0
  6 18  1  0  0  0  0
  6 52  1  0  0  0  0
  7 22  2  0  0  0  0
  8 29  1  0  0  0  0
  8 33  1  0  0  0  0
  9 31  1  0  0  0  0
  9 35  1  0  0  0  0
 10 33  2  0  0  0  0
 11 13  1  0  0  0  0
 11 14  1  0  0  0  0
 11 17  1  0  0  0  0
 12 13  1  0  0  0  0
 12 15  1  0  0  0  0
 12 19  1  0  0  0  0
 13 36  1  0  0  0  0
 14 18  1  0  0  0  0
 15 16  1  0  0  0  0
 15 37  1  0  0  0  0
 16 20  1  0  0  0  0
 16 38  1  0  0  0  0
 17 39  1  0  0  0  0
 17 40  1  0  0  0  0
 17 41  1  0  0  0  0
 18 21  1  0  0  0  0
 18 42  1  0  0  0  0
 19 43  1  0  0  0  0
 19 44  1  0  0  0  0
 19 45  1  0  0  0  0
 20 23  2  0  0  0  0
 20 48  1  0  0  0  0
 21 49  1  0  0  0  0
 21 50  1  0  0  0  0
 21 51  1  0  0  0  0
 22 24  1  0  0  0  0
 23 25  1  0  0  0  0
 23 53  1  0  0  0  0
 24 54  1  0  0  0  0
 24 55  1  0  0  0  0
 24 56  1  0  0  0  0
 25 26  2  0  0  0  0
 25 57  1  0  0  0  0
 26 27  1  0  0  0  0
 26 58  1  0  0  0  0
 27 28  2  0  0  0  0
 27 59  1  0  0  0  0
 28 29  1  0  0  0  0
 28 60  1  0  0  0  0
 29 30  2  0  0  0  0
 30 31  1  0  0  0  0
 30 32  1  0  0  0  0
 31 34  2  0  0  0  0
 32 61  1  0  0  0  0
 32 62  1  0  0  0  0
 32 63  1  0  0  0  0
 33 34  1  0  0  0  0
 34 64  1  0  0  0  0
 35 65  1  0  0  0  0
 35 66  1  0  0  0  0
 35 67  1  0  0  0  0
M  END
> <PUBCHEM_COMPOUND_CID>
101844054

> <PUBCHEM_CONFORMER_RMSD>
1

> <PUBCHEM_CONFORMER_DIVERSEORDER>
1
10
6
2
7
9
5
11
3
4
12
8

> <PUBCHEM_MMFF94_PARTIAL_CHARGES>
42
1 -0.56
10 -0.57
11 0.28
12 0.28
13 0.28
14 0.56
15 0.28
16 0.42
18 0.28
2 -0.56
20 -0.29
22 0.66
23 -0.15
24 0.06
25 -0.15
26 -0.15
27 -0.15
28 -0.15
29 0.08
3 -0.68
30 -0.14
31 0.08
32 0.14
33 0.71
34 -0.14
35 0.28
4 -0.68
46 0.4
47 0.4
48 0.15
5 -0.43
52 0.4
53 0.15
57 0.15
58 0.15
59 0.15
6 -0.68
60 0.15
64 0.15
7 -0.57
8 -0.23
9 -0.36

> <PUBCHEM_EFFECTIVE_ROTOR_COUNT>
9.2

> <PUBCHEM_PHARMACOPHORE_FEATURES>
13
1 1 acceptor
1 10 acceptor
1 2 acceptor
1 3 acceptor
1 3 donor
1 4 acceptor
1 4 donor
1 6 acceptor
1 6 donor
1 7 acceptor
1 9 acceptor
6 8 29 30 31 33 34 rings
8 1 2 11 12 13 14 15 16 rings

> <PUBCHEM_HEAVY_ATOM_COUNT>
35

> <PUBCHEM_ATOM_DEF_STEREO_COUNT>
7

> <PUBCHEM_ATOM_UDEF_STEREO_COUNT>
0

> <PUBCHEM_BOND_DEF_STEREO_COUNT>
3

> <PUBCHEM_BOND_UDEF_STEREO_COUNT>
0

> <PUBCHEM_ISOTOPIC_ATOM_COUNT>
0

> <PUBCHEM_COMPONENT_COUNT>
1

> <PUBCHEM_CACTVS_TAUTO_COUNT>
4

> <PUBCHEM_CONFORMER_ID>
0612045600000001

> <PUBCHEM_MMFF94_ENERGY>
119.0661

> <PUBCHEM_FEATURE_SELFOVERLAP>
66.032

> <PUBCHEM_SHAPE_FINGERPRINT>
10165383 225 18260271876535204284
10299344 5 18131633370749356695
11719270 70 17313103046756874563
12089408 11 17775005683738527301
13533116 47 18335984164316500170
13692114 37 18186238446342126898
14118638 360 18113899304513029333
14400156 188 17823130126391741626
14675020 138 18186790397052477978
15183329 4 18040719147841970893
15328829 1 18343869914152649125
15419008 47 16877659072470439885
1577012 14 17560798857973790517
16096371 109 17967809440555482258
20157964 124 18113338604594716566
22149856 69 18114184086556860733
23081809 10 18272651225853238781
23522609 53 18129685031629321145
335507 130 18341049623482078687
4073 2 18338797939679918539
5109719 28 17821732766448502309
6441014 3 16452609600273433027
68570916 9 17561077042852539237
9831232 110 13624071068390425752

> <PUBCHEM_SHAPE_MULTIPOLES>
661.59
30.64
3
2.17
74.23
1.96
-0.27
-8.34
1.03
-8.22
1.79
0.43
0.01
-1.14

> <PUBCHEM_SHAPE_SELFOVERLAP>
1395.74

> <PUBCHEM_SHAPE_VOLUME>
367.7

> <PUBCHEM_COORDINATE_TYPE>
2
5
10

$$$$
