101888573
  -OEChem-03292013293D

 57 61  0     1  0  0  0  0  0999 V2000
    1.5777    2.3244    1.2335 O   0  0  0  0  0  0  0  0  0  0  0  0
   -1.4635    3.7778   -0.7688 O   0  0  0  0  0  0  0  0  0  0  0  0
   -3.1512   -2.0235   -0.8371 O   0  0  0  0  0  0  0  0  0  0  0  0
    5.1193    0.9943   -0.5148 O   0  0  0  0  0  0  0  0  0  0  0  0
    1.2339    1.3906   -0.8468 N   0  0  0  0  0  0  0  0  0  0  0  0
    3.8507    0.7888    1.4266 N   0  0  0  0  0  0  0  0  0  0  0  0
   -1.5554    1.4565   -0.4968 N   0  0  0  0  0  0  0  0  0  0  0  0
   -1.2806   -1.6548    0.3794 N   0  0  0  0  0  0  0  0  0  0  0  0
    0.4762    2.5296   -1.3675 C   0  0  1  0  0  0  0  0  0  0  0  0
    0.4496    2.3209   -2.8834 C   0  0  0  0  0  0  0  0  0  0  0  0
    0.5956    0.8138   -3.0486 C   0  0  0  0  0  0  0  0  0  0  0  0
    1.5236    0.4308   -1.9088 C   0  0  0  0  0  0  0  0  0  0  0  0
    1.7883    1.4101    0.4297 C   0  0  0  0  0  0  0  0  0  0  0  0
    2.6661    0.2177    0.8303 C   0  0  2  0  0  0  0  0  0  0  0  0
   -0.9417    2.6633   -0.8005 C   0  0  0  0  0  0  0  0  0  0  0  0
    1.9582   -0.7037    1.8365 C   0  0  0  0  0  0  0  0  0  0  0  0
    0.7810   -1.3906    1.2290 C   0  0  0  0  0  0  0  0  0  0  0  0
    0.7707   -2.5863    0.4561 C   0  0  0  0  0  0  0  0  0  0  0  0
   -0.5208   -0.9475    1.2866 C   0  0  0  0  0  0  0  0  0  0  0  0
   -0.5292   -2.7538   -0.0420 C   0  0  0  0  0  0  0  0  0  0  0  0
   -2.8051    1.2554    0.1528 C   0  0  0  0  0  0  0  0  0  0  0  0
   -3.2845   -0.0548    0.3743 C   0  0  0  0  0  0  0  0  0  0  0  0
   -2.5701   -1.2812   -0.0519 C   0  0  0  0  0  0  0  0  0  0  0  0
    1.7681   -3.5231    0.1071 C   0  0  0  0  0  0  0  0  0  0  0  0
   -0.8554   -3.8555   -0.8552 C   0  0  0  0  0  0  0  0  0  0  0  0
    4.9789    1.1286    0.6980 C   0  0  0  0  0  0  0  0  0  0  0  0
   -3.5930    2.3215    0.6121 C   0  0  0  0  0  0  0  0  0  0  0  0
    1.4419   -4.6163   -0.6978 C   0  0  0  0  0  0  0  0  0  0  0  0
    0.1454   -4.7807   -1.1674 C   0  0  0  0  0  0  0  0  0  0  0  0
   -4.5227   -0.2754    0.9980 C   0  0  0  0  0  0  0  0  0  0  0  0
    6.0575    1.7266    1.5610 C   0  0  0  0  0  0  0  0  0  0  0  0
   -4.8215    2.0958    1.2436 C   0  0  0  0  0  0  0  0  0  0  0  0
   -5.2879    0.8008    1.4327 C   0  0  0  0  0  0  0  0  0  0  0  0
    1.0125    3.4510   -1.1087 H   0  0  0  0  0  0  0  0  0  0  0  0
   -0.4537    2.7045   -3.3674 H   0  0  0  0  0  0  0  0  0  0  0  0
    1.3154    2.8185   -3.3375 H   0  0  0  0  0  0  0  0  0  0  0  0
   -0.3783    0.3257   -2.9277 H   0  0  0  0  0  0  0  0  0  0  0  0
    0.9946    0.5304   -4.0266 H   0  0  0  0  0  0  0  0  0  0  0  0
    1.3644   -0.5951   -1.5756 H   0  0  0  0  0  0  0  0  0  0  0  0
    2.5739    0.5547   -2.1951 H   0  0  0  0  0  0  0  0  0  0  0  0
    2.9849   -0.3565   -0.0428 H   0  0  0  0  0  0  0  0  0  0  0  0
    1.6322   -0.1281    2.7134 H   0  0  0  0  0  0  0  0  0  0  0  0
    2.6651   -1.4535    2.2141 H   0  0  0  0  0  0  0  0  0  0  0  0
    3.8220    1.0175    2.4165 H   0  0  0  0  0  0  0  0  0  0  0  0
   -1.0480    0.6169   -0.7543 H   0  0  0  0  0  0  0  0  0  0  0  0
   -0.9284   -0.0967    1.8155 H   0  0  0  0  0  0  0  0  0  0  0  0
    2.7872   -3.4043    0.4651 H   0  0  0  0  0  0  0  0  0  0  0  0
   -1.8555   -4.0053   -1.2466 H   0  0  0  0  0  0  0  0  0  0  0  0
   -3.2889    3.3563    0.5080 H   0  0  0  0  0  0  0  0  0  0  0  0
    2.2085   -5.3406   -0.9585 H   0  0  0  0  0  0  0  0  0  0  0  0
   -0.0950   -5.6358   -1.7939 H   0  0  0  0  0  0  0  0  0  0  0  0
   -4.8949   -1.2846    1.1578 H   0  0  0  0  0  0  0  0  0  0  0  0
    6.1917    1.1334    2.4702 H   0  0  0  0  0  0  0  0  0  0  0  0
    7.0027    1.7407    1.0112 H   0  0  0  0  0  0  0  0  0  0  0  0
    5.7813    2.7495    1.8307 H   0  0  0  0  0  0  0  0  0  0  0  0
   -5.4130    2.9396    1.5884 H   0  0  0  0  0  0  0  0  0  0  0  0
   -6.2425    0.6301    1.9210 H   0  0  0  0  0  0  0  0  0  0  0  0
  1 13  2  0  0  0  0
  2 15  2  0  0  0  0
  3 23  2  0  0  0  0
  4 26  2  0  0  0  0
  5  9  1  0  0  0  0
  5 12  1  0  0  0  0
  5 13  1  0  0  0  0
  6 14  1  0  0  0  0
  6 26  1  0  0  0  0
  6 44  1  0  0  0  0
  7 15  1  0  0  0  0
  7 21  1  0  0  0  0
  7 45  1  0  0  0  0
  8 19  1  0  0  0  0
  8 20  1  0  0  0  0
  8 23  1  0  0  0  0
  9 10  1  0  0  0  0
  9 15  1  0  0  0  0
  9 34  1  0  0  0  0
 10 11  1  0  0  0  0
 10 35  1  0  0  0  0
 10 36  1  0  0  0  0
 11 12  1  0  0  0  0
 11 37  1  0  0  0  0
 11 38  1  0  0  0  0
 12 39  1  0  0  0  0
 12 40  1  0  0  0  0
 13 14  1  0  0  0  0
 14 16  1  0  0  0  0
 14 41  1  0  0  0  0
 16 17  1  0  0  0  0
 16 42  1  0  0  0  0
 16 43  1  0  0  0  0
 17 18  1  0  0  0  0
 17 19  2  0  0  0  0
 18 20  1  0  0  0  0
 18 24  2  0  0  0  0
 19 46  1  0  0  0  0
 20 25  2  0  0  0  0
 21 22  1  0  0  0  0
 21 27  2  0  0  0  0
 22 23  1  0  0  0  0
 22 30  2  0  0  0  0
 24 28  1  0  0  0  0
 24 47  1  0  0  0  0
 25 29  1  0  0  0  0
 25 48  1  0  0  0  0
 26 31  1  0  0  0  0
 27 32  1  0  0  0  0
 27 49  1  0  0  0  0
 28 29  2  0  0  0  0
 28 50  1  0  0  0  0
 29 51  1  0  0  0  0
 30 33  1  0  0  0  0
 30 52  1  0  0  0  0
 31 53  1  0  0  0  0
 31 54  1  0  0  0  0
 31 55  1  0  0  0  0
 32 33  2  0  0  0  0
 32 56  1  0  0  0  0
 33 57  1  0  0  0  0
M  END
> <PUBCHEM_COMPOUND_CID>
101888573

> <PUBCHEM_CONFORMER_RMSD>
0.8

> <PUBCHEM_CONFORMER_DIVERSEORDER>
1
3
2
4

> <PUBCHEM_MMFF94_PARTIAL_CHARGES>
41
1 -0.57
12 0.3
13 0.57
14 0.36
15 0.57
16 0.18
17 -0.18
19 -0.3
2 -0.57
20 -0.15
21 0.12
22 0.09
23 0.49
24 -0.15
25 -0.15
26 0.57
27 -0.15
28 -0.15
29 -0.15
3 -0.57
30 -0.15
31 0.06
32 -0.15
33 -0.15
4 -0.57
44 0.37
45 0.37
46 0.15
47 0.15
48 0.15
49 0.15
5 -0.66
50 0.15
51 0.15
52 0.15
56 0.15
57 0.15
6 -0.73
7 -0.55
8 0.29
9 0.36

> <PUBCHEM_EFFECTIVE_ROTOR_COUNT>
3.2

> <PUBCHEM_PHARMACOPHORE_FEATURES>
10
1 1 acceptor
1 2 acceptor
1 3 acceptor
1 4 acceptor
1 6 donor
1 7 donor
5 5 9 10 11 12 rings
5 8 17 18 19 20 rings
6 18 20 24 25 28 29 rings
6 21 22 27 30 32 33 rings

> <PUBCHEM_HEAVY_ATOM_COUNT>
33

> <PUBCHEM_ATOM_DEF_STEREO_COUNT>
2

> <PUBCHEM_ATOM_UDEF_STEREO_COUNT>
0

> <PUBCHEM_BOND_DEF_STEREO_COUNT>
0

> <PUBCHEM_BOND_UDEF_STEREO_COUNT>
0

> <PUBCHEM_ISOTOPIC_ATOM_COUNT>
0

> <PUBCHEM_COMPONENT_COUNT>
1

> <PUBCHEM_CACTVS_TAUTO_COUNT>
18

> <PUBCHEM_CONFORMER_ID>
0612B23D00000001

> <PUBCHEM_MMFF94_ENERGY>
100.3244

> <PUBCHEM_FEATURE_SELFOVERLAP>
50.837

> <PUBCHEM_SHAPE_FINGERPRINT>
10165383 225 18272087197103657585
11115154 58 17188667171262302015
11513181 2 18127404554334084295
11582403 64 16701151197349015346
12422481 6 18042115467115818248
12597179 24 18059862779084319702
12788726 201 17473281232490145087
13140716 1 18043539515004677993
13383668 90 17773886466230969062
13757389 114 18195819681013158758
13965767 371 18337375046662696411
14068700 675 17621580036508353398
14363568 33 17909560462606007499
14790565 3 18412547621746211344
14840074 17 17822014237367472988
14863182 85 18262817180299692877
14955137 171 18114758112655392688
15420108 30 18341321245334677890
1979834 28 18337404742615219969
20600515 1 18127421261208732709
20764821 26 18123162668454940926
21033648 29 18129939108718701816
22149856 69 18269579186814169003
22182313 1 17825386272194812645
238 59 16384182619436186316
25019877 29 17987799742832893222
255183 313 18337093653944615432
3493558 16 17694778923616179800
469060 322 17024006307425265584
5080951 261 17836323346848549946
513532 50 17987811687627033861
5265222 85 18265913491618537812
57527306 92 17531515581391021537
581034 39 18411978061700802130
6287921 2 18266463096580724531

> <PUBCHEM_SHAPE_MULTIPOLES>
635.72
8.43
5.51
2.1
0.75
6.4
1.33
-6.72
-5.9
1.21
2.22
0.9
-1.17
0.26

> <PUBCHEM_SHAPE_SELFOVERLAP>
1399.657

> <PUBCHEM_SHAPE_VOLUME>
340.7

> <PUBCHEM_COORDINATE_TYPE>
2
5
10

$$$$
