101881880
  -OEChem-03292013293D

 55 61  0     1  0  0  0  0  0999 V2000
   -0.0449   -1.0654   -1.8043 O   0  0  0  0  0  0  0  0  0  0  0  0
   -2.4425   -0.1687   -1.3696 O   0  0  0  0  0  0  0  0  0  0  0  0
   -0.8324    2.0586   -1.8780 O   0  0  0  0  0  0  0  0  0  0  0  0
    1.1395   -3.0336    0.5091 O   0  0  0  0  0  0  0  0  0  0  0  0
    2.0983    1.2376   -2.5761 O   0  0  0  0  0  0  0  0  0  0  0  0
   -0.2863   -0.6125    2.8792 O   0  0  0  0  0  0  0  0  0  0  0  0
   -2.8468   -1.4874    1.6191 O   0  0  0  0  0  0  0  0  0  0  0  0
   -1.5997   -3.0076    0.4065 O   0  0  0  0  0  0  0  0  0  0  0  0
    0.2369   -1.0657   -0.3960 C   0  0  1  0  0  0  0  0  0  0  0  0
    0.5125    0.1352   -1.2446 C   0  0  2  0  0  0  0  0  0  0  0  0
   -0.9321   -0.6973    0.5317 C   0  0  2  0  0  0  0  0  0  0  0  0
   -0.4788    1.2129   -0.7995 C   0  0  2  0  0  0  0  0  0  0  0  0
   -1.7071    0.4127   -0.2561 C   0  0  1  0  0  0  0  0  0  0  0  0
    0.1805    1.9554    0.3633 C   0  0  0  0  0  0  0  0  0  0  0  0
    1.3555   -1.9415    0.0025 C   0  0  0  0  0  0  0  0  0  0  0  0
    1.8884    0.4163   -1.6947 C   0  0  0  0  0  0  0  0  0  0  0  0
   -0.3280   -0.0455    1.7927 C   0  0  0  0  0  0  0  0  0  0  0  0
   -2.7445    1.1866    0.4989 C   0  0  0  0  0  0  0  0  0  0  0  0
   -1.8083   -1.8774    0.8263 C   0  0  0  0  0  0  0  0  0  0  0  0
    0.2671    1.3183    1.6236 C   0  0  0  0  0  0  0  0  0  0  0  0
   -3.8254    0.2451   -1.3146 C   0  0  0  0  0  0  0  0  0  0  0  0
    2.7325   -1.4392   -0.2189 C   0  0  0  0  0  0  0  0  0  0  0  0
    2.9860   -0.3194   -1.0256 C   0  0  0  0  0  0  0  0  0  0  0  0
   -3.9304    1.0902   -0.0960 C   0  0  0  0  0  0  0  0  0  0  0  0
    0.7483    3.2255    0.2094 C   0  0  0  0  0  0  0  0  0  0  0  0
    0.8910    1.9484    2.7021 C   0  0  0  0  0  0  0  0  0  0  0  0
   -4.6982   -1.0044   -1.2206 C   0  0  0  0  0  0  0  0  0  0  0  0
   -4.1473    1.0333   -2.5824 C   0  0  0  0  0  0  0  0  0  0  0  0
    3.7988   -2.1194    0.3805 C   0  0  0  0  0  0  0  0  0  0  0  0
    4.3023    0.1114   -1.2266 C   0  0  0  0  0  0  0  0  0  0  0  0
    1.3727    3.8521    1.2894 C   0  0  0  0  0  0  0  0  0  0  0  0
    1.4423    3.2170    2.5298 C   0  0  0  0  0  0  0  0  0  0  0  0
    5.1081   -1.6808    0.1803 C   0  0  0  0  0  0  0  0  0  0  0  0
    5.3591   -0.5687   -0.6209 C   0  0  0  0  0  0  0  0  0  0  0  0
   -3.7673   -2.5221    1.9798 C   0  0  0  0  0  0  0  0  0  0  0  0
   -2.5797    1.7523    1.4042 H   0  0  0  0  0  0  0  0  0  0  0  0
   -0.0239    2.2971   -2.3621 H   0  0  0  0  0  0  0  0  0  0  0  0
   -4.8363    1.5603    0.2575 H   0  0  0  0  0  0  0  0  0  0  0  0
    0.7194    3.7419   -0.7457 H   0  0  0  0  0  0  0  0  0  0  0  0
    0.9594    1.4706    3.6751 H   0  0  0  0  0  0  0  0  0  0  0  0
   -3.5069    1.9179   -2.6754 H   0  0  0  0  0  0  0  0  0  0  0  0
   -4.4656   -1.6081   -0.3476 H   0  0  0  0  0  0  0  0  0  0  0  0
   -5.7627   -0.7484   -1.1808 H   0  0  0  0  0  0  0  0  0  0  0  0
   -5.1912    1.3646   -2.5993 H   0  0  0  0  0  0  0  0  0  0  0  0
   -3.9613    0.4246   -3.4747 H   0  0  0  0  0  0  0  0  0  0  0  0
   -4.5337   -1.6528   -2.0892 H   0  0  0  0  0  0  0  0  0  0  0  0
    3.6307   -2.9899    1.0090 H   0  0  0  0  0  0  0  0  0  0  0  0
    4.5247    0.9754   -1.8473 H   0  0  0  0  0  0  0  0  0  0  0  0
    1.8097    4.8386    1.1626 H   0  0  0  0  0  0  0  0  0  0  0  0
    1.9309    3.7126    3.3639 H   0  0  0  0  0  0  0  0  0  0  0  0
    5.9338   -2.2086    0.6489 H   0  0  0  0  0  0  0  0  0  0  0  0
    6.3800   -0.2314   -0.7754 H   0  0  0  0  0  0  0  0  0  0  0  0
   -4.7279   -2.0546    2.2129 H   0  0  0  0  0  0  0  0  0  0  0  0
   -3.3990   -3.0302    2.8755 H   0  0  0  0  0  0  0  0  0  0  0  0
   -3.9199   -3.2469    1.1741 H   0  0  0  0  0  0  0  0  0  0  0  0
  1  9  1  0  0  0  0
  1 10  1  0  0  0  0
  2 13  1  0  0  0  0
  2 21  1  0  0  0  0
  3 12  1  0  0  0  0
  3 37  1  0  0  0  0
  4 15  2  0  0  0  0
  5 16  2  0  0  0  0
  6 17  2  0  0  0  0
  7 19  1  0  0  0  0
  7 35  1  0  0  0  0
  8 19  2  0  0  0  0
  9 10  1  0  0  0  0
  9 11  1  0  0  0  0
  9 15  1  0  0  0  0
 10 12  1  0  0  0  0
 10 16  1  0  0  0  0
 11 13  1  0  0  0  0
 11 17  1  0  0  0  0
 11 19  1  0  0  0  0
 12 13  1  0  0  0  0
 12 14  1  0  0  0  0
 13 18  1  0  0  0  0
 14 20  1  0  0  0  0
 14 25  2  0  0  0  0
 15 22  1  0  0  0  0
 16 23  1  0  0  0  0
 17 20  1  0  0  0  0
 18 24  2  0  0  0  0
 18 36  1  0  0  0  0
 20 26  2  0  0  0  0
 21 24  1  0  0  0  0
 21 27  1  0  0  0  0
 21 28  1  0  0  0  0
 22 23  1  0  0  0  0
 22 29  2  0  0  0  0
 23 30  2  0  0  0  0
 24 38  1  0  0  0  0
 25 31  1  0  0  0  0
 25 39  1  0  0  0  0
 26 32  1  0  0  0  0
 26 40  1  0  0  0  0
 27 42  1  0  0  0  0
 27 43  1  0  0  0  0
 27 46  1  0  0  0  0
 28 41  1  0  0  0  0
 28 44  1  0  0  0  0
 28 45  1  0  0  0  0
 29 33  1  0  0  0  0
 29 47  1  0  0  0  0
 30 34  1  0  0  0  0
 30 48  1  0  0  0  0
 31 32  2  0  0  0  0
 31 49  1  0  0  0  0
 32 50  1  0  0  0  0
 33 34  2  0  0  0  0
 33 51  1  0  0  0  0
 34 52  1  0  0  0  0
 35 53  1  0  0  0  0
 35 54  1  0  0  0  0
 35 55  1  0  0  0  0
M  END
> <PUBCHEM_COMPOUND_CID>
101881880

> <PUBCHEM_CONFORMER_RMSD>
0.8

> <PUBCHEM_CONFORMER_DIVERSEORDER>
1
2

> <PUBCHEM_MMFF94_PARTIAL_CHARGES>
44
1 -0.3
10 0.05
11 0.22
12 0.52
13 0.42
14 -0.14
15 0.48
16 0.48
17 0.42
18 -0.29
19 0.66
2 -0.56
20 0.09
21 0.42
22 0.09
23 0.09
24 -0.29
25 -0.15
26 -0.15
29 -0.15
3 -0.68
30 -0.15
31 -0.15
32 -0.15
33 -0.15
34 -0.15
35 0.28
36 0.15
37 0.4
38 0.15
39 0.15
4 -0.57
40 0.15
47 0.15
48 0.15
49 0.15
5 -0.57
50 0.15
51 0.15
52 0.15
6 -0.57
7 -0.43
8 -0.57
9 0.05

> <PUBCHEM_EFFECTIVE_ROTOR_COUNT>
2.6

> <PUBCHEM_PHARMACOPHORE_FEATURES>
15
1 1 acceptor
1 2 acceptor
1 3 acceptor
1 3 donor
1 4 acceptor
1 5 acceptor
1 6 acceptor
1 8 acceptor
3 21 27 28 hydrophobe
5 2 13 18 21 24 rings
6 1 9 10 11 12 13 rings
6 14 20 25 26 31 32 rings
6 22 23 29 30 33 34 rings
7 1 9 10 15 16 22 23 rings
8 9 10 11 12 13 14 17 20 rings

> <PUBCHEM_HEAVY_ATOM_COUNT>
35

> <PUBCHEM_ATOM_DEF_STEREO_COUNT>
4

> <PUBCHEM_ATOM_UDEF_STEREO_COUNT>
1

> <PUBCHEM_BOND_DEF_STEREO_COUNT>
0

> <PUBCHEM_BOND_UDEF_STEREO_COUNT>
0

> <PUBCHEM_ISOTOPIC_ATOM_COUNT>
0

> <PUBCHEM_COMPONENT_COUNT>
1

> <PUBCHEM_CACTVS_TAUTO_COUNT>
1

> <PUBCHEM_CONFORMER_ID>
0612981800000001

> <PUBCHEM_MMFF94_ENERGY>
117.84

> <PUBCHEM_FEATURE_SELFOVERLAP>
79.892

> <PUBCHEM_SHAPE_FINGERPRINT>
10863032 1 18041290936220941446
10930396 42 17983821624739304386
10948715 1 15213307391217131437
11578080 2 18194407916330468569
12107698 1 18060131025936681605
12156800 1 17314203700983139960
12160290 23 17483145668441227192
12422481 6 17607000289180436451
12788726 201 17981602672102242808
13140716 1 18187097156084947654
13149001 5 18271235118605106943
133893 2 17631165475504287601
13583140 156 18267303312432272798
13911987 19 18341341050045636374
14787075 74 18341324509857339406
14955137 171 17488489457981049523
15439362 3 18128518535090476209
16945 1 17895766071138066791
17349148 13 18263370192026060102
17980427 23 16200158732684513592
1813 80 17275111621498030924
18769570 83 17986678064910414449
19319366 153 17760369886502692385
20600515 1 18265070062661557932
20691752 17 18267849623793483977
20715895 44 17824541868301492109
20775438 99 17623251234042832823
22182313 1 18118675754611400273
23419403 2 18267870656184593713
23559900 14 18114177605519081269
244849 19 18264481965853726091
3298306 158 17841985891439905224
3493558 16 17968101876215379700
350125 39 18042137582145284295
35225 105 16767349257862769416
392239 28 18342462573707637634
469060 322 17274818005076074698
56638632 33 17826771677888293090
57527585 103 17172687621209926066
5845 1 16701472155865158144
6669772 16 18054491771777384580

> <PUBCHEM_SHAPE_MULTIPOLES>
673.33
7.63
3.55
2.54
1.82
2.2
0.32
-4.17
-2.84
1.15
2.21
-1.07
0.74
1.35

> <PUBCHEM_SHAPE_SELFOVERLAP>
1562.499

> <PUBCHEM_SHAPE_VOLUME>
342.7

> <PUBCHEM_COORDINATE_TYPE>
2
5
10

$$$$
