101866716
  -OEChem-03292013293D

 56 58  0     1  0  0  0  0  0999 V2000
   -2.1151    0.6098    0.7430 O   0  0  0  0  0  0  0  0  0  0  0  0
   -0.1667   -0.4765    0.0595 O   0  0  0  0  0  0  0  0  0  0  0  0
   -4.2501   -0.9716   -2.3888 O   0  0  0  0  0  0  0  0  0  0  0  0
   -5.2907    1.3055   -0.9438 O   0  0  0  0  0  0  0  0  0  0  0  0
   -1.3078   -0.8654   -2.5006 O   0  0  0  0  0  0  0  0  0  0  0  0
   -3.0653    2.5619    2.4288 O   0  0  0  0  0  0  0  0  0  0  0  0
    0.4847    2.0449    1.0267 O   0  0  0  0  0  0  0  0  0  0  0  0
    3.1184    3.0533    0.3060 O   0  0  0  0  0  0  0  0  0  0  0  0
    0.5365   -3.2796    0.8244 O   0  0  0  0  0  0  0  0  0  0  0  0
    2.6590   -2.9352    1.6604 O   0  0  0  0  0  0  0  0  0  0  0  0
   -3.4279   -0.0021   -1.7371 C   0  0  1  0  0  0  0  0  0  0  0  0
   -4.1854    0.5150   -0.5141 C   0  0  1  0  0  0  0  0  0  0  0  0
   -2.1017   -0.6473   -1.3347 C   0  0  2  0  0  0  0  0  0  0  0  0
   -3.2709    1.3635    0.3725 C   0  0  1  0  0  0  0  0  0  0  0  0
   -1.3140    0.2498   -0.3800 C   0  0  1  0  0  0  0  0  0  0  0  0
   -3.9709    1.7937    1.6577 C   0  0  0  0  0  0  0  0  0  0  0  0
    1.0529    0.0694   -0.2341 C   0  0  0  0  0  0  0  0  0  0  0  0
    1.9608   -0.6461   -1.0187 C   0  0  0  0  0  0  0  0  0  0  0  0
    1.3652    1.3393    0.2604 C   0  0  0  0  0  0  0  0  0  0  0  0
    1.6067   -2.0028   -1.5379 C   0  0  0  0  0  0  0  0  0  0  0  0
    3.2180   -0.1140   -1.3369 C   0  0  0  0  0  0  0  0  0  0  0  0
    2.6217    1.8420   -0.0724 C   0  0  0  0  0  0  0  0  0  0  0  0
    3.5533    1.1615   -0.8499 C   0  0  0  0  0  0  0  0  0  0  0  0
    2.2782   -3.1220   -0.7344 C   0  0  0  0  0  0  0  0  0  0  0  0
    4.6798    2.0208   -0.9426 C   0  0  0  0  0  0  0  0  0  0  0  0
    4.3647    3.1520   -0.2259 C   0  0  0  0  0  0  0  0  0  0  0  0
    1.8865   -3.0952    0.7254 C   0  0  0  0  0  0  0  0  0  0  0  0
    0.5562    1.8512    2.4373 C   0  0  0  0  0  0  0  0  0  0  0  0
    0.0107   -3.2808    2.1556 C   0  0  0  0  0  0  0  0  0  0  0  0
   -1.4867   -3.4949    2.0942 C   0  0  0  0  0  0  0  0  0  0  0  0
   -3.2674    0.8011   -2.4659 H   0  0  0  0  0  0  0  0  0  0  0  0
   -4.5899   -0.3318    0.0539 H   0  0  0  0  0  0  0  0  0  0  0  0
   -2.2748   -1.6309   -0.8824 H   0  0  0  0  0  0  0  0  0  0  0  0
   -2.9421    2.2704   -0.1531 H   0  0  0  0  0  0  0  0  0  0  0  0
   -1.0180    1.1634   -0.9157 H   0  0  0  0  0  0  0  0  0  0  0  0
   -4.2605    0.9222    2.2544 H   0  0  0  0  0  0  0  0  0  0  0  0
   -4.8572    2.4004    1.4490 H   0  0  0  0  0  0  0  0  0  0  0  0
   -4.3957   -1.7086   -1.7715 H   0  0  0  0  0  0  0  0  0  0  0  0
   -4.9415    2.0671   -1.4373 H   0  0  0  0  0  0  0  0  0  0  0  0
   -1.1329   -0.0023   -2.9129 H   0  0  0  0  0  0  0  0  0  0  0  0
    1.9164   -2.0785   -2.5883 H   0  0  0  0  0  0  0  0  0  0  0  0
    0.5273   -2.1703   -1.5452 H   0  0  0  0  0  0  0  0  0  0  0  0
   -3.5287    2.8195    3.2439 H   0  0  0  0  0  0  0  0  0  0  0  0
    3.9231   -0.6706   -1.9476 H   0  0  0  0  0  0  0  0  0  0  0  0
    2.0150   -4.1033   -1.1451 H   0  0  0  0  0  0  0  0  0  0  0  0
    3.3700   -3.0374   -0.7907 H   0  0  0  0  0  0  0  0  0  0  0  0
    5.6067    1.8378   -1.4674 H   0  0  0  0  0  0  0  0  0  0  0  0
    4.8923    4.0695   -0.0100 H   0  0  0  0  0  0  0  0  0  0  0  0
   -0.1790    2.5064    2.9118 H   0  0  0  0  0  0  0  0  0  0  0  0
    0.3197    0.8139    2.6945 H   0  0  0  0  0  0  0  0  0  0  0  0
    1.5508    2.1134    2.8118 H   0  0  0  0  0  0  0  0  0  0  0  0
    0.4769   -4.0879    2.7314 H   0  0  0  0  0  0  0  0  0  0  0  0
    0.2277   -2.3193    2.6344 H   0  0  0  0  0  0  0  0  0  0  0  0
   -1.9657   -2.6995    1.5138 H   0  0  0  0  0  0  0  0  0  0  0  0
   -1.7212   -4.4397    1.5930 H   0  0  0  0  0  0  0  0  0  0  0  0
   -1.9212   -3.5089    3.0976 H   0  0  0  0  0  0  0  0  0  0  0  0
  1 14  1  0  0  0  0
  1 15  1  0  0  0  0
  2 15  1  0  0  0  0
  2 17  1  0  0  0  0
  3 11  1  0  0  0  0
  3 38  1  0  0  0  0
  4 12  1  0  0  0  0
  4 39  1  0  0  0  0
  5 13  1  0  0  0  0
  5 40  1  0  0  0  0
  6 16  1  0  0  0  0
  6 43  1  0  0  0  0
  7 19  1  0  0  0  0
  7 28  1  0  0  0  0
  8 22  1  0  0  0  0
  8 26  1  0  0  0  0
  9 27  1  0  0  0  0
  9 29  1  0  0  0  0
 10 27  2  0  0  0  0
 11 12  1  0  0  0  0
 11 13  1  0  0  0  0
 11 31  1  0  0  0  0
 12 14  1  0  0  0  0
 12 32  1  0  0  0  0
 13 15  1  0  0  0  0
 13 33  1  0  0  0  0
 14 16  1  0  0  0  0
 14 34  1  0  0  0  0
 15 35  1  0  0  0  0
 16 36  1  0  0  0  0
 16 37  1  0  0  0  0
 17 18  2  0  0  0  0
 17 19  1  0  0  0  0
 18 20  1  0  0  0  0
 18 21  1  0  0  0  0
 19 22  2  0  0  0  0
 20 24  1  0  0  0  0
 20 41  1  0  0  0  0
 20 42  1  0  0  0  0
 21 23  2  0  0  0  0
 21 44  1  0  0  0  0
 22 23  1  0  0  0  0
 23 25  1  0  0  0  0
 24 27  1  0  0  0  0
 24 45  1  0  0  0  0
 24 46  1  0  0  0  0
 25 26  2  0  0  0  0
 25 47  1  0  0  0  0
 26 48  1  0  0  0  0
 28 49  1  0  0  0  0
 28 50  1  0  0  0  0
 28 51  1  0  0  0  0
 29 30  1  0  0  0  0
 29 52  1  0  0  0  0
 29 53  1  0  0  0  0
 30 54  1  0  0  0  0
 30 55  1  0  0  0  0
 30 56  1  0  0  0  0
M  END
> <PUBCHEM_COMPOUND_CID>
101866716

> <PUBCHEM_CONFORMER_RMSD>
1

> <PUBCHEM_CONFORMER_DIVERSEORDER>
1
34
36
42
60
52
90
40
32
79
77
61
70
62
20
71
59
91
81
22
92
41
86
69
76
93
58
63
48
66
94
26
49
43
23
85
4
68
19
25
37
29
55
27
78
50
15
72
18
73
7
75
53
57
31
65
82
21
44
87
64
89
38
11
56
80
83
45
28
13
84
33
12
39
88
74
8
2
35
67
14
17
24
46
3
6
51
54
47
5
16
30
9
10

> <PUBCHEM_MMFF94_PARTIAL_CHARGES>
35
1 -0.56
10 -0.57
11 0.28
12 0.28
13 0.28
14 0.28
15 0.56
16 0.28
17 0.08
18 -0.14
19 0.08
2 -0.36
20 0.14
21 -0.15
22 0.14
24 0.06
25 -0.15
26 -0.01
27 0.66
28 0.28
29 0.28
3 -0.68
38 0.4
39 0.4
4 -0.68
40 0.4
43 0.4
44 0.15
47 0.15
48 0.15
5 -0.68
6 -0.68
7 -0.36
8 -0.28
9 -0.43

> <PUBCHEM_EFFECTIVE_ROTOR_COUNT>
10.2

> <PUBCHEM_PHARMACOPHORE_FEATURES>
16
1 1 acceptor
1 10 acceptor
1 2 acceptor
1 3 acceptor
1 3 donor
1 4 acceptor
1 4 donor
1 5 acceptor
1 5 donor
1 6 acceptor
1 6 donor
1 7 acceptor
1 8 acceptor
5 8 22 23 25 26 rings
6 1 11 12 13 14 15 rings
6 17 18 19 21 22 23 rings

> <PUBCHEM_HEAVY_ATOM_COUNT>
30

> <PUBCHEM_ATOM_DEF_STEREO_COUNT>
5

> <PUBCHEM_ATOM_UDEF_STEREO_COUNT>
0

> <PUBCHEM_BOND_DEF_STEREO_COUNT>
0

> <PUBCHEM_BOND_UDEF_STEREO_COUNT>
0

> <PUBCHEM_ISOTOPIC_ATOM_COUNT>
0

> <PUBCHEM_COMPONENT_COUNT>
1

> <PUBCHEM_CACTVS_TAUTO_COUNT>
5

> <PUBCHEM_CONFORMER_ID>
06125CDC00000001

> <PUBCHEM_MMFF94_ENERGY>
82.3549

> <PUBCHEM_FEATURE_SELFOVERLAP>
81.375

> <PUBCHEM_SHAPE_FINGERPRINT>
10165383 225 17679900104339695102
1100329 8 18261394408687033642
12553582 1 17904769868694741642
12730499 353 18334300872581559141
12788726 201 17917986196878067463
13004483 165 16748160499108988690
133893 2 18190438511597018266
13583140 156 17829065221037591329
14040222 75 14877272109259097617
15420108 30 16906966310090449736
1813 80 17979067189762434034
20511986 3 18059282159066353688
21120745 212 16965194194991919674
21421861 104 18196098737723023080
22182313 1 17910139094080612708
22907989 373 17544769279451852180
23419403 2 18050887504237743670
23559900 14 16772396114812612172
238 59 18129657650658342542
3380486 145 16609978885720126530
35225 105 17539944579295076290
3759504 43 18118119401817676412
394222 165 18342182146196596506
4058900 60 18261689111872806956
4280585 95 16769890294012452716
4340502 62 18260840305954284891
4409770 3 17832424576662491634
469060 322 17387421353446608019
474 4 18411701010609127756
495365 180 17677328299714210679
5895379 119 17416689033546832233
9981440 41 18127399275592456290

> <PUBCHEM_SHAPE_MULTIPOLES>
558.69
8.31
4.55
2.35
3.74
3.56
0.41
-7.05
-2.82
-3.07
3.02
1.98
0.71
-0.77

> <PUBCHEM_SHAPE_SELFOVERLAP>
1184.03

> <PUBCHEM_SHAPE_VOLUME>
311.9

> <PUBCHEM_COORDINATE_TYPE>
2
5
10

$$$$
