101883986
  -OEChem-03292013293D

 36 39  0     1  0  0  0  0  0999 V2000
   -1.5762    0.0245   -1.4932 O   0  0  0  0  0  0  0  0  0  0  0  0
   -2.6526   -1.6097   -0.0453 O   0  0  0  0  0  0  0  0  0  0  0  0
   -0.1506    2.4521   -1.0176 O   0  0  0  0  0  0  0  0  0  0  0  0
   -0.0636   -2.3941   -1.4018 O   0  0  0  0  0  0  0  0  0  0  0  0
   -3.0701    2.4748    0.0313 O   0  0  0  0  0  0  0  0  0  0  0  0
    2.2279    2.7085    0.4082 O   0  0  0  0  0  0  0  0  0  0  0  0
    4.6414   -1.3720    0.2899 O   0  0  0  0  0  0  0  0  0  0  0  0
   -1.5386    0.6830   -0.2135 C   0  0  1  0  0  0  0  0  0  0  0  0
   -1.4830   -0.8174   -0.3309 C   0  0  2  0  0  0  0  0  0  0  0  0
   -0.2747    1.4696    0.0128 C   0  0  1  0  0  0  0  0  0  0  0  0
   -0.2089   -1.5876   -0.2328 C   0  0  2  0  0  0  0  0  0  0  0  0
   -2.8409    1.2800    0.1643 C   0  0  0  0  0  0  0  0  0  0  0  0
    0.9974    0.6563    0.0579 C   0  0  0  0  0  0  0  0  0  0  0  0
    1.0287   -0.7425   -0.0584 C   0  0  0  0  0  0  0  0  0  0  0  0
   -3.8318    0.3524    0.7379 C   0  0  0  0  0  0  0  0  0  0  0  0
   -3.6849   -0.9760    0.6190 C   0  0  0  0  0  0  0  0  0  0  0  0
    2.2095    1.3496    0.2574 C   0  0  0  0  0  0  0  0  0  0  0  0
    2.2697   -1.4070    0.0266 C   0  0  0  0  0  0  0  0  0  0  0  0
    3.4585   -0.7045    0.2137 C   0  0  0  0  0  0  0  0  0  0  0  0
    3.4283    0.6776    0.3299 C   0  0  0  0  0  0  0  0  0  0  0  0
   -4.7040   -1.9293    1.1624 C   0  0  0  0  0  0  0  0  0  0  0  0
    5.8185   -0.5881    0.4824 C   0  0  0  0  0  0  0  0  0  0  0  0
   -0.3631    1.9949    0.9727 H   0  0  0  0  0  0  0  0  0  0  0  0
   -0.2705   -2.2598    0.6327 H   0  0  0  0  0  0  0  0  0  0  0  0
   -4.6954    0.7910    1.2256 H   0  0  0  0  0  0  0  0  0  0  0  0
   -0.9170    3.0468   -0.9497 H   0  0  0  0  0  0  0  0  0  0  0  0
    2.3062   -2.4925   -0.0497 H   0  0  0  0  0  0  0  0  0  0  0  0
   -0.8289   -2.9931   -1.4397 H   0  0  0  0  0  0  0  0  0  0  0  0
    4.3192    1.2768    0.4846 H   0  0  0  0  0  0  0  0  0  0  0  0
   -5.1200   -2.5395    0.3541 H   0  0  0  0  0  0  0  0  0  0  0  0
   -5.5346   -1.4137    1.6555 H   0  0  0  0  0  0  0  0  0  0  0  0
   -4.2408   -2.5971    1.8958 H   0  0  0  0  0  0  0  0  0  0  0  0
    3.1426    3.0107    0.5396 H   0  0  0  0  0  0  0  0  0  0  0  0
    5.9926    0.0905   -0.3596 H   0  0  0  0  0  0  0  0  0  0  0  0
    5.7993   -0.0627    1.4432 H   0  0  0  0  0  0  0  0  0  0  0  0
    6.6659   -1.2808    0.5144 H   0  0  0  0  0  0  0  0  0  0  0  0
  1  8  1  0  0  0  0
  1  9  1  0  0  0  0
  2  9  1  0  0  0  0
  2 16  1  0  0  0  0
  3 10  1  0  0  0  0
  3 26  1  0  0  0  0
  4 11  1  0  0  0  0
  4 28  1  0  0  0  0
  5 12  2  0  0  0  0
  6 17  1  0  0  0  0
  6 33  1  0  0  0  0
  7 19  1  0  0  0  0
  7 22  1  0  0  0  0
  8  9  1  0  0  0  0
  8 10  1  0  0  0  0
  8 12  1  0  0  0  0
  9 11  1  0  0  0  0
 10 13  1  0  0  0  0
 10 23  1  0  0  0  0
 11 14  1  0  0  0  0
 11 24  1  0  0  0  0
 12 15  1  0  0  0  0
 13 14  2  0  0  0  0
 13 17  1  0  0  0  0
 14 18  1  0  0  0  0
 15 16  2  0  0  0  0
 15 25  1  0  0  0  0
 16 21  1  0  0  0  0
 17 20  2  0  0  0  0
 18 19  2  0  0  0  0
 18 27  1  0  0  0  0
 19 20  1  0  0  0  0
 20 29  1  0  0  0  0
 21 30  1  0  0  0  0
 21 31  1  0  0  0  0
 21 32  1  0  0  0  0
 22 34  1  0  0  0  0
 22 35  1  0  0  0  0
 22 36  1  0  0  0  0
M  END
> <PUBCHEM_COMPOUND_CID>
101883986

> <PUBCHEM_CONFORMER_RMSD>
0.6

> <PUBCHEM_CONFORMER_DIVERSEORDER>
1
2

> <PUBCHEM_MMFF94_PARTIAL_CHARGES>
28
1 -0.3
10 0.52
11 0.52
12 0.56
13 -0.14
14 -0.14
15 -0.14
16 -0.06
17 0.08
18 -0.15
19 0.08
2 -0.22
20 -0.15
21 0.14
22 0.28
25 0.15
26 0.4
27 0.15
28 0.4
29 0.15
3 -0.68
33 0.45
4 -0.68
5 -0.57
6 -0.53
7 -0.36
8 0.05
9 0.2

> <PUBCHEM_EFFECTIVE_ROTOR_COUNT>
1.8

> <PUBCHEM_PHARMACOPHORE_FEATURES>
12
1 1 acceptor
1 2 acceptor
1 3 acceptor
1 3 donor
1 4 acceptor
1 4 donor
1 5 acceptor
1 6 donor
1 7 acceptor
6 13 14 17 18 19 20 rings
7 1 2 8 9 12 15 16 rings
7 1 8 9 10 11 13 14 rings

> <PUBCHEM_HEAVY_ATOM_COUNT>
22

> <PUBCHEM_ATOM_DEF_STEREO_COUNT>
4

> <PUBCHEM_ATOM_UDEF_STEREO_COUNT>
0

> <PUBCHEM_BOND_DEF_STEREO_COUNT>
0

> <PUBCHEM_BOND_UDEF_STEREO_COUNT>
0

> <PUBCHEM_ISOTOPIC_ATOM_COUNT>
0

> <PUBCHEM_COMPONENT_COUNT>
1

> <PUBCHEM_CACTVS_TAUTO_COUNT>
9

> <PUBCHEM_CONFORMER_ID>
0612A05200000001

> <PUBCHEM_MMFF94_ENERGY>
65.6445

> <PUBCHEM_FEATURE_SELFOVERLAP>
61.068

> <PUBCHEM_SHAPE_FINGERPRINT>
10366900 7 17821450174769472602
10967382 1 18196369213045674420
11132069 177 18340770329974006630
12011746 2 18336821997025577845
12236239 1 17967819306754788854
12251169 10 18412545401063210219
12633257 1 18338813238326819667
13140716 1 18411702067081567625
13214271 11 18339640045047921335
13583140 156 17968643952405941999
13675066 3 18131628972222921186
14178342 30 18268446658855130297
14223421 5 18411142433106226985
14341114 176 18335428997070510235
14790565 3 18411707586731760168
14955137 171 18272942596234256362
15196674 1 18410292510628544656
15209289 33 18186802487000560306
15309172 13 18201999915023245286
16945 1 18055058015706802532
17804303 29 18411705382627131580
1813 80 17385720314236744548
19591789 44 18410294722325874314
200 152 18130495410484786775
20028762 73 18200875205229422423
20261772 1 18272372022207859171
21029758 27 18335422370136432356
21033648 29 17631715098384985274
21041028 32 18343025501279361081
21267235 1 18409738369331521458
21682296 61 17987526905130503110
221490 88 18336269019769946504
22182313 1 18058459707230820870
2297311 6 18340497669003612070
23184049 59 18341896332817775983
2334 1 18339920510522921901
23402539 116 18408316679195318030
23463225 33 18409450301447895732
23493267 7 17823686486936304169
23559900 14 18335414695030173289
23566358 27 18191310592201487940
2748010 2 18411129230076228413
296302 2 11312058755357187546
3286 77 18334016120180778660
335352 9 18339078168578127660
350125 39 18411141358947898977
465052 167 18190755313302581795
5104073 3 18411131416715567232
59554788 248 17989491827156328823
84936 31 16414365454758652167
9709674 26 18269558247930851599

> <PUBCHEM_SHAPE_MULTIPOLES>
411.66
8.85
2.56
0.93
4.89
0.85
-0.16
-3.08
3.28
-0.74
-0.19
-0.44
-0.2
0.46

> <PUBCHEM_SHAPE_SELFOVERLAP>
915.469

> <PUBCHEM_SHAPE_VOLUME>
218.4

> <PUBCHEM_COORDINATE_TYPE>
2
5
10

$$$$
