101894431
  -OEChem-03292013293D

 51 55  0     1  0  0  0  0  0999 V2000
   -1.7051    0.8930   -2.3286 O   0  0  0  0  0  0  0  0  0  0  0  0
   -4.8638   -1.6312    1.0394 O   0  0  0  0  0  0  0  0  0  0  0  0
   -1.1654    3.7065    0.8257 O   0  0  0  0  0  0  0  0  0  0  0  0
   -0.0945   -1.2632   -2.1500 O   0  0  0  0  0  0  0  0  0  0  0  0
   -1.4383   -2.3951    0.6643 O   0  0  0  0  0  0  0  0  0  0  0  0
   -2.5404   -2.7503   -1.3346 O   0  0  0  0  0  0  0  0  0  0  0  0
   -0.4782    2.0637   -0.7297 N   0  0  0  0  0  0  0  0  0  0  0  0
    2.2274   -1.3407   -0.5521 N   0  0  0  0  0  0  0  0  0  0  0  0
   -1.7952    0.3324    0.0547 C   0  0  2  0  0  0  0  0  0  0  0  0
   -2.4444    1.6749    0.4305 C   0  0  1  0  0  0  0  0  0  0  0  0
   -0.9218    0.7407   -1.1542 C   0  0  1  0  0  0  0  0  0  0  0  0
   -2.8976   -0.7248   -0.0810 C   0  0  2  0  0  0  0  0  0  0  0  0
   -3.0905    1.6009    1.7976 C   0  0  0  0  0  0  0  0  0  0  0  0
   -3.7048   -0.8195    1.2367 C   0  0  1  0  0  0  0  0  0  0  0  0
   -1.2973    2.6360    0.2547 C   0  0  0  0  0  0  0  0  0  0  0  0
   -4.1903    0.5411    1.7594 C   0  0  0  0  0  0  0  0  0  0  0  0
    0.1796   -0.2950   -1.4346 C   0  0  0  0  0  0  0  0  0  0  0  0
    0.7241    2.6878   -1.2449 C   0  0  0  0  0  0  0  0  0  0  0  0
   -2.2909   -2.0699   -0.3487 C   0  0  0  0  0  0  0  0  0  0  0  0
    1.9156    2.3311   -0.3736 C   0  0  0  0  0  0  0  0  0  0  0  0
    1.4771   -0.2056   -0.7818 C   0  0  0  0  0  0  0  0  0  0  0  0
    2.2281    0.8684   -0.3173 C   0  0  0  0  0  0  0  0  0  0  0  0
    3.4359    0.3340    0.2515 C   0  0  0  0  0  0  0  0  0  0  0  0
    3.4020   -1.0467    0.0888 C   0  0  0  0  0  0  0  0  0  0  0  0
    4.5605    0.9073    0.8838 C   0  0  0  0  0  0  0  0  0  0  0  0
    4.4283   -1.8914    0.5264 C   0  0  0  0  0  0  0  0  0  0  0  0
   -0.7853   -3.6620    0.5356 C   0  0  0  0  0  0  0  0  0  0  0  0
    5.5964    0.0785    1.3295 C   0  0  0  0  0  0  0  0  0  0  0  0
    5.5288   -1.3010    1.1525 C   0  0  0  0  0  0  0  0  0  0  0  0
   -1.1155    0.0429    0.8730 H   0  0  0  0  0  0  0  0  0  0  0  0
   -3.2035    1.9600   -0.3128 H   0  0  0  0  0  0  0  0  0  0  0  0
   -3.5767   -0.4898   -0.9098 H   0  0  0  0  0  0  0  0  0  0  0  0
   -3.5155    2.5721    2.0754 H   0  0  0  0  0  0  0  0  0  0  0  0
   -2.3484    1.3505    2.5654 H   0  0  0  0  0  0  0  0  0  0  0  0
   -3.1151   -1.2884    2.0337 H   0  0  0  0  0  0  0  0  0  0  0  0
   -4.6248    0.4168    2.7590 H   0  0  0  0  0  0  0  0  0  0  0  0
   -5.0152    0.8966    1.1270 H   0  0  0  0  0  0  0  0  0  0  0  0
    0.5814    3.7741   -1.2224 H   0  0  0  0  0  0  0  0  0  0  0  0
    0.8656    2.3876   -2.2890 H   0  0  0  0  0  0  0  0  0  0  0  0
    1.7453    2.6862    0.6511 H   0  0  0  0  0  0  0  0  0  0  0  0
    2.7934    2.8674   -0.7553 H   0  0  0  0  0  0  0  0  0  0  0  0
   -2.0971    0.0303   -2.5450 H   0  0  0  0  0  0  0  0  0  0  0  0
   -4.5636   -2.5264    0.8087 H   0  0  0  0  0  0  0  0  0  0  0  0
    1.9331   -2.2742   -0.8028 H   0  0  0  0  0  0  0  0  0  0  0  0
    4.6290    1.9819    1.0288 H   0  0  0  0  0  0  0  0  0  0  0  0
    4.3758   -2.9659    0.3857 H   0  0  0  0  0  0  0  0  0  0  0  0
   -0.0848   -3.7689    1.3680 H   0  0  0  0  0  0  0  0  0  0  0  0
   -0.2239   -3.7108   -0.4023 H   0  0  0  0  0  0  0  0  0  0  0  0
   -1.5212   -4.4698    0.5878 H   0  0  0  0  0  0  0  0  0  0  0  0
    6.4621    0.5178    1.8179 H   0  0  0  0  0  0  0  0  0  0  0  0
    6.3435   -1.9283    1.5047 H   0  0  0  0  0  0  0  0  0  0  0  0
  1 11  1  0  0  0  0
  1 42  1  0  0  0  0
  2 14  1  0  0  0  0
  2 43  1  0  0  0  0
  3 15  2  0  0  0  0
  4 17  2  0  0  0  0
  5 19  1  0  0  0  0
  5 27  1  0  0  0  0
  6 19  2  0  0  0  0
  7 11  1  0  0  0  0
  7 15  1  0  0  0  0
  7 18  1  0  0  0  0
  8 21  1  0  0  0  0
  8 24  1  0  0  0  0
  8 44  1  0  0  0  0
  9 10  1  0  0  0  0
  9 11  1  0  0  0  0
  9 12  1  0  0  0  0
  9 30  1  0  0  0  0
 10 13  1  0  0  0  0
 10 15  1  0  0  0  0
 10 31  1  0  0  0  0
 11 17  1  0  0  0  0
 12 14  1  0  0  0  0
 12 19  1  0  0  0  0
 12 32  1  0  0  0  0
 13 16  1  0  0  0  0
 13 33  1  0  0  0  0
 13 34  1  0  0  0  0
 14 16  1  0  0  0  0
 14 35  1  0  0  0  0
 16 36  1  0  0  0  0
 16 37  1  0  0  0  0
 17 21  1  0  0  0  0
 18 20  1  0  0  0  0
 18 38  1  0  0  0  0
 18 39  1  0  0  0  0
 20 22  1  0  0  0  0
 20 40  1  0  0  0  0
 20 41  1  0  0  0  0
 21 22  2  0  0  0  0
 22 23  1  0  0  0  0
 23 24  1  0  0  0  0
 23 25  2  0  0  0  0
 24 26  2  0  0  0  0
 25 28  1  0  0  0  0
 25 45  1  0  0  0  0
 26 29  1  0  0  0  0
 26 46  1  0  0  0  0
 27 47  1  0  0  0  0
 27 48  1  0  0  0  0
 27 49  1  0  0  0  0
 28 29  2  0  0  0  0
 28 50  1  0  0  0  0
 29 51  1  0  0  0  0
M  END
> <PUBCHEM_COMPOUND_CID>
101894431

> <PUBCHEM_CONFORMER_RMSD>
0.8

> <PUBCHEM_CONFORMER_DIVERSEORDER>
1
2
3

> <PUBCHEM_MMFF94_PARTIAL_CHARGES>
32
1 -0.68
10 0.06
11 0.64
12 0.06
14 0.28
15 0.57
17 0.59
18 0.3
19 0.66
2 -0.68
20 0.18
21 -0.24
22 -0.18
24 -0.15
25 -0.15
26 -0.15
27 0.28
28 -0.15
29 -0.15
3 -0.57
4 -0.57
42 0.4
43 0.4
44 0.27
45 0.15
46 0.15
5 -0.43
50 0.15
51 0.15
6 -0.57
7 -0.66
8 0.03

> <PUBCHEM_EFFECTIVE_ROTOR_COUNT>
3.2

> <PUBCHEM_PHARMACOPHORE_FEATURES>
14
1 1 acceptor
1 1 donor
1 2 acceptor
1 2 donor
1 3 acceptor
1 4 acceptor
1 6 acceptor
1 8 cation
1 8 donor
5 7 9 10 11 15 rings
5 8 21 22 23 24 rings
6 23 24 25 26 28 29 rings
6 9 10 12 13 14 16 rings
7 7 11 17 18 20 21 22 rings

> <PUBCHEM_HEAVY_ATOM_COUNT>
29

> <PUBCHEM_ATOM_DEF_STEREO_COUNT>
5

> <PUBCHEM_ATOM_UDEF_STEREO_COUNT>
0

> <PUBCHEM_BOND_DEF_STEREO_COUNT>
0

> <PUBCHEM_BOND_UDEF_STEREO_COUNT>
0

> <PUBCHEM_ISOTOPIC_ATOM_COUNT>
0

> <PUBCHEM_COMPONENT_COUNT>
1

> <PUBCHEM_CACTVS_TAUTO_COUNT>
68

> <PUBCHEM_CONFORMER_ID>
0612C91F00000001

> <PUBCHEM_MMFF94_ENERGY>
71.6646

> <PUBCHEM_FEATURE_SELFOVERLAP>
71.315

> <PUBCHEM_SHAPE_FINGERPRINT>
10674148 151 13768197272904167439
10930396 42 18122870283870980472
1100329 8 18265617761376216243
11370993 144 17845935109499145962
11552529 35 18130212870024403134
11578080 2 17531245097346535093
12422481 6 18272098140785647002
12553582 1 18336273422063971766
12597179 24 17317874755940013741
12633257 1 18411427227760283266
12670546 177 11169911676173599162
12714826 92 17313095333195810998
12788726 201 18339657697200328224
12892183 10 18341611473965830064
13140716 1 18338520870896418274
13544653 18 17821451274338940140
13947930 73 17024888188317054243
13994607 96 12967123956104453131
14081887 123 18341038684200077328
14178342 30 18193849145237755980
14790565 3 17324087417528295516
14856354 85 18410580626068021270
15183329 4 10807944782437000224
15209289 33 18261110764397955810
16994733 274 15553320273519992049
17780758 139 18337381644207158048
17980427 23 17417534721994025229
1813 80 17458070373824630916
19319366 153 16679793467658356567
19377110 9 18113898278474703544
19862831 5 10881402028305604356
23419403 2 17698408321467866397
23559900 14 17914085060364963781
2838139 119 12679464153805682674
3027735 51 16370996348351233473
35225 105 18054764227169410305
392239 28 18410296882483194466
469060 322 16443348646013154578
484985 159 17750502988538460442
5104073 3 18267848520793504394
56638632 33 18339636875130520608
58807428 26 18268446645890866899
7064713 232 18058745623330264073
7097593 13 18193003826980663837
7471813 234 17483663873509579895

> <PUBCHEM_SHAPE_MULTIPOLES>
551.63
9.31
3.59
1.68
9.38
0.17
0.31
3.2
-6.12
-1.84
-0.06
-0.87
-0.13
-0.71

> <PUBCHEM_SHAPE_SELFOVERLAP>
1228.989

> <PUBCHEM_SHAPE_VOLUME>
290.5

> <PUBCHEM_COORDINATE_TYPE>
2
5
10

$$$$
