101888055
  -OEChem-03292013293D

 54 56  0     1  0  0  0  0  0999 V2000
    5.5670    1.1885   -0.6179 O   0  0  0  0  0  0  0  0  0  0  0  0
    3.5818   -0.3838    2.6601 O   0  0  0  0  0  0  0  0  0  0  0  0
    4.4725    1.7669    1.3632 O   0  0  0  0  0  0  0  0  0  0  0  0
   -0.2062   -0.3244   -0.3152 O   0  0  0  0  0  0  0  0  0  0  0  0
    6.6001   -0.6415   -1.6809 O   0  0  0  0  0  0  0  0  0  0  0  0
   -1.1777   -2.0781    0.8329 O   0  0  0  0  0  0  0  0  0  0  0  0
   -8.5191   -1.0825   -0.0099 O   0  0  0  0  0  0  0  0  0  0  0  0
   -8.6617    1.6137   -0.6717 O   0  0  0  0  0  0  0  0  0  0  0  0
    4.0293   -0.4168    0.2381 C   0  0  2  0  0  0  0  0  0  0  0  0
    3.1043   -0.8476    1.4019 C   0  0  2  0  0  0  0  0  0  0  0  0
    3.4233   -0.9506   -1.0923 C   0  0  0  0  0  0  0  0  0  0  0  0
    5.4564   -0.9560    0.4129 C   0  0  0  0  0  0  0  0  0  0  0  0
    4.3353    1.0926    0.1179 C   0  0  2  0  0  0  0  0  0  0  0  0
    1.6698   -0.3616    1.1997 C   0  0  0  0  0  0  0  0  0  0  0  0
    1.9681   -0.5263   -1.3000 C   0  0  0  0  0  0  0  0  0  0  0  0
    1.0863   -0.8836   -0.1088 C   0  0  2  0  0  0  0  0  0  0  0  0
    6.3125   -0.0222   -0.4339 C   0  0  2  0  0  0  0  0  0  0  0  0
    4.2954    3.1688    1.2178 C   0  0  0  0  0  0  0  0  0  0  0  0
    7.3987    0.1952   -2.5064 C   0  0  0  0  0  0  0  0  0  0  0  0
   -1.2481   -1.0297    0.2115 C   0  0  0  0  0  0  0  0  0  0  0  0
   -2.4972   -0.2991   -0.1016 C   0  0  0  0  0  0  0  0  0  0  0  0
   -3.6729   -0.7928    0.3120 C   0  0  0  0  0  0  0  0  0  0  0  0
   -4.9811   -0.1651    0.0552 C   0  0  0  0  0  0  0  0  0  0  0  0
   -6.1478   -0.9244    0.1436 C   0  0  0  0  0  0  0  0  0  0  0  0
   -5.0528    1.1878   -0.2768 C   0  0  0  0  0  0  0  0  0  0  0  0
   -7.3865   -0.3307   -0.0996 C   0  0  0  0  0  0  0  0  0  0  0  0
   -6.2914    1.7813   -0.5203 C   0  0  0  0  0  0  0  0  0  0  0  0
   -7.4582    1.0222   -0.4316 C   0  0  0  0  0  0  0  0  0  0  0  0
    3.1020   -1.9442    1.4581 H   0  0  0  0  0  0  0  0  0  0  0  0
    3.4685   -2.0479   -1.0945 H   0  0  0  0  0  0  0  0  0  0  0  0
    4.0044   -0.6174   -1.9595 H   0  0  0  0  0  0  0  0  0  0  0  0
    5.5592   -2.0094    0.1319 H   0  0  0  0  0  0  0  0  0  0  0  0
    5.7701   -0.8606    1.4597 H   0  0  0  0  0  0  0  0  0  0  0  0
    3.5599    1.5941   -0.4706 H   0  0  0  0  0  0  0  0  0  0  0  0
    1.6276    0.7353    1.2287 H   0  0  0  0  0  0  0  0  0  0  0  0
    1.0442   -0.6787    2.0439 H   0  0  0  0  0  0  0  0  0  0  0  0
    1.9052    0.5501   -1.4998 H   0  0  0  0  0  0  0  0  0  0  0  0
    1.5709   -1.0062   -2.2034 H   0  0  0  0  0  0  0  0  0  0  0  0
    1.0281   -1.9800   -0.0667 H   0  0  0  0  0  0  0  0  0  0  0  0
    7.2523    0.2059    0.0827 H   0  0  0  0  0  0  0  0  0  0  0  0
    2.9783   -0.7162    3.3462 H   0  0  0  0  0  0  0  0  0  0  0  0
    4.4592    3.6370    2.1921 H   0  0  0  0  0  0  0  0  0  0  0  0
    3.2747    3.3955    0.8943 H   0  0  0  0  0  0  0  0  0  0  0  0
    5.0188    3.5818    0.5082 H   0  0  0  0  0  0  0  0  0  0  0  0
    7.6479   -0.3608   -3.4145 H   0  0  0  0  0  0  0  0  0  0  0  0
    8.3305    0.4658   -2.0002 H   0  0  0  0  0  0  0  0  0  0  0  0
    6.8498    1.0955   -2.7979 H   0  0  0  0  0  0  0  0  0  0  0  0
   -2.4031    0.6119   -0.6809 H   0  0  0  0  0  0  0  0  0  0  0  0
   -3.7084   -1.7264    0.8690 H   0  0  0  0  0  0  0  0  0  0  0  0
   -6.0961   -1.9802    0.4009 H   0  0  0  0  0  0  0  0  0  0  0  0
   -4.1735    1.8221   -0.3376 H   0  0  0  0  0  0  0  0  0  0  0  0
   -6.3339    2.8373   -0.7739 H   0  0  0  0  0  0  0  0  0  0  0  0
   -8.2772   -1.9936    0.2295 H   0  0  0  0  0  0  0  0  0  0  0  0
   -8.5166    2.5513   -0.8863 H   0  0  0  0  0  0  0  0  0  0  0  0
  1 13  1  0  0  0  0
  1 17  1  0  0  0  0
  2 10  1  0  0  0  0
  2 41  1  0  0  0  0
  3 13  1  0  0  0  0
  3 18  1  0  0  0  0
  4 16  1  0  0  0  0
  4 20  1  0  0  0  0
  5 17  1  0  0  0  0
  5 19  1  0  0  0  0
  6 20  2  0  0  0  0
  7 26  1  0  0  0  0
  7 53  1  0  0  0  0
  8 28  1  0  0  0  0
  8 54  1  0  0  0  0
  9 10  1  0  0  0  0
  9 11  1  0  0  0  0
  9 12  1  0  0  0  0
  9 13  1  0  0  0  0
 10 14  1  0  0  0  0
 10 29  1  0  0  0  0
 11 15  1  0  0  0  0
 11 30  1  0  0  0  0
 11 31  1  0  0  0  0
 12 17  1  0  0  0  0
 12 32  1  0  0  0  0
 12 33  1  0  0  0  0
 13 34  1  0  0  0  0
 14 16  1  0  0  0  0
 14 35  1  0  0  0  0
 14 36  1  0  0  0  0
 15 16  1  0  0  0  0
 15 37  1  0  0  0  0
 15 38  1  0  0  0  0
 16 39  1  0  0  0  0
 17 40  1  0  0  0  0
 18 42  1  0  0  0  0
 18 43  1  0  0  0  0
 18 44  1  0  0  0  0
 19 45  1  0  0  0  0
 19 46  1  0  0  0  0
 19 47  1  0  0  0  0
 20 21  1  0  0  0  0
 21 22  2  0  0  0  0
 21 48  1  0  0  0  0
 22 23  1  0  0  0  0
 22 49  1  0  0  0  0
 23 24  2  0  0  0  0
 23 25  1  0  0  0  0
 24 26  1  0  0  0  0
 24 50  1  0  0  0  0
 25 27  2  0  0  0  0
 25 51  1  0  0  0  0
 26 28  2  0  0  0  0
 27 28  1  0  0  0  0
 27 52  1  0  0  0  0
M  END
> <PUBCHEM_COMPOUND_CID>
101888055

> <PUBCHEM_CONFORMER_RMSD>
1

> <PUBCHEM_CONFORMER_DIVERSEORDER>
1
18
69
55
86
41
31
70
83
32
9
85
60
24
14
74
78
26
65
71
58
66
57
48
33
15
79
50
64
7
35
6
8
12
39
43
28
84
21
54
27
37
16
80
46
62
82
2
53
30
77
19
68
42
45
36
3
20
73
61
5
67
75
56
72
34
29
49
59
81
76
47
25
44
51
22
23
52
38
4
40
11
13
63
17
10

> <PUBCHEM_MMFF94_PARTIAL_CHARGES>
31
1 -0.56
10 0.28
13 0.56
16 0.28
17 0.56
18 0.28
19 0.28
2 -0.68
20 0.71
21 -0.14
22 -0.18
23 0.03
24 -0.15
25 -0.15
26 0.08
27 -0.15
28 0.08
3 -0.56
4 -0.43
41 0.4
48 0.15
49 0.15
5 -0.56
50 0.15
51 0.15
52 0.15
53 0.45
54 0.45
6 -0.57
7 -0.53
8 -0.53

> <PUBCHEM_EFFECTIVE_ROTOR_COUNT>
7.8

> <PUBCHEM_PHARMACOPHORE_FEATURES>
11
1 1 acceptor
1 2 acceptor
1 2 donor
1 3 acceptor
1 5 acceptor
1 6 acceptor
1 7 donor
1 8 donor
5 1 9 12 13 17 rings
6 23 24 25 26 27 28 rings
6 9 10 11 14 15 16 rings

> <PUBCHEM_HEAVY_ATOM_COUNT>
28

> <PUBCHEM_ATOM_DEF_STEREO_COUNT>
5

> <PUBCHEM_ATOM_UDEF_STEREO_COUNT>
0

> <PUBCHEM_BOND_DEF_STEREO_COUNT>
1

> <PUBCHEM_BOND_UDEF_STEREO_COUNT>
0

> <PUBCHEM_ISOTOPIC_ATOM_COUNT>
0

> <PUBCHEM_COMPONENT_COUNT>
1

> <PUBCHEM_CACTVS_TAUTO_COUNT>
14

> <PUBCHEM_CONFORMER_ID>
0612B03700000001

> <PUBCHEM_MMFF94_ENERGY>
84.1085

> <PUBCHEM_FEATURE_SELFOVERLAP>
55.923

> <PUBCHEM_SHAPE_FINGERPRINT>
10 15 14273458084825874255
10670039 82 18059300863574977897
11315181 36 17240205444228322459
11386260 185 17989209278570480904
11991303 11 17346029082571968855
12236239 1 17675925382611214603
13073987 5 12107772008895765654
13533116 47 17676759868976500818
13668630 136 12895351097398329421
13685833 64 8286199461641256279
13835254 42 16371276715416247294
14251764 18 17530685411963370447
14556957 393 16558762225945238473
14849402 71 16805615797262288525
14933364 13 18410572881993676593
15183329 4 17917996062011433201
15392192 104 16298395656200055211
15419008 47 17917425407072079089
15461852 350 18409172134530076167
1577012 14 17894627029512253179
15840311 113 16950572086443663046
16989713 51 18058160795863834135
18335252 114 17775566442414901172
2026 5 14188752736015334828
20281389 69 18335415768940483977
21033648 29 18188203321049575408
221357 26 17203610367712011736
22224240 67 14273740667756305187
23576562 1 18198892786518059013
249057 3 17132114650123161998
29717793 49 12391512013913973875
34797466 226 18131636703411986727
4073 2 16877952645789624923
4340502 62 11314308374023851128
44317340 157 17131264795763588776
54076057 255 17458354074122415548
5758199 1 16732987530708652707
59521099 67 16917066672947981016
59682541 35 14707219828947058173
59682541 52 16988843852021678222

> <PUBCHEM_SHAPE_MULTIPOLES>
529.27
25.84
1.87
1.55
36.42
1.47
-0.01
6.35
8.43
-0.44
-0.52
-3.85
0.03
1.64

> <PUBCHEM_SHAPE_SELFOVERLAP>
1116.386

> <PUBCHEM_SHAPE_VOLUME>
292.8

> <PUBCHEM_COORDINATE_TYPE>
2
5
10

$$$$
