101880325
  -OEChem-03292013293D

 43 45  0     1  0  0  0  0  0999 V2000
    3.2826   -4.6267   -0.7764 Cl  0  0  0  0  0  0  0  0  0  0  0  0
   -4.9223   -0.6268   -2.5502 Cl  0  0  0  0  0  0  0  0  0  0  0  0
    0.1315    3.1294   -1.5651 O   0  0  0  0  0  0  0  0  0  0  0  0
    1.3279    4.4740   -0.1974 O   0  0  0  0  0  0  0  0  0  0  0  0
   -1.7701    1.2583    2.3152 O   0  0  0  0  0  0  0  0  0  0  0  0
   -1.6681   -1.6847    2.2300 O   0  0  0  0  0  0  0  0  0  0  0  0
    3.7638    0.5462   -1.2259 N   0  0  0  0  0  0  0  0  0  0  0  0
   -0.5986    1.4777    0.3257 N   0  0  0  0  0  0  0  0  0  0  0  0
    1.5854    1.8902    1.3786 C   0  0  0  0  0  0  0  0  0  0  0  0
    2.3802    1.0944    0.4209 C   0  0  0  0  0  0  0  0  0  0  0  0
    0.3035    2.5095    0.7730 C   0  0  1  0  0  0  0  0  0  0  0  0
    2.4264   -0.3252    0.3326 C   0  0  0  0  0  0  0  0  0  0  0  0
    3.3017   -0.6427   -0.7082 C   0  0  0  0  0  0  0  0  0  0  0  0
    3.2126    1.6015   -0.5502 C   0  0  0  0  0  0  0  0  0  0  0  0
    1.8058   -1.3735    1.0406 C   0  0  0  0  0  0  0  0  0  0  0  0
    0.6427    3.4694   -0.3578 C   0  0  0  0  0  0  0  0  0  0  0  0
    3.5886   -1.9616   -1.0778 C   0  0  0  0  0  0  0  0  0  0  0  0
   -1.5741    0.9313    1.1478 C   0  0  0  0  0  0  0  0  0  0  0  0
   -2.4061   -0.1419    0.5452 C   0  0  0  0  0  0  0  0  0  0  0  0
    2.0833   -2.6977    0.6819 C   0  0  0  0  0  0  0  0  0  0  0  0
    2.9613   -2.9849   -0.3613 C   0  0  0  0  0  0  0  0  0  0  0  0
   -3.1765    0.1137   -0.5890 C   0  0  0  0  0  0  0  0  0  0  0  0
   -2.4131   -1.4121    1.1216 C   0  0  0  0  0  0  0  0  0  0  0  0
   -3.9544   -0.9010   -1.1469 C   0  0  0  0  0  0  0  0  0  0  0  0
   -3.1613    1.4812   -1.1999 C   0  0  0  0  0  0  0  0  0  0  0  0
   -3.1911   -2.4267    0.5637 C   0  0  0  0  0  0  0  0  0  0  0  0
   -3.9616   -2.1713   -0.5705 C   0  0  0  0  0  0  0  0  0  0  0  0
    2.2167    2.6971    1.7746 H   0  0  0  0  0  0  0  0  0  0  0  0
    1.3113    1.2748    2.2447 H   0  0  0  0  0  0  0  0  0  0  0  0
   -0.2111    3.0990    1.5415 H   0  0  0  0  0  0  0  0  0  0  0  0
    3.4715    2.6155   -0.8209 H   0  0  0  0  0  0  0  0  0  0  0  0
    4.4170    0.6273   -1.9928 H   0  0  0  0  0  0  0  0  0  0  0  0
   -0.4785    1.1120   -0.6148 H   0  0  0  0  0  0  0  0  0  0  0  0
    1.1238   -1.1680    1.8596 H   0  0  0  0  0  0  0  0  0  0  0  0
    4.2745   -2.1733   -1.8922 H   0  0  0  0  0  0  0  0  0  0  0  0
    1.6001   -3.5001    1.2349 H   0  0  0  0  0  0  0  0  0  0  0  0
   -2.3988    1.5396   -1.9830 H   0  0  0  0  0  0  0  0  0  0  0  0
   -4.1281    1.7467   -1.6393 H   0  0  0  0  0  0  0  0  0  0  0  0
   -2.9844    2.2719   -0.4640 H   0  0  0  0  0  0  0  0  0  0  0  0
   -3.2010   -3.4185    1.0077 H   0  0  0  0  0  0  0  0  0  0  0  0
   -4.5621   -2.9730   -0.9929 H   0  0  0  0  0  0  0  0  0  0  0  0
    0.3781    3.7736   -2.2625 H   0  0  0  0  0  0  0  0  0  0  0  0
   -1.1971   -0.8903    2.5285 H   0  0  0  0  0  0  0  0  0  0  0  0
  1 21  1  0  0  0  0
  2 24  1  0  0  0  0
  3 16  1  0  0  0  0
  3 42  1  0  0  0  0
  4 16  2  0  0  0  0
  5 18  2  0  0  0  0
  6 23  1  0  0  0  0
  6 43  1  0  0  0  0
  7 13  1  0  0  0  0
  7 14  1  0  0  0  0
  7 32  1  0  0  0  0
  8 11  1  0  0  0  0
  8 18  1  0  0  0  0
  8 33  1  0  0  0  0
  9 10  1  0  0  0  0
  9 11  1  0  0  0  0
  9 28  1  0  0  0  0
  9 29  1  0  0  0  0
 10 12  1  0  0  0  0
 10 14  2  0  0  0  0
 11 16  1  0  0  0  0
 11 30  1  0  0  0  0
 12 13  2  0  0  0  0
 12 15  1  0  0  0  0
 13 17  1  0  0  0  0
 14 31  1  0  0  0  0
 15 20  2  0  0  0  0
 15 34  1  0  0  0  0
 17 21  2  0  0  0  0
 17 35  1  0  0  0  0
 18 19  1  0  0  0  0
 19 22  1  0  0  0  0
 19 23  2  0  0  0  0
 20 21  1  0  0  0  0
 20 36  1  0  0  0  0
 22 24  2  0  0  0  0
 22 25  1  0  0  0  0
 23 26  1  0  0  0  0
 24 27  1  0  0  0  0
 25 37  1  0  0  0  0
 25 38  1  0  0  0  0
 25 39  1  0  0  0  0
 26 27  2  0  0  0  0
 26 40  1  0  0  0  0
 27 41  1  0  0  0  0
M  END
> <PUBCHEM_COMPOUND_CID>
101880325

> <PUBCHEM_CONFORMER_RMSD>
0.8

> <PUBCHEM_CONFORMER_DIVERSEORDER>
1
88
68
95
50
99
127
94
63
59
124
126
53
85
75
80
74
7
113
15
55
19
42
118
115
35
28
122
2
123
54
108
97
111
105
56
103
114
76
29
10
102
101
14
43
98
36
93
4
24
22
30
84
96
66
26
121
106
71
40
107
110
31
60
109
33
125
69
70
32
21
13
23
47
120
112
86
87
100
82
57
77
90
91
20
46
79
48
3
72
27
17
18
117
116
78
6
81
9
89
45
73
34
65
41
11
49
12
8
52
119
83
44
61
39
58
38
67
64
37
51
62
25
104
5
92
16

> <PUBCHEM_MMFF94_PARTIAL_CHARGES>
36
1 -0.18
10 -0.18
11 0.36
13 -0.15
14 -0.3
15 -0.15
16 0.66
17 -0.15
18 0.54
19 0.09
2 -0.18
20 -0.15
21 0.18
22 -0.14
23 0.08
24 0.18
25 0.14
26 -0.15
27 -0.15
3 -0.65
31 0.15
32 0.27
33 0.37
34 0.15
35 0.15
36 0.15
4 -0.57
40 0.15
41 0.15
42 0.5
43 0.45
5 -0.57
6 -0.53
7 0.03
8 -0.73
9 0.18

> <PUBCHEM_EFFECTIVE_ROTOR_COUNT>
6

> <PUBCHEM_PHARMACOPHORE_FEATURES>
11
1 3 acceptor
1 4 acceptor
1 5 acceptor
1 6 donor
1 7 cation
1 7 donor
1 8 donor
3 3 4 16 anion
5 7 10 12 13 14 rings
6 12 13 15 17 20 21 rings
6 19 22 23 24 26 27 rings

> <PUBCHEM_HEAVY_ATOM_COUNT>
27

> <PUBCHEM_ATOM_DEF_STEREO_COUNT>
1

> <PUBCHEM_ATOM_UDEF_STEREO_COUNT>
0

> <PUBCHEM_BOND_DEF_STEREO_COUNT>
0

> <PUBCHEM_BOND_UDEF_STEREO_COUNT>
0

> <PUBCHEM_ISOTOPIC_ATOM_COUNT>
0

> <PUBCHEM_COMPONENT_COUNT>
1

> <PUBCHEM_CACTVS_TAUTO_COUNT>
120

> <PUBCHEM_CONFORMER_ID>
0612920500000001

> <PUBCHEM_MMFF94_ENERGY>
62.3645

> <PUBCHEM_FEATURE_SELFOVERLAP>
55.973

> <PUBCHEM_SHAPE_FINGERPRINT>
10483366 6 17473246683910431509
11640471 11 12973876056994879297
12156800 1 13703127994742616266
12553582 1 18264783064435798418
12788726 201 17904197027594713432
1361 2 17762052542809404511
13911987 19 18191036805559616092
14251757 17 18262219111037112735
14537116 161 18192684814949831285
14659021 117 17977376145385041090
14863182 85 17912077558196460472
15635459 17 18338234993620693659
17138139 8 16406735196518217439
17492 54 17826249663832607028
20645477 70 18122340448331311441
20775438 99 17979313605010239941
20775530 9 18342181007671917846
21315764 21 15721647771921205186
23559900 14 18264757921623634545
238 59 18192427695719785698
26353 1 18040721333427008884
3027735 51 17404854861433143453
35225 105 17403195706602250494
4017518 198 16180725573560822822
4280585 95 18263918840065550010
46194498 28 17824823597124202853
70251023 43 18194964045701984531
9709674 26 18263356061657405003

> <PUBCHEM_SHAPE_MULTIPOLES>
525.95
8.26
5.07
1.82
4.03
0.67
-0.09
-6.47
4.4
-4.28
0.78
1.55
-0.05
0.35

> <PUBCHEM_SHAPE_SELFOVERLAP>
1130.948

> <PUBCHEM_SHAPE_VOLUME>
290.6

> <PUBCHEM_COORDINATE_TYPE>
2
5
10

$$$$
