101894469
  -OEChem-03292013293D

 49 53  0     1  0  0  0  0  0999 V2000
    5.2469    0.8065   -0.2927 S   0  0  0  0  0  0  0  0  0  0  0  0
   -5.5752   -0.7270   -2.0373 O   0  0  0  0  0  0  0  0  0  0  0  0
   -4.7603    2.5372    0.0900 O   0  0  0  0  0  0  0  0  0  0  0  0
   -2.1382    3.2995    0.1526 O   0  0  0  0  0  0  0  0  0  0  0  0
    1.8094   -2.8138    0.3652 O   0  0  0  0  0  0  0  0  0  0  0  0
    2.7139    2.4212   -0.1553 O   0  0  0  0  0  0  0  0  0  0  0  0
    5.2917    1.7458   -1.3989 O   0  0  0  0  0  0  0  0  0  0  0  0
    5.7692    1.1831    1.0083 O   0  0  0  0  0  0  0  0  0  0  0  0
    4.3935   -2.0638    0.0808 N   0  0  0  0  0  0  0  0  0  0  0  0
   -2.9490   -0.7941    0.5023 C   0  0  2  0  0  0  0  0  0  0  0  0
   -3.2067   -1.8850   -0.5792 C   0  0  0  0  0  0  0  0  0  0  0  0
   -4.0283    0.2850    0.3482 C   0  0  0  0  0  0  0  0  0  0  0  0
   -1.5211   -0.2526    0.3348 C   0  0  0  0  0  0  0  0  0  0  0  0
   -4.6429   -2.4187   -0.6072 C   0  0  0  0  0  0  0  0  0  0  0  0
   -5.4653   -0.2163    0.3247 C   0  0  0  0  0  0  0  0  0  0  0  0
   -5.6696   -1.2995   -0.7338 C   0  0  1  0  0  0  0  0  0  0  0  0
   -3.0482   -1.3958    1.9264 C   0  0  0  0  0  0  0  0  0  0  0  0
   -1.2625    1.1157    0.2006 C   0  0  0  0  0  0  0  0  0  0  0  0
   -3.7574    1.5952    0.2151 C   0  0  0  0  0  0  0  0  0  0  0  0
   -0.4144   -1.1285    0.3431 C   0  0  0  0  0  0  0  0  0  0  0  0
   -2.3640    2.0946    0.1930 C   0  0  0  0  0  0  0  0  0  0  0  0
    0.8996   -0.6570    0.2093 C   0  0  0  0  0  0  0  0  0  0  0  0
    0.0519    1.5931    0.0684 C   0  0  0  0  0  0  0  0  0  0  0  0
    1.1302    0.7035    0.0707 C   0  0  0  0  0  0  0  0  0  0  0  0
    3.6090    0.2286   -0.0929 C   0  0  0  0  0  0  0  0  0  0  0  0
    3.4140   -1.0920    0.0618 C   0  0  0  0  0  0  0  0  0  0  0  0
    2.0222   -1.6136    0.2243 C   0  0  0  0  0  0  0  0  0  0  0  0
    2.5022    1.2174   -0.0685 C   0  0  0  0  0  0  0  0  0  0  0  0
    6.1310   -0.6454   -0.8265 C   0  0  0  0  0  0  0  0  0  0  0  0
    5.8182   -1.8233    0.0728 C   0  0  0  0  0  0  0  0  0  0  0  0
   -2.5411   -2.7450   -0.4357 H   0  0  0  0  0  0  0  0  0  0  0  0
   -2.9647   -1.4801   -1.5725 H   0  0  0  0  0  0  0  0  0  0  0  0
   -4.7392   -3.1074   -1.4554 H   0  0  0  0  0  0  0  0  0  0  0  0
   -4.8386   -2.9991    0.3017 H   0  0  0  0  0  0  0  0  0  0  0  0
   -5.7245   -0.6106    1.3138 H   0  0  0  0  0  0  0  0  0  0  0  0
   -6.1699    0.6000    0.1285 H   0  0  0  0  0  0  0  0  0  0  0  0
   -6.6765   -1.7219   -0.6411 H   0  0  0  0  0  0  0  0  0  0  0  0
   -4.0396   -1.8026    2.1478 H   0  0  0  0  0  0  0  0  0  0  0  0
   -2.8301   -0.6389    2.6905 H   0  0  0  0  0  0  0  0  0  0  0  0
   -2.3379   -2.2177    2.0727 H   0  0  0  0  0  0  0  0  0  0  0  0
   -0.5835   -2.1960    0.4644 H   0  0  0  0  0  0  0  0  0  0  0  0
    0.2338    2.6600   -0.0388 H   0  0  0  0  0  0  0  0  0  0  0  0
   -6.2521   -0.0320   -2.1023 H   0  0  0  0  0  0  0  0  0  0  0  0
    7.1985   -0.4066   -0.8098 H   0  0  0  0  0  0  0  0  0  0  0  0
    5.8347   -0.8457   -1.8622 H   0  0  0  0  0  0  0  0  0  0  0  0
    6.3389   -2.7175   -0.2847 H   0  0  0  0  0  0  0  0  0  0  0  0
    6.1570   -1.6308    1.0969 H   0  0  0  0  0  0  0  0  0  0  0  0
   -4.3364    3.4086    0.0050 H   0  0  0  0  0  0  0  0  0  0  0  0
    4.0800   -3.0196    0.2198 H   0  0  0  0  0  0  0  0  0  0  0  0
  1  7  2  0  0  0  0
  1  8  2  0  0  0  0
  1 25  1  0  0  0  0
  1 29  1  0  0  0  0
  2 16  1  0  0  0  0
  2 43  1  0  0  0  0
  3 19  1  0  0  0  0
  3 48  1  0  0  0  0
  4 21  2  0  0  0  0
  5 27  2  0  0  0  0
  6 28  2  0  0  0  0
  9 26  1  0  0  0  0
  9 30  1  0  0  0  0
  9 49  1  0  0  0  0
 10 11  1  0  0  0  0
 10 12  1  0  0  0  0
 10 13  1  0  0  0  0
 10 17  1  0  0  0  0
 11 14  1  0  0  0  0
 11 31  1  0  0  0  0
 11 32  1  0  0  0  0
 12 15  1  0  0  0  0
 12 19  2  0  0  0  0
 13 18  2  0  0  0  0
 13 20  1  0  0  0  0
 14 16  1  0  0  0  0
 14 33  1  0  0  0  0
 14 34  1  0  0  0  0
 15 16  1  0  0  0  0
 15 35  1  0  0  0  0
 15 36  1  0  0  0  0
 16 37  1  0  0  0  0
 17 38  1  0  0  0  0
 17 39  1  0  0  0  0
 17 40  1  0  0  0  0
 18 21  1  0  0  0  0
 18 23  1  0  0  0  0
 19 21  1  0  0  0  0
 20 22  2  0  0  0  0
 20 41  1  0  0  0  0
 22 24  1  0  0  0  0
 22 27  1  0  0  0  0
 23 24  2  0  0  0  0
 23 42  1  0  0  0  0
 24 28  1  0  0  0  0
 25 26  2  0  0  0  0
 25 28  1  0  0  0  0
 26 27  1  0  0  0  0
 29 30  1  0  0  0  0
 29 44  1  0  0  0  0
 29 45  1  0  0  0  0
 30 46  1  0  0  0  0
 30 47  1  0  0  0  0
M  END
> <PUBCHEM_COMPOUND_CID>
101894469

> <PUBCHEM_CONFORMER_RMSD>
0.6

> <PUBCHEM_CONFORMER_DIVERSEORDER>
1

> <PUBCHEM_MMFF94_PARTIAL_CHARGES>
31
1 1.21
10 0.28
12 -0.28
13 -0.14
15 0.14
16 0.28
18 0.09
19 0.09
2 -0.68
20 -0.15
21 0.47
22 0.09
23 -0.15
24 0.09
26 0.11
27 0.47
28 0.47
29 0.11
3 -0.53
30 0.37
4 -0.57
41 0.15
42 0.15
43 0.4
48 0.45
49 0.4
5 -0.57
6 -0.57
7 -0.65
8 -0.65
9 -0.87

> <PUBCHEM_EFFECTIVE_ROTOR_COUNT>
1.4

> <PUBCHEM_PHARMACOPHORE_FEATURES>
15
1 2 acceptor
1 2 donor
1 3 donor
1 4 acceptor
1 5 acceptor
1 6 acceptor
1 7 acceptor
1 8 acceptor
1 9 cation
1 9 donor
6 1 9 25 26 29 30 rings
6 10 11 12 14 15 16 rings
6 10 12 13 18 19 21 rings
6 13 18 20 22 23 24 rings
6 22 24 25 26 27 28 rings

> <PUBCHEM_HEAVY_ATOM_COUNT>
30

> <PUBCHEM_ATOM_DEF_STEREO_COUNT>
2

> <PUBCHEM_ATOM_UDEF_STEREO_COUNT>
0

> <PUBCHEM_BOND_DEF_STEREO_COUNT>
0

> <PUBCHEM_BOND_UDEF_STEREO_COUNT>
0

> <PUBCHEM_ISOTOPIC_ATOM_COUNT>
0

> <PUBCHEM_COMPONENT_COUNT>
1

> <PUBCHEM_CACTVS_TAUTO_COUNT>
42

> <PUBCHEM_CONFORMER_ID>
0612C94500000001

> <PUBCHEM_MMFF94_ENERGY>
77.7862

> <PUBCHEM_FEATURE_SELFOVERLAP>
76.222

> <PUBCHEM_SHAPE_FINGERPRINT>
10366900 7 18410292544640058937
10595046 47 18410294722404859238
11488393 25 17416144801562866358
11524674 6 16056881342953171247
11578080 2 16952239920401050655
12107183 9 17689153413847367978
12166972 35 18131634504067238168
12236239 1 17917996100223377578
12516196 113 18131069354895232688
12596602 18 17060622226120009362
12788726 201 18335693911006755689
13782708 43 17418088840703785334
14347332 77 18411697664581333276
14528608 73 18410295817827248078
14790565 3 18409174311624313988
14931854 50 18262219098447811775
15082195 135 18188491397085695388
15183329 4 18409449189230870166
15196674 1 18410014312664284672
15250474 111 18336255756700667458
15788980 27 18408609162352452474
16087824 20 18339642236748046509
17349148 13 18113898268871776201
17844677 252 18342183250077141976
17857418 61 18413106173389058694
17899979 129 16817404460726449205
17980427 23 18260559917651884021
18681886 176 18342734126993604010
18927931 339 18410865360655857967
19958102 18 18187640297506879135
200 152 18272651259838593339
20028762 73 18272649035394577398
20511986 3 18261943072760913899
20775438 99 17120257731768468407
21033648 29 12973889277289546516
21133410 171 17546106092540381643
21236236 1 18412545384226219409
21267235 1 18410581695214119387
21709351 56 18407759231184498652
22393880 68 18340772542267227670
23402539 116 18411698781652722925
23522609 53 18126599835765628841
23559900 14 18338228379656043929
23569914 152 17545012932815160167
24771293 8 18340483474153114048
25147074 1 18261386689860013346
3004659 81 18261103097881208711
335352 9 18337675204678682805
34797466 226 16988286473231481968
350125 39 18411140220797396305
4015057 19 18262238927694625609
4073 2 18040725792014148394
4214541 1 18411420574945787817
463206 1 18268993253372894439
497634 4 17703798007012785841
504579 68 18261121781178701846
5104073 3 18409451345662928808
5283173 99 18187352204581664349
59755656 215 18407758148968953150
6086070 43 17703785907789765713
7495541 125 17346594209762162762
9709674 26 18337399248967172963

> <PUBCHEM_SHAPE_MULTIPOLES>
575.17
14.94
2.94
1.02
7.22
0.75
-0.06
-2.61
-3.19
-0.81
-0.02
-0.72
-0.25
-0.84

> <PUBCHEM_SHAPE_SELFOVERLAP>
1278.339

> <PUBCHEM_SHAPE_VOLUME>
306.9

> <PUBCHEM_COORDINATE_TYPE>
2
5
10

$$$$
