101878346
  -OEChem-03292013293D

 48 52  0     1  0  0  0  0  0999 V2000
    4.7955    1.1136   -1.3633 O   0  0  0  0  0  0  0  0  0  0  0  0
    2.3882    0.1431   -0.4097 O   0  0  0  0  0  0  0  0  0  0  0  0
    4.4311    1.1978    1.6002 O   0  0  0  0  0  0  0  0  0  0  0  0
   -2.3799   -0.8956   -0.0819 O   0  0  0  0  0  0  0  0  0  0  0  0
    6.8620    2.4390    1.2495 O   0  0  0  0  0  0  0  0  0  0  0  0
    0.9668   -4.2535    0.2795 O   0  0  0  0  0  0  0  0  0  0  0  0
   -1.6729   -3.4686    0.2502 O   0  0  0  0  0  0  0  0  0  0  0  0
    0.3970    2.0613   -0.7155 O   0  0  0  0  0  0  0  0  0  0  0  0
   -8.2572    1.2811    0.0658 O   0  0  0  0  0  0  0  0  0  0  0  0
    4.8168   -0.0175   -0.4633 C   0  0  1  0  0  0  0  0  0  0  0  0
    5.4192    0.5034    0.8414 C   0  0  1  0  0  0  0  0  0  0  0  0
    6.4346    1.4880    0.2998 C   0  0  1  0  0  0  0  0  0  0  0  0
    3.4669   -0.6760   -0.3189 C   0  0  0  0  0  0  0  0  0  0  0  0
    5.6689    2.1285   -0.8409 C   0  0  0  0  0  0  0  0  0  0  0  0
    1.2784   -0.6352   -0.2531 C   0  0  0  0  0  0  0  0  0  0  0  0
    1.6545   -1.9638   -0.0670 C   0  0  0  0  0  0  0  0  0  0  0  0
   -0.0514   -0.2110   -0.2756 C   0  0  0  0  0  0  0  0  0  0  0  0
    3.0738   -1.9767   -0.1092 C   0  0  0  0  0  0  0  0  0  0  0  0
   -2.6563    0.4634    0.2936 C   0  0  1  0  0  0  0  0  0  0  0  0
   -1.0373   -1.1872   -0.0848 C   0  0  0  0  0  0  0  0  0  0  0  0
   -1.9200    1.4470   -0.6154 C   0  0  0  0  0  0  0  0  0  0  0  0
   -0.4386    1.1856   -0.5288 C   0  0  0  0  0  0  0  0  0  0  0  0
    0.6492   -2.9335    0.1011 C   0  0  0  0  0  0  0  0  0  0  0  0
   -0.6934   -2.5304    0.0846 C   0  0  0  0  0  0  0  0  0  0  0  0
   -4.1535    0.6816    0.2332 C   0  0  0  0  0  0  0  0  0  0  0  0
   -4.8608    0.9936    1.3943 C   0  0  0  0  0  0  0  0  0  0  0  0
   -4.8254    0.5711   -0.9841 C   0  0  0  0  0  0  0  0  0  0  0  0
   -6.2399    1.1947    1.3381 C   0  0  0  0  0  0  0  0  0  0  0  0
   -6.2045    0.7721   -1.0404 C   0  0  0  0  0  0  0  0  0  0  0  0
   -6.9117    1.0839    0.1207 C   0  0  0  0  0  0  0  0  0  0  0  0
    5.5054   -0.7437   -0.9155 H   0  0  0  0  0  0  0  0  0  0  0  0
    5.8476   -0.2817    1.4709 H   0  0  0  0  0  0  0  0  0  0  0  0
    7.3073    0.9474   -0.0862 H   0  0  0  0  0  0  0  0  0  0  0  0
    5.0602    2.9777   -0.5107 H   0  0  0  0  0  0  0  0  0  0  0  0
    6.3331    2.4822   -1.6352 H   0  0  0  0  0  0  0  0  0  0  0  0
    3.7301   -2.8291   -0.0031 H   0  0  0  0  0  0  0  0  0  0  0  0
   -2.3189    0.5969    1.3322 H   0  0  0  0  0  0  0  0  0  0  0  0
   -2.1172    2.4778   -0.3003 H   0  0  0  0  0  0  0  0  0  0  0  0
   -2.1991    1.3386   -1.6695 H   0  0  0  0  0  0  0  0  0  0  0  0
    4.8857    1.6136    2.3527 H   0  0  0  0  0  0  0  0  0  0  0  0
    7.4306    3.0785    0.7879 H   0  0  0  0  0  0  0  0  0  0  0  0
   -4.3517    1.0835    2.3501 H   0  0  0  0  0  0  0  0  0  0  0  0
   -4.2947    0.3176   -1.8976 H   0  0  0  0  0  0  0  0  0  0  0  0
    1.9341   -4.3484    0.2639 H   0  0  0  0  0  0  0  0  0  0  0  0
   -1.2508   -4.3389    0.3560 H   0  0  0  0  0  0  0  0  0  0  0  0
   -6.7855    1.4376    2.2459 H   0  0  0  0  0  0  0  0  0  0  0  0
   -6.7166    0.6806   -1.9945 H   0  0  0  0  0  0  0  0  0  0  0  0
   -8.5553    1.1659   -0.8529 H   0  0  0  0  0  0  0  0  0  0  0  0
  1 10  1  0  0  0  0
  1 14  1  0  0  0  0
  2 13  1  0  0  0  0
  2 15  1  0  0  0  0
  3 11  1  0  0  0  0
  3 40  1  0  0  0  0
  4 19  1  0  0  0  0
  4 20  1  0  0  0  0
  5 12  1  0  0  0  0
  5 41  1  0  0  0  0
  6 23  1  0  0  0  0
  6 44  1  0  0  0  0
  7 24  1  0  0  0  0
  7 45  1  0  0  0  0
  8 22  2  0  0  0  0
  9 30  1  0  0  0  0
  9 48  1  0  0  0  0
 10 11  1  0  0  0  0
 10 13  1  0  0  0  0
 10 31  1  0  0  0  0
 11 12  1  0  0  0  0
 11 32  1  0  0  0  0
 12 14  1  0  0  0  0
 12 33  1  0  0  0  0
 13 18  2  0  0  0  0
 14 34  1  0  0  0  0
 14 35  1  0  0  0  0
 15 16  1  0  0  0  0
 15 17  2  0  0  0  0
 16 18  1  0  0  0  0
 16 23  2  0  0  0  0
 17 20  1  0  0  0  0
 17 22  1  0  0  0  0
 18 36  1  0  0  0  0
 19 21  1  0  0  0  0
 19 25  1  0  0  0  0
 19 37  1  0  0  0  0
 20 24  2  0  0  0  0
 21 22  1  0  0  0  0
 21 38  1  0  0  0  0
 21 39  1  0  0  0  0
 23 24  1  0  0  0  0
 25 26  2  0  0  0  0
 25 27  1  0  0  0  0
 26 28  1  0  0  0  0
 26 42  1  0  0  0  0
 27 29  2  0  0  0  0
 27 43  1  0  0  0  0
 28 30  2  0  0  0  0
 28 46  1  0  0  0  0
 29 30  1  0  0  0  0
 29 47  1  0  0  0  0
M  END
> <PUBCHEM_COMPOUND_CID>
101878346

> <PUBCHEM_CONFORMER_RMSD>
0.8

> <PUBCHEM_CONFORMER_DIVERSEORDER>
1
17
11
16
9
4
8
6
7
5
3
14
10
13
18
2
15
12

> <PUBCHEM_MMFF94_PARTIAL_CHARGES>
39
1 -0.56
10 0.46
11 0.28
12 0.28
13 -0.04
14 0.28
15 0.14
17 0.09
18 -0.15
19 0.42
2 -0.28
20 0.08
21 0.06
22 0.42
23 0.08
24 0.08
25 -0.14
26 -0.15
27 -0.15
28 -0.15
29 -0.15
3 -0.68
30 0.08
36 0.15
4 -0.36
40 0.4
41 0.4
42 0.15
43 0.15
44 0.45
45 0.45
46 0.15
47 0.15
48 0.45
5 -0.68
6 -0.53
7 -0.53
8 -0.57
9 -0.53

> <PUBCHEM_EFFECTIVE_ROTOR_COUNT>
3.6

> <PUBCHEM_PHARMACOPHORE_FEATURES>
16
1 1 acceptor
1 2 acceptor
1 3 acceptor
1 3 donor
1 4 acceptor
1 5 acceptor
1 5 donor
1 6 donor
1 7 donor
1 8 acceptor
1 9 donor
5 1 10 11 12 14 rings
5 2 13 15 16 18 rings
6 15 16 17 20 23 24 rings
6 25 26 27 28 29 30 rings
6 4 17 19 20 21 22 rings

> <PUBCHEM_HEAVY_ATOM_COUNT>
30

> <PUBCHEM_ATOM_DEF_STEREO_COUNT>
4

> <PUBCHEM_ATOM_UDEF_STEREO_COUNT>
0

> <PUBCHEM_BOND_DEF_STEREO_COUNT>
0

> <PUBCHEM_BOND_UDEF_STEREO_COUNT>
0

> <PUBCHEM_ISOTOPIC_ATOM_COUNT>
0

> <PUBCHEM_COMPONENT_COUNT>
1

> <PUBCHEM_CACTVS_TAUTO_COUNT>
14

> <PUBCHEM_CONFORMER_ID>
06128A4A00000001

> <PUBCHEM_MMFF94_ENERGY>
78.928

> <PUBCHEM_FEATURE_SELFOVERLAP>
81.355

> <PUBCHEM_SHAPE_FINGERPRINT>
10 15 17676492760744431285
10006869 2 18339635638464300962
10165383 225 18411700989651171296
10411042 1 17615971002256545682
10493431 412 18410578391877756031
10906281 52 18339091457206649191
1100329 8 18338520862185534620
11135609 187 18410570661706853953
11181472 205 17557993836851331257
11456790 92 18271522014468752208
11719270 70 18333733494379705487
12035758 1 17894642448233862433
12107183 9 18262223449408022650
12236239 1 17916866812557568045
12422481 6 17385441033518629276
12838862 33 18336812156786484925
12925494 130 18055627576174776784
13140716 1 18263087780419326921
13540713 4 17680983003355522461
13540713 5 18339903979089285406
13617811 41 18409727365815875633
13631057 29 18271237348717020447
13726171 33 18121505919581557424
14020679 6 17531813574758913424
14117953 113 18334581235468111780
14565420 104 18334576811013564530
14787075 74 18059855034910359201
14790565 3 18409736161623320941
15183329 4 14907905972039407976
15475509 35 16009586846806743026
16994733 274 17203890738755682929
17980427 23 17822294655528911334
18222031 100 8718824275915344726
19319366 153 18341888554732645622
20511986 3 18129934573792697637
20554085 129 18201988937503451786
20642791 13 18267583696535536102
20642791 178 18043540618837672988
21033648 29 17845079848804344096
21049683 118 18266157570130347594
21130935 74 18262525776297968059
21236236 1 18338797930858213015
21521721 280 18413110546013867457
21623969 137 18187656769418297131
21703447 108 17680139677905934715
21781055 127 18059301955556493498
21792934 111 18189046517033848777
22149856 69 18117865251929357353
22224240 67 18410292514886543177
23845131 108 18334579052955305763
24771293 8 18412824707034613477
249999 5 18263642875083974602
2748736 6 18411697690335644256
3004659 81 11671781568396862608
3178227 256 18335715953011371345
335352 9 18410017603179452790
34797466 226 15985096436014228073
34934 24 18408037424811748934
350125 39 18192721252914493939
3504750 166 12468629539557698665
3680242 22 18260544524752624320
4073 2 18334021567238858835
4093350 32 17489314048715214277
4340502 62 18409167692742276454
5104073 3 18334296470019191434
5486654 2 18411705386943373476
5758199 1 18342460331392044641
59682541 52 16845303709323468452
6004065 56 18335704970838062805
86090 222 14274008859190967800
9962374 69 18267293253757002862

> <PUBCHEM_SHAPE_MULTIPOLES>
564.56
18.01
3.25
1.08
10.42
3.61
0.18
-16.43
2.63
-2.7
0.3
0.01
-0.55
0.21

> <PUBCHEM_SHAPE_SELFOVERLAP>
1270.547

> <PUBCHEM_SHAPE_VOLUME>
297.1

> <PUBCHEM_COORDINATE_TYPE>
2
5
10

$$$$
