101834849
  -OEChem-03292013293D

 52 55  0     1  0  0  0  0  0999 V2000
    0.1023    0.5930    1.5152 O   0  0  0  0  0  0  0  0  0  0  0  0
   -1.5455    0.1555   -1.6647 O   0  0  0  0  0  0  0  0  0  0  0  0
   -3.1728    1.5393    0.6221 O   0  0  0  0  0  0  0  0  0  0  0  0
    0.6282   -1.7736   -1.2449 O   0  0  0  0  0  0  0  0  0  0  0  0
   -1.3374    1.8644    2.7856 O   0  0  0  0  0  0  0  0  0  0  0  0
    0.5682    3.4489   -1.6742 O   0  0  0  0  0  0  0  0  0  0  0  0
    2.7022   -3.2099    0.8830 O   0  0  0  0  0  0  0  0  0  0  0  0
   -1.3370    0.1376   -0.2577 C   0  0  1  0  0  0  0  0  0  0  0  0
    0.1631    0.2086    0.1138 C   0  0  1  0  0  0  0  0  0  0  0  0
   -1.7820    1.4522    0.4050 C   0  0  1  0  0  0  0  0  0  0  0  0
   -1.3328    2.6844   -0.4141 C   0  0  2  0  0  0  0  0  0  0  0  0
    0.8835    1.3536   -0.5836 C   0  0  0  0  0  0  0  0  0  0  0  0
   -2.0774   -1.0917    0.2974 C   0  0  0  0  0  0  0  0  0  0  0  0
    0.9355   -1.1284   -0.0083 C   0  0  2  0  0  0  0  0  0  0  0  0
   -1.0186    1.3651    1.7191 C   0  0  0  0  0  0  0  0  0  0  0  0
    0.0925    2.5690   -0.9570 C   0  0  0  0  0  0  0  0  0  0  0  0
   -3.3752   -1.3246   -0.4644 C   0  0  0  0  0  0  0  0  0  0  0  0
    2.4384   -0.9629    0.0548 C   0  0  0  0  0  0  0  0  0  0  0  0
    2.2040    1.3536   -0.8247 C   0  0  0  0  0  0  0  0  0  0  0  0
   -1.4963    4.0060    0.3402 C   0  0  0  0  0  0  0  0  0  0  0  0
    3.0370    0.2331   -0.3777 C   0  0  0  0  0  0  0  0  0  0  0  0
   -4.1249   -2.5836    0.0090 C   0  0  0  0  0  0  0  0  0  0  0  0
    3.2472   -2.0269    0.4786 C   0  0  0  0  0  0  0  0  0  0  0  0
    4.4329    0.3483   -0.3795 C   0  0  0  0  0  0  0  0  0  0  0  0
   -3.2423   -3.8184   -0.1898 C   0  0  0  0  0  0  0  0  0  0  0  0
   -5.4562   -2.7791   -0.7181 C   0  0  0  0  0  0  0  0  0  0  0  0
    4.6357   -1.8994    0.4823 C   0  0  0  0  0  0  0  0  0  0  0  0
    5.2275   -0.7141    0.0526 C   0  0  0  0  0  0  0  0  0  0  0  0
   -1.9784    2.7507   -1.3017 H   0  0  0  0  0  0  0  0  0  0  0  0
   -1.4552   -1.9754    0.1561 H   0  0  0  0  0  0  0  0  0  0  0  0
   -2.2630   -1.0118    1.3744 H   0  0  0  0  0  0  0  0  0  0  0  0
    0.6286   -1.7896    0.8109 H   0  0  0  0  0  0  0  0  0  0  0  0
   -4.0522   -0.4722   -0.3627 H   0  0  0  0  0  0  0  0  0  0  0  0
   -3.1875   -1.4544   -1.5374 H   0  0  0  0  0  0  0  0  0  0  0  0
   -2.3999    0.5820   -1.8466 H   0  0  0  0  0  0  0  0  0  0  0  0
    2.7067    2.1909   -1.2978 H   0  0  0  0  0  0  0  0  0  0  0  0
   -0.7810    4.0903    1.1651 H   0  0  0  0  0  0  0  0  0  0  0  0
   -2.5079    4.1140    0.7437 H   0  0  0  0  0  0  0  0  0  0  0  0
   -1.3140    4.8560   -0.3271 H   0  0  0  0  0  0  0  0  0  0  0  0
   -3.6071    1.6974   -0.2330 H   0  0  0  0  0  0  0  0  0  0  0  0
   -4.3426   -2.4834    1.0799 H   0  0  0  0  0  0  0  0  0  0  0  0
    0.7886   -1.1405   -1.9654 H   0  0  0  0  0  0  0  0  0  0  0  0
    4.9152    1.2649   -0.7112 H   0  0  0  0  0  0  0  0  0  0  0  0
   -2.4016   -3.8365    0.5099 H   0  0  0  0  0  0  0  0  0  0  0  0
   -6.1063   -1.9101   -0.5722 H   0  0  0  0  0  0  0  0  0  0  0  0
   -5.9845   -3.6598   -0.3381 H   0  0  0  0  0  0  0  0  0  0  0  0
   -5.3042   -2.9111   -1.7947 H   0  0  0  0  0  0  0  0  0  0  0  0
   -3.8151   -4.7343   -0.0042 H   0  0  0  0  0  0  0  0  0  0  0  0
   -2.8495   -3.8742   -1.2107 H   0  0  0  0  0  0  0  0  0  0  0  0
    5.2696   -2.7188    0.8107 H   0  0  0  0  0  0  0  0  0  0  0  0
    6.3094   -0.6168    0.0518 H   0  0  0  0  0  0  0  0  0  0  0  0
    3.4151   -3.8215    1.1347 H   0  0  0  0  0  0  0  0  0  0  0  0
  1  9  1  0  0  0  0
  1 15  1  0  0  0  0
  2  8  1  0  0  0  0
  2 35  1  0  0  0  0
  3 10  1  0  0  0  0
  3 40  1  0  0  0  0
  4 14  1  0  0  0  0
  4 42  1  0  0  0  0
  5 15  2  0  0  0  0
  6 16  2  0  0  0  0
  7 23  1  0  0  0  0
  7 52  1  0  0  0  0
  8  9  1  0  0  0  0
  8 10  1  0  0  0  0
  8 13  1  0  0  0  0
  9 12  1  0  0  0  0
  9 14  1  0  0  0  0
 10 11  1  0  0  0  0
 10 15  1  0  0  0  0
 11 16  1  0  0  0  0
 11 20  1  0  0  0  0
 11 29  1  0  0  0  0
 12 16  1  0  0  0  0
 12 19  2  0  0  0  0
 13 17  1  0  0  0  0
 13 30  1  0  0  0  0
 13 31  1  0  0  0  0
 14 18  1  0  0  0  0
 14 32  1  0  0  0  0
 17 22  1  0  0  0  0
 17 33  1  0  0  0  0
 17 34  1  0  0  0  0
 18 21  2  0  0  0  0
 18 23  1  0  0  0  0
 19 21  1  0  0  0  0
 19 36  1  0  0  0  0
 20 37  1  0  0  0  0
 20 38  1  0  0  0  0
 20 39  1  0  0  0  0
 21 24  1  0  0  0  0
 22 25  1  0  0  0  0
 22 26  1  0  0  0  0
 22 41  1  0  0  0  0
 23 27  2  0  0  0  0
 24 28  2  0  0  0  0
 24 43  1  0  0  0  0
 25 44  1  0  0  0  0
 25 48  1  0  0  0  0
 25 49  1  0  0  0  0
 26 45  1  0  0  0  0
 26 46  1  0  0  0  0
 26 47  1  0  0  0  0
 27 28  1  0  0  0  0
 27 50  1  0  0  0  0
 28 51  1  0  0  0  0
M  END
> <PUBCHEM_COMPOUND_CID>
101834849

> <PUBCHEM_CONFORMER_RMSD>
0.8

> <PUBCHEM_CONFORMER_DIVERSEORDER>
1
3
2
4

> <PUBCHEM_MMFF94_PARTIAL_CHARGES>
30
1 -0.43
10 0.34
11 0.06
12 -0.12
14 0.42
15 0.66
16 0.49
18 -0.14
19 -0.18
2 -0.68
21 0.03
23 0.08
24 -0.15
27 -0.15
28 -0.15
3 -0.68
35 0.4
36 0.15
4 -0.68
40 0.4
42 0.4
43 0.15
5 -0.57
50 0.15
51 0.15
52 0.45
6 -0.57
7 -0.53
8 0.28
9 0.42

> <PUBCHEM_EFFECTIVE_ROTOR_COUNT>
3.8

> <PUBCHEM_PHARMACOPHORE_FEATURES>
13
1 2 acceptor
1 2 donor
1 3 acceptor
1 3 donor
1 4 acceptor
1 4 donor
1 5 acceptor
1 6 acceptor
1 7 donor
3 22 25 26 hydrophobe
6 18 21 23 24 27 28 rings
6 9 12 14 18 19 21 rings
8 1 8 9 10 11 12 15 16 rings

> <PUBCHEM_HEAVY_ATOM_COUNT>
28

> <PUBCHEM_ATOM_DEF_STEREO_COUNT>
5

> <PUBCHEM_ATOM_UDEF_STEREO_COUNT>
0

> <PUBCHEM_BOND_DEF_STEREO_COUNT>
0

> <PUBCHEM_BOND_UDEF_STEREO_COUNT>
0

> <PUBCHEM_ISOTOPIC_ATOM_COUNT>
0

> <PUBCHEM_COMPONENT_COUNT>
1

> <PUBCHEM_CACTVS_TAUTO_COUNT>
36

> <PUBCHEM_CONFORMER_ID>
0611E06100000001

> <PUBCHEM_MMFF94_ENERGY>
91.1723

> <PUBCHEM_FEATURE_SELFOVERLAP>
66.026

> <PUBCHEM_SHAPE_FINGERPRINT>
10411042 1 18410291457966321047
10863032 1 18338513041176539772
10948715 1 17618220607262269188
11045515 52 18113332024768317965
11135609 187 17827363490243729868
11265709 11 18410294748238180843
11552529 35 18270964518775578034
11578080 2 18200856440195228088
11582403 64 16159324795180451349
12403814 3 18193279598235823185
12553582 1 18263382406559946531
12788726 201 18058183867235234775
13004483 165 18336817633012192491
13009979 54 18271539661814085312
13140716 1 18413672417561699809
13224815 77 18340204073444328578
13544653 18 18335706104218903043
13631057 29 18341893004793394466
138480 1 15527983955574432181
13911987 19 17536051178999540724
13955234 65 17619069868994931179
14068700 675 18339358677493144938
14787075 74 17770781526708669056
14790565 3 16895115206097243821
16945 1 18127708031800971909
17349148 13 17530685381961792346
17492 89 18339640032380297518
1813 80 18270693072352474263
19141452 34 18338239241364376801
19591789 44 16678952340993939086
21421861 104 18122372265649669355
21452121 199 18265038305620422091
23227448 37 18267021644192667684
23419403 2 17986931115841065145
23559900 14 18122331652681771079
3380486 145 18188503375480516372
392239 28 17916017048524457378
46194498 28 17315905844189289319
463206 1 18190743239553790315
469060 322 18334576862953689328
5104073 3 18271515396161915370
7471813 234 18198901607668377391

> <PUBCHEM_SHAPE_MULTIPOLES>
535.14
8.28
4.53
1.37
1.19
0.98
0.55
-9.49
-0.61
-3.19
-0.16
-0.38
0.86
-1.65

> <PUBCHEM_SHAPE_SELFOVERLAP>
1182.15

> <PUBCHEM_SHAPE_VOLUME>
285.1

> <PUBCHEM_COORDINATE_TYPE>
2
5
10

$$$$
