101934782
  -OEChem-03292013293D

 60 59  0     1  0  0  0  0  0999 V2000
   -0.5191    0.3312   -1.9427 O   0  0  0  0  0  0  0  0  0  0  0  0
    1.9079   -1.5712    0.5223 O   0  0  0  0  0  0  0  0  0  0  0  0
   -4.5972   -2.5018    0.1095 O   0  0  0  0  0  0  0  0  0  0  0  0
   -4.1432   -2.7988    2.7613 O   0  0  0  0  0  0  0  0  0  0  0  0
   -0.0387    0.3428    0.3254 N   0  0  0  0  0  0  0  0  0  0  0  0
    3.2218   -0.2804   -0.8916 N   0  0  0  0  0  0  0  0  0  0  0  0
   -3.1236   -2.3974    1.8882 N   0  0  0  0  0  0  0  0  0  0  0  0
   -2.2796   -0.2909   -0.4248 C   0  0  2  0  0  0  0  0  0  0  0  0
   -3.3232    0.2330   -1.4323 C   0  0  0  0  0  0  0  0  0  0  0  0
    1.3372    0.7639    0.2033 C   0  0  1  0  0  0  0  0  0  0  0  0
    1.8239    1.5250    1.4430 C   0  0  0  0  0  0  0  0  0  0  0  0
   -3.8034    1.6786   -1.1828 C   0  0  0  0  0  0  0  0  0  0  0  0
    1.0157    2.7945    1.7809 C   0  0  0  0  0  0  0  0  0  0  0  0
   -0.8613    0.1597   -0.7731 C   0  0  0  0  0  0  0  0  0  0  0  0
   -2.3332   -1.8252   -0.3132 C   0  0  0  0  0  0  0  0  0  0  0  0
    2.1746   -0.4939   -0.0062 C   0  0  0  0  0  0  0  0  0  0  0  0
   -4.8758    2.1196   -2.1801 C   0  0  0  0  0  0  0  0  0  0  0  0
   -2.6105    2.6366   -1.2533 C   0  0  0  0  0  0  0  0  0  0  0  0
    1.0842    3.7772    0.6087 C   0  0  0  0  0  0  0  0  0  0  0  0
    1.5117    3.4786    3.0555 C   0  0  0  0  0  0  0  0  0  0  0  0
    4.1371   -1.3207   -1.3020 C   0  0  0  0  0  0  0  0  0  0  0  0
    5.3590   -1.4188   -0.3817 C   0  0  0  0  0  0  0  0  0  0  0  0
   -3.4781   -2.2829    0.5683 C   0  0  0  0  0  0  0  0  0  0  0  0
    6.1264   -0.0963   -0.3864 C   0  0  0  0  0  0  0  0  0  0  0  0
    6.2876   -2.5625   -0.7961 C   0  0  0  0  0  0  0  0  0  0  0  0
   -2.5261    0.1313    0.5595 H   0  0  0  0  0  0  0  0  0  0  0  0
   -2.9455    0.1435   -2.4590 H   0  0  0  0  0  0  0  0  0  0  0  0
   -4.2158   -0.4034   -1.3932 H   0  0  0  0  0  0  0  0  0  0  0  0
    1.4250    1.3911   -0.6906 H   0  0  0  0  0  0  0  0  0  0  0  0
    2.8822    1.7881    1.3117 H   0  0  0  0  0  0  0  0  0  0  0  0
    1.7901    0.8532    2.3120 H   0  0  0  0  0  0  0  0  0  0  0  0
   -4.2367    1.7381   -0.1764 H   0  0  0  0  0  0  0  0  0  0  0  0
   -0.0346    2.5223    1.9419 H   0  0  0  0  0  0  0  0  0  0  0  0
   -2.4462   -2.2877   -1.3012 H   0  0  0  0  0  0  0  0  0  0  0  0
   -1.3947   -2.2171    0.0992 H   0  0  0  0  0  0  0  0  0  0  0  0
   -0.3876    0.1018    1.2488 H   0  0  0  0  0  0  0  0  0  0  0  0
   -2.0545    2.5270   -2.1898 H   0  0  0  0  0  0  0  0  0  0  0  0
   -1.9306    2.5006   -0.4087 H   0  0  0  0  0  0  0  0  0  0  0  0
   -4.4934    2.1026   -3.2063 H   0  0  0  0  0  0  0  0  0  0  0  0
   -5.2200    3.1359   -1.9614 H   0  0  0  0  0  0  0  0  0  0  0  0
   -2.9552    3.6759   -1.1996 H   0  0  0  0  0  0  0  0  0  0  0  0
   -5.7440    1.4542   -2.1316 H   0  0  0  0  0  0  0  0  0  0  0  0
    2.1207    4.0041    0.3368 H   0  0  0  0  0  0  0  0  0  0  0  0
    0.5923    4.7213    0.8684 H   0  0  0  0  0  0  0  0  0  0  0  0
    0.5722    3.3897   -0.2768 H   0  0  0  0  0  0  0  0  0  0  0  0
    2.5540    3.7991    2.9533 H   0  0  0  0  0  0  0  0  0  0  0  0
    0.9054    4.3604    3.2881 H   0  0  0  0  0  0  0  0  0  0  0  0
    1.4500    2.7949    3.9085 H   0  0  0  0  0  0  0  0  0  0  0  0
    3.3684    0.6490   -1.2745 H   0  0  0  0  0  0  0  0  0  0  0  0
    4.4407   -1.0958   -2.3306 H   0  0  0  0  0  0  0  0  0  0  0  0
    3.5995   -2.2757   -1.3141 H   0  0  0  0  0  0  0  0  0  0  0  0
    5.0191   -1.6102    0.6443 H   0  0  0  0  0  0  0  0  0  0  0  0
    6.6708   -2.4144   -1.8114 H   0  0  0  0  0  0  0  0  0  0  0  0
    7.1432   -2.6361   -0.1166 H   0  0  0  0  0  0  0  0  0  0  0  0
    5.7558   -3.5194   -0.7707 H   0  0  0  0  0  0  0  0  0  0  0  0
    5.5176    0.7241    0.0074 H   0  0  0  0  0  0  0  0  0  0  0  0
    7.0198   -0.1665    0.2438 H   0  0  0  0  0  0  0  0  0  0  0  0
    6.4500    0.1739   -1.3975 H   0  0  0  0  0  0  0  0  0  0  0  0
   -2.1878   -2.3286    2.2713 H   0  0  0  0  0  0  0  0  0  0  0  0
   -4.4423   -1.9326    3.0860 H   0  0  0  0  0  0  0  0  0  0  0  0
  1 14  2  0  0  0  0
  2 16  2  0  0  0  0
  3 23  2  0  0  0  0
  4  7  1  0  0  0  0
  4 60  1  0  0  0  0
  5 10  1  0  0  0  0
  5 14  1  0  0  0  0
  5 36  1  0  0  0  0
  6 16  1  0  0  0  0
  6 21  1  0  0  0  0
  6 49  1  0  0  0  0
  7 23  1  0  0  0  0
  7 59  1  0  0  0  0
  8  9  1  0  0  0  0
  8 14  1  0  0  0  0
  8 15  1  0  0  0  0
  8 26  1  0  0  0  0
  9 12  1  0  0  0  0
  9 27  1  0  0  0  0
  9 28  1  0  0  0  0
 10 11  1  0  0  0  0
 10 16  1  0  0  0  0
 10 29  1  0  0  0  0
 11 13  1  0  0  0  0
 11 30  1  0  0  0  0
 11 31  1  0  0  0  0
 12 17  1  0  0  0  0
 12 18  1  0  0  0  0
 12 32  1  0  0  0  0
 13 19  1  0  0  0  0
 13 20  1  0  0  0  0
 13 33  1  0  0  0  0
 15 23  1  0  0  0  0
 15 34  1  0  0  0  0
 15 35  1  0  0  0  0
 17 39  1  0  0  0  0
 17 40  1  0  0  0  0
 17 42  1  0  0  0  0
 18 37  1  0  0  0  0
 18 38  1  0  0  0  0
 18 41  1  0  0  0  0
 19 43  1  0  0  0  0
 19 44  1  0  0  0  0
 19 45  1  0  0  0  0
 20 46  1  0  0  0  0
 20 47  1  0  0  0  0
 20 48  1  0  0  0  0
 21 22  1  0  0  0  0
 21 50  1  0  0  0  0
 21 51  1  0  0  0  0
 22 24  1  0  0  0  0
 22 25  1  0  0  0  0
 22 52  1  0  0  0  0
 24 56  1  0  0  0  0
 24 57  1  0  0  0  0
 24 58  1  0  0  0  0
 25 53  1  0  0  0  0
 25 54  1  0  0  0  0
 25 55  1  0  0  0  0
M  END
> <PUBCHEM_COMPOUND_CID>
101934782

> <PUBCHEM_CONFORMER_RMSD>
1.4

> <PUBCHEM_CONFORMER_DIVERSEORDER>
1
135
72
53
18
167
148
189
90
188
164
41
80
113
57
91
126
27
139
74
35
93
169
110
120
109
196
163
38
128
83
64
140
85
60
130
95
54
28
19
46
67
157
149
107
111
121
141
61
118
77
185
175
171
79
145
162
58
84
159
45
168
161
25
15
98
51
97
44
117
147
124
132
152
71
153
114
17
187
174
197
81
108
116
8
178
78
155
40
165
4
184
43
131
166
52
36
136
129
92
160
14
125
146
49
137
100
29
127
181
33
82
39
133
176
105
172
26
191
194
62
119
143
66
7
190
87
123
59
122
70
103
69
88
177
192
115
31
63
37
138
20
144
76
6
11
198
102
170
22
30
12
134
156
2
34
94
48
101
150
32
158
193
73
86
5
42
13
10
56
21
183
195
106
154
23
68
55
50
186
182
173
47
65
112
9
180
104
96
3
16
151
24
179
99
89
142
75

> <PUBCHEM_MMFF94_PARTIAL_CHARGES>
18
1 -0.57
10 0.36
14 0.57
15 0.06
16 0.57
2 -0.57
21 0.3
23 0.57
3 -0.57
36 0.37
4 -0.44
49 0.37
5 -0.73
59 0.37
6 -0.73
60 0.4
7 -0.39
8 0.06

> <PUBCHEM_EFFECTIVE_ROTOR_COUNT>
14

> <PUBCHEM_PHARMACOPHORE_FEATURES>
10
1 1 acceptor
1 2 acceptor
1 3 acceptor
1 5 donor
1 6 donor
1 7 donor
3 12 17 18 hydrophobe
3 13 19 20 hydrophobe
3 22 24 25 hydrophobe
4 8 9 12 15 hydrophobe

> <PUBCHEM_HEAVY_ATOM_COUNT>
25

> <PUBCHEM_ATOM_DEF_STEREO_COUNT>
0

> <PUBCHEM_ATOM_UDEF_STEREO_COUNT>
2

> <PUBCHEM_BOND_DEF_STEREO_COUNT>
0

> <PUBCHEM_BOND_UDEF_STEREO_COUNT>
0

> <PUBCHEM_ISOTOPIC_ATOM_COUNT>
0

> <PUBCHEM_COMPONENT_COUNT>
1

> <PUBCHEM_CACTVS_TAUTO_COUNT>
24

> <PUBCHEM_CONFORMER_ID>
061366BE00000001

> <PUBCHEM_MMFF94_ENERGY>
40.9389

> <PUBCHEM_FEATURE_SELFOVERLAP>
50.773

> <PUBCHEM_SHAPE_FINGERPRINT>
11796584 16 18188205395677554318
12166972 35 16199563871393387693
12293681 160 17767672867639410585
12549972 3 18339067276947175617
12633257 1 17702123528024228671
12788726 201 17840295623865217912
13540713 4 18267006418818647717
13673619 4 18264224645583749011
14251757 5 18266455404320827268
15295992 7 18273494585621360589
15806764 133 18342177803752616589
17980427 23 14692567749600583944
1813 80 17417270800316376150
20600515 1 18127710256726043660
20681677 155 17967810496816723759
22224240 67 12396883055291386901
23557571 272 18043515313085504301
23559900 14 18335690685344099317
2818148 4 18118429416820959533
458136 41 17693945497943713776
6049 1 18339356487123088581
633830 44 15213312915024953614
70251023 43 18129082593503636503
81228 2 17699848419602058168
9709674 26 18197476597696735429

> <PUBCHEM_SHAPE_MULTIPOLES>
476.07
11.94
4.34
2.31
11.74
2.72
1.38
-8.82
-4.58
-1.15
3.11
-2.46
0.74
5.34

> <PUBCHEM_SHAPE_SELFOVERLAP>
911.349

> <PUBCHEM_SHAPE_VOLUME>
291.6

> <PUBCHEM_COORDINATE_TYPE>
2
5
10

$$$$
