101938072
  -OEChem-03292013293D

 74 77  0     1  0  0  0  0  0999 V2000
    3.2444    0.1522   -0.7548 O   0  0  0  0  0  0  0  0  0  0  0  0
   -6.7047   -1.0857   -1.1486 O   0  0  0  0  0  0  0  0  0  0  0  0
    4.7692   -0.2667    0.9819 O   0  0  0  0  0  0  0  0  0  0  0  0
   -6.9594    1.8801   -1.1677 O   0  0  0  0  0  0  0  0  0  0  0  0
    5.9965   -2.1567   -1.0290 O   0  0  0  0  0  0  0  0  0  0  0  0
    5.9137    1.4211   -1.4434 O   0  0  0  0  0  0  0  0  0  0  0  0
    6.7867   -0.2044    2.9122 O   0  0  0  0  0  0  0  0  0  0  0  0
   -1.0738   -0.3083   -0.4863 C   0  0  2  0  0  0  0  0  0  0  0  0
   -0.3608    0.8589    0.2903 C   0  0  1  0  0  0  0  0  0  0  0  0
   -2.3437   -0.7358    0.3737 C   0  0  1  0  0  0  0  0  0  0  0  0
    1.1204    1.2063   -0.1242 C   0  0  0  0  0  0  0  0  0  0  0  0
   -0.1158   -1.5208   -0.6011 C   0  0  0  0  0  0  0  0  0  0  0  0
    1.9381   -0.1119   -0.2446 C   0  0  1  0  0  0  0  0  0  0  0  0
   -1.3032    2.0805    0.3848 C   0  0  0  0  0  0  0  0  0  0  0  0
   -3.1379    0.4478    0.9132 C   0  0  0  0  0  0  0  0  0  0  0  0
    1.2652   -1.1577   -1.1292 C   0  0  0  0  0  0  0  0  0  0  0  0
   -3.2630   -1.7414   -0.3598 C   0  0  0  0  0  0  0  0  0  0  0  0
   -5.3487   -0.8349    0.8139 C   0  0  2  0  0  0  0  0  0  0  0  0
   -1.5148    0.1132   -1.9111 C   0  0  0  0  0  0  0  0  0  0  0  0
   -4.4445    0.1321    1.6044 C   0  0  0  0  0  0  0  0  0  0  0  0
   -4.5293   -2.0844    0.4277 C   0  0  0  0  0  0  0  0  0  0  0  0
   -2.6731    1.7083    0.8712 C   0  0  0  0  0  0  0  0  0  0  0  0
    1.2537    2.0540   -1.4086 C   0  0  0  0  0  0  0  0  0  0  0  0
    1.7722    2.0554    1.0041 C   0  0  0  0  0  0  0  0  0  0  0  0
   -5.9260   -0.1372   -0.4335 C   0  0  2  0  0  0  0  0  0  0  0  0
   -6.5268   -1.2676    1.7065 C   0  0  0  0  0  0  0  0  0  0  0  0
    4.1982   -0.7668   -0.2351 C   0  0  2  0  0  0  0  0  0  0  0  0
   -6.8089    1.0293   -0.0361 C   0  0  0  0  0  0  0  0  0  0  0  0
    5.3484   -0.9055   -1.2199 C   0  0  1  0  0  0  0  0  0  0  0  0
    6.2881    0.2058   -0.7975 C   0  0  2  0  0  0  0  0  0  0  0  0
    6.0480    0.3340    0.7050 C   0  0  2  0  0  0  0  0  0  0  0  0
    7.0917   -0.3931    1.5415 C   0  0  0  0  0  0  0  0  0  0  0  0
   -0.2625    0.4821    1.3233 H   0  0  0  0  0  0  0  0  0  0  0  0
   -1.9696   -1.2554    1.2696 H   0  0  0  0  0  0  0  0  0  0  0  0
   -0.5464   -2.2924   -1.2503 H   0  0  0  0  0  0  0  0  0  0  0  0
    0.0081   -1.9874    0.3851 H   0  0  0  0  0  0  0  0  0  0  0  0
    2.0233   -0.5286    0.7707 H   0  0  0  0  0  0  0  0  0  0  0  0
   -1.4065    2.5915   -0.5773 H   0  0  0  0  0  0  0  0  0  0  0  0
   -0.8925    2.8086    1.0921 H   0  0  0  0  0  0  0  0  0  0  0  0
    1.8743   -2.0682   -1.1740 H   0  0  0  0  0  0  0  0  0  0  0  0
    1.2096   -0.8089   -2.1665 H   0  0  0  0  0  0  0  0  0  0  0  0
   -2.7145   -2.6719   -0.5465 H   0  0  0  0  0  0  0  0  0  0  0  0
   -3.5670   -1.3625   -1.3397 H   0  0  0  0  0  0  0  0  0  0  0  0
   -2.3388    0.8332   -1.8956 H   0  0  0  0  0  0  0  0  0  0  0  0
   -1.8509   -0.7502   -2.4962 H   0  0  0  0  0  0  0  0  0  0  0  0
   -0.7096    0.5571   -2.4912 H   0  0  0  0  0  0  0  0  0  0  0  0
   -4.1715   -0.3612    2.5501 H   0  0  0  0  0  0  0  0  0  0  0  0
   -4.9592    1.0416    1.9246 H   0  0  0  0  0  0  0  0  0  0  0  0
   -5.1354   -2.7903   -0.1529 H   0  0  0  0  0  0  0  0  0  0  0  0
   -4.2316   -2.6232    1.3377 H   0  0  0  0  0  0  0  0  0  0  0  0
   -3.2772    2.5200    1.2685 H   0  0  0  0  0  0  0  0  0  0  0  0
    1.3054    3.0417    1.0914 H   0  0  0  0  0  0  0  0  0  0  0  0
    1.0472    1.4885   -2.3171 H   0  0  0  0  0  0  0  0  0  0  0  0
    0.6018    2.9318   -1.3925 H   0  0  0  0  0  0  0  0  0  0  0  0
    2.2767    2.4346   -1.5220 H   0  0  0  0  0  0  0  0  0  0  0  0
    1.6900    1.5567    1.9764 H   0  0  0  0  0  0  0  0  0  0  0  0
    2.8386    2.2241    0.8142 H   0  0  0  0  0  0  0  0  0  0  0  0
   -5.1348    0.2069   -1.1081 H   0  0  0  0  0  0  0  0  0  0  0  0
   -7.2386   -1.9068    1.1731 H   0  0  0  0  0  0  0  0  0  0  0  0
   -7.0746   -0.4164    2.1238 H   0  0  0  0  0  0  0  0  0  0  0  0
   -6.1641   -1.8469    2.5646 H   0  0  0  0  0  0  0  0  0  0  0  0
    3.7525   -1.7450   -0.0213 H   0  0  0  0  0  0  0  0  0  0  0  0
   -6.4068    1.6634    0.7519 H   0  0  0  0  0  0  0  0  0  0  0  0
   -7.8148    0.7002    0.2452 H   0  0  0  0  0  0  0  0  0  0  0  0
    5.0291   -0.8226   -2.2639 H   0  0  0  0  0  0  0  0  0  0  0  0
   -7.0829   -0.6319   -1.9210 H   0  0  0  0  0  0  0  0  0  0  0  0
    7.3355    0.0048   -1.0450 H   0  0  0  0  0  0  0  0  0  0  0  0
    5.9813    1.3800    1.0257 H   0  0  0  0  0  0  0  0  0  0  0  0
   -7.5468    2.6085   -0.9030 H   0  0  0  0  0  0  0  0  0  0  0  0
    8.0934    0.0027    1.3477 H   0  0  0  0  0  0  0  0  0  0  0  0
    7.0832   -1.4698    1.3466 H   0  0  0  0  0  0  0  0  0  0  0  0
    5.3606   -2.8533   -1.2654 H   0  0  0  0  0  0  0  0  0  0  0  0
    6.5100    2.1178   -1.1196 H   0  0  0  0  0  0  0  0  0  0  0  0
    7.4677   -0.6724    3.4247 H   0  0  0  0  0  0  0  0  0  0  0  0
  1 13  1  0  0  0  0
  1 27  1  0  0  0  0
  2 25  1  0  0  0  0
  2 66  1  0  0  0  0
  3 27  1  0  0  0  0
  3 31  1  0  0  0  0
  4 28  1  0  0  0  0
  4 69  1  0  0  0  0
  5 29  1  0  0  0  0
  5 72  1  0  0  0  0
  6 30  1  0  0  0  0
  6 73  1  0  0  0  0
  7 32  1  0  0  0  0
  7 74  1  0  0  0  0
  8  9  1  0  0  0  0
  8 10  1  0  0  0  0
  8 12  1  0  0  0  0
  8 19  1  0  0  0  0
  9 11  1  0  0  0  0
  9 14  1  0  0  0  0
  9 33  1  0  0  0  0
 10 15  1  0  0  0  0
 10 17  1  0  0  0  0
 10 34  1  0  0  0  0
 11 13  1  0  0  0  0
 11 23  1  0  0  0  0
 11 24  1  0  0  0  0
 12 16  1  0  0  0  0
 12 35  1  0  0  0  0
 12 36  1  0  0  0  0
 13 16  1  0  0  0  0
 13 37  1  0  0  0  0
 14 22  1  0  0  0  0
 14 38  1  0  0  0  0
 14 39  1  0  0  0  0
 15 20  1  0  0  0  0
 15 22  2  0  0  0  0
 16 40  1  0  0  0  0
 16 41  1  0  0  0  0
 17 21  1  0  0  0  0
 17 42  1  0  0  0  0
 17 43  1  0  0  0  0
 18 20  1  0  0  0  0
 18 21  1  0  0  0  0
 18 25  1  0  0  0  0
 18 26  1  0  0  0  0
 19 44  1  0  0  0  0
 19 45  1  0  0  0  0
 19 46  1  0  0  0  0
 20 47  1  0  0  0  0
 20 48  1  0  0  0  0
 21 49  1  0  0  0  0
 21 50  1  0  0  0  0
 22 51  1  0  0  0  0
 23 53  1  0  0  0  0
 23 54  1  0  0  0  0
 23 55  1  0  0  0  0
 24 52  1  0  0  0  0
 24 56  1  0  0  0  0
 24 57  1  0  0  0  0
 25 28  1  0  0  0  0
 25 58  1  0  0  0  0
 26 59  1  0  0  0  0
 26 60  1  0  0  0  0
 26 61  1  0  0  0  0
 27 29  1  0  0  0  0
 27 62  1  0  0  0  0
 28 63  1  0  0  0  0
 28 64  1  0  0  0  0
 29 30  1  0  0  0  0
 29 65  1  0  0  0  0
 30 31  1  0  0  0  0
 30 67  1  0  0  0  0
 31 32  1  0  0  0  0
 31 68  1  0  0  0  0
 32 70  1  0  0  0  0
 32 71  1  0  0  0  0
M  END
> <PUBCHEM_COMPOUND_CID>
101938072

> <PUBCHEM_CONFORMER_RMSD>
1

> <PUBCHEM_CONFORMER_DIVERSEORDER>
1
4
14
20
10
11
18
19
12
13
7
9
3
16
17
5
6
8
15
2

> <PUBCHEM_MMFF94_PARTIAL_CHARGES>
26
1 -0.56
10 0.14
13 0.28
14 0.14
15 -0.28
2 -0.68
20 0.14
22 -0.29
25 0.28
27 0.56
28 0.28
29 0.28
3 -0.56
30 0.28
31 0.28
32 0.28
4 -0.68
5 -0.68
51 0.15
6 -0.68
66 0.4
69 0.4
7 -0.68
72 0.4
73 0.4
74 0.4

> <PUBCHEM_EFFECTIVE_ROTOR_COUNT>
7.8

> <PUBCHEM_PHARMACOPHORE_FEATURES>
17
1 1 acceptor
1 2 acceptor
1 2 donor
1 3 acceptor
1 4 acceptor
1 4 donor
1 5 acceptor
1 5 donor
1 6 acceptor
1 6 donor
1 7 acceptor
1 7 donor
3 11 23 24 hydrophobe
5 3 27 29 30 31 rings
6 10 15 17 18 20 21 rings
6 8 9 10 14 15 22 rings
6 8 9 11 12 13 16 rings

> <PUBCHEM_HEAVY_ATOM_COUNT>
32

> <PUBCHEM_ATOM_DEF_STEREO_COUNT>
10

> <PUBCHEM_ATOM_UDEF_STEREO_COUNT>
0

> <PUBCHEM_BOND_DEF_STEREO_COUNT>
0

> <PUBCHEM_BOND_UDEF_STEREO_COUNT>
0

> <PUBCHEM_ISOTOPIC_ATOM_COUNT>
0

> <PUBCHEM_COMPONENT_COUNT>
1

> <PUBCHEM_CACTVS_TAUTO_COUNT>
1

> <PUBCHEM_CONFORMER_ID>
0613739800000001

> <PUBCHEM_MMFF94_ENERGY>
113.0622

> <PUBCHEM_FEATURE_SELFOVERLAP>
86.358

> <PUBCHEM_SHAPE_FINGERPRINT>
10 15 17988636420321777568
11315181 36 15339117949502582235
11578080 2 17533211964971706095
11719270 70 18341617001188378702
11796584 16 17603592953737465290
12120059 9 18340472409515545303
12166972 35 17060625511732892424
12236239 1 17749111105643641416
12516196 113 17989490723202170136
12838862 33 18271798004993608585
13533116 47 17346329150731271390
13914758 101 17749389230846775437
14251752 14 17749106686554946989
14251764 18 15339115749883162810
14849402 71 15769486642292210162
14955137 171 17917722300827881160
15131766 46 17462298133784224460
15183329 4 11530477856821893578
15475509 8 12685088164050002766
15849732 13 17918274259543183117
1813 80 18113624491157241148
18222031 100 18187373121082815244
21033648 29 16558463089587882314
21130935 74 17274830133652853575
21521721 280 12180138587349859294
21792934 111 18130218260434563562
21859007 373 18337095788148267813
22224240 67 17275101738931438974
23198884 109 15430036569849914913
23522609 53 16806191876825167357
23559900 14 18341894134369644153
23569914 152 13699749354377096514
23622692 88 17489591181374785660
24771293 8 17346598599467133632
3004659 81 18187374242132355788
335352 9 18342462556459300213
3383291 50 18339930415335516963
3411729 13 18055631970395708408
34797466 226 14764350453326655084
350125 39 18412832403615728437
4098825 35 15068610553026841403
4258327 124 14117223053339518304
4340502 62 12679189296898977356
5104073 3 17988081072476703650
59755656 215 18412827962777644111
6328613 192 18261399982968729037
7226269 152 18409454674542066369

> <PUBCHEM_SHAPE_MULTIPOLES>
617.46
20.23
2.03
1.71
7.06
0.3
0.51
-3.44
4.1
-0.95
-0.26
1.34
0.05
0.7

> <PUBCHEM_SHAPE_SELFOVERLAP>
1292.628

> <PUBCHEM_SHAPE_VOLUME>
345.1

> <PUBCHEM_COORDINATE_TYPE>
2
5
10

$$$$
