101937721
  -OEChem-03292013293D

 66 69  0     1  0  0  0  0  0999 V2000
   -1.2772   -0.9962    1.6293 O   0  0  0  0  0  0  0  0  0  0  0  0
   -2.5720    1.1849    0.2865 O   0  0  0  0  0  0  0  0  0  0  0  0
   -0.2217    2.4344   -0.5529 O   0  0  0  0  0  0  0  0  0  0  0  0
    0.0266   -3.4746    1.3852 O   0  0  0  0  0  0  0  0  0  0  0  0
    2.5348    2.3693   -0.4577 O   0  0  0  0  0  0  0  0  0  0  0  0
    4.7378   -1.6308   -0.4067 O   0  0  0  0  0  0  0  0  0  0  0  0
   -2.6456    2.5465   -1.5782 O   0  0  0  0  0  0  0  0  0  0  0  0
   -0.2725    3.4399    1.5263 O   0  0  0  0  0  0  0  0  0  0  0  0
   -0.3214   -1.8284   -0.4401 C   0  0  1  0  0  0  0  0  0  0  0  0
   -1.5536   -1.0437    0.2061 C   0  0  1  0  0  0  0  0  0  0  0  0
    1.0348   -1.1316    0.0407 C   0  0  2  0  0  0  0  0  0  0  0  0
    1.0956    0.4002   -0.3240 C   0  0  1  0  0  0  0  0  0  0  0  0
   -2.9720   -1.7762    0.0851 C   0  0  0  0  0  0  0  0  0  0  0  0
   -1.5135    0.4254   -0.3018 C   0  0  2  0  0  0  0  0  0  0  0  0
   -0.3392   -3.3255    0.0124 C   0  0  2  0  0  0  0  0  0  0  0  0
   -0.2054    1.1436    0.0664 C   0  0  2  0  0  0  0  0  0  0  0  0
   -2.8326   -3.2749    0.4764 C   0  0  0  0  0  0  0  0  0  0  0  0
    2.3938    1.1302    0.2512 C   0  0  1  0  0  0  0  0  0  0  0  0
   -1.6875   -4.0077   -0.2103 C   0  0  0  0  0  0  0  0  0  0  0  0
    2.3079   -1.8963   -0.4474 C   0  0  0  0  0  0  0  0  0  0  0  0
   -0.3626   -1.8178   -1.9964 C   0  0  0  0  0  0  0  0  0  0  0  0
   -4.0354   -1.2099    1.0775 C   0  0  0  0  0  0  0  0  0  0  0  0
   -3.6304   -1.6708   -1.3086 C   0  0  0  0  0  0  0  0  0  0  0  0
    3.5984    0.2698    0.0221 C   0  0  0  0  0  0  0  0  0  0  0  0
    3.5134   -1.0712   -0.2565 C   0  0  0  0  0  0  0  0  0  0  0  0
    2.2884    1.4673    1.7496 C   0  0  0  0  0  0  0  0  0  0  0  0
    4.9855    0.5624    0.0518 C   0  0  0  0  0  0  0  0  0  0  0  0
   -3.0422    2.2198   -0.4678 C   0  0  0  0  0  0  0  0  0  0  0  0
    5.6337   -0.6245   -0.2133 C   0  0  0  0  0  0  0  0  0  0  0  0
   -0.2554    3.4938    0.3041 C   0  0  0  0  0  0  0  0  0  0  0  0
   -4.1413    2.9215    0.2709 C   0  0  0  0  0  0  0  0  0  0  0  0
   -0.2693    4.7710   -0.4799 C   0  0  0  0  0  0  0  0  0  0  0  0
    1.0678   -1.1806    1.1379 H   0  0  0  0  0  0  0  0  0  0  0  0
    1.1784    0.4739   -1.4186 H   0  0  0  0  0  0  0  0  0  0  0  0
   -1.6422    0.4299   -1.3892 H   0  0  0  0  0  0  0  0  0  0  0  0
    0.4113   -3.8855   -0.5586 H   0  0  0  0  0  0  0  0  0  0  0  0
   -0.2166    1.2389    1.1574 H   0  0  0  0  0  0  0  0  0  0  0  0
   -3.7678   -3.8088    0.2614 H   0  0  0  0  0  0  0  0  0  0  0  0
   -2.6863   -3.3565    1.5622 H   0  0  0  0  0  0  0  0  0  0  0  0
   -1.6509   -5.0288    0.1900 H   0  0  0  0  0  0  0  0  0  0  0  0
   -1.8943   -4.1062   -1.2808 H   0  0  0  0  0  0  0  0  0  0  0  0
    2.2500   -2.1395   -1.5109 H   0  0  0  0  0  0  0  0  0  0  0  0
    2.4174   -2.8371    0.1023 H   0  0  0  0  0  0  0  0  0  0  0  0
    0.4347   -2.4332   -2.4244 H   0  0  0  0  0  0  0  0  0  0  0  0
   -0.2509   -0.8197   -2.4249 H   0  0  0  0  0  0  0  0  0  0  0  0
   -1.2763   -2.2377   -2.4043 H   0  0  0  0  0  0  0  0  0  0  0  0
   -4.3673   -0.2052    0.8104 H   0  0  0  0  0  0  0  0  0  0  0  0
   -3.6809   -1.1959    2.1125 H   0  0  0  0  0  0  0  0  0  0  0  0
   -4.9383   -1.8347    1.0727 H   0  0  0  0  0  0  0  0  0  0  0  0
   -3.6243   -0.6464   -1.6904 H   0  0  0  0  0  0  0  0  0  0  0  0
   -4.6827   -1.9801   -1.2638 H   0  0  0  0  0  0  0  0  0  0  0  0
   -3.1793   -2.3233   -2.0540 H   0  0  0  0  0  0  0  0  0  0  0  0
   -1.7764   -0.2541    2.0102 H   0  0  0  0  0  0  0  0  0  0  0  0
    1.6101    2.2866    1.9625 H   0  0  0  0  0  0  0  0  0  0  0  0
    3.2584    1.8109    2.1325 H   0  0  0  0  0  0  0  0  0  0  0  0
    1.9994    0.5962    2.3462 H   0  0  0  0  0  0  0  0  0  0  0  0
    0.0556   -4.4263    1.5822 H   0  0  0  0  0  0  0  0  0  0  0  0
    2.6116    2.1688   -1.4062 H   0  0  0  0  0  0  0  0  0  0  0  0
    5.4557    1.5157    0.2460 H   0  0  0  0  0  0  0  0  0  0  0  0
    6.6737   -0.9046   -0.2955 H   0  0  0  0  0  0  0  0  0  0  0  0
   -5.0020    2.2568    0.3746 H   0  0  0  0  0  0  0  0  0  0  0  0
   -4.4462    3.8085   -0.2918 H   0  0  0  0  0  0  0  0  0  0  0  0
   -3.7823    3.2441    1.2517 H   0  0  0  0  0  0  0  0  0  0  0  0
   -1.2206    4.8775   -1.0056 H   0  0  0  0  0  0  0  0  0  0  0  0
    0.5644    4.7834   -1.1867 H   0  0  0  0  0  0  0  0  0  0  0  0
   -0.1480    5.6155    0.2046 H   0  0  0  0  0  0  0  0  0  0  0  0
  1 10  1  0  0  0  0
  1 53  1  0  0  0  0
  2 14  1  0  0  0  0
  2 28  1  0  0  0  0
  3 16  1  0  0  0  0
  3 30  1  0  0  0  0
  4 15  1  0  0  0  0
  4 57  1  0  0  0  0
  5 18  1  0  0  0  0
  5 58  1  0  0  0  0
  6 25  1  0  0  0  0
  6 29  1  0  0  0  0
  7 28  2  0  0  0  0
  8 30  2  0  0  0  0
  9 10  1  0  0  0  0
  9 11  1  0  0  0  0
  9 15  1  0  0  0  0
  9 21  1  0  0  0  0
 10 13  1  0  0  0  0
 10 14  1  0  0  0  0
 11 12  1  0  0  0  0
 11 20  1  0  0  0  0
 11 33  1  0  0  0  0
 12 16  1  0  0  0  0
 12 18  1  0  0  0  0
 12 34  1  0  0  0  0
 13 17  1  0  0  0  0
 13 22  1  0  0  0  0
 13 23  1  0  0  0  0
 14 16  1  0  0  0  0
 14 35  1  0  0  0  0
 15 19  1  0  0  0  0
 15 36  1  0  0  0  0
 16 37  1  0  0  0  0
 17 19  1  0  0  0  0
 17 38  1  0  0  0  0
 17 39  1  0  0  0  0
 18 24  1  0  0  0  0
 18 26  1  0  0  0  0
 19 40  1  0  0  0  0
 19 41  1  0  0  0  0
 20 25  1  0  0  0  0
 20 42  1  0  0  0  0
 20 43  1  0  0  0  0
 21 44  1  0  0  0  0
 21 45  1  0  0  0  0
 21 46  1  0  0  0  0
 22 47  1  0  0  0  0
 22 48  1  0  0  0  0
 22 49  1  0  0  0  0
 23 50  1  0  0  0  0
 23 51  1  0  0  0  0
 23 52  1  0  0  0  0
 24 25  2  0  0  0  0
 24 27  1  0  0  0  0
 26 54  1  0  0  0  0
 26 55  1  0  0  0  0
 26 56  1  0  0  0  0
 27 29  2  0  0  0  0
 27 59  1  0  0  0  0
 28 31  1  0  0  0  0
 29 60  1  0  0  0  0
 30 32  1  0  0  0  0
 31 61  1  0  0  0  0
 31 62  1  0  0  0  0
 31 63  1  0  0  0  0
 32 64  1  0  0  0  0
 32 65  1  0  0  0  0
 32 66  1  0  0  0  0
M  END
> <PUBCHEM_COMPOUND_CID>
101937721

> <PUBCHEM_CONFORMER_RMSD>
0.8

> <PUBCHEM_CONFORMER_DIVERSEORDER>
1
2

> <PUBCHEM_MMFF94_PARTIAL_CHARGES>
27
1 -0.68
10 0.28
14 0.28
15 0.28
16 0.28
18 0.46
2 -0.43
20 0.18
24 -0.18
25 -0.04
27 -0.15
28 0.66
29 -0.01
3 -0.43
30 0.66
31 0.06
32 0.06
4 -0.68
5 -0.68
53 0.4
57 0.4
58 0.4
59 0.15
6 -0.28
60 0.15
7 -0.57
8 -0.57

> <PUBCHEM_EFFECTIVE_ROTOR_COUNT>
5.6

> <PUBCHEM_PHARMACOPHORE_FEATURES>
14
1 1 acceptor
1 1 donor
1 4 acceptor
1 4 donor
1 5 acceptor
1 5 donor
1 6 acceptor
1 7 acceptor
1 8 acceptor
3 13 22 23 hydrophobe
5 6 24 25 27 29 rings
6 11 12 18 20 24 25 rings
6 9 10 11 12 14 16 rings
6 9 10 13 15 17 19 rings

> <PUBCHEM_HEAVY_ATOM_COUNT>
32

> <PUBCHEM_ATOM_DEF_STEREO_COUNT>
8

> <PUBCHEM_ATOM_UDEF_STEREO_COUNT>
0

> <PUBCHEM_BOND_DEF_STEREO_COUNT>
0

> <PUBCHEM_BOND_UDEF_STEREO_COUNT>
0

> <PUBCHEM_ISOTOPIC_ATOM_COUNT>
0

> <PUBCHEM_COMPONENT_COUNT>
1

> <PUBCHEM_CACTVS_TAUTO_COUNT>
4

> <PUBCHEM_CONFORMER_ID>
0613723900000001

> <PUBCHEM_MMFF94_ENERGY>
121.1014

> <PUBCHEM_FEATURE_SELFOVERLAP>
71.172

> <PUBCHEM_SHAPE_FINGERPRINT>
10006869 2 18194401087844093163
10319926 262 18268970065751526762
10411042 1 18122064466344264694
10967382 1 17473826602741120295
1100329 8 18411140203691574928
11578080 2 16450388595395449101
12403259 226 18195806494988955515
12422481 6 18268451142959087411
12553582 1 18121783004130116740
12788726 201 18334292072399473674
13140716 1 18339077090678278425
13402501 40 18412266095256000061
138480 1 16248565436545912748
140371 6 18121778597525365060
14223421 5 17327175957984308170
14363568 33 17760385665611040520
14790565 3 18052263890568525312
14866123 147 18266739069905198530
15042514 8 18410294696692928278
16728300 4 16957301973267537562
16752209 62 18335126609755805146
16945 1 18194965377431483287
17492 89 17690843788406061122
17980427 23 17631186340824793435
19591789 44 18410294692287269187
19930381 70 17401202768773238711
20600515 1 18269573765072529556
20764821 26 18409735036442090101
20775438 99 17048189116517210391
21033648 29 18201427078339815904
2334 1 18411698807253643589
23419403 2 17631714080351070233
23559900 14 17980193407327577394
238 59 16817114201786360380
2748010 2 18413385432247092685
335352 9 18339082695727008183
3380486 145 18338816528303462099
3383291 50 17907011773495095042
350125 39 18411143541054756601
352729 6 18267021648265874342
4409770 3 18335413534966620500
484989 97 18335415820822989631
508706 21 18410853265611305614
5104073 3 18411131425463646778
59755656 215 18411983520588586807
6287921 2 17332807656863296554
70251023 43 18124304163324646991
9709674 26 18341898498119856790
9981440 41 18048031870154005506

> <PUBCHEM_SHAPE_MULTIPOLES>
611.59
7.76
5.53
1.23
7.27
3.09
0.04
-1.62
-0.15
-3.88
0.03
-0.45
-0.04
0.68

> <PUBCHEM_SHAPE_SELFOVERLAP>
1311.321

> <PUBCHEM_SHAPE_VOLUME>
333.6

> <PUBCHEM_COORDINATE_TYPE>
2
5
10

$$$$
