101933230
  -OEChem-03292013293D

 66 67  0     1  0  0  0  0  0999 V2000
    5.4943    1.7095   -1.2079 O   0  0  0  0  0  0  0  0  0  0  0  0
    1.8604    0.5368    0.7788 O   0  0  0  0  0  0  0  0  0  0  0  0
   -0.1295   -2.5858   -1.8926 O   0  0  0  0  0  0  0  0  0  0  0  0
   -6.3822    0.4220   -0.9721 O   0  0  0  0  0  0  0  0  0  0  0  0
    0.7929   -2.4681    3.3453 O   0  0  0  0  0  0  0  0  0  0  0  0
   -3.5769   -1.3005    1.5060 O   0  0  0  0  0  0  0  0  0  0  0  0
   -2.1834   -1.7579   -0.3225 N   0  0  0  0  0  0  0  0  0  0  0  0
    3.6279    2.1664    0.2975 C   0  0  1  0  0  0  0  0  0  0  0  0
    4.4845    1.0718   -0.4157 C   0  0  1  0  0  0  0  0  0  0  0  0
    2.6474    1.5795    1.3528 C   0  0  1  0  0  0  0  0  0  0  0  0
    3.7121    0.1346   -1.3380 C   0  0  0  0  0  0  0  0  0  0  0  0
    4.5412    3.2200    0.9500 C   0  0  0  0  0  0  0  0  0  0  0  0
    1.6779    2.5942    1.9934 C   0  0  0  0  0  0  0  0  0  0  0  0
    3.7923   -1.2008   -1.1655 C   0  0  0  0  0  0  0  0  0  0  0  0
    3.0890   -2.2665   -1.9636 C   0  0  0  0  0  0  0  0  0  0  0  0
    2.9164    0.7890   -2.4382 C   0  0  0  0  0  0  0  0  0  0  0  0
    0.8175    3.3011    0.9800 C   0  0  0  0  0  0  0  0  0  0  0  0
    2.4898   -3.3824   -1.0936 C   0  0  0  0  0  0  0  0  0  0  0  0
    1.4188   -2.9267   -0.1322 C   0  0  0  0  0  0  0  0  0  0  0  0
   -0.4374    2.9220    0.6933 C   0  0  0  0  0  0  0  0  0  0  0  0
    0.0878   -2.5429   -0.6838 C   0  0  0  0  0  0  0  0  0  0  0  0
    1.6259   -2.9079    1.1893 C   0  0  0  0  0  0  0  0  0  0  0  0
   -0.9831   -2.1131    0.2693 C   0  0  0  0  0  0  0  0  0  0  0  0
    0.5814   -2.4905    2.1377 C   0  0  0  0  0  0  0  0  0  0  0  0
   -0.7282   -2.0961    1.5832 C   0  0  0  0  0  0  0  0  0  0  0  0
   -1.2308    3.5377   -0.3477 C   0  0  0  0  0  0  0  0  0  0  0  0
   -4.4572   -1.0086   -0.7018 C   0  0  0  0  0  0  0  0  0  0  0  0
   -5.0767    0.3602   -0.3953 C   0  0  1  0  0  0  0  0  0  0  0  0
   -3.3640   -1.3641    0.2973 C   0  0  0  0  0  0  0  0  0  0  0  0
   -2.4357    3.1370   -0.7846 C   0  0  0  0  0  0  0  0  0  0  0  0
   -4.2536    1.4981   -0.9370 C   0  0  0  0  0  0  0  0  0  0  0  0
   -3.2288    2.0451   -0.2653 C   0  0  0  0  0  0  0  0  0  0  0  0
   -7.1898    1.3867   -0.3164 C   0  0  0  0  0  0  0  0  0  0  0  0
    3.0554    2.6876   -0.4797 H   0  0  0  0  0  0  0  0  0  0  0  0
    5.0156    0.5027    0.3580 H   0  0  0  0  0  0  0  0  0  0  0  0
    3.2382    1.1173    2.1537 H   0  0  0  0  0  0  0  0  0  0  0  0
    5.1538    2.7726    1.7399 H   0  0  0  0  0  0  0  0  0  0  0  0
    3.9629    4.0383    1.3882 H   0  0  0  0  0  0  0  0  0  0  0  0
    5.2135    3.6783    0.2176 H   0  0  0  0  0  0  0  0  0  0  0  0
    2.2229    3.3409    2.5803 H   0  0  0  0  0  0  0  0  0  0  0  0
    1.0325    2.0645    2.7068 H   0  0  0  0  0  0  0  0  0  0  0  0
    4.4319   -1.5760   -0.3678 H   0  0  0  0  0  0  0  0  0  0  0  0
    2.3019   -1.8489   -2.5971 H   0  0  0  0  0  0  0  0  0  0  0  0
    3.8262   -2.7203   -2.6376 H   0  0  0  0  0  0  0  0  0  0  0  0
    1.9701    1.1754   -2.0473 H   0  0  0  0  0  0  0  0  0  0  0  0
    2.6925    0.1111   -3.2655 H   0  0  0  0  0  0  0  0  0  0  0  0
    3.4740    1.6241   -2.8752 H   0  0  0  0  0  0  0  0  0  0  0  0
    6.0615    1.0127   -1.5806 H   0  0  0  0  0  0  0  0  0  0  0  0
    1.3030    0.1659    1.4834 H   0  0  0  0  0  0  0  0  0  0  0  0
    3.3019   -3.8800   -0.5460 H   0  0  0  0  0  0  0  0  0  0  0  0
    2.0687   -4.1547   -1.7505 H   0  0  0  0  0  0  0  0  0  0  0  0
    1.2733    4.1302    0.4441 H   0  0  0  0  0  0  0  0  0  0  0  0
   -0.8591    2.0771    1.2288 H   0  0  0  0  0  0  0  0  0  0  0  0
    2.5812   -3.1980    1.6149 H   0  0  0  0  0  0  0  0  0  0  0  0
   -1.4551   -1.7897    2.3244 H   0  0  0  0  0  0  0  0  0  0  0  0
   -0.7736    4.3828   -0.8602 H   0  0  0  0  0  0  0  0  0  0  0  0
   -5.2217   -1.7924   -0.6264 H   0  0  0  0  0  0  0  0  0  0  0  0
   -4.0919   -1.0436   -1.7350 H   0  0  0  0  0  0  0  0  0  0  0  0
   -5.1753    0.4655    0.6938 H   0  0  0  0  0  0  0  0  0  0  0  0
   -2.1838   -1.8048   -1.3389 H   0  0  0  0  0  0  0  0  0  0  0  0
   -4.5027    1.8628   -1.9315 H   0  0  0  0  0  0  0  0  0  0  0  0
   -2.8651    3.6791   -1.6259 H   0  0  0  0  0  0  0  0  0  0  0  0
   -2.9739    1.6492    0.7128 H   0  0  0  0  0  0  0  0  0  0  0  0
   -8.1702    1.3939   -0.8012 H   0  0  0  0  0  0  0  0  0  0  0  0
   -6.7639    2.3912   -0.3983 H   0  0  0  0  0  0  0  0  0  0  0  0
   -7.3341    1.1215    0.7358 H   0  0  0  0  0  0  0  0  0  0  0  0
  1  9  1  0  0  0  0
  1 48  1  0  0  0  0
  2 10  1  0  0  0  0
  2 49  1  0  0  0  0
  3 21  2  0  0  0  0
  4 28  1  0  0  0  0
  4 33  1  0  0  0  0
  5 24  2  0  0  0  0
  6 29  2  0  0  0  0
  7 23  1  0  0  0  0
  7 29  1  0  0  0  0
  7 60  1  0  0  0  0
  8  9  1  0  0  0  0
  8 10  1  0  0  0  0
  8 12  1  0  0  0  0
  8 34  1  0  0  0  0
  9 11  1  0  0  0  0
  9 35  1  0  0  0  0
 10 13  1  0  0  0  0
 10 36  1  0  0  0  0
 11 14  2  0  0  0  0
 11 16  1  0  0  0  0
 12 37  1  0  0  0  0
 12 38  1  0  0  0  0
 12 39  1  0  0  0  0
 13 17  1  0  0  0  0
 13 40  1  0  0  0  0
 13 41  1  0  0  0  0
 14 15  1  0  0  0  0
 14 42  1  0  0  0  0
 15 18  1  0  0  0  0
 15 43  1  0  0  0  0
 15 44  1  0  0  0  0
 16 45  1  0  0  0  0
 16 46  1  0  0  0  0
 16 47  1  0  0  0  0
 17 20  2  0  0  0  0
 17 52  1  0  0  0  0
 18 19  1  0  0  0  0
 18 50  1  0  0  0  0
 18 51  1  0  0  0  0
 19 21  1  0  0  0  0
 19 22  2  0  0  0  0
 20 26  1  0  0  0  0
 20 53  1  0  0  0  0
 21 23  1  0  0  0  0
 22 24  1  0  0  0  0
 22 54  1  0  0  0  0
 23 25  2  0  0  0  0
 24 25  1  0  0  0  0
 25 55  1  0  0  0  0
 26 30  2  0  0  0  0
 26 56  1  0  0  0  0
 27 28  1  0  0  0  0
 27 29  1  0  0  0  0
 27 57  1  0  0  0  0
 27 58  1  0  0  0  0
 28 31  1  0  0  0  0
 28 59  1  0  0  0  0
 30 32  1  0  0  0  0
 30 62  1  0  0  0  0
 31 32  2  0  0  0  0
 31 61  1  0  0  0  0
 32 63  1  0  0  0  0
 33 64  1  0  0  0  0
 33 65  1  0  0  0  0
 33 66  1  0  0  0  0
M  END
> <PUBCHEM_COMPOUND_CID>
101933230

> <PUBCHEM_CONFORMER_RMSD>
0.8

> <PUBCHEM_CONFORMER_DIVERSEORDER>
1
25
37
82
86
44
53
58
41
59
55
68
120
62
116
17
22
115
89
5
109
30
117
103
20
64
69
98
24
42
97
56
8
112
67
77
65
80
101
16
96
100
51
90
31
50
47
52
27
74
35
102
76
7
118
106
70
2
104
21
94
36
9
73
111
71
54
19
108
60
32
34
85
114
99
107
61
113
81
43
87
66
13
3
10
95
45
23
6
72
49
38
110
40
11
57
14
12
75
119
48
18
33
28
92
15
4
63
46
83
91
39
84
79
93
105
26
78
88
29

> <PUBCHEM_MMFF94_PARTIAL_CHARGES>
43
1 -0.68
10 0.28
11 -0.28
13 0.14
14 -0.29
15 0.14
16 0.14
17 -0.29
18 0.14
19 -0.12
2 -0.68
20 -0.15
21 0.54
22 -0.14
23 0.12
24 0.54
25 -0.14
26 -0.15
27 0.06
28 0.42
29 0.57
3 -0.57
30 -0.15
31 -0.29
32 -0.15
33 0.28
4 -0.56
42 0.15
48 0.4
49 0.4
5 -0.57
52 0.15
53 0.15
54 0.15
55 0.15
56 0.15
6 -0.57
60 0.37
61 0.15
62 0.15
63 0.15
7 -0.54
9 0.42

> <PUBCHEM_EFFECTIVE_ROTOR_COUNT>
2.8

> <PUBCHEM_PHARMACOPHORE_FEATURES>
10
1 1 acceptor
1 1 donor
1 2 acceptor
1 2 donor
1 3 acceptor
1 4 acceptor
1 5 acceptor
1 6 acceptor
1 7 donor
6 19 21 22 23 24 25 rings

> <PUBCHEM_HEAVY_ATOM_COUNT>
33

> <PUBCHEM_ATOM_DEF_STEREO_COUNT>
0

> <PUBCHEM_ATOM_UDEF_STEREO_COUNT>
4

> <PUBCHEM_BOND_DEF_STEREO_COUNT>
4

> <PUBCHEM_BOND_UDEF_STEREO_COUNT>
0

> <PUBCHEM_ISOTOPIC_ATOM_COUNT>
0

> <PUBCHEM_COMPONENT_COUNT>
1

> <PUBCHEM_CACTVS_TAUTO_COUNT>
308

> <PUBCHEM_CONFORMER_ID>
061360AE00000001

> <PUBCHEM_MMFF94_ENERGY>
71.5553

> <PUBCHEM_FEATURE_SELFOVERLAP>
50.751

> <PUBCHEM_SHAPE_FINGERPRINT>
10675989 125 18412829096681094064
10816530 90 18195521494661973657
11513181 2 17621881315341675037
11578080 2 17242426367100066007
12156800 1 15186490470726073564
12788726 201 18336273426781204728
13402501 40 18342457100954470660
13617811 41 18113898256847601533
14251757 17 18272938219235456824
14739800 52 18114736049646179179
14931854 50 18267032656483475620
15975801 100 17604992508060423380
17093844 170 18411138086652486796
17909252 39 17987519195705956222
20764821 26 18198354952541497120
238918 7 18128238172873551568
3298306 158 18410850001557245861
444735 86 18269819970231954317
463206 1 17692544308087593896
50677037 204 14593779245528551017
513532 50 17703777128855116731
5265222 85 18191305099065741845
57527573 199 18190733327348954912
5776283 40 18268438013176303428
5895379 119 17763740988320100843

> <PUBCHEM_SHAPE_MULTIPOLES>
638.93
11.37
5.45
2.16
15.12
0.77
-0.79
5.99
4.77
-2.87
-1.11
-1.76
-1.13
1.71

> <PUBCHEM_SHAPE_SELFOVERLAP>
1305.474

> <PUBCHEM_SHAPE_VOLUME>
363.9

> <PUBCHEM_COORDINATE_TYPE>
2
5
10

$$$$
