101967036
  -OEChem-03292013293D

 52 54  0     1  0  0  0  0  0999 V2000
   -2.0307    0.7006   -0.9660 O   0  0  0  0  0  0  0  0  0  0  0  0
    1.9935    0.4104    0.2896 O   0  0  0  0  0  0  0  0  0  0  0  0
   -4.3168    0.5440   -0.8851 O   0  0  0  0  0  0  0  0  0  0  0  0
    0.3255   -2.5534    0.9880 O   0  0  0  0  0  0  0  0  0  0  0  0
   -2.3805    0.9042    2.1666 O   0  0  0  0  0  0  0  0  0  0  0  0
    1.9928   -3.8757    0.1330 O   0  0  0  0  0  0  0  0  0  0  0  0
    3.0106    2.1138   -0.8866 O   0  0  0  0  0  0  0  0  0  0  0  0
   -1.4174    1.9244   -0.5577 C   0  0  1  0  0  0  0  0  0  0  0  0
   -2.4068    2.5666    0.4250 C   0  0  0  0  0  0  0  0  0  0  0  0
   -0.0532    1.6288    0.1000 C   0  0  0  0  0  0  0  0  0  0  0  0
   -3.1220    0.3576   -0.1082 C   0  0  2  0  0  0  0  0  0  0  0  0
   -3.1176    1.3705    1.0460 C   0  0  1  0  0  0  0  0  0  0  0  0
    0.8306    0.5336   -0.5424 C   0  0  2  0  0  0  0  0  0  0  0  0
    0.1811   -0.8689   -0.7031 C   0  0  2  0  0  0  0  0  0  0  0  0
   -0.4609   -1.4002    0.5846 C   0  0  1  0  0  0  0  0  0  0  0  0
   -1.2254    2.7859   -1.8056 C   0  0  0  0  0  0  0  0  0  0  0  0
   -3.0327   -1.1131    0.2975 C   0  0  0  0  0  0  0  0  0  0  0  0
   -1.9089   -1.8350    0.5193 C   0  0  0  0  0  0  0  0  0  0  0  0
    1.1647   -1.9415   -1.0368 C   0  0  0  0  0  0  0  0  0  0  0  0
   -4.3657   -1.8071    0.4885 C   0  0  0  0  0  0  0  0  0  0  0  0
    1.2445   -2.9179    0.0569 C   0  0  0  0  0  0  0  0  0  0  0  0
    1.8877   -2.0732   -2.1524 C   0  0  0  0  0  0  0  0  0  0  0  0
    3.0127    1.2707    0.0009 C   0  0  0  0  0  0  0  0  0  0  0  0
    4.1698    1.0138    0.9501 C   0  0  0  0  0  0  0  0  0  0  0  0
    5.0944   -0.0442    0.3598 C   0  0  0  0  0  0  0  0  0  0  0  0
    4.9308    2.3054    1.2381 C   0  0  0  0  0  0  0  0  0  0  0  0
   -3.1459    3.1655   -0.1217 H   0  0  0  0  0  0  0  0  0  0  0  0
   -1.9128    3.2167    1.1541 H   0  0  0  0  0  0  0  0  0  0  0  0
   -0.1892    1.3723    1.1557 H   0  0  0  0  0  0  0  0  0  0  0  0
    0.5186    2.5659    0.1542 H   0  0  0  0  0  0  0  0  0  0  0  0
   -4.1268    1.6267    1.3852 H   0  0  0  0  0  0  0  0  0  0  0  0
    1.1248    0.8598   -1.5488 H   0  0  0  0  0  0  0  0  0  0  0  0
   -0.5425   -0.8444   -1.5240 H   0  0  0  0  0  0  0  0  0  0  0  0
   -0.3624   -0.7054    1.4217 H   0  0  0  0  0  0  0  0  0  0  0  0
   -2.1809    2.9504   -2.3170 H   0  0  0  0  0  0  0  0  0  0  0  0
   -0.5748    2.2879   -2.5327 H   0  0  0  0  0  0  0  0  0  0  0  0
   -0.7926    3.7607   -1.5593 H   0  0  0  0  0  0  0  0  0  0  0  0
   -2.0539   -2.8820    0.7908 H   0  0  0  0  0  0  0  0  0  0  0  0
   -4.3467   -0.1519   -1.5631 H   0  0  0  0  0  0  0  0  0  0  0  0
   -2.3662    1.6189    2.8257 H   0  0  0  0  0  0  0  0  0  0  0  0
   -4.2625   -2.7854    0.9708 H   0  0  0  0  0  0  0  0  0  0  0  0
   -4.8641   -1.9705   -0.4720 H   0  0  0  0  0  0  0  0  0  0  0  0
   -5.0185   -1.2053    1.1301 H   0  0  0  0  0  0  0  0  0  0  0  0
    1.8068   -1.3452   -2.9528 H   0  0  0  0  0  0  0  0  0  0  0  0
    2.5732   -2.9011   -2.2978 H   0  0  0  0  0  0  0  0  0  0  0  0
    3.7600    0.6529    1.9018 H   0  0  0  0  0  0  0  0  0  0  0  0
    5.3902    2.7115    0.3301 H   0  0  0  0  0  0  0  0  0  0  0  0
    5.5131    0.2833   -0.5983 H   0  0  0  0  0  0  0  0  0  0  0  0
    5.7246    2.1340    1.9726 H   0  0  0  0  0  0  0  0  0  0  0  0
    4.5509   -0.9778    0.1773 H   0  0  0  0  0  0  0  0  0  0  0  0
    5.9241   -0.2629    1.0397 H   0  0  0  0  0  0  0  0  0  0  0  0
    4.2572    3.0712    1.6379 H   0  0  0  0  0  0  0  0  0  0  0  0
  1  8  1  0  0  0  0
  1 11  1  0  0  0  0
  2 13  1  0  0  0  0
  2 23  1  0  0  0  0
  3 11  1  0  0  0  0
  3 39  1  0  0  0  0
  4 15  1  0  0  0  0
  4 21  1  0  0  0  0
  5 12  1  0  0  0  0
  5 40  1  0  0  0  0
  6 21  2  0  0  0  0
  7 23  2  0  0  0  0
  8  9  1  0  0  0  0
  8 10  1  0  0  0  0
  8 16  1  0  0  0  0
  9 12  1  0  0  0  0
  9 27  1  0  0  0  0
  9 28  1  0  0  0  0
 10 13  1  0  0  0  0
 10 29  1  0  0  0  0
 10 30  1  0  0  0  0
 11 12  1  0  0  0  0
 11 17  1  0  0  0  0
 12 31  1  0  0  0  0
 13 14  1  0  0  0  0
 13 32  1  0  0  0  0
 14 15  1  0  0  0  0
 14 19  1  0  0  0  0
 14 33  1  0  0  0  0
 15 18  1  0  0  0  0
 15 34  1  0  0  0  0
 16 35  1  0  0  0  0
 16 36  1  0  0  0  0
 16 37  1  0  0  0  0
 17 18  2  0  0  0  0
 17 20  1  0  0  0  0
 18 38  1  0  0  0  0
 19 21  1  0  0  0  0
 19 22  2  0  0  0  0
 20 41  1  0  0  0  0
 20 42  1  0  0  0  0
 20 43  1  0  0  0  0
 22 44  1  0  0  0  0
 22 45  1  0  0  0  0
 23 24  1  0  0  0  0
 24 25  1  0  0  0  0
 24 26  1  0  0  0  0
 24 46  1  0  0  0  0
 25 48  1  0  0  0  0
 25 50  1  0  0  0  0
 25 51  1  0  0  0  0
 26 47  1  0  0  0  0
 26 49  1  0  0  0  0
 26 52  1  0  0  0  0
M  END
> <PUBCHEM_COMPOUND_CID>
101967036

> <PUBCHEM_CONFORMER_RMSD>
0.8

> <PUBCHEM_CONFORMER_DIVERSEORDER>
1
6
5
7
2
3
4

> <PUBCHEM_MMFF94_PARTIAL_CHARGES>
26
1 -0.56
11 0.7
12 0.28
13 0.28
14 0.14
15 0.42
17 -0.28
18 -0.29
19 -0.12
2 -0.43
20 0.14
21 0.71
22 -0.3
23 0.66
24 0.06
3 -0.68
38 0.15
39 0.4
4 -0.43
40 0.4
44 0.15
45 0.15
5 -0.68
6 -0.57
7 -0.57
8 0.28

> <PUBCHEM_EFFECTIVE_ROTOR_COUNT>
4.2

> <PUBCHEM_PHARMACOPHORE_FEATURES>
10
1 1 acceptor
1 3 acceptor
1 3 donor
1 5 acceptor
1 5 donor
1 6 acceptor
1 7 acceptor
3 24 25 26 hydrophobe
5 1 8 9 11 12 rings
5 4 14 15 19 21 rings

> <PUBCHEM_HEAVY_ATOM_COUNT>
26

> <PUBCHEM_ATOM_DEF_STEREO_COUNT>
6

> <PUBCHEM_ATOM_UDEF_STEREO_COUNT>
0

> <PUBCHEM_BOND_DEF_STEREO_COUNT>
1

> <PUBCHEM_BOND_UDEF_STEREO_COUNT>
0

> <PUBCHEM_ISOTOPIC_ATOM_COUNT>
0

> <PUBCHEM_COMPONENT_COUNT>
1

> <PUBCHEM_CACTVS_TAUTO_COUNT>
2

> <PUBCHEM_CONFORMER_ID>
0613E4BC00000001

> <PUBCHEM_MMFF94_ENERGY>
76.4089

> <PUBCHEM_FEATURE_SELFOVERLAP>
50.8

> <PUBCHEM_SHAPE_FINGERPRINT>
10863032 1 17702961240173035097
10906281 52 18189634898089711081
1100329 8 17762056936302063083
11132069 177 18409449214879464900
11578080 2 16953083215913253758
12633257 1 18191015699736343538
12788726 201 17689437513476630318
12839892 36 18337379513634483634
13140716 1 17907305703907735755
13544592 271 18336266850948546907
14142880 1 18413670227624329121
14178342 30 18338530685176595753
14223421 5 18337108951895202847
14251764 3 17560506417660366642
14787075 74 17701817915309773953
15840311 113 17983873186044225785
16728300 4 17678429022312255610
16945 1 18046352929247717959
17349148 13 18261677076899079359
19591789 44 18337951319715445426
20028762 73 17912366738429454975
20691752 17 18041860427631159019
20905425 154 18411702041148006126
21033648 29 17987498447172994392
21524375 3 18271804653138888982
22182313 1 18335433343994294287
2334 1 18336560360534702511
23402539 116 18267295620241044383
23559900 14 18336826364717388326
2748010 2 18263662726659673631
392239 28 17987523778409538553
4340502 62 18270691866020948185
5265222 85 18268716177360261612
57527585 103 17532961456730805515
59554788 191 17971468752823438661
59554788 62 18260834778542416925
59755656 215 18338796698123192108
9862522 239 18337652162585178492
9925002 15 16835718453993029255
9981440 41 18409163350519999059

> <PUBCHEM_SHAPE_MULTIPOLES>
493.98
7.98
3.84
1.46
4.97
1.75
0.28
-2.95
-2.47
0.93
0.32
0.04
-0.23
1.17

> <PUBCHEM_SHAPE_SELFOVERLAP>
1044.273

> <PUBCHEM_SHAPE_VOLUME>
275.5

> <PUBCHEM_COORDINATE_TYPE>
2
5
10

$$$$
