101917122
  -OEChem-03292013293D

 72 75  0     1  0  0  0  0  0999 V2000
   -1.1451   -0.0551    3.0089 O   0  0  0  0  0  0  0  0  0  0  0  0
    1.9203    1.7572   -0.3032 O   0  0  0  0  0  0  0  0  0  0  0  0
   -0.0410    4.2986   -0.1990 O   0  0  0  0  0  0  0  0  0  0  0  0
   -7.3306   -0.2277   -1.2896 O   0  0  0  0  0  0  0  0  0  0  0  0
    4.1485    2.0585    0.2141 O   0  0  0  0  0  0  0  0  0  0  0  0
   -8.6935   -1.4306    0.1214 O   0  0  0  0  0  0  0  0  0  0  0  0
    7.9155   -2.1542    1.2445 O   0  0  0  0  0  0  0  0  0  0  0  0
   -1.5977   -1.1214   -0.5045 C   0  0  2  0  0  0  0  0  0  0  0  0
   -1.4185   -2.0183    0.7735 C   0  0  2  0  0  0  0  0  0  0  0  0
   -1.1518    0.3469   -0.2586 C   0  0  0  0  0  0  0  0  0  0  0  0
   -0.5021    0.7659    0.8587 C   0  0  0  0  0  0  0  0  0  0  0  0
   -0.1340   -1.6615    1.5246 C   0  0  0  0  0  0  0  0  0  0  0  0
    0.0054    2.2137    1.0510 C   0  0  2  0  0  0  0  0  0  0  0  0
   -0.1704   -0.2060    1.9757 C   0  0  2  0  0  0  0  0  0  0  0  0
   -3.1007   -1.1723   -0.8830 C   0  0  0  0  0  0  0  0  0  0  0  0
   -1.4309    1.3400   -1.3710 C   0  0  0  0  0  0  0  0  0  0  0  0
   -0.7775   -1.6730   -1.6932 C   0  0  0  0  0  0  0  0  0  0  0  0
   -1.7031    2.7312   -0.8365 C   0  0  0  0  0  0  0  0  0  0  0  0
   -0.5157    3.1727   -0.0345 C   0  0  0  0  0  0  0  0  0  0  0  0
   -1.4422   -3.5331    0.5190 C   0  0  0  0  0  0  0  0  0  0  0  0
    1.5451    2.2459    0.9660 C   0  0  0  0  0  0  0  0  0  0  0  0
   -3.9432   -0.5527    0.2158 C   0  0  0  0  0  0  0  0  0  0  0  0
   -0.4574    2.8131    2.3908 C   0  0  0  0  0  0  0  0  0  0  0  0
   -5.3929   -0.6093   -0.1318 C   0  0  0  0  0  0  0  0  0  0  0  0
   -5.9315    0.0734   -1.3257 C   0  0  0  0  0  0  0  0  0  0  0  0
   -6.3543   -1.2414    0.5359 C   0  0  0  0  0  0  0  0  0  0  0  0
    3.2699    1.7117   -0.5632 C   0  0  0  0  0  0  0  0  0  0  0  0
   -7.5980   -1.0022   -0.1980 C   0  0  0  0  0  0  0  0  0  0  0  0
    3.5014    1.1663   -1.9540 C   0  0  0  0  0  0  0  0  0  0  0  0
    3.6118   -0.3580   -1.9583 C   0  0  0  0  0  0  0  0  0  0  0  0
    4.7581   -0.8367   -1.1057 C   0  0  0  0  0  0  0  0  0  0  0  0
    6.0242   -1.0022   -1.6674 C   0  0  0  0  0  0  0  0  0  0  0  0
    4.5532   -1.1142    0.2459 C   0  0  0  0  0  0  0  0  0  0  0  0
    7.0851   -1.4453   -0.8778 C   0  0  0  0  0  0  0  0  0  0  0  0
    5.6140   -1.5573    1.0356 C   0  0  0  0  0  0  0  0  0  0  0  0
    6.8799   -1.7228    0.4737 C   0  0  0  0  0  0  0  0  0  0  0  0
   -2.2108   -1.8492    1.5014 H   0  0  0  0  0  0  0  0  0  0  0  0
    0.7426   -1.8356    0.8881 H   0  0  0  0  0  0  0  0  0  0  0  0
   -0.0283   -2.3123    2.4021 H   0  0  0  0  0  0  0  0  0  0  0  0
    0.8035    0.0230    2.4169 H   0  0  0  0  0  0  0  0  0  0  0  0
   -3.4149   -2.2123   -1.0400 H   0  0  0  0  0  0  0  0  0  0  0  0
   -3.2821   -0.6874   -1.8475 H   0  0  0  0  0  0  0  0  0  0  0  0
   -0.5668    1.3536   -2.0480 H   0  0  0  0  0  0  0  0  0  0  0  0
   -2.2937    1.0604   -1.9769 H   0  0  0  0  0  0  0  0  0  0  0  0
   -1.1067   -2.6761   -1.9844 H   0  0  0  0  0  0  0  0  0  0  0  0
    0.2903   -1.7229   -1.4551 H   0  0  0  0  0  0  0  0  0  0  0  0
   -0.8840   -1.0473   -2.5868 H   0  0  0  0  0  0  0  0  0  0  0  0
   -2.5931    2.7615   -0.1988 H   0  0  0  0  0  0  0  0  0  0  0  0
   -1.8545    3.4277   -1.6681 H   0  0  0  0  0  0  0  0  0  0  0  0
   -1.4227   -4.0779    1.4701 H   0  0  0  0  0  0  0  0  0  0  0  0
   -0.5717   -3.8635   -0.0567 H   0  0  0  0  0  0  0  0  0  0  0  0
   -2.3477   -3.8435   -0.0090 H   0  0  0  0  0  0  0  0  0  0  0  0
    2.0106    1.6411    1.7519 H   0  0  0  0  0  0  0  0  0  0  0  0
    1.9174    3.2724    1.0804 H   0  0  0  0  0  0  0  0  0  0  0  0
   -3.6875    0.5003    0.3748 H   0  0  0  0  0  0  0  0  0  0  0  0
   -3.8416   -1.0433    1.1838 H   0  0  0  0  0  0  0  0  0  0  0  0
   -0.1934    3.8749    2.4673 H   0  0  0  0  0  0  0  0  0  0  0  0
    0.0050    2.3091    3.2462 H   0  0  0  0  0  0  0  0  0  0  0  0
   -1.5463    2.7452    2.4999 H   0  0  0  0  0  0  0  0  0  0  0  0
   -0.8955   -0.6480    3.7380 H   0  0  0  0  0  0  0  0  0  0  0  0
   -5.7990    1.1583   -1.2791 H   0  0  0  0  0  0  0  0  0  0  0  0
   -5.5208   -0.3126   -2.2622 H   0  0  0  0  0  0  0  0  0  0  0  0
   -6.2703   -1.8222    1.4381 H   0  0  0  0  0  0  0  0  0  0  0  0
    4.4133    1.6321   -2.3468 H   0  0  0  0  0  0  0  0  0  0  0  0
    2.6841    1.4932   -2.6074 H   0  0  0  0  0  0  0  0  0  0  0  0
    2.6774   -0.8045   -1.5955 H   0  0  0  0  0  0  0  0  0  0  0  0
    3.7394   -0.7156   -2.9873 H   0  0  0  0  0  0  0  0  0  0  0  0
    6.1965   -0.7873   -2.7187 H   0  0  0  0  0  0  0  0  0  0  0  0
    3.5710   -0.9951    0.6961 H   0  0  0  0  0  0  0  0  0  0  0  0
    8.0692   -1.5717   -1.3209 H   0  0  0  0  0  0  0  0  0  0  0  0
    5.4409   -1.7708    2.0869 H   0  0  0  0  0  0  0  0  0  0  0  0
    7.5949   -2.2968    2.1517 H   0  0  0  0  0  0  0  0  0  0  0  0
  1 14  1  0  0  0  0
  1 60  1  0  0  0  0
  2 21  1  0  0  0  0
  2 27  1  0  0  0  0
  3 19  2  0  0  0  0
  4 25  1  0  0  0  0
  4 28  1  0  0  0  0
  5 27  2  0  0  0  0
  6 28  2  0  0  0  0
  7 36  1  0  0  0  0
  7 72  1  0  0  0  0
  8  9  1  0  0  0  0
  8 10  1  0  0  0  0
  8 15  1  0  0  0  0
  8 17  1  0  0  0  0
  9 12  1  0  0  0  0
  9 20  1  0  0  0  0
  9 37  1  0  0  0  0
 10 11  2  0  0  0  0
 10 16  1  0  0  0  0
 11 13  1  0  0  0  0
 11 14  1  0  0  0  0
 12 14  1  0  0  0  0
 12 38  1  0  0  0  0
 12 39  1  0  0  0  0
 13 19  1  0  0  0  0
 13 21  1  0  0  0  0
 13 23  1  0  0  0  0
 14 40  1  0  0  0  0
 15 22  1  0  0  0  0
 15 41  1  0  0  0  0
 15 42  1  0  0  0  0
 16 18  1  0  0  0  0
 16 43  1  0  0  0  0
 16 44  1  0  0  0  0
 17 45  1  0  0  0  0
 17 46  1  0  0  0  0
 17 47  1  0  0  0  0
 18 19  1  0  0  0  0
 18 48  1  0  0  0  0
 18 49  1  0  0  0  0
 20 50  1  0  0  0  0
 20 51  1  0  0  0  0
 20 52  1  0  0  0  0
 21 53  1  0  0  0  0
 21 54  1  0  0  0  0
 22 24  1  0  0  0  0
 22 55  1  0  0  0  0
 22 56  1  0  0  0  0
 23 57  1  0  0  0  0
 23 58  1  0  0  0  0
 23 59  1  0  0  0  0
 24 25  1  0  0  0  0
 24 26  2  0  0  0  0
 25 61  1  0  0  0  0
 25 62  1  0  0  0  0
 26 28  1  0  0  0  0
 26 63  1  0  0  0  0
 27 29  1  0  0  0  0
 29 30  1  0  0  0  0
 29 64  1  0  0  0  0
 29 65  1  0  0  0  0
 30 31  1  0  0  0  0
 30 66  1  0  0  0  0
 30 67  1  0  0  0  0
 31 32  2  0  0  0  0
 31 33  1  0  0  0  0
 32 34  1  0  0  0  0
 32 68  1  0  0  0  0
 33 35  2  0  0  0  0
 33 69  1  0  0  0  0
 34 36  2  0  0  0  0
 34 70  1  0  0  0  0
 35 36  1  0  0  0  0
 35 71  1  0  0  0  0
M  END
> <PUBCHEM_COMPOUND_CID>
101917122

> <PUBCHEM_CONFORMER_RMSD>
1.2

> <PUBCHEM_CONFORMER_DIVERSEORDER>
3
61
38
70
7
32
64
44
57
45
83
14
73
28
68
82
71
25
31
85
37
51
43
56
15
35
9
46
75
40
49
78
66
63
42
55
2
54
5
36
58
84
77
23
16
29
72
53
48
76
21
47
88
22
69
50
4
87
80
52
19
27
24
41
30
6
74
86
67
20
12
60
39
11
59
79
18
26
13
81
34
8
62
65
17
33
1
10

> <PUBCHEM_MMFF94_PARTIAL_CHARGES>
37
1 -0.68
10 -0.28
11 -0.28
13 0.2
14 0.42
16 0.14
18 0.06
19 0.45
2 -0.43
21 0.28
22 0.14
24 -0.28
25 0.42
26 -0.14
27 0.66
28 0.71
29 0.06
3 -0.57
30 0.14
31 -0.14
32 -0.15
33 -0.15
34 -0.15
35 -0.15
36 0.08
4 -0.43
5 -0.57
6 -0.57
60 0.4
63 0.15
68 0.15
69 0.15
7 -0.53
70 0.15
71 0.15
72 0.45
8 0.14

> <PUBCHEM_EFFECTIVE_ROTOR_COUNT>
10.8

> <PUBCHEM_PHARMACOPHORE_FEATURES>
10
1 1 acceptor
1 1 donor
1 3 acceptor
1 5 acceptor
1 6 acceptor
1 7 donor
5 4 24 25 26 28 rings
6 10 11 13 16 18 19 rings
6 31 32 33 34 35 36 rings
6 8 9 10 11 12 14 rings

> <PUBCHEM_HEAVY_ATOM_COUNT>
36

> <PUBCHEM_ATOM_DEF_STEREO_COUNT>
4

> <PUBCHEM_ATOM_UDEF_STEREO_COUNT>
0

> <PUBCHEM_BOND_DEF_STEREO_COUNT>
0

> <PUBCHEM_BOND_UDEF_STEREO_COUNT>
0

> <PUBCHEM_ISOTOPIC_ATOM_COUNT>
0

> <PUBCHEM_COMPONENT_COUNT>
1

> <PUBCHEM_CACTVS_TAUTO_COUNT>
26

> <PUBCHEM_CONFORMER_ID>
061321C200000003

> <PUBCHEM_MMFF94_ENERGY>
81.0901

> <PUBCHEM_FEATURE_SELFOVERLAP>
50.763

> <PUBCHEM_SHAPE_FINGERPRINT>
10483366 6 18334294241146707825
10930396 42 18130488783255777994
11297750 10 18341602712196720864
11456790 92 18341345448471793323
11720765 8 18269275823466591033
11828532 37 18261400012991600619
12107698 1 18408322168822515798
12788726 201 18336826377528489306
13004483 165 18202284727595843852
13383668 40 18130496518470915536
13560911 43 18408040702599471276
13782708 43 18119256301415975771
14068700 675 18409167684674782476
14068700 686 8718291034588826715
1454969 45 8430320125974591811
14725015 67 18411131416604894002
15183329 4 18130516313863749831
16728300 4 18119798128541004086
16994733 274 14779540154639969623
17852330 162 17968097543273846948
20554085 129 10665228129057147330
21781051 124 17749113326627452939
23559900 14 18261393420585527420
24893992 56 18410578414592503515
3004659 81 18334015008285415718
3027735 51 18269562637065784998
3383291 50 18343018882756266046
3729539 64 18260830375678991515
463206 1 18341327907287870390
469060 322 18270979941976712034
57527295 17 17554889141693073221
6523845 18 11458414757232094798
9862260 156 18343300388176776211

> <PUBCHEM_SHAPE_MULTIPOLES>
699.78
18.3
3.66
1.99
4.2
2.73
-0.55
-15.55
3.92
-0.86
-0.78
-0.83
0.21
-0.36

> <PUBCHEM_SHAPE_SELFOVERLAP>
1493.292

> <PUBCHEM_SHAPE_VOLUME>
385.1

> <PUBCHEM_COORDINATE_TYPE>
2
5
10

$$$$
