101967125
  -OEChem-03292013293D

 39 40  0     1  0  0  0  0  0999 V2000
   -1.7134   -1.4747    1.1430 S   0  0  2  0  0  0  0  0  0  0  0  0
    2.9112   -0.5038   -1.8847 O   0  0  0  0  0  0  0  0  0  0  0  0
    1.6252   -3.5514   -0.9965 O   0  0  0  0  0  0  0  0  0  0  0  0
   -2.1602   -0.9578    2.4843 O   0  0  0  0  0  0  0  0  0  0  0  0
    5.2734    2.8619   -0.8012 O   0  0  0  0  0  0  0  0  0  0  0  0
   -0.5309   -2.9012   -1.3948 O   0  0  0  0  0  0  0  0  0  0  0  0
   -6.2441    1.2660    0.4003 O   0  0  0  0  0  0  0  0  0  0  0  0
    2.1064   -1.2087    0.2363 N   0  0  0  0  0  0  0  0  0  0  0  0
   -4.2162    1.0049   -0.7224 N   0  0  0  0  0  0  0  0  0  0  0  0
    2.1727   -0.2156    1.3253 C   0  0  2  0  0  0  0  0  0  0  0  0
    0.7129   -0.0111    1.7468 C   0  0  0  0  0  0  0  0  0  0  0  0
    2.8297    0.6732    0.2918 C   0  0  0  0  0  0  0  0  0  0  0  0
    2.6979   -0.4046   -0.6936 C   0  0  0  0  0  0  0  0  0  0  0  0
    0.8379   -1.7156    0.1450 C   0  0  0  0  0  0  0  0  0  0  0  0
    0.0008   -1.1020    0.9905 C   0  0  0  0  0  0  0  0  0  0  0  0
    3.3230    1.9058    0.2475 C   0  0  0  0  0  0  0  0  0  0  0  0
    0.5407   -2.7633   -0.8259 C   0  0  0  0  0  0  0  0  0  0  0  0
    3.9107    2.5211   -1.0155 C   0  0  0  0  0  0  0  0  0  0  0  0
    3.3352    2.8391    1.4495 C   0  0  0  0  0  0  0  0  0  0  0  0
   -2.3880   -0.3445   -0.0643 C   0  0  0  0  0  0  0  0  0  0  0  0
   -3.6202    0.1342    0.1382 C   0  0  0  0  0  0  0  0  0  0  0  0
   -5.4921    1.5177   -0.5386 C   0  0  0  0  0  0  0  0  0  0  0  0
   -5.9126    2.4302   -1.6609 C   0  0  0  0  0  0  0  0  0  0  0  0
    2.8177   -0.5579    2.1445 H   0  0  0  0  0  0  0  0  0  0  0  0
    0.3347    0.9781    1.4681 H   0  0  0  0  0  0  0  0  0  0  0  0
    0.6007   -0.1483    2.8272 H   0  0  0  0  0  0  0  0  0  0  0  0
    3.8622    1.8445   -1.8721 H   0  0  0  0  0  0  0  0  0  0  0  0
    3.3582    3.4316   -1.2718 H   0  0  0  0  0  0  0  0  0  0  0  0
    4.3626    3.1030    1.7190 H   0  0  0  0  0  0  0  0  0  0  0  0
    2.8680    2.3769    2.3250 H   0  0  0  0  0  0  0  0  0  0  0  0
    2.7839    3.7565    1.2198 H   0  0  0  0  0  0  0  0  0  0  0  0
   -1.8260   -0.0501   -0.9459 H   0  0  0  0  0  0  0  0  0  0  0  0
    1.4604   -4.2688   -1.6449 H   0  0  0  0  0  0  0  0  0  0  0  0
    5.5967    3.2753   -1.6198 H   0  0  0  0  0  0  0  0  0  0  0  0
   -4.2097   -0.1485    1.0041 H   0  0  0  0  0  0  0  0  0  0  0  0
   -3.6893    1.2852   -1.5461 H   0  0  0  0  0  0  0  0  0  0  0  0
   -5.1056    3.1246   -1.9116 H   0  0  0  0  0  0  0  0  0  0  0  0
   -6.7882    3.0097   -1.3553 H   0  0  0  0  0  0  0  0  0  0  0  0
   -6.1643    1.8315   -2.5404 H   0  0  0  0  0  0  0  0  0  0  0  0
  1  4  2  0  0  0  0
  1 15  1  0  0  0  0
  1 20  1  0  0  0  0
  2 13  2  0  0  0  0
  3 17  1  0  0  0  0
  3 33  1  0  0  0  0
  5 18  1  0  0  0  0
  5 34  1  0  0  0  0
  6 17  2  0  0  0  0
  7 22  2  0  0  0  0
  8 10  1  0  0  0  0
  8 13  1  0  0  0  0
  8 14  1  0  0  0  0
  9 21  1  0  0  0  0
  9 22  1  0  0  0  0
  9 36  1  0  0  0  0
 10 11  1  0  0  0  0
 10 12  1  0  0  0  0
 10 24  1  0  0  0  0
 11 15  1  0  0  0  0
 11 25  1  0  0  0  0
 11 26  1  0  0  0  0
 12 13  1  0  0  0  0
 12 16  2  0  0  0  0
 14 15  2  0  0  0  0
 14 17  1  0  0  0  0
 16 18  1  0  0  0  0
 16 19  1  0  0  0  0
 18 27  1  0  0  0  0
 18 28  1  0  0  0  0
 19 29  1  0  0  0  0
 19 30  1  0  0  0  0
 19 31  1  0  0  0  0
 20 21  2  0  0  0  0
 20 32  1  0  0  0  0
 21 35  1  0  0  0  0
 22 23  1  0  0  0  0
 23 37  1  0  0  0  0
 23 38  1  0  0  0  0
 23 39  1  0  0  0  0
M  END
> <PUBCHEM_COMPOUND_CID>
101967125

> <PUBCHEM_CONFORMER_RMSD>
0.8

> <PUBCHEM_CONFORMER_DIVERSEORDER>
1
56
51
36
25
63
60
28
27
22
29
6
37
54
50
59
13
10
58
9
33
15
17
39
31
35
5
18
7
45
4
11
24
19
57
44
52
53
20
55
64
16
38
49
40
12
46
62
21
65
26
23
34
30
42
41
8
43
61
2
32
14
47
48
3

> <PUBCHEM_MMFF94_PARTIAL_CHARGES>
28
1 0.39
10 0.36
11 0.14
12 -0.24
13 0.7
14 0.12
15 -0.08
16 -0.25
17 0.71
18 0.42
19 0.14
2 -0.57
20 -0.09
21 -0.04
22 0.57
23 0.06
3 -0.65
32 0.15
33 0.5
34 0.4
35 0.15
36 0.37
4 -0.5
5 -0.68
6 -0.57
7 -0.57
8 -0.39
9 -0.54

> <PUBCHEM_EFFECTIVE_ROTOR_COUNT>
6.2

> <PUBCHEM_PHARMACOPHORE_FEATURES>
11
1 19 hydrophobe
1 2 acceptor
1 3 acceptor
1 4 acceptor
1 5 acceptor
1 5 donor
1 6 acceptor
1 7 acceptor
1 9 donor
3 3 6 17 anion
7 8 10 11 12 13 14 15 rings

> <PUBCHEM_HEAVY_ATOM_COUNT>
23

> <PUBCHEM_ATOM_DEF_STEREO_COUNT>
1

> <PUBCHEM_ATOM_UDEF_STEREO_COUNT>
1

> <PUBCHEM_BOND_DEF_STEREO_COUNT>
2

> <PUBCHEM_BOND_UDEF_STEREO_COUNT>
0

> <PUBCHEM_ISOTOPIC_ATOM_COUNT>
0

> <PUBCHEM_COMPONENT_COUNT>
1

> <PUBCHEM_CACTVS_TAUTO_COUNT>
3

> <PUBCHEM_CONFORMER_ID>
0613E51500000001

> <PUBCHEM_MMFF94_ENERGY>
64.5038

> <PUBCHEM_FEATURE_SELFOVERLAP>
55.878

> <PUBCHEM_SHAPE_FINGERPRINT>
10498660 4 18342740749463915689
11796584 16 12031788037877002085
12633257 1 15719671073219952573
12730499 353 18412834568880535091
12824470 246 10591777505463584387
13103583 49 11242516779630886437
14251751 18 11455904549967663033
14468879 13 18335143128574364435
15163728 17 18410582815736191101
15422964 175 8286208235932608722
15664445 248 14548151273990774395
17134986 127 18343018908615344278
17539 30 16541594120128470494
17980427 26 17749933532116034258
21304303 282 17412709038300431662
21756936 100 17534625112629213608
23559900 14 18271519793491124611
238 59 18200880569547810635
2838139 119 18263077889421270548
3060560 45 18201997677466707478
316301 35 10879984770528561173
3472631 163 18113889434873102141
34797466 226 18337384921873983149
46194498 28 18268993081721441487
495365 180 18341608209252621329
5281201 14 18052252904563427831
58260988 393 17896600781522588411
7808743 9 18042122214309343561
960060 61 16988551374045604253

> <PUBCHEM_SHAPE_MULTIPOLES>
432
11.19
3.74
1.77
16.92
0.25
0.34
-14.41
-3.44
-2.21
-1.49
-0.11
0.22
1.59

> <PUBCHEM_SHAPE_SELFOVERLAP>
893.695

> <PUBCHEM_SHAPE_VOLUME>
249.1

> <PUBCHEM_COORDINATE_TYPE>
2
5
10

$$$$
