101938339
  -OEChem-03292013293D

 63 65  0     1  0  0  0  0  0999 V2000
    0.4922    1.9911   -1.9623 O   0  0  0  0  0  0  0  0  0  0  0  0
    4.7012    1.4251   -1.4438 O   0  0  0  0  0  0  0  0  0  0  0  0
   -2.9946    0.4088    0.0387 O   0  0  0  0  0  0  0  0  0  0  0  0
   -1.2062    0.7851    1.4295 O   0  0  0  0  0  0  0  0  0  0  0  0
    2.2172    1.5941   -0.4579 N   0  0  0  0  0  0  0  0  0  0  0  0
   -0.9248   -0.0040   -0.7346 N   0  0  0  0  0  0  0  0  0  0  0  0
    0.1776   -4.6272   -0.6940 N   0  0  0  0  0  0  0  0  0  0  0  0
    4.9744    3.7023   -1.5511 N   0  0  0  0  0  0  0  0  0  0  0  0
    3.0271    3.6474    0.6981 C   0  0  2  0  0  0  0  0  0  0  0  0
    2.9076    2.8482   -0.6200 C   0  0  1  0  0  0  0  0  0  0  0  0
    3.8749    2.9240    1.7671 C   0  0  0  0  0  0  0  0  0  0  0  0
    0.5131   -0.1008   -0.7382 C   0  0  1  0  0  0  0  0  0  0  0  0
    1.0179   -1.1846   -1.6977 C   0  0  0  0  0  0  0  0  0  0  0  0
    1.6550    3.9910    1.2984 C   0  0  0  0  0  0  0  0  0  0  0  0
    1.0559    1.2638   -1.1475 C   0  0  0  0  0  0  0  0  0  0  0  0
    0.9063   -2.5741   -1.1192 C   0  0  0  0  0  0  0  0  0  0  0  0
    4.2665    2.5580   -1.2502 C   0  0  0  0  0  0  0  0  0  0  0  0
    1.7814   -3.1685   -0.1674 C   0  0  0  0  0  0  0  0  0  0  0  0
    4.0210    3.7010    3.0676 C   0  0  0  0  0  0  0  0  0  0  0  0
    1.3018   -4.4561    0.0821 C   0  0  0  0  0  0  0  0  0  0  0  0
   -0.0694   -3.4953   -1.4234 C   0  0  0  0  0  0  0  0  0  0  0  0
    2.9390   -2.7332    0.5077 C   0  0  0  0  0  0  0  0  0  0  0  0
    1.9245   -5.3338    0.9767 C   0  0  0  0  0  0  0  0  0  0  0  0
   -1.6639    0.4304    0.3481 C   0  0  0  0  0  0  0  0  0  0  0  0
    3.5725   -3.6002    1.4054 C   0  0  0  0  0  0  0  0  0  0  0  0
    3.0713   -4.8801    1.6348 C   0  0  0  0  0  0  0  0  0  0  0  0
   -3.8837    0.8373    1.0764 C   0  0  0  0  0  0  0  0  0  0  0  0
   -5.2962    0.7533    0.5769 C   0  0  0  0  0  0  0  0  0  0  0  0
   -5.8776    1.8499   -0.0596 C   0  0  0  0  0  0  0  0  0  0  0  0
   -6.0279   -0.4215    0.7493 C   0  0  0  0  0  0  0  0  0  0  0  0
   -7.1908    1.7717   -0.5238 C   0  0  0  0  0  0  0  0  0  0  0  0
   -7.3410   -0.5000    0.2853 C   0  0  0  0  0  0  0  0  0  0  0  0
   -7.9224    0.5968   -0.3512 C   0  0  0  0  0  0  0  0  0  0  0  0
    3.5195    4.6038    0.4796 H   0  0  0  0  0  0  0  0  0  0  0  0
    2.3545    3.4609   -1.3437 H   0  0  0  0  0  0  0  0  0  0  0  0
    0.8352   -0.3123    0.2892 H   0  0  0  0  0  0  0  0  0  0  0  0
    4.8804    2.7406    1.3708 H   0  0  0  0  0  0  0  0  0  0  0  0
    3.4453    1.9423    1.9989 H   0  0  0  0  0  0  0  0  0  0  0  0
    2.0734   -1.0060   -1.9432 H   0  0  0  0  0  0  0  0  0  0  0  0
    0.4762   -1.1374   -2.6517 H   0  0  0  0  0  0  0  0  0  0  0  0
    2.6372    0.8993    0.1527 H   0  0  0  0  0  0  0  0  0  0  0  0
    0.9946    4.4035    0.5275 H   0  0  0  0  0  0  0  0  0  0  0  0
    1.1657    3.1072    1.7216 H   0  0  0  0  0  0  0  0  0  0  0  0
    1.7358    4.7499    2.0827 H   0  0  0  0  0  0  0  0  0  0  0  0
    3.0796    3.7459    3.6228 H   0  0  0  0  0  0  0  0  0  0  0  0
    4.7540    3.2080    3.7149 H   0  0  0  0  0  0  0  0  0  0  0  0
    4.3696    4.7217    2.8815 H   0  0  0  0  0  0  0  0  0  0  0  0
   -1.4279   -0.2216   -1.5899 H   0  0  0  0  0  0  0  0  0  0  0  0
   -0.9178   -3.4479   -2.0919 H   0  0  0  0  0  0  0  0  0  0  0  0
   -0.3838   -5.4671   -0.7204 H   0  0  0  0  0  0  0  0  0  0  0  0
    3.3423   -1.7384    0.3405 H   0  0  0  0  0  0  0  0  0  0  0  0
    1.5351   -6.3303    1.1559 H   0  0  0  0  0  0  0  0  0  0  0  0
    4.5965    4.6341   -1.4160 H   0  0  0  0  0  0  0  0  0  0  0  0
    5.9006    3.6459   -1.9614 H   0  0  0  0  0  0  0  0  0  0  0  0
    4.4657   -3.2698    1.9291 H   0  0  0  0  0  0  0  0  0  0  0  0
    3.5791   -5.5370    2.3363 H   0  0  0  0  0  0  0  0  0  0  0  0
   -3.6453    1.8684    1.3656 H   0  0  0  0  0  0  0  0  0  0  0  0
   -3.7562    0.1995    1.9599 H   0  0  0  0  0  0  0  0  0  0  0  0
   -5.3169    2.7700   -0.2017 H   0  0  0  0  0  0  0  0  0  0  0  0
   -5.5853   -1.2833    1.2418 H   0  0  0  0  0  0  0  0  0  0  0  0
   -7.6433    2.6253   -1.0199 H   0  0  0  0  0  0  0  0  0  0  0  0
   -7.9107   -1.4149    0.4189 H   0  0  0  0  0  0  0  0  0  0  0  0
   -8.9447    0.5357   -0.7127 H   0  0  0  0  0  0  0  0  0  0  0  0
  1 15  2  0  0  0  0
  2 17  2  0  0  0  0
  3 24  1  0  0  0  0
  3 27  1  0  0  0  0
  4 24  2  0  0  0  0
  5 10  1  0  0  0  0
  5 15  1  0  0  0  0
  5 41  1  0  0  0  0
  6 12  1  0  0  0  0
  6 24  1  0  0  0  0
  6 48  1  0  0  0  0
  7 20  1  0  0  0  0
  7 21  1  0  0  0  0
  7 50  1  0  0  0  0
  8 17  1  0  0  0  0
  8 53  1  0  0  0  0
  8 54  1  0  0  0  0
  9 10  1  0  0  0  0
  9 11  1  0  0  0  0
  9 14  1  0  0  0  0
  9 34  1  0  0  0  0
 10 17  1  0  0  0  0
 10 35  1  0  0  0  0
 11 19  1  0  0  0  0
 11 37  1  0  0  0  0
 11 38  1  0  0  0  0
 12 13  1  0  0  0  0
 12 15  1  0  0  0  0
 12 36  1  0  0  0  0
 13 16  1  0  0  0  0
 13 39  1  0  0  0  0
 13 40  1  0  0  0  0
 14 42  1  0  0  0  0
 14 43  1  0  0  0  0
 14 44  1  0  0  0  0
 16 18  1  0  0  0  0
 16 21  2  0  0  0  0
 18 20  1  0  0  0  0
 18 22  2  0  0  0  0
 19 45  1  0  0  0  0
 19 46  1  0  0  0  0
 19 47  1  0  0  0  0
 20 23  2  0  0  0  0
 21 49  1  0  0  0  0
 22 25  1  0  0  0  0
 22 51  1  0  0  0  0
 23 26  1  0  0  0  0
 23 52  1  0  0  0  0
 25 26  2  0  0  0  0
 25 55  1  0  0  0  0
 26 56  1  0  0  0  0
 27 28  1  0  0  0  0
 27 57  1  0  0  0  0
 27 58  1  0  0  0  0
 28 29  2  0  0  0  0
 28 30  1  0  0  0  0
 29 31  1  0  0  0  0
 29 59  1  0  0  0  0
 30 32  2  0  0  0  0
 30 60  1  0  0  0  0
 31 33  2  0  0  0  0
 31 61  1  0  0  0  0
 32 33  1  0  0  0  0
 32 62  1  0  0  0  0
 33 63  1  0  0  0  0
M  END
> <PUBCHEM_COMPOUND_CID>
101938339

> <PUBCHEM_CONFORMER_RMSD>
1.2

> <PUBCHEM_CONFORMER_DIVERSEORDER>
2
15
36
6
71
41
65
103
95
39
31
50
67
12
17
48
44
11
102
30
83
74
84
42
33
9
54
32
37
19
79
64
61
90
49
100
66
38
45
21
22
85
60
43
8
88
55
93
46
16
40
77
89
98
5
10
76
35
3
101
80
92
87
59
81
52
91
75
7
14
72
25
94
53
28
20
82
105
62
26
99
78
73
63
58
51
70
29
86
104
69
56
68
18
97
23
57
13
96
4
47
27
34
1
24

> <PUBCHEM_MMFF94_PARTIAL_CHARGES>
43
1 -0.57
10 0.36
12 0.36
13 0.18
15 0.57
16 -0.18
17 0.57
2 -0.57
20 -0.15
21 -0.3
22 -0.15
23 -0.15
24 0.78
25 -0.15
26 -0.15
27 0.42
28 -0.14
29 -0.15
3 -0.43
30 -0.15
31 -0.15
32 -0.15
33 -0.15
4 -0.57
41 0.37
48 0.37
49 0.15
5 -0.73
50 0.27
51 0.15
52 0.15
53 0.37
54 0.37
55 0.15
56 0.15
59 0.15
6 -0.73
60 0.15
61 0.15
62 0.15
63 0.15
7 0.03
8 -0.8

> <PUBCHEM_EFFECTIVE_ROTOR_COUNT>
13

> <PUBCHEM_PHARMACOPHORE_FEATURES>
13
1 1 acceptor
1 14 hydrophobe
1 19 hydrophobe
1 2 acceptor
1 4 acceptor
1 5 donor
1 6 donor
1 7 cation
1 7 donor
1 8 donor
5 7 16 18 20 21 rings
6 18 20 22 23 25 26 rings
6 28 29 30 31 32 33 rings

> <PUBCHEM_HEAVY_ATOM_COUNT>
33

> <PUBCHEM_ATOM_DEF_STEREO_COUNT>
3

> <PUBCHEM_ATOM_UDEF_STEREO_COUNT>
0

> <PUBCHEM_BOND_DEF_STEREO_COUNT>
0

> <PUBCHEM_BOND_UDEF_STEREO_COUNT>
0

> <PUBCHEM_ISOTOPIC_ATOM_COUNT>
0

> <PUBCHEM_COMPONENT_COUNT>
1

> <PUBCHEM_CACTVS_TAUTO_COUNT>
132

> <PUBCHEM_CONFORMER_ID>
061374A300000002

> <PUBCHEM_MMFF94_ENERGY>
66.5605

> <PUBCHEM_FEATURE_SELFOVERLAP>
66.064

> <PUBCHEM_SHAPE_FINGERPRINT>
10074138 170 17692516124153112297
10305334 12 16625410291145500978
11062273 19 18338527317705536150
12160290 23 17189578627751264191
12522641 126 18410847759595120351
12977781 61 17971452028269073157
13692114 37 18192145108563245931
14150023 24 18334859480497494476
14150023 79 18409173237819219221
14675020 138 18272081734000592305
15927050 60 18339367495003482126
21033648 29 18196934593824868185
21049683 118 18058154210712682424
21344244 78 18127117585418890843
21703447 108 18271246015480806785
23559900 14 18041566837226868105
249999 5 18410012122030581503
4058900 60 18267040481835299449
563151 97 18192149511289378559
57634706 280 17773589623824759009
6004065 56 18264205803878823707
6371380 46 18270687588291582380
6679774 75 18114452445077781970
6695519 79 18126588918738841819
67856867 119 18341331098817141161
9658208 31 18126292084600513508

> <PUBCHEM_SHAPE_MULTIPOLES>
635.72
14.98
8.12
1.94
42.74
7.04
0.52
-9.65
2.04
-16.46
2.74
-2.83
-1.22
-0.81

> <PUBCHEM_SHAPE_SELFOVERLAP>
1341.051

> <PUBCHEM_SHAPE_VOLUME>
356

> <PUBCHEM_COORDINATE_TYPE>
2
5
10

$$$$
