101932818
  -OEChem-03292013293D

 59 61  0     1  0  0  0  0  0999 V2000
    5.2674   -0.4274   -1.4487 O   0  0  0  0  0  0  0  0  0  0  0  0
    4.5766   -2.5540    1.4805 O   0  0  0  0  0  0  0  0  0  0  0  0
    5.5262    1.0392    1.7448 O   0  0  0  0  0  0  0  0  0  0  0  0
    1.5246   -0.6288   -0.2644 O   0  0  0  0  0  0  0  0  0  0  0  0
   -0.0252   -0.4045    1.4449 O   0  0  0  0  0  0  0  0  0  0  0  0
   -1.7362    1.1174   -0.3791 O   0  0  0  0  0  0  0  0  0  0  0  0
   -4.2319   -1.3579   -1.6455 O   0  0  0  0  0  0  0  0  0  0  0  0
   -7.6101    0.8828    0.5922 O   0  0  0  0  0  0  0  0  0  0  0  0
   -2.9394   -2.3937   -0.0062 N   0  0  0  0  0  0  0  0  0  0  0  0
   -6.3293    1.3259    0.2339 N   0  0  0  0  0  0  0  0  0  0  0  0
    5.4587   -1.3263   -0.3461 C   0  0  1  0  0  0  0  0  0  0  0  0
    6.0654    0.0723   -0.3706 C   0  0  2  0  0  0  0  0  0  0  0  0
    4.2151   -1.6782    0.4107 C   0  0  1  0  0  0  0  0  0  0  0  0
    5.5099    1.2816    0.3378 C   0  0  1  0  0  0  0  0  0  0  0  0
    3.1659   -2.3715   -0.4761 C   0  0  0  0  0  0  0  0  0  0  0  0
    1.7362   -2.0385   -0.0155 C   0  0  2  0  0  0  0  0  0  0  0  0
    4.1574    1.7843   -0.1181 C   0  0  0  0  0  0  0  0  0  0  0  0
    0.7064   -2.8304   -0.8124 C   0  0  0  0  0  0  0  0  0  0  0  0
    3.0380    1.8263    0.6226 C   0  0  0  0  0  0  0  0  0  0  0  0
    1.7441    2.2734    0.0887 C   0  0  0  0  0  0  0  0  0  0  0  0
   -0.6165   -2.8496   -0.1128 C   0  0  0  0  0  0  0  0  0  0  0  0
    0.6581    0.0360    0.5374 C   0  0  0  0  0  0  0  0  0  0  0  0
    0.6108    1.4377    0.0844 C   0  0  0  0  0  0  0  0  0  0  0  0
    1.6058    3.5889   -0.3793 C   0  0  0  0  0  0  0  0  0  0  0  0
   -0.6288    1.9119   -0.3597 C   0  0  0  0  0  0  0  0  0  0  0  0
   -1.7403   -2.3585   -0.6487 C   0  0  0  0  0  0  0  0  0  0  0  0
    0.3710    4.0568   -0.8354 C   0  0  0  0  0  0  0  0  0  0  0  0
   -0.7440    3.2212   -0.8222 C   0  0  0  0  0  0  0  0  0  0  0  0
   -4.1155   -1.8897   -0.5455 C   0  0  0  0  0  0  0  0  0  0  0  0
   -5.2697   -2.0659    0.3807 C   0  0  0  0  0  0  0  0  0  0  0  0
   -5.9381   -0.9934    0.8181 C   0  0  0  0  0  0  0  0  0  0  0  0
   -5.5023    0.3413    0.3617 C   0  0  0  0  0  0  0  0  0  0  0  0
   -8.5101    1.9711    0.4484 C   0  0  0  0  0  0  0  0  0  0  0  0
    6.1074   -2.1746   -0.5260 H   0  0  0  0  0  0  0  0  0  0  0  0
    7.1373    0.1371   -0.5162 H   0  0  0  0  0  0  0  0  0  0  0  0
    3.7894   -0.7970    0.8860 H   0  0  0  0  0  0  0  0  0  0  0  0
    6.2085    2.1105    0.1668 H   0  0  0  0  0  0  0  0  0  0  0  0
    3.2717   -2.0342   -1.5147 H   0  0  0  0  0  0  0  0  0  0  0  0
    3.3183   -3.4574   -0.4613 H   0  0  0  0  0  0  0  0  0  0  0  0
    1.6582   -2.2493    1.0597 H   0  0  0  0  0  0  0  0  0  0  0  0
    4.1175    2.1227   -1.1526 H   0  0  0  0  0  0  0  0  0  0  0  0
    4.9323   -3.3729    1.0951 H   0  0  0  0  0  0  0  0  0  0  0  0
    1.0299   -3.8730   -0.9177 H   0  0  0  0  0  0  0  0  0  0  0  0
    0.6066   -2.4157   -1.8232 H   0  0  0  0  0  0  0  0  0  0  0  0
    6.4444    0.8432    1.9986 H   0  0  0  0  0  0  0  0  0  0  0  0
    3.0276    1.4741    1.6495 H   0  0  0  0  0  0  0  0  0  0  0  0
   -0.6457   -3.3082    0.8732 H   0  0  0  0  0  0  0  0  0  0  0  0
    2.4544    4.2698   -0.3824 H   0  0  0  0  0  0  0  0  0  0  0  0
   -1.7339   -1.9047   -1.6340 H   0  0  0  0  0  0  0  0  0  0  0  0
    0.2787    5.0780   -1.1941 H   0  0  0  0  0  0  0  0  0  0  0  0
   -1.7001    3.5969   -1.1768 H   0  0  0  0  0  0  0  0  0  0  0  0
   -2.9611   -2.8144    0.9199 H   0  0  0  0  0  0  0  0  0  0  0  0
   -1.5672    0.2840    0.0871 H   0  0  0  0  0  0  0  0  0  0  0  0
   -5.5158   -3.0676    0.7126 H   0  0  0  0  0  0  0  0  0  0  0  0
   -6.7794   -1.1107    1.4898 H   0  0  0  0  0  0  0  0  0  0  0  0
   -4.4411    0.4998    0.1221 H   0  0  0  0  0  0  0  0  0  0  0  0
   -9.5113    1.6316    0.7265 H   0  0  0  0  0  0  0  0  0  0  0  0
   -8.5311    2.3129   -0.5911 H   0  0  0  0  0  0  0  0  0  0  0  0
   -8.2215    2.7937    1.1101 H   0  0  0  0  0  0  0  0  0  0  0  0
  1 11  1  0  0  0  0
  1 12  1  0  0  0  0
  2 13  1  0  0  0  0
  2 42  1  0  0  0  0
  3 14  1  0  0  0  0
  3 45  1  0  0  0  0
  4 16  1  0  0  0  0
  4 22  1  0  0  0  0
  5 22  2  0  0  0  0
  6 25  1  0  0  0  0
  6 53  1  0  0  0  0
  7 29  2  0  0  0  0
  8 10  1  0  0  0  0
  8 33  1  0  0  0  0
  9 26  1  0  0  0  0
  9 29  1  0  0  0  0
  9 52  1  0  0  0  0
 10 32  2  0  0  0  0
 11 12  1  0  0  0  0
 11 13  1  0  0  0  0
 11 34  1  0  0  0  0
 12 14  1  0  0  0  0
 12 35  1  0  0  0  0
 13 15  1  0  0  0  0
 13 36  1  0  0  0  0
 14 17  1  0  0  0  0
 14 37  1  0  0  0  0
 15 16  1  0  0  0  0
 15 38  1  0  0  0  0
 15 39  1  0  0  0  0
 16 18  1  0  0  0  0
 16 40  1  0  0  0  0
 17 19  2  0  0  0  0
 17 41  1  0  0  0  0
 18 21  1  0  0  0  0
 18 43  1  0  0  0  0
 18 44  1  0  0  0  0
 19 20  1  0  0  0  0
 19 46  1  0  0  0  0
 20 23  2  0  0  0  0
 20 24  1  0  0  0  0
 21 26  2  0  0  0  0
 21 47  1  0  0  0  0
 22 23  1  0  0  0  0
 23 25  1  0  0  0  0
 24 27  2  0  0  0  0
 24 48  1  0  0  0  0
 25 28  2  0  0  0  0
 26 49  1  0  0  0  0
 27 28  1  0  0  0  0
 27 50  1  0  0  0  0
 28 51  1  0  0  0  0
 29 30  1  0  0  0  0
 30 31  2  0  0  0  0
 30 54  1  0  0  0  0
 31 32  1  0  0  0  0
 31 55  1  0  0  0  0
 32 56  1  0  0  0  0
 33 57  1  0  0  0  0
 33 58  1  0  0  0  0
 33 59  1  0  0  0  0
M  END
> <PUBCHEM_COMPOUND_CID>
101932818

> <PUBCHEM_CONFORMER_RMSD>
1.4

> <PUBCHEM_CONFORMER_DIVERSEORDER>
10
27
97
71
94
91
17
121
60
63
9
38
14
84
16
69
50
72
34
65
113
1
80
62
88
39
35
7
108
103
112
20
81
52
29
100
114
96
83
68
56
8
109
99
89
24
102
82
104
78
105
57
25
13
41
28
59
90
46
79
61
122
86
51
115
117
44
31
45
15
98
87
21
30
40
77
6
23
47
93
11
55
106
110
33
74
4
76
73
92
32
42
54
101
2
5
43
120
66
18
22
75
118
107
19
64
58
12
49
95
67
26
119
48
70
85
123
116
36
111
3
53
37

> <PUBCHEM_MMFF94_PARTIAL_CHARGES>
48
1 -0.3
10 -0.51
11 -0.05
12 -0.05
13 0.38
14 0.51
16 0.28
17 -0.29
18 0.14
19 -0.18
2 -0.68
20 0.03
21 -0.29
22 0.63
23 0.09
24 -0.15
25 0.08
26 -0.04
27 -0.15
28 -0.15
29 0.62
3 -0.68
30 -0.14
31 -0.14
32 0.38
33 0.28
34 0.1
35 0.1
4 -0.43
41 0.15
42 0.4
45 0.4
46 0.15
47 0.15
48 0.15
49 0.15
5 -0.57
50 0.15
51 0.15
52 0.37
53 0.45
54 0.15
55 0.15
56 0.06
6 -0.53
7 -0.57
8 -0.22
9 -0.54

> <PUBCHEM_EFFECTIVE_ROTOR_COUNT>
8.2

> <PUBCHEM_PHARMACOPHORE_FEATURES>
11
1 1 acceptor
1 10 acceptor
1 2 acceptor
1 2 donor
1 3 acceptor
1 3 donor
1 5 acceptor
1 6 donor
1 7 acceptor
1 9 donor
6 20 23 24 25 27 28 rings

> <PUBCHEM_HEAVY_ATOM_COUNT>
33

> <PUBCHEM_ATOM_DEF_STEREO_COUNT>
2

> <PUBCHEM_ATOM_UDEF_STEREO_COUNT>
3

> <PUBCHEM_BOND_DEF_STEREO_COUNT>
4

> <PUBCHEM_BOND_UDEF_STEREO_COUNT>
0

> <PUBCHEM_ISOTOPIC_ATOM_COUNT>
0

> <PUBCHEM_COMPONENT_COUNT>
1

> <PUBCHEM_CACTVS_TAUTO_COUNT>
28

> <PUBCHEM_CONFORMER_ID>
06135F120000000A

> <PUBCHEM_MMFF94_ENERGY>
93.0724

> <PUBCHEM_FEATURE_SELFOVERLAP>
55.826

> <PUBCHEM_SHAPE_FINGERPRINT>
10006869 2 18338510829295106814
10439779 11 18270111456771708777
10675989 125 18189617314699635204
10906281 52 17682958053079405224
11135609 187 18193565686503651920
11578080 2 17273115012041382704
12107183 9 18411704284059957401
12422481 6 18341611563648407687
12788726 201 18261387815785555666
14020679 6 17968097598301520947
14394314 77 18411138060450244189
14790565 3 18339927120371946006
15064986 96 18130802157286827439
15183329 4 18411415150418021231
15276724 80 18337950095528336839
15420108 30 17912104766587583632
16087824 20 18337957796732304485
16112460 7 18341620265943525761
24771293 8 18128243670721496304
338550 245 18336550524484556124
350125 39 18412263930244225801
3680242 22 18408601457371235578
4093350 32 17203612583973223518
4144715 1 17972045996333621403
484989 97 18193558861884183438
550186 83 17823396344931985064
6086070 43 16916776431842180849
6328613 192 18272654554205142571
6443956 14 18119809360069575004

> <PUBCHEM_SHAPE_MULTIPOLES>
622.21
17.12
4.62
1.08
26.18
1.81
-0.08
1.41
-3.52
-0.31
0.93
-0.46
-0.13
-0.38

> <PUBCHEM_SHAPE_SELFOVERLAP>
1300.853

> <PUBCHEM_SHAPE_VOLUME>
347.6

> <PUBCHEM_COORDINATE_TYPE>
2
5
10

$$$$
