101934786
  -OEChem-03292013293D

 41 42  0     1  0  0  0  0  0999 V2000
   -0.2296    2.6262    0.0130 O   0  0  0  0  0  0  0  0  0  0  0  0
   -0.5812   -2.0346    2.1649 O   0  0  0  0  0  0  0  0  0  0  0  0
   -2.2973   -3.4852    0.4455 O   0  0  0  0  0  0  0  0  0  0  0  0
   -3.0665    0.4428   -2.1974 O   0  0  0  0  0  0  0  0  0  0  0  0
   -2.0826    2.7591   -1.2406 O   0  0  0  0  0  0  0  0  0  0  0  0
    3.4073    0.0092    1.0599 O   0  0  0  0  0  0  0  0  0  0  0  0
    1.4068    0.0591   -0.1129 N   0  0  0  0  0  0  0  0  0  0  0  0
    4.7724   -0.0809   -1.3349 N   0  0  0  0  0  0  0  0  0  0  0  0
   -0.8680   -0.0213    0.8697 C   0  0  2  0  0  0  0  0  0  0  0  0
    0.5716    0.5005    0.9869 C   0  0  2  0  0  0  0  0  0  0  0  0
   -0.9160   -1.5646    0.8578 C   0  0  2  0  0  0  0  0  0  0  0  0
   -1.5788    0.6292   -0.2928 C   0  0  0  0  0  0  0  0  0  0  0  0
   -2.3129   -2.0596    0.4926 C   0  0  1  0  0  0  0  0  0  0  0  0
    0.5770    2.0254    1.0549 C   0  0  2  0  0  0  0  0  0  0  0  0
   -2.7343   -1.5223   -0.8731 C   0  0  0  0  0  0  0  0  0  0  0  0
   -2.4139   -0.0699   -1.0942 C   0  0  0  0  0  0  0  0  0  0  0  0
   -1.3384    2.0776   -0.5430 C   0  0  0  0  0  0  0  0  0  0  0  0
    0.0940    2.5745    2.3949 C   0  0  0  0  0  0  0  0  0  0  0  0
    2.7699   -0.1509    0.0209 C   0  0  0  0  0  0  0  0  0  0  0  0
    3.4065   -0.5968   -1.2895 C   0  0  2  0  0  0  0  0  0  0  0  0
    3.4139   -2.1175   -1.3825 C   0  0  0  0  0  0  0  0  0  0  0  0
   -1.4044    0.3030    1.7733 H   0  0  0  0  0  0  0  0  0  0  0  0
    1.0237    0.1087    1.9071 H   0  0  0  0  0  0  0  0  0  0  0  0
   -0.1809   -1.9963    0.1689 H   0  0  0  0  0  0  0  0  0  0  0  0
   -3.0337   -1.7677    1.2664 H   0  0  0  0  0  0  0  0  0  0  0  0
    1.5969    2.3969    0.8965 H   0  0  0  0  0  0  0  0  0  0  0  0
   -3.8132   -1.6869   -0.9913 H   0  0  0  0  0  0  0  0  0  0  0  0
   -2.2577   -2.1105   -1.6687 H   0  0  0  0  0  0  0  0  0  0  0  0
    0.9771   -0.0494   -1.0271 H   0  0  0  0  0  0  0  0  0  0  0  0
   -0.9685    2.3715    2.5607 H   0  0  0  0  0  0  0  0  0  0  0  0
    0.6697    2.1586    3.2271 H   0  0  0  0  0  0  0  0  0  0  0  0
    0.2010    3.6650    2.4124 H   0  0  0  0  0  0  0  0  0  0  0  0
   -1.2526   -1.7049    2.7862 H   0  0  0  0  0  0  0  0  0  0  0  0
   -3.1922   -3.7789    0.2034 H   0  0  0  0  0  0  0  0  0  0  0  0
   -2.8007    1.3674   -2.3248 H   0  0  0  0  0  0  0  0  0  0  0  0
    2.8495   -0.1811   -2.1369 H   0  0  0  0  0  0  0  0  0  0  0  0
    3.9630   -2.5686   -0.5479 H   0  0  0  0  0  0  0  0  0  0  0  0
    3.8745   -2.4549   -2.3173 H   0  0  0  0  0  0  0  0  0  0  0  0
    2.3921   -2.5116   -1.3496 H   0  0  0  0  0  0  0  0  0  0  0  0
    4.7523    0.9380   -1.3602 H   0  0  0  0  0  0  0  0  0  0  0  0
    5.2224   -0.3775   -2.2001 H   0  0  0  0  0  0  0  0  0  0  0  0
  1 14  1  0  0  0  0
  1 17  1  0  0  0  0
  2 11  1  0  0  0  0
  2 33  1  0  0  0  0
  3 13  1  0  0  0  0
  3 34  1  0  0  0  0
  4 16  1  0  0  0  0
  4 35  1  0  0  0  0
  5 17  2  0  0  0  0
  6 19  2  0  0  0  0
  7 10  1  0  0  0  0
  7 19  1  0  0  0  0
  7 29  1  0  0  0  0
  8 20  1  0  0  0  0
  8 40  1  0  0  0  0
  8 41  1  0  0  0  0
  9 10  1  0  0  0  0
  9 11  1  0  0  0  0
  9 12  1  0  0  0  0
  9 22  1  0  0  0  0
 10 14  1  0  0  0  0
 10 23  1  0  0  0  0
 11 13  1  0  0  0  0
 11 24  1  0  0  0  0
 12 16  2  0  0  0  0
 12 17  1  0  0  0  0
 13 15  1  0  0  0  0
 13 25  1  0  0  0  0
 14 18  1  0  0  0  0
 14 26  1  0  0  0  0
 15 16  1  0  0  0  0
 15 27  1  0  0  0  0
 15 28  1  0  0  0  0
 18 30  1  0  0  0  0
 18 31  1  0  0  0  0
 18 32  1  0  0  0  0
 19 20  1  0  0  0  0
 20 21  1  0  0  0  0
 20 36  1  0  0  0  0
 21 37  1  0  0  0  0
 21 38  1  0  0  0  0
 21 39  1  0  0  0  0
M  END
> <PUBCHEM_COMPOUND_CID>
101934786

> <PUBCHEM_CONFORMER_RMSD>
0.6

> <PUBCHEM_CONFORMER_DIVERSEORDER>
1
12
31
30
26
16
14
21
10
29
15
5
24
8
3
27
11
20
18
28
17
22
7
25
4
19
6
9
13
23
2

> <PUBCHEM_MMFF94_PARTIAL_CHARGES>
25
1 -0.43
10 0.3
11 0.28
12 -0.12
13 0.28
14 0.28
15 0.14
16 -0.06
17 0.71
19 0.57
2 -0.68
20 0.33
29 0.37
3 -0.68
33 0.4
34 0.4
35 0.45
4 -0.53
40 0.36
41 0.36
5 -0.57
6 -0.57
7 -0.73
8 -0.99
9 0.14

> <PUBCHEM_EFFECTIVE_ROTOR_COUNT>
4.2

> <PUBCHEM_PHARMACOPHORE_FEATURES>
12
1 2 acceptor
1 2 donor
1 3 acceptor
1 3 donor
1 4 donor
1 5 acceptor
1 6 acceptor
1 7 donor
1 8 cation
1 8 donor
6 1 9 10 12 14 17 rings
6 9 11 12 13 15 16 rings

> <PUBCHEM_HEAVY_ATOM_COUNT>
21

> <PUBCHEM_ATOM_DEF_STEREO_COUNT>
5

> <PUBCHEM_ATOM_UDEF_STEREO_COUNT>
1

> <PUBCHEM_BOND_DEF_STEREO_COUNT>
0

> <PUBCHEM_BOND_UDEF_STEREO_COUNT>
0

> <PUBCHEM_ISOTOPIC_ATOM_COUNT>
0

> <PUBCHEM_COMPONENT_COUNT>
1

> <PUBCHEM_CACTVS_TAUTO_COUNT>
10

> <PUBCHEM_CONFORMER_ID>
061366C200000001

> <PUBCHEM_MMFF94_ENERGY>
42.7051

> <PUBCHEM_FEATURE_SELFOVERLAP>
60.925

> <PUBCHEM_SHAPE_FINGERPRINT>
10764073 3 17039847838682044907
11127187 94 18335422382652218647
11582403 64 16039338612803638041
11640471 11 17095801014977962604
12035759 4 17261586275698850821
12714826 92 18261119598718324755
12824470 246 15768910507126916695
14817 1 17249153337419579953
16945 1 18334849494133788281
17357779 13 18272650194607530702
17921350 177 15242482069030388198
18915476 22 17698432561820270553
18981168 100 12757449245167626678
20600515 1 18264745741365772800
20645476 183 17898015633347513676
20871999 31 18411981317117383221
21330990 113 18047784557911838355
21665056 4 17835822806237055982
22182313 1 18048296032581872967
22802520 49 18267291217878252545
22907989 373 18265358160614774838
23419403 2 18055064621572076353
23526113 38 18129644375083093080
23557571 272 18116429435123600792
23558518 356 17843968044590186080
23559900 14 18264465387681059440
2748010 2 17975390715041857169
298252 57 17386565730713737669
394222 165 17466790372785051529
484985 159 13253674102722916420
576247 118 18118704328628134435
5845 1 17770820967013221608
81228 2 18200595783172407800
84936 31 17482273021100975987
9709674 26 18199192798156894030

> <PUBCHEM_SHAPE_MULTIPOLES>
386.99
5.74
3.35
1.93
6.95
0.3
0.24
-3.2
-3.44
-1.84
0.91
-0.46
0.29
1.58

> <PUBCHEM_SHAPE_SELFOVERLAP>
804.458

> <PUBCHEM_SHAPE_VOLUME>
218.1

> <PUBCHEM_COORDINATE_TYPE>
2
5
10

$$$$
