101940102
  -OEChem-03292013293D

 64 66  0     1  0  0  0  0  0999 V2000
   -3.1320    2.3055    1.8420 O   0  0  0  0  0  0  0  0  0  0  0  0
    3.0575    0.7033   -2.0031 O   0  0  0  0  0  0  0  0  0  0  0  0
    4.6630   -3.2399    0.0603 O   0  0  0  0  0  0  0  0  0  0  0  0
    6.5372   -2.9964   -1.1830 O   0  0  0  0  0  0  0  0  0  0  0  0
    8.1145    1.5180    0.5481 O   0  0  0  0  0  0  0  0  0  0  0  0
   -4.9216    2.9385   -0.7779 N   0  0  0  0  0  0  0  0  0  0  0  0
    3.7930   -0.7798   -0.3715 N   0  0  0  0  0  0  0  0  0  0  0  0
    7.9993    0.6676    2.6840 N   0  0  0  0  0  0  0  0  0  0  0  0
   -2.8695    2.2628    0.4322 C   0  0  1  0  0  0  0  0  0  0  0  0
   -3.6621    1.1837    1.1203 C   0  0  2  0  0  0  0  0  0  0  0  0
   -5.1554    1.1546    0.9389 C   0  0  1  0  0  0  0  0  0  0  0  0
   -3.5754    3.3433   -0.3674 C   0  0  1  0  0  0  0  0  0  0  0  0
   -5.6966    2.4864    0.3835 C   0  0  0  0  0  0  0  0  0  0  0  0
   -1.5745    1.9844   -0.2098 C   0  0  0  0  0  0  0  0  0  0  0  0
   -5.5349   -0.0117    0.0186 C   0  0  0  0  0  0  0  0  0  0  0  0
   -2.6475    3.5349   -1.5442 C   0  0  0  0  0  0  0  0  0  0  0  0
   -1.5436    2.7803   -1.4241 C   0  0  0  0  0  0  0  0  0  0  0  0
   -5.4862   -1.3668    0.7175 C   0  0  0  0  0  0  0  0  0  0  0  0
   -0.5777    1.1860    0.1863 C   0  0  0  0  0  0  0  0  0  0  0  0
   -5.8843   -2.5351   -0.1874 C   0  0  0  0  0  0  0  0  0  0  0  0
    0.6530    1.0231   -0.5546 C   0  0  0  0  0  0  0  0  0  0  0  0
   -5.7940   -3.8687    0.5579 C   0  0  0  0  0  0  0  0  0  0  0  0
   -6.1542   -5.0409   -0.3546 C   0  0  0  0  0  0  0  0  0  0  0  0
    1.6435    0.2187   -0.1446 C   0  0  0  0  0  0  0  0  0  0  0  0
   -6.0337   -6.3705    0.3730 C   0  0  0  0  0  0  0  0  0  0  0  0
    2.8887    0.0928   -0.9526 C   0  0  0  0  0  0  0  0  0  0  0  0
    5.0808   -1.0811   -0.9551 C   0  0  1  0  0  0  0  0  0  0  0  0
    6.1537   -0.0907   -0.4867 C   0  0  0  0  0  0  0  0  0  0  0  0
    5.5163   -2.5156   -0.7022 C   0  0  0  0  0  0  0  0  0  0  0  0
    6.5195   -0.2269    0.9941 C   0  0  0  0  0  0  0  0  0  0  0  0
    7.6232    0.7401    1.3621 C   0  0  0  0  0  0  0  0  0  0  0  0
   -3.2142    0.2276    1.3465 H   0  0  0  0  0  0  0  0  0  0  0  0
   -5.6203    0.9956    1.9202 H   0  0  0  0  0  0  0  0  0  0  0  0
   -3.6202    4.2811    0.2008 H   0  0  0  0  0  0  0  0  0  0  0  0
   -6.7475    2.3789    0.0919 H   0  0  0  0  0  0  0  0  0  0  0  0
   -5.6772    3.2595    1.1625 H   0  0  0  0  0  0  0  0  0  0  0  0
   -4.8658    2.1835   -1.4608 H   0  0  0  0  0  0  0  0  0  0  0  0
   -6.5571    0.1318   -0.3541 H   0  0  0  0  0  0  0  0  0  0  0  0
   -4.8796   -0.0370   -0.8614 H   0  0  0  0  0  0  0  0  0  0  0  0
   -2.8394    4.2112   -2.3652 H   0  0  0  0  0  0  0  0  0  0  0  0
   -0.7572    2.7933   -2.1617 H   0  0  0  0  0  0  0  0  0  0  0  0
   -4.4776   -1.5548    1.1018 H   0  0  0  0  0  0  0  0  0  0  0  0
   -6.1546   -1.3472    1.5875 H   0  0  0  0  0  0  0  0  0  0  0  0
   -0.6792    0.6285    1.1140 H   0  0  0  0  0  0  0  0  0  0  0  0
   -6.9067   -2.3847   -0.5541 H   0  0  0  0  0  0  0  0  0  0  0  0
   -5.2254   -2.5575   -1.0638 H   0  0  0  0  0  0  0  0  0  0  0  0
    0.7863    1.5721   -1.4793 H   0  0  0  0  0  0  0  0  0  0  0  0
   -6.4680   -3.8539    1.4230 H   0  0  0  0  0  0  0  0  0  0  0  0
   -4.7762   -4.0052    0.9435 H   0  0  0  0  0  0  0  0  0  0  0  0
   -7.1794   -4.9232   -0.7243 H   0  0  0  0  0  0  0  0  0  0  0  0
   -5.4929   -5.0499   -1.2288 H   0  0  0  0  0  0  0  0  0  0  0  0
    1.5630   -0.3537    0.7743 H   0  0  0  0  0  0  0  0  0  0  0  0
   -5.0103   -6.5335    0.7258 H   0  0  0  0  0  0  0  0  0  0  0  0
   -6.7052   -6.4072    1.2367 H   0  0  0  0  0  0  0  0  0  0  0  0
   -6.2971   -7.1946   -0.2973 H   0  0  0  0  0  0  0  0  0  0  0  0
    3.5626   -1.2286    0.5106 H   0  0  0  0  0  0  0  0  0  0  0  0
    4.9674   -0.9874   -2.0427 H   0  0  0  0  0  0  0  0  0  0  0  0
    5.8199    0.9355   -0.6890 H   0  0  0  0  0  0  0  0  0  0  0  0
    7.0586   -0.2451   -1.0898 H   0  0  0  0  0  0  0  0  0  0  0  0
    5.6494   -0.0162    1.6258 H   0  0  0  0  0  0  0  0  0  0  0  0
    6.8715   -1.2390    1.2217 H   0  0  0  0  0  0  0  0  0  0  0  0
    4.9720   -4.1630    0.1810 H   0  0  0  0  0  0  0  0  0  0  0  0
    8.7276    1.2693    3.0540 H   0  0  0  0  0  0  0  0  0  0  0  0
    7.5704    0.0164    3.3339 H   0  0  0  0  0  0  0  0  0  0  0  0
  1  9  1  0  0  0  0
  1 10  1  0  0  0  0
  2 26  2  0  0  0  0
  3 29  1  0  0  0  0
  3 62  1  0  0  0  0
  4 29  2  0  0  0  0
  5 31  2  0  0  0  0
  6 12  1  0  0  0  0
  6 13  1  0  0  0  0
  6 37  1  0  0  0  0
  7 26  1  0  0  0  0
  7 27  1  0  0  0  0
  7 56  1  0  0  0  0
  8 31  1  0  0  0  0
  8 63  1  0  0  0  0
  8 64  1  0  0  0  0
  9 10  1  0  0  0  0
  9 12  1  0  0  0  0
  9 14  1  0  0  0  0
 10 11  1  0  0  0  0
 10 32  1  0  0  0  0
 11 13  1  0  0  0  0
 11 15  1  0  0  0  0
 11 33  1  0  0  0  0
 12 16  1  0  0  0  0
 12 34  1  0  0  0  0
 13 35  1  0  0  0  0
 13 36  1  0  0  0  0
 14 17  1  0  0  0  0
 14 19  2  0  0  0  0
 15 18  1  0  0  0  0
 15 38  1  0  0  0  0
 15 39  1  0  0  0  0
 16 17  2  0  0  0  0
 16 40  1  0  0  0  0
 17 41  1  0  0  0  0
 18 20  1  0  0  0  0
 18 42  1  0  0  0  0
 18 43  1  0  0  0  0
 19 21  1  0  0  0  0
 19 44  1  0  0  0  0
 20 22  1  0  0  0  0
 20 45  1  0  0  0  0
 20 46  1  0  0  0  0
 21 24  2  0  0  0  0
 21 47  1  0  0  0  0
 22 23  1  0  0  0  0
 22 48  1  0  0  0  0
 22 49  1  0  0  0  0
 23 25  1  0  0  0  0
 23 50  1  0  0  0  0
 23 51  1  0  0  0  0
 24 26  1  0  0  0  0
 24 52  1  0  0  0  0
 25 53  1  0  0  0  0
 25 54  1  0  0  0  0
 25 55  1  0  0  0  0
 27 28  1  0  0  0  0
 27 29  1  0  0  0  0
 27 57  1  0  0  0  0
 28 30  1  0  0  0  0
 28 58  1  0  0  0  0
 28 59  1  0  0  0  0
 30 31  1  0  0  0  0
 30 60  1  0  0  0  0
 30 61  1  0  0  0  0
M  END
> <PUBCHEM_COMPOUND_CID>
101940102

> <PUBCHEM_CONFORMER_RMSD>
1.2

> <PUBCHEM_CONFORMER_DIVERSEORDER>
1
158
54
8
30
51
89
162
13
94
67
85
96
42
144
149
43
25
38
65
117
139
14
99
64
136
35
33
95
22
146
70
103
115
135
18
69
143
154
10
21
72
17
116
166
48
45
55
5
107
61
147
128
91
174
140
15
71
3
53
129
163
156
58
160
152
46
109
150
80
66
74
170
50
47
114
31
49
111
57
112
123
78
32
81
34
98
16
84
12
6
130
11
23
73
36
124
121
19
76
161
68
151
168
133
127
28
118
113
172
9
20
104
145
141
125
52
24
41
119
157
27
92
153
63
29
26
60
62
134
159
56
59
77
2
173
82
137
83
7
37
122
39
87
100
79
110
40
90
120
4
86
155
165
142
126
75
88
44
171
106
164
101
132
167
97
102
105
108
131
169
148
93
138

> <PUBCHEM_MMFF94_PARTIAL_CHARGES>
35
1 -0.3
10 -0.05
11 0.09
12 0.5
13 0.27
14 -0.04
16 -0.29
17 -0.15
19 -0.15
2 -0.57
21 -0.15
24 -0.14
26 0.62
27 0.36
29 0.66
3 -0.65
30 0.06
31 0.57
32 0.1
37 0.36
4 -0.57
40 0.15
41 0.15
44 0.15
47 0.15
5 -0.57
52 0.15
56 0.37
6 -0.9
62 0.5
63 0.37
64 0.37
7 -0.73
8 -0.8
9 0.09

> <PUBCHEM_EFFECTIVE_ROTOR_COUNT>
13.8

> <PUBCHEM_PHARMACOPHORE_FEATURES>
14
1 1 acceptor
1 2 acceptor
1 25 hydrophobe
1 3 acceptor
1 4 acceptor
1 5 acceptor
1 6 cation
1 6 donor
1 7 donor
1 8 donor
3 3 4 29 anion
5 15 18 20 22 23 hydrophobe
5 9 12 14 16 17 rings
7 1 6 9 10 11 12 13 rings

> <PUBCHEM_HEAVY_ATOM_COUNT>
31

> <PUBCHEM_ATOM_DEF_STEREO_COUNT>
1

> <PUBCHEM_ATOM_UDEF_STEREO_COUNT>
4

> <PUBCHEM_BOND_DEF_STEREO_COUNT>
2

> <PUBCHEM_BOND_UDEF_STEREO_COUNT>
0

> <PUBCHEM_ISOTOPIC_ATOM_COUNT>
0

> <PUBCHEM_COMPONENT_COUNT>
1

> <PUBCHEM_CACTVS_TAUTO_COUNT>
6

> <PUBCHEM_CONFORMER_ID>
06137B8600000001

> <PUBCHEM_MMFF94_ENERGY>
52.4898

> <PUBCHEM_FEATURE_SELFOVERLAP>
71.222

> <PUBCHEM_SHAPE_FINGERPRINT>
10391435 84 18411130351320960291
10622 236 18336551633393356911
117089 54 18193848261171604827
11801155 225 18190743020737942003
12596602 18 18129945559944501440
1361 4 18411985749840494390
13761468 95 12035722090776792319
13782708 43 18412550898747956248
14461889 52 18411697678373616410
14659021 117 18334012818073770939
14664723 55 8358273540049438511
15064981 113 13407337612919286755
15183329 4 15502957211738589716
15519825 34 18335693992553293594
15803439 3 17535158105575727389
16120349 67 8430052970540035391
19303781 99 17969227914109651963
21136928 126 16466144081748073183
22956985 138 18052537965949685305
23081809 10 14924522823320961628
23559900 14 18410571760960824585
397830 11 18341610400429929036
4280585 95 18261110807717069109
4403749 210 18271799121020766333
484985 159 18334290930328452959
7970288 3 18337959016898765895
9953998 17 18272373044985238369

> <PUBCHEM_SHAPE_MULTIPOLES>
593.68
24.79
6.7
1.51
38.1
10.8
-0.38
18.7
-7.73
-18.64
1.06
2.21
-0.76
2.07

> <PUBCHEM_SHAPE_SELFOVERLAP>
1218.198

> <PUBCHEM_SHAPE_VOLUME>
340.6

> <PUBCHEM_COORDINATE_TYPE>
2
5
10

$$$$
