101985997
  -OEChem-03292013293D

 68 72  0     1  0  0  0  0  0999 V2000
    3.1064    0.7647   -1.8677 O   0  0  0  0  0  0  0  0  0  0  0  0
   -3.0336    1.1306    0.6384 O   0  0  0  0  0  0  0  0  0  0  0  0
    2.9325   -1.5075   -0.1295 O   0  0  0  0  0  0  0  0  0  0  0  0
    3.3470    1.0636    0.6449 O   0  0  0  0  0  0  0  0  0  0  0  0
   -5.4052    1.0050    0.5455 O   0  0  0  0  0  0  0  0  0  0  0  0
   -5.8198   -1.2931    0.9073 O   0  0  0  0  0  0  0  0  0  0  0  0
    2.6782   -3.4409   -1.3682 O   0  0  0  0  0  0  0  0  0  0  0  0
    3.8345    1.9475    2.7231 O   0  0  0  0  0  0  0  0  0  0  0  0
    1.2530    0.3034   -0.2179 C   0  0  2  0  0  0  0  0  0  0  0  0
   -0.3157    0.5146   -0.1894 C   0  0  1  0  0  0  0  0  0  0  0  0
    1.7543    1.0593   -1.4830 C   0  0  1  0  0  0  0  0  0  0  0  0
   -1.1217   -0.3187    0.8883 C   0  0  2  0  0  0  0  0  0  0  0  0
    1.5393   -1.2264   -0.2689 C   0  0  2  0  0  0  0  0  0  0  0  0
   -0.6941   -1.8256    0.7955 C   0  0  1  0  0  0  0  0  0  0  0  0
   -0.6824    2.0238   -0.2318 C   0  0  0  0  0  0  0  0  0  0  0  0
    1.4246    2.5294   -1.5390 C   0  0  0  0  0  0  0  0  0  0  0  0
    2.0881    0.3738   -2.7979 C   0  0  0  0  0  0  0  0  0  0  0  0
    0.8263   -2.0115    0.8310 C   0  0  0  0  0  0  0  0  0  0  0  0
   -2.6002   -0.2311    0.5592 C   0  0  2  0  0  0  0  0  0  0  0  0
   -0.0804    2.7283   -1.4496 C   0  0  0  0  0  0  0  0  0  0  0  0
    1.9940    0.9170    1.0025 C   0  0  0  0  0  0  0  0  0  0  0  0
   -0.9669    0.2324    2.3208 C   0  0  0  0  0  0  0  0  0  0  0  0
   -2.9371   -0.6840   -0.8515 C   0  0  0  0  0  0  0  0  0  0  0  0
   -4.0827    0.2166   -1.2867 C   0  0  2  0  0  0  0  0  0  0  0  0
   -1.3182   -2.7437    1.8585 C   0  0  0  0  0  0  0  0  0  0  0  0
   -4.1965    1.2570   -0.1865 C   0  0  2  0  0  0  0  0  0  0  0  0
   -5.4543   -0.4221   -1.3397 C   0  0  0  0  0  0  0  0  0  0  0  0
   -6.0275   -0.1825    0.0437 C   0  0  2  0  0  0  0  0  0  0  0  0
    3.3652   -2.6526   -0.7328 C   0  0  0  0  0  0  0  0  0  0  0  0
    4.1764    1.5965    1.6020 C   0  0  0  0  0  0  0  0  0  0  0  0
    4.8372   -2.8172   -0.5042 C   0  0  0  0  0  0  0  0  0  0  0  0
    5.5792    1.6933    1.0836 C   0  0  0  0  0  0  0  0  0  0  0  0
   -0.5876    0.1417   -1.1782 H   0  0  0  0  0  0  0  0  0  0  0  0
    1.1682   -1.6111   -1.2265 H   0  0  0  0  0  0  0  0  0  0  0  0
   -1.0142   -2.2232   -0.1765 H   0  0  0  0  0  0  0  0  0  0  0  0
   -0.3714    2.5397    0.6809 H   0  0  0  0  0  0  0  0  0  0  0  0
   -1.7301    2.2394   -0.3789 H   0  0  0  0  0  0  0  0  0  0  0  0
    1.7914    2.9812   -2.4687 H   0  0  0  0  0  0  0  0  0  0  0  0
    1.9239    3.0654   -0.7243 H   0  0  0  0  0  0  0  0  0  0  0  0
    1.9184   -0.6830   -2.9396 H   0  0  0  0  0  0  0  0  0  0  0  0
    2.0087    0.9431   -3.7168 H   0  0  0  0  0  0  0  0  0  0  0  0
    1.2299   -1.7574    1.8179 H   0  0  0  0  0  0  0  0  0  0  0  0
    1.0556   -3.0794    0.7157 H   0  0  0  0  0  0  0  0  0  0  0  0
   -3.2075   -0.7882    1.2811 H   0  0  0  0  0  0  0  0  0  0  0  0
   -0.5524    2.3366   -2.3602 H   0  0  0  0  0  0  0  0  0  0  0  0
   -0.3081    3.7998   -1.4093 H   0  0  0  0  0  0  0  0  0  0  0  0
    1.5954    1.9012    1.2646 H   0  0  0  0  0  0  0  0  0  0  0  0
    1.9271    0.2848    1.8898 H   0  0  0  0  0  0  0  0  0  0  0  0
   -1.6964   -0.2184    3.0044 H   0  0  0  0  0  0  0  0  0  0  0  0
   -1.1217    1.3139    2.3750 H   0  0  0  0  0  0  0  0  0  0  0  0
    0.0167    0.0223    2.7429 H   0  0  0  0  0  0  0  0  0  0  0  0
   -3.2323   -1.7406   -0.8443 H   0  0  0  0  0  0  0  0  0  0  0  0
   -2.1631   -0.6253   -1.6122 H   0  0  0  0  0  0  0  0  0  0  0  0
   -3.8308    0.6745   -2.2502 H   0  0  0  0  0  0  0  0  0  0  0  0
   -0.9954   -2.4748    2.8691 H   0  0  0  0  0  0  0  0  0  0  0  0
   -1.0174   -3.7838    1.6876 H   0  0  0  0  0  0  0  0  0  0  0  0
   -2.4105   -2.7233    1.8267 H   0  0  0  0  0  0  0  0  0  0  0  0
   -4.2465    2.2790   -0.5744 H   0  0  0  0  0  0  0  0  0  0  0  0
   -6.0584    0.1274   -2.0724 H   0  0  0  0  0  0  0  0  0  0  0  0
   -5.4387   -1.4758   -1.6323 H   0  0  0  0  0  0  0  0  0  0  0  0
   -7.1078   -0.0126   -0.0181 H   0  0  0  0  0  0  0  0  0  0  0  0
    5.3748   -1.9646   -0.9269 H   0  0  0  0  0  0  0  0  0  0  0  0
    5.1823   -3.7281   -1.0015 H   0  0  0  0  0  0  0  0  0  0  0  0
    5.0376   -2.9061    0.5664 H   0  0  0  0  0  0  0  0  0  0  0  0
   -6.4940   -1.2435    1.6060 H   0  0  0  0  0  0  0  0  0  0  0  0
    5.6063    2.3548    0.2141 H   0  0  0  0  0  0  0  0  0  0  0  0
    6.2264    2.1095    1.8608 H   0  0  0  0  0  0  0  0  0  0  0  0
    5.9449    0.6975    0.8209 H   0  0  0  0  0  0  0  0  0  0  0  0
  1 11  1  0  0  0  0
  1 17  1  0  0  0  0
  2 19  1  0  0  0  0
  2 26  1  0  0  0  0
  3 13  1  0  0  0  0
  3 29  1  0  0  0  0
  4 21  1  0  0  0  0
  4 30  1  0  0  0  0
  5 26  1  0  0  0  0
  5 28  1  0  0  0  0
  6 28  1  0  0  0  0
  6 65  1  0  0  0  0
  7 29  2  0  0  0  0
  8 30  2  0  0  0  0
  9 10  1  0  0  0  0
  9 11  1  0  0  0  0
  9 13  1  0  0  0  0
  9 21  1  0  0  0  0
 10 12  1  0  0  0  0
 10 15  1  0  0  0  0
 10 33  1  0  0  0  0
 11 16  1  0  0  0  0
 11 17  1  0  0  0  0
 12 14  1  0  0  0  0
 12 19  1  0  0  0  0
 12 22  1  0  0  0  0
 13 18  1  0  0  0  0
 13 34  1  0  0  0  0
 14 18  1  0  0  0  0
 14 25  1  0  0  0  0
 14 35  1  0  0  0  0
 15 20  1  0  0  0  0
 15 36  1  0  0  0  0
 15 37  1  0  0  0  0
 16 20  1  0  0  0  0
 16 38  1  0  0  0  0
 16 39  1  0  0  0  0
 17 40  1  0  0  0  0
 17 41  1  0  0  0  0
 18 42  1  0  0  0  0
 18 43  1  0  0  0  0
 19 23  1  0  0  0  0
 19 44  1  0  0  0  0
 20 45  1  0  0  0  0
 20 46  1  0  0  0  0
 21 47  1  0  0  0  0
 21 48  1  0  0  0  0
 22 49  1  0  0  0  0
 22 50  1  0  0  0  0
 22 51  1  0  0  0  0
 23 24  1  0  0  0  0
 23 52  1  0  0  0  0
 23 53  1  0  0  0  0
 24 26  1  0  0  0  0
 24 27  1  0  0  0  0
 24 54  1  0  0  0  0
 25 55  1  0  0  0  0
 25 56  1  0  0  0  0
 25 57  1  0  0  0  0
 26 58  1  0  0  0  0
 27 28  1  0  0  0  0
 27 59  1  0  0  0  0
 27 60  1  0  0  0  0
 28 61  1  0  0  0  0
 29 31  1  0  0  0  0
 30 32  1  0  0  0  0
 31 62  1  0  0  0  0
 31 63  1  0  0  0  0
 31 64  1  0  0  0  0
 32 66  1  0  0  0  0
 32 67  1  0  0  0  0
 32 68  1  0  0  0  0
M  END
> <PUBCHEM_COMPOUND_CID>
101985997

> <PUBCHEM_CONFORMER_RMSD>
1

> <PUBCHEM_CONFORMER_DIVERSEORDER>
2
4
5
1
3

> <PUBCHEM_MMFF94_PARTIAL_CHARGES>
24
1 -0.3
11 -0.04
13 0.28
16 0.09
17 -0.05
19 0.28
2 -0.56
21 0.28
26 0.56
28 0.56
29 0.66
3 -0.43
30 0.66
31 0.06
32 0.06
4 -0.43
40 0.1
41 0.1
5 -0.56
6 -0.68
65 0.4
7 -0.57
8 -0.57
9 0.09

> <PUBCHEM_EFFECTIVE_ROTOR_COUNT>
9

> <PUBCHEM_PHARMACOPHORE_FEATURES>
11
1 1 acceptor
1 2 acceptor
1 5 acceptor
1 6 acceptor
1 6 donor
1 7 acceptor
1 8 acceptor
5 2 19 23 24 26 rings
5 5 24 26 27 28 rings
6 9 10 11 15 16 20 rings
6 9 10 12 13 14 18 rings

> <PUBCHEM_HEAVY_ATOM_COUNT>
32

> <PUBCHEM_ATOM_DEF_STEREO_COUNT>
9

> <PUBCHEM_ATOM_UDEF_STEREO_COUNT>
1

> <PUBCHEM_BOND_DEF_STEREO_COUNT>
0

> <PUBCHEM_BOND_UDEF_STEREO_COUNT>
0

> <PUBCHEM_ISOTOPIC_ATOM_COUNT>
0

> <PUBCHEM_COMPONENT_COUNT>
1

> <PUBCHEM_CACTVS_TAUTO_COUNT>
4

> <PUBCHEM_CONFORMER_ID>
06142ECD00000002

> <PUBCHEM_MMFF94_ENERGY>
114.8331

> <PUBCHEM_FEATURE_SELFOVERLAP>
56.519

> <PUBCHEM_SHAPE_FINGERPRINT>
10165383 225 18271521005584414808
10906281 52 18114470040931201220
10930396 42 17895457161039267994
11421498 54 13901640678509186634
11578080 2 18058173988889478354
12156800 1 16338589527545305014
12236239 1 18202000998267230641
12422481 6 18194371486591716810
12633257 1 17604702395181546380
13140716 1 17971191675371525569
13533116 47 18202563960467477874
14068700 675 17987513702669741962
14863182 85 18408041827485218782
14955137 171 17385992983924012584
15081414 286 18408882936326486837
15219462 58 17915207717355265442
15238133 3 15647326390683148965
15840311 113 18129104429697735129
15849732 13 17095791200872540680
17349148 13 18260261992792218945
17357779 13 18117561730115343862
17909252 39 18340211773709124583
17980427 23 17897993883960330484
20600515 1 17530958107905680108
20691752 17 17459479848588774665
20775438 99 18338506534671150887
22149856 69 18263946431452347107
22182313 1 18043794425450277588
22393880 68 18117271463725518063
229495 10 17772723066690877380
23419403 2 18195793078128282260
23559900 14 18334305261991000622
23622692 88 16878214351005172760
25222932 49 16844152653529494063
3286 77 18129944455826520064
3380486 77 16226043353864072016
4340502 62 17917708049846701208
484989 97 17750541583705699107
495365 180 18273214214255949378
5104073 3 18130515154465186611
59755656 215 18411698782016570368
70251023 43 18194969538996681171
8509985 295 16660352697345408728

> <PUBCHEM_SHAPE_MULTIPOLES>
611.59
11.04
3.18
2.14
9.45
1.46
0.13
0.28
0.83
-3.4
-0.51
-1.8
-0.48
2

> <PUBCHEM_SHAPE_SELFOVERLAP>
1302.531

> <PUBCHEM_SHAPE_VOLUME>
336.1

> <PUBCHEM_COORDINATE_TYPE>
2
5
10

$$$$
