101925483
  -OEChem-03292013293D

 56 56  0     1  0  0  0  0  0999 V2000
   -0.7208    0.7486    1.5920 O   0  0  0  0  0  0  0  0  0  0  0  0
   -0.8439    3.4142    0.4809 N   0  0  0  0  0  0  0  0  0  0  0  0
    4.5452    0.2781   -0.2133 N   0  0  0  0  0  0  0  0  0  0  0  0
   -1.1411    0.2492   -0.6621 N   0  0  0  0  0  0  0  0  0  0  0  0
   -4.9857    6.0544    0.1147 N   0  0  0  0  0  0  0  0  0  0  0  0
    9.0374   -1.7344   -0.4258 N   0  0  0  0  0  0  0  0  0  0  0  0
   -3.6580   -4.7495   -0.3817 N   0  0  0  0  0  0  0  0  0  0  0  0
   -3.2962   -5.4203    0.6097 N   0  3  0  0  0  0  0  0  0  0  0  0
   -2.9698   -6.0376    1.5126 N   0  5  0  0  0  0  0  0  0  0  0  0
   -0.0477    2.3291   -0.0942 C   0  0  1  0  0  0  0  0  0  0  0  0
    1.4100    2.4433    0.3746 C   0  0  0  0  0  0  0  0  0  0  0  0
    2.2764    1.2837   -0.1372 C   0  0  0  0  0  0  0  0  0  0  0  0
    3.7310    1.3570    0.3333 C   0  0  0  0  0  0  0  0  0  0  0  0
   -2.0675    3.6122   -0.2795 C   0  0  0  0  0  0  0  0  0  0  0  0
   -0.6763    1.0246    0.3955 C   0  0  0  0  0  0  0  0  0  0  0  0
   -2.9238    4.7417    0.2975 C   0  0  0  0  0  0  0  0  0  0  0  0
    5.9231    0.3836    0.2455 C   0  0  0  0  0  0  0  0  0  0  0  0
    6.8025   -0.7331   -0.3211 C   0  0  0  0  0  0  0  0  0  0  0  0
   -4.2267    4.9571   -0.4748 C   0  0  0  0  0  0  0  0  0  0  0  0
    8.2518   -0.6548    0.1619 C   0  0  0  0  0  0  0  0  0  0  0  0
   -1.7769   -1.0136   -0.5912 C   0  0  0  0  0  0  0  0  0  0  0  0
   -2.0096   -1.6086    0.6487 C   0  0  0  0  0  0  0  0  0  0  0  0
   -2.1706   -1.6628   -1.7613 C   0  0  0  0  0  0  0  0  0  0  0  0
   -2.6360   -2.8529    0.7184 C   0  0  0  0  0  0  0  0  0  0  0  0
   -2.7970   -2.9071   -1.6915 C   0  0  0  0  0  0  0  0  0  0  0  0
   -3.0299   -3.5022   -0.4517 C   0  0  0  0  0  0  0  0  0  0  0  0
   -0.0457    2.3892   -1.1896 H   0  0  0  0  0  0  0  0  0  0  0  0
    1.8374    3.3926    0.0272 H   0  0  0  0  0  0  0  0  0  0  0  0
    1.4556    2.4567    1.4718 H   0  0  0  0  0  0  0  0  0  0  0  0
    1.8555    0.3262    0.1926 H   0  0  0  0  0  0  0  0  0  0  0  0
    2.2500    1.2797   -1.2346 H   0  0  0  0  0  0  0  0  0  0  0  0
    3.7493    1.3239    1.4298 H   0  0  0  0  0  0  0  0  0  0  0  0
    4.1475    2.3240    0.0255 H   0  0  0  0  0  0  0  0  0  0  0  0
   -0.3055    4.2804    0.4684 H   0  0  0  0  0  0  0  0  0  0  0  0
   -1.8300    3.8528   -1.3234 H   0  0  0  0  0  0  0  0  0  0  0  0
   -2.6722    2.6978   -0.2819 H   0  0  0  0  0  0  0  0  0  0  0  0
    4.1557   -0.6225    0.0633 H   0  0  0  0  0  0  0  0  0  0  0  0
   -2.3420    5.6732    0.2950 H   0  0  0  0  0  0  0  0  0  0  0  0
   -3.1559    4.5165    1.3471 H   0  0  0  0  0  0  0  0  0  0  0  0
    6.3443    1.3491   -0.0605 H   0  0  0  0  0  0  0  0  0  0  0  0
    5.9579    0.3401    1.3412 H   0  0  0  0  0  0  0  0  0  0  0  0
    6.7806   -0.6867   -1.4182 H   0  0  0  0  0  0  0  0  0  0  0  0
    6.3780   -1.7055   -0.0375 H   0  0  0  0  0  0  0  0  0  0  0  0
   -4.8316    4.0440   -0.4576 H   0  0  0  0  0  0  0  0  0  0  0  0
   -4.0078    5.1941   -1.5213 H   0  0  0  0  0  0  0  0  0  0  0  0
   -1.0194    0.6109   -1.6051 H   0  0  0  0  0  0  0  0  0  0  0  0
    8.2906   -0.7277    1.2542 H   0  0  0  0  0  0  0  0  0  0  0  0
    8.6917    0.3060   -0.1254 H   0  0  0  0  0  0  0  0  0  0  0  0
   -5.8729    6.1536   -0.3770 H   0  0  0  0  0  0  0  0  0  0  0  0
   -5.2185    5.8305    1.0814 H   0  0  0  0  0  0  0  0  0  0  0  0
   -1.7433   -1.1650    1.5975 H   0  0  0  0  0  0  0  0  0  0  0  0
   -1.9952   -1.2102   -2.7339 H   0  0  0  0  0  0  0  0  0  0  0  0
    8.6521   -2.6339   -0.1408 H   0  0  0  0  0  0  0  0  0  0  0  0
    9.9868   -1.7006   -0.0567 H   0  0  0  0  0  0  0  0  0  0  0  0
   -2.8220   -3.2644    1.7068 H   0  0  0  0  0  0  0  0  0  0  0  0
   -3.1004   -3.4057   -2.6084 H   0  0  0  0  0  0  0  0  0  0  0  0
  1 15  2  0  0  0  0
  2 10  1  0  0  0  0
  2 14  1  0  0  0  0
  2 34  1  0  0  0  0
  3 13  1  0  0  0  0
  3 17  1  0  0  0  0
  3 37  1  0  0  0  0
  4 15  1  0  0  0  0
  4 21  1  0  0  0  0
  4 46  1  0  0  0  0
  5 19  1  0  0  0  0
  5 49  1  0  0  0  0
  5 50  1  0  0  0  0
  6 20  1  0  0  0  0
  6 53  1  0  0  0  0
  6 54  1  0  0  0  0
  7  8  2  0  0  0  0
  7 26  1  0  0  0  0
  8  9  2  0  0  0  0
 10 11  1  0  0  0  0
 10 15  1  0  0  0  0
 10 27  1  0  0  0  0
 11 12  1  0  0  0  0
 11 28  1  0  0  0  0
 11 29  1  0  0  0  0
 12 13  1  0  0  0  0
 12 30  1  0  0  0  0
 12 31  1  0  0  0  0
 13 32  1  0  0  0  0
 13 33  1  0  0  0  0
 14 16  1  0  0  0  0
 14 35  1  0  0  0  0
 14 36  1  0  0  0  0
 16 19  1  0  0  0  0
 16 38  1  0  0  0  0
 16 39  1  0  0  0  0
 17 18  1  0  0  0  0
 17 40  1  0  0  0  0
 17 41  1  0  0  0  0
 18 20  1  0  0  0  0
 18 42  1  0  0  0  0
 18 43  1  0  0  0  0
 19 44  1  0  0  0  0
 19 45  1  0  0  0  0
 20 47  1  0  0  0  0
 20 48  1  0  0  0  0
 21 22  2  0  0  0  0
 21 23  1  0  0  0  0
 22 24  1  0  0  0  0
 22 51  1  0  0  0  0
 23 25  2  0  0  0  0
 23 52  1  0  0  0  0
 24 26  2  0  0  0  0
 24 55  1  0  0  0  0
 25 26  1  0  0  0  0
 25 56  1  0  0  0  0
M  CHG  2   8   1   9  -1
M  END
> <PUBCHEM_COMPOUND_CID>
101925483

> <PUBCHEM_CONFORMER_RMSD>
1.2

> <PUBCHEM_CONFORMER_DIVERSEORDER>
1
9
21
4
28
17
18
16
12
23
26
22
31
14
30
42
19
34
6
38
41
27
33
20
7
10
40
15
24
35
29
39
32
8
43
11
36
37
25
13
3
2
5

> <PUBCHEM_MMFF94_PARTIAL_CHARGES>
33
1 -0.57
10 0.33
13 0.27
14 0.27
15 0.57
17 0.27
19 0.27
2 -0.9
20 0.27
21 0.12
22 -0.15
23 -0.15
24 -0.15
25 -0.15
26 0.18
3 -0.9
34 0.36
37 0.36
4 -0.55
46 0.37
49 0.36
5 -0.99
50 0.36
51 0.15
52 0.15
53 0.36
54 0.36
55 0.15
56 0.15
6 -0.99
7 -0.5
8 0.69
9 -0.37

> <PUBCHEM_EFFECTIVE_ROTOR_COUNT>
15

> <PUBCHEM_PHARMACOPHORE_FEATURES>
11
1 1 acceptor
1 2 cation
1 2 donor
1 3 cation
1 3 donor
1 4 donor
1 5 cation
1 5 donor
1 6 cation
1 6 donor
6 21 22 23 24 25 26 rings

> <PUBCHEM_HEAVY_ATOM_COUNT>
26

> <PUBCHEM_ATOM_DEF_STEREO_COUNT>
1

> <PUBCHEM_ATOM_UDEF_STEREO_COUNT>
0

> <PUBCHEM_BOND_DEF_STEREO_COUNT>
0

> <PUBCHEM_BOND_UDEF_STEREO_COUNT>
0

> <PUBCHEM_ISOTOPIC_ATOM_COUNT>
0

> <PUBCHEM_COMPONENT_COUNT>
1

> <PUBCHEM_CACTVS_TAUTO_COUNT>
55

> <PUBCHEM_CONFORMER_ID>
0613426B00000001

> <PUBCHEM_MMFF94_ENERGY>
28.5073

> <PUBCHEM_FEATURE_SELFOVERLAP>
55.824

> <PUBCHEM_SHAPE_FINGERPRINT>
10050765 1 18411697721413973048
102385 1 18340483499385412912
11809386 21 18410285901169774290
11991303 11 18262803960401633436
12107183 9 18125739017678096587
12342043 65 17320696493566533019
13073987 5 8934991565800490388
13911852 28 18123750026348776606
13955234 65 16897650684579869601
13968360 50 17906165158136871437
14429380 30 18339363084789311502
14866123 147 18412546504991046785
15927050 60 18196367022485759599
17859628 70 17183908506395259811
1813 80 17839760483498211717
20505436 4 17824545171648658456
249057 25 12031490109423958384
4409770 3 18410854339822842149
484985 159 18408036308283600422
59025328 239 17053263336603351709
59755656 520 18195236729165828076
6431902 208 18341609344158566702
6669772 16 17910676466707675612
6677587 24 13249211094868248209
77188 2 17978508968615569381
7970288 3 18195245740407998290

> <PUBCHEM_SHAPE_MULTIPOLES>
489.35
15.76
9.78
1.13
57.09
1.13
0.12
4.4
1.43
-26.04
-1.81
-1.03
1.11
0.93

> <PUBCHEM_SHAPE_SELFOVERLAP>
965.201

> <PUBCHEM_SHAPE_VOLUME>
290.1

> <PUBCHEM_COORDINATE_TYPE>
2
5
10

$$$$
