101995634
  -OEChem-03292013293D

 65 67  0     1  0  0  0  0  0999 V2000
   -5.4558   -1.5390    0.8035 O   0  0  0  0  0  0  0  0  0  0  0  0
   -3.5302   -0.3771   -1.1896 O   0  0  0  0  0  0  0  0  0  0  0  0
   -5.0333    1.8695   -0.3814 O   0  0  0  0  0  0  0  0  0  0  0  0
   -3.2435   -0.6574    2.4476 O   0  0  0  0  0  0  0  0  0  0  0  0
   -6.9771    2.7682    0.4855 O   0  0  0  0  0  0  0  0  0  0  0  0
    5.7964    1.1620   -0.2870 O   0  0  0  0  0  0  0  0  0  0  0  0
    9.4999   -0.6912   -0.0666 O   0  0  0  0  0  0  0  0  0  0  0  0
    6.8574    3.1471   -0.5907 O   0  0  0  0  0  0  0  0  0  0  0  0
   -4.9645   -0.4396   -1.2305 C   0  0  2  0  0  0  0  0  0  0  0  0
   -5.1778   -0.1314    1.0480 C   0  0  2  0  0  0  0  0  0  0  0  0
   -5.5607    0.5657   -0.2577 C   0  0  1  0  0  0  0  0  0  0  0  0
   -5.5471   -1.7262   -0.6296 C   0  0  1  0  0  0  0  0  0  0  0  0
   -3.6606    0.0209    1.2628 C   0  0  2  0  0  0  0  0  0  0  0  0
   -2.8872   -0.5758    0.0746 C   0  0  2  0  0  0  0  0  0  0  0  0
   -5.3809   -0.2102   -2.6768 C   0  0  0  0  0  0  0  0  0  0  0  0
   -6.0040    0.3435    2.2355 C   0  0  0  0  0  0  0  0  0  0  0  0
   -4.9200   -3.0430   -1.0509 C   0  0  0  0  0  0  0  0  0  0  0  0
   -1.5136    0.0143   -0.0271 C   0  0  0  0  0  0  0  0  0  0  0  0
   -5.5263   -4.2189   -0.3031 C   0  0  0  0  0  0  0  0  0  0  0  0
   -5.8488    2.8935    0.0289 C   0  0  0  0  0  0  0  0  0  0  0  0
   -0.3284   -0.6108    0.0479 C   0  0  0  0  0  0  0  0  0  0  0  0
   -5.1616    4.2118   -0.1600 C   0  0  0  0  0  0  0  0  0  0  0  0
    0.9810   -0.0053   -0.0553 C   0  0  0  0  0  0  0  0  0  0  0  0
    2.1173   -0.7145    0.0325 C   0  0  0  0  0  0  0  0  0  0  0  0
    3.4308   -0.1164   -0.0710 C   0  0  0  0  0  0  0  0  0  0  0  0
    4.5648   -0.8261    0.0169 C   0  0  0  0  0  0  0  0  0  0  0  0
    5.8718   -0.2408   -0.0850 C   0  0  0  0  0  0  0  0  0  0  0  0
    7.0547   -0.8820   -0.0077 C   0  0  0  0  0  0  0  0  0  0  0  0
    8.2595   -0.0804   -0.1395 C   0  0  0  0  0  0  0  0  0  0  0  0
    7.2020   -2.3672    0.2046 C   0  0  0  0  0  0  0  0  0  0  0  0
    6.9141    1.9349   -0.4150 C   0  0  0  0  0  0  0  0  0  0  0  0
    8.2095    1.2423   -0.3315 C   0  0  0  0  0  0  0  0  0  0  0  0
    9.9620   -0.7202    1.2680 C   0  0  0  0  0  0  0  0  0  0  0  0
   -6.6525    0.5713   -0.3936 H   0  0  0  0  0  0  0  0  0  0  0  0
   -6.6229   -1.7766   -0.8497 H   0  0  0  0  0  0  0  0  0  0  0  0
   -3.4208    1.0826    1.4030 H   0  0  0  0  0  0  0  0  0  0  0  0
   -2.7700   -1.6532    0.2313 H   0  0  0  0  0  0  0  0  0  0  0  0
   -4.9486   -0.9739   -3.3325 H   0  0  0  0  0  0  0  0  0  0  0  0
   -5.0111    0.7560   -3.0383 H   0  0  0  0  0  0  0  0  0  0  0  0
   -6.4689   -0.2277   -2.7957 H   0  0  0  0  0  0  0  0  0  0  0  0
   -7.0758    0.2649    2.0222 H   0  0  0  0  0  0  0  0  0  0  0  0
   -5.7736    1.3774    2.5080 H   0  0  0  0  0  0  0  0  0  0  0  0
   -5.8232   -0.2890    3.1119 H   0  0  0  0  0  0  0  0  0  0  0  0
   -5.0624   -3.1897   -2.1276 H   0  0  0  0  0  0  0  0  0  0  0  0
   -3.8430   -3.0591   -0.8708 H   0  0  0  0  0  0  0  0  0  0  0  0
   -1.4974    1.0922   -0.1932 H   0  0  0  0  0  0  0  0  0  0  0  0
   -2.2939   -0.4872    2.5681 H   0  0  0  0  0  0  0  0  0  0  0  0
   -6.6099   -4.2649   -0.4524 H   0  0  0  0  0  0  0  0  0  0  0  0
   -5.0964   -5.1579   -0.6667 H   0  0  0  0  0  0  0  0  0  0  0  0
   -5.3278   -4.1562    0.7715 H   0  0  0  0  0  0  0  0  0  0  0  0
   -0.3405   -1.6880    0.2072 H   0  0  0  0  0  0  0  0  0  0  0  0
   -5.8210    5.0168    0.1766 H   0  0  0  0  0  0  0  0  0  0  0  0
   -4.9374    4.3633   -1.2188 H   0  0  0  0  0  0  0  0  0  0  0  0
   -4.2457    4.2392    0.4355 H   0  0  0  0  0  0  0  0  0  0  0  0
    1.0137    1.0703   -0.2109 H   0  0  0  0  0  0  0  0  0  0  0  0
    2.0756   -1.7904    0.1882 H   0  0  0  0  0  0  0  0  0  0  0  0
    3.4436    0.9588   -0.2308 H   0  0  0  0  0  0  0  0  0  0  0  0
    4.4916   -1.8961    0.1832 H   0  0  0  0  0  0  0  0  0  0  0  0
    7.4778   -2.5808    1.2419 H   0  0  0  0  0  0  0  0  0  0  0  0
    7.9781   -2.7775   -0.4515 H   0  0  0  0  0  0  0  0  0  0  0  0
    6.2955   -2.9329   -0.0224 H   0  0  0  0  0  0  0  0  0  0  0  0
    9.1084    1.8405   -0.4320 H   0  0  0  0  0  0  0  0  0  0  0  0
   10.9073   -1.2712    1.2878 H   0  0  0  0  0  0  0  0  0  0  0  0
    9.2647   -1.2310    1.9399 H   0  0  0  0  0  0  0  0  0  0  0  0
   10.1593    0.2918    1.6391 H   0  0  0  0  0  0  0  0  0  0  0  0
  1 10  1  0  0  0  0
  1 12  1  0  0  0  0
  2  9  1  0  0  0  0
  2 14  1  0  0  0  0
  3 11  1  0  0  0  0
  3 20  1  0  0  0  0
  4 13  1  0  0  0  0
  4 47  1  0  0  0  0
  5 20  2  0  0  0  0
  6 27  1  0  0  0  0
  6 31  1  0  0  0  0
  7 29  1  0  0  0  0
  7 33  1  0  0  0  0
  8 31  2  0  0  0  0
  9 11  1  0  0  0  0
  9 12  1  0  0  0  0
  9 15  1  0  0  0  0
 10 11  1  0  0  0  0
 10 13  1  0  0  0  0
 10 16  1  0  0  0  0
 11 34  1  0  0  0  0
 12 17  1  0  0  0  0
 12 35  1  0  0  0  0
 13 14  1  0  0  0  0
 13 36  1  0  0  0  0
 14 18  1  0  0  0  0
 14 37  1  0  0  0  0
 15 38  1  0  0  0  0
 15 39  1  0  0  0  0
 15 40  1  0  0  0  0
 16 41  1  0  0  0  0
 16 42  1  0  0  0  0
 16 43  1  0  0  0  0
 17 19  1  0  0  0  0
 17 44  1  0  0  0  0
 17 45  1  0  0  0  0
 18 21  2  0  0  0  0
 18 46  1  0  0  0  0
 19 48  1  0  0  0  0
 19 49  1  0  0  0  0
 19 50  1  0  0  0  0
 20 22  1  0  0  0  0
 21 23  1  0  0  0  0
 21 51  1  0  0  0  0
 22 52  1  0  0  0  0
 22 53  1  0  0  0  0
 22 54  1  0  0  0  0
 23 24  2  0  0  0  0
 23 55  1  0  0  0  0
 24 25  1  0  0  0  0
 24 56  1  0  0  0  0
 25 26  2  0  0  0  0
 25 57  1  0  0  0  0
 26 27  1  0  0  0  0
 26 58  1  0  0  0  0
 27 28  2  0  0  0  0
 28 29  1  0  0  0  0
 28 30  1  0  0  0  0
 29 32  2  0  0  0  0
 30 59  1  0  0  0  0
 30 60  1  0  0  0  0
 30 61  1  0  0  0  0
 31 32  1  0  0  0  0
 32 62  1  0  0  0  0
 33 63  1  0  0  0  0
 33 64  1  0  0  0  0
 33 65  1  0  0  0  0
M  END
> <PUBCHEM_COMPOUND_CID>
101995634

> <PUBCHEM_CONFORMER_RMSD>
1

> <PUBCHEM_CONFORMER_DIVERSEORDER>
1
4
10
11
7
12
9
2
5
3
6
8
13

> <PUBCHEM_MMFF94_PARTIAL_CHARGES>
37
1 -0.56
10 0.28
11 0.28
12 0.28
13 0.28
14 0.42
18 -0.29
2 -0.56
20 0.66
21 -0.15
22 0.06
23 -0.15
24 -0.15
25 -0.15
26 -0.15
27 0.08
28 -0.14
29 0.08
3 -0.43
30 0.14
31 0.71
32 -0.14
33 0.28
4 -0.68
46 0.15
47 0.4
5 -0.57
51 0.15
55 0.15
56 0.15
57 0.15
58 0.15
6 -0.23
62 0.15
7 -0.36
8 -0.57
9 0.28

> <PUBCHEM_EFFECTIVE_ROTOR_COUNT>
9.2

> <PUBCHEM_PHARMACOPHORE_FEATURES>
10
1 1 acceptor
1 19 hydrophobe
1 2 acceptor
1 4 acceptor
1 4 donor
1 5 acceptor
1 7 acceptor
1 8 acceptor
6 6 27 28 29 31 32 rings
8 1 2 9 10 11 12 13 14 rings

> <PUBCHEM_HEAVY_ATOM_COUNT>
33

> <PUBCHEM_ATOM_DEF_STEREO_COUNT>
6

> <PUBCHEM_ATOM_UDEF_STEREO_COUNT>
0

> <PUBCHEM_BOND_DEF_STEREO_COUNT>
3

> <PUBCHEM_BOND_UDEF_STEREO_COUNT>
0

> <PUBCHEM_ISOTOPIC_ATOM_COUNT>
0

> <PUBCHEM_COMPONENT_COUNT>
1

> <PUBCHEM_CACTVS_TAUTO_COUNT>
4

> <PUBCHEM_CONFORMER_ID>
0614547200000001

> <PUBCHEM_MMFF94_ENERGY>
105.9077

> <PUBCHEM_FEATURE_SELFOVERLAP>
50.752

> <PUBCHEM_SHAPE_FINGERPRINT>
10299344 5 18273498996547466366
11007060 377 18335138751586439250
11135926 11 18334008367939597406
11315181 36 18186518813554092087
12082328 90 18413105069746215207
12091667 2 18261112976200546515
125118 31 18334580131804051196
15021287 119 17967814993737277263
15183329 4 16343986910029782382
15554971 5 18201716271815725460
1577012 14 18342740724036782254
16989713 51 17560230466170504359
17093844 174 18412262818406884987
21360442 43 18337389439399837243
21756936 100 17968382252439662425
23081809 10 17988926678280027506
335507 130 18408890637513734038
4073 2 18334298668810396307
44280117 145 18338797922051779935
44802255 64 18201154348781436239
4625314 4 18342741785036408654
68570916 9 18337112375485336958
9831232 110 18130236943928209910
99344 41 18411417289955598654

> <PUBCHEM_SHAPE_MULTIPOLES>
632.17
32.74
3.5
1.45
73.28
1.13
0.18
3.15
1.16
-7.14
-0.64
-3.11
-0.19
-1.98

> <PUBCHEM_SHAPE_SELFOVERLAP>
1326.78

> <PUBCHEM_SHAPE_VOLUME>
356.4

> <PUBCHEM_COORDINATE_TYPE>
2
5
10

$$$$
