101991018
  -OEChem-03292013293D

 43 46  0     1  0  0  0  0  0999 V2000
    4.7351   -0.3381   -1.4994 O   0  0  0  0  0  0  0  0  0  0  0  0
    3.5174    2.1519   -1.4324 O   0  0  0  0  0  0  0  0  0  0  0  0
    0.9268   -0.2781    1.9269 O   0  0  0  0  0  0  0  0  0  0  0  0
    0.0514    1.0608    0.2259 O   0  0  0  0  0  0  0  0  0  0  0  0
   -1.4322   -0.6472   -0.3450 O   0  0  0  0  0  0  0  0  0  0  0  0
   -2.1399    2.6757    0.9992 O   0  0  0  0  0  0  0  0  0  0  0  0
   -4.5987    1.9654   -0.4604 O   0  0  0  0  0  0  0  0  0  0  0  0
   -5.0869   -0.8790   -0.2969 O   0  0  0  0  0  0  0  0  0  0  0  0
   -1.6798   -3.3803   -0.5003 O   0  0  0  0  0  0  0  0  0  0  0  0
    3.8697   -0.9712   -0.5533 C   0  0  2  0  0  0  0  0  0  0  0  0
    3.3279   -0.2230   -1.7267 C   0  0  1  0  0  0  0  0  0  0  0  0
    3.5908   -0.1790    0.6973 C   0  0  1  0  0  0  0  0  0  0  0  0
    2.4371    0.7764    0.2787 C   0  0  1  0  0  0  0  0  0  0  0  0
    2.6646    1.0291   -1.2328 C   0  0  1  0  0  0  0  0  0  0  0  0
    1.0714    0.1184    0.5567 C   0  0  1  0  0  0  0  0  0  0  0  0
    3.2317   -0.9804    1.9070 C   0  0  0  0  0  0  0  0  0  0  0  0
    2.0035   -0.9515    2.4353 C   0  0  0  0  0  0  0  0  0  0  0  0
   -1.2492    0.5191    0.4542 C   0  0  2  0  0  0  0  0  0  0  0  0
   -2.2762    1.5891    0.0838 C   0  0  1  0  0  0  0  0  0  0  0  0
   -3.7014    1.0405    0.1559 C   0  0  2  0  0  0  0  0  0  0  0  0
   -3.8186   -0.2941   -0.5804 C   0  0  1  0  0  0  0  0  0  0  0  0
   -2.7096   -1.2545   -0.1440 C   0  0  1  0  0  0  0  0  0  0  0  0
   -2.7350   -2.5497   -0.9493 C   0  0  0  0  0  0  0  0  0  0  0  0
    3.8024   -2.0455   -0.5096 H   0  0  0  0  0  0  0  0  0  0  0  0
    2.8581   -0.7447   -2.5435 H   0  0  0  0  0  0  0  0  0  0  0  0
    4.4769    0.4238    0.9371 H   0  0  0  0  0  0  0  0  0  0  0  0
    2.5045    1.7121    0.8496 H   0  0  0  0  0  0  0  0  0  0  0  0
    1.7306    1.2163   -1.7716 H   0  0  0  0  0  0  0  0  0  0  0  0
    0.9579   -0.7731   -0.0752 H   0  0  0  0  0  0  0  0  0  0  0  0
    4.0128   -1.5528    2.3977 H   0  0  0  0  0  0  0  0  0  0  0  0
    3.0677    2.9281   -1.0572 H   0  0  0  0  0  0  0  0  0  0  0  0
    1.7430   -1.4536    3.3562 H   0  0  0  0  0  0  0  0  0  0  0  0
   -1.3524    0.2657    1.5174 H   0  0  0  0  0  0  0  0  0  0  0  0
   -2.0688    1.9897   -0.9156 H   0  0  0  0  0  0  0  0  0  0  0  0
   -4.0314    0.9427    1.1968 H   0  0  0  0  0  0  0  0  0  0  0  0
   -3.7719   -0.1231   -1.6629 H   0  0  0  0  0  0  0  0  0  0  0  0
   -2.8082   -1.5143    0.9188 H   0  0  0  0  0  0  0  0  0  0  0  0
   -2.5722   -2.3504   -2.0138 H   0  0  0  0  0  0  0  0  0  0  0  0
   -3.6813   -3.0838   -0.8216 H   0  0  0  0  0  0  0  0  0  0  0  0
   -2.3224    2.3413    1.8939 H   0  0  0  0  0  0  0  0  0  0  0  0
   -4.3204    2.0871   -1.3841 H   0  0  0  0  0  0  0  0  0  0  0  0
   -5.1328   -1.0476    0.6597 H   0  0  0  0  0  0  0  0  0  0  0  0
   -1.7117   -4.1959   -1.0288 H   0  0  0  0  0  0  0  0  0  0  0  0
  1 10  1  0  0  0  0
  1 11  1  0  0  0  0
  2 14  1  0  0  0  0
  2 31  1  0  0  0  0
  3 15  1  0  0  0  0
  3 17  1  0  0  0  0
  4 15  1  0  0  0  0
  4 18  1  0  0  0  0
  5 18  1  0  0  0  0
  5 22  1  0  0  0  0
  6 19  1  0  0  0  0
  6 40  1  0  0  0  0
  7 20  1  0  0  0  0
  7 41  1  0  0  0  0
  8 21  1  0  0  0  0
  8 42  1  0  0  0  0
  9 23  1  0  0  0  0
  9 43  1  0  0  0  0
 10 11  1  0  0  0  0
 10 12  1  0  0  0  0
 10 24  1  0  0  0  0
 11 14  1  0  0  0  0
 11 25  1  0  0  0  0
 12 13  1  0  0  0  0
 12 16  1  0  0  0  0
 12 26  1  0  0  0  0
 13 14  1  0  0  0  0
 13 15  1  0  0  0  0
 13 27  1  0  0  0  0
 14 28  1  0  0  0  0
 15 29  1  0  0  0  0
 16 17  2  0  0  0  0
 16 30  1  0  0  0  0
 17 32  1  0  0  0  0
 18 19  1  0  0  0  0
 18 33  1  0  0  0  0
 19 20  1  0  0  0  0
 19 34  1  0  0  0  0
 20 21  1  0  0  0  0
 20 35  1  0  0  0  0
 21 22  1  0  0  0  0
 21 36  1  0  0  0  0
 22 23  1  0  0  0  0
 22 37  1  0  0  0  0
 23 38  1  0  0  0  0
 23 39  1  0  0  0  0
M  END
> <PUBCHEM_COMPOUND_CID>
101991018

> <PUBCHEM_CONFORMER_RMSD>
0.8

> <PUBCHEM_CONFORMER_DIVERSEORDER>
1
37
29
42
51
56
50
81
67
60
90
64
36
9
49
85
28
11
41
26
3
30
88
35
21
52
69
59
5
71
82
80
32
78
4
77
55
23
74
45
16
87
65
10
79
27
62
75
40
68
20
18
2
14
86
8
66
12
47
63
44
22
15
13
84
39
58
6
89
57
83
38
70
31
34
53
7
19
25
48
72
24
33
43
54
17
46
73
76
61

> <PUBCHEM_MMFF94_PARTIAL_CHARGES>
31
1 -0.3
10 -0.05
11 -0.05
12 0.23
14 0.38
15 0.56
16 -0.29
17 -0.07
18 0.56
19 0.28
2 -0.68
20 0.28
21 0.28
22 0.28
23 0.28
24 0.1
25 0.1
3 -0.36
30 0.15
31 0.4
32 0.15
4 -0.56
40 0.4
41 0.4
42 0.4
43 0.4
5 -0.56
6 -0.68
7 -0.68
8 -0.68
9 -0.68

> <PUBCHEM_EFFECTIVE_ROTOR_COUNT>
5

> <PUBCHEM_PHARMACOPHORE_FEATURES>
17
1 1 acceptor
1 2 acceptor
1 2 donor
1 3 acceptor
1 4 acceptor
1 5 acceptor
1 6 acceptor
1 6 donor
1 7 acceptor
1 7 donor
1 8 acceptor
1 8 donor
1 9 acceptor
1 9 donor
6 1 10 11 12 13 14 rings
6 3 12 13 15 16 17 rings
6 5 18 19 20 21 22 rings

> <PUBCHEM_HEAVY_ATOM_COUNT>
23

> <PUBCHEM_ATOM_DEF_STEREO_COUNT>
9

> <PUBCHEM_ATOM_UDEF_STEREO_COUNT>
2

> <PUBCHEM_BOND_DEF_STEREO_COUNT>
0

> <PUBCHEM_BOND_UDEF_STEREO_COUNT>
0

> <PUBCHEM_ISOTOPIC_ATOM_COUNT>
0

> <PUBCHEM_COMPONENT_COUNT>
1

> <PUBCHEM_CACTVS_TAUTO_COUNT>
1

> <PUBCHEM_CONFORMER_ID>
0614426A00000001

> <PUBCHEM_MMFF94_ENERGY>
67.6981

> <PUBCHEM_FEATURE_SELFOVERLAP>
86.432

> <PUBCHEM_SHAPE_FINGERPRINT>
10366900 7 16773805800414963404
11796584 16 17701546100136615894
12236239 1 18113896027225791432
12363563 72 15841560626336658518
12553582 1 18341324604452433011
12707595 3 15841841044751609332
12788726 201 18412830205024801433
13134695 92 15719931585315853040
14251757 5 18341339975929272047
14386348 63 17203608202895558630
16752209 62 18340475708519166851
18186145 218 17167867490992525348
19862831 5 18259705605300600644
20600515 1 18057863849380577977
20645476 183 18259705588542841519
20645477 70 16009025051903624370
21634736 98 18261396705966509276
21639500 275 16805038536619955536
23366157 5 17687183085390892723
23557571 272 18131061658635741344
23559900 14 18060699489968688888
23598291 2 17823695270054422616
238 59 17167865279126579168
3082319 5 18186804685954892864
338550 245 18337666399943439498
469060 322 14563954670506958827
474 4 17386293223987470052
59755656 215 18202278079593027543
602551 16 18201431480570550002
633830 44 17603877731807335156
9709674 26 17917140693109095775
9981440 41 17470176220459907628

> <PUBCHEM_SHAPE_MULTIPOLES>
420.51
9.54
2.42
1.74
2.74
0.62
0.57
-0.18
-2.75
2.4
-0.44
-2.36
0.32
-1.59

> <PUBCHEM_SHAPE_SELFOVERLAP>
896.764

> <PUBCHEM_SHAPE_VOLUME>
230.8

> <PUBCHEM_COORDINATE_TYPE>
2
5
10

$$$$
