101934919
  -OEChem-03292013293D

 26 27  0     1  0  0  0  0  0999 V2000
    3.8616   -0.3148    0.5557 Cl  0  0  0  0  0  0  0  0  0  0  0  0
   -3.5098   -1.0479    1.0367 Cl  0  0  0  0  0  0  0  0  0  0  0  0
    0.6618   -1.6365   -0.1425 S   0  0  0  0  0  0  0  0  0  0  0  0
    1.1896   -1.7799    1.2013 O   0  0  0  0  0  0  0  0  0  0  0  0
    0.6168   -2.7755   -1.0385 O   0  0  0  0  0  0  0  0  0  0  0  0
    1.7830    2.3262    1.0603 O   0  0  0  0  0  0  0  0  0  0  0  0
   -2.5323    1.9769    0.6253 O   0  0  0  0  0  0  0  0  0  0  0  0
   -1.5750    2.0470   -1.4423 O   0  0  0  0  0  0  0  0  0  0  0  0
    0.6247    0.8247   -0.3395 N   0  0  0  0  0  0  0  0  0  0  0  0
   -1.0235   -0.8827   -0.0248 C   0  0  2  0  0  0  0  0  0  0  0  0
    1.4096   -0.2443   -0.9790 C   0  0  1  0  0  0  0  0  0  0  0  0
   -0.6756    0.5912    0.2595 C   0  0  2  0  0  0  0  0  0  0  0  0
    2.6689    0.4918   -0.4833 C   0  0  1  0  0  0  0  0  0  0  0  0
    1.6929    1.4431    0.2381 C   0  0  0  0  0  0  0  0  0  0  0  0
   -1.8045   -1.5196    1.1256 C   0  0  0  0  0  0  0  0  0  0  0  0
   -1.7706   -1.1054   -1.3490 C   0  0  0  0  0  0  0  0  0  0  0  0
   -1.6175    1.6057   -0.3036 C   0  0  0  0  0  0  0  0  0  0  0  0
    1.2765   -0.2713   -2.0647 H   0  0  0  0  0  0  0  0  0  0  0  0
   -0.5521    0.7778    1.3341 H   0  0  0  0  0  0  0  0  0  0  0  0
    3.2101    1.0023   -1.2888 H   0  0  0  0  0  0  0  0  0  0  0  0
   -1.4148   -1.2309    2.1068 H   0  0  0  0  0  0  0  0  0  0  0  0
   -1.7687   -2.6125    1.0653 H   0  0  0  0  0  0  0  0  0  0  0  0
   -2.0076   -2.1664   -1.4924 H   0  0  0  0  0  0  0  0  0  0  0  0
   -1.1528   -0.8081   -2.2043 H   0  0  0  0  0  0  0  0  0  0  0  0
   -2.7036   -0.5412   -1.4367 H   0  0  0  0  0  0  0  0  0  0  0  0
   -3.1609    2.6433    0.2744 H   0  0  0  0  0  0  0  0  0  0  0  0
  1 13  1  0  0  0  0
  2 15  1  0  0  0  0
  3  4  2  0  0  0  0
  3  5  2  0  0  0  0
  3 10  1  0  0  0  0
  3 11  1  0  0  0  0
  6 14  2  0  0  0  0
  7 17  1  0  0  0  0
  7 26  1  0  0  0  0
  8 17  2  0  0  0  0
  9 11  1  0  0  0  0
  9 12  1  0  0  0  0
  9 14  1  0  0  0  0
 10 12  1  0  0  0  0
 10 15  1  0  0  0  0
 10 16  1  0  0  0  0
 11 13  1  0  0  0  0
 11 18  1  0  0  0  0
 12 17  1  0  0  0  0
 12 19  1  0  0  0  0
 13 14  1  0  0  0  0
 13 20  1  0  0  0  0
 15 21  1  0  0  0  0
 15 22  1  0  0  0  0
 16 23  1  0  0  0  0
 16 24  1  0  0  0  0
 16 25  1  0  0  0  0
M  END
> <PUBCHEM_COMPOUND_CID>
101934919

> <PUBCHEM_CONFORMER_RMSD>
0.6

> <PUBCHEM_CONFORMER_DIVERSEORDER>
1
7
3
6
2
4
5

> <PUBCHEM_MMFF94_PARTIAL_CHARGES>
17
1 -0.29
10 0.11
11 0.32
12 0.36
13 0.34
14 0.58
15 0.29
17 0.66
2 -0.29
26 0.5
3 1.1
4 -0.65
5 -0.65
6 -0.57
7 -0.65
8 -0.57
9 -0.59

> <PUBCHEM_EFFECTIVE_ROTOR_COUNT>
2.6

> <PUBCHEM_PHARMACOPHORE_FEATURES>
8
1 4 acceptor
1 5 acceptor
1 6 acceptor
1 7 acceptor
1 8 acceptor
3 7 8 17 anion
4 9 11 13 14 rings
7 3 9 10 11 12 13 14 rings

> <PUBCHEM_HEAVY_ATOM_COUNT>
17

> <PUBCHEM_ATOM_DEF_STEREO_COUNT>
3

> <PUBCHEM_ATOM_UDEF_STEREO_COUNT>
1

> <PUBCHEM_BOND_DEF_STEREO_COUNT>
0

> <PUBCHEM_BOND_UDEF_STEREO_COUNT>
0

> <PUBCHEM_ISOTOPIC_ATOM_COUNT>
0

> <PUBCHEM_COMPONENT_COUNT>
1

> <PUBCHEM_CACTVS_TAUTO_COUNT>
1

> <PUBCHEM_CONFORMER_ID>
0613674700000001

> <PUBCHEM_MMFF94_ENERGY>
40.9119

> <PUBCHEM_FEATURE_SELFOVERLAP>
44.317

> <PUBCHEM_SHAPE_FINGERPRINT>
11680986 33 18124322596891654398
12382932 28 18266457594817081602
12423570 1 17846228798935695598
12524768 44 17836932565624820524
13140716 1 18050849115619422746
13172582 1 17976825611806915203
13380535 21 18193295008519900191
13380535 76 18336823074587550311
13380536 237 18189877760825023693
14181834 199 17756975719281141022
14614273 12 18335137570686294637
15775835 57 18197788893121183682
16945 1 18199470033604984550
20511035 2 18191004743158654774
20588541 1 18265620874831821404
21501502 16 18262807259072997163
22344851 341 18117569430791362362
2334 1 17619065474779403870
23402539 116 18336541720202649055
23419403 2 14507293108047978540
23559900 14 18271525296440891902
241688 4 16179889935906417810
2748010 2 18411695504540162468
5084963 1 17604147137757275174
5255222 1 18263370200378708429
53812653 166 18340769239126329024
589210 1 18265340516683738115
81228 2 17905595954282876648

> <PUBCHEM_SHAPE_MULTIPOLES>
323.11
4.61
2.62
1.26
0.9
0.28
-0.12
-0.05
1.39
-0.47
-0.1
-0.34
-0.16
0.44

> <PUBCHEM_SHAPE_SELFOVERLAP>
650.62

> <PUBCHEM_SHAPE_VOLUME>
192.3

> <PUBCHEM_COORDINATE_TYPE>
2
5
10

$$$$
