101942830
  -OEChem-03292013293D

 59 63  0     1  0  0  0  0  0999 V2000
    1.7117    1.5688   -1.1635 O   0  0  0  0  0  0  0  0  0  0  0  0
   -2.4931    0.4427   -0.5068 O   0  0  0  0  0  0  0  0  0  0  0  0
   -3.2131    0.0781   -3.0684 O   0  0  0  0  0  0  0  0  0  0  0  0
    1.5415   -1.0145   -0.3019 O   0  0  0  0  0  0  0  0  0  0  0  0
    2.7140    5.3679    2.7216 O   0  0  0  0  0  0  0  0  0  0  0  0
   -4.6993    1.0157   -0.8283 O   0  0  0  0  0  0  0  0  0  0  0  0
    1.0221   -2.2726    1.5549 O   0  0  0  0  0  0  0  0  0  0  0  0
   -0.6845    1.9961   -1.0680 C   0  0  1  0  0  0  0  0  0  0  0  0
    0.4239    0.9114   -1.1674 C   0  0  1  0  0  0  0  0  0  0  0  0
   -2.0816    1.4624   -1.4109 C   0  0  1  0  0  0  0  0  0  0  0  0
   -0.5981    2.6990    0.2865 C   0  0  0  0  0  0  0  0  0  0  0  0
   -2.0787    0.9092   -2.8490 C   0  0  1  0  0  0  0  0  0  0  0  0
    0.2911    0.1672   -2.4807 C   0  0  0  0  0  0  0  0  0  0  0  0
    0.4435   -0.1633   -0.0598 C   0  0  0  0  0  0  0  0  0  0  0  0
    0.8324    3.0981    0.5402 C   0  0  0  0  0  0  0  0  0  0  0  0
   -0.8305    0.1569   -3.2179 C   0  0  0  0  0  0  0  0  0  0  0  0
    1.8875    2.5224   -0.1871 C   0  0  0  0  0  0  0  0  0  0  0  0
    1.1240    4.0485    1.5272 C   0  0  0  0  0  0  0  0  0  0  0  0
    3.2051    2.9246    0.0448 C   0  0  0  0  0  0  0  0  0  0  0  0
    2.4426    4.4379    1.7653 C   0  0  0  0  0  0  0  0  0  0  0  0
   -3.8344    0.3291   -0.3069 C   0  0  0  0  0  0  0  0  0  0  0  0
    3.4809    3.8802    1.0216 C   0  0  0  0  0  0  0  0  0  0  0  0
    1.7248   -2.0392    0.5837 C   0  0  0  0  0  0  0  0  0  0  0  0
   -4.1310   -0.7647    0.6522 C   0  0  0  0  0  0  0  0  0  0  0  0
    2.9086   -2.8580    0.2194 C   0  0  0  0  0  0  0  0  0  0  0  0
   -5.3286   -1.4731    0.5543 C   0  0  0  0  0  0  0  0  0  0  0  0
   -3.2109   -1.0849    1.6504 C   0  0  0  0  0  0  0  0  0  0  0  0
    3.2657   -3.9557    1.0026 C   0  0  0  0  0  0  0  0  0  0  0  0
    3.6628   -2.5302   -0.9071 C   0  0  0  0  0  0  0  0  0  0  0  0
   -5.6063   -2.5017    1.4546 C   0  0  0  0  0  0  0  0  0  0  0  0
   -3.4885   -2.1135    2.5508 C   0  0  0  0  0  0  0  0  0  0  0  0
   -4.6861   -2.8219    2.4529 C   0  0  0  0  0  0  0  0  0  0  0  0
    4.3771   -4.7256    0.6591 C   0  0  0  0  0  0  0  0  0  0  0  0
    4.7742   -3.2999   -1.2506 C   0  0  0  0  0  0  0  0  0  0  0  0
    5.1313   -4.3976   -0.4675 C   0  0  0  0  0  0  0  0  0  0  0  0
   -0.4530    2.7682   -1.8223 H   0  0  0  0  0  0  0  0  0  0  0  0
   -2.7851    2.3043   -1.3579 H   0  0  0  0  0  0  0  0  0  0  0  0
   -0.9456    2.0517    1.0996 H   0  0  0  0  0  0  0  0  0  0  0  0
   -1.2368    3.5906    0.2737 H   0  0  0  0  0  0  0  0  0  0  0  0
   -2.1596    1.7557   -3.5427 H   0  0  0  0  0  0  0  0  0  0  0  0
    1.1487   -0.3969   -2.8404 H   0  0  0  0  0  0  0  0  0  0  0  0
   -0.4712   -0.7634   -0.0637 H   0  0  0  0  0  0  0  0  0  0  0  0
    0.5668    0.2808    0.9333 H   0  0  0  0  0  0  0  0  0  0  0  0
   -0.8312   -0.3937   -4.1551 H   0  0  0  0  0  0  0  0  0  0  0  0
    0.3139    4.4886    2.1045 H   0  0  0  0  0  0  0  0  0  0  0  0
    4.0219    2.4905   -0.5257 H   0  0  0  0  0  0  0  0  0  0  0  0
   -3.2120   -0.1904   -4.0032 H   0  0  0  0  0  0  0  0  0  0  0  0
    4.5088    4.1839    1.2008 H   0  0  0  0  0  0  0  0  0  0  0  0
    1.8797    5.6469    3.1365 H   0  0  0  0  0  0  0  0  0  0  0  0
   -6.0542   -1.2379   -0.2200 H   0  0  0  0  0  0  0  0  0  0  0  0
   -2.2771   -0.5404    1.7603 H   0  0  0  0  0  0  0  0  0  0  0  0
    2.6911   -4.2278    1.8839 H   0  0  0  0  0  0  0  0  0  0  0  0
    3.4202   -1.6843   -1.5440 H   0  0  0  0  0  0  0  0  0  0  0  0
   -6.5385   -3.0538    1.3781 H   0  0  0  0  0  0  0  0  0  0  0  0
   -2.7735   -2.3609    3.3301 H   0  0  0  0  0  0  0  0  0  0  0  0
   -4.9024   -3.6224    3.1543 H   0  0  0  0  0  0  0  0  0  0  0  0
    4.6553   -5.5803    1.2687 H   0  0  0  0  0  0  0  0  0  0  0  0
    5.3619   -3.0450   -2.1277 H   0  0  0  0  0  0  0  0  0  0  0  0
    5.9967   -4.9970   -0.7350 H   0  0  0  0  0  0  0  0  0  0  0  0
  1  9  1  0  0  0  0
  1 17  1  0  0  0  0
  2 10  1  0  0  0  0
  2 21  1  0  0  0  0
  3 12  1  0  0  0  0
  3 47  1  0  0  0  0
  4 14  1  0  0  0  0
  4 23  1  0  0  0  0
  5 20  1  0  0  0  0
  5 49  1  0  0  0  0
  6 21  2  0  0  0  0
  7 23  2  0  0  0  0
  8  9  1  0  0  0  0
  8 10  1  0  0  0  0
  8 11  1  0  0  0  0
  8 36  1  0  0  0  0
  9 13  1  0  0  0  0
  9 14  1  0  0  0  0
 10 12  1  0  0  0  0
 10 37  1  0  0  0  0
 11 15  1  0  0  0  0
 11 38  1  0  0  0  0
 11 39  1  0  0  0  0
 12 16  1  0  0  0  0
 12 40  1  0  0  0  0
 13 16  2  0  0  0  0
 13 41  1  0  0  0  0
 14 42  1  0  0  0  0
 14 43  1  0  0  0  0
 15 17  2  0  0  0  0
 15 18  1  0  0  0  0
 16 44  1  0  0  0  0
 17 19  1  0  0  0  0
 18 20  2  0  0  0  0
 18 45  1  0  0  0  0
 19 22  2  0  0  0  0
 19 46  1  0  0  0  0
 20 22  1  0  0  0  0
 21 24  1  0  0  0  0
 22 48  1  0  0  0  0
 23 25  1  0  0  0  0
 24 26  2  0  0  0  0
 24 27  1  0  0  0  0
 25 28  2  0  0  0  0
 25 29  1  0  0  0  0
 26 30  1  0  0  0  0
 26 50  1  0  0  0  0
 27 31  2  0  0  0  0
 27 51  1  0  0  0  0
 28 33  1  0  0  0  0
 28 52  1  0  0  0  0
 29 34  2  0  0  0  0
 29 53  1  0  0  0  0
 30 32  2  0  0  0  0
 30 54  1  0  0  0  0
 31 32  1  0  0  0  0
 31 55  1  0  0  0  0
 32 56  1  0  0  0  0
 33 35  2  0  0  0  0
 33 57  1  0  0  0  0
 34 35  1  0  0  0  0
 34 58  1  0  0  0  0
 35 59  1  0  0  0  0
M  END
> <PUBCHEM_COMPOUND_CID>
101942830

> <PUBCHEM_CONFORMER_RMSD>
1

> <PUBCHEM_CONFORMER_DIVERSEORDER>
1
11
37
9
39
31
27
30
32
40
12
35
16
23
29
6
20
3
17
18
13
26
38
2
28
22
41
21
34
10
33
15
7
25
5
8
24
14
36
4
19

> <PUBCHEM_MMFF94_PARTIAL_CHARGES>
51
1 -0.36
10 0.28
11 0.14
12 0.42
13 -0.29
14 0.28
15 -0.14
16 -0.29
17 0.08
18 -0.15
19 -0.15
2 -0.43
20 0.08
21 0.63
22 -0.15
23 0.63
24 0.09
25 0.09
26 -0.15
27 -0.15
28 -0.15
29 -0.15
3 -0.68
30 -0.15
31 -0.15
32 -0.15
33 -0.15
34 -0.15
35 -0.15
4 -0.43
41 0.15
44 0.15
45 0.15
46 0.15
47 0.4
48 0.15
49 0.45
5 -0.53
50 0.15
51 0.15
52 0.15
53 0.15
54 0.15
55 0.15
56 0.15
57 0.15
58 0.15
59 0.15
6 -0.57
7 -0.57
9 0.42

> <PUBCHEM_EFFECTIVE_ROTOR_COUNT>
7.8

> <PUBCHEM_PHARMACOPHORE_FEATURES>
11
1 1 acceptor
1 3 acceptor
1 3 donor
1 5 donor
1 6 acceptor
1 7 acceptor
6 1 8 9 11 15 17 rings
6 15 17 18 19 20 22 rings
6 24 26 27 30 31 32 rings
6 25 28 29 33 34 35 rings
6 8 9 10 12 13 16 rings

> <PUBCHEM_HEAVY_ATOM_COUNT>
35

> <PUBCHEM_ATOM_DEF_STEREO_COUNT>
4

> <PUBCHEM_ATOM_UDEF_STEREO_COUNT>
0

> <PUBCHEM_BOND_DEF_STEREO_COUNT>
0

> <PUBCHEM_BOND_UDEF_STEREO_COUNT>
0

> <PUBCHEM_ISOTOPIC_ATOM_COUNT>
0

> <PUBCHEM_COMPONENT_COUNT>
1

> <PUBCHEM_CACTVS_TAUTO_COUNT>
6

> <PUBCHEM_CONFORMER_ID>
0613862E00000001

> <PUBCHEM_MMFF94_ENERGY>
110.1287

> <PUBCHEM_FEATURE_SELFOVERLAP>
55.883

> <PUBCHEM_SHAPE_FINGERPRINT>
10074138 170 17407405732757733864
10653451 467 18190186861606818026
10985338 8 16341492118004506417
11093857 51 17319604635216693991
11828042 74 11035836046993970448
12128747 34 18408602548651813237
12422481 6 17680696318267113441
12788726 201 17259601665726848660
14400156 147 17900582026795422166
14444916 359 18194966473355623344
14932702 115 17387402441845747903
15219462 58 18337670914687232589
15448158 6 17896044235423674619
15684970 41 18121469441838717594
161222 619 18265592425564467858
17909252 39 18189072986986067578
17974551 9 18336558123094254561
19315092 285 18128550430282228211
19611394 137 18261381210400207210
1979834 28 17682981125543031947
20028762 73 17617383222047234063
20101258 96 17841136772004217724
20775530 9 17894642439554659843
21120745 212 17910679757385788268
21796203 349 18199767898077202742
22440779 20 16907821772448411030
23559900 14 18113901559449806005
238918 7 17900825155997198090
244849 19 18262784242776015469
24941158 1 18340758342588428210
255183 313 17687168104170651896
2835447 4 17531257111235218130
3418910 222 18194404391354620390
4408954 87 17190674892337162114
4616759 239 17902498304354229690
469060 322 17541919324106611773
513202 73 17340131044286678222
5171179 24 18408040715131322211
6376802 137 18264220110446561586
6691757 9 17478019007031391832
6703917 75 17832447640658769468
86090 222 18045520843558375522

> <PUBCHEM_SHAPE_MULTIPOLES>
679.2
10.35
7.51
2.84
6.3
2.4
1.24
-13.8
-3.11
-12.89
-5.89
2.08
1.01
5.03

> <PUBCHEM_SHAPE_SELFOVERLAP>
1500.471

> <PUBCHEM_SHAPE_VOLUME>
358

> <PUBCHEM_COORDINATE_TYPE>
2
5
10

$$$$
