10199204
  -OEChem-03292013303D

 33 33  0     0  0  0  0  0  0999 V2000
   -0.2201    1.5891    0.6014 O   0  0  0  0  0  0  0  0  0  0  0  0
    1.4169   -2.9004    0.0665 O   0  0  0  0  0  0  0  0  0  0  0  0
   -4.6156    1.2890   -0.8139 O   0  0  0  0  0  0  0  0  0  0  0  0
   -3.7302    0.5386    1.1794 O   0  0  0  0  0  0  0  0  0  0  0  0
    4.5791    2.1904   -0.2020 O   0  0  0  0  0  0  0  0  0  0  0  0
    5.4703    0.1278   -0.4702 O   0  0  0  0  0  0  0  0  0  0  0  0
   -3.0650   -1.9597   -0.1722 C   0  0  0  0  0  0  0  0  0  0  0  0
    0.5710   -0.6658    0.3383 C   0  0  0  0  0  0  0  0  0  0  0  0
   -4.1600   -1.0060   -0.6520 C   0  0  0  0  0  0  0  0  0  0  0  0
   -1.6853   -1.4173   -0.4276 C   0  0  0  0  0  0  0  0  0  0  0  0
   -0.7899   -1.1871    0.5455 C   0  0  0  0  0  0  0  0  0  0  0  0
    0.7931    0.7044    0.3758 C   0  0  0  0  0  0  0  0  0  0  0  0
    1.6152   -1.5515    0.1077 C   0  0  0  0  0  0  0  0  0  0  0  0
    3.1389    0.3167   -0.0534 C   0  0  0  0  0  0  0  0  0  0  0  0
    2.0829    1.1981    0.1787 C   0  0  0  0  0  0  0  0  0  0  0  0
    2.9050   -1.0582   -0.0889 C   0  0  0  0  0  0  0  0  0  0  0  0
   -4.1199    0.3417    0.0365 C   0  0  0  0  0  0  0  0  0  0  0  0
    4.4836    0.8307   -0.2598 C   0  0  0  0  0  0  0  0  0  0  0  0
   -4.6701    2.6196   -0.2896 C   0  0  0  0  0  0  0  0  0  0  0  0
   -3.1655   -2.9151   -0.7005 H   0  0  0  0  0  0  0  0  0  0  0  0
   -3.2055   -2.1718    0.8949 H   0  0  0  0  0  0  0  0  0  0  0  0
   -5.1463   -1.4459   -0.4686 H   0  0  0  0  0  0  0  0  0  0  0  0
   -4.0530   -0.8561   -1.7336 H   0  0  0  0  0  0  0  0  0  0  0  0
   -1.4170   -1.2210   -1.4631 H   0  0  0  0  0  0  0  0  0  0  0  0
   -1.0481   -1.3849    1.5829 H   0  0  0  0  0  0  0  0  0  0  0  0
    2.2411    2.2731    0.2106 H   0  0  0  0  0  0  0  0  0  0  0  0
    3.7242   -1.7503   -0.2699 H   0  0  0  0  0  0  0  0  0  0  0  0
    0.1351    2.4943    0.5885 H   0  0  0  0  0  0  0  0  0  0  0  0
    2.2652   -3.3437   -0.1061 H   0  0  0  0  0  0  0  0  0  0  0  0
   -3.6646    2.9663   -0.0320 H   0  0  0  0  0  0  0  0  0  0  0  0
   -5.3276    2.6556    0.5842 H   0  0  0  0  0  0  0  0  0  0  0  0
   -5.0792    3.2738   -1.0640 H   0  0  0  0  0  0  0  0  0  0  0  0
    5.4999    2.4970   -0.3457 H   0  0  0  0  0  0  0  0  0  0  0  0
  1 12  1  0  0  0  0
  1 28  1  0  0  0  0
  2 13  1  0  0  0  0
  2 29  1  0  0  0  0
  3 17  1  0  0  0  0
  3 19  1  0  0  0  0
  4 17  2  0  0  0  0
  5 18  1  0  0  0  0
  5 33  1  0  0  0  0
  6 18  2  0  0  0  0
  7  9  1  0  0  0  0
  7 10  1  0  0  0  0
  7 20  1  0  0  0  0
  7 21  1  0  0  0  0
  8 11  1  0  0  0  0
  8 12  2  0  0  0  0
  8 13  1  0  0  0  0
  9 17  1  0  0  0  0
  9 22  1  0  0  0  0
  9 23  1  0  0  0  0
 10 11  2  0  0  0  0
 10 24  1  0  0  0  0
 11 25  1  0  0  0  0
 12 15  1  0  0  0  0
 13 16  2  0  0  0  0
 14 15  2  0  0  0  0
 14 16  1  0  0  0  0
 14 18  1  0  0  0  0
 15 26  1  0  0  0  0
 16 27  1  0  0  0  0
 19 30  1  0  0  0  0
 19 31  1  0  0  0  0
 19 32  1  0  0  0  0
M  END
> <PUBCHEM_COMPOUND_CID>
10199204

> <PUBCHEM_CONFORMER_RMSD>
0.8

> <PUBCHEM_CONFORMER_DIVERSEORDER>
1
9
5
15
8
4
10
16
3
18
6
11
13
14
12
2
7
19
17

> <PUBCHEM_MMFF94_PARTIAL_CHARGES>
26
1 -0.53
10 -0.29
11 -0.18
12 0.08
13 0.08
14 0.09
15 -0.15
16 -0.15
17 0.66
18 0.63
19 0.28
2 -0.53
24 0.15
25 0.15
26 0.15
27 0.15
28 0.45
29 0.45
3 -0.43
33 0.5
4 -0.57
5 -0.65
6 -0.57
7 0.14
8 0.03
9 0.06

> <PUBCHEM_EFFECTIVE_ROTOR_COUNT>
6

> <PUBCHEM_PHARMACOPHORE_FEATURES>
7
1 1 donor
1 2 donor
1 4 acceptor
1 5 acceptor
1 6 acceptor
3 5 6 18 anion
6 8 12 13 14 15 16 rings

> <PUBCHEM_HEAVY_ATOM_COUNT>
19

> <PUBCHEM_ATOM_DEF_STEREO_COUNT>
0

> <PUBCHEM_ATOM_UDEF_STEREO_COUNT>
0

> <PUBCHEM_BOND_DEF_STEREO_COUNT>
1

> <PUBCHEM_BOND_UDEF_STEREO_COUNT>
0

> <PUBCHEM_ISOTOPIC_ATOM_COUNT>
0

> <PUBCHEM_COMPONENT_COUNT>
1

> <PUBCHEM_CACTVS_TAUTO_COUNT>
7

> <PUBCHEM_CONFORMER_ID>
009BA0A400000001

> <PUBCHEM_MMFF94_ENERGY>
45.3429

> <PUBCHEM_FEATURE_SELFOVERLAP>
35.581

> <PUBCHEM_SHAPE_FINGERPRINT>
116883 192 17841717304958169855
12670543 26 18412835681419249350
12788726 201 17345194394396207953
12954195 1 17844829013728910932
13464514 151 18408322181069568819
14251764 75 18197223542862280289
14790565 3 18264491857258990700
15196674 1 18410854339447795575
15239154 128 18407760343607356389
1601671 61 18409446986139351108
17834072 32 18339080364050259597
17959699 21 18408605881192597628
19784866 34 18335136514040157906
19784866 9 18335134285184201162
200 152 16702310061261489194
20645477 70 17989216914710882886
21120745 212 15732311776274718083
21279426 13 18340773654695587910
21304253 335 18187651335963246260
21421861 104 17751629962566864242
21637258 2 14620525476343795982
221357 26 18272364330554006199
22393880 68 18273209828566845535
23402539 116 18271524295127975526
23402655 69 18341611482260397813
23559900 14 18271805662604442154
25 1 18335697260548872738
34934 24 18411134706143621939
350125 39 18340771546161953515
3545911 37 18412545431608133131
5104073 3 18334010583973450099
543358 83 18339361859979482834
59755656 215 18339929212944419398

> <PUBCHEM_SHAPE_MULTIPOLES>
355.8
10.9
2.58
0.78
0.76
0.07
-0.05
5.73
2.15
1.18
0.14
0.39
0.04
-0.12

> <PUBCHEM_SHAPE_SELFOVERLAP>
739.539

> <PUBCHEM_SHAPE_VOLUME>
202.2

> <PUBCHEM_COORDINATE_TYPE>
2
5
10

$$$$
