101911865
  -OEChem-03292013293D

 56 59  0     1  0  0  0  0  0999 V2000
    0.7421    1.4418    0.1768 O   0  0  0  0  0  0  0  0  0  0  0  0
   -3.0051    1.7733   -1.4854 O   0  0  0  0  0  0  0  0  0  0  0  0
    0.2675   -0.8602   -1.4636 O   0  0  0  0  0  0  0  0  0  0  0  0
    4.8865   -2.0240   -0.7702 O   0  0  0  0  0  0  0  0  0  0  0  0
    2.4354   -2.5616   -1.8985 O   0  0  0  0  0  0  0  0  0  0  0  0
   -1.6253   -3.2970    2.1257 O   0  0  0  0  0  0  0  0  0  0  0  0
   -1.2403    0.9111   -2.6074 O   0  0  0  0  0  0  0  0  0  0  0  0
    2.8354    2.0197    1.2966 C   0  0  2  0  0  0  0  0  0  0  0  0
    1.4562    2.5318    0.8202 C   0  0  1  0  0  0  0  0  0  0  0  0
    2.9366    0.7895    0.4685 C   0  0  0  0  0  0  0  0  0  0  0  0
   -4.1875    0.4530    0.2159 C   0  0  1  0  0  0  0  0  0  0  0  0
    1.7099    0.5166   -0.1161 C   0  0  0  0  0  0  0  0  0  0  0  0
   -2.9655   -0.4252    0.2632 C   0  0  0  0  0  0  0  0  0  0  0  0
   -3.7720    1.8496   -0.2606 C   0  0  1  0  0  0  0  0  0  0  0  0
    4.0177   -0.0518    0.2691 C   0  0  0  0  0  0  0  0  0  0  0  0
    2.8443    1.6940    2.7870 C   0  0  0  0  0  0  0  0  0  0  0  0
    1.5071   -0.5990   -0.9058 C   0  0  0  0  0  0  0  0  0  0  0  0
   -1.9184   -0.2118   -0.6420 C   0  0  0  0  0  0  0  0  0  0  0  0
    1.5735    3.6777   -0.1841 C   0  0  0  0  0  0  0  0  0  0  0  0
   -2.8669   -1.4678    1.1940 C   0  0  0  0  0  0  0  0  0  0  0  0
   -0.7846   -1.0315   -0.6140 C   0  0  0  0  0  0  0  0  0  0  0  0
   -5.2373   -0.1663   -0.7128 C   0  0  0  0  0  0  0  0  0  0  0  0
    3.8388   -1.1809   -0.5343 C   0  0  0  0  0  0  0  0  0  0  0  0
    2.5904   -1.4538   -1.1164 C   0  0  0  0  0  0  0  0  0  0  0  0
   -2.0102    0.8631   -1.6569 C   0  0  0  0  0  0  0  0  0  0  0  0
   -2.9880    2.6518    0.7781 C   0  0  0  0  0  0  0  0  0  0  0  0
    5.3568    0.2383    0.8557 C   0  0  0  0  0  0  0  0  0  0  0  0
   -1.7343   -2.2812    1.2235 C   0  0  0  0  0  0  0  0  0  0  0  0
   -0.6948   -2.0627    0.3214 C   0  0  0  0  0  0  0  0  0  0  0  0
   -3.9678   -1.7364    2.1725 C   0  0  0  0  0  0  0  0  0  0  0  0
    3.6256    2.7426    1.0668 H   0  0  0  0  0  0  0  0  0  0  0  0
    0.8461    2.8759    1.6641 H   0  0  0  0  0  0  0  0  0  0  0  0
   -4.6334    0.5672    1.2104 H   0  0  0  0  0  0  0  0  0  0  0  0
   -4.6740    2.4248   -0.5028 H   0  0  0  0  0  0  0  0  0  0  0  0
    2.0566    0.9789    3.0516 H   0  0  0  0  0  0  0  0  0  0  0  0
    2.6826    2.6032    3.3759 H   0  0  0  0  0  0  0  0  0  0  0  0
    3.7990    1.2603    3.1009 H   0  0  0  0  0  0  0  0  0  0  0  0
    2.1337    3.3734   -1.0750 H   0  0  0  0  0  0  0  0  0  0  0  0
    2.0694    4.5443    0.2633 H   0  0  0  0  0  0  0  0  0  0  0  0
    0.5789    3.9821   -0.5280 H   0  0  0  0  0  0  0  0  0  0  0  0
   -4.8672   -0.2649   -1.7397 H   0  0  0  0  0  0  0  0  0  0  0  0
   -5.5394   -1.1646   -0.3817 H   0  0  0  0  0  0  0  0  0  0  0  0
   -6.1370    0.4579   -0.7425 H   0  0  0  0  0  0  0  0  0  0  0  0
   -2.0352    2.1784    1.0343 H   0  0  0  0  0  0  0  0  0  0  0  0
   -3.5693    2.7808    1.6961 H   0  0  0  0  0  0  0  0  0  0  0  0
   -2.7424    3.6425    0.3800 H   0  0  0  0  0  0  0  0  0  0  0  0
    5.6100   -0.5059    1.6179 H   0  0  0  0  0  0  0  0  0  0  0  0
    6.1293    0.2446    0.0788 H   0  0  0  0  0  0  0  0  0  0  0  0
    5.4032    1.2222    1.3310 H   0  0  0  0  0  0  0  0  0  0  0  0
    0.1779   -2.7111    0.3437 H   0  0  0  0  0  0  0  0  0  0  0  0
   -4.9269   -1.8690    1.6646 H   0  0  0  0  0  0  0  0  0  0  0  0
   -3.8112   -2.6475    2.7583 H   0  0  0  0  0  0  0  0  0  0  0  0
   -4.0463   -0.9101    2.8870 H   0  0  0  0  0  0  0  0  0  0  0  0
    5.6430   -1.8140   -0.2013 H   0  0  0  0  0  0  0  0  0  0  0  0
    1.5153   -2.5889   -2.2138 H   0  0  0  0  0  0  0  0  0  0  0  0
   -0.7738   -3.7487    1.9965 H   0  0  0  0  0  0  0  0  0  0  0  0
  1  9  1  0  0  0  0
  1 12  1  0  0  0  0
  2 14  1  0  0  0  0
  2 25  1  0  0  0  0
  3 17  1  0  0  0  0
  3 21  1  0  0  0  0
  4 23  1  0  0  0  0
  4 54  1  0  0  0  0
  5 24  1  0  0  0  0
  5 55  1  0  0  0  0
  6 28  1  0  0  0  0
  6 56  1  0  0  0  0
  7 25  2  0  0  0  0
  8  9  1  0  0  0  0
  8 10  1  0  0  0  0
  8 16  1  0  0  0  0
  8 31  1  0  0  0  0
  9 19  1  0  0  0  0
  9 32  1  0  0  0  0
 10 12  1  0  0  0  0
 10 15  2  0  0  0  0
 11 13  1  0  0  0  0
 11 14  1  0  0  0  0
 11 22  1  0  0  0  0
 11 33  1  0  0  0  0
 12 17  2  0  0  0  0
 13 18  1  0  0  0  0
 13 20  2  0  0  0  0
 14 26  1  0  0  0  0
 14 34  1  0  0  0  0
 15 23  1  0  0  0  0
 15 27  1  0  0  0  0
 16 35  1  0  0  0  0
 16 36  1  0  0  0  0
 16 37  1  0  0  0  0
 17 24  1  0  0  0  0
 18 21  2  0  0  0  0
 18 25  1  0  0  0  0
 19 38  1  0  0  0  0
 19 39  1  0  0  0  0
 19 40  1  0  0  0  0
 20 28  1  0  0  0  0
 20 30  1  0  0  0  0
 21 29  1  0  0  0  0
 22 41  1  0  0  0  0
 22 42  1  0  0  0  0
 22 43  1  0  0  0  0
 23 24  2  0  0  0  0
 26 44  1  0  0  0  0
 26 45  1  0  0  0  0
 26 46  1  0  0  0  0
 27 47  1  0  0  0  0
 27 48  1  0  0  0  0
 27 49  1  0  0  0  0
 28 29  2  0  0  0  0
 29 50  1  0  0  0  0
 30 51  1  0  0  0  0
 30 52  1  0  0  0  0
 30 53  1  0  0  0  0
M  END
> <PUBCHEM_COMPOUND_CID>
101911865

> <PUBCHEM_CONFORMER_RMSD>
0.8

> <PUBCHEM_CONFORMER_DIVERSEORDER>
1
6
8
5
7
3
4
2

> <PUBCHEM_MMFF94_PARTIAL_CHARGES>
30
1 -0.36
10 -0.14
11 0.14
12 0.08
13 -0.14
14 0.28
15 -0.14
17 0.08
18 0.09
2 -0.43
20 -0.14
21 0.08
23 0.08
24 0.08
25 0.63
27 0.14
28 0.08
29 -0.15
3 -0.17
30 0.14
4 -0.53
5 -0.53
50 0.15
54 0.45
55 0.45
56 0.45
6 -0.53
7 -0.57
8 0.14
9 0.28

> <PUBCHEM_EFFECTIVE_ROTOR_COUNT>
3.2

> <PUBCHEM_PHARMACOPHORE_FEATURES>
10
1 1 acceptor
1 3 acceptor
1 4 donor
1 5 donor
1 6 donor
1 7 acceptor
5 1 8 9 10 12 rings
6 10 12 15 17 23 24 rings
6 13 18 20 21 28 29 rings
6 2 11 13 14 18 25 rings

> <PUBCHEM_HEAVY_ATOM_COUNT>
30

> <PUBCHEM_ATOM_DEF_STEREO_COUNT>
4

> <PUBCHEM_ATOM_UDEF_STEREO_COUNT>
0

> <PUBCHEM_BOND_DEF_STEREO_COUNT>
0

> <PUBCHEM_BOND_UDEF_STEREO_COUNT>
0

> <PUBCHEM_ISOTOPIC_ATOM_COUNT>
0

> <PUBCHEM_COMPONENT_COUNT>
1

> <PUBCHEM_CACTVS_TAUTO_COUNT>
96

> <PUBCHEM_CONFORMER_ID>
06130D3900000001

> <PUBCHEM_MMFF94_ENERGY>
105.8485

> <PUBCHEM_FEATURE_SELFOVERLAP>
50.892

> <PUBCHEM_SHAPE_FINGERPRINT>
10165383 225 17825682049344008365
10366900 7 18411706516625066127
10369192 42 17975984486177448316
1100329 8 16609416386822446454
11640471 11 16200154343270212766
12107698 1 18059570235993088029
12156800 1 16188403699422416956
12166972 35 16415192364991511242
12236239 1 16128655236793956623
12293681 4 18268437832201341304
12422481 6 18054762200963543216
12633257 1 18115290297742501920
12788726 201 17909270179136545962
13402501 40 18411416172525123276
13583140 156 17703506709208953207
13726171 33 18115891705334868716
14223421 5 18120380014429271811
14251757 17 18340207401395202090
15295992 7 18272091578249828289
1601671 61 18272929445403410368
17349148 13 14620794903262079012
17980427 23 13973677326487724994
19049666 15 18410862031454771275
19930381 70 18131064922889799471
20554085 129 17823400618861982837
20600515 1 18041572350957509781
21033648 29 18341601620762519377
21475661 188 18269832030553115285
21792961 116 18338812126511032278
22122407 14 17346054307077967233
23175994 123 18271817756873255758
23559900 14 18187651344394587189
24893992 56 18192151496071392129
350125 39 17842831394084555414
35225 105 17749933545016201681
392239 28 18339095834743792257
469060 322 17267203049361029851
5081480 168 16771583649098503356
508706 21 18260827060433432109
5265222 85 17968675899354287438
57527295 17 18125448509678488511
602551 16 17822013103316420742
6287921 2 17753904014400524204
7226269 152 18120935010694305934
9709674 26 18339360876463438627
9981440 41 17483357057977981008

> <PUBCHEM_SHAPE_MULTIPOLES>
576.3
9.34
3.42
2.03
1.27
0.87
0.41
-0.48
1.38
0.38
0.79
-0.38
-0.35
2.99

> <PUBCHEM_SHAPE_SELFOVERLAP>
1273.37

> <PUBCHEM_SHAPE_VOLUME>
310.5

> <PUBCHEM_COORDINATE_TYPE>
2
5
10

$$$$
