101996836
  -OEChem-03292013293D

 41 43  0     1  0  0  0  0  0999 V2000
   -1.1847    0.6610    1.5287 O   0  0  0  0  0  0  0  0  0  0  0  0
   -0.5430   -0.9967   -1.1008 O   0  0  0  0  0  0  0  0  0  0  0  0
   -2.7261   -2.4929    0.6588 O   0  0  0  0  0  0  0  0  0  0  0  0
    1.8327   -0.8001    1.6863 O   0  0  0  0  0  0  0  0  0  0  0  0
   -2.6010   -1.2582   -2.0715 O   0  0  0  0  0  0  0  0  0  0  0  0
    1.7805    1.8046    1.3421 O   0  0  0  0  0  0  0  0  0  0  0  0
    4.0682    0.6656   -1.3375 O   0  0  0  0  0  0  0  0  0  0  0  0
    4.3357   -0.3787    0.6656 O   0  0  0  0  0  0  0  0  0  0  0  0
   -1.1729   -0.7146    1.1493 C   0  0  1  0  0  0  0  0  0  0  0  0
   -2.3926   -1.1487    0.3567 C   0  0  2  0  0  0  0  0  0  0  0  0
   -0.0229   -1.1159    0.2298 C   0  0  2  0  0  0  0  0  0  0  0  0
    1.3166   -0.3896    0.4168 C   0  0  2  0  0  0  0  0  0  0  0  0
   -3.5714   -0.2280    0.5920 C   0  0  0  0  0  0  0  0  0  0  0  0
   -1.7772    1.6157    0.6430 C   0  0  2  0  0  0  0  0  0  0  0  0
   -3.2179    1.2138    0.2574 C   0  0  0  0  0  0  0  0  0  0  0  0
   -1.9025   -1.1457   -1.0754 C   0  0  0  0  0  0  0  0  0  0  0  0
    2.3303   -0.7849   -0.6606 C   0  0  2  0  0  0  0  0  0  0  0  0
    1.2185    1.1342    0.4764 C   0  0  0  0  0  0  0  0  0  0  0  0
   -0.8578    2.0669   -0.4963 C   0  0  0  0  0  0  0  0  0  0  0  0
    0.4639    1.8318   -0.5874 C   0  0  0  0  0  0  0  0  0  0  0  0
    2.4354   -2.3015   -0.7682 C   0  0  0  0  0  0  0  0  0  0  0  0
    3.6748   -0.1692   -0.3413 C   0  0  0  0  0  0  0  0  0  0  0  0
   -1.4867    2.9311   -1.5637 C   0  0  0  0  0  0  0  0  0  0  0  0
   -1.0797   -1.2721    2.0888 H   0  0  0  0  0  0  0  0  0  0  0  0
    0.1327   -2.1912    0.3980 H   0  0  0  0  0  0  0  0  0  0  0  0
   -3.8826   -0.2971    1.6429 H   0  0  0  0  0  0  0  0  0  0  0  0
   -4.4436   -0.5460    0.0075 H   0  0  0  0  0  0  0  0  0  0  0  0
   -1.8826    2.5205    1.2582 H   0  0  0  0  0  0  0  0  0  0  0  0
   -3.4185    1.3862   -0.8043 H   0  0  0  0  0  0  0  0  0  0  0  0
   -3.9241    1.8689    0.7846 H   0  0  0  0  0  0  0  0  0  0  0  0
    2.0083   -0.4049   -1.6394 H   0  0  0  0  0  0  0  0  0  0  0  0
   -2.9425   -2.5428    1.6055 H   0  0  0  0  0  0  0  0  0  0  0  0
    1.0606    2.2187   -1.4070 H   0  0  0  0  0  0  0  0  0  0  0  0
    1.1875   -0.5568    2.3716 H   0  0  0  0  0  0  0  0  0  0  0  0
    2.6030   -2.7781    0.2036 H   0  0  0  0  0  0  0  0  0  0  0  0
    3.2886   -2.5742   -1.4010 H   0  0  0  0  0  0  0  0  0  0  0  0
    1.5502   -2.7474   -1.2312 H   0  0  0  0  0  0  0  0  0  0  0  0
   -0.7371    3.4600   -2.1631 H   0  0  0  0  0  0  0  0  0  0  0  0
   -2.1278    3.6942   -1.1100 H   0  0  0  0  0  0  0  0  0  0  0  0
   -2.0842    2.3255   -2.2516 H   0  0  0  0  0  0  0  0  0  0  0  0
    4.9390    1.0756   -1.1483 H   0  0  0  0  0  0  0  0  0  0  0  0
  1  9  1  0  0  0  0
  1 14  1  0  0  0  0
  2 11  1  0  0  0  0
  2 16  1  0  0  0  0
  3 10  1  0  0  0  0
  3 32  1  0  0  0  0
  4 12  1  0  0  0  0
  4 34  1  0  0  0  0
  5 16  2  0  0  0  0
  6 18  2  0  0  0  0
  7 22  1  0  0  0  0
  7 41  1  0  0  0  0
  8 22  2  0  0  0  0
  9 10  1  0  0  0  0
  9 11  1  0  0  0  0
  9 24  1  0  0  0  0
 10 13  1  0  0  0  0
 10 16  1  0  0  0  0
 11 12  1  0  0  0  0
 11 25  1  0  0  0  0
 12 17  1  0  0  0  0
 12 18  1  0  0  0  0
 13 15  1  0  0  0  0
 13 26  1  0  0  0  0
 13 27  1  0  0  0  0
 14 15  1  0  0  0  0
 14 19  1  0  0  0  0
 14 28  1  0  0  0  0
 15 29  1  0  0  0  0
 15 30  1  0  0  0  0
 17 21  1  0  0  0  0
 17 22  1  0  0  0  0
 17 31  1  0  0  0  0
 18 20  1  0  0  0  0
 19 20  2  0  0  0  0
 19 23  1  0  0  0  0
 20 33  1  0  0  0  0
 21 35  1  0  0  0  0
 21 36  1  0  0  0  0
 21 37  1  0  0  0  0
 23 38  1  0  0  0  0
 23 39  1  0  0  0  0
 23 40  1  0  0  0  0
M  END
> <PUBCHEM_COMPOUND_CID>
101996836

> <PUBCHEM_CONFORMER_RMSD>
0.6

> <PUBCHEM_CONFORMER_DIVERSEORDER>
1
10
7
9
11
6
2
12
4
5
3
8

> <PUBCHEM_MMFF94_PARTIAL_CHARGES>
24
1 -0.56
10 0.34
11 0.28
12 0.34
14 0.42
16 0.66
17 0.06
18 0.49
19 -0.28
2 -0.43
20 -0.14
22 0.66
23 0.14
3 -0.68
32 0.4
33 0.15
34 0.4
4 -0.68
41 0.5
5 -0.57
6 -0.57
7 -0.65
8 -0.57
9 0.28

> <PUBCHEM_EFFECTIVE_ROTOR_COUNT>
3

> <PUBCHEM_PHARMACOPHORE_FEATURES>
13
1 1 acceptor
1 21 hydrophobe
1 3 acceptor
1 3 donor
1 4 acceptor
1 4 donor
1 5 acceptor
1 6 acceptor
1 7 acceptor
1 8 acceptor
3 7 8 22 anion
5 2 9 10 11 16 rings
6 1 9 10 13 14 15 rings

> <PUBCHEM_HEAVY_ATOM_COUNT>
23

> <PUBCHEM_ATOM_DEF_STEREO_COUNT>
6

> <PUBCHEM_ATOM_UDEF_STEREO_COUNT>
0

> <PUBCHEM_BOND_DEF_STEREO_COUNT>
1

> <PUBCHEM_BOND_UDEF_STEREO_COUNT>
0

> <PUBCHEM_ISOTOPIC_ATOM_COUNT>
0

> <PUBCHEM_COMPONENT_COUNT>
1

> <PUBCHEM_CACTVS_TAUTO_COUNT>
6

> <PUBCHEM_CONFORMER_ID>
0614592400000001

> <PUBCHEM_MMFF94_ENERGY>
77.0051

> <PUBCHEM_FEATURE_SELFOVERLAP>
66.416

> <PUBCHEM_SHAPE_FINGERPRINT>
10863032 1 18200321991591099497
10948715 1 17908710523101313169
11132069 177 18339366270826317992
11578080 2 17631430393419119321
12011746 2 18270686359540240349
12403814 3 18262246520959408425
13027679 85 18130792256485305281
13140716 1 18340207495990055465
13221675 6 18409169878769710729
13224815 77 18335420175571739252
14251745 187 18411136931121200152
144361 1 18340780251448765377
14614273 12 18338799992114967127
15881359 60 18197755766254850309
16945 1 18202274771824234747
17357779 13 18341316873284122629
18981168 100 17559652054054813104
19868273 325 18334862718538507157
20691752 17 18188479297898428561
22802520 49 18411981377320401337
2334 1 18194963173933854073
23402539 116 18334011696918553078
23419403 2 16690127524055321505
23557571 272 18271246007006403434
23559900 14 18124880058710483654
238 59 16673282670821122125
2748010 2 18265889357621840169
34934 24 18409732824454616512
46194498 28 17398630947495719167
5845 1 17914873534740279801
81228 2 18337099095156495441

> <PUBCHEM_SHAPE_MULTIPOLES>
426.37
5.87
2.6
1.49
3.94
0.74
-0.21
-0.94
-0.31
-1.17
-0.68
-0.21
0.02
0.23

> <PUBCHEM_SHAPE_SELFOVERLAP>
929.04

> <PUBCHEM_SHAPE_VOLUME>
227.5

> <PUBCHEM_COORDINATE_TYPE>
2
5
10

$$$$
