101995873
  -OEChem-03292013293D

 55 56  0     1  0  0  0  0  0999 V2000
    2.1324   -0.1593   -0.5773 O   0  0  0  0  0  0  0  0  0  0  0  0
    1.4804    2.0435   -0.1697 O   0  0  0  0  0  0  0  0  0  0  0  0
   -6.1275    0.5259    1.2030 O   0  0  0  0  0  0  0  0  0  0  0  0
    5.2617    0.1413    2.0654 O   0  0  0  0  0  0  0  0  0  0  0  0
    5.2143   -2.0068    0.1316 O   0  0  0  0  0  0  0  0  0  0  0  0
    4.0296    2.5696    0.9404 O   0  0  0  0  0  0  0  0  0  0  0  0
    1.7451   -2.2861   -2.2751 O   0  0  0  0  0  0  0  0  0  0  0  0
   -0.8490   -2.4580    1.6078 O   0  0  0  0  0  0  0  0  0  0  0  0
   -0.9917   -2.4877   -0.6637 O   0  0  0  0  0  0  0  0  0  0  0  0
   -3.2166   -0.6457   -0.4611 C   0  0  2  0  0  0  0  0  0  0  0  0
   -4.1971    0.5293   -0.2728 C   0  0  1  0  0  0  0  0  0  0  0  0
   -4.1430   -1.8683   -0.4888 C   0  0  0  0  0  0  0  0  0  0  0  0
   -5.1878   -1.6071    0.5910 C   0  0  0  0  0  0  0  0  0  0  0  0
   -5.2762   -0.1025    0.5864 C   0  0  0  0  0  0  0  0  0  0  0  0
   -3.6196    1.7921    0.3376 C   0  0  0  0  0  0  0  0  0  0  0  0
   -2.1522   -0.7785    0.6300 C   0  0  0  0  0  0  0  0  0  0  0  0
    4.6275    0.2366    0.7891 C   0  0  1  0  0  0  0  0  0  0  0  0
    4.1094   -1.1518    0.4136 C   0  0  1  0  0  0  0  0  0  0  0  0
    3.4867    1.2519    0.8621 C   0  0  2  0  0  0  0  0  0  0  0  0
    3.2002   -1.0782   -0.8154 C   0  0  1  0  0  0  0  0  0  0  0  0
    2.5936    1.1747   -0.3761 C   0  0  1  0  0  0  0  0  0  0  0  0
   -2.6104    2.4269   -0.5727 C   0  0  0  0  0  0  0  0  0  0  0  0
    2.5777   -2.4327   -1.1393 C   0  0  0  0  0  0  0  0  0  0  0  0
   -1.2829   -1.9851    0.4112 C   0  0  0  0  0  0  0  0  0  0  0  0
    0.8595    2.3874   -1.3986 C   0  0  0  0  0  0  0  0  0  0  0  0
   -1.3366    2.6623   -0.2252 C   0  0  0  0  0  0  0  0  0  0  0  0
   -0.3272    3.3062   -1.1334 C   0  0  0  0  0  0  0  0  0  0  0  0
   -2.7107   -0.5520   -1.4307 H   0  0  0  0  0  0  0  0  0  0  0  0
   -4.6723    0.7537   -1.2380 H   0  0  0  0  0  0  0  0  0  0  0  0
   -3.6436   -2.8291   -0.3389 H   0  0  0  0  0  0  0  0  0  0  0  0
   -4.6414   -1.9177   -1.4662 H   0  0  0  0  0  0  0  0  0  0  0  0
   -4.8453   -1.9437    1.5733 H   0  0  0  0  0  0  0  0  0  0  0  0
   -6.1499   -2.0591    0.3404 H   0  0  0  0  0  0  0  0  0  0  0  0
   -4.4272    2.5193    0.4933 H   0  0  0  0  0  0  0  0  0  0  0  0
   -3.2074    1.6030    1.3360 H   0  0  0  0  0  0  0  0  0  0  0  0
   -1.4752    0.0767    0.6466 H   0  0  0  0  0  0  0  0  0  0  0  0
   -2.6248   -0.8532    1.6163 H   0  0  0  0  0  0  0  0  0  0  0  0
    5.4022    0.5675    0.0875 H   0  0  0  0  0  0  0  0  0  0  0  0
    3.5686   -1.5858    1.2635 H   0  0  0  0  0  0  0  0  0  0  0  0
    2.8943    1.0993    1.7721 H   0  0  0  0  0  0  0  0  0  0  0  0
    3.7586   -0.7419   -1.6997 H   0  0  0  0  0  0  0  0  0  0  0  0
    3.1550    1.5109   -1.2592 H   0  0  0  0  0  0  0  0  0  0  0  0
   -2.9519    2.7059   -1.5666 H   0  0  0  0  0  0  0  0  0  0  0  0
    1.9542   -2.7834   -0.3103 H   0  0  0  0  0  0  0  0  0  0  0  0
    3.3423   -3.1838   -1.3592 H   0  0  0  0  0  0  0  0  0  0  0  0
    0.5236    1.4796   -1.9148 H   0  0  0  0  0  0  0  0  0  0  0  0
    1.5771    2.9103   -2.0417 H   0  0  0  0  0  0  0  0  0  0  0  0
   -1.0035    2.4056    0.7774 H   0  0  0  0  0  0  0  0  0  0  0  0
    0.0244    4.2209   -0.6409 H   0  0  0  0  0  0  0  0  0  0  0  0
   -0.7809    3.6009   -2.0865 H   0  0  0  0  0  0  0  0  0  0  0  0
    4.5932   -0.1346    2.7156 H   0  0  0  0  0  0  0  0  0  0  0  0
    5.6929   -1.6377   -0.6303 H   0  0  0  0  0  0  0  0  0  0  0  0
    4.5596    2.7256    0.1402 H   0  0  0  0  0  0  0  0  0  0  0  0
    1.3509   -3.1563   -2.4564 H   0  0  0  0  0  0  0  0  0  0  0  0
   -0.2753   -3.2467    1.5025 H   0  0  0  0  0  0  0  0  0  0  0  0
  1 20  1  0  0  0  0
  1 21  1  0  0  0  0
  2 21  1  0  0  0  0
  2 25  1  0  0  0  0
  3 14  2  0  0  0  0
  4 17  1  0  0  0  0
  4 51  1  0  0  0  0
  5 18  1  0  0  0  0
  5 52  1  0  0  0  0
  6 19  1  0  0  0  0
  6 53  1  0  0  0  0
  7 23  1  0  0  0  0
  7 54  1  0  0  0  0
  8 24  1  0  0  0  0
  8 55  1  0  0  0  0
  9 24  2  0  0  0  0
 10 11  1  0  0  0  0
 10 12  1  0  0  0  0
 10 16  1  0  0  0  0
 10 28  1  0  0  0  0
 11 14  1  0  0  0  0
 11 15  1  0  0  0  0
 11 29  1  0  0  0  0
 12 13  1  0  0  0  0
 12 30  1  0  0  0  0
 12 31  1  0  0  0  0
 13 14  1  0  0  0  0
 13 32  1  0  0  0  0
 13 33  1  0  0  0  0
 15 22  1  0  0  0  0
 15 34  1  0  0  0  0
 15 35  1  0  0  0  0
 16 24  1  0  0  0  0
 16 36  1  0  0  0  0
 16 37  1  0  0  0  0
 17 18  1  0  0  0  0
 17 19  1  0  0  0  0
 17 38  1  0  0  0  0
 18 20  1  0  0  0  0
 18 39  1  0  0  0  0
 19 21  1  0  0  0  0
 19 40  1  0  0  0  0
 20 23  1  0  0  0  0
 20 41  1  0  0  0  0
 21 42  1  0  0  0  0
 22 26  2  0  0  0  0
 22 43  1  0  0  0  0
 23 44  1  0  0  0  0
 23 45  1  0  0  0  0
 25 27  1  0  0  0  0
 25 46  1  0  0  0  0
 25 47  1  0  0  0  0
 26 27  1  0  0  0  0
 26 48  1  0  0  0  0
 27 49  1  0  0  0  0
 27 50  1  0  0  0  0
M  END
> <PUBCHEM_COMPOUND_CID>
101995873

> <PUBCHEM_CONFORMER_RMSD>
1

> <PUBCHEM_CONFORMER_DIVERSEORDER>
1
4
6
17
85
12
106
74
91
114
95
19
73
104
112
86
29
87
69
79
57
11
94
117
108
118
80
103
41
45
54
76
109
113
20
46
99
105
44
65
24
75
33
43
18
107
34
37
7
70
97
100
81
36
47
3
49
8
93
63
88
72
90
110
10
25
51
16
52
2
98
59
111
21
39
71
92
9
38
58
60
78
101
40
61
27
42
28
89
66
23
83
82
15
68
56
5
13
102
48
26
35
115
67
31
55
22
50
64
96
62
32
14
116
53
30
77
84

> <PUBCHEM_MMFF94_PARTIAL_CHARGES>
32
1 -0.56
11 0.06
13 0.06
14 0.45
15 0.14
16 0.06
17 0.28
18 0.28
19 0.28
2 -0.56
20 0.28
21 0.56
22 -0.29
23 0.28
24 0.66
25 0.28
26 -0.29
27 0.14
3 -0.57
4 -0.68
43 0.15
48 0.15
5 -0.68
51 0.4
52 0.4
53 0.4
54 0.4
55 0.5
6 -0.68
7 -0.68
8 -0.65
9 -0.57

> <PUBCHEM_EFFECTIVE_ROTOR_COUNT>
11

> <PUBCHEM_PHARMACOPHORE_FEATURES>
16
1 1 acceptor
1 2 acceptor
1 3 acceptor
1 4 acceptor
1 4 donor
1 5 acceptor
1 5 donor
1 6 acceptor
1 6 donor
1 7 acceptor
1 7 donor
1 8 acceptor
1 9 acceptor
3 8 9 24 anion
5 10 11 12 13 14 rings
6 1 17 18 19 20 21 rings

> <PUBCHEM_HEAVY_ATOM_COUNT>
27

> <PUBCHEM_ATOM_DEF_STEREO_COUNT>
7

> <PUBCHEM_ATOM_UDEF_STEREO_COUNT>
0

> <PUBCHEM_BOND_DEF_STEREO_COUNT>
1

> <PUBCHEM_BOND_UDEF_STEREO_COUNT>
0

> <PUBCHEM_ISOTOPIC_ATOM_COUNT>
0

> <PUBCHEM_COMPONENT_COUNT>
1

> <PUBCHEM_CACTVS_TAUTO_COUNT>
6

> <PUBCHEM_CONFORMER_ID>
0614556100000001

> <PUBCHEM_MMFF94_ENERGY>
51.6074

> <PUBCHEM_FEATURE_SELFOVERLAP>
81.322

> <PUBCHEM_SHAPE_FINGERPRINT>
11135926 11 17899136301837406861
12422481 6 18342742892784270137
12633257 1 18187362194047756231
12925494 130 17981892935083824609
13402501 40 18411700946163168268
14251757 17 18127129667198973171
14251764 38 18271249335015415721
15840311 113 17487079782034249953
17093844 170 18409165480981876796
1813 80 17530966899303153325
1979834 28 18201450193822128055
20403669 9 18334296457144402985
21792934 111 18338528465590672457
23559900 14 18413111683858804668
3052486 1 18041559118590310628
338550 245 18260836981618222357
3680242 22 18260272949501438345
508706 21 18190175694332853349
56633871 153 18410300229054079659

> <PUBCHEM_SHAPE_MULTIPOLES>
502.82
12.38
3.81
1.4
2.05
1.24
0.08
-2.8
-4.82
-0.25
1.05
-1.07
-0.31
1.07

> <PUBCHEM_SHAPE_SELFOVERLAP>
1022.61

> <PUBCHEM_SHAPE_VOLUME>
289.3

> <PUBCHEM_COORDINATE_TYPE>
2
5
10

$$$$
