102086069
  -OEChem-03292013293D

 75 78  0     1  0  0  0  0  0999 V2000
   -0.6351   -1.9606   -1.7830 O   0  0  0  0  0  0  0  0  0  0  0  0
   -4.7429    2.6670    0.7328 O   0  0  0  0  0  0  0  0  0  0  0  0
   -5.4663    2.4305   -1.9534 O   0  0  0  0  0  0  0  0  0  0  0  0
   -6.6957    0.8359    0.0001 O   0  0  0  0  0  0  0  0  0  0  0  0
   -3.8926   -1.9971    2.6839 O   0  0  0  0  0  0  0  0  0  0  0  0
    7.6904    1.5668   -0.6014 O   0  0  0  0  0  0  0  0  0  0  0  0
    0.9307   -0.6016   -0.4857 C   0  0  1  0  0  0  0  0  0  0  0  0
   -0.2083   -1.6539   -0.4363 C   0  0  1  0  0  0  0  0  0  0  0  0
   -1.9542    0.2213   -0.2804 C   0  0  2  0  0  0  0  0  0  0  0  0
   -3.0919    0.8643    0.6119 C   0  0  2  0  0  0  0  0  0  0  0  0
   -1.4360   -1.1177    0.2687 C   0  0  0  0  0  0  0  0  0  0  0  0
    2.0386   -1.4087   -1.2162 C   0  0  2  0  0  0  0  0  0  0  0  0
    0.4324    0.6274   -1.2653 C   0  0  0  0  0  0  0  0  0  0  0  0
   -0.8125    1.2353   -0.6003 C   0  0  0  0  0  0  0  0  0  0  0  0
    0.5288   -2.9072    0.0598 C   0  0  0  0  0  0  0  0  0  0  0  0
   -4.0971   -0.2390    1.0571 C   0  0  1  0  0  0  0  0  0  0  0  0
    1.9237   -2.8225   -0.5977 C   0  0  0  0  0  0  0  0  0  0  0  0
   -3.8783    1.9680   -0.1720 C   0  0  1  0  0  0  0  0  0  0  0  0
    1.4117   -0.1664    0.9285 C   0  0  0  0  0  0  0  0  0  0  0  0
   -4.9495   -0.8016   -0.0967 C   0  0  0  0  0  0  0  0  0  0  0  0
   -2.0647   -1.8175    1.2252 C   0  0  0  0  0  0  0  0  0  0  0  0
   -2.4954    1.5096    1.8974 C   0  0  0  0  0  0  0  0  0  0  0  0
   -4.7230    1.3904   -1.3204 C   0  0  1  0  0  0  0  0  0  0  0  0
   -3.3790   -1.3832    1.7498 C   0  0  0  0  0  0  0  0  0  0  0  0
   -5.6899    0.2971   -0.8570 C   0  0  2  0  0  0  0  0  0  0  0  0
    3.4227   -0.8479   -1.1615 C   0  0  0  0  0  0  0  0  0  0  0  0
    3.7679    0.0737   -2.3006 C   0  0  0  0  0  0  0  0  0  0  0  0
    4.3217   -1.1017   -0.1917 C   0  0  0  0  0  0  0  0  0  0  0  0
    5.7244   -0.5712   -0.0794 C   0  0  0  0  0  0  0  0  0  0  0  0
    5.7433    0.7921    0.6234 C   0  0  0  0  0  0  0  0  0  0  0  0
    7.1388    1.4454    0.7112 C   0  0  0  0  0  0  0  0  0  0  0  0
    7.0182    2.8537    1.3031 C   0  0  0  0  0  0  0  0  0  0  0  0
    8.1188    0.6194    1.5458 C   0  0  0  0  0  0  0  0  0  0  0  0
   -2.3891   -0.0404   -1.2532 H   0  0  0  0  0  0  0  0  0  0  0  0
    1.7690   -1.5163   -2.2774 H   0  0  0  0  0  0  0  0  0  0  0  0
    0.1959    0.3665   -2.3039 H   0  0  0  0  0  0  0  0  0  0  0  0
    1.2073    1.4001   -1.3089 H   0  0  0  0  0  0  0  0  0  0  0  0
   -0.4826    1.7489    0.3072 H   0  0  0  0  0  0  0  0  0  0  0  0
   -1.1980    2.0185   -1.2634 H   0  0  0  0  0  0  0  0  0  0  0  0
    0.0279   -3.8375   -0.2301 H   0  0  0  0  0  0  0  0  0  0  0  0
    0.6415   -2.9101    1.1499 H   0  0  0  0  0  0  0  0  0  0  0  0
   -4.7785    0.1906    1.8053 H   0  0  0  0  0  0  0  0  0  0  0  0
    2.6760   -3.1012    0.1422 H   0  0  0  0  0  0  0  0  0  0  0  0
    1.9996   -3.5702   -1.3977 H   0  0  0  0  0  0  0  0  0  0  0  0
   -3.1951    2.7273   -0.5667 H   0  0  0  0  0  0  0  0  0  0  0  0
    1.8755   -0.9836    1.4891 H   0  0  0  0  0  0  0  0  0  0  0  0
    0.5902    0.2005    1.5509 H   0  0  0  0  0  0  0  0  0  0  0  0
    2.1434    0.6467    0.8611 H   0  0  0  0  0  0  0  0  0  0  0  0
   -4.3230   -1.3681   -0.7963 H   0  0  0  0  0  0  0  0  0  0  0  0
   -5.6718   -1.5177    0.3165 H   0  0  0  0  0  0  0  0  0  0  0  0
   -1.6921   -2.7660    1.5938 H   0  0  0  0  0  0  0  0  0  0  0  0
   -3.2754    1.7327    2.6347 H   0  0  0  0  0  0  0  0  0  0  0  0
   -1.9958    2.4586    1.6754 H   0  0  0  0  0  0  0  0  0  0  0  0
   -1.7678    0.8567    2.3895 H   0  0  0  0  0  0  0  0  0  0  0  0
   -4.0581    0.9790   -2.0868 H   0  0  0  0  0  0  0  0  0  0  0  0
   -6.2116   -0.1253   -1.7233 H   0  0  0  0  0  0  0  0  0  0  0  0
   -1.2984   -2.6704   -1.7308 H   0  0  0  0  0  0  0  0  0  0  0  0
   -5.2320    3.3283    0.2139 H   0  0  0  0  0  0  0  0  0  0  0  0
    3.0553    0.8988   -2.3680 H   0  0  0  0  0  0  0  0  0  0  0  0
    3.7365   -0.4781   -3.2466 H   0  0  0  0  0  0  0  0  0  0  0  0
    4.7574    0.5302   -2.2305 H   0  0  0  0  0  0  0  0  0  0  0  0
    4.0445   -1.7215    0.6555 H   0  0  0  0  0  0  0  0  0  0  0  0
   -5.9677    2.0307   -2.6844 H   0  0  0  0  0  0  0  0  0  0  0  0
   -7.2986    0.1113    0.2388 H   0  0  0  0  0  0  0  0  0  0  0  0
    6.3098   -1.2982    0.4958 H   0  0  0  0  0  0  0  0  0  0  0  0
    6.2037   -0.5210   -1.0625 H   0  0  0  0  0  0  0  0  0  0  0  0
    5.0804    1.4719    0.0710 H   0  0  0  0  0  0  0  0  0  0  0  0
    5.3194    0.6917    1.6315 H   0  0  0  0  0  0  0  0  0  0  0  0
    7.7316    0.4335    2.5528 H   0  0  0  0  0  0  0  0  0  0  0  0
    6.6026    2.8306    2.3158 H   0  0  0  0  0  0  0  0  0  0  0  0
    7.9945    3.3506    1.3406 H   0  0  0  0  0  0  0  0  0  0  0  0
    6.3763    3.4846    0.6776 H   0  0  0  0  0  0  0  0  0  0  0  0
    9.0830    1.1330    1.6390 H   0  0  0  0  0  0  0  0  0  0  0  0
    8.3373   -0.3425    1.0702 H   0  0  0  0  0  0  0  0  0  0  0  0
    8.5595    1.9966   -0.5263 H   0  0  0  0  0  0  0  0  0  0  0  0
  1  8  1  0  0  0  0
  1 57  1  0  0  0  0
  2 18  1  0  0  0  0
  2 58  1  0  0  0  0
  3 23  1  0  0  0  0
  3 63  1  0  0  0  0
  4 25  1  0  0  0  0
  4 64  1  0  0  0  0
  5 24  2  0  0  0  0
  6 31  1  0  0  0  0
  6 75  1  0  0  0  0
  7  8  1  0  0  0  0
  7 12  1  0  0  0  0
  7 13  1  0  0  0  0
  7 19  1  0  0  0  0
  8 11  1  0  0  0  0
  8 15  1  0  0  0  0
  9 10  1  0  0  0  0
  9 11  1  0  0  0  0
  9 14  1  0  0  0  0
  9 34  1  0  0  0  0
 10 16  1  0  0  0  0
 10 18  1  0  0  0  0
 10 22  1  0  0  0  0
 11 21  2  0  0  0  0
 12 17  1  0  0  0  0
 12 26  1  0  0  0  0
 12 35  1  0  0  0  0
 13 14  1  0  0  0  0
 13 36  1  0  0  0  0
 13 37  1  0  0  0  0
 14 38  1  0  0  0  0
 14 39  1  0  0  0  0
 15 17  1  0  0  0  0
 15 40  1  0  0  0  0
 15 41  1  0  0  0  0
 16 20  1  0  0  0  0
 16 24  1  0  0  0  0
 16 42  1  0  0  0  0
 17 43  1  0  0  0  0
 17 44  1  0  0  0  0
 18 23  1  0  0  0  0
 18 45  1  0  0  0  0
 19 46  1  0  0  0  0
 19 47  1  0  0  0  0
 19 48  1  0  0  0  0
 20 25  1  0  0  0  0
 20 49  1  0  0  0  0
 20 50  1  0  0  0  0
 21 24  1  0  0  0  0
 21 51  1  0  0  0  0
 22 52  1  0  0  0  0
 22 53  1  0  0  0  0
 22 54  1  0  0  0  0
 23 25  1  0  0  0  0
 23 55  1  0  0  0  0
 25 56  1  0  0  0  0
 26 27  1  0  0  0  0
 26 28  2  0  0  0  0
 27 59  1  0  0  0  0
 27 60  1  0  0  0  0
 27 61  1  0  0  0  0
 28 29  1  0  0  0  0
 28 62  1  0  0  0  0
 29 30  1  0  0  0  0
 29 65  1  0  0  0  0
 29 66  1  0  0  0  0
 30 31  1  0  0  0  0
 30 67  1  0  0  0  0
 30 68  1  0  0  0  0
 31 32  1  0  0  0  0
 31 33  1  0  0  0  0
 32 70  1  0  0  0  0
 32 71  1  0  0  0  0
 32 72  1  0  0  0  0
 33 69  1  0  0  0  0
 33 73  1  0  0  0  0
 33 74  1  0  0  0  0
M  END
> <PUBCHEM_COMPOUND_CID>
102086069

> <PUBCHEM_CONFORMER_RMSD>
0.8

> <PUBCHEM_CONFORMER_DIVERSEORDER>
2
31
36
23
21
30
32
15
13
28
19
3
11
37
27
5
25
10
12
17
26
16
29
6
1
35
20
8
34
18
4
22
24
7
33
14
9

> <PUBCHEM_MMFF94_PARTIAL_CHARGES>
28
1 -0.68
11 -0.28
12 0.14
16 0.06
18 0.28
2 -0.68
21 -0.14
23 0.28
24 0.49
25 0.28
26 -0.28
27 0.14
28 -0.29
29 0.14
3 -0.68
31 0.28
4 -0.68
5 -0.57
51 0.15
57 0.4
58 0.4
6 -0.68
62 0.15
63 0.4
64 0.4
75 0.4
8 0.42
9 0.14

> <PUBCHEM_EFFECTIVE_ROTOR_COUNT>
5.8

> <PUBCHEM_PHARMACOPHORE_FEATURES>
17
1 1 acceptor
1 1 donor
1 2 acceptor
1 2 donor
1 27 hydrophobe
1 3 acceptor
1 3 donor
1 4 acceptor
1 4 donor
1 5 acceptor
1 6 acceptor
1 6 donor
3 31 32 33 hydrophobe
5 7 8 12 15 17 rings
6 10 16 18 20 23 25 rings
6 7 8 9 11 13 14 rings
6 9 10 11 16 21 24 rings

> <PUBCHEM_HEAVY_ATOM_COUNT>
33

> <PUBCHEM_ATOM_DEF_STEREO_COUNT>
9

> <PUBCHEM_ATOM_UDEF_STEREO_COUNT>
0

> <PUBCHEM_BOND_DEF_STEREO_COUNT>
1

> <PUBCHEM_BOND_UDEF_STEREO_COUNT>
0

> <PUBCHEM_ISOTOPIC_ATOM_COUNT>
0

> <PUBCHEM_COMPONENT_COUNT>
1

> <PUBCHEM_CACTVS_TAUTO_COUNT>
5

> <PUBCHEM_CONFORMER_ID>
0615B5B500000002

> <PUBCHEM_MMFF94_ENERGY>
114.3285

> <PUBCHEM_FEATURE_SELFOVERLAP>
86.431

> <PUBCHEM_SHAPE_FINGERPRINT>
10 15 18334856152134872440
10319926 262 17894919533717176978
10554248 39 16773807974591653086
10675989 125 17105085106807169549
10930396 42 17531791550552260364
11007060 377 17917710240401477970
11315621 246 12607398892945318689
11443803 9 16733256856331029133
12035758 1 17894927196012634145
12403259 118 17895201029830945518
12422481 6 17821729442739446724
12616971 3 15430043166793262982
12838862 33 17749663014317865645
13911987 19 17632574942057908787
14856354 85 13182734866739846645
15021287 119 14562531777616453494
15183329 4 10809338936989099360
15289351 153 18130785617704971234
15326921 28 16589406610953196941
15461852 350 18342177808179784494
15510800 12 11747477416879789088
15788980 27 14274035328557180759
20105231 36 11671780494497303477
20511986 3 18041551451952770551
20567600 254 18343015593459280292
21033648 144 18339644443242366045
21033648 29 18339655472301656867
21150785 3 14548735132224423112
21859007 373 18040987398456583580
23198884 109 14764634131399912658
23559900 14 17898590690962280198
23569943 247 13118543178565561256
2748736 6 18273492369481591720
2838139 119 18199188390850080220
34797466 226 17418099779979771894
4258327 124 17703223035520113412
4756326 101 17823391891024688733
497634 4 14979960237936416081
5104073 3 18261962847275999346
6608658 132 15410903946450556466
6697151 62 17910114604056889134
9981440 41 17968386650112030323
999808 66 11602813593553989704

> <PUBCHEM_SHAPE_MULTIPOLES>
643.91
18.47
2.85
1.87
27.25
0.03
-0.18
-14.03
-3.36
0.2
-0.23
-0.76
0.04
2.81

> <PUBCHEM_SHAPE_SELFOVERLAP>
1363.062

> <PUBCHEM_SHAPE_VOLUME>
357.4

> <PUBCHEM_COORDINATE_TYPE>
2
5
10

$$$$
