102008614
  -OEChem-03292013293D

 56 59  0     1  0  0  0  0  0999 V2000
   -2.2600   -0.3788   -2.1072 O   0  0  0  0  0  0  0  0  0  0  0  0
   -1.6235    2.1508    1.2172 O   0  0  0  0  0  0  0  0  0  0  0  0
    1.4941    0.3879   -0.7225 O   0  0  0  0  0  0  0  0  0  0  0  0
    0.6139   -2.7148    0.9260 O   0  0  0  0  0  0  0  0  0  0  0  0
   -4.7678    1.4937   -0.2390 O   0  0  0  0  0  0  0  0  0  0  0  0
   -0.6079    3.7859    2.4720 O   0  0  0  0  0  0  0  0  0  0  0  0
    3.2122   -0.9217   -1.5189 O   0  0  0  0  0  0  0  0  0  0  0  0
    2.7581   -3.2804    0.2784 O   0  0  0  0  0  0  0  0  0  0  0  0
   -2.3647   -0.0084    0.3976 C   0  0  2  0  0  0  0  0  0  0  0  0
   -1.9521   -1.4791    0.4636 C   0  0  1  0  0  0  0  0  0  0  0  0
   -3.1164   -0.0689   -0.9726 C   0  0  2  0  0  0  0  0  0  0  0  0
   -1.1769    0.9869    0.4885 C   0  0  2  0  0  0  0  0  0  0  0  0
   -3.2298   -2.2467    0.0762 C   0  0  0  0  0  0  0  0  0  0  0  0
   -4.0525   -1.2740   -0.7799 C   0  0  0  0  0  0  0  0  0  0  0  0
    0.0550    0.4675    1.2620 C   0  0  1  0  0  0  0  0  0  0  0  0
   -0.8682   -1.5919   -0.5812 C   0  0  0  0  0  0  0  0  0  0  0  0
    1.0726   -0.3644    0.4206 C   0  0  1  0  0  0  0  0  0  0  0  0
    0.5511   -1.7335   -0.1036 C   0  0  1  0  0  0  0  0  0  0  0  0
   -3.8731    1.2096   -1.3008 C   0  0  0  0  0  0  0  0  0  0  0  0
   -1.1310   -1.1118   -1.8091 C   0  0  0  0  0  0  0  0  0  0  0  0
    0.5463    1.7631    1.8277 C   0  0  0  0  0  0  0  0  0  0  0  0
   -0.5845    2.7125    1.8974 C   0  0  0  0  0  0  0  0  0  0  0  0
    1.7701    2.1201    2.2257 C   0  0  0  0  0  0  0  0  0  0  0  0
    2.7665    0.1540   -1.1453 C   0  0  0  0  0  0  0  0  0  0  0  0
    1.7824   -3.4193    1.0037 C   0  0  0  0  0  0  0  0  0  0  0  0
    3.5531    1.4231   -1.0790 C   0  0  0  0  0  0  0  0  0  0  0  0
    1.7048   -4.4100    2.1254 C   0  0  0  0  0  0  0  0  0  0  0  0
    4.7473    1.4739   -0.1728 C   0  0  0  0  0  0  0  0  0  0  0  0
    3.0925    2.4395   -1.8313 C   0  0  0  0  0  0  0  0  0  0  0  0
    1.8885    2.4353   -2.7190 C   0  0  0  0  0  0  0  0  0  0  0  0
   -3.0784    0.2032    1.2065 H   0  0  0  0  0  0  0  0  0  0  0  0
   -1.6191   -1.7863    1.4586 H   0  0  0  0  0  0  0  0  0  0  0  0
   -0.8998    1.3526   -0.5083 H   0  0  0  0  0  0  0  0  0  0  0  0
   -3.8004   -2.5114    0.9743 H   0  0  0  0  0  0  0  0  0  0  0  0
   -3.0122   -3.1774   -0.4595 H   0  0  0  0  0  0  0  0  0  0  0  0
   -4.3371   -1.7390   -1.7300 H   0  0  0  0  0  0  0  0  0  0  0  0
   -4.9690   -1.0120   -0.2399 H   0  0  0  0  0  0  0  0  0  0  0  0
   -0.2656   -0.1315    2.1250 H   0  0  0  0  0  0  0  0  0  0  0  0
    1.9458   -0.5557    1.0599 H   0  0  0  0  0  0  0  0  0  0  0  0
    1.1356   -2.0783   -0.9648 H   0  0  0  0  0  0  0  0  0  0  0  0
   -4.4428    1.0992   -2.2302 H   0  0  0  0  0  0  0  0  0  0  0  0
   -3.1873    2.0532   -1.4320 H   0  0  0  0  0  0  0  0  0  0  0  0
   -0.4195   -1.0531   -2.6204 H   0  0  0  0  0  0  0  0  0  0  0  0
   -5.2376    2.3124   -0.4722 H   0  0  0  0  0  0  0  0  0  0  0  0
    2.5960    1.4203    2.1914 H   0  0  0  0  0  0  0  0  0  0  0  0
    1.9794    3.1119    2.6124 H   0  0  0  0  0  0  0  0  0  0  0  0
    1.5544   -3.8856    3.0724 H   0  0  0  0  0  0  0  0  0  0  0  0
    2.6433   -4.9689    2.1815 H   0  0  0  0  0  0  0  0  0  0  0  0
    0.8899   -5.1146    1.9414 H   0  0  0  0  0  0  0  0  0  0  0  0
    4.4931    1.1047    0.8246 H   0  0  0  0  0  0  0  0  0  0  0  0
    5.5502    0.8478   -0.5750 H   0  0  0  0  0  0  0  0  0  0  0  0
    5.1306    2.4938   -0.0673 H   0  0  0  0  0  0  0  0  0  0  0  0
    3.6266    3.3868   -1.7863 H   0  0  0  0  0  0  0  0  0  0  0  0
    2.1144    2.9992   -3.6305 H   0  0  0  0  0  0  0  0  0  0  0  0
    1.0496    2.9286   -2.2188 H   0  0  0  0  0  0  0  0  0  0  0  0
    1.5786    1.4378   -3.0411 H   0  0  0  0  0  0  0  0  0  0  0  0
  1 11  1  0  0  0  0
  1 20  1  0  0  0  0
  2 12  1  0  0  0  0
  2 22  1  0  0  0  0
  3 17  1  0  0  0  0
  3 24  1  0  0  0  0
  4 18  1  0  0  0  0
  4 25  1  0  0  0  0
  5 19  1  0  0  0  0
  5 44  1  0  0  0  0
  6 22  2  0  0  0  0
  7 24  2  0  0  0  0
  8 25  2  0  0  0  0
  9 10  1  0  0  0  0
  9 11  1  0  0  0  0
  9 12  1  0  0  0  0
  9 31  1  0  0  0  0
 10 13  1  0  0  0  0
 10 16  1  0  0  0  0
 10 32  1  0  0  0  0
 11 14  1  0  0  0  0
 11 19  1  0  0  0  0
 12 15  1  0  0  0  0
 12 33  1  0  0  0  0
 13 14  1  0  0  0  0
 13 34  1  0  0  0  0
 13 35  1  0  0  0  0
 14 36  1  0  0  0  0
 14 37  1  0  0  0  0
 15 17  1  0  0  0  0
 15 21  1  0  0  0  0
 15 38  1  0  0  0  0
 16 18  1  0  0  0  0
 16 20  2  0  0  0  0
 17 18  1  0  0  0  0
 17 39  1  0  0  0  0
 18 40  1  0  0  0  0
 19 41  1  0  0  0  0
 19 42  1  0  0  0  0
 20 43  1  0  0  0  0
 21 22  1  0  0  0  0
 21 23  2  0  0  0  0
 23 45  1  0  0  0  0
 23 46  1  0  0  0  0
 24 26  1  0  0  0  0
 25 27  1  0  0  0  0
 26 28  1  0  0  0  0
 26 29  2  0  0  0  0
 27 47  1  0  0  0  0
 27 48  1  0  0  0  0
 27 49  1  0  0  0  0
 28 50  1  0  0  0  0
 28 51  1  0  0  0  0
 28 52  1  0  0  0  0
 29 30  1  0  0  0  0
 29 53  1  0  0  0  0
 30 54  1  0  0  0  0
 30 55  1  0  0  0  0
 30 56  1  0  0  0  0
M  END
> <PUBCHEM_COMPOUND_CID>
102008614

> <PUBCHEM_CONFORMER_RMSD>
0.8

> <PUBCHEM_CONFORMER_DIVERSEORDER>
1
7
9
3
5
2
6
8
10
4

> <PUBCHEM_MMFF94_PARTIAL_CHARGES>
32
1 -0.36
10 0.14
11 0.28
12 0.28
15 0.14
16 -0.28
17 0.28
18 0.42
19 0.28
2 -0.43
20 -0.07
21 -0.12
22 0.71
23 -0.3
24 0.71
25 0.66
26 -0.12
27 0.06
28 0.14
29 -0.29
3 -0.43
30 0.14
4 -0.43
43 0.15
44 0.4
45 0.15
46 0.15
5 -0.68
53 0.15
6 -0.57
7 -0.57
8 -0.57

> <PUBCHEM_EFFECTIVE_ROTOR_COUNT>
7.2

> <PUBCHEM_PHARMACOPHORE_FEATURES>
11
1 1 acceptor
1 28 hydrophobe
1 30 hydrophobe
1 5 acceptor
1 5 donor
1 6 acceptor
1 7 acceptor
1 8 acceptor
5 2 12 15 21 22 rings
7 9 10 12 15 16 17 18 rings
8 1 9 10 11 13 14 16 20 rings

> <PUBCHEM_HEAVY_ATOM_COUNT>
30

> <PUBCHEM_ATOM_DEF_STEREO_COUNT>
5

> <PUBCHEM_ATOM_UDEF_STEREO_COUNT>
2

> <PUBCHEM_BOND_DEF_STEREO_COUNT>
1

> <PUBCHEM_BOND_UDEF_STEREO_COUNT>
0

> <PUBCHEM_ISOTOPIC_ATOM_COUNT>
0

> <PUBCHEM_COMPONENT_COUNT>
1

> <PUBCHEM_CACTVS_TAUTO_COUNT>
2

> <PUBCHEM_CONFORMER_ID>
0614872600000001

> <PUBCHEM_MMFF94_ENERGY>
111.4413

> <PUBCHEM_FEATURE_SELFOVERLAP>
56.022

> <PUBCHEM_SHAPE_FINGERPRINT>
10165383 225 18189904286838540383
10675989 125 18343022211255934296
10863032 1 18114465574333706839
11370993 70 18115309028437654222
11578080 2 17688558617260280528
12035759 4 18268999699896720494
12173636 292 17972039411779108303
12293681 160 18271251620212596720
12553582 1 17345771787891784172
12788726 201 17843968048579016137
13009979 54 18053940654258598747
13149001 5 17623861522908517832
133893 2 17823433591173154058
13965767 371 15819883419134075218
14787075 74 18051426354755010047
15238133 3 17984693429732506333
15420108 30 17405443104845018952
16945 1 18186800314058299151
17349148 13 18339935917314346436
17876694 64 17764013684377942275
17980427 23 17695334885403679650
1813 80 16628585676236663205
19319366 153 18337112358058171119
19930381 70 17968380151229899333
20600515 1 17758937252072868011
20691752 17 17763171845419211399
23419403 2 16254801419779894013
23558518 356 18125472793945065412
23559900 14 18042106722747604239
2748010 2 16541019715280050666
3380486 77 17613427849378342511
7226269 152 18271524316703350616

> <PUBCHEM_SHAPE_MULTIPOLES>
570.43
6.7
4.52
2.43
0.83
3.89
0.3
-2.26
-3.63
-2.12
3.03
-1.07
-1.75
-1.15

> <PUBCHEM_SHAPE_SELFOVERLAP>
1232.637

> <PUBCHEM_SHAPE_VOLUME>
311.5

> <PUBCHEM_COORDINATE_TYPE>
2
5
10

$$$$
