102073560
  -OEChem-03292013293D

 43 44  0     1  0  0  0  0  0999 V2000
   -0.2482    0.8787    0.1542 O   0  0  0  0  0  0  0  0  0  0  0  0
   -3.0728    0.9866   -0.5980 O   0  0  0  0  0  0  0  0  0  0  0  0
   -1.1088   -0.1148   -2.4330 O   0  0  0  0  0  0  0  0  0  0  0  0
   -2.0172   -2.3112    0.3212 O   0  0  0  0  0  0  0  0  0  0  0  0
   -3.4929   -0.0662    1.4834 O   0  0  0  0  0  0  0  0  0  0  0  0
    1.4253   -0.1576    1.4629 O   0  0  0  0  0  0  0  0  0  0  0  0
    1.1538    3.3212    0.2644 O   0  0  0  0  0  0  0  0  0  0  0  0
    3.6955    2.2946   -0.8678 O   0  0  0  0  0  0  0  0  0  0  0  0
    2.1348   -2.5876    1.7092 O   0  0  0  0  0  0  0  0  0  0  0  0
    3.5244   -2.5736   -0.1071 O   0  0  0  0  0  0  0  0  0  0  0  0
   -1.2270   -0.0437    0.6288 C   0  0  2  0  0  0  0  0  0  0  0  0
   -1.2833   -1.2607   -0.3041 C   0  0  2  0  0  0  0  0  0  0  0  0
   -1.9650   -0.9263   -1.6326 C   0  0  1  0  0  0  0  0  0  0  0  0
   -2.5696    0.6909    0.7075 C   0  0  1  0  0  0  0  0  0  0  0  0
   -3.2705   -0.1679   -1.4148 C   0  0  0  0  0  0  0  0  0  0  0  0
    0.7860    1.0805    1.1188 C   0  0  1  0  0  0  0  0  0  0  0  0
    1.8021    2.0954    0.5873 C   0  0  1  0  0  0  0  0  0  0  0  0
    2.4961    1.5505   -0.6627 C   0  0  2  0  0  0  0  0  0  0  0  0
    2.8259    0.0979   -0.4884 C   0  0  0  0  0  0  0  0  0  0  0  0
    2.3176   -0.6246    0.5228 C   0  0  0  0  0  0  0  0  0  0  0  0
   -0.0936   -0.8880   -3.0571 C   0  0  0  0  0  0  0  0  0  0  0  0
   -4.5542    0.7463    1.9603 C   0  0  0  0  0  0  0  0  0  0  0  0
    2.7415   -2.0201    0.6451 C   0  0  0  0  0  0  0  0  0  0  0  0
   -0.9954   -0.4011    1.6422 H   0  0  0  0  0  0  0  0  0  0  0  0
   -0.2693   -1.6352   -0.4588 H   0  0  0  0  0  0  0  0  0  0  0  0
   -2.2155   -1.8439   -2.1814 H   0  0  0  0  0  0  0  0  0  0  0  0
   -2.3940    1.6577    1.1969 H   0  0  0  0  0  0  0  0  0  0  0  0
   -3.6628    0.1879   -2.3734 H   0  0  0  0  0  0  0  0  0  0  0  0
   -4.0347   -0.8079   -0.9595 H   0  0  0  0  0  0  0  0  0  0  0  0
    0.3244    1.4870    2.0276 H   0  0  0  0  0  0  0  0  0  0  0  0
    2.5527    2.3124    1.3585 H   0  0  0  0  0  0  0  0  0  0  0  0
    1.8709    1.6898   -1.5522 H   0  0  0  0  0  0  0  0  0  0  0  0
   -1.9862   -3.0836   -0.2687 H   0  0  0  0  0  0  0  0  0  0  0  0
    3.5053   -0.3407   -1.2141 H   0  0  0  0  0  0  0  0  0  0  0  0
    0.7102    3.6384    1.0695 H   0  0  0  0  0  0  0  0  0  0  0  0
    0.6093   -1.3043   -2.3327 H   0  0  0  0  0  0  0  0  0  0  0  0
   -0.5278   -1.6865   -3.6668 H   0  0  0  0  0  0  0  0  0  0  0  0
    0.4700   -0.2256   -3.7207 H   0  0  0  0  0  0  0  0  0  0  0  0
   -5.2459    0.1113    2.5206 H   0  0  0  0  0  0  0  0  0  0  0  0
   -5.1004    1.2029    1.1294 H   0  0  0  0  0  0  0  0  0  0  0  0
   -4.1747    1.5204    2.6345 H   0  0  0  0  0  0  0  0  0  0  0  0
    4.1141    1.9633   -1.6808 H   0  0  0  0  0  0  0  0  0  0  0  0
    2.3942   -3.5267    1.8239 H   0  0  0  0  0  0  0  0  0  0  0  0
  1 11  1  0  0  0  0
  1 16  1  0  0  0  0
  2 14  1  0  0  0  0
  2 15  1  0  0  0  0
  3 13  1  0  0  0  0
  3 21  1  0  0  0  0
  4 12  1  0  0  0  0
  4 33  1  0  0  0  0
  5 14  1  0  0  0  0
  5 22  1  0  0  0  0
  6 16  1  0  0  0  0
  6 20  1  0  0  0  0
  7 17  1  0  0  0  0
  7 35  1  0  0  0  0
  8 18  1  0  0  0  0
  8 42  1  0  0  0  0
  9 23  1  0  0  0  0
  9 43  1  0  0  0  0
 10 23  2  0  0  0  0
 11 12  1  0  0  0  0
 11 14  1  0  0  0  0
 11 24  1  0  0  0  0
 12 13  1  0  0  0  0
 12 25  1  0  0  0  0
 13 15  1  0  0  0  0
 13 26  1  0  0  0  0
 14 27  1  0  0  0  0
 15 28  1  0  0  0  0
 15 29  1  0  0  0  0
 16 17  1  0  0  0  0
 16 30  1  0  0  0  0
 17 18  1  0  0  0  0
 17 31  1  0  0  0  0
 18 19  1  0  0  0  0
 18 32  1  0  0  0  0
 19 20  2  0  0  0  0
 19 34  1  0  0  0  0
 20 23  1  0  0  0  0
 21 36  1  0  0  0  0
 21 37  1  0  0  0  0
 21 38  1  0  0  0  0
 22 39  1  0  0  0  0
 22 40  1  0  0  0  0
 22 41  1  0  0  0  0
M  END
> <PUBCHEM_COMPOUND_CID>
102073560

> <PUBCHEM_CONFORMER_RMSD>
0.8

> <PUBCHEM_CONFORMER_DIVERSEORDER>
2
47
1
59
71
14
54
36
42
65
70
6
64
44
46
35
10
41
13
16
51
23
5
20
21
24
40
12
30
25
69
22
56
52
29
37
9
62
43
26
28
63
48
60
58
67
7
18
68
49
17
55
27
38
34
11
33
50
32
39
19
8
15
61
66
45
31
53
3
57
4

> <PUBCHEM_MMFF94_PARTIAL_CHARGES>
28
1 -0.56
10 -0.57
11 0.28
12 0.28
13 0.28
14 0.56
15 0.28
16 0.56
17 0.28
18 0.42
19 -0.29
2 -0.56
20 0.09
21 0.28
22 0.28
23 0.71
3 -0.56
33 0.4
34 0.15
35 0.4
4 -0.68
42 0.4
43 0.5
5 -0.56
6 -0.36
7 -0.68
8 -0.68
9 -0.65

> <PUBCHEM_EFFECTIVE_ROTOR_COUNT>
7

> <PUBCHEM_PHARMACOPHORE_FEATURES>
16
1 1 acceptor
1 10 acceptor
1 2 acceptor
1 3 acceptor
1 4 acceptor
1 4 donor
1 5 acceptor
1 6 acceptor
1 7 acceptor
1 7 donor
1 8 acceptor
1 8 donor
1 9 acceptor
3 9 10 23 anion
6 2 11 12 13 14 15 rings
6 6 16 17 18 19 20 rings

> <PUBCHEM_HEAVY_ATOM_COUNT>
23

> <PUBCHEM_ATOM_DEF_STEREO_COUNT>
7

> <PUBCHEM_ATOM_UDEF_STEREO_COUNT>
0

> <PUBCHEM_BOND_DEF_STEREO_COUNT>
0

> <PUBCHEM_BOND_UDEF_STEREO_COUNT>
0

> <PUBCHEM_ISOTOPIC_ATOM_COUNT>
0

> <PUBCHEM_COMPONENT_COUNT>
1

> <PUBCHEM_CACTVS_TAUTO_COUNT>
1

> <PUBCHEM_CONFORMER_ID>
061584D800000002

> <PUBCHEM_MMFF94_ENERGY>
66.1588

> <PUBCHEM_FEATURE_SELFOVERLAP>
81.365

> <PUBCHEM_SHAPE_FINGERPRINT>
10064457 181 17898312711998654082
10165383 225 17751665327301068732
104564 63 17691113847591034698
121448 382 17193169654487513440
12422481 6 17053876477512847643
12553582 1 18266173929565903226
12592029 89 16845308128818643135
12633257 1 18340210695894028619
128993 33 18187358874016774782
13583140 156 18336834199228112729
14178342 30 18125992999872430096
15664445 248 15618025810742488719
16945 1 18411132571502859833
1813 80 18126571115862132534
18981168 100 18190162663191015313
19786989 88 17822838888172760804
20645476 183 18201157762415337855
20715895 44 7852206773578002363
21197605 99 11783181247867127158
22802520 49 16806153355205349238
23493267 7 17916604157209800143
23557571 272 15430033262039489737
23598291 2 18273214192258795448
238 59 17755542205116043014
25 1 18262809591504229944
34934 24 18130796684891914992
465052 167 18271260347934022643
5845 1 17622958527757368648
6049 1 17095802127116022769
6287921 2 17242193420267781430
633830 44 18126857220792703532
74978 22 18339632421359729483
81228 2 17470140593610423840
90525 40 17488474129311458957
9999458 23 18188503375901886371

> <PUBCHEM_SHAPE_MULTIPOLES>
414.64
6.51
2.72
2.15
2.57
0.42
1.01
0.55
-1.66
-2.47
-0.23
0.89
-0.88
-1.87

> <PUBCHEM_SHAPE_SELFOVERLAP>
857.424

> <PUBCHEM_SHAPE_VOLUME>
233.2

> <PUBCHEM_COORDINATE_TYPE>
2
5
10

$$$$
