102004900
  -OEChem-03292013293D

 89 92  0     1  0  0  0  0  0999 V2000
   -1.3497    0.2712   -2.7161 O   0  0  0  0  0  0  0  0  0  0  0  0
    4.3776    0.7660    2.7633 O   0  0  0  0  0  0  0  0  0  0  0  0
    5.8390   -2.5572   -1.2244 O   0  0  0  0  0  0  0  0  0  0  0  0
   -3.4757    1.2176   -2.2017 O   0  0  0  0  0  0  0  0  0  0  0  0
   -7.7940   -1.1039    1.3341 O   0  0  0  0  0  0  0  0  0  0  0  0
    1.1473    0.5131    0.8009 C   0  0  1  0  0  0  0  0  0  0  0  0
    0.0094    1.6212    0.5747 C   0  0  1  0  0  0  0  0  0  0  0  0
    1.8189    0.2182   -0.6023 C   0  0  1  0  0  0  0  0  0  0  0  0
    3.1480   -0.6600   -0.5950 C   0  0  2  0  0  0  0  0  0  0  0  0
   -1.0279    1.0862   -0.4507 C   0  0  1  0  0  0  0  0  0  0  0  0
    4.1563   -0.0493    0.4562 C   0  0  1  0  0  0  0  0  0  0  0  0
    2.2390    1.0169    1.7707 C   0  0  0  0  0  0  0  0  0  0  0  0
    0.7621   -0.2043   -1.6611 C   0  0  0  0  0  0  0  0  0  0  0  0
   -2.1972    2.0846   -0.3762 C   0  0  2  0  0  0  0  0  0  0  0  0
   -0.3909    0.8074   -1.8098 C   0  0  1  0  0  0  0  0  0  0  0  0
   -0.9408    1.9239    1.7550 C   0  0  0  0  0  0  0  0  0  0  0  0
    3.4880    0.1253    1.8504 C   0  0  2  0  0  0  0  0  0  0  0  0
    5.6063   -0.7173    0.4597 C   0  0  0  0  0  0  0  0  0  0  0  0
   -2.2054    2.5230    1.1074 C   0  0  0  0  0  0  0  0  0  0  0  0
    3.7899   -0.5661   -2.0247 C   0  0  0  0  0  0  0  0  0  0  0  0
    0.5317   -0.7674    1.4344 C   0  0  0  0  0  0  0  0  0  0  0  0
    0.6110    2.9991    0.1371 C   0  0  0  0  0  0  0  0  0  0  0  0
    2.8393   -2.1505   -0.3179 C   0  0  0  0  0  0  0  0  0  0  0  0
    6.0374   -1.1684   -0.9784 C   0  0  2  0  0  0  0  0  0  0  0  0
   -3.5438    1.5070   -0.7974 C   0  0  2  0  0  0  0  0  0  0  0  0
    5.3087   -0.3881   -2.0621 C   0  0  0  0  0  0  0  0  0  0  0  0
    6.6538    0.3548    0.8878 C   0  0  0  0  0  0  0  0  0  0  0  0
    5.7323   -1.8804    1.4653 C   0  0  0  0  0  0  0  0  0  0  0  0
   -3.8753    0.1838   -0.0745 C   0  0  0  0  0  0  0  0  0  0  0  0
   -4.6497    2.5508   -0.6245 C   0  0  0  0  0  0  0  0  0  0  0  0
   -5.3466   -0.2429   -0.1245 C   0  0  0  0  0  0  0  0  0  0  0  0
   -5.5467   -1.6012    0.5643 C   0  0  0  0  0  0  0  0  0  0  0  0
   -7.0143   -2.0736    0.6316 C   0  0  0  0  0  0  0  0  0  0  0  0
   -7.1011   -3.3948    1.4028 C   0  0  0  0  0  0  0  0  0  0  0  0
   -7.6371   -2.2450   -0.7545 C   0  0  0  0  0  0  0  0  0  0  0  0
    2.1884    1.1885   -0.9570 H   0  0  0  0  0  0  0  0  0  0  0  0
   -1.4000    0.1265   -0.0852 H   0  0  0  0  0  0  0  0  0  0  0  0
    4.3351    0.9823    0.1099 H   0  0  0  0  0  0  0  0  0  0  0  0
    1.8181    1.1487    2.7766 H   0  0  0  0  0  0  0  0  0  0  0  0
    2.5894    2.0137    1.4816 H   0  0  0  0  0  0  0  0  0  0  0  0
    1.2239   -0.3349   -2.6461 H   0  0  0  0  0  0  0  0  0  0  0  0
    0.3359   -1.1845   -1.4208 H   0  0  0  0  0  0  0  0  0  0  0  0
   -1.9704    2.9464   -1.0180 H   0  0  0  0  0  0  0  0  0  0  0  0
   -0.0170    1.7356   -2.2551 H   0  0  0  0  0  0  0  0  0  0  0  0
   -0.5040    2.6040    2.4938 H   0  0  0  0  0  0  0  0  0  0  0  0
   -1.2472    1.0213    2.2890 H   0  0  0  0  0  0  0  0  0  0  0  0
    3.2469   -0.8472    2.2861 H   0  0  0  0  0  0  0  0  0  0  0  0
   -3.0887    2.2225    1.6778 H   0  0  0  0  0  0  0  0  0  0  0  0
   -2.1675    3.6181    1.1592 H   0  0  0  0  0  0  0  0  0  0  0  0
    3.3778    0.2839   -2.5832 H   0  0  0  0  0  0  0  0  0  0  0  0
    3.5183   -1.4517   -2.6144 H   0  0  0  0  0  0  0  0  0  0  0  0
   -0.1720   -1.2825    0.7778 H   0  0  0  0  0  0  0  0  0  0  0  0
    0.0156   -0.5471    2.3726 H   0  0  0  0  0  0  0  0  0  0  0  0
    1.2786   -1.5052    1.7176 H   0  0  0  0  0  0  0  0  0  0  0  0
    1.2606    2.9356   -0.7370 H   0  0  0  0  0  0  0  0  0  0  0  0
    1.1860    3.4546    0.9498 H   0  0  0  0  0  0  0  0  0  0  0  0
   -0.1545    3.7376   -0.1189 H   0  0  0  0  0  0  0  0  0  0  0  0
    1.9083   -2.4752   -0.7889 H   0  0  0  0  0  0  0  0  0  0  0  0
    2.7730   -2.3837    0.7439 H   0  0  0  0  0  0  0  0  0  0  0  0
    3.6048   -2.8176   -0.7153 H   0  0  0  0  0  0  0  0  0  0  0  0
    7.1152   -1.0103   -1.1067 H   0  0  0  0  0  0  0  0  0  0  0  0
    5.6641   -0.6966   -3.0533 H   0  0  0  0  0  0  0  0  0  0  0  0
    5.5496    0.6781   -1.9682 H   0  0  0  0  0  0  0  0  0  0  0  0
    7.6734   -0.0441    0.8177 H   0  0  0  0  0  0  0  0  0  0  0  0
    5.5937   -1.5486    2.4989 H   0  0  0  0  0  0  0  0  0  0  0  0
    5.0076   -2.6747    1.2731 H   0  0  0  0  0  0  0  0  0  0  0  0
    6.6047    1.2415    0.2463 H   0  0  0  0  0  0  0  0  0  0  0  0
    6.5316    0.6810    1.9223 H   0  0  0  0  0  0  0  0  0  0  0  0
    6.7304   -2.3316    1.4103 H   0  0  0  0  0  0  0  0  0  0  0  0
   -0.8990    0.1166   -3.5638 H   0  0  0  0  0  0  0  0  0  0  0  0
    3.9379    0.8003    3.6300 H   0  0  0  0  0  0  0  0  0  0  0  0
   -3.5877    0.2305    0.9813 H   0  0  0  0  0  0  0  0  0  0  0  0
   -3.2986   -0.6319   -0.5296 H   0  0  0  0  0  0  0  0  0  0  0  0
   -5.5686    2.2612   -1.1472 H   0  0  0  0  0  0  0  0  0  0  0  0
   -4.8961    2.7377    0.4249 H   0  0  0  0  0  0  0  0  0  0  0  0
   -4.3516    3.5047   -1.0767 H   0  0  0  0  0  0  0  0  0  0  0  0
    6.1657   -2.7514   -2.1195 H   0  0  0  0  0  0  0  0  0  0  0  0
   -4.3406    0.8808   -2.4898 H   0  0  0  0  0  0  0  0  0  0  0  0
   -5.9709    0.5025    0.3792 H   0  0  0  0  0  0  0  0  0  0  0  0
   -5.6734   -0.3049   -1.1673 H   0  0  0  0  0  0  0  0  0  0  0  0
   -4.9391   -2.3595    0.0543 H   0  0  0  0  0  0  0  0  0  0  0  0
   -5.1607   -1.5167    1.5891 H   0  0  0  0  0  0  0  0  0  0  0  0
   -6.7217   -3.2741    2.4240 H   0  0  0  0  0  0  0  0  0  0  0  0
   -7.7361   -1.2848   -1.2717 H   0  0  0  0  0  0  0  0  0  0  0  0
   -8.6539   -2.6484   -0.6787 H   0  0  0  0  0  0  0  0  0  0  0  0
   -8.1408   -3.7281    1.4986 H   0  0  0  0  0  0  0  0  0  0  0  0
   -6.5278   -4.1871    0.9104 H   0  0  0  0  0  0  0  0  0  0  0  0
   -7.0467   -2.9228   -1.3795 H   0  0  0  0  0  0  0  0  0  0  0  0
   -8.7099   -1.4275    1.3806 H   0  0  0  0  0  0  0  0  0  0  0  0
  1 15  1  0  0  0  0
  1 70  1  0  0  0  0
  2 17  1  0  0  0  0
  2 71  1  0  0  0  0
  3 24  1  0  0  0  0
  3 77  1  0  0  0  0
  4 25  1  0  0  0  0
  4 78  1  0  0  0  0
  5 33  1  0  0  0  0
  5 89  1  0  0  0  0
  6  7  1  0  0  0  0
  6  8  1  0  0  0  0
  6 12  1  0  0  0  0
  6 21  1  0  0  0  0
  7 10  1  0  0  0  0
  7 16  1  0  0  0  0
  7 22  1  0  0  0  0
  8  9  1  0  0  0  0
  8 13  1  0  0  0  0
  8 36  1  0  0  0  0
  9 11  1  0  0  0  0
  9 20  1  0  0  0  0
  9 23  1  0  0  0  0
 10 14  1  0  0  0  0
 10 15  1  0  0  0  0
 10 37  1  0  0  0  0
 11 17  1  0  0  0  0
 11 18  1  0  0  0  0
 11 38  1  0  0  0  0
 12 17  1  0  0  0  0
 12 39  1  0  0  0  0
 12 40  1  0  0  0  0
 13 15  1  0  0  0  0
 13 41  1  0  0  0  0
 13 42  1  0  0  0  0
 14 19  1  0  0  0  0
 14 25  1  0  0  0  0
 14 43  1  0  0  0  0
 15 44  1  0  0  0  0
 16 19  1  0  0  0  0
 16 45  1  0  0  0  0
 16 46  1  0  0  0  0
 17 47  1  0  0  0  0
 18 24  1  0  0  0  0
 18 27  1  0  0  0  0
 18 28  1  0  0  0  0
 19 48  1  0  0  0  0
 19 49  1  0  0  0  0
 20 26  1  0  0  0  0
 20 50  1  0  0  0  0
 20 51  1  0  0  0  0
 21 52  1  0  0  0  0
 21 53  1  0  0  0  0
 21 54  1  0  0  0  0
 22 55  1  0  0  0  0
 22 56  1  0  0  0  0
 22 57  1  0  0  0  0
 23 58  1  0  0  0  0
 23 59  1  0  0  0  0
 23 60  1  0  0  0  0
 24 26  1  0  0  0  0
 24 61  1  0  0  0  0
 25 29  1  0  0  0  0
 25 30  1  0  0  0  0
 26 62  1  0  0  0  0
 26 63  1  0  0  0  0
 27 64  1  0  0  0  0
 27 67  1  0  0  0  0
 27 68  1  0  0  0  0
 28 65  1  0  0  0  0
 28 66  1  0  0  0  0
 28 69  1  0  0  0  0
 29 31  1  0  0  0  0
 29 72  1  0  0  0  0
 29 73  1  0  0  0  0
 30 74  1  0  0  0  0
 30 75  1  0  0  0  0
 30 76  1  0  0  0  0
 31 32  1  0  0  0  0
 31 79  1  0  0  0  0
 31 80  1  0  0  0  0
 32 33  1  0  0  0  0
 32 81  1  0  0  0  0
 32 82  1  0  0  0  0
 33 34  1  0  0  0  0
 33 35  1  0  0  0  0
 34 83  1  0  0  0  0
 34 86  1  0  0  0  0
 34 87  1  0  0  0  0
 35 84  1  0  0  0  0
 35 85  1  0  0  0  0
 35 88  1  0  0  0  0
M  END
> <PUBCHEM_COMPOUND_CID>
102004900

> <PUBCHEM_CONFORMER_RMSD>
1

> <PUBCHEM_CONFORMER_DIVERSEORDER>
1
12
5
13
16
3
15
9
6
10
7
14
11
8
2
4

> <PUBCHEM_MMFF94_PARTIAL_CHARGES>
15
1 -0.68
15 0.28
17 0.28
2 -0.68
24 0.28
25 0.28
3 -0.68
33 0.28
4 -0.68
5 -0.68
70 0.4
71 0.4
77 0.4
78 0.4
89 0.4

> <PUBCHEM_EFFECTIVE_ROTOR_COUNT>
7.2

> <PUBCHEM_PHARMACOPHORE_FEATURES>
16
1 1 acceptor
1 1 donor
1 2 acceptor
1 2 donor
1 3 acceptor
1 3 donor
1 4 acceptor
1 4 donor
1 5 acceptor
1 5 donor
3 18 27 28 hydrophobe
3 33 34 35 hydrophobe
5 7 10 14 16 19 rings
6 6 7 8 10 13 15 rings
6 6 8 9 11 12 17 rings
6 9 11 18 20 24 26 rings

> <PUBCHEM_HEAVY_ATOM_COUNT>
35

> <PUBCHEM_ATOM_DEF_STEREO_COUNT>
11

> <PUBCHEM_ATOM_UDEF_STEREO_COUNT>
0

> <PUBCHEM_BOND_DEF_STEREO_COUNT>
0

> <PUBCHEM_BOND_UDEF_STEREO_COUNT>
0

> <PUBCHEM_ISOTOPIC_ATOM_COUNT>
0

> <PUBCHEM_COMPONENT_COUNT>
1

> <PUBCHEM_CACTVS_TAUTO_COUNT>
1

> <PUBCHEM_CONFORMER_ID>
061478A400000001

> <PUBCHEM_MMFF94_ENERGY>
176.8611

> <PUBCHEM_FEATURE_SELFOVERLAP>
81.348

> <PUBCHEM_SHAPE_FINGERPRINT>
10076449 9 17917724508667652126
10190108 129 18130236985959834703
10554248 39 13045936863905656850
10906281 52 14189571974935358668
11115154 58 16805318899812450461
11135609 12 18273496797139056649
11578080 2 13252216335288563862
12035758 1 17418086616274423814
12236239 1 17531247206333296556
12422481 6 16630530617974978949
12633257 1 15051725392020148233
12778500 126 12607409880035858830
13673619 4 18409731790195861505
13690498 29 18187365424707194853
13782708 43 18408318913205864675
13811026 1 18272364292300220799
13947930 73 18267305524889790123
14068700 675 18113621218444811405
14856354 85 18335985260235086213
14955137 171 18060415824501025129
15183329 4 16588027913407937987
15461852 350 18040436565053802682
15510800 12 18337389444253382659
15721738 202 18335429005539223069
15840311 113 12247411063786455949
17349148 13 15140964989735418396
18335252 98 18342461452563053686
20105231 36 17418099815210104558
20715895 44 10881400949873135398
20775438 99 16446447280681797163
21521239 73 16298105393187389394
22122407 14 12679167362822963859
22149856 69 17988375796572655347
2260408 40 15841285791400707941
23559900 14 18341326682921361140
23569943 247 17612874795647224490
2747138 104 17988931062819034057
2838139 119 15140682440974582076
3178227 256 17275107219657848822
3388396 114 16589174742912020037
3418910 222 18342465854784343464
350125 39 16988550261528112920
3633792 109 13623518048327109957
392239 28 16702015379376478957
397830 11 18343014523506476321
404807 78 18261119612062883834
4073 2 18129662989334489657
4173938 306 13335017274531469180
439807 62 18186803587039617371
484989 97 18270408187815958030
5104073 3 16915938462211088602
6009941 240 18339073771191246277
6086070 43 17095512972843874100
6697151 62 13118819079028169328
999808 66 18131634465491490999

> <PUBCHEM_SHAPE_MULTIPOLES>
690.94
18.94
2.99
2.23
19.08
0.26
-0.27
17.88
2.64
4.57
0.58
-1.65
-0.1
2.4

> <PUBCHEM_SHAPE_SELFOVERLAP>
1434.144

> <PUBCHEM_SHAPE_VOLUME>
390.1

> <PUBCHEM_COORDINATE_TYPE>
2
5
10

$$$$
