10204153
  -OEChem-03292013303D

 53 57  0     1  0  0  0  0  0999 V2000
   -2.0468   -2.3696    1.5406 S   0  0  0  0  0  0  0  0  0  0  0  0
   -2.9839   -1.8189   -1.9465 F   0  0  0  0  0  0  0  0  0  0  0  0
    2.1423    0.7682   -1.0291 O   0  0  0  0  0  0  0  0  0  0  0  0
   -1.8213    1.3626   -1.0435 O   0  0  0  0  0  0  0  0  0  0  0  0
   -0.2601    2.0804    0.5037 N   0  0  0  0  0  0  0  0  0  0  0  0
    3.4568    2.5576   -0.7564 N   0  0  0  0  0  0  0  0  0  0  0  0
   -0.1307   -0.6512    1.2997 N   0  0  0  0  0  0  0  0  0  0  0  0
    4.2061    1.4303   -0.4754 N   0  0  0  0  0  0  0  0  0  0  0  0
    0.2154    3.2465   -0.2505 C   0  0  1  0  0  0  0  0  0  0  0  0
    1.0279    4.0559    0.7681 C   0  0  0  0  0  0  0  0  0  0  0  0
    0.4028    3.6736    2.1013 C   0  0  0  0  0  0  0  0  0  0  0  0
    0.1082    2.1938    1.9152 C   0  0  0  0  0  0  0  0  0  0  0  0
    1.0623    2.8789   -1.4634 C   0  0  0  0  0  0  0  0  0  0  0  0
   -1.1350    1.1415   -0.0463 C   0  0  0  0  0  0  0  0  0  0  0  0
    2.2894    2.1048   -1.0653 C   0  0  0  0  0  0  0  0  0  0  0  0
   -1.2279   -0.1527    0.6269 C   0  0  0  0  0  0  0  0  0  0  0  0
   -2.3584   -0.9404    0.6454 C   0  0  0  0  0  0  0  0  0  0  0  0
    3.3986    0.4099   -0.6474 C   0  0  0  0  0  0  0  0  0  0  0  0
   -3.6621   -0.7399    0.0611 C   0  0  0  0  0  0  0  0  0  0  0  0
   -0.4470   -1.8157    1.8211 C   0  0  0  0  0  0  0  0  0  0  0  0
    3.6327   -0.9972   -0.4992 C   0  0  0  0  0  0  0  0  0  0  0  0
    0.4755   -2.6548    2.6166 C   0  0  0  0  0  0  0  0  0  0  0  0
   -3.9298   -1.1933   -1.2307 C   0  0  0  0  0  0  0  0  0  0  0  0
   -4.6573   -0.0909    0.7922 C   0  0  0  0  0  0  0  0  0  0  0  0
    2.6044   -1.9144   -0.7420 C   0  0  0  0  0  0  0  0  0  0  0  0
    4.8922   -1.4652   -0.1090 C   0  0  0  0  0  0  0  0  0  0  0  0
   -5.1920   -0.9976   -1.7912 C   0  0  0  0  0  0  0  0  0  0  0  0
   -5.9195    0.1049    0.2316 C   0  0  0  0  0  0  0  0  0  0  0  0
   -6.1869   -0.3485   -1.0600 C   0  0  0  0  0  0  0  0  0  0  0  0
    2.8327   -3.2827   -0.5966 C   0  0  0  0  0  0  0  0  0  0  0  0
    5.1206   -2.8335    0.0364 C   0  0  0  0  0  0  0  0  0  0  0  0
    4.0909   -3.7423   -0.2074 C   0  0  0  0  0  0  0  0  0  0  0  0
   -0.6695    3.8099   -0.5713 H   0  0  0  0  0  0  0  0  0  0  0  0
    0.9577    5.1313    0.5757 H   0  0  0  0  0  0  0  0  0  0  0  0
    2.0896    3.8063    0.8101 H   0  0  0  0  0  0  0  0  0  0  0  0
    1.0578    3.8696    2.9546 H   0  0  0  0  0  0  0  0  0  0  0  0
   -0.5310    4.2298    2.2474 H   0  0  0  0  0  0  0  0  0  0  0  0
    1.0115    1.5957    2.0768 H   0  0  0  0  0  0  0  0  0  0  0  0
   -0.6929    1.8346    2.5671 H   0  0  0  0  0  0  0  0  0  0  0  0
    1.3772    3.7905   -1.9851 H   0  0  0  0  0  0  0  0  0  0  0  0
    0.4809    2.2877   -2.1802 H   0  0  0  0  0  0  0  0  0  0  0  0
    0.0937   -2.8051    3.6314 H   0  0  0  0  0  0  0  0  0  0  0  0
    0.6208   -3.6333    2.1476 H   0  0  0  0  0  0  0  0  0  0  0  0
    1.4569   -2.1756    2.6970 H   0  0  0  0  0  0  0  0  0  0  0  0
   -4.4655    0.2702    1.8000 H   0  0  0  0  0  0  0  0  0  0  0  0
    1.6111   -1.5954   -1.0483 H   0  0  0  0  0  0  0  0  0  0  0  0
    5.7102   -0.7759    0.0869 H   0  0  0  0  0  0  0  0  0  0  0  0
   -5.4000   -1.3506   -2.7969 H   0  0  0  0  0  0  0  0  0  0  0  0
   -6.6941    0.6106    0.8007 H   0  0  0  0  0  0  0  0  0  0  0  0
   -7.1695   -0.1960   -1.4966 H   0  0  0  0  0  0  0  0  0  0  0  0
    2.0306   -3.9903   -0.7850 H   0  0  0  0  0  0  0  0  0  0  0  0
    6.1001   -3.1916    0.3397 H   0  0  0  0  0  0  0  0  0  0  0  0
    4.2685   -4.8076   -0.0936 H   0  0  0  0  0  0  0  0  0  0  0  0
  1 17  1  0  0  0  0
  1 20  1  0  0  0  0
  2 23  1  0  0  0  0
  3 15  1  0  0  0  0
  3 18  1  0  0  0  0
  4 14  2  0  0  0  0
  5  9  1  0  0  0  0
  5 12  1  0  0  0  0
  5 14  1  0  0  0  0
  6  8  1  0  0  0  0
  6 15  2  0  0  0  0
  7 16  1  0  0  0  0
  7 20  2  0  0  0  0
  8 18  2  0  0  0  0
  9 10  1  0  0  0  0
  9 13  1  0  0  0  0
  9 33  1  0  0  0  0
 10 11  1  0  0  0  0
 10 34  1  0  0  0  0
 10 35  1  0  0  0  0
 11 12  1  0  0  0  0
 11 36  1  0  0  0  0
 11 37  1  0  0  0  0
 12 38  1  0  0  0  0
 12 39  1  0  0  0  0
 13 15  1  0  0  0  0
 13 40  1  0  0  0  0
 13 41  1  0  0  0  0
 14 16  1  0  0  0  0
 16 17  2  0  0  0  0
 17 19  1  0  0  0  0
 18 21  1  0  0  0  0
 19 23  1  0  0  0  0
 19 24  2  0  0  0  0
 20 22  1  0  0  0  0
 21 25  2  0  0  0  0
 21 26  1  0  0  0  0
 22 42  1  0  0  0  0
 22 43  1  0  0  0  0
 22 44  1  0  0  0  0
 23 27  2  0  0  0  0
 24 28  1  0  0  0  0
 24 45  1  0  0  0  0
 25 30  1  0  0  0  0
 25 46  1  0  0  0  0
 26 31  2  0  0  0  0
 26 47  1  0  0  0  0
 27 29  1  0  0  0  0
 27 48  1  0  0  0  0
 28 29  2  0  0  0  0
 28 49  1  0  0  0  0
 29 50  1  0  0  0  0
 30 32  2  0  0  0  0
 30 51  1  0  0  0  0
 31 32  1  0  0  0  0
 31 52  1  0  0  0  0
 32 53  1  0  0  0  0
M  END
> <PUBCHEM_COMPOUND_CID>
10204153

> <PUBCHEM_CONFORMER_RMSD>
1

> <PUBCHEM_CONFORMER_DIVERSEORDER>
1
43
100
31
179
141
293
96
55
57
289
69
94
187
282
140
184
290
51
148
208
243
45
218
295
158
233
24
130
242
219
308
280
84
201
38
222
131
254
161
123
70
207
177
89
186
19
10
162
157
301
268
41
194
264
165
52
150
303
79
149
120
46
59
292
7
16
4
127
198
276
60
210
64
20
189
272
314
302
182
73
139
37
232
76
17
105
298
257
259
135
97
220
121
209
305
213
172
251
110
181
271
240
67
106
102
82
313
200
246
212
146
195
54
253
221
152
288
93
50
230
256
250
248
3
15
255
241
306
58
249
237
18
40
307
191
151
112
108
164
267
252
286
180
178
115
176
87
107
169
74
315
109
283
204
192
8
83
291
104
281
226
138
175
113
154
132
236
63
25
163
153
174
285
117
6
216
274
88
111
14
159
299
129
95
203
273
125
77
12
92
231
103
23
269
34
170
39
224
27
119
278
134
85
11
72
75
183
311
244
49
284
136
316
53
137
56
214
166
61
68
99
160
227
65
142
310
171
116
80
2
29
26
126
98
287
32
193
144
22
196
124
133
234
47
197
211
309
223
118
238
228
190
312
13
71
147
173
258
90
215
247
155
42
21
205
128
9
304
44
277
35
122
188
262
78
33
168
265
225
167
5
266
156
294
245
28
297
185
235
66
36
300
143
239
48
145
30
199
114
101
260
296
229
62
81
279
270
217
206
261
275
86
202
263
91

> <PUBCHEM_MMFF94_PARTIAL_CHARGES>
39
1 -0.08
12 0.3
13 0.18
14 0.72
15 0.3
16 0.14
17 -0.01
18 0.43
19 0.05
2 -0.19
20 0.2
21 0.05
22 0.18
23 0.19
24 -0.15
25 -0.15
26 -0.15
27 -0.15
28 -0.15
29 -0.15
3 -0.28
30 -0.15
31 -0.15
32 -0.15
4 -0.57
45 0.15
46 0.15
47 0.15
48 0.15
49 0.15
5 -0.66
50 0.15
51 0.15
52 0.15
53 0.15
6 -0.34
7 -0.57
8 -0.34
9 0.3

> <PUBCHEM_EFFECTIVE_ROTOR_COUNT>
7

> <PUBCHEM_PHARMACOPHORE_FEATURES>
7
1 4 acceptor
1 7 acceptor
5 1 7 16 17 20 rings
5 3 6 8 15 18 rings
5 5 9 10 11 12 rings
6 19 23 24 27 28 29 rings
6 21 25 26 30 31 32 rings

> <PUBCHEM_HEAVY_ATOM_COUNT>
32

> <PUBCHEM_ATOM_DEF_STEREO_COUNT>
1

> <PUBCHEM_ATOM_UDEF_STEREO_COUNT>
0

> <PUBCHEM_BOND_DEF_STEREO_COUNT>
0

> <PUBCHEM_BOND_UDEF_STEREO_COUNT>
0

> <PUBCHEM_ISOTOPIC_ATOM_COUNT>
0

> <PUBCHEM_COMPONENT_COUNT>
1

> <PUBCHEM_CACTVS_TAUTO_COUNT>
1

> <PUBCHEM_CONFORMER_ID>
009BB3F900000001

> <PUBCHEM_MMFF94_ENERGY>
68.7521

> <PUBCHEM_FEATURE_SELFOVERLAP>
35.525

> <PUBCHEM_SHAPE_FINGERPRINT>
10675989 125 18335425698467814817
10693767 8 18339909494607437431
11135609 149 18054756651243200533
11135926 11 18117301313869947516
11552529 35 17840305515697178898
11720765 8 18342446058926271085
12107698 1 18339359648351199182
12156800 1 17391035220064154272
12788726 201 18127149505837724544
13004483 165 18271523083377563758
1361 2 18412824706971257934
13692114 37 17122285883802529737
13757389 114 15884601786248546499
13782708 43 17532109322624547099
14068700 675 18341329977614684874
14117953 113 18058735693302689647
14251757 17 17895198830612523851
14681490 219 18335699403731765709
14931854 50 18041851597458493382
1813 80 18269537387238051155
19311894 1 17328586116661024378
20511986 3 17560231552327523205
20609170 17 17027169589204118923
20642791 13 18265338296675873258
20775438 99 17835211800095786839
20775530 9 18337959970101274554
20832881 197 18410296900127514177
21285901 2 17894624872478802844
21987440 362 15580284739069509036
23536364 44 17970619684749018191
23559900 14 18261400004749169436
238 59 17981611777242973310
27425 322 15359104991203158997
3459 83 18410860923964820427
345986 75 17988650665932265353
3729539 64 17894911780832001899
4015057 19 18410011074480989891
463206 1 18342174500838928806
495365 180 17911517911104752513
513532 50 18119785127621354677
5265222 85 17395318144335556828
57527295 17 18057612173308810081
57527585 103 17535789275861834570
59682541 52 18269537490744196943
6004065 56 18340760550502558186
613672 6 18336271167507393274
6438754 60 18262231119111797963
70251023 43 18267869380400679826
7399639 24 17111859713003732667
9981440 41 17334482200346117489

> <PUBCHEM_SHAPE_MULTIPOLES>
623.46
10.92
5.02
1.92
7.67
2.73
-0.73
-8.02
4.96
-5.75
-1.2
1.03
-0.15
-0.51

> <PUBCHEM_SHAPE_SELFOVERLAP>
1365.283

> <PUBCHEM_SHAPE_VOLUME>
341.7

> <PUBCHEM_COORDINATE_TYPE>
2
5
10

$$$$
