10200273
  -OEChem-03292013303D

 48 54  0     1  0  0  0  0  0999 V2000
   -0.0487    0.3170    2.3080 O   0  0  0  0  0  0  0  0  0  0  0  0
   -3.3055   -1.3021    1.5123 O   0  0  0  0  0  0  0  0  0  0  0  0
    3.0412   -1.7928   -1.6201 O   0  0  0  0  0  0  0  0  0  0  0  0
   -1.0270    1.4083   -2.6463 O   0  0  0  0  0  0  0  0  0  0  0  0
   -2.9933   -2.1908   -1.9929 O   0  0  0  0  0  0  0  0  0  0  0  0
   -2.4815    1.9590    1.4577 O   0  0  0  0  0  0  0  0  0  0  0  0
    1.5108   -2.8764    1.5534 O   0  0  0  0  0  0  0  0  0  0  0  0
    3.8083    1.2659   -0.5860 O   0  0  0  0  0  0  0  0  0  0  0  0
   -1.1290    0.4114    0.1106 C   0  0  2  0  0  0  0  0  0  0  0  0
   -0.2275    1.6488   -0.3054 C   0  0  1  0  0  0  0  0  0  0  0  0
    1.0829    1.6205    0.5590 C   0  0  2  0  0  0  0  0  0  0  0  0
   -0.2835   -0.4616    1.1016 C   0  0  1  0  0  0  0  0  0  0  0  0
    1.0794   -0.7782    0.5205 C   0  0  0  0  0  0  0  0  0  0  0  0
    1.8003    0.3233    0.2526 C   0  0  0  0  0  0  0  0  0  0  0  0
   -1.6801   -0.3294   -1.1035 C   0  0  0  0  0  0  0  0  0  0  0  0
   -2.4049    0.8877    0.8651 C   0  0  0  0  0  0  0  0  0  0  0  0
    0.6633    1.5496    2.0469 C   0  0  2  0  0  0  0  0  0  0  0  0
   -3.5823   -0.0266    0.9198 C   0  0  1  0  0  0  0  0  0  0  0  0
   -3.6206   -1.2980    0.1133 C   0  0  1  0  0  0  0  0  0  0  0  0
    0.1064    1.6830   -1.8209 C   0  0  2  0  0  0  0  0  0  0  0  0
   -2.4725   -1.5925   -0.8054 C   0  0  1  0  0  0  0  0  0  0  0  0
    1.5335   -2.1886    0.3014 C   0  0  1  0  0  0  0  0  0  0  0  0
    2.9034   -2.3213   -0.2929 C   0  0  2  0  0  0  0  0  0  0  0  0
    3.7166   -1.0849   -0.5675 C   0  0  2  0  0  0  0  0  0  0  0  0
    3.1607    0.2627   -0.3187 C   0  0  0  0  0  0  0  0  0  0  0  0
   -1.6306    0.2265   -2.3247 C   0  0  0  0  0  0  0  0  0  0  0  0
    1.8370    1.6333    3.0181 C   0  0  0  0  0  0  0  0  0  0  0  0
    0.6430    3.0464   -2.2559 C   0  0  0  0  0  0  0  0  0  0  0  0
   -0.7658    2.5778   -0.0764 H   0  0  0  0  0  0  0  0  0  0  0  0
    1.7038    2.5017    0.3748 H   0  0  0  0  0  0  0  0  0  0  0  0
   -0.7933   -1.3726    1.4220 H   0  0  0  0  0  0  0  0  0  0  0  0
   -0.0183    2.3762    2.2781 H   0  0  0  0  0  0  0  0  0  0  0  0
   -4.5343    0.4363    1.1538 H   0  0  0  0  0  0  0  0  0  0  0  0
   -4.5743   -1.7111   -0.1828 H   0  0  0  0  0  0  0  0  0  0  0  0
    0.8692    0.9381   -2.0793 H   0  0  0  0  0  0  0  0  0  0  0  0
   -1.8079   -2.3402   -0.3597 H   0  0  0  0  0  0  0  0  0  0  0  0
    0.8194   -2.6979   -0.3550 H   0  0  0  0  0  0  0  0  0  0  0  0
    3.3963   -3.2611   -0.0878 H   0  0  0  0  0  0  0  0  0  0  0  0
    4.7949   -1.1796   -0.5140 H   0  0  0  0  0  0  0  0  0  0  0  0
   -2.1400   -0.1680   -3.1931 H   0  0  0  0  0  0  0  0  0  0  0  0
    2.4195    2.5452    2.8570 H   0  0  0  0  0  0  0  0  0  0  0  0
    1.4701    1.6332    4.0505 H   0  0  0  0  0  0  0  0  0  0  0  0
    2.5019    0.7678    2.9298 H   0  0  0  0  0  0  0  0  0  0  0  0
    0.8270    3.0548   -3.3362 H   0  0  0  0  0  0  0  0  0  0  0  0
   -0.0908    3.8357   -2.0591 H   0  0  0  0  0  0  0  0  0  0  0  0
    1.5778    3.3009   -1.7497 H   0  0  0  0  0  0  0  0  0  0  0  0
   -3.3870   -3.0445   -1.7431 H   0  0  0  0  0  0  0  0  0  0  0  0
    2.1324   -2.4283    2.1528 H   0  0  0  0  0  0  0  0  0  0  0  0
  1 12  1  0  0  0  0
  1 17  1  0  0  0  0
  2 18  1  0  0  0  0
  2 19  1  0  0  0  0
  3 23  1  0  0  0  0
  3 24  1  0  0  0  0
  4 20  1  0  0  0  0
  4 26  1  0  0  0  0
  5 21  1  0  0  0  0
  5 47  1  0  0  0  0
  6 16  2  0  0  0  0
  7 22  1  0  0  0  0
  7 48  1  0  0  0  0
  8 25  2  0  0  0  0
  9 10  1  0  0  0  0
  9 12  1  0  0  0  0
  9 15  1  0  0  0  0
  9 16  1  0  0  0  0
 10 11  1  0  0  0  0
 10 20  1  0  0  0  0
 10 29  1  0  0  0  0
 11 14  1  0  0  0  0
 11 17  1  0  0  0  0
 11 30  1  0  0  0  0
 12 13  1  0  0  0  0
 12 31  1  0  0  0  0
 13 14  2  0  0  0  0
 13 22  1  0  0  0  0
 14 25  1  0  0  0  0
 15 21  1  0  0  0  0
 15 26  2  0  0  0  0
 16 18  1  0  0  0  0
 17 27  1  0  0  0  0
 17 32  1  0  0  0  0
 18 19  1  0  0  0  0
 18 33  1  0  0  0  0
 19 21  1  0  0  0  0
 19 34  1  0  0  0  0
 20 28  1  0  0  0  0
 20 35  1  0  0  0  0
 21 36  1  0  0  0  0
 22 23  1  0  0  0  0
 22 37  1  0  0  0  0
 23 24  1  0  0  0  0
 23 38  1  0  0  0  0
 24 25  1  0  0  0  0
 24 39  1  0  0  0  0
 26 40  1  0  0  0  0
 27 41  1  0  0  0  0
 27 42  1  0  0  0  0
 27 43  1  0  0  0  0
 28 44  1  0  0  0  0
 28 45  1  0  0  0  0
 28 46  1  0  0  0  0
M  END
> <PUBCHEM_COMPOUND_CID>
10200273

> <PUBCHEM_CONFORMER_RMSD>
0.6

> <PUBCHEM_CONFORMER_DIVERSEORDER>
1

> <PUBCHEM_MMFF94_PARTIAL_CHARGES>
32
1 -0.56
11 0.14
12 0.42
13 -0.28
14 -0.12
15 -0.28
16 0.51
17 0.28
18 0.05
19 -0.05
2 -0.3
20 0.28
21 0.51
22 0.51
23 -0.05
24 0.05
25 0.56
26 -0.07
3 -0.3
33 0.1
34 0.1
38 0.1
39 0.1
4 -0.36
40 0.15
47 0.4
48 0.4
5 -0.68
6 -0.57
7 -0.68
8 -0.57
9 0.2

> <PUBCHEM_EFFECTIVE_ROTOR_COUNT>
1.6

> <PUBCHEM_PHARMACOPHORE_FEATURES>
14
1 1 acceptor
1 2 acceptor
1 3 acceptor
1 4 acceptor
1 5 acceptor
1 5 donor
1 6 acceptor
1 7 acceptor
1 7 donor
1 8 acceptor
6 4 9 10 15 20 26 rings
7 2 9 15 16 18 19 21 rings
7 3 13 14 22 23 24 25 rings
8 1 9 10 11 12 13 14 17 rings

> <PUBCHEM_HEAVY_ATOM_COUNT>
28

> <PUBCHEM_ATOM_DEF_STEREO_COUNT>
12

> <PUBCHEM_ATOM_UDEF_STEREO_COUNT>
0

> <PUBCHEM_BOND_DEF_STEREO_COUNT>
0

> <PUBCHEM_BOND_UDEF_STEREO_COUNT>
0

> <PUBCHEM_ISOTOPIC_ATOM_COUNT>
0

> <PUBCHEM_COMPONENT_COUNT>
1

> <PUBCHEM_CACTVS_TAUTO_COUNT>
4

> <PUBCHEM_CONFORMER_ID>
009BA4D100000001

> <PUBCHEM_MMFF94_ENERGY>
87.2514

> <PUBCHEM_FEATURE_SELFOVERLAP>
71.082

> <PUBCHEM_SHAPE_FINGERPRINT>
10863032 1 18200888278723807320
11578080 2 18197192828817715520
12156800 1 15902140315039062702
12403814 3 17825116899929123937
12553582 1 17632856425598264822
12633257 1 16773532044001288643
13224815 77 18334289851563803642
133893 2 17198775832407085192
13583140 156 17560793390026781025
14223421 5 17631435934010969427
14787075 74 17773321351530036680
14863182 85 17550935323301572647
15664445 248 17970321897576168773
16945 1 18130215077320517208
17492 54 17461442704899316686
1813 80 18114194028930773533
18981168 100 17025424496609046196
20691752 17 17894351059813275683
21330990 113 17687769150388536429
21731516 1 18059559274571793439
229495 10 17031374976440032224
23419403 2 17838852115569405736
23493267 7 17059235664553078536
238 59 17244126434744896599
25222932 49 15977197785442177399
34934 24 17275101717672841704
5845 1 13754074076294914868
6287921 2 18118135894033020637
7097593 13 17561366205292993775

> <PUBCHEM_SHAPE_MULTIPOLES>
529.27
5.53
2.86
2.6
0.32
0.28
0.05
2.78
-0.28
-0.99
-0.55
0.24
-1.38
0.02

> <PUBCHEM_SHAPE_SELFOVERLAP>
1199.189

> <PUBCHEM_SHAPE_VOLUME>
270.8

> <PUBCHEM_COORDINATE_TYPE>
2
5
10

$$$$
