102059902
  -OEChem-03292013293D

 64 64  0     1  0  0  0  0  0999 V2000
    1.7526    1.1159   -3.0854 O   0  0  0  0  0  0  0  0  0  0  0  0
    1.5240    3.9429    0.6597 O   0  0  0  0  0  0  0  0  0  0  0  0
   -1.5467   -2.7874   -2.8768 O   0  0  0  0  0  0  0  0  0  0  0  0
   -4.7625    1.7513    0.6016 O   0  0  0  0  0  0  0  0  0  0  0  0
    4.2151   -0.1305   -1.0475 O   0  0  0  0  0  0  0  0  0  0  0  0
    5.5566   -0.6163    0.7166 O   0  0  0  0  0  0  0  0  0  0  0  0
    0.4667    1.0268   -1.0350 C   0  0  2  0  0  0  0  0  0  0  0  0
    0.1364    2.0396    0.0719 C   0  0  2  0  0  0  0  0  0  0  0  0
    0.9801    1.8984   -2.1889 C   0  0  1  0  0  0  0  0  0  0  0  0
    1.8516    2.9544   -1.5128 C   0  0  0  0  0  0  0  0  0  0  0  0
    1.2113    3.0832   -0.1547 C   0  0  0  0  0  0  0  0  0  0  0  0
    0.1882    1.4447    1.4681 C   0  0  0  0  0  0  0  0  0  0  0  0
   -0.7109    0.1887   -1.4179 C   0  0  0  0  0  0  0  0  0  0  0  0
   -1.9115   -1.9927   -1.7441 C   0  0  1  0  0  0  0  0  0  0  0  0
   -2.4252   -2.9359   -0.6280 C   0  0  2  0  0  0  0  0  0  0  0  0
   -0.7261   -1.1509   -1.3544 C   0  0  0  0  0  0  0  0  0  0  0  0
    1.4791    0.7910    1.8837 C   0  0  0  0  0  0  0  0  0  0  0  0
   -2.8849   -2.2006    0.6495 C   0  0  0  0  0  0  0  0  0  0  0  0
   -3.8830   -1.0545    0.4438 C   0  0  0  0  0  0  0  0  0  0  0  0
   -1.3965   -4.0145   -0.2479 C   0  0  0  0  0  0  0  0  0  0  0  0
    1.6474   -0.4730    2.3012 C   0  0  0  0  0  0  0  0  0  0  0  0
   -4.2559   -0.3310    1.7411 C   0  0  0  0  0  0  0  0  0  0  0  0
    2.9777   -1.0506    2.6881 C   0  0  0  0  0  0  0  0  0  0  0  0
   -5.2735    0.7805    1.5043 C   0  0  0  0  0  0  0  0  0  0  0  0
    3.3984   -2.2553    1.8351 C   0  0  0  0  0  0  0  0  0  0  0  0
    3.5467   -1.9394    0.3437 C   0  0  0  0  0  0  0  0  0  0  0  0
    4.5608   -0.8562    0.0477 C   0  0  0  0  0  0  0  0  0  0  0  0
   -5.7163    2.7715    0.3371 C   0  0  0  0  0  0  0  0  0  0  0  0
    1.2897    0.3675   -0.7295 H   0  0  0  0  0  0  0  0  0  0  0  0
   -0.8328    2.5228   -0.1055 H   0  0  0  0  0  0  0  0  0  0  0  0
    0.1560    2.3662   -2.7419 H   0  0  0  0  0  0  0  0  0  0  0  0
    1.8136    3.9043   -2.0517 H   0  0  0  0  0  0  0  0  0  0  0  0
    2.8893    2.6265   -1.4022 H   0  0  0  0  0  0  0  0  0  0  0  0
   -0.0151    2.2406    2.1966 H   0  0  0  0  0  0  0  0  0  0  0  0
   -0.6339    0.7253    1.5758 H   0  0  0  0  0  0  0  0  0  0  0  0
   -1.6000    0.7119   -1.7623 H   0  0  0  0  0  0  0  0  0  0  0  0
   -3.2935   -3.4709   -1.0377 H   0  0  0  0  0  0  0  0  0  0  0  0
   -2.7399   -1.3593   -2.0810 H   0  0  0  0  0  0  0  0  0  0  0  0
    0.1679   -1.6733   -1.0244 H   0  0  0  0  0  0  0  0  0  0  0  0
    2.1243    1.7190   -3.7515 H   0  0  0  0  0  0  0  0  0  0  0  0
    2.3586    1.4312    1.8439 H   0  0  0  0  0  0  0  0  0  0  0  0
   -3.3341   -2.9331    1.3330 H   0  0  0  0  0  0  0  0  0  0  0  0
   -2.0047   -1.8024    1.1717 H   0  0  0  0  0  0  0  0  0  0  0  0
   -3.4661   -0.3187   -0.2497 H   0  0  0  0  0  0  0  0  0  0  0  0
   -4.7901   -1.4550   -0.0250 H   0  0  0  0  0  0  0  0  0  0  0  0
   -0.5046   -3.5816    0.2162 H   0  0  0  0  0  0  0  0  0  0  0  0
   -1.8317   -4.7196    0.4691 H   0  0  0  0  0  0  0  0  0  0  0  0
   -1.0818   -4.5930   -1.1222 H   0  0  0  0  0  0  0  0  0  0  0  0
    0.7850   -1.1319    2.3610 H   0  0  0  0  0  0  0  0  0  0  0  0
   -3.3458    0.1014    2.1742 H   0  0  0  0  0  0  0  0  0  0  0  0
   -4.6610   -1.0472    2.4648 H   0  0  0  0  0  0  0  0  0  0  0  0
   -1.2697   -2.1824   -3.5863 H   0  0  0  0  0  0  0  0  0  0  0  0
    2.9085   -1.3775    3.7332 H   0  0  0  0  0  0  0  0  0  0  0  0
    3.7590   -0.2822    2.6661 H   0  0  0  0  0  0  0  0  0  0  0  0
   -6.1983    0.3522    1.0995 H   0  0  0  0  0  0  0  0  0  0  0  0
   -5.5067    1.2632    2.4606 H   0  0  0  0  0  0  0  0  0  0  0  0
    4.3521   -2.6361    2.2213 H   0  0  0  0  0  0  0  0  0  0  0  0
    2.6654   -3.0630    1.9533 H   0  0  0  0  0  0  0  0  0  0  0  0
    2.5761   -1.6425   -0.0669 H   0  0  0  0  0  0  0  0  0  0  0  0
    3.8658   -2.8403   -0.1922 H   0  0  0  0  0  0  0  0  0  0  0  0
   -5.2677    3.4907   -0.3536 H   0  0  0  0  0  0  0  0  0  0  0  0
   -5.9850    3.2944    1.2600 H   0  0  0  0  0  0  0  0  0  0  0  0
   -6.6102    2.3488   -0.1315 H   0  0  0  0  0  0  0  0  0  0  0  0
    4.8583    0.5876   -1.2287 H   0  0  0  0  0  0  0  0  0  0  0  0
  1  9  1  0  0  0  0
  1 40  1  0  0  0  0
  2 11  2  0  0  0  0
  3 14  1  0  0  0  0
  3 52  1  0  0  0  0
  4 24  1  0  0  0  0
  4 28  1  0  0  0  0
  5 27  1  0  0  0  0
  5 64  1  0  0  0  0
  6 27  2  0  0  0  0
  7  8  1  0  0  0  0
  7  9  1  0  0  0  0
  7 13  1  0  0  0  0
  7 29  1  0  0  0  0
  8 11  1  0  0  0  0
  8 12  1  0  0  0  0
  8 30  1  0  0  0  0
  9 10  1  0  0  0  0
  9 31  1  0  0  0  0
 10 11  1  0  0  0  0
 10 32  1  0  0  0  0
 10 33  1  0  0  0  0
 12 17  1  0  0  0  0
 12 34  1  0  0  0  0
 12 35  1  0  0  0  0
 13 16  2  0  0  0  0
 13 36  1  0  0  0  0
 14 15  1  0  0  0  0
 14 16  1  0  0  0  0
 14 38  1  0  0  0  0
 15 18  1  0  0  0  0
 15 20  1  0  0  0  0
 15 37  1  0  0  0  0
 16 39  1  0  0  0  0
 17 21  2  0  0  0  0
 17 41  1  0  0  0  0
 18 19  1  0  0  0  0
 18 42  1  0  0  0  0
 18 43  1  0  0  0  0
 19 22  1  0  0  0  0
 19 44  1  0  0  0  0
 19 45  1  0  0  0  0
 20 46  1  0  0  0  0
 20 47  1  0  0  0  0
 20 48  1  0  0  0  0
 21 23  1  0  0  0  0
 21 49  1  0  0  0  0
 22 24  1  0  0  0  0
 22 50  1  0  0  0  0
 22 51  1  0  0  0  0
 23 25  1  0  0  0  0
 23 53  1  0  0  0  0
 23 54  1  0  0  0  0
 24 55  1  0  0  0  0
 24 56  1  0  0  0  0
 25 26  1  0  0  0  0
 25 57  1  0  0  0  0
 25 58  1  0  0  0  0
 26 27  1  0  0  0  0
 26 59  1  0  0  0  0
 26 60  1  0  0  0  0
 28 61  1  0  0  0  0
 28 62  1  0  0  0  0
 28 63  1  0  0  0  0
M  END
> <PUBCHEM_COMPOUND_CID>
102059902

> <PUBCHEM_CONFORMER_RMSD>
1.2

> <PUBCHEM_CONFORMER_DIVERSEORDER>
1
116
209
159
14
178
122
127
26
139
82
211
185
132
16
31
157
167
133
174
113
95
161
98
149
66
12
162
90
143
11
34
25
28
192
55
13
117
202
176
125
86
111
17
63
32
194
180
188
46
193
164
170
173
140
186
107
38
87
100
89
85
195
112
212
144
160
182
61
76
151
207
123
158
190
208
105
118
104
154
121
124
163
83
93
49
198
103
204
65
78
189
96
142
99
88
109
41
23
60
177
75
146
20
97
168
44
172
153
200
59
138
181
52
152
148
155
43
7
4
67
196
57
47
42
5
165
92
29
56
10
70
54
129
187
166
33
91
2
71
199
108
40
197
58
147
183
53
51
169
50
136
115
191
184
68
131
134
102
203
120
179
3
24
77
150
64
18
114
30
130
73
141
205
27
39
206
62
201
8
156
106
145
19
81
128
210
35
69
79
84
101
9
119
137
6
45
80
94
126
15
22
171
48
135
175
74
21
110
36
72
37

> <PUBCHEM_MMFF94_PARTIAL_CHARGES>
29
1 -0.68
10 0.06
11 0.45
12 0.14
13 -0.29
14 0.42
16 -0.29
17 -0.29
2 -0.57
21 -0.29
23 0.14
24 0.28
26 0.06
27 0.66
28 0.28
3 -0.68
36 0.15
39 0.15
4 -0.56
40 0.4
41 0.15
49 0.15
5 -0.65
52 0.4
6 -0.57
64 0.5
7 0.14
8 0.06
9 0.28

> <PUBCHEM_EFFECTIVE_ROTOR_COUNT>
14.8

> <PUBCHEM_PHARMACOPHORE_FEATURES>
13
1 1 acceptor
1 1 donor
1 2 acceptor
1 20 hydrophobe
1 3 acceptor
1 3 donor
1 4 acceptor
1 5 acceptor
1 6 acceptor
3 5 6 27 anion
4 15 18 19 22 hydrophobe
4 21 23 25 26 hydrophobe
5 7 8 9 10 11 rings

> <PUBCHEM_HEAVY_ATOM_COUNT>
28

> <PUBCHEM_ATOM_DEF_STEREO_COUNT>
5

> <PUBCHEM_ATOM_UDEF_STEREO_COUNT>
0

> <PUBCHEM_BOND_DEF_STEREO_COUNT>
2

> <PUBCHEM_BOND_UDEF_STEREO_COUNT>
0

> <PUBCHEM_ISOTOPIC_ATOM_COUNT>
0

> <PUBCHEM_COMPONENT_COUNT>
1

> <PUBCHEM_CACTVS_TAUTO_COUNT>
6

> <PUBCHEM_CONFORMER_ID>
06154F7E00000001

> <PUBCHEM_MMFF94_ENERGY>
35.444

> <PUBCHEM_FEATURE_SELFOVERLAP>
66.032

> <PUBCHEM_SHAPE_FINGERPRINT>
10764073 3 16915663566738964638
11421498 54 17476355475379786187
12467345 10 18114474387221547721
133893 2 17679844179533766106
14251757 17 15068612778178947826
14932701 244 13984661408593775734
17974551 9 18042140884890687355
20429585 67 14057012576694544763
445580 2 17346601815891294043

> <PUBCHEM_SHAPE_MULTIPOLES>
541.01
9.56
4.6
2.78
5.37
0.47
0.66
-0.1
-4.88
1.22
1.13
-0.87
-0.42
-2.76

> <PUBCHEM_SHAPE_SELFOVERLAP>
1060.081

> <PUBCHEM_SHAPE_VOLUME>
324.7

> <PUBCHEM_COORDINATE_TYPE>
2
5
10

$$$$
