102031094
  -OEChem-03292013293D

 55 58  0     1  0  0  0  0  0999 V2000
   -0.9203    1.2664   -1.0889 O   0  0  0  0  0  0  0  0  0  0  0  0
   -0.3648    2.5954   -0.8446 O   0  0  0  0  0  0  0  0  0  0  0  0
   -2.1359    1.5789    0.9326 O   0  0  0  0  0  0  0  0  0  0  0  0
   -0.0627    2.7585    1.9738 O   0  0  0  0  0  0  0  0  0  0  0  0
    0.5848   -2.2134   -1.2689 O   0  0  0  0  0  0  0  0  0  0  0  0
   -4.1780    0.1792    0.7674 O   0  0  0  0  0  0  0  0  0  0  0  0
    3.8825   -0.5047   -1.8212 O   0  0  0  0  0  0  0  0  0  0  0  0
    1.0600   -0.5036    0.3938 C   0  0  2  0  0  0  0  0  0  0  0  0
    0.0247    0.4752    1.0353 C   0  0  2  0  0  0  0  0  0  0  0  0
   -1.2969    0.6913    0.1813 C   0  0  2  0  0  0  0  0  0  0  0  0
    0.7144    1.8628    1.1852 C   0  0  1  0  0  0  0  0  0  0  0  0
   -2.1156   -0.5932   -0.1813 C   0  0  1  0  0  0  0  0  0  0  0  0
    2.2165   -0.9914    1.3053 C   0  0  0  0  0  0  0  0  0  0  0  0
    1.8910    0.1885   -0.6647 C   0  0  0  0  0  0  0  0  0  0  0  0
    0.9261    2.4270   -0.2394 C   0  0  1  0  0  0  0  0  0  0  0  0
    0.3603   -1.7691   -0.1411 C   0  0  0  0  0  0  0  0  0  0  0  0
   -1.9842   -1.7147    0.8605 C   0  0  0  0  0  0  0  0  0  0  0  0
    3.3250   -1.4999    0.3404 C   0  0  1  0  0  0  0  0  0  0  0  0
   -0.6366   -2.4570    0.8013 C   0  0  1  0  0  0  0  0  0  0  0  0
    1.8163    1.4768   -1.0308 C   0  0  0  0  0  0  0  0  0  0  0  0
    3.1376   -0.5950   -0.8605 C   0  0  0  0  0  0  0  0  0  0  0  0
   -3.6057   -0.3108   -0.4407 C   0  0  0  0  0  0  0  0  0  0  0  0
    1.5673    3.8177   -0.1812 C   0  0  0  0  0  0  0  0  0  0  0  0
    4.7143   -1.3893    0.9376 C   0  0  0  0  0  0  0  0  0  0  0  0
   -0.8299   -3.9190    0.3927 C   0  0  0  0  0  0  0  0  0  0  0  0
   -4.3254   -1.5991   -0.8143 C   0  0  0  0  0  0  0  0  0  0  0  0
   -3.7648    0.7424   -1.5296 C   0  0  0  0  0  0  0  0  0  0  0  0
   -0.2578    0.1277    2.0372 H   0  0  0  0  0  0  0  0  0  0  0  0
    1.6748    1.7707    1.7050 H   0  0  0  0  0  0  0  0  0  0  0  0
   -1.7325   -0.9803   -1.1365 H   0  0  0  0  0  0  0  0  0  0  0  0
    1.9190   -1.7948    1.9874 H   0  0  0  0  0  0  0  0  0  0  0  0
    2.6041   -0.1780    1.9308 H   0  0  0  0  0  0  0  0  0  0  0  0
   -2.7684   -2.4695    0.8014 H   0  0  0  0  0  0  0  0  0  0  0  0
   -2.1044   -1.2869    1.8650 H   0  0  0  0  0  0  0  0  0  0  0  0
    3.1174   -2.5308    0.0319 H   0  0  0  0  0  0  0  0  0  0  0  0
   -0.1987   -2.4738    1.8057 H   0  0  0  0  0  0  0  0  0  0  0  0
    2.5382    1.9002   -1.7232 H   0  0  0  0  0  0  0  0  0  0  0  0
    0.9218    4.5329    0.3412 H   0  0  0  0  0  0  0  0  0  0  0  0
    1.7109    4.2231   -1.1901 H   0  0  0  0  0  0  0  0  0  0  0  0
    2.5403    3.7961    0.3216 H   0  0  0  0  0  0  0  0  0  0  0  0
   -2.5311    1.0703    1.6608 H   0  0  0  0  0  0  0  0  0  0  0  0
    4.9662   -0.3504    1.1775 H   0  0  0  0  0  0  0  0  0  0  0  0
    5.4682   -1.7514    0.2306 H   0  0  0  0  0  0  0  0  0  0  0  0
    4.7924   -1.9827    1.8540 H   0  0  0  0  0  0  0  0  0  0  0  0
    0.1331   -4.4382    0.3357 H   0  0  0  0  0  0  0  0  0  0  0  0
   -1.4537   -4.4481    1.1210 H   0  0  0  0  0  0  0  0  0  0  0  0
   -1.3099   -3.9992   -0.5891 H   0  0  0  0  0  0  0  0  0  0  0  0
   -0.2085    2.3352    2.8369 H   0  0  0  0  0  0  0  0  0  0  0  0
   -5.2915   -1.3678   -1.2816 H   0  0  0  0  0  0  0  0  0  0  0  0
   -4.5942   -2.2127    0.0515 H   0  0  0  0  0  0  0  0  0  0  0  0
   -3.7613   -2.1991   -1.5361 H   0  0  0  0  0  0  0  0  0  0  0  0
   -4.8248    0.8700   -1.7824 H   0  0  0  0  0  0  0  0  0  0  0  0
   -3.4357    1.7372   -1.2158 H   0  0  0  0  0  0  0  0  0  0  0  0
   -3.2401    0.4621   -2.4490 H   0  0  0  0  0  0  0  0  0  0  0  0
   -5.1190    0.3603    0.6017 H   0  0  0  0  0  0  0  0  0  0  0  0
  1  2  1  0  0  0  0
  1 10  1  0  0  0  0
  2 15  1  0  0  0  0
  3 10  1  0  0  0  0
  3 41  1  0  0  0  0
  4 11  1  0  0  0  0
  4 48  1  0  0  0  0
  5 16  2  0  0  0  0
  6 22  1  0  0  0  0
  6 55  1  0  0  0  0
  7 21  2  0  0  0  0
  8  9  1  0  0  0  0
  8 13  1  0  0  0  0
  8 14  1  0  0  0  0
  8 16  1  0  0  0  0
  9 10  1  0  0  0  0
  9 11  1  0  0  0  0
  9 28  1  0  0  0  0
 10 12  1  0  0  0  0
 11 15  1  0  0  0  0
 11 29  1  0  0  0  0
 12 17  1  0  0  0  0
 12 22  1  0  0  0  0
 12 30  1  0  0  0  0
 13 18  1  0  0  0  0
 13 31  1  0  0  0  0
 13 32  1  0  0  0  0
 14 20  2  0  0  0  0
 14 21  1  0  0  0  0
 15 20  1  0  0  0  0
 15 23  1  0  0  0  0
 16 19  1  0  0  0  0
 17 19  1  0  0  0  0
 17 33  1  0  0  0  0
 17 34  1  0  0  0  0
 18 21  1  0  0  0  0
 18 24  1  0  0  0  0
 18 35  1  0  0  0  0
 19 25  1  0  0  0  0
 19 36  1  0  0  0  0
 20 37  1  0  0  0  0
 22 26  1  0  0  0  0
 22 27  1  0  0  0  0
 23 38  1  0  0  0  0
 23 39  1  0  0  0  0
 23 40  1  0  0  0  0
 24 42  1  0  0  0  0
 24 43  1  0  0  0  0
 24 44  1  0  0  0  0
 25 45  1  0  0  0  0
 25 46  1  0  0  0  0
 25 47  1  0  0  0  0
 26 49  1  0  0  0  0
 26 50  1  0  0  0  0
 26 51  1  0  0  0  0
 27 52  1  0  0  0  0
 27 53  1  0  0  0  0
 27 54  1  0  0  0  0
M  END
> <PUBCHEM_COMPOUND_CID>
102031094

> <PUBCHEM_CONFORMER_RMSD>
0.6

> <PUBCHEM_CONFORMER_DIVERSEORDER>
1
4
5
2
3

> <PUBCHEM_MMFF94_PARTIAL_CHARGES>
22
1 -0.28
10 0.56
11 0.28
14 -0.12
15 0.42
16 0.45
18 0.06
19 0.06
2 -0.28
20 -0.29
21 0.49
22 0.28
3 -0.68
37 0.15
4 -0.68
41 0.4
48 0.4
5 -0.57
55 0.4
6 -0.68
7 -0.57
8 0.2

> <PUBCHEM_EFFECTIVE_ROTOR_COUNT>
2.6

> <PUBCHEM_PHARMACOPHORE_FEATURES>
13
1 3 acceptor
1 3 donor
1 4 acceptor
1 4 donor
1 5 acceptor
1 6 acceptor
1 6 donor
1 7 acceptor
3 22 26 27 hydrophobe
5 8 13 14 18 21 rings
6 1 2 9 10 11 15 rings
6 8 9 11 14 15 20 rings
7 8 9 10 12 16 17 19 rings

> <PUBCHEM_HEAVY_ATOM_COUNT>
27

> <PUBCHEM_ATOM_DEF_STEREO_COUNT>
8

> <PUBCHEM_ATOM_UDEF_STEREO_COUNT>
0

> <PUBCHEM_BOND_DEF_STEREO_COUNT>
0

> <PUBCHEM_BOND_UDEF_STEREO_COUNT>
0

> <PUBCHEM_ISOTOPIC_ATOM_COUNT>
0

> <PUBCHEM_COMPONENT_COUNT>
1

> <PUBCHEM_CACTVS_TAUTO_COUNT>
4

> <PUBCHEM_CONFORMER_ID>
0614DEF600000001

> <PUBCHEM_MMFF94_ENERGY>
116.6511

> <PUBCHEM_FEATURE_SELFOVERLAP>
67.841

> <PUBCHEM_SHAPE_FINGERPRINT>
104564 63 18267869367467713753
10675989 125 16460207178450284893
10863032 1 18120661489363823453
10906281 52 18341628005036424384
10930396 42 17905561698330496362
10948715 1 17831294274045152269
10967382 1 18335985366938809382
1100329 8 18336545009762593090
11115154 58 17343183426795836285
11578080 2 17315605612942268652
11680986 33 18194117645091599602
12035758 1 18409724097086495803
12403259 226 18261947553007993719
12553582 1 18338248063190084628
12788726 201 18270415883927457784
13140716 1 18337955713514728803
13149001 5 18338516459901825190
14178342 30 17910396087348239912
14223421 5 17831864924985646699
14787075 74 18059561508418848896
14790565 3 18265068958618202581
14955137 171 18052009993618260737
15209289 33 18412830161937965227
1601671 61 18267867177593704937
16752209 62 18262518066235448642
16945 1 18260552246565641792
17349148 13 18338515236200454410
17357779 13 18201146663956087878
17492 54 18187657911299369078
18186145 218 18409725197178105303
18981168 100 17753311360468835167
20028762 73 18272087262304640047
20510252 161 18196082253791326994
20600515 1 18342173362872334466
20691752 17 17750220564880047907
20715895 44 17318434407036564581
20775438 99 17552045800260898607
20905425 154 17763193831066701294
22182313 1 17899134103388448947
22344851 341 17905054999099545360
2334 1 17906173202161554691
23402539 116 18340759339237397526
23419403 2 16038216136006218226
23493267 7 16515398539454042065
23557571 272 18271806770937613018
23559900 14 18339635762712332520
23566358 2 18050863409069799046
238 59 18047154619422008631
2748010 2 18049164663641886051
3178227 256 18335993012835490075
3380486 77 18334293124387087482
34934 24 18335422430498044030
350125 39 18335706100303555627
484985 159 13920999466360483730
484989 97 18117279370835072219
5845 1 17829065224694235708
589210 1 18048880998089507586
7364860 26 18268708501109095304
7495541 125 18041569130233229675
81228 2 18127143986989047448

> <PUBCHEM_SHAPE_MULTIPOLES>
514.56
6.38
3.81
1.43
1.7
0.71
0.01
-2.46
1.35
-0.76
-0.51
-0.28
0.31
-0.09

> <PUBCHEM_SHAPE_SELFOVERLAP>
1121.596

> <PUBCHEM_SHAPE_VOLUME>
276

> <PUBCHEM_COORDINATE_TYPE>
2
5
10

$$$$
