102004953
  -OEChem-03292013293D

 57 60  0     1  0  0  0  0  0999 V2000
    4.5945    2.1870   -1.3411 O   0  0  0  0  0  0  0  0  0  0  0  0
    4.7911    0.3914    0.7120 O   0  0  0  0  0  0  0  0  0  0  0  0
    2.4266    0.2251    0.9420 O   0  0  0  0  0  0  0  0  0  0  0  0
    5.4327   -0.8260   -2.5236 O   0  0  0  0  0  0  0  0  0  0  0  0
   -4.2424    2.0180    0.8970 O   0  0  0  0  0  0  0  0  0  0  0  0
   -6.8141    1.9532   -0.2055 O   0  0  0  0  0  0  0  0  0  0  0  0
   -4.3548   -2.0338   -0.7135 O   0  0  0  0  0  0  0  0  0  0  0  0
   -6.5103   -1.3184   -1.3415 N   0  0  0  0  0  0  0  0  0  0  0  0
    3.3750    1.6915   -0.7635 C   0  0  1  0  0  0  0  0  0  0  0  0
    4.0613    0.9823   -1.9097 C   0  0  2  0  0  0  0  0  0  0  0  0
    3.5342    1.0827    0.6164 C   0  0  2  0  0  0  0  0  0  0  0  0
    4.8519   -0.7147   -0.1780 C   0  0  1  0  0  0  0  0  0  0  0  0
    3.7075   -1.7011    0.1171 C   0  0  2  0  0  0  0  0  0  0  0  0
    4.8547   -0.2319   -1.6210 C   0  0  0  0  0  0  0  0  0  0  0  0
    2.3555   -0.9509    0.1268 C   0  0  1  0  0  0  0  0  0  0  0  0
    2.1823    2.5485   -1.0509 C   0  0  0  0  0  0  0  0  0  0  0  0
    3.5758    2.1651    1.6954 C   0  0  0  0  0  0  0  0  0  0  0  0
    1.1815   -1.7878    0.6229 C   0  0  2  0  0  0  0  0  0  0  0  0
    3.9902   -2.4037    1.4540 C   0  0  0  0  0  0  0  0  0  0  0  0
    1.0057   -3.0350   -0.2474 C   0  0  0  0  0  0  0  0  0  0  0  0
   -0.0893   -0.9665    0.6026 C   0  0  0  0  0  0  0  0  0  0  0  0
   -0.6035   -0.1786    1.5713 C   0  0  0  0  0  0  0  0  0  0  0  0
    0.0442    0.0426    2.9133 C   0  0  0  0  0  0  0  0  0  0  0  0
   -1.8707    0.5131    1.3088 C   0  0  0  0  0  0  0  0  0  0  0  0
   -2.9409    0.0117    0.6669 C   0  0  0  0  0  0  0  0  0  0  0  0
   -4.1835    0.7225    0.4211 C   0  0  0  0  0  0  0  0  0  0  0  0
   -5.2149    0.1624   -0.2272 C   0  0  0  0  0  0  0  0  0  0  0  0
   -6.5086    0.8147   -0.5169 C   0  0  0  0  0  0  0  0  0  0  0  0
   -5.2459   -1.2069   -0.7685 C   0  0  0  0  0  0  0  0  0  0  0  0
   -7.3857   -0.1565   -1.2593 C   0  0  0  0  0  0  0  0  0  0  0  0
    3.6141    1.0452   -2.8944 H   0  0  0  0  0  0  0  0  0  0  0  0
    5.8234   -1.1967   -0.0160 H   0  0  0  0  0  0  0  0  0  0  0  0
    3.6951   -2.4661   -0.6690 H   0  0  0  0  0  0  0  0  0  0  0  0
    2.1244   -0.6332   -0.8986 H   0  0  0  0  0  0  0  0  0  0  0  0
    2.2111    3.4687   -0.4595 H   0  0  0  0  0  0  0  0  0  0  0  0
    1.2567    2.0146   -0.8142 H   0  0  0  0  0  0  0  0  0  0  0  0
    2.1368    2.8388   -2.1061 H   0  0  0  0  0  0  0  0  0  0  0  0
    3.7634    1.7165    2.6782 H   0  0  0  0  0  0  0  0  0  0  0  0
    2.6253    2.7038    1.7680 H   0  0  0  0  0  0  0  0  0  0  0  0
    4.3787    2.8863    1.5082 H   0  0  0  0  0  0  0  0  0  0  0  0
    1.3457   -2.1186    1.6537 H   0  0  0  0  0  0  0  0  0  0  0  0
    4.9991   -2.8313    1.4589 H   0  0  0  0  0  0  0  0  0  0  0  0
    3.3009   -3.2333    1.6336 H   0  0  0  0  0  0  0  0  0  0  0  0
    3.9170   -1.7107    2.2988 H   0  0  0  0  0  0  0  0  0  0  0  0
    0.9170   -2.7777   -1.3093 H   0  0  0  0  0  0  0  0  0  0  0  0
    1.8404   -3.7333   -0.1392 H   0  0  0  0  0  0  0  0  0  0  0  0
    0.0983   -3.5810    0.0370 H   0  0  0  0  0  0  0  0  0  0  0  0
   -0.6113   -1.0111   -0.3546 H   0  0  0  0  0  0  0  0  0  0  0  0
   -0.6541   -0.2219    3.7150 H   0  0  0  0  0  0  0  0  0  0  0  0
    0.3162    1.0972    3.0308 H   0  0  0  0  0  0  0  0  0  0  0  0
    0.9494   -0.5488    3.0678 H   0  0  0  0  0  0  0  0  0  0  0  0
   -1.9032    1.5271    1.7038 H   0  0  0  0  0  0  0  0  0  0  0  0
   -2.8368   -1.0099    0.3366 H   0  0  0  0  0  0  0  0  0  0  0  0
   -8.2756   -0.4188   -0.6854 H   0  0  0  0  0  0  0  0  0  0  0  0
   -7.6132    0.1922   -2.2676 H   0  0  0  0  0  0  0  0  0  0  0  0
   -5.1083    2.4015    0.6825 H   0  0  0  0  0  0  0  0  0  0  0  0
   -6.8102   -2.1744   -1.7974 H   0  0  0  0  0  0  0  0  0  0  0  0
  1  9  1  0  0  0  0
  1 10  1  0  0  0  0
  2 11  1  0  0  0  0
  2 12  1  0  0  0  0
  3 11  1  0  0  0  0
  3 15  1  0  0  0  0
  4 14  2  0  0  0  0
  5 26  1  0  0  0  0
  5 56  1  0  0  0  0
  6 28  2  0  0  0  0
  7 29  2  0  0  0  0
  8 29  1  0  0  0  0
  8 30  1  0  0  0  0
  8 57  1  0  0  0  0
  9 10  1  0  0  0  0
  9 11  1  0  0  0  0
  9 16  1  0  0  0  0
 10 14  1  0  0  0  0
 10 31  1  0  0  0  0
 11 17  1  0  0  0  0
 12 13  1  0  0  0  0
 12 14  1  0  0  0  0
 12 32  1  0  0  0  0
 13 15  1  0  0  0  0
 13 19  1  0  0  0  0
 13 33  1  0  0  0  0
 15 18  1  0  0  0  0
 15 34  1  0  0  0  0
 16 35  1  0  0  0  0
 16 36  1  0  0  0  0
 16 37  1  0  0  0  0
 17 38  1  0  0  0  0
 17 39  1  0  0  0  0
 17 40  1  0  0  0  0
 18 20  1  0  0  0  0
 18 21  1  0  0  0  0
 18 41  1  0  0  0  0
 19 42  1  0  0  0  0
 19 43  1  0  0  0  0
 19 44  1  0  0  0  0
 20 45  1  0  0  0  0
 20 46  1  0  0  0  0
 20 47  1  0  0  0  0
 21 22  2  0  0  0  0
 21 48  1  0  0  0  0
 22 23  1  0  0  0  0
 22 24  1  0  0  0  0
 23 49  1  0  0  0  0
 23 50  1  0  0  0  0
 23 51  1  0  0  0  0
 24 25  2  0  0  0  0
 24 52  1  0  0  0  0
 25 26  1  0  0  0  0
 25 53  1  0  0  0  0
 26 27  2  0  0  0  0
 27 28  1  0  0  0  0
 27 29  1  0  0  0  0
 28 30  1  0  0  0  0
 30 54  1  0  0  0  0
 30 55  1  0  0  0  0
M  END
> <PUBCHEM_COMPOUND_CID>
102004953

> <PUBCHEM_CONFORMER_RMSD>
0.8

> <PUBCHEM_CONFORMER_DIVERSEORDER>
1
138
114
263
242
225
131
97
201
243
106
223
148
218
203
234
83
139
226
100
21
134
247
145
191
133
204
172
205
61
241
194
119
155
53
117
255
5
118
190
221
113
2
50
167
200
18
99
128
265
150
33
235
192
213
195
77
23
176
186
86
137
228
215
45
94
3
207
181
232
71
126
24
52
89
127
237
140
47
132
208
212
164
258
87
153
171
57
166
88
31
7
42
11
79
187
22
36
246
227
217
124
78
214
58
130
129
136
210
34
96
29
233
8
154
48
6
196
101
122
26
15
240
174
28
165
16
19
82
25
144
107
81
55
230
125
63
73
121
56
188
182
14
251
180
111
13
4
229
105
38
54
51
93
49
151
32
160
102
95
250
112
248
92
76
199
98
75
104
27
135
10
219
35
20
46
262
211
220
159
163
123
72
173
40
69
184
252
44
9
178
65
85
60
239
193
59
90
146
175
30
103
41
39
142
12
66
115
224
152
64
43
116
17
161
62
141
67
91
109
179
37
120
249
253
236
110
70
231
183
257
84
254
68
74
202
108
80
156
177

> <PUBCHEM_MMFF94_PARTIAL_CHARGES>
32
1 -0.3
10 0.05
11 0.65
12 0.34
14 0.51
15 0.28
16 0.09
18 0.14
2 -0.56
21 -0.29
22 -0.14
23 0.14
24 -0.15
25 -0.15
26 0.08
27 0.03
28 0.49
29 0.62
3 -0.56
30 0.36
31 0.1
4 -0.57
48 0.15
5 -0.53
52 0.15
53 0.15
56 0.45
57 0.37
6 -0.57
7 -0.57
8 -0.73
9 -0.04

> <PUBCHEM_EFFECTIVE_ROTOR_COUNT>
5.4

> <PUBCHEM_PHARMACOPHORE_FEATURES>
14
1 1 acceptor
1 2 acceptor
1 20 hydrophobe
1 23 hydrophobe
1 27 anion
1 3 acceptor
1 4 acceptor
1 5 donor
1 6 acceptor
1 7 acceptor
1 8 donor
5 8 27 28 29 30 rings
6 2 3 11 12 13 15 rings
7 1 2 9 10 11 12 14 rings

> <PUBCHEM_HEAVY_ATOM_COUNT>
30

> <PUBCHEM_ATOM_DEF_STEREO_COUNT>
2

> <PUBCHEM_ATOM_UDEF_STEREO_COUNT>
5

> <PUBCHEM_BOND_DEF_STEREO_COUNT>
3

> <PUBCHEM_BOND_UDEF_STEREO_COUNT>
0

> <PUBCHEM_ISOTOPIC_ATOM_COUNT>
0

> <PUBCHEM_COMPONENT_COUNT>
1

> <PUBCHEM_CACTVS_TAUTO_COUNT>
26

> <PUBCHEM_CONFORMER_ID>
061478D900000001

> <PUBCHEM_MMFF94_ENERGY>
79.813

> <PUBCHEM_FEATURE_SELFOVERLAP>
71.822

> <PUBCHEM_SHAPE_FINGERPRINT>
10 15 12685098085920023263
10319926 262 10881680179425832537
10674148 151 11602831164756197986
10693767 8 17915470389604289334
11135609 149 17534875538860366154
1361 2 18334575775936715877
13782708 43 14045746993483380333
13878862 14 17385995178926581246
14251764 30 15769776858017873455
14528608 73 18411418419061888331
14681490 219 18186800262582469693
14840074 17 17603304860790781359
14951699 99 13190351191979812030
15001296 14 18337664338912629309
15183329 4 18411982451727091045
1813 80 13830133905642985963
20157964 124 18113617884806313274
20775438 99 16915919950459080606
20775530 9 12533977844665836124
21033648 29 15430040997354652624
21315764 119 18130794417286085933
21421861 104 9655579604321427346
22393880 68 18202004300306004985
2303208 19 15195563499034140171
23559900 14 17749112162712486514
2838139 119 17676482856760791421
3004659 81 18273211980429934755
34797466 226 17417809586736648633
439807 62 16200158664376552045
44317340 157 18260268530164551307
504579 68 18272363153938754405
5104073 3 8142084252132638791
513532 50 18202283607010046244
6669772 16 16342558712986568594
7918774 8 15626226840456899255
8509985 295 11530482216462040875

> <PUBCHEM_SHAPE_MULTIPOLES>
571.32
17.62
2.63
2
30.17
0.21
0.29
-2.77
-8.85
-1.99
-0.17
-1.67
-0.2
-1.38

> <PUBCHEM_SHAPE_SELFOVERLAP>
1222.412

> <PUBCHEM_SHAPE_VOLUME>
314.2

> <PUBCHEM_COORDINATE_TYPE>
2
5
10

$$$$
