102090455
  -OEChem-03292013293D

 40 44  0     1  0  0  0  0  0999 V2000
    2.5107   -2.1388    0.0583 O   0  0  0  0  0  0  0  0  0  0  0  0
    3.1333    0.9163   -0.9775 O   0  0  0  0  0  0  0  0  0  0  0  0
   -0.4640   -2.2190   -0.6692 O   0  0  0  0  0  0  0  0  0  0  0  0
   -0.3445    1.6939    1.1973 O   0  0  0  0  0  0  0  0  0  0  0  0
    0.3462    2.2959   -1.6587 O   0  0  0  0  0  0  0  0  0  0  0  0
   -2.9313    0.5917    1.4533 O   0  0  0  0  0  0  0  0  0  0  0  0
    0.4298    0.3938    2.9332 O   0  0  0  0  0  0  0  0  0  0  0  0
    0.7988   -0.0379   -0.9111 C   0  0  1  0  0  0  0  0  0  0  0  0
    2.1067    0.3320   -0.1587 C   0  0  1  0  0  0  0  0  0  0  0  0
    0.1772   -1.1784    0.0611 C   0  0  2  0  0  0  0  0  0  0  0  0
    2.5196   -0.8519    0.6956 C   0  0  1  0  0  0  0  0  0  0  0  0
    1.3532   -1.7860    0.8163 C   0  0  2  0  0  0  0  0  0  0  0  0
   -0.8449   -0.5960    1.0878 C   0  0  2  0  0  0  0  0  0  0  0  0
   -0.2405    1.0973   -1.1654 C   0  0  1  0  0  0  0  0  0  0  0  0
    2.6490    1.7297    0.0909 C   0  0  0  0  0  0  0  0  0  0  0  0
   -1.9734    0.2204    0.4542 C   0  0  2  0  0  0  0  0  0  0  0  0
   -1.1504    1.4335    0.0292 C   0  0  1  0  0  0  0  0  0  0  0  0
    1.1761   -0.6279   -2.3015 C   0  0  0  0  0  0  0  0  0  0  0  0
   -0.1818    0.5147    1.8846 C   0  0  0  0  0  0  0  0  0  0  0  0
   -2.7684   -0.4504   -0.6158 C   0  0  0  0  0  0  0  0  0  0  0  0
   -3.3424    0.4452   -1.6732 C   0  0  0  0  0  0  0  0  0  0  0  0
   -2.9591   -1.7780   -0.6308 C   0  0  0  0  0  0  0  0  0  0  0  0
    3.1682   -0.7085    1.5479 H   0  0  0  0  0  0  0  0  0  0  0  0
    1.1435   -2.3120    1.7330 H   0  0  0  0  0  0  0  0  0  0  0  0
   -1.2336   -1.3490    1.7832 H   0  0  0  0  0  0  0  0  0  0  0  0
   -0.8445    0.7514   -2.0031 H   0  0  0  0  0  0  0  0  0  0  0  0
    2.0779    2.6101   -0.1547 H   0  0  0  0  0  0  0  0  0  0  0  0
    3.3043    1.8750    0.9425 H   0  0  0  0  0  0  0  0  0  0  0  0
   -1.7588    2.3280   -0.1422 H   0  0  0  0  0  0  0  0  0  0  0  0
    1.9099   -1.4356   -2.2298 H   0  0  0  0  0  0  0  0  0  0  0  0
    1.6110    0.1430   -2.9481 H   0  0  0  0  0  0  0  0  0  0  0  0
    0.2971   -1.0283   -2.8187 H   0  0  0  0  0  0  0  0  0  0  0  0
   -0.5455   -2.9910   -0.0827 H   0  0  0  0  0  0  0  0  0  0  0  0
   -0.3735    2.9132   -1.8740 H   0  0  0  0  0  0  0  0  0  0  0  0
   -3.4709    1.3196    1.0995 H   0  0  0  0  0  0  0  0  0  0  0  0
   -3.6539   -0.1332   -2.5509 H   0  0  0  0  0  0  0  0  0  0  0  0
   -2.7086    1.2478   -2.0423 H   0  0  0  0  0  0  0  0  0  0  0  0
   -4.2427    0.9272   -1.2734 H   0  0  0  0  0  0  0  0  0  0  0  0
   -3.5345   -2.2450   -1.4244 H   0  0  0  0  0  0  0  0  0  0  0  0
   -2.6529   -2.4263    0.1821 H   0  0  0  0  0  0  0  0  0  0  0  0
  1 11  1  0  0  0  0
  1 12  1  0  0  0  0
  2  9  1  0  0  0  0
  2 15  1  0  0  0  0
  3 10  1  0  0  0  0
  3 33  1  0  0  0  0
  4 17  1  0  0  0  0
  4 19  1  0  0  0  0
  5 14  1  0  0  0  0
  5 34  1  0  0  0  0
  6 16  1  0  0  0  0
  6 35  1  0  0  0  0
  7 19  2  0  0  0  0
  8  9  1  0  0  0  0
  8 10  1  0  0  0  0
  8 14  1  0  0  0  0
  8 18  1  0  0  0  0
  9 11  1  0  0  0  0
  9 15  1  0  0  0  0
 10 12  1  0  0  0  0
 10 13  1  0  0  0  0
 11 12  1  0  0  0  0
 11 23  1  0  0  0  0
 12 24  1  0  0  0  0
 13 16  1  0  0  0  0
 13 19  1  0  0  0  0
 13 25  1  0  0  0  0
 14 17  1  0  0  0  0
 14 26  1  0  0  0  0
 15 27  1  0  0  0  0
 15 28  1  0  0  0  0
 16 17  1  0  0  0  0
 16 20  1  0  0  0  0
 17 29  1  0  0  0  0
 18 30  1  0  0  0  0
 18 31  1  0  0  0  0
 18 32  1  0  0  0  0
 20 21  1  0  0  0  0
 20 22  2  0  0  0  0
 21 36  1  0  0  0  0
 21 37  1  0  0  0  0
 21 38  1  0  0  0  0
 22 39  1  0  0  0  0
 22 40  1  0  0  0  0
M  END
> <PUBCHEM_COMPOUND_CID>
102090455

> <PUBCHEM_CONFORMER_RMSD>
0.6

> <PUBCHEM_CONFORMER_DIVERSEORDER>
1

> <PUBCHEM_MMFF94_PARTIAL_CHARGES>
30
1 -0.3
10 0.38
11 0.05
12 -0.05
13 0.06
14 0.28
15 -0.05
16 0.42
17 0.28
19 0.66
2 -0.3
20 -0.28
21 0.14
22 -0.3
23 0.1
24 0.1
27 0.1
28 0.1
3 -0.68
33 0.4
34 0.4
35 0.4
39 0.15
4 -0.43
40 0.15
5 -0.68
6 -0.68
7 -0.57
8 0.09
9 0.05

> <PUBCHEM_EFFECTIVE_ROTOR_COUNT>
2.2

> <PUBCHEM_PHARMACOPHORE_FEATURES>
11
1 1 acceptor
1 2 acceptor
1 3 acceptor
1 3 donor
1 5 acceptor
1 5 donor
1 6 acceptor
1 6 donor
1 7 acceptor
6 1 8 9 10 11 12 rings
8 4 8 10 13 14 16 17 19 rings

> <PUBCHEM_HEAVY_ATOM_COUNT>
22

> <PUBCHEM_ATOM_DEF_STEREO_COUNT>
8

> <PUBCHEM_ATOM_UDEF_STEREO_COUNT>
1

> <PUBCHEM_BOND_DEF_STEREO_COUNT>
0

> <PUBCHEM_BOND_UDEF_STEREO_COUNT>
0

> <PUBCHEM_ISOTOPIC_ATOM_COUNT>
0

> <PUBCHEM_COMPONENT_COUNT>
1

> <PUBCHEM_CACTVS_TAUTO_COUNT>
2

> <PUBCHEM_CONFORMER_ID>
0615C6D700000001

> <PUBCHEM_MMFF94_ENERGY>
98.537

> <PUBCHEM_FEATURE_SELFOVERLAP>
55.85

> <PUBCHEM_SHAPE_FINGERPRINT>
10863032 1 18336536192188985295
10948715 1 17095797836507199196
11578080 2 17983823788353762209
12423570 1 17905046958672853923
12491281 212 18334014994910013541
13571099 52 16515677849334589117
144361 1 18187909678103285425
14787075 74 17409639287175578220
15852999 172 17095807723585003792
15881359 60 17531815782271733040
16945 1 18343299305512591440
22344851 262 18188219813322948176
23419403 2 17263507272725661290
23493267 7 16844469157895486457
23559900 14 18271791403402567242
2748010 2 17822582628648370983
296302 2 17603583053668743845
3286 77 17559648729560201963
5845 1 17325782378852117046

> <PUBCHEM_SHAPE_MULTIPOLES>
411.66
4.26
2.08
2.02
1.27
0.03
0.65
0.07
-0.98
-0.65
-0.44
0.19
-0.16
-0.21

> <PUBCHEM_SHAPE_SELFOVERLAP>
923.355

> <PUBCHEM_SHAPE_VOLUME>
214.5

> <PUBCHEM_COORDINATE_TYPE>
2
5
10

$$$$
