102043608
  -OEChem-03292013293D

 64 70  0     1  0  0  0  0  0999 V2000
   -0.5252    1.2303    1.3473 O   0  0  0  0  0  0  0  0  0  0  0  0
   -1.8224    0.4316    3.1327 O   0  0  0  0  0  0  0  0  0  0  0  0
   -3.7023    1.7543    1.3980 O   0  0  0  0  0  0  0  0  0  0  0  0
   -4.4925   -3.1830    0.4448 O   0  0  0  0  0  0  0  0  0  0  0  0
    0.7013    3.3745   -0.1291 O   0  0  0  0  0  0  0  0  0  0  0  0
    6.0378   -0.1654   -0.2054 O   0  0  0  0  0  0  0  0  0  0  0  0
   -4.5722    0.1501   -0.0498 N   0  0  0  0  0  0  0  0  0  0  0  0
   -3.0346   -1.5332    1.2222 N   0  0  0  0  0  0  0  0  0  0  0  0
    1.1256   -0.1117    0.2121 N   0  0  0  0  0  0  0  0  0  0  0  0
   -1.8194   -0.4524   -0.5941 C   0  0  2  0  0  0  0  0  0  0  0  0
   -2.3958   -0.2587    0.8402 C   0  0  1  0  0  0  0  0  0  0  0  0
   -4.2602   -1.0733   -0.7784 C   0  0  2  0  0  0  0  0  0  0  0  0
   -0.8879    0.7231   -1.0502 C   0  0  0  0  0  0  0  0  0  0  0  0
   -2.9602   -0.8678   -1.5707 C   0  0  0  0  0  0  0  0  0  0  0  0
    0.1409    0.9713    0.1050 C   0  0  1  0  0  0  0  0  0  0  0  0
   -3.6163    0.6892    0.8004 C   0  0  0  0  0  0  0  0  0  0  0  0
   -1.3029    0.1370    1.8372 C   0  0  1  0  0  0  0  0  0  0  0  0
   -5.5006   -1.3360   -1.6294 C   0  0  0  0  0  0  0  0  0  0  0  0
   -3.9995   -2.0663    0.3564 C   0  0  0  0  0  0  0  0  0  0  0  0
   -5.8981    0.6520   -0.3356 C   0  0  0  0  0  0  0  0  0  0  0  0
   -6.6115   -0.5713   -0.8967 C   0  0  0  0  0  0  0  0  0  0  0  0
   -0.1859    0.3318   -2.3717 C   0  0  0  0  0  0  0  0  0  0  0  0
   -1.6893    2.0198   -1.3306 C   0  0  0  0  0  0  0  0  0  0  0  0
    1.0365    2.2050   -0.0903 C   0  0  0  0  0  0  0  0  0  0  0  0
    2.4087    0.3849    0.0293 C   0  0  0  0  0  0  0  0  0  0  0  0
    2.4220    1.7638   -0.1615 C   0  0  0  0  0  0  0  0  0  0  0  0
    3.6106   -0.3155    0.0245 C   0  0  0  0  0  0  0  0  0  0  0  0
    3.5693    2.5034   -0.3585 C   0  0  0  0  0  0  0  0  0  0  0  0
    4.7960    0.4093   -0.1774 C   0  0  0  0  0  0  0  0  0  0  0  0
    4.7732    1.8052   -0.3671 C   0  0  0  0  0  0  0  0  0  0  0  0
    3.6779   -1.7550    0.2167 C   0  0  0  0  0  0  0  0  0  0  0  0
    6.1644   -1.5895   -0.0140 C   0  0  0  0  0  0  0  0  0  0  0  0
    4.8751   -2.3442    0.1976 C   0  0  0  0  0  0  0  0  0  0  0  0
    6.8687   -2.1324   -1.2630 C   0  0  0  0  0  0  0  0  0  0  0  0
    7.0689   -1.7812    1.2092 C   0  0  0  0  0  0  0  0  0  0  0  0
   -1.1730   -1.3435   -0.5386 H   0  0  0  0  0  0  0  0  0  0  0  0
   -2.6791   -1.7990   -2.0792 H   0  0  0  0  0  0  0  0  0  0  0  0
   -3.1134   -0.1231   -2.3566 H   0  0  0  0  0  0  0  0  0  0  0  0
   -0.6291   -0.7120    1.9990 H   0  0  0  0  0  0  0  0  0  0  0  0
   -5.7418   -2.3974   -1.7390 H   0  0  0  0  0  0  0  0  0  0  0  0
   -5.3817   -0.9113   -2.6337 H   0  0  0  0  0  0  0  0  0  0  0  0
   -2.7045   -2.0698    2.0187 H   0  0  0  0  0  0  0  0  0  0  0  0
   -5.8015    1.4434   -1.0862 H   0  0  0  0  0  0  0  0  0  0  0  0
   -6.3639    1.0622    0.5642 H   0  0  0  0  0  0  0  0  0  0  0  0
   -7.4472   -0.3079   -1.5507 H   0  0  0  0  0  0  0  0  0  0  0  0
   -6.9994   -1.1872   -0.0762 H   0  0  0  0  0  0  0  0  0  0  0  0
   -1.0744    2.7534   -1.8648 H   0  0  0  0  0  0  0  0  0  0  0  0
    0.5478    1.0873   -2.6735 H   0  0  0  0  0  0  0  0  0  0  0  0
   -0.9053    0.2365   -3.1923 H   0  0  0  0  0  0  0  0  0  0  0  0
   -2.0307    2.5043   -0.4127 H   0  0  0  0  0  0  0  0  0  0  0  0
   -2.5646    1.8485   -1.9618 H   0  0  0  0  0  0  0  0  0  0  0  0
    0.3367   -0.6269   -2.2869 H   0  0  0  0  0  0  0  0  0  0  0  0
    0.8988   -1.0852    0.3425 H   0  0  0  0  0  0  0  0  0  0  0  0
   -2.6340    0.9539    3.0302 H   0  0  0  0  0  0  0  0  0  0  0  0
    3.5441    3.5771   -0.5004 H   0  0  0  0  0  0  0  0  0  0  0  0
    5.7027    2.3485   -0.5206 H   0  0  0  0  0  0  0  0  0  0  0  0
    2.7756   -2.3330    0.3718 H   0  0  0  0  0  0  0  0  0  0  0  0
    4.9301   -3.4206    0.3417 H   0  0  0  0  0  0  0  0  0  0  0  0
    6.2579   -1.9659   -2.1586 H   0  0  0  0  0  0  0  0  0  0  0  0
    7.0774   -3.2050   -1.1840 H   0  0  0  0  0  0  0  0  0  0  0  0
    7.8165   -1.6091   -1.4357 H   0  0  0  0  0  0  0  0  0  0  0  0
    7.2868   -2.8382    1.3980 H   0  0  0  0  0  0  0  0  0  0  0  0
    8.0201   -1.2517    1.0785 H   0  0  0  0  0  0  0  0  0  0  0  0
    6.6036   -1.3600    2.1085 H   0  0  0  0  0  0  0  0  0  0  0  0
  1 15  1  0  0  0  0
  1 17  1  0  0  0  0
  2 17  1  0  0  0  0
  2 54  1  0  0  0  0
  3 16  2  0  0  0  0
  4 19  2  0  0  0  0
  5 24  2  0  0  0  0
  6 29  1  0  0  0  0
  6 32  1  0  0  0  0
  7 12  1  0  0  0  0
  7 16  1  0  0  0  0
  7 20  1  0  0  0  0
  8 11  1  0  0  0  0
  8 19  1  0  0  0  0
  8 42  1  0  0  0  0
  9 15  1  0  0  0  0
  9 25  1  0  0  0  0
  9 53  1  0  0  0  0
 10 11  1  0  0  0  0
 10 13  1  0  0  0  0
 10 14  1  0  0  0  0
 10 36  1  0  0  0  0
 11 16  1  0  0  0  0
 11 17  1  0  0  0  0
 12 14  1  0  0  0  0
 12 18  1  0  0  0  0
 12 19  1  0  0  0  0
 13 15  1  0  0  0  0
 13 22  1  0  0  0  0
 13 23  1  0  0  0  0
 14 37  1  0  0  0  0
 14 38  1  0  0  0  0
 15 24  1  0  0  0  0
 17 39  1  0  0  0  0
 18 21  1  0  0  0  0
 18 40  1  0  0  0  0
 18 41  1  0  0  0  0
 20 21  1  0  0  0  0
 20 43  1  0  0  0  0
 20 44  1  0  0  0  0
 21 45  1  0  0  0  0
 21 46  1  0  0  0  0
 22 48  1  0  0  0  0
 22 49  1  0  0  0  0
 22 52  1  0  0  0  0
 23 47  1  0  0  0  0
 23 50  1  0  0  0  0
 23 51  1  0  0  0  0
 24 26  1  0  0  0  0
 25 26  2  0  0  0  0
 25 27  1  0  0  0  0
 26 28  1  0  0  0  0
 27 29  2  0  0  0  0
 27 31  1  0  0  0  0
 28 30  2  0  0  0  0
 28 55  1  0  0  0  0
 29 30  1  0  0  0  0
 30 56  1  0  0  0  0
 31 33  2  0  0  0  0
 31 57  1  0  0  0  0
 32 33  1  0  0  0  0
 32 34  1  0  0  0  0
 32 35  1  0  0  0  0
 33 58  1  0  0  0  0
 34 59  1  0  0  0  0
 34 60  1  0  0  0  0
 34 61  1  0  0  0  0
 35 62  1  0  0  0  0
 35 63  1  0  0  0  0
 35 64  1  0  0  0  0
M  END
> <PUBCHEM_COMPOUND_CID>
102043608

> <PUBCHEM_CONFORMER_RMSD>
0.8

> <PUBCHEM_CONFORMER_DIVERSEORDER>
1

> <PUBCHEM_MMFF94_PARTIAL_CHARGES>
33
1 -0.56
11 0.36
12 0.36
15 0.71
16 0.57
17 0.56
19 0.57
2 -0.68
20 0.3
24 0.42
25 0.1
26 0.09
27 0.03
28 -0.15
29 0.08
3 -0.57
30 -0.15
31 -0.18
32 0.42
33 -0.29
4 -0.57
42 0.37
5 -0.57
53 0.4
54 0.4
55 0.15
56 0.15
57 0.15
58 0.15
6 -0.36
7 -0.66
8 -0.73
9 -0.87

> <PUBCHEM_EFFECTIVE_ROTOR_COUNT>
2.2

> <PUBCHEM_PHARMACOPHORE_FEATURES>
18
1 1 acceptor
1 2 acceptor
1 2 donor
1 3 acceptor
1 4 acceptor
1 5 acceptor
1 6 acceptor
1 8 donor
1 9 cation
1 9 donor
3 13 22 23 hydrophobe
3 32 34 35 hydrophobe
5 7 12 18 20 21 rings
5 9 15 24 25 26 rings
6 1 10 11 13 15 17 rings
6 25 26 27 28 29 30 rings
6 6 27 29 31 32 33 rings
8 7 8 10 11 12 14 16 19 rings

> <PUBCHEM_HEAVY_ATOM_COUNT>
35

> <PUBCHEM_ATOM_DEF_STEREO_COUNT>
5

> <PUBCHEM_ATOM_UDEF_STEREO_COUNT>
0

> <PUBCHEM_BOND_DEF_STEREO_COUNT>
0

> <PUBCHEM_BOND_UDEF_STEREO_COUNT>
0

> <PUBCHEM_ISOTOPIC_ATOM_COUNT>
0

> <PUBCHEM_COMPONENT_COUNT>
1

> <PUBCHEM_CACTVS_TAUTO_COUNT>
12

> <PUBCHEM_CONFORMER_ID>
06150FD800000001

> <PUBCHEM_MMFF94_ENERGY>
148.6151

> <PUBCHEM_FEATURE_SELFOVERLAP>
91.628

> <PUBCHEM_SHAPE_FINGERPRINT>
10 15 13830122902422166786
10319926 262 15554182371944464692
10369192 42 13045945681684908187
10622 236 17772166855224951751
10670039 82 14996554045679190350
10674148 151 17676480610224097501
10930396 42 15194700351814668266
11135609 187 18048599510998697572
11456790 92 17417821669144537939
11621639 179 17534045382302033621
117089 54 18055643807257407494
11991303 11 17682963193728179764
12107183 9 18197507229171791273
12107698 1 18261669286419202452
12166972 35 18060134366424212545
12236239 1 18060701701707859348
12422481 6 17346321441190628686
12516196 113 18413103948975709998
12596602 18 17561079199036800786
12760667 363 18409727331217747254
12788726 201 14635133600182593197
13533116 47 18272366520649963800
13544653 18 18259991474503738868
13583140 156 18126850627991101577
13726171 33 13407341920945942023
13782708 43 17748823004250064762
13914758 101 18342738486390703461
14068700 675 17775277288131325233
14117953 113 18272369724405624926
14347332 77 18261948540829437732
14955137 171 17846502492164583414
15001296 14 18335977653779328866
15064986 266 17168719505451622812
15082195 135 17967821599972647748
15183329 4 18113330895165518987
15324884 4 16952268744148535728
15361156 5 17676780841522963124
15475509 8 17095519574313869013
17349148 13 17203335554324743269
17492 89 18120655992476201563
17857418 61 18411981356146290474
18393751 57 17333072630328704672
18603816 31 17846197965445112823
19319366 153 17696472163064888220
20028762 73 18272931601419497374
20105231 36 17167864193307514483
20511986 3 18130212831015905808
21033650 10 16370995270420125541
21304303 282 17057536825390637033
22393880 68 17822283638927338283
23522609 53 18193870109670083956
23559900 14 18337666546415043177
23569914 152 16960651115745473399
23569943 247 17823688681738777867
23576562 1 14057297458076797455
249057 3 18410853227499834381
3004659 81 18186798076464473906
3411729 13 15911620558408676456
3633792 109 18335974299641485829
3886686 26 16051565002121575430
4015057 19 18187932827808803776
404807 14 17764596412915029943
4073 2 18041844042167407706
437815 12 18411135818471566956
463206 1 18335420205541928554
5028188 123 17845106091423605878
504579 68 18339935878390745636
5104073 3 18130795589268865280
5265222 85 14346091835609400995
559249 180 18272368633995172557
563151 40 17096922461125714661
57527295 17 17677320607037263689
6608658 132 13262670375443667694
6695519 79 17259364673874467616
7970288 3 18337951182883854994

> <PUBCHEM_SHAPE_MULTIPOLES>
670.12
16.34
2.82
1.66
10.99
0.27
0.42
-10.85
-2.13
1.86
-0.06
-1.38
-0.02
-0.57

> <PUBCHEM_SHAPE_SELFOVERLAP>
1519.289

> <PUBCHEM_SHAPE_VOLUME>
344.2

> <PUBCHEM_COORDINATE_TYPE>
2
5
10

$$$$
