102032664
  -OEChem-03292013293D

 70 75  0     1  0  0  0  0  0999 V2000
    0.6332   -0.4538   -2.5460 O   0  0  0  0  0  0  0  0  0  0  0  0
   -1.7137    0.8111   -1.9280 O   0  0  0  0  0  0  0  0  0  0  0  0
    0.1954    2.5780   -1.3272 O   0  0  0  0  0  0  0  0  0  0  0  0
   -3.7169    0.4020    0.3463 O   0  0  0  0  0  0  0  0  0  0  0  0
    2.1932   -1.3923    2.4997 O   0  0  0  0  0  0  0  0  0  0  0  0
   -3.2137   -2.7071    0.4033 O   0  0  0  0  0  0  0  0  0  0  0  0
   -4.2498    2.5582    0.9819 O   0  0  0  0  0  0  0  0  0  0  0  0
    2.7124   -1.0616   -0.5002 N   0  0  2  0  0  0  0  0  0  0  0  0
    1.2879    0.3300    0.9853 C   0  0  1  0  0  0  0  0  0  0  0  0
   -0.1910    0.5461    1.4910 C   0  0  1  0  0  0  0  0  0  0  0  0
    0.4727    0.0760   -1.2342 C   0  0  2  0  0  0  0  0  0  0  0  0
    1.3108   -0.7153   -0.1698 C   0  0  1  0  0  0  0  0  0  0  0  0
    1.8457    1.5555    0.1704 C   0  0  2  0  0  0  0  0  0  0  0  0
   -1.2849    0.8522    0.4465 C   0  0  1  0  0  0  0  0  0  0  0  0
   -1.0501    0.0814   -0.8733 C   0  0  1  0  0  0  0  0  0  0  0  0
    1.1065    1.4995   -1.1972 C   0  0  2  0  0  0  0  0  0  0  0  0
    3.3765    1.3244   -0.0903 C   0  0  2  0  0  0  0  0  0  0  0  0
   -0.7861   -0.6457    2.2901 C   0  0  0  0  0  0  0  0  0  0  0  0
   -2.1520   -0.9528    1.6582 C   0  0  1  0  0  0  0  0  0  0  0  0
   -2.5698    0.4248    1.1673 C   0  0  2  0  0  0  0  0  0  0  0  0
    2.1612    0.0144    2.2545 C   0  0  2  0  0  0  0  0  0  0  0  0
   -1.7128   -1.3255   -0.8741 C   0  0  0  0  0  0  0  0  0  0  0  0
   -1.9982   -1.9554    0.4999 C   0  0  2  0  0  0  0  0  0  0  0  0
    3.5650    0.0450   -0.9586 C   0  0  0  0  0  0  0  0  0  0  0  0
    4.1262    1.1160    1.2038 C   0  0  0  0  0  0  0  0  0  0  0  0
    3.5704    0.5110    2.2543 C   0  0  0  0  0  0  0  0  0  0  0  0
    4.0045    2.5467   -0.7889 C   0  0  0  0  0  0  0  0  0  0  0  0
    2.8523   -2.2401   -1.3444 C   0  0  0  0  0  0  0  0  0  0  0  0
   -1.9338   -0.0212   -3.0482 C   0  0  0  0  0  0  0  0  0  0  0  0
    4.2854   -2.7448   -1.3496 C   0  0  0  0  0  0  0  0  0  0  0  0
   -4.4810    1.5416    0.3415 C   0  0  0  0  0  0  0  0  0  0  0  0
   -2.9861   -3.9716   -0.1948 C   0  0  0  0  0  0  0  0  0  0  0  0
   -5.6592    1.3732   -0.5693 C   0  0  0  0  0  0  0  0  0  0  0  0
   -0.1662    1.4072    2.1765 H   0  0  0  0  0  0  0  0  0  0  0  0
    0.8041   -1.6349    0.1332 H   0  0  0  0  0  0  0  0  0  0  0  0
    1.6723    2.4971    0.7056 H   0  0  0  0  0  0  0  0  0  0  0  0
   -1.3584    1.9281    0.2597 H   0  0  0  0  0  0  0  0  0  0  0  0
    1.7725    1.6203   -2.0542 H   0  0  0  0  0  0  0  0  0  0  0  0
   -0.1580   -1.5368    2.3157 H   0  0  0  0  0  0  0  0  0  0  0  0
   -0.9279   -0.3325    3.3327 H   0  0  0  0  0  0  0  0  0  0  0  0
   -2.8542   -1.3440    2.4031 H   0  0  0  0  0  0  0  0  0  0  0  0
   -2.7408    1.0620    2.0473 H   0  0  0  0  0  0  0  0  0  0  0  0
    1.6893    0.4776    3.1306 H   0  0  0  0  0  0  0  0  0  0  0  0
   -1.1174   -2.0553   -1.4351 H   0  0  0  0  0  0  0  0  0  0  0  0
   -2.6959   -1.3091   -1.3602 H   0  0  0  0  0  0  0  0  0  0  0  0
   -1.1903   -2.6526    0.7567 H   0  0  0  0  0  0  0  0  0  0  0  0
    3.3732    0.2584   -2.0173 H   0  0  0  0  0  0  0  0  0  0  0  0
    4.6239   -0.2375   -0.9041 H   0  0  0  0  0  0  0  0  0  0  0  0
    5.1695    1.4145    1.2669 H   0  0  0  0  0  0  0  0  0  0  0  0
    4.1640    0.3625    3.1522 H   0  0  0  0  0  0  0  0  0  0  0  0
    0.5483   -1.4198   -2.4948 H   0  0  0  0  0  0  0  0  0  0  0  0
    3.5617    2.7439   -1.7694 H   0  0  0  0  0  0  0  0  0  0  0  0
    5.0796    2.4028   -0.9523 H   0  0  0  0  0  0  0  0  0  0  0  0
    3.8797    3.4529   -0.1842 H   0  0  0  0  0  0  0  0  0  0  0  0
    2.5481   -2.0522   -2.3785 H   0  0  0  0  0  0  0  0  0  0  0  0
    2.2189   -3.0480   -0.9588 H   0  0  0  0  0  0  0  0  0  0  0  0
    0.7033    3.4028   -1.2421 H   0  0  0  0  0  0  0  0  0  0  0  0
    2.6490   -1.5400    3.3462 H   0  0  0  0  0  0  0  0  0  0  0  0
   -1.6732    0.5744   -3.9312 H   0  0  0  0  0  0  0  0  0  0  0  0
   -3.0116   -0.2021   -3.1404 H   0  0  0  0  0  0  0  0  0  0  0  0
   -1.4122   -0.9708   -3.1680 H   0  0  0  0  0  0  0  0  0  0  0  0
    4.6851   -2.8374   -0.3339 H   0  0  0  0  0  0  0  0  0  0  0  0
    4.3219   -3.7398   -1.8071 H   0  0  0  0  0  0  0  0  0  0  0  0
    4.9519   -2.1050   -1.9361 H   0  0  0  0  0  0  0  0  0  0  0  0
   -3.9408   -4.5039   -0.2348 H   0  0  0  0  0  0  0  0  0  0  0  0
   -2.2916   -4.5680    0.4052 H   0  0  0  0  0  0  0  0  0  0  0  0
   -2.6132   -3.8717   -1.2181 H   0  0  0  0  0  0  0  0  0  0  0  0
   -5.3132    1.1789   -1.5877 H   0  0  0  0  0  0  0  0  0  0  0  0
   -6.2514    2.2927   -0.5714 H   0  0  0  0  0  0  0  0  0  0  0  0
   -6.2875    0.5532   -0.2130 H   0  0  0  0  0  0  0  0  0  0  0  0
  1 11  1  0  0  0  0
  1 51  1  0  0  0  0
  2 15  1  0  0  0  0
  2 29  1  0  0  0  0
  3 16  1  0  0  0  0
  3 57  1  0  0  0  0
  4 20  1  0  0  0  0
  4 31  1  0  0  0  0
  5 21  1  0  0  0  0
  5 58  1  0  0  0  0
  6 23  1  0  0  0  0
  6 32  1  0  0  0  0
  7 31  2  0  0  0  0
  8 12  1  0  0  0  0
  8 24  1  0  0  0  0
  8 28  1  0  0  0  0
  9 10  1  0  0  0  0
  9 12  1  0  0  0  0
  9 13  1  0  0  0  0
  9 21  1  0  0  0  0
 10 14  1  0  0  0  0
 10 18  1  0  0  0  0
 10 34  1  0  0  0  0
 11 12  1  0  0  0  0
 11 15  1  0  0  0  0
 11 16  1  0  0  0  0
 12 35  1  0  0  0  0
 13 16  1  0  0  0  0
 13 17  1  0  0  0  0
 13 36  1  0  0  0  0
 14 15  1  0  0  0  0
 14 20  1  0  0  0  0
 14 37  1  0  0  0  0
 15 22  1  0  0  0  0
 16 38  1  0  0  0  0
 17 24  1  0  0  0  0
 17 25  1  0  0  0  0
 17 27  1  0  0  0  0
 18 19  1  0  0  0  0
 18 39  1  0  0  0  0
 18 40  1  0  0  0  0
 19 20  1  0  0  0  0
 19 23  1  0  0  0  0
 19 41  1  0  0  0  0
 20 42  1  0  0  0  0
 21 26  1  0  0  0  0
 21 43  1  0  0  0  0
 22 23  1  0  0  0  0
 22 44  1  0  0  0  0
 22 45  1  0  0  0  0
 23 46  1  0  0  0  0
 24 47  1  0  0  0  0
 24 48  1  0  0  0  0
 25 26  2  0  0  0  0
 25 49  1  0  0  0  0
 26 50  1  0  0  0  0
 27 52  1  0  0  0  0
 27 53  1  0  0  0  0
 27 54  1  0  0  0  0
 28 30  1  0  0  0  0
 28 55  1  0  0  0  0
 28 56  1  0  0  0  0
 29 59  1  0  0  0  0
 29 60  1  0  0  0  0
 29 61  1  0  0  0  0
 30 62  1  0  0  0  0
 30 63  1  0  0  0  0
 30 64  1  0  0  0  0
 31 33  1  0  0  0  0
 32 65  1  0  0  0  0
 32 66  1  0  0  0  0
 32 67  1  0  0  0  0
 33 68  1  0  0  0  0
 33 69  1  0  0  0  0
 33 70  1  0  0  0  0
M  END
> <PUBCHEM_COMPOUND_CID>
102032664

> <PUBCHEM_CONFORMER_RMSD>
0.8

> <PUBCHEM_CONFORMER_DIVERSEORDER>
1

> <PUBCHEM_MMFF94_PARTIAL_CHARGES>
29
1 -0.68
11 0.28
12 0.27
15 0.28
16 0.28
17 0.14
2 -0.56
20 0.28
21 0.42
23 0.28
24 0.27
25 -0.29
26 -0.29
28 0.27
29 0.28
3 -0.68
31 0.66
32 0.28
33 0.06
4 -0.43
49 0.15
5 -0.68
50 0.15
51 0.4
57 0.4
58 0.4
6 -0.56
7 -0.57
8 -0.81

> <PUBCHEM_EFFECTIVE_ROTOR_COUNT>
6.6

> <PUBCHEM_PHARMACOPHORE_FEATURES>
14
1 1 acceptor
1 1 donor
1 2 acceptor
1 3 acceptor
1 3 donor
1 5 acceptor
1 5 donor
1 6 acceptor
1 7 acceptor
1 8 cation
6 9 13 17 21 25 26 rings
8 10 14 15 18 19 20 22 23 rings
8 8 9 11 12 13 16 17 24 rings
8 9 10 11 12 13 14 15 16 rings

> <PUBCHEM_HEAVY_ATOM_COUNT>
33

> <PUBCHEM_ATOM_DEF_STEREO_COUNT>
13

> <PUBCHEM_ATOM_UDEF_STEREO_COUNT>
0

> <PUBCHEM_BOND_DEF_STEREO_COUNT>
0

> <PUBCHEM_BOND_UDEF_STEREO_COUNT>
0

> <PUBCHEM_ISOTOPIC_ATOM_COUNT>
0

> <PUBCHEM_COMPONENT_COUNT>
1

> <PUBCHEM_CACTVS_TAUTO_COUNT>
2

> <PUBCHEM_CONFORMER_ID>
0614E51800000001

> <PUBCHEM_MMFF94_ENERGY>
182.9903

> <PUBCHEM_FEATURE_SELFOVERLAP>
72.507

> <PUBCHEM_SHAPE_FINGERPRINT>
10863032 1 18272101507934531162
10948715 1 18410300219783734609
11370993 70 18341900688078300331
11578080 2 18268168554884317620
12156800 1 15388655740652444568
12422481 6 16226316015683838369
12553582 1 15936417766064867406
12633257 1 17967801769580679056
12788726 201 18119527885024695619
13224815 77 16271931561779682986
13583140 156 17703790370233963850
14178342 30 18340199795187630754
14223421 5 17845666957120974134
15219462 58 17839702110829774867
1601671 61 15719974439887856101
16945 1 18115570561828318772
17980427 23 17460039702366752428
21033648 29 18341333275991716041
23559900 14 18271813389070869930
238 59 15841557336202026697
392239 28 17387666497221447256
4340502 62 18343303656915822979
469060 322 17271141439834936095
633830 44 17241343480831665140

> <PUBCHEM_SHAPE_MULTIPOLES>
633.06
8.3
2.98
2.48
3.3
2.15
-0.01
-1.88
0.03
0.83
-0.53
-0.58
0.12
0.75

> <PUBCHEM_SHAPE_SELFOVERLAP>
1395.583

> <PUBCHEM_SHAPE_VOLUME>
334

> <PUBCHEM_COORDINATE_TYPE>
2
5
10

$$$$
