102004890
  -OEChem-03292013293D

 63 64  0     1  0  0  0  0  0999 V2000
    2.1946    3.2486   -0.1143 O   0  0  0  0  0  0  0  0  0  0  0  0
   -1.7815    0.6542    0.1854 O   0  0  0  0  0  0  0  0  0  0  0  0
    5.0390   -0.9080    0.6519 O   0  0  0  0  0  0  0  0  0  0  0  0
    1.1475    5.0662   -1.0606 O   0  0  0  0  0  0  0  0  0  0  0  0
   -1.8046   -2.4325   -0.3335 O   0  0  0  0  0  0  0  0  0  0  0  0
   -2.7872    0.4965    2.2507 O   0  0  0  0  0  0  0  0  0  0  0  0
    6.0122   -2.7302   -0.3823 O   0  0  0  0  0  0  0  0  0  0  0  0
   -3.0564   -2.5836   -2.2694 O   0  0  0  0  0  0  0  0  0  0  0  0
   -7.1323   -1.1811    0.8557 O   0  0  0  0  0  0  0  0  0  0  0  0
    0.3910    1.7075   -0.0494 C   0  0  2  0  0  0  0  0  0  0  0  0
   -0.5029    0.7861    0.8118 C   0  0  2  0  0  0  0  0  0  0  0  0
    1.7287    2.0952    0.5959 C   0  0  1  0  0  0  0  0  0  0  0  0
    0.0397   -0.6442    1.0962 C   0  0  0  0  0  0  0  0  0  0  0  0
   -0.0802    3.1042   -0.3411 C   0  0  0  0  0  0  0  0  0  0  0  0
    2.7467    1.0009    0.6121 C   0  0  0  0  0  0  0  0  0  0  0  0
    0.3894   -1.5294   -0.0961 C   0  0  0  0  0  0  0  0  0  0  0  0
    3.2967    0.3446   -0.4278 C   0  0  0  0  0  0  0  0  0  0  0  0
    1.1151    3.9568   -0.5602 C   0  0  0  0  0  0  0  0  0  0  0  0
    3.8946   -1.0309   -0.1884 C   0  0  2  0  0  0  0  0  0  0  0  0
    2.8704   -1.9950    0.4558 C   0  0  0  0  0  0  0  0  0  0  0  0
    1.5915   -2.0988   -0.3350 C   0  0  0  0  0  0  0  0  0  0  0  0
   -0.7450   -1.8291   -1.0457 C   0  0  0  0  0  0  0  0  0  0  0  0
   -1.3001    3.6467   -0.3780 C   0  0  0  0  0  0  0  0  0  0  0  0
    3.2098    0.7600   -1.8687 C   0  0  0  0  0  0  0  0  0  0  0  0
   -2.8417    0.5160    1.0293 C   0  0  0  0  0  0  0  0  0  0  0  0
   -4.0990    0.3833    0.2322 C   0  0  0  0  0  0  0  0  0  0  0  0
    6.0266   -1.8289    0.4450 C   0  0  0  0  0  0  0  0  0  0  0  0
   -4.0040    0.4595   -1.2629 C   0  0  0  0  0  0  0  0  0  0  0  0
   -2.9145   -2.7651   -1.0677 C   0  0  0  0  0  0  0  0  0  0  0  0
   -5.2321    0.2333    0.9433 C   0  0  0  0  0  0  0  0  0  0  0  0
    7.1593   -1.5788    1.3940 C   0  0  0  0  0  0  0  0  0  0  0  0
   -6.6204    0.0686    0.4074 C   0  0  0  0  0  0  0  0  0  0  0  0
   -3.9510   -3.3925   -0.1856 C   0  0  0  0  0  0  0  0  0  0  0  0
    0.5390    1.2363   -1.0302 H   0  0  0  0  0  0  0  0  0  0  0  0
   -0.6235    1.2884    1.7822 H   0  0  0  0  0  0  0  0  0  0  0  0
    1.5758    2.4129    1.6381 H   0  0  0  0  0  0  0  0  0  0  0  0
   -0.7144   -1.1905    1.6789 H   0  0  0  0  0  0  0  0  0  0  0  0
    0.8904   -0.5586    1.7761 H   0  0  0  0  0  0  0  0  0  0  0  0
    2.9014    0.5842    1.6073 H   0  0  0  0  0  0  0  0  0  0  0  0
    4.1880   -1.4410   -1.1650 H   0  0  0  0  0  0  0  0  0  0  0  0
    2.6840   -1.7268    1.5014 H   0  0  0  0  0  0  0  0  0  0  0  0
    3.3146   -2.9972    0.5187 H   0  0  0  0  0  0  0  0  0  0  0  0
    1.6929   -2.7201   -1.2249 H   0  0  0  0  0  0  0  0  0  0  0  0
   -0.4222   -2.5195   -1.8356 H   0  0  0  0  0  0  0  0  0  0  0  0
   -1.0688   -0.9121   -1.5456 H   0  0  0  0  0  0  0  0  0  0  0  0
   -2.1967    3.0684   -0.2027 H   0  0  0  0  0  0  0  0  0  0  0  0
   -1.4441    4.7020   -0.5880 H   0  0  0  0  0  0  0  0  0  0  0  0
    2.6157    0.0397   -2.4404 H   0  0  0  0  0  0  0  0  0  0  0  0
    4.2141    0.8009   -2.3038 H   0  0  0  0  0  0  0  0  0  0  0  0
    2.7608    1.7447   -2.0103 H   0  0  0  0  0  0  0  0  0  0  0  0
   -3.9648    1.5078   -1.5773 H   0  0  0  0  0  0  0  0  0  0  0  0
   -4.8566   -0.0103   -1.7600 H   0  0  0  0  0  0  0  0  0  0  0  0
   -3.1187   -0.0367   -1.6591 H   0  0  0  0  0  0  0  0  0  0  0  0
   -5.1843    0.2102    2.0311 H   0  0  0  0  0  0  0  0  0  0  0  0
    7.5744   -0.5828    1.2210 H   0  0  0  0  0  0  0  0  0  0  0  0
    7.9462   -2.3190    1.2227 H   0  0  0  0  0  0  0  0  0  0  0  0
    6.8077   -1.6763    2.4241 H   0  0  0  0  0  0  0  0  0  0  0  0
   -6.6778    0.0946   -0.6822 H   0  0  0  0  0  0  0  0  0  0  0  0
   -7.2589    0.8650    0.8032 H   0  0  0  0  0  0  0  0  0  0  0  0
   -3.6740   -4.4276    0.0263 H   0  0  0  0  0  0  0  0  0  0  0  0
   -4.9194   -3.3711   -0.6935 H   0  0  0  0  0  0  0  0  0  0  0  0
   -4.0463   -2.8273    0.7451 H   0  0  0  0  0  0  0  0  0  0  0  0
   -8.0447   -1.2500    0.5265 H   0  0  0  0  0  0  0  0  0  0  0  0
  1 12  1  0  0  0  0
  1 18  1  0  0  0  0
  2 11  1  0  0  0  0
  2 25  1  0  0  0  0
  3 19  1  0  0  0  0
  3 27  1  0  0  0  0
  4 18  2  0  0  0  0
  5 22  1  0  0  0  0
  5 29  1  0  0  0  0
  6 25  2  0  0  0  0
  7 27  2  0  0  0  0
  8 29  2  0  0  0  0
  9 32  1  0  0  0  0
  9 63  1  0  0  0  0
 10 11  1  0  0  0  0
 10 12  1  0  0  0  0
 10 14  1  0  0  0  0
 10 34  1  0  0  0  0
 11 13  1  0  0  0  0
 11 35  1  0  0  0  0
 12 15  1  0  0  0  0
 12 36  1  0  0  0  0
 13 16  1  0  0  0  0
 13 37  1  0  0  0  0
 13 38  1  0  0  0  0
 14 18  1  0  0  0  0
 14 23  2  0  0  0  0
 15 17  2  0  0  0  0
 15 39  1  0  0  0  0
 16 21  2  0  0  0  0
 16 22  1  0  0  0  0
 17 19  1  0  0  0  0
 17 24  1  0  0  0  0
 19 20  1  0  0  0  0
 19 40  1  0  0  0  0
 20 21  1  0  0  0  0
 20 41  1  0  0  0  0
 20 42  1  0  0  0  0
 21 43  1  0  0  0  0
 22 44  1  0  0  0  0
 22 45  1  0  0  0  0
 23 46  1  0  0  0  0
 23 47  1  0  0  0  0
 24 48  1  0  0  0  0
 24 49  1  0  0  0  0
 24 50  1  0  0  0  0
 25 26  1  0  0  0  0
 26 28  1  0  0  0  0
 26 30  2  0  0  0  0
 27 31  1  0  0  0  0
 28 51  1  0  0  0  0
 28 52  1  0  0  0  0
 28 53  1  0  0  0  0
 29 33  1  0  0  0  0
 30 32  1  0  0  0  0
 30 54  1  0  0  0  0
 31 55  1  0  0  0  0
 31 56  1  0  0  0  0
 31 57  1  0  0  0  0
 32 58  1  0  0  0  0
 32 59  1  0  0  0  0
 33 60  1  0  0  0  0
 33 61  1  0  0  0  0
 33 62  1  0  0  0  0
M  END
> <PUBCHEM_COMPOUND_CID>
102004890

> <PUBCHEM_CONFORMER_RMSD>
1

> <PUBCHEM_CONFORMER_DIVERSEORDER>
1
16
15
9
7
12
17
4
14
6
8
13
3
10
5
11
2

> <PUBCHEM_MMFF94_PARTIAL_CHARGES>
39
1 -0.43
10 0.14
11 0.28
12 0.42
13 0.14
14 -0.12
15 -0.29
16 -0.28
17 -0.28
18 0.71
19 0.42
2 -0.43
20 0.14
21 -0.29
22 0.42
23 -0.3
24 0.14
25 0.71
26 -0.12
27 0.66
28 0.14
29 0.66
3 -0.43
30 -0.29
31 0.06
32 0.42
33 0.06
39 0.15
4 -0.57
43 0.15
46 0.15
47 0.15
5 -0.43
54 0.15
6 -0.57
63 0.4
7 -0.57
8 -0.57
9 -0.68

> <PUBCHEM_EFFECTIVE_ROTOR_COUNT>
10

> <PUBCHEM_PHARMACOPHORE_FEATURES>
8
1 28 hydrophobe
1 4 acceptor
1 6 acceptor
1 7 acceptor
1 8 acceptor
1 9 acceptor
1 9 donor
5 1 10 12 14 18 rings

> <PUBCHEM_HEAVY_ATOM_COUNT>
33

> <PUBCHEM_ATOM_DEF_STEREO_COUNT>
4

> <PUBCHEM_ATOM_UDEF_STEREO_COUNT>
0

> <PUBCHEM_BOND_DEF_STEREO_COUNT>
3

> <PUBCHEM_BOND_UDEF_STEREO_COUNT>
0

> <PUBCHEM_ISOTOPIC_ATOM_COUNT>
0

> <PUBCHEM_COMPONENT_COUNT>
1

> <PUBCHEM_CACTVS_TAUTO_COUNT>
4

> <PUBCHEM_CONFORMER_ID>
0614789A00000001

> <PUBCHEM_MMFF94_ENERGY>
70.7304

> <PUBCHEM_FEATURE_SELFOVERLAP>
40.599

> <PUBCHEM_SHAPE_FINGERPRINT>
10411042 1 18335141947342767960
1100329 8 18411702114457868715
11578080 2 17058916956547227091
11756154 67 18339932528105407094
12166972 35 17676214550100965724
12422481 6 18060696199971044634
12788726 201 18043804287132720938
13140716 1 18343018942863851762
13583140 156 18114474430677759755
13782708 43 17168437033626041675
14117953 113 18269275673410774053
14955137 171 18335708251554332057
15420108 30 17840318718025902769
16087824 20 18193554472470558397
17492 89 18194399133233326075
20600515 1 17988652856908814112
23559900 14 18341888662607455649
249057 3 18411416207212246927
25019877 29 17274820220873206935
338550 245 18269276944763219683
4280585 95 18338781365179563866
4340502 62 14764344904028312550
4409770 3 18118390748924062044
463206 1 18407761447493235090
5081480 168 16588022450430694510
563151 97 17690844883633225668

> <PUBCHEM_SHAPE_MULTIPOLES>
626.3
13.31
4.92
1.4
1.06
4.53
-0.15
-10.96
3.92
1.07
-1.87
-0.47
-0.24
-1.54

> <PUBCHEM_SHAPE_SELFOVERLAP>
1289.565

> <PUBCHEM_SHAPE_VOLUME>
356.6

> <PUBCHEM_COORDINATE_TYPE>
2
5
10

$$$$
