102093878
  -OEChem-03292013293D

 70 72  0     1  0  0  0  0  0999 V2000
   -0.4061   -2.8543    0.4716 O   0  0  0  0  0  0  0  0  0  0  0  0
   -0.2141   -3.3286   -1.8073 O   0  0  0  0  0  0  0  0  0  0  0  0
   -2.8295   -3.5510   -0.5462 O   0  0  0  0  0  0  0  0  0  0  0  0
   -0.1431    1.2705   -0.2933 O   0  0  0  0  0  0  0  0  0  0  0  0
   -0.4815   -1.7846    2.9260 O   0  0  0  0  0  0  0  0  0  0  0  0
    2.7204    1.4948    1.8066 O   0  0  0  0  0  0  0  0  0  0  0  0
    3.5415   -0.6157   -1.7651 O   0  0  0  0  0  0  0  0  0  0  0  0
   -2.3271    2.4471   -0.5715 O   0  0  0  0  0  0  0  0  0  0  0  0
    0.0473   -1.0403   -1.0149 C   0  0  2  0  0  0  0  0  0  0  0  0
   -0.7277   -2.3833   -0.8613 C   0  0  2  0  0  0  0  0  0  0  0  0
    1.3309   -1.3931   -0.2083 C   0  0  2  0  0  0  0  0  0  0  0  0
    0.7992   -2.2422    0.9408 C   0  0  1  0  0  0  0  0  0  0  0  0
   -2.2695   -2.2978   -0.9746 C   0  0  2  0  0  0  0  0  0  0  0  0
   -0.7132    0.1907   -0.4638 C   0  0  0  0  0  0  0  0  0  0  0  0
    0.4171   -0.6873   -2.4693 C   0  0  0  0  0  0  0  0  0  0  0  0
   -2.7978   -1.2430    0.0025 C   0  0  0  0  0  0  0  0  0  0  0  0
    2.2893   -0.3063    0.2322 C   0  0  0  0  0  0  0  0  0  0  0  0
   -2.1878    0.0967   -0.2448 C   0  0  0  0  0  0  0  0  0  0  0  0
    0.4151   -1.4214    2.1640 C   0  0  0  0  0  0  0  0  0  0  0  0
    1.7657   -3.3407    1.3801 C   0  0  0  0  0  0  0  0  0  0  0  0
   -2.7916   -2.0478   -2.3968 C   0  0  0  0  0  0  0  0  0  0  0  0
    2.0489    0.3092    1.5389 C   0  0  0  0  0  0  0  0  0  0  0  0
    1.1823   -0.1691    2.4503 C   0  0  0  0  0  0  0  0  0  0  0  0
    3.3519   -0.0135   -0.5400 C   0  0  0  0  0  0  0  0  0  0  0  0
   -2.9111    1.2237   -0.3100 C   0  0  0  0  0  0  0  0  0  0  0  0
    0.8908    0.4882    3.7690 C   0  0  0  0  0  0  0  0  0  0  0  0
    4.3578    0.9468   -0.1367 C   0  0  0  0  0  0  0  0  0  0  0  0
   -4.3478    1.2368   -0.1121 C   0  0  0  0  0  0  0  0  0  0  0  0
    5.4400    1.2849   -0.8567 C   0  0  0  0  0  0  0  0  0  0  0  0
   -5.1308    2.3267   -0.1636 C   0  0  0  0  0  0  0  0  0  0  0  0
    6.4141    2.2539   -0.4032 C   0  0  0  0  0  0  0  0  0  0  0  0
   -6.5621    2.2765    0.0421 C   0  0  0  0  0  0  0  0  0  0  0  0
    7.4965    2.5956   -1.1176 C   0  0  0  0  0  0  0  0  0  0  0  0
   -7.3492    3.3612   -0.0081 C   0  0  0  0  0  0  0  0  0  0  0  0
    8.5089    3.5941   -0.6610 C   0  0  0  0  0  0  0  0  0  0  0  0
   -8.8273    3.3227    0.2021 C   0  0  0  0  0  0  0  0  0  0  0  0
    1.9171   -2.0821   -0.8334 H   0  0  0  0  0  0  0  0  0  0  0  0
    1.0375   -1.4521   -2.9468 H   0  0  0  0  0  0  0  0  0  0  0  0
    0.9764    0.2544   -2.5169 H   0  0  0  0  0  0  0  0  0  0  0  0
   -0.4694   -0.5454   -3.0916 H   0  0  0  0  0  0  0  0  0  0  0  0
   -2.5741   -1.5412    1.0355 H   0  0  0  0  0  0  0  0  0  0  0  0
   -3.8862   -1.2862   -0.0521 H   0  0  0  0  0  0  0  0  0  0  0  0
    1.3282   -3.9481    2.1812 H   0  0  0  0  0  0  0  0  0  0  0  0
    2.7119   -2.9305    1.7479 H   0  0  0  0  0  0  0  0  0  0  0  0
    1.9791   -4.0279    0.5537 H   0  0  0  0  0  0  0  0  0  0  0  0
   -2.4245   -2.8126   -3.0897 H   0  0  0  0  0  0  0  0  0  0  0  0
   -2.5188   -1.0653   -2.7861 H   0  0  0  0  0  0  0  0  0  0  0  0
   -3.8858   -2.1179   -2.4239 H   0  0  0  0  0  0  0  0  0  0  0  0
    0.7532   -3.2881   -1.8306 H   0  0  0  0  0  0  0  0  0  0  0  0
   -3.7986   -3.4857   -0.5950 H   0  0  0  0  0  0  0  0  0  0  0  0
    0.0955    1.2313    3.6543 H   0  0  0  0  0  0  0  0  0  0  0  0
    1.7723    0.9707    4.2022 H   0  0  0  0  0  0  0  0  0  0  0  0
    0.5672   -0.2415    4.5192 H   0  0  0  0  0  0  0  0  0  0  0  0
    2.3499    1.9309    2.5885 H   0  0  0  0  0  0  0  0  0  0  0  0
    4.4225    1.3444    0.8600 H   0  0  0  0  0  0  0  0  0  0  0  0
   -4.8603    0.3122    0.1218 H   0  0  0  0  0  0  0  0  0  0  0  0
    4.4909   -0.7428   -1.9208 H   0  0  0  0  0  0  0  0  0  0  0  0
   -1.4120    2.3378   -0.8693 H   0  0  0  0  0  0  0  0  0  0  0  0
    5.5945    0.9043   -1.8623 H   0  0  0  0  0  0  0  0  0  0  0  0
   -4.7033    3.3033   -0.3766 H   0  0  0  0  0  0  0  0  0  0  0  0
    6.2494    2.7171    0.5665 H   0  0  0  0  0  0  0  0  0  0  0  0
   -7.0051    1.3049    0.2463 H   0  0  0  0  0  0  0  0  0  0  0  0
    7.6757    2.1393   -2.0883 H   0  0  0  0  0  0  0  0  0  0  0  0
   -6.9178    4.3385   -0.2113 H   0  0  0  0  0  0  0  0  0  0  0  0
    8.2664    4.0129    0.3208 H   0  0  0  0  0  0  0  0  0  0  0  0
    8.5685    4.4185   -1.3781 H   0  0  0  0  0  0  0  0  0  0  0  0
    9.4942    3.1223   -0.5965 H   0  0  0  0  0  0  0  0  0  0  0  0
   -9.3398    3.7013   -0.6875 H   0  0  0  0  0  0  0  0  0  0  0  0
   -9.0992    3.9564    1.0517 H   0  0  0  0  0  0  0  0  0  0  0  0
   -9.1926    2.3102    0.4012 H   0  0  0  0  0  0  0  0  0  0  0  0
  1 10  1  0  0  0  0
  1 12  1  0  0  0  0
  2 10  1  0  0  0  0
  2 49  1  0  0  0  0
  3 13  1  0  0  0  0
  3 50  1  0  0  0  0
  4 14  2  0  0  0  0
  5 19  2  0  0  0  0
  6 22  1  0  0  0  0
  6 54  1  0  0  0  0
  7 24  1  0  0  0  0
  7 57  1  0  0  0  0
  8 25  1  0  0  0  0
  8 58  1  0  0  0  0
  9 10  1  0  0  0  0
  9 11  1  0  0  0  0
  9 14  1  0  0  0  0
  9 15  1  0  0  0  0
 10 13  1  0  0  0  0
 11 12  1  0  0  0  0
 11 17  1  0  0  0  0
 11 37  1  0  0  0  0
 12 19  1  0  0  0  0
 12 20  1  0  0  0  0
 13 16  1  0  0  0  0
 13 21  1  0  0  0  0
 14 18  1  0  0  0  0
 15 38  1  0  0  0  0
 15 39  1  0  0  0  0
 15 40  1  0  0  0  0
 16 18  1  0  0  0  0
 16 41  1  0  0  0  0
 16 42  1  0  0  0  0
 17 22  1  0  0  0  0
 17 24  2  3  0  0  0
 18 25  2  3  0  0  0
 19 23  1  0  0  0  0
 20 43  1  0  0  0  0
 20 44  1  0  0  0  0
 20 45  1  0  0  0  0
 21 46  1  0  0  0  0
 21 47  1  0  0  0  0
 21 48  1  0  0  0  0
 22 23  2  0  0  0  0
 23 26  1  0  0  0  0
 24 27  1  0  0  0  0
 25 28  1  0  0  0  0
 26 51  1  0  0  0  0
 26 52  1  0  0  0  0
 26 53  1  0  0  0  0
 27 29  2  0  0  0  0
 27 55  1  0  0  0  0
 28 30  2  0  0  0  0
 28 56  1  0  0  0  0
 29 31  1  0  0  0  0
 29 59  1  0  0  0  0
 30 32  1  0  0  0  0
 30 60  1  0  0  0  0
 31 33  2  0  0  0  0
 31 61  1  0  0  0  0
 32 34  2  0  0  0  0
 32 62  1  0  0  0  0
 33 35  1  0  0  0  0
 33 63  1  0  0  0  0
 34 36  1  0  0  0  0
 34 64  1  0  0  0  0
 35 65  1  0  0  0  0
 35 66  1  0  0  0  0
 35 67  1  0  0  0  0
 36 68  1  0  0  0  0
 36 69  1  0  0  0  0
 36 70  1  0  0  0  0
M  END
> <PUBCHEM_COMPOUND_CID>
102093878

> <PUBCHEM_CONFORMER_RMSD>
0.8

> <PUBCHEM_CONFORMER_DIVERSEORDER>
1
4
3
5
2
6

> <PUBCHEM_MMFF94_PARTIAL_CHARGES>
46
1 -0.56
10 0.56
11 0.14
12 0.34
13 0.28
14 0.49
16 0.14
17 -0.14
18 -0.12
19 0.49
2 -0.68
22 0.08
23 -0.12
24 0.08
25 0.08
26 0.14
27 -0.15
28 -0.15
29 -0.15
3 -0.68
30 -0.15
31 -0.15
32 -0.15
33 -0.29
34 -0.29
35 0.14
36 0.14
4 -0.57
49 0.4
5 -0.57
50 0.4
54 0.45
55 0.15
56 0.15
57 0.45
58 0.45
59 0.15
6 -0.53
60 0.15
61 0.15
62 0.15
63 0.15
64 0.15
7 -0.53
8 -0.53
9 0.06

> <PUBCHEM_EFFECTIVE_ROTOR_COUNT>
4.6

> <PUBCHEM_PHARMACOPHORE_FEATURES>
15
1 1 acceptor
1 2 acceptor
1 2 donor
1 3 acceptor
1 3 donor
1 35 hydrophobe
1 36 hydrophobe
1 4 acceptor
1 5 acceptor
1 6 donor
1 7 donor
1 8 donor
5 1 9 10 11 12 rings
6 11 12 17 19 22 23 rings
6 9 10 13 14 16 18 rings

> <PUBCHEM_HEAVY_ATOM_COUNT>
36

> <PUBCHEM_ATOM_DEF_STEREO_COUNT>
5

> <PUBCHEM_ATOM_UDEF_STEREO_COUNT>
0

> <PUBCHEM_BOND_DEF_STEREO_COUNT>
4

> <PUBCHEM_BOND_UDEF_STEREO_COUNT>
2

> <PUBCHEM_ISOTOPIC_ATOM_COUNT>
0

> <PUBCHEM_COMPONENT_COUNT>
1

> <PUBCHEM_CACTVS_TAUTO_COUNT>
672

> <PUBCHEM_CONFORMER_ID>
0615D43600000001

> <PUBCHEM_MMFF94_ENERGY>
121.0102

> <PUBCHEM_FEATURE_SELFOVERLAP>
76.578

> <PUBCHEM_SHAPE_FINGERPRINT>
10165383 225 18271804562596669469
11115154 58 14476962260000129593
11135609 201 18040429988652491765
11315181 36 17461155737466789412
1200032 147 18410014299552997497
12047536 79 16807279208622491429
12895837 130 18263651821701169412
13150687 139 18339933619248400028
13540713 5 18337653261770551327
13726171 33 18412269415682627145
13911987 19 16486986115368122676
15840311 113 18261115110545955500
16114785 44 18189342436307368874
17492 54 17703795799341891656
19319366 153 18041836212341670755
21756936 100 17968658340962952800
23419403 2 17402671368590209122
23523788 1 12901539109963955568
27425 322 18186809092454396573
3411729 13 18261675853213318217
3986486 107 16702306724020127273
4112364 45 18114738227036154192
4340502 62 16950857890710315257
5252454 2 18339346496839331997
57527295 17 17989197188068380750
57527306 92 18042399312882964335
5776283 40 18131069363565204984
58260988 587 18188776037410481498
7808743 9 18410852170257358557

> <PUBCHEM_SHAPE_MULTIPOLES>
693.91
16.21
4.58
2.43
1.89
0.07
-1.89
32.58
4.59
2.1
0.76
-1.2
-1.31
-2.36

> <PUBCHEM_SHAPE_SELFOVERLAP>
1482.772

> <PUBCHEM_SHAPE_VOLUME>
380.9

> <PUBCHEM_COORDINATE_TYPE>
2
5
10

$$$$
