102004933
  -OEChem-03292013293D

 47 51  0     1  0  0  0  0  0999 V2000
   -0.8095   -1.6238    0.5630 O   0  0  0  0  0  0  0  0  0  0  0  0
    4.0005   -1.1369    1.5727 O   0  0  0  0  0  0  0  0  0  0  0  0
   -4.3454    0.4814   -0.9671 O   0  0  0  0  0  0  0  0  0  0  0  0
   -2.2013   -1.5819    2.3974 O   0  0  0  0  0  0  0  0  0  0  0  0
   -0.2618    3.5231    0.9758 O   0  0  0  0  0  0  0  0  0  0  0  0
   -0.0304    3.0326   -1.2382 O   0  0  0  0  0  0  0  0  0  0  0  0
    1.1539    0.4871   -0.0136 C   0  0  1  0  0  0  0  0  0  0  0  0
    0.6846   -0.5421   -1.0931 C   0  0  2  0  0  0  0  0  0  0  0  0
   -1.3033    0.4970   -0.2841 C   0  0  2  0  0  0  0  0  0  0  0  0
   -0.7441   -0.8768   -0.6656 C   0  0  2  0  0  0  0  0  0  0  0  0
   -0.1317    1.2505    0.3928 C   0  0  2  0  0  0  0  0  0  0  0  0
    1.8003   -0.1919    1.2078 C   0  0  0  0  0  0  0  0  0  0  0  0
   -2.4901    0.0279    0.5621 C   0  0  1  0  0  0  0  0  0  0  0  0
    3.0477   -0.8008    0.5822 C   0  0  2  0  0  0  0  0  0  0  0  0
    2.3655    1.2937   -0.5321 C   0  0  0  0  0  0  0  0  0  0  0  0
    1.6245   -1.7364   -1.3318 C   0  0  0  0  0  0  0  0  0  0  0  0
    2.6237   -2.0411   -0.2124 C   0  0  0  0  0  0  0  0  0  0  0  0
    3.5164    0.3376   -0.3000 C   0  0  0  0  0  0  0  0  0  0  0  0
   -1.6556   -1.5594   -1.6519 C   0  0  0  0  0  0  0  0  0  0  0  0
   -3.5760   -0.5738   -0.3924 C   0  0  2  0  0  0  0  0  0  0  0  0
   -1.8506   -1.1296    1.3198 C   0  0  0  0  0  0  0  0  0  0  0  0
   -0.1330    2.6755   -0.0741 C   0  0  0  0  0  0  0  0  0  0  0  0
   -3.0475    1.0920    1.4986 C   0  0  0  0  0  0  0  0  0  0  0  0
   -2.9849   -1.4045   -1.5194 C   0  0  0  0  0  0  0  0  0  0  0  0
    4.7478    0.5009   -0.7964 C   0  0  0  0  0  0  0  0  0  0  0  0
    0.6033   -0.0140   -2.0566 H   0  0  0  0  0  0  0  0  0  0  0  0
   -1.6486    1.0590   -1.1634 H   0  0  0  0  0  0  0  0  0  0  0  0
   -0.2409    1.2394    1.4833 H   0  0  0  0  0  0  0  0  0  0  0  0
    1.1787   -0.9428    1.7026 H   0  0  0  0  0  0  0  0  0  0  0  0
    2.0618    0.5399    1.9860 H   0  0  0  0  0  0  0  0  0  0  0  0
    2.5266    2.1977    0.0671 H   0  0  0  0  0  0  0  0  0  0  0  0
    2.2700    1.5691   -1.5870 H   0  0  0  0  0  0  0  0  0  0  0  0
    2.2142   -1.5076   -2.2308 H   0  0  0  0  0  0  0  0  0  0  0  0
    1.0632   -2.6433   -1.5833 H   0  0  0  0  0  0  0  0  0  0  0  0
    2.1778   -2.7723    0.4755 H   0  0  0  0  0  0  0  0  0  0  0  0
    3.5039   -2.5469   -0.6300 H   0  0  0  0  0  0  0  0  0  0  0  0
   -1.2469   -2.1851   -2.4370 H   0  0  0  0  0  0  0  0  0  0  0  0
   -4.2614   -1.2053    0.1864 H   0  0  0  0  0  0  0  0  0  0  0  0
   -3.2913    2.0123    0.9577 H   0  0  0  0  0  0  0  0  0  0  0  0
   -2.3432    1.3462    2.2975 H   0  0  0  0  0  0  0  0  0  0  0  0
   -3.9605    0.7361    1.9894 H   0  0  0  0  0  0  0  0  0  0  0  0
   -3.6605   -1.8964   -2.2119 H   0  0  0  0  0  0  0  0  0  0  0  0
    3.5892   -1.7771    2.1782 H   0  0  0  0  0  0  0  0  0  0  0  0
    5.5344   -0.2178   -0.5948 H   0  0  0  0  0  0  0  0  0  0  0  0
    4.9899    1.3565   -1.4174 H   0  0  0  0  0  0  0  0  0  0  0  0
   -5.0401    0.0778   -1.5153 H   0  0  0  0  0  0  0  0  0  0  0  0
   -0.2637    4.4616    0.6905 H   0  0  0  0  0  0  0  0  0  0  0  0
  1 10  1  0  0  0  0
  1 21  1  0  0  0  0
  2 14  1  0  0  0  0
  2 43  1  0  0  0  0
  3 20  1  0  0  0  0
  3 46  1  0  0  0  0
  4 21  2  0  0  0  0
  5 22  1  0  0  0  0
  5 47  1  0  0  0  0
  6 22  2  0  0  0  0
  7  8  1  0  0  0  0
  7 11  1  0  0  0  0
  7 12  1  0  0  0  0
  7 15  1  0  0  0  0
  8 10  1  0  0  0  0
  8 16  1  0  0  0  0
  8 26  1  0  0  0  0
  9 10  1  0  0  0  0
  9 11  1  0  0  0  0
  9 13  1  0  0  0  0
  9 27  1  0  0  0  0
 10 19  1  0  0  0  0
 11 22  1  0  0  0  0
 11 28  1  0  0  0  0
 12 14  1  0  0  0  0
 12 29  1  0  0  0  0
 12 30  1  0  0  0  0
 13 20  1  0  0  0  0
 13 21  1  0  0  0  0
 13 23  1  0  0  0  0
 14 17  1  0  0  0  0
 14 18  1  0  0  0  0
 15 18  1  0  0  0  0
 15 31  1  0  0  0  0
 15 32  1  0  0  0  0
 16 17  1  0  0  0  0
 16 33  1  0  0  0  0
 16 34  1  0  0  0  0
 17 35  1  0  0  0  0
 17 36  1  0  0  0  0
 18 25  2  0  0  0  0
 19 24  2  0  0  0  0
 19 37  1  0  0  0  0
 20 24  1  0  0  0  0
 20 38  1  0  0  0  0
 23 39  1  0  0  0  0
 23 40  1  0  0  0  0
 23 41  1  0  0  0  0
 24 42  1  0  0  0  0
 25 44  1  0  0  0  0
 25 45  1  0  0  0  0
M  END
> <PUBCHEM_COMPOUND_CID>
102004933

> <PUBCHEM_CONFORMER_RMSD>
0.6

> <PUBCHEM_CONFORMER_DIVERSEORDER>
1
2
3

> <PUBCHEM_MMFF94_PARTIAL_CHARGES>
25
1 -0.43
10 0.42
11 0.06
13 0.06
14 0.42
15 0.14
18 -0.28
19 -0.29
2 -0.68
20 0.42
21 0.66
22 0.66
24 -0.29
25 -0.3
3 -0.68
37 0.15
4 -0.57
42 0.15
43 0.4
44 0.15
45 0.15
46 0.4
47 0.5
5 -0.65
6 -0.57

> <PUBCHEM_EFFECTIVE_ROTOR_COUNT>
2.4

> <PUBCHEM_PHARMACOPHORE_FEATURES>
11
1 2 acceptor
1 2 donor
1 3 acceptor
1 3 donor
1 4 acceptor
1 5 acceptor
1 6 acceptor
3 5 6 22 anion
5 7 8 9 10 11 rings
8 1 9 10 13 19 20 21 24 rings
8 7 8 12 14 15 16 17 18 rings

> <PUBCHEM_HEAVY_ATOM_COUNT>
25

> <PUBCHEM_ATOM_DEF_STEREO_COUNT>
6

> <PUBCHEM_ATOM_UDEF_STEREO_COUNT>
2

> <PUBCHEM_BOND_DEF_STEREO_COUNT>
0

> <PUBCHEM_BOND_UDEF_STEREO_COUNT>
0

> <PUBCHEM_ISOTOPIC_ATOM_COUNT>
0

> <PUBCHEM_COMPONENT_COUNT>
1

> <PUBCHEM_CACTVS_TAUTO_COUNT>
2

> <PUBCHEM_CONFORMER_ID>
061478C500000001

> <PUBCHEM_MMFF94_ENERGY>
96.8779

> <PUBCHEM_FEATURE_SELFOVERLAP>
56.062

> <PUBCHEM_SHAPE_FINGERPRINT>
10366900 7 18411981347709317594
104564 63 18340775844865346348
10863032 1 17240764033734942354
10906281 52 18337402564375976749
11132069 177 18060129934302591462
11578080 2 17702638039040950969
12011746 2 18201720643369870116
12293681 4 18334863814309120833
12403814 3 18342174419096730692
12422481 6 17837511660766951313
12507560 18 17895464843928372273
12553582 1 18412266146742834152
12788726 201 18336543798771797584
13140716 1 18410857663646923098
13224815 77 18413390951538537294
13965767 371 17486514606359497155
14223421 5 18336552616713708672
14787075 74 17536615245638696098
14955137 171 17911834501717763592
16752209 62 18117265974224661040
16945 1 17561358508954322463
17349148 13 18130783499373769983
19868273 325 18343020029638335612
20600515 1 17749112170922157870
20691752 17 18265914470216661039
21197605 99 17765458465103257865
21285901 2 18269551637775801645
2334 1 18343024393277707111
23402539 116 18408878530021882750
23419403 2 17681275791144409843
23558518 356 17977386036351338424
23559900 14 17676482848719392242
238 59 17831568044019098991
2748010 2 17622733020378062252
296302 2 17748544857345474894
3286 77 17131539557827741394
34934 24 18410011052599737468
350125 39 17769106648313487892
5845 1 18201168671400420877
6992083 37 18131074835510703551
70251023 43 18126849287640136823
81228 2 18192436277069984232
90316 7 18341321198221627120

> <PUBCHEM_SHAPE_MULTIPOLES>
479.27
6.56
2.64
1.64
2.29
2.1
0.48
-1.27
-0.02
-0.14
-0.32
-0.68
-0.49
-0.59

> <PUBCHEM_SHAPE_SELFOVERLAP>
1084.672

> <PUBCHEM_SHAPE_VOLUME>
254.7

> <PUBCHEM_COORDINATE_TYPE>
2
5
10

$$$$
