102059896
  -OEChem-03292013293D

 55 60  0     1  0  0  0  0  0999 V2000
    1.0093    1.7126    2.2962 S   0  0  0  0  0  0  0  0  0  0  0  0
   -0.7148    0.6094    2.3008 S   0  0  0  0  0  0  0  0  0  0  0  0
    5.7781    0.3560    0.8608 O   0  0  0  0  0  0  0  0  0  0  0  0
    2.6330   -1.3908    1.1481 O   0  0  0  0  0  0  0  0  0  0  0  0
    4.1212   -3.2469   -0.7720 O   0  0  0  0  0  0  0  0  0  0  0  0
    2.3440    2.7888   -0.5998 O   0  0  0  0  0  0  0  0  0  0  0  0
    0.3048   -2.0787   -0.0949 O   0  0  0  0  0  0  0  0  0  0  0  0
   -3.5987    2.3233   -0.1050 O   0  0  0  0  0  0  0  0  0  0  0  0
   -6.0909    1.1841   -0.4102 O   0  0  0  0  0  0  0  0  0  0  0  0
   -6.4095   -1.5457   -0.0754 O   0  0  0  0  0  0  0  0  0  0  0  0
    1.7501   -0.4260    0.6270 N   0  0  0  0  0  0  0  0  0  0  0  0
    0.6239    1.2802   -1.0254 N   0  0  0  0  0  0  0  0  0  0  0  0
    4.3744    0.2028    0.5825 C   0  0  1  0  0  0  0  0  0  0  0  0
    5.3501    0.7282   -0.4542 C   0  0  2  0  0  0  0  0  0  0  0  0
    3.9288   -1.2402    0.5238 C   0  0  2  0  0  0  0  0  0  0  0  0
    3.5144    1.1308    1.3916 C   0  0  0  0  0  0  0  0  0  0  0  0
    2.0420    0.9683    0.9696 C   0  0  2  0  0  0  0  0  0  0  0  0
    3.9092   -1.8375   -0.9029 C   0  0  1  0  0  0  0  0  0  0  0  0
    5.5782   -0.1222   -1.6224 C   0  0  0  0  0  0  0  0  0  0  0  0
    4.9388   -1.2787   -1.8469 C   0  0  0  0  0  0  0  0  0  0  0  0
    1.7291    1.7622   -0.3070 C   0  0  0  0  0  0  0  0  0  0  0  0
   -0.2737    0.2338   -0.4894 C   0  0  1  0  0  0  0  0  0  0  0  0
    0.6243   -0.8965   -0.0010 C   0  0  0  0  0  0  0  0  0  0  0  0
   -1.2763    0.7889    0.5584 C   0  0  1  0  0  0  0  0  0  0  0  0
    0.2002    1.9523   -2.2460 C   0  0  0  0  0  0  0  0  0  0  0  0
   -2.6609    0.1791    0.3845 C   0  0  0  0  0  0  0  0  0  0  0  0
   -3.7570    0.9788    0.0609 C   0  0  0  0  0  0  0  0  0  0  0  0
   -2.8261   -1.1958    0.5528 C   0  0  0  0  0  0  0  0  0  0  0  0
   -5.0182    0.4038   -0.0942 C   0  0  0  0  0  0  0  0  0  0  0  0
   -4.0873   -1.7709    0.3976 C   0  0  0  0  0  0  0  0  0  0  0  0
   -5.1835   -0.9710    0.0739 C   0  0  0  0  0  0  0  0  0  0  0  0
   -6.3660    1.3746   -1.7961 C   0  0  0  0  0  0  0  0  0  0  0  0
   -6.4909   -2.9571    0.1141 C   0  0  0  0  0  0  0  0  0  0  0  0
    5.3275    1.7888   -0.6776 H   0  0  0  0  0  0  0  0  0  0  0  0
    4.6058   -1.8351    1.1508 H   0  0  0  0  0  0  0  0  0  0  0  0
    3.8583    2.1687    1.3022 H   0  0  0  0  0  0  0  0  0  0  0  0
    3.6466    0.8448    2.4447 H   0  0  0  0  0  0  0  0  0  0  0  0
    2.9255   -1.7171   -1.3677 H   0  0  0  0  0  0  0  0  0  0  0  0
    6.3037    0.2234   -2.3531 H   0  0  0  0  0  0  0  0  0  0  0  0
    5.1495   -1.8284   -2.7601 H   0  0  0  0  0  0  0  0  0  0  0  0
   -0.8122   -0.1629   -1.3611 H   0  0  0  0  0  0  0  0  0  0  0  0
   -1.3626    1.8702    0.4036 H   0  0  0  0  0  0  0  0  0  0  0  0
    4.0427   -3.6430   -1.6569 H   0  0  0  0  0  0  0  0  0  0  0  0
    0.0693    1.2061   -3.0347 H   0  0  0  0  0  0  0  0  0  0  0  0
   -0.7499    2.4599   -2.0567 H   0  0  0  0  0  0  0  0  0  0  0  0
    0.9385    2.6882   -2.5742 H   0  0  0  0  0  0  0  0  0  0  0  0
   -1.9981   -1.8410    0.8241 H   0  0  0  0  0  0  0  0  0  0  0  0
   -4.1413   -2.8436    0.5476 H   0  0  0  0  0  0  0  0  0  0  0  0
   -4.4695    2.7201   -0.2786 H   0  0  0  0  0  0  0  0  0  0  0  0
   -7.2217    2.0494   -1.8857 H   0  0  0  0  0  0  0  0  0  0  0  0
   -6.6214    0.4218   -2.2705 H   0  0  0  0  0  0  0  0  0  0  0  0
   -5.5091    1.8278   -2.3048 H   0  0  0  0  0  0  0  0  0  0  0  0
   -7.5360   -3.2434   -0.0436 H   0  0  0  0  0  0  0  0  0  0  0  0
   -6.2350   -3.2420    1.1404 H   0  0  0  0  0  0  0  0  0  0  0  0
   -5.8974   -3.4992   -0.6300 H   0  0  0  0  0  0  0  0  0  0  0  0
  1  2  1  0  0  0  0
  1 17  1  0  0  0  0
  2 24  1  0  0  0  0
  3 13  1  0  0  0  0
  3 14  1  0  0  0  0
  4 11  1  0  0  0  0
  4 15  1  0  0  0  0
  5 18  1  0  0  0  0
  5 43  1  0  0  0  0
  6 21  2  0  0  0  0
  7 23  2  0  0  0  0
  8 27  1  0  0  0  0
  8 49  1  0  0  0  0
  9 29  1  0  0  0  0
  9 32  1  0  0  0  0
 10 31  1  0  0  0  0
 10 33  1  0  0  0  0
 11 17  1  0  0  0  0
 11 23  1  0  0  0  0
 12 21  1  0  0  0  0
 12 22  1  0  0  0  0
 12 25  1  0  0  0  0
 13 14  1  0  0  0  0
 13 15  1  0  0  0  0
 13 16  1  0  0  0  0
 14 19  1  0  0  0  0
 14 34  1  0  0  0  0
 15 18  1  0  0  0  0
 15 35  1  0  0  0  0
 16 17  1  0  0  0  0
 16 36  1  0  0  0  0
 16 37  1  0  0  0  0
 17 21  1  0  0  0  0
 18 20  1  0  0  0  0
 18 38  1  0  0  0  0
 19 20  2  0  0  0  0
 19 39  1  0  0  0  0
 20 40  1  0  0  0  0
 22 23  1  0  0  0  0
 22 24  1  0  0  0  0
 22 41  1  0  0  0  0
 24 26  1  0  0  0  0
 24 42  1  0  0  0  0
 25 44  1  0  0  0  0
 25 45  1  0  0  0  0
 25 46  1  0  0  0  0
 26 27  2  0  0  0  0
 26 28  1  0  0  0  0
 27 29  1  0  0  0  0
 28 30  2  0  0  0  0
 28 47  1  0  0  0  0
 29 31  2  0  0  0  0
 30 31  1  0  0  0  0
 30 48  1  0  0  0  0
 32 50  1  0  0  0  0
 32 51  1  0  0  0  0
 32 52  1  0  0  0  0
 33 53  1  0  0  0  0
 33 54  1  0  0  0  0
 33 55  1  0  0  0  0
M  END
> <PUBCHEM_COMPOUND_CID>
102059896

> <PUBCHEM_CONFORMER_RMSD>
0.8

> <PUBCHEM_CONFORMER_DIVERSEORDER>
1
14
15
11
8
12
9
4
13
6
5
2
3
7
10

> <PUBCHEM_MMFF94_PARTIAL_CHARGES>
40
1 -0.23
10 -0.36
11 -0.32
12 -0.66
13 -0.04
14 0.09
15 0.38
16 0.09
17 0.59
18 0.42
19 -0.19
2 -0.23
20 -0.29
21 0.57
22 0.36
23 0.57
24 0.37
25 0.3
26 -0.14
27 0.08
28 -0.15
29 0.08
3 -0.3
30 -0.15
31 0.08
32 0.28
33 0.28
34 0.1
39 0.15
4 -0.32
40 0.15
43 0.4
47 0.15
48 0.15
49 0.45
5 -0.68
6 -0.57
7 -0.57
8 -0.53
9 -0.36

> <PUBCHEM_EFFECTIVE_ROTOR_COUNT>
4.6

> <PUBCHEM_PHARMACOPHORE_FEATURES>
12
1 10 acceptor
1 3 acceptor
1 5 acceptor
1 5 donor
1 6 acceptor
1 7 acceptor
1 8 donor
1 9 acceptor
6 26 27 28 29 30 31 rings
6 4 11 13 15 16 17 rings
7 3 13 14 15 18 19 20 rings
9 1 2 11 12 17 21 22 23 24 rings

> <PUBCHEM_HEAVY_ATOM_COUNT>
33

> <PUBCHEM_ATOM_DEF_STEREO_COUNT>
7

> <PUBCHEM_ATOM_UDEF_STEREO_COUNT>
0

> <PUBCHEM_BOND_DEF_STEREO_COUNT>
0

> <PUBCHEM_BOND_UDEF_STEREO_COUNT>
0

> <PUBCHEM_ISOTOPIC_ATOM_COUNT>
0

> <PUBCHEM_COMPONENT_COUNT>
1

> <PUBCHEM_CACTVS_TAUTO_COUNT>
2

> <PUBCHEM_CONFORMER_ID>
06154F7800000001

> <PUBCHEM_MMFF94_ENERGY>
127.6885

> <PUBCHEM_FEATURE_SELFOVERLAP>
60.988

> <PUBCHEM_SHAPE_FINGERPRINT>
10673678 19 18194406813146794468
10906281 52 17241343386010321981
11135609 12 18115326582391096851
117089 54 16985773917517096710
11796584 16 18413103966055619083
12166972 35 18202289138389925201
12236239 1 16805600361139114017
12516196 113 17989487428708845288
12616971 3 15769496534371999241
12788726 201 17168419351124922708
131258 43 17631193947765763076
13583140 156 17632005459348454113
13782708 43 18130505323090249959
15183329 4 18334014969504330237
15664445 248 18187374246633460796
15788980 27 16272209674060933369
1601671 61 18259704489010101868
17349148 13 15410895167110225545
18681886 176 18335697312246619185
20567600 75 18131635560354762653
21033648 29 18130490999068246369
21033650 10 17024885753560700108
21267235 1 18335144245635262707
21285901 2 18187367584769692246
21641784 216 15719677545857059246
22393880 68 18409164420314865267
23559900 14 18411693297254019969
24771293 8 18041281066861557428
25222932 49 17129854165585014599
25269216 80 17677347111966671595
34797466 226 18272660090265148932
350125 39 18411138052376670249
46194498 28 18335703904979181428
465052 167 16845300432041823020
59755656 215 18412542098338926231
6669772 16 17415831655528768440

> <PUBCHEM_SHAPE_MULTIPOLES>
629.91
15.32
2.7
1.77
13.52
1.05
-0.03
5.68
-4.42
0.65
-0.38
-0.93
-0.84
1.78

> <PUBCHEM_SHAPE_SELFOVERLAP>
1359.82

> <PUBCHEM_SHAPE_VOLUME>
347.6

> <PUBCHEM_COORDINATE_TYPE>
2
5
10

$$$$
