102004627
  -OEChem-03292013293D

 59 61  0     1  0  0  0  0  0999 V2000
   -1.3368    1.4061    0.9316 O   0  0  0  0  0  0  0  0  0  0  0  0
   -2.6867    3.1446    0.2013 O   0  0  0  0  0  0  0  0  0  0  0  0
   -3.3245   -1.4205   -0.0111 O   0  0  0  0  0  0  0  0  0  0  0  0
    2.7130    2.4755   -0.6915 O   0  0  0  0  0  0  0  0  0  0  0  0
    1.7659   -1.2141   -0.3984 O   0  0  0  0  0  0  0  0  0  0  0  0
    4.7532    2.4138    0.3474 O   0  0  0  0  0  0  0  0  0  0  0  0
   -5.5689   -1.0361    0.3791 O   0  0  0  0  0  0  0  0  0  0  0  0
    1.5285   -3.1574    0.8210 O   0  0  0  0  0  0  0  0  0  0  0  0
   -1.5802   -0.0012    1.0064 C   0  0  1  0  0  0  0  0  0  0  0  0
   -2.0175    1.9527   -0.2066 C   0  0  1  0  0  0  0  0  0  0  0  0
   -3.0041   -0.1271    0.4570 C   0  0  1  0  0  0  0  0  0  0  0  0
   -0.9967    2.2849   -1.3313 C   0  0  2  0  0  0  0  0  0  0  0  0
   -3.0333    0.8940   -0.6657 C   0  0  0  0  0  0  0  0  0  0  0  0
   -0.5145   -0.7429    0.1683 C   0  0  0  0  0  0  0  0  0  0  0  0
    1.4625    0.9478    0.6610 C   0  0  2  0  0  0  0  0  0  0  0  0
    0.9603   -0.5162    0.5618 C   0  0  2  0  0  0  0  0  0  0  0  0
    1.4587    1.7469   -0.6531 C   0  0  1  0  0  0  0  0  0  0  0  0
    0.3554    2.8217   -0.8089 C   0  0  0  0  0  0  0  0  0  0  0  0
   -1.5173   -0.4266    2.4738 C   0  0  0  0  0  0  0  0  0  0  0  0
   -1.5979    3.2642   -2.3521 C   0  0  0  0  0  0  0  0  0  0  0  0
    2.9059    1.0415    1.0615 C   0  0  0  0  0  0  0  0  0  0  0  0
    3.6019    2.0341    0.2316 C   0  0  0  0  0  0  0  0  0  0  0  0
    3.5630    0.3777    2.0181 C   0  0  0  0  0  0  0  0  0  0  0  0
   -4.6544   -1.7560    0.0013 C   0  0  0  0  0  0  0  0  0  0  0  0
    1.9684   -2.5384   -0.1390 C   0  0  0  0  0  0  0  0  0  0  0  0
    2.8431   -3.1342   -1.2281 C   0  0  0  0  0  0  0  0  0  0  0  0
   -4.8429   -3.1487   -0.5190 C   0  0  0  0  0  0  0  0  0  0  0  0
    2.4846   -4.5983   -1.4698 C   0  0  0  0  0  0  0  0  0  0  0  0
    4.3113   -2.9878   -0.8465 C   0  0  0  0  0  0  0  0  0  0  0  0
   -3.7086    0.1992    1.2355 H   0  0  0  0  0  0  0  0  0  0  0  0
   -0.7722    1.3719   -1.8939 H   0  0  0  0  0  0  0  0  0  0  0  0
   -2.7484    0.4203   -1.6126 H   0  0  0  0  0  0  0  0  0  0  0  0
   -4.0397    1.2998   -0.8167 H   0  0  0  0  0  0  0  0  0  0  0  0
   -0.6165   -0.5017   -0.8945 H   0  0  0  0  0  0  0  0  0  0  0  0
   -0.7234   -1.8203    0.2149 H   0  0  0  0  0  0  0  0  0  0  0  0
    0.9087    1.4864    1.4366 H   0  0  0  0  0  0  0  0  0  0  0  0
    1.1056   -0.9653    1.5526 H   0  0  0  0  0  0  0  0  0  0  0  0
    1.4649    1.0937   -1.5335 H   0  0  0  0  0  0  0  0  0  0  0  0
    0.7357    3.5660   -1.5228 H   0  0  0  0  0  0  0  0  0  0  0  0
    0.2285    3.3806    0.1268 H   0  0  0  0  0  0  0  0  0  0  0  0
   -2.2692    0.1060    3.0678 H   0  0  0  0  0  0  0  0  0  0  0  0
   -0.5533   -0.1715    2.9260 H   0  0  0  0  0  0  0  0  0  0  0  0
   -1.6874   -1.5019    2.5870 H   0  0  0  0  0  0  0  0  0  0  0  0
   -1.7474    4.2587   -1.9186 H   0  0  0  0  0  0  0  0  0  0  0  0
   -2.5611    2.9022   -2.7262 H   0  0  0  0  0  0  0  0  0  0  0  0
   -0.9316    3.3753   -3.2148 H   0  0  0  0  0  0  0  0  0  0  0  0
   -3.5196    2.8913    0.6330 H   0  0  0  0  0  0  0  0  0  0  0  0
    3.0583   -0.3481    2.6461 H   0  0  0  0  0  0  0  0  0  0  0  0
    4.6185    0.5414    2.2085 H   0  0  0  0  0  0  0  0  0  0  0  0
    2.6502   -2.5890   -2.1605 H   0  0  0  0  0  0  0  0  0  0  0  0
   -5.9068   -3.4019   -0.5021 H   0  0  0  0  0  0  0  0  0  0  0  0
   -4.3057   -3.8567    0.1169 H   0  0  0  0  0  0  0  0  0  0  0  0
   -4.4861   -3.2095   -1.5501 H   0  0  0  0  0  0  0  0  0  0  0  0
    2.6766   -5.2104   -0.5816 H   0  0  0  0  0  0  0  0  0  0  0  0
    3.0692   -5.0104   -2.2989 H   0  0  0  0  0  0  0  0  0  0  0  0
    4.5340   -3.5152    0.0878 H   0  0  0  0  0  0  0  0  0  0  0  0
    4.5712   -1.9340   -0.6971 H   0  0  0  0  0  0  0  0  0  0  0  0
    4.9617   -3.3892   -1.6303 H   0  0  0  0  0  0  0  0  0  0  0  0
    1.4227   -4.7014   -1.7183 H   0  0  0  0  0  0  0  0  0  0  0  0
  1  9  1  0  0  0  0
  1 10  1  0  0  0  0
  2 10  1  0  0  0  0
  2 47  1  0  0  0  0
  3 11  1  0  0  0  0
  3 24  1  0  0  0  0
  4 17  1  0  0  0  0
  4 22  1  0  0  0  0
  5 16  1  0  0  0  0
  5 25  1  0  0  0  0
  6 22  2  0  0  0  0
  7 24  2  0  0  0  0
  8 25  2  0  0  0  0
  9 11  1  0  0  0  0
  9 14  1  0  0  0  0
  9 19  1  0  0  0  0
 10 12  1  0  0  0  0
 10 13  1  0  0  0  0
 11 13  1  0  0  0  0
 11 30  1  0  0  0  0
 12 18  1  0  0  0  0
 12 20  1  0  0  0  0
 12 31  1  0  0  0  0
 13 32  1  0  0  0  0
 13 33  1  0  0  0  0
 14 16  1  0  0  0  0
 14 34  1  0  0  0  0
 14 35  1  0  0  0  0
 15 16  1  0  0  0  0
 15 17  1  0  0  0  0
 15 21  1  0  0  0  0
 15 36  1  0  0  0  0
 16 37  1  0  0  0  0
 17 18  1  0  0  0  0
 17 38  1  0  0  0  0
 18 39  1  0  0  0  0
 18 40  1  0  0  0  0
 19 41  1  0  0  0  0
 19 42  1  0  0  0  0
 19 43  1  0  0  0  0
 20 44  1  0  0  0  0
 20 45  1  0  0  0  0
 20 46  1  0  0  0  0
 21 22  1  0  0  0  0
 21 23  2  0  0  0  0
 23 48  1  0  0  0  0
 23 49  1  0  0  0  0
 24 27  1  0  0  0  0
 25 26  1  0  0  0  0
 26 28  1  0  0  0  0
 26 29  1  0  0  0  0
 26 50  1  0  0  0  0
 27 51  1  0  0  0  0
 27 52  1  0  0  0  0
 27 53  1  0  0  0  0
 28 54  1  0  0  0  0
 28 55  1  0  0  0  0
 28 59  1  0  0  0  0
 29 56  1  0  0  0  0
 29 57  1  0  0  0  0
 29 58  1  0  0  0  0
M  END
> <PUBCHEM_COMPOUND_CID>
102004627

> <PUBCHEM_CONFORMER_RMSD>
0.8

> <PUBCHEM_CONFORMER_DIVERSEORDER>
1
46
28
25
12
60
45
18
30
73
21
51
62
49
76
42
10
43
53
54
17
78
74
41
15
20
52
34
40
65
72
63
27
58
24
35
22
38
70
6
9
77
37
44
59
23
68
55
5
7
66
16
79
61
36
33
31
8
71
80
13
64
81
29
57
75
3
4
19
26
48
14
69
32
11
39
67
2
47
56
50

> <PUBCHEM_MMFF94_PARTIAL_CHARGES>
24
1 -0.56
10 0.56
11 0.28
15 0.14
16 0.28
17 0.28
2 -0.68
21 -0.12
22 0.71
23 -0.3
24 0.66
25 0.66
26 0.06
27 0.06
3 -0.43
4 -0.43
47 0.4
48 0.15
49 0.15
5 -0.43
6 -0.57
7 -0.57
8 -0.57
9 0.28

> <PUBCHEM_EFFECTIVE_ROTOR_COUNT>
6.6

> <PUBCHEM_PHARMACOPHORE_FEATURES>
9
1 1 acceptor
1 2 acceptor
1 2 donor
1 6 acceptor
1 7 acceptor
1 8 acceptor
3 26 28 29 hydrophobe
5 1 9 10 11 13 rings
5 4 15 17 21 22 rings

> <PUBCHEM_HEAVY_ATOM_COUNT>
29

> <PUBCHEM_ATOM_DEF_STEREO_COUNT>
5

> <PUBCHEM_ATOM_UDEF_STEREO_COUNT>
2

> <PUBCHEM_BOND_DEF_STEREO_COUNT>
0

> <PUBCHEM_BOND_UDEF_STEREO_COUNT>
0

> <PUBCHEM_ISOTOPIC_ATOM_COUNT>
0

> <PUBCHEM_COMPONENT_COUNT>
1

> <PUBCHEM_CACTVS_TAUTO_COUNT>
4

> <PUBCHEM_CONFORMER_ID>
0614779300000001

> <PUBCHEM_MMFF94_ENERGY>
86.5862

> <PUBCHEM_FEATURE_SELFOVERLAP>
45.72

> <PUBCHEM_SHAPE_FINGERPRINT>
10906281 52 17896332465966787937
11578080 2 18200592480173823624
11963148 33 18123178275860504075
12839892 36 18268975635332403754
13140716 1 17904198479288443377
13149001 5 17904476303579934108
13583140 156 17274523369940105856
14863182 85 18268155438101811318
15219462 58 17702928284783952657
16728300 4 17680669784507785432
17349148 13 18114738351838086737
18681886 176 18122058977671109080
1979834 28 18267870656364195259
20028762 73 18054789752176160398
20600515 1 16950563341425725287
20691752 17 18113914739981614305
20775438 99 17832102140735407599
20775530 9 18341329990162308055
21285901 2 18187355563103385573
21315764 371 17557990816370607155
22113638 7 17758110780089592069
22182313 1 18266162951180588316
2260408 40 18122374460588812035
23402539 116 18042391594995557513
23557571 272 18333724715587943457
23559900 14 18269265781673881571
25222932 49 17170675759591153907
3380486 145 17835826108993307282
350125 39 18342181037752350546
4280585 95 18049717417812867362
463206 1 18122905597413834047
469060 322 17910642656735190237
57527452 28 17771356545293319423
57527585 103 17314534667231818089
59755656 215 18341336681837029614
6287921 2 18411427184710318349
70251023 43 18337684009762995227
7399639 24 18341882035124770880
9709674 26 18266447724855985485

> <PUBCHEM_SHAPE_MULTIPOLES>
549.85
8.6
5.28
1.66
4.04
3
0.2
5.09
0.09
-2.58
-3.07
-0.27
-0.34
2.13

> <PUBCHEM_SHAPE_SELFOVERLAP>
1150.095

> <PUBCHEM_SHAPE_VOLUME>
310.4

> <PUBCHEM_COORDINATE_TYPE>
2
5
10

$$$$
