102019659
  -OEChem-03292013293D

 65 71  0     1  0  0  0  0  0999 V2000
   -1.0441    1.5812    1.6697 O   0  0  0  0  0  0  0  0  0  0  0  0
   -3.3651    1.8946    1.2251 O   0  0  0  0  0  0  0  0  0  0  0  0
   -1.7116    3.2698   -0.4443 O   0  0  0  0  0  0  0  0  0  0  0  0
   -2.9037   -2.3607    1.8448 O   0  0  0  0  0  0  0  0  0  0  0  0
    3.4381    1.4333   -0.2645 O   0  0  0  0  0  0  0  0  0  0  0  0
   -2.3887    2.0875   -2.7568 O   0  0  0  0  0  0  0  0  0  0  0  0
   -2.8304   -4.2455    0.5923 O   0  0  0  0  0  0  0  0  0  0  0  0
    3.2010    3.6443    0.0523 O   0  0  0  0  0  0  0  0  0  0  0  0
    5.8707   -1.8086   -1.3214 O   0  0  0  0  0  0  0  0  0  0  0  0
   -2.1806   -0.3024    0.7330 C   0  0  1  0  0  0  0  0  0  0  0  0
   -0.0398    0.8192    0.9534 C   0  0  1  0  0  0  0  0  0  0  0  0
   -0.6750   -0.5679    1.1125 C   0  0  2  0  0  0  0  0  0  0  0  0
   -2.1766    1.2654    0.8067 C   0  0  2  0  0  0  0  0  0  0  0  0
   -1.6597    1.8490   -0.4995 C   0  0  2  0  0  0  0  0  0  0  0  0
   -0.1964    1.3879   -0.4796 C   0  0  0  0  0  0  0  0  0  0  0  0
   -2.5855   -0.8983   -0.6591 C   0  0  2  0  0  0  0  0  0  0  0  0
    1.3464    0.8602    1.6302 C   0  0  1  0  0  0  0  0  0  0  0  0
    2.3102   -0.2791    1.1698 C   0  0  1  0  0  0  0  0  0  0  0  0
    0.1943   -1.6399    0.4679 C   0  0  0  0  0  0  0  0  0  0  0  0
   -3.2454    0.1077   -1.6580 C   0  0  0  0  0  0  0  0  0  0  0  0
   -3.0788   -0.9331    1.8159 C   0  0  0  0  0  0  0  0  0  0  0  0
    1.5642   -1.6499    1.1633 C   0  0  0  0  0  0  0  0  0  0  0  0
   -2.4183    1.3990   -1.7324 C   0  0  0  0  0  0  0  0  0  0  0  0
   -3.4191   -2.1903   -0.5042 C   0  0  0  0  0  0  0  0  0  0  0  0
    2.0170    2.2307    1.5602 C   0  0  0  0  0  0  0  0  0  0  0  0
    2.8675    0.0992   -0.2307 C   0  0  2  0  0  0  0  0  0  0  0  0
    3.4608   -0.3973    2.2047 C   0  0  0  0  0  0  0  0  0  0  0  0
   -3.2555   -0.5072   -3.0800 C   0  0  0  0  0  0  0  0  0  0  0  0
   -4.6957    0.4842   -1.3096 C   0  0  0  0  0  0  0  0  0  0  0  0
   -3.0053   -3.0344    0.6716 C   0  0  0  0  0  0  0  0  0  0  0  0
    2.8987    2.4953    0.3692 C   0  0  0  0  0  0  0  0  0  0  0  0
    3.9008   -0.8463   -0.8259 C   0  0  0  0  0  0  0  0  0  0  0  0
    3.6567   -1.9448   -1.6843 C   0  0  0  0  0  0  0  0  0  0  0  0
    5.2625   -0.8058   -0.6353 C   0  0  0  0  0  0  0  0  0  0  0  0
    4.8866   -2.4972   -1.9570 C   0  0  0  0  0  0  0  0  0  0  0  0
   -0.6720   -0.7949    2.1917 H   0  0  0  0  0  0  0  0  0  0  0  0
    0.0127    0.6435   -1.2515 H   0  0  0  0  0  0  0  0  0  0  0  0
    0.4632    2.2421   -0.6521 H   0  0  0  0  0  0  0  0  0  0  0  0
   -1.6622   -1.2109   -1.1571 H   0  0  0  0  0  0  0  0  0  0  0  0
    1.1385    0.7037    2.7007 H   0  0  0  0  0  0  0  0  0  0  0  0
    0.3400   -1.4782   -0.6033 H   0  0  0  0  0  0  0  0  0  0  0  0
   -0.2652   -2.6259    0.5852 H   0  0  0  0  0  0  0  0  0  0  0  0
   -2.8211   -0.5559    2.8121 H   0  0  0  0  0  0  0  0  0  0  0  0
   -4.1409   -0.7084    1.6629 H   0  0  0  0  0  0  0  0  0  0  0  0
    1.4037   -1.9686    2.2032 H   0  0  0  0  0  0  0  0  0  0  0  0
    2.1881   -2.4316    0.7164 H   0  0  0  0  0  0  0  0  0  0  0  0
   -3.3094   -2.8061   -1.4045 H   0  0  0  0  0  0  0  0  0  0  0  0
   -4.4882   -1.9891   -0.3830 H   0  0  0  0  0  0  0  0  0  0  0  0
    2.6577    2.3601    2.4417 H   0  0  0  0  0  0  0  0  0  0  0  0
    1.2593    3.0218    1.6049 H   0  0  0  0  0  0  0  0  0  0  0  0
    2.0552    0.1199   -0.9613 H   0  0  0  0  0  0  0  0  0  0  0  0
   -3.4047    2.7793    0.8252 H   0  0  0  0  0  0  0  0  0  0  0  0
    4.1196    0.4767    2.1955 H   0  0  0  0  0  0  0  0  0  0  0  0
    4.0812   -1.2792    2.0114 H   0  0  0  0  0  0  0  0  0  0  0  0
    3.0668   -0.5034    3.2221 H   0  0  0  0  0  0  0  0  0  0  0  0
   -1.2395    3.6176   -1.2202 H   0  0  0  0  0  0  0  0  0  0  0  0
   -2.2389   -0.7425   -3.4159 H   0  0  0  0  0  0  0  0  0  0  0  0
   -4.8352    0.6805   -0.2457 H   0  0  0  0  0  0  0  0  0  0  0  0
   -5.0121    1.3853   -1.8483 H   0  0  0  0  0  0  0  0  0  0  0  0
   -3.6863    0.1850   -3.8136 H   0  0  0  0  0  0  0  0  0  0  0  0
   -5.3964   -0.3130   -1.5813 H   0  0  0  0  0  0  0  0  0  0  0  0
   -3.8496   -1.4254   -3.1254 H   0  0  0  0  0  0  0  0  0  0  0  0
    2.7049   -2.2934   -2.0590 H   0  0  0  0  0  0  0  0  0  0  0  0
    5.9219   -0.1625   -0.0705 H   0  0  0  0  0  0  0  0  0  0  0  0
    5.2134   -3.3369   -2.5526 H   0  0  0  0  0  0  0  0  0  0  0  0
  1 11  1  0  0  0  0
  1 13  1  0  0  0  0
  2 13  1  0  0  0  0
  2 52  1  0  0  0  0
  3 14  1  0  0  0  0
  3 56  1  0  0  0  0
  4 21  1  0  0  0  0
  4 30  1  0  0  0  0
  5 26  1  0  0  0  0
  5 31  1  0  0  0  0
  6 23  2  0  0  0  0
  7 30  2  0  0  0  0
  8 31  2  0  0  0  0
  9 34  1  0  0  0  0
  9 35  1  0  0  0  0
 10 12  1  0  0  0  0
 10 13  1  0  0  0  0
 10 16  1  0  0  0  0
 10 21  1  0  0  0  0
 11 12  1  0  0  0  0
 11 15  1  0  0  0  0
 11 17  1  0  0  0  0
 12 19  1  0  0  0  0
 12 36  1  0  0  0  0
 13 14  1  0  0  0  0
 14 15  1  0  0  0  0
 14 23  1  0  0  0  0
 15 37  1  0  0  0  0
 15 38  1  0  0  0  0
 16 20  1  0  0  0  0
 16 24  1  0  0  0  0
 16 39  1  0  0  0  0
 17 18  1  0  0  0  0
 17 25  1  0  0  0  0
 17 40  1  0  0  0  0
 18 22  1  0  0  0  0
 18 26  1  0  0  0  0
 18 27  1  0  0  0  0
 19 22  1  0  0  0  0
 19 41  1  0  0  0  0
 19 42  1  0  0  0  0
 20 23  1  0  0  0  0
 20 28  1  0  0  0  0
 20 29  1  0  0  0  0
 21 43  1  0  0  0  0
 21 44  1  0  0  0  0
 22 45  1  0  0  0  0
 22 46  1  0  0  0  0
 24 30  1  0  0  0  0
 24 47  1  0  0  0  0
 24 48  1  0  0  0  0
 25 31  1  0  0  0  0
 25 49  1  0  0  0  0
 25 50  1  0  0  0  0
 26 32  1  0  0  0  0
 26 51  1  0  0  0  0
 27 53  1  0  0  0  0
 27 54  1  0  0  0  0
 27 55  1  0  0  0  0
 28 57  1  0  0  0  0
 28 60  1  0  0  0  0
 28 62  1  0  0  0  0
 29 58  1  0  0  0  0
 29 59  1  0  0  0  0
 29 61  1  0  0  0  0
 32 33  1  0  0  0  0
 32 34  2  0  0  0  0
 33 35  2  0  0  0  0
 33 63  1  0  0  0  0
 34 64  1  0  0  0  0
 35 65  1  0  0  0  0
M  END
> <PUBCHEM_COMPOUND_CID>
102019659

> <PUBCHEM_CONFORMER_RMSD>
0.8

> <PUBCHEM_CONFORMER_DIVERSEORDER>
2
4
1
3
5

> <PUBCHEM_MMFF94_PARTIAL_CHARGES>
29
1 -0.56
11 0.28
13 0.56
14 0.34
2 -0.68
20 0.06
21 0.28
23 0.45
24 0.06
25 0.06
26 0.46
3 -0.68
30 0.66
31 0.66
32 -0.18
33 -0.15
34 -0.01
35 -0.01
4 -0.43
5 -0.43
52 0.4
56 0.4
6 -0.57
63 0.15
64 0.15
65 0.15
7 -0.57
8 -0.57
9 -0.28

> <PUBCHEM_EFFECTIVE_ROTOR_COUNT>
3.2

> <PUBCHEM_PHARMACOPHORE_FEATURES>
16
1 1 acceptor
1 2 acceptor
1 2 donor
1 3 acceptor
1 3 donor
1 6 acceptor
1 7 acceptor
1 8 acceptor
1 9 acceptor
3 20 28 29 hydrophobe
5 9 32 33 34 35 rings
6 10 13 14 16 20 23 rings
6 11 12 17 18 19 22 rings
6 4 10 16 21 24 30 rings
6 5 17 18 25 26 31 rings
7 1 10 11 12 13 14 15 rings

> <PUBCHEM_HEAVY_ATOM_COUNT>
35

> <PUBCHEM_ATOM_DEF_STEREO_COUNT>
8

> <PUBCHEM_ATOM_UDEF_STEREO_COUNT>
1

> <PUBCHEM_BOND_DEF_STEREO_COUNT>
0

> <PUBCHEM_BOND_UDEF_STEREO_COUNT>
0

> <PUBCHEM_ISOTOPIC_ATOM_COUNT>
0

> <PUBCHEM_COMPONENT_COUNT>
1

> <PUBCHEM_CACTVS_TAUTO_COUNT>
4

> <PUBCHEM_CONFORMER_ID>
0614B24B00000002

> <PUBCHEM_MMFF94_ENERGY>
149.9694

> <PUBCHEM_FEATURE_SELFOVERLAP>
81.942

> <PUBCHEM_SHAPE_FINGERPRINT>
10165383 225 17825688663345775929
10190108 129 17679617573265611467
10764073 3 17842030752483393331
11135609 12 18271811250182607122
11477941 20 17459493159293559494
11640471 11 14562521869137229688
12553582 1 18265613187061823504
12623949 98 17769685274682158414
131258 38 14900836383399574527
13224815 77 18334850662338499840
16945 1 18263350422064749889
17349148 13 18048282649010020730
1813 80 17679876078799231787
19315092 285 14762902391500541310
20764821 26 17773586303519926262
20775438 99 18050811629097287199
21033648 29 7925625549936252550
21344244 181 18340470249980354823
22182313 1 18262795310299900144
22393880 68 18113612413366157002
2260408 40 17543383860578675899
22907989 373 18113340799407310125
23557571 272 18115583906122876481
23559900 14 18413105091474168048
238 59 18268411564482182236
4280585 95 18339356350243141978
46194498 28 18411130355716466908
463206 1 17417799673709640750
469060 322 16733852859666848059
4921388 177 18338524049077427750
508706 21 18341050718524691982
613672 6 18200597987023614190
6287921 2 18120109508947189292
6669772 16 16913670419243099008
70251023 43 17988348334794441983
9709674 26 18412819205244232364

> <PUBCHEM_SHAPE_MULTIPOLES>
667.46
9.48
3.69
2.4
8.23
0.33
0.84
4.4
4.41
-0.19
-0.15
-0.95
0.34
2.61

> <PUBCHEM_SHAPE_SELFOVERLAP>
1503.907

> <PUBCHEM_SHAPE_VOLUME>
345.8

> <PUBCHEM_COORDINATE_TYPE>
2
5
10

$$$$
