102004571
  -OEChem-03292013293D

 60 62  0     1  0  0  0  0  0999 V2000
    4.8987    1.7025    0.7223 O   0  0  0  0  0  0  0  0  0  0  0  0
    1.6275    0.3093    0.3148 O   0  0  0  0  0  0  0  0  0  0  0  0
    0.1820   -3.4806   -0.3062 O   0  0  0  0  0  0  0  0  0  0  0  0
   -0.9730    1.9147   -1.5198 O   0  0  0  0  0  0  0  0  0  0  0  0
    2.6648    2.0374   -0.8198 O   0  0  0  0  0  0  0  0  0  0  0  0
    0.4457   -4.3791   -2.4123 O   0  0  0  0  0  0  0  0  0  0  0  0
   -3.8948    1.2573    0.4221 O   0  0  0  0  0  0  0  0  0  0  0  0
   -2.9438   -0.3632   -0.9304 O   0  0  0  0  0  0  0  0  0  0  0  0
   -1.1931    3.9853   -0.5129 O   0  0  0  0  0  0  0  0  0  0  0  0
    3.6331    1.1984    1.1706 C   0  0  2  0  0  0  0  0  0  0  0  0
    4.8336    0.2994    0.9910 C   0  0  1  0  0  0  0  0  0  0  0  0
    0.0668   -1.1813   -0.8399 C   0  0  2  0  0  0  0  0  0  0  0  0
    0.5859    0.2767   -0.6644 C   0  0  1  0  0  0  0  0  0  0  0  0
    0.4756   -2.1930    0.2450 C   0  0  1  0  0  0  0  0  0  0  0  0
    2.5985    1.2412    0.1059 C   0  0  0  0  0  0  0  0  0  0  0  0
    3.2605    1.6471    2.5433 C   0  0  0  0  0  0  0  0  0  0  0  0
   -0.4804    1.3602   -0.2943 C   0  0  2  0  0  0  0  0  0  0  0  0
    5.0383   -0.5667   -0.2009 C   0  0  0  0  0  0  0  0  0  0  0  0
    0.5377   -1.9884   -2.0139 C   0  0  0  0  0  0  0  0  0  0  0  0
   -0.1725   -1.9390    1.5718 C   0  0  0  0  0  0  0  0  0  0  0  0
   -1.6339    0.9063    0.5828 C   0  0  0  0  0  0  0  0  0  0  0  0
    0.4034   -3.4255   -1.6565 C   0  0  0  0  0  0  0  0  0  0  0  0
   -1.4494   -2.1111    1.9676 C   0  0  0  0  0  0  0  0  0  0  0  0
   -1.9065   -1.3609    3.2118 C   0  0  0  0  0  0  0  0  0  0  0  0
   -1.5111    0.7914    1.9203 C   0  0  0  0  0  0  0  0  0  0  0  0
   -2.4291    0.0613    2.8786 C   0  0  0  0  0  0  0  0  0  0  0  0
    1.0096   -1.6188   -3.2068 C   0  0  0  0  0  0  0  0  0  0  0  0
   -2.8876    0.5048   -0.0810 C   0  0  0  0  0  0  0  0  0  0  0  0
   -2.5227   -2.8277    1.2040 C   0  0  0  0  0  0  0  0  0  0  0  0
   -1.2877    3.2381   -1.4762 C   0  0  0  0  0  0  0  0  0  0  0  0
   -1.7885    3.7205   -2.7886 C   0  0  0  0  0  0  0  0  0  0  0  0
   -5.1876    0.9832   -0.1281 C   0  0  0  0  0  0  0  0  0  0  0  0
    5.3376   -0.0785    1.8710 H   0  0  0  0  0  0  0  0  0  0  0  0
   -1.0063   -1.1935   -0.9702 H   0  0  0  0  0  0  0  0  0  0  0  0
    1.0080    0.5817   -1.6289 H   0  0  0  0  0  0  0  0  0  0  0  0
    1.5631   -2.1843    0.4127 H   0  0  0  0  0  0  0  0  0  0  0  0
    4.1240    1.6707    3.2168 H   0  0  0  0  0  0  0  0  0  0  0  0
    2.5160    0.9710    2.9760 H   0  0  0  0  0  0  0  0  0  0  0  0
    2.8312    2.6539    2.5137 H   0  0  0  0  0  0  0  0  0  0  0  0
    0.0516    2.1508    0.2534 H   0  0  0  0  0  0  0  0  0  0  0  0
    4.7036   -0.0924   -1.1288 H   0  0  0  0  0  0  0  0  0  0  0  0
    4.4905   -1.5064   -0.0799 H   0  0  0  0  0  0  0  0  0  0  0  0
    6.1008   -0.8047   -0.3125 H   0  0  0  0  0  0  0  0  0  0  0  0
    0.4755   -1.3704    2.2412 H   0  0  0  0  0  0  0  0  0  0  0  0
   -2.6847   -1.9317    3.7326 H   0  0  0  0  0  0  0  0  0  0  0  0
   -1.0757   -1.2741    3.9251 H   0  0  0  0  0  0  0  0  0  0  0  0
   -2.5174    0.6441    3.8029 H   0  0  0  0  0  0  0  0  0  0  0  0
   -3.4441   -0.0268    2.4796 H   0  0  0  0  0  0  0  0  0  0  0  0
   -0.5698    1.1101    2.3684 H   0  0  0  0  0  0  0  0  0  0  0  0
    1.1008   -0.5756   -3.4855 H   0  0  0  0  0  0  0  0  0  0  0  0
    1.3116   -2.3503   -3.9492 H   0  0  0  0  0  0  0  0  0  0  0  0
   -2.2174   -3.1159    0.1965 H   0  0  0  0  0  0  0  0  0  0  0  0
   -3.4139   -2.2006    1.1039 H   0  0  0  0  0  0  0  0  0  0  0  0
   -2.8113   -3.7375    1.7404 H   0  0  0  0  0  0  0  0  0  0  0  0
   -1.0191    3.5824   -3.5525 H   0  0  0  0  0  0  0  0  0  0  0  0
   -2.0265    4.7864   -2.7255 H   0  0  0  0  0  0  0  0  0  0  0  0
   -2.6978    3.1779   -3.0596 H   0  0  0  0  0  0  0  0  0  0  0  0
   -5.9103    1.6447    0.3567 H   0  0  0  0  0  0  0  0  0  0  0  0
   -5.4717   -0.0545    0.0718 H   0  0  0  0  0  0  0  0  0  0  0  0
   -5.1918    1.1854   -1.2035 H   0  0  0  0  0  0  0  0  0  0  0  0
  1 10  1  0  0  0  0
  1 11  1  0  0  0  0
  2 13  1  0  0  0  0
  2 15  1  0  0  0  0
  3 14  1  0  0  0  0
  3 22  1  0  0  0  0
  4 17  1  0  0  0  0
  4 30  1  0  0  0  0
  5 15  2  0  0  0  0
  6 22  2  0  0  0  0
  7 28  1  0  0  0  0
  7 32  1  0  0  0  0
  8 28  2  0  0  0  0
  9 30  2  0  0  0  0
 10 11  1  0  0  0  0
 10 15  1  0  0  0  0
 10 16  1  0  0  0  0
 11 18  1  0  0  0  0
 11 33  1  0  0  0  0
 12 13  1  0  0  0  0
 12 14  1  0  0  0  0
 12 19  1  0  0  0  0
 12 34  1  0  0  0  0
 13 17  1  0  0  0  0
 13 35  1  0  0  0  0
 14 20  1  0  0  0  0
 14 36  1  0  0  0  0
 16 37  1  0  0  0  0
 16 38  1  0  0  0  0
 16 39  1  0  0  0  0
 17 21  1  0  0  0  0
 17 40  1  0  0  0  0
 18 41  1  0  0  0  0
 18 42  1  0  0  0  0
 18 43  1  0  0  0  0
 19 22  1  0  0  0  0
 19 27  2  0  0  0  0
 20 23  2  0  0  0  0
 20 44  1  0  0  0  0
 21 25  2  0  0  0  0
 21 28  1  0  0  0  0
 23 24  1  0  0  0  0
 23 29  1  0  0  0  0
 24 26  1  0  0  0  0
 24 45  1  0  0  0  0
 24 46  1  0  0  0  0
 25 26  1  0  0  0  0
 25 49  1  0  0  0  0
 26 47  1  0  0  0  0
 26 48  1  0  0  0  0
 27 50  1  0  0  0  0
 27 51  1  0  0  0  0
 29 52  1  0  0  0  0
 29 53  1  0  0  0  0
 29 54  1  0  0  0  0
 30 31  1  0  0  0  0
 31 55  1  0  0  0  0
 31 56  1  0  0  0  0
 31 57  1  0  0  0  0
 32 58  1  0  0  0  0
 32 59  1  0  0  0  0
 32 60  1  0  0  0  0
M  END
> <PUBCHEM_COMPOUND_CID>
102004571

> <PUBCHEM_CONFORMER_RMSD>
1

> <PUBCHEM_CONFORMER_DIVERSEORDER>
1
7
12
11
6
3
5
9
4
8
10
2

> <PUBCHEM_MMFF94_PARTIAL_CHARGES>
37
1 -0.3
10 0.05
11 -0.05
12 0.14
13 0.28
14 0.42
15 0.72
16 0.09
17 0.42
18 0.09
19 -0.12
2 -0.43
20 -0.29
21 -0.12
22 0.71
23 -0.28
24 0.14
25 -0.29
26 0.14
27 -0.3
28 0.71
29 0.14
3 -0.43
30 0.66
31 0.06
32 0.28
33 0.1
4 -0.43
44 0.15
49 0.15
5 -0.57
50 0.15
51 0.15
6 -0.57
7 -0.43
8 -0.57
9 -0.57

> <PUBCHEM_EFFECTIVE_ROTOR_COUNT>
8.6

> <PUBCHEM_PHARMACOPHORE_FEATURES>
6
1 1 acceptor
1 5 acceptor
1 6 acceptor
1 8 acceptor
1 9 acceptor
5 3 12 14 19 22 rings

> <PUBCHEM_HEAVY_ATOM_COUNT>
32

> <PUBCHEM_ATOM_DEF_STEREO_COUNT>
6

> <PUBCHEM_ATOM_UDEF_STEREO_COUNT>
0

> <PUBCHEM_BOND_DEF_STEREO_COUNT>
2

> <PUBCHEM_BOND_UDEF_STEREO_COUNT>
0

> <PUBCHEM_ISOTOPIC_ATOM_COUNT>
0

> <PUBCHEM_COMPONENT_COUNT>
1

> <PUBCHEM_CACTVS_TAUTO_COUNT>
2

> <PUBCHEM_CONFORMER_ID>
0614775B00000001

> <PUBCHEM_MMFF94_ENERGY>
87.2734

> <PUBCHEM_FEATURE_SELFOVERLAP>
30.455

> <PUBCHEM_SHAPE_FINGERPRINT>
10906281 52 18115324305800440861
12422481 6 18120962713270646747
12788726 201 17900225832461780972
13140716 1 17750235970616879504
133893 2 17557710161822281318
13681431 1 17192617227193027956
14856354 85 17679881572595036410
15840311 113 17768555811065381873
18915476 22 17983845697192598157
20600515 1 17531257170536396717
22182313 1 18045250213811840083
23419403 2 17768575725673145823
23598288 3 18047478013158039500
25222932 49 15735480104876746563
3380486 77 17761221315770538479
35225 105 18196062595641610896
376196 1 17903044795502543532
469060 322 17761471987652707138
57527452 28 17702941586545341543
57527573 199 17894631427110351873
59755656 215 18269835307169726076
70251023 43 17907595627359346051
81228 2 17765684173632771868

> <PUBCHEM_SHAPE_MULTIPOLES>
605.72
6.97
4.68
3.14
5.47
0.49
0.08
-3.85
-3.1
-1.54
3.38
-0.56
1.09
2.84

> <PUBCHEM_SHAPE_SELFOVERLAP>
1266.494

> <PUBCHEM_SHAPE_VOLUME>
341.6

> <PUBCHEM_COORDINATE_TYPE>
2
5
10

$$$$
