102004944
  -OEChem-03292013293D

 56 58  0     1  0  0  0  0  0999 V2000
   -3.1529   -0.0591   -1.8357 O   0  5  0  0  0  0  0  0  0  0  0  0
   -0.9690    1.1462   -0.1557 O   0  0  0  0  0  0  0  0  0  0  0  0
    0.3661   -1.2513   -0.1932 O   0  0  0  0  0  0  0  0  0  0  0  0
   -1.0832    3.1514    0.9965 O   0  0  0  0  0  0  0  0  0  0  0  0
    3.8167   -0.3971    0.2407 O   0  0  0  0  0  0  0  0  0  0  0  0
    2.1278   -1.1615   -1.6729 O   0  0  0  0  0  0  0  0  0  0  0  0
    3.9168   -2.6222   -0.3723 O   0  0  0  0  0  0  0  0  0  0  0  0
   -4.0555   -0.9227    0.3104 N   0  3  2  0  0  0  0  0  0  0  0  0
   -2.8258   -0.4274   -0.6107 C   0  0  2  0  0  0  0  0  0  0  0  0
   -3.8129   -0.2778    1.7036 C   0  0  0  0  0  0  0  0  0  0  0  0
   -2.3106    0.7850    0.2002 C   0  0  1  0  0  0  0  0  0  0  0  0
   -2.4187    0.3126    1.6418 C   0  0  0  0  0  0  0  0  0  0  0  0
   -3.8749   -2.4561    0.3470 C   0  0  0  0  0  0  0  0  0  0  0  0
   -1.9198   -1.6558   -0.6882 C   0  0  0  0  0  0  0  0  0  0  0  0
   -5.4485   -0.5572   -0.1808 C   0  0  0  0  0  0  0  0  0  0  0  0
   -2.5161   -2.7459   -0.1827 C   0  0  0  0  0  0  0  0  0  0  0  0
   -0.5286   -1.6599   -1.2398 C   0  0  0  0  0  0  0  0  0  0  0  0
   -0.5016    2.3398    0.2931 C   0  0  0  0  0  0  0  0  0  0  0  0
    2.4662   -0.5675    0.6710 C   0  0  2  0  0  0  0  0  0  0  0  0
    1.6630   -1.0246   -0.5484 C   0  0  0  0  0  0  0  0  0  0  0  0
    0.8437    2.5698   -0.2787 C   0  0  0  0  0  0  0  0  0  0  0  0
    1.9316    0.7846    1.2291 C   0  0  2  0  0  0  0  0  0  0  0  0
    1.9018    1.8614    0.1555 C   0  0  0  0  0  0  0  0  0  0  0  0
    2.4534   -1.6824    1.7241 C   0  0  0  0  0  0  0  0  0  0  0  0
    2.7680    1.3153    2.4020 C   0  0  0  0  0  0  0  0  0  0  0  0
    0.9713    3.5919   -1.2866 C   0  0  0  0  0  0  0  0  0  0  0  0
    4.4221   -1.5133   -0.2618 C   0  0  0  0  0  0  0  0  0  0  0  0
   -0.0570    4.3103   -1.7373 C   0  0  0  0  0  0  0  0  0  0  0  0
    5.8266   -1.1866   -0.6702 C   0  0  0  0  0  0  0  0  0  0  0  0
   -3.9387   -1.0256    2.4910 H   0  0  0  0  0  0  0  0  0  0  0  0
   -4.5579    0.5149    1.8365 H   0  0  0  0  0  0  0  0  0  0  0  0
   -2.9644    1.6585    0.0472 H   0  0  0  0  0  0  0  0  0  0  0  0
   -2.2930    1.1288    2.3598 H   0  0  0  0  0  0  0  0  0  0  0  0
   -1.6513   -0.4333    1.8795 H   0  0  0  0  0  0  0  0  0  0  0  0
   -4.6363   -2.9109   -0.2956 H   0  0  0  0  0  0  0  0  0  0  0  0
   -4.0095   -2.8066    1.3735 H   0  0  0  0  0  0  0  0  0  0  0  0
   -5.6212   -1.0320   -1.1508 H   0  0  0  0  0  0  0  0  0  0  0  0
   -6.1695   -0.9297    0.5529 H   0  0  0  0  0  0  0  0  0  0  0  0
   -5.5141    0.5314   -0.2651 H   0  0  0  0  0  0  0  0  0  0  0  0
   -2.0623   -3.7260   -0.1364 H   0  0  0  0  0  0  0  0  0  0  0  0
   -0.2430   -2.6673   -1.5648 H   0  0  0  0  0  0  0  0  0  0  0  0
   -0.4461   -0.9845   -2.0986 H   0  0  0  0  0  0  0  0  0  0  0  0
    0.9186    0.6191    1.6143 H   0  0  0  0  0  0  0  0  0  0  0  0
    2.8742    2.0788   -0.2887 H   0  0  0  0  0  0  0  0  0  0  0  0
    3.3533   -1.6670    2.3493 H   0  0  0  0  0  0  0  0  0  0  0  0
    2.3530   -2.6881    1.3029 H   0  0  0  0  0  0  0  0  0  0  0  0
    1.5866   -1.5711    2.3872 H   0  0  0  0  0  0  0  0  0  0  0  0
    3.8107    1.4898    2.1141 H   0  0  0  0  0  0  0  0  0  0  0  0
    2.7630    0.6115    3.2404 H   0  0  0  0  0  0  0  0  0  0  0  0
    2.3618    2.2636    2.7729 H   0  0  0  0  0  0  0  0  0  0  0  0
    1.9599    3.7873   -1.6939 H   0  0  0  0  0  0  0  0  0  0  0  0
    0.1149    5.0675   -2.4968 H   0  0  0  0  0  0  0  0  0  0  0  0
   -1.0811    4.1898   -1.4052 H   0  0  0  0  0  0  0  0  0  0  0  0
    5.8166   -0.4193   -1.4483 H   0  0  0  0  0  0  0  0  0  0  0  0
    6.3057   -2.0842   -1.0716 H   0  0  0  0  0  0  0  0  0  0  0  0
    6.3953   -0.8470    0.1990 H   0  0  0  0  0  0  0  0  0  0  0  0
  1  9  1  0  0  0  0
  2 11  1  0  0  0  0
  2 18  1  0  0  0  0
  3 17  1  0  0  0  0
  3 20  1  0  0  0  0
  4 18  2  0  0  0  0
  5 19  1  0  0  0  0
  5 27  1  0  0  0  0
  6 20  2  0  0  0  0
  7 27  2  0  0  0  0
  8  9  1  0  0  0  0
  8 10  1  0  0  0  0
  8 13  1  0  0  0  0
  8 15  1  0  0  0  0
  9 11  1  0  0  0  0
  9 14  1  0  0  0  0
 10 12  1  0  0  0  0
 10 30  1  0  0  0  0
 10 31  1  0  0  0  0
 11 12  1  0  0  0  0
 11 32  1  0  0  0  0
 12 33  1  0  0  0  0
 12 34  1  0  0  0  0
 13 16  1  0  0  0  0
 13 35  1  0  0  0  0
 13 36  1  0  0  0  0
 14 16  2  0  0  0  0
 14 17  1  0  0  0  0
 15 37  1  0  0  0  0
 15 38  1  0  0  0  0
 15 39  1  0  0  0  0
 16 40  1  0  0  0  0
 17 41  1  0  0  0  0
 17 42  1  0  0  0  0
 18 21  1  0  0  0  0
 19 20  1  0  0  0  0
 19 22  1  0  0  0  0
 19 24  1  0  0  0  0
 21 23  2  0  0  0  0
 21 26  1  0  0  0  0
 22 23  1  0  0  0  0
 22 25  1  0  0  0  0
 22 43  1  0  0  0  0
 23 44  1  0  0  0  0
 24 45  1  0  0  0  0
 24 46  1  0  0  0  0
 24 47  1  0  0  0  0
 25 48  1  0  0  0  0
 25 49  1  0  0  0  0
 25 50  1  0  0  0  0
 26 28  2  0  0  0  0
 26 51  1  0  0  0  0
 27 29  1  0  0  0  0
 28 52  1  0  0  0  0
 28 53  1  0  0  0  0
 29 54  1  0  0  0  0
 29 55  1  0  0  0  0
 29 56  1  0  0  0  0
M  CHG  2   1  -1   8   1
M  END
> <PUBCHEM_COMPOUND_CID>
102004944

> <PUBCHEM_CONFORMER_RMSD>
0.8

> <PUBCHEM_CONFORMER_DIVERSEORDER>
1
3
8
7
2
4
5
6

> <PUBCHEM_MMFF94_PARTIAL_CHARGES>
31
1 -0.93
10 0.5
11 0.28
13 0.64
14 -0.28
15 0.5
16 -0.29
17 0.42
18 0.71
19 0.34
2 -0.43
20 0.66
21 0.01
22 0.14
23 -0.29
26 -0.15
27 0.66
28 -0.3
29 0.06
3 -0.43
4 -0.57
40 0.15
44 0.15
5 -0.43
51 0.15
52 0.15
53 0.15
6 -0.57
7 -0.57
8 -1.01
9 0.57

> <PUBCHEM_EFFECTIVE_ROTOR_COUNT>
4.6

> <PUBCHEM_PHARMACOPHORE_FEATURES>
8
1 1 acceptor
1 28 hydrophobe
1 4 acceptor
1 6 acceptor
1 7 acceptor
1 8 cation
5 8 9 10 11 12 rings
5 8 9 13 14 16 rings

> <PUBCHEM_HEAVY_ATOM_COUNT>
29

> <PUBCHEM_ATOM_DEF_STEREO_COUNT>
4

> <PUBCHEM_ATOM_UDEF_STEREO_COUNT>
1

> <PUBCHEM_BOND_DEF_STEREO_COUNT>
1

> <PUBCHEM_BOND_UDEF_STEREO_COUNT>
0

> <PUBCHEM_ISOTOPIC_ATOM_COUNT>
0

> <PUBCHEM_COMPONENT_COUNT>
1

> <PUBCHEM_CACTVS_TAUTO_COUNT>
2

> <PUBCHEM_CONFORMER_ID>
061478D000000001

> <PUBCHEM_MMFF94_ENERGY>
93.2914

> <PUBCHEM_FEATURE_SELFOVERLAP>
41.1

> <PUBCHEM_SHAPE_FINGERPRINT>
10940486 97 18056762246457299630
11135609 187 17901396911267403996
11421498 54 17749673987405373250
11578080 2 17605818430144687959
11595378 159 18262503794454705090
12011746 2 18342736274023545223
12160290 23 17909239430932774396
12166972 35 18271802471522479431
12553582 1 18335975398377965338
12633257 1 15913328017607806979
12714826 92 17895186680207974975
12788726 201 17823690863391927968
13009979 54 18058465320647302218
13140716 1 18272657873998779291
13224815 77 18129093588413912715
133893 2 18119831324026203697
13583140 156 17967533510819725003
138480 1 14879469972967644484
14840074 17 17829587793977700144
17349148 13 17989202690179748087
17357779 13 18270664381949889820
17492 89 18123471845791771699
1813 80 18333446560484029816
20600515 1 18271260338647671084
20739085 24 18339360885232695308
21641784 216 18190480298193737060
21756936 100 15623097755124361368
22907989 373 18045211648942039972
23419403 2 14246335426264755901
23559900 14 18339922714041890483
23566358 27 18046359792378610067
2818148 4 18122647177309592574
35225 105 17754439167167018676
394222 165 16888619252666620320
4409770 3 17975972064524469924
513202 73 17975148543179776730
57091435 65 18124883609888619844
6287921 2 18054786449578223106
6669772 16 17831035876698285852
7097593 13 18196930187414476799

> <PUBCHEM_SHAPE_MULTIPOLES>
550.74
8.81
4.08
1.71
0.5
4.22
0.47
-7.05
0.28
1.15
-1.58
0.31
0.53
0.2

> <PUBCHEM_SHAPE_SELFOVERLAP>
1165.828

> <PUBCHEM_SHAPE_VOLUME>
302.8

> <PUBCHEM_COORDINATE_TYPE>
2
5
10

$$$$
