102034018
  -OEChem-03292013293D

 32 35  0     1  0  0  0  0  0999 V2000
   -3.8001   -2.1234    0.9430 Br  0  0  0  0  0  0  0  0  0  0  0  0
   -5.1716    0.9865   -0.4472 Br  0  0  0  0  0  0  0  0  0  0  0  0
    2.3755   -0.3110   -2.3471 O   0  0  0  0  0  0  0  0  0  0  0  0
    3.9351   -0.8475    0.8650 O   0  0  0  0  0  0  0  0  0  0  0  0
   -0.6867   -2.7150    0.8148 O   0  0  0  0  0  0  0  0  0  0  0  0
    0.8954   -1.1639    0.1302 N   0  0  0  0  0  0  0  0  0  0  0  0
    1.5648    0.9687    0.9885 N   0  0  0  0  0  0  0  0  0  0  0  0
    0.3720    2.4643   -0.2367 N   0  0  0  0  0  0  0  0  0  0  0  0
   -2.3110    1.2342   -0.7852 N   0  0  0  0  0  0  0  0  0  0  0  0
    1.4738    3.1589    1.7717 N   0  0  0  0  0  0  0  0  0  0  0  0
    1.3049    0.2029   -0.2119 C   0  0  1  0  0  0  0  0  0  0  0  0
    2.6221   -0.0015   -0.9806 C   0  0  1  0  0  0  0  0  0  0  0  0
    0.2215    1.1092   -0.8699 C   0  0  1  0  0  0  0  0  0  0  0  0
    3.2295   -1.2395   -0.3066 C   0  0  2  0  0  0  0  0  0  0  0  0
    2.0198   -2.0913    0.0766 C   0  0  0  0  0  0  0  0  0  0  0  0
   -1.1341    0.5784   -0.5435 C   0  0  0  0  0  0  0  0  0  0  0  0
   -0.4008   -1.5964    0.3963 C   0  0  0  0  0  0  0  0  0  0  0  0
   -1.4253   -0.6294    0.0552 C   0  0  0  0  0  0  0  0  0  0  0  0
    1.1054    2.2449    0.8307 C   0  0  0  0  0  0  0  0  0  0  0  0
   -2.8351   -0.6972    0.1894 C   0  0  0  0  0  0  0  0  0  0  0  0
   -3.3551    0.4682   -0.3328 C   0  0  0  0  0  0  0  0  0  0  0  0
    3.2781    0.8747   -0.9302 H   0  0  0  0  0  0  0  0  0  0  0  0
    0.3488    1.1912   -1.9540 H   0  0  0  0  0  0  0  0  0  0  0  0
    3.9189   -1.7899   -0.9546 H   0  0  0  0  0  0  0  0  0  0  0  0
    1.7905   -2.8327   -0.6966 H   0  0  0  0  0  0  0  0  0  0  0  0
    2.1197   -2.5966    1.0421 H   0  0  0  0  0  0  0  0  0  0  0  0
    2.2221    0.6725    1.7000 H   0  0  0  0  0  0  0  0  0  0  0  0
    3.2365   -0.4695   -2.7704 H   0  0  0  0  0  0  0  0  0  0  0  0
   -2.3993    2.1446   -1.2152 H   0  0  0  0  0  0  0  0  0  0  0  0
    4.2626   -1.6571    1.2926 H   0  0  0  0  0  0  0  0  0  0  0  0
    1.1771    4.1267    1.7106 H   0  0  0  0  0  0  0  0  0  0  0  0
    2.0499    2.8978    2.5645 H   0  0  0  0  0  0  0  0  0  0  0  0
  1 20  1  0  0  0  0
  2 21  1  0  0  0  0
  3 12  1  0  0  0  0
  3 28  1  0  0  0  0
  4 14  1  0  0  0  0
  4 30  1  0  0  0  0
  5 17  2  0  0  0  0
  6 11  1  0  0  0  0
  6 15  1  0  0  0  0
  6 17  1  0  0  0  0
  7 11  1  0  0  0  0
  7 19  1  0  0  0  0
  7 27  1  0  0  0  0
  8 13  1  0  0  0  0
  8 19  2  0  0  0  0
  9 16  1  0  0  0  0
  9 21  1  0  0  0  0
  9 29  1  0  0  0  0
 10 19  1  0  0  0  0
 10 31  1  0  0  0  0
 10 32  1  0  0  0  0
 11 12  1  0  0  0  0
 11 13  1  0  0  0  0
 12 14  1  0  0  0  0
 12 22  1  0  0  0  0
 13 16  1  0  0  0  0
 13 23  1  0  0  0  0
 14 15  1  0  0  0  0
 14 24  1  0  0  0  0
 15 25  1  0  0  0  0
 15 26  1  0  0  0  0
 16 18  2  0  0  0  0
 17 18  1  0  0  0  0
 18 20  1  0  0  0  0
 20 21  2  0  0  0  0
M  END
> <PUBCHEM_COMPOUND_CID>
102034018

> <PUBCHEM_CONFORMER_RMSD>
0.6

> <PUBCHEM_CONFORMER_DIVERSEORDER>
1

> <PUBCHEM_MMFF94_PARTIAL_CHARGES>
27
1 -0.06
10 -0.85
11 0.67
12 0.28
13 0.43
14 0.28
15 0.3
16 -0.33
17 0.72
18 -0.09
19 0.55
2 -0.06
20 0.06
21 -0.09
27 0.4
28 0.4
29 0.27
3 -0.68
30 0.4
31 0.4
32 0.4
4 -0.68
5 -0.57
6 -0.66
7 -0.82
8 -0.7
9 0.03

> <PUBCHEM_EFFECTIVE_ROTOR_COUNT>
0.8

> <PUBCHEM_PHARMACOPHORE_FEATURES>
16
1 1 hydrophobe
1 10 donor
1 2 hydrophobe
1 3 acceptor
1 3 donor
1 4 acceptor
1 4 donor
1 5 acceptor
1 7 donor
1 9 cation
1 9 donor
4 7 8 10 19 cation
5 6 11 12 14 15 rings
5 7 8 11 13 19 rings
5 9 16 18 20 21 rings
6 6 11 13 16 17 18 rings

> <PUBCHEM_HEAVY_ATOM_COUNT>
21

> <PUBCHEM_ATOM_DEF_STEREO_COUNT>
4

> <PUBCHEM_ATOM_UDEF_STEREO_COUNT>
0

> <PUBCHEM_BOND_DEF_STEREO_COUNT>
0

> <PUBCHEM_BOND_UDEF_STEREO_COUNT>
0

> <PUBCHEM_ISOTOPIC_ATOM_COUNT>
0

> <PUBCHEM_COMPONENT_COUNT>
1

> <PUBCHEM_CACTVS_TAUTO_COUNT>
12

> <PUBCHEM_CONFORMER_ID>
0614EA6200000001

> <PUBCHEM_MMFF94_ENERGY>
54.9535

> <PUBCHEM_FEATURE_SELFOVERLAP>
81.66

> <PUBCHEM_SHAPE_FINGERPRINT>
104564 63 17981615866004632641
108231 29 18412543176470494138
10863032 1 16443930356299218158
10967382 1 18190178992825713423
11680986 33 18337947999900898017
12035758 1 18340479080010316818
13134695 92 18130781239888714724
13140716 1 18408884070804033785
14115302 16 18114469963294196887
14178342 30 18115295817487256785
14223421 5 18122908891616352763
14866123 147 16972810515931428315
15196674 1 18260552233633611423
15238133 3 18196665003475871969
16945 1 18043539313051141414
17804303 29 18335424573417744759
1813 80 15766448614772432996
18186145 218 18271254906110185939
19049666 15 18410575132303540177
20233049 118 18334010554003370318
20510252 161 18195241114521589354
20511035 2 18194968667080929358
20600515 1 18338799996863966084
20645477 70 18060134375573069685
20691752 17 17313374677979499291
21524375 3 17195439046255154032
21731228 192 17408513400227867720
22182313 1 18117268358622496463
23175994 123 18200879482857332966
2334 1 18191306181464935311
23402539 116 18339914948630191374
23419403 2 18125407901195253588
23493267 7 16443346425810377013
23557571 272 18055917593703574110
23558518 356 18045495567902672091
23559900 14 18334856142774986612
2748010 2 18262513827213120733
3060560 45 18059848416455557135
3286 77 18409164454516413023
335352 9 18261392192209173567
350125 39 18263655107514096227
495365 180 18272355504348921889
5104073 3 18333734641262561873
537710 114 18261960626418807983
53812653 166 18408881828361561105
6049 1 18336552728409121785
6438718 38 17272292336652096393
7364860 26 18199467842881500168
81228 2 17769955488523098592
9709674 26 18264201595021441119
9981440 41 15941515244333347876

> <PUBCHEM_SHAPE_MULTIPOLES>
401.54
6.89
2.86
1.27
6.08
0.46
0.13
-0.98
0.47
-0.23
-1.29
-0.77
0.45
1.3

> <PUBCHEM_SHAPE_SELFOVERLAP>
869.542

> <PUBCHEM_SHAPE_VOLUME>
227.1

> <PUBCHEM_COORDINATE_TYPE>
2
5
10

$$$$
