102004920
  -OEChem-03292013293D

 76 81  0     1  0  0  0  0  0999 V2000
    1.7486   -2.8708   -0.0373 O   0  0  0  0  0  0  0  0  0  0  0  0
   -1.7335   -2.6176   -0.6335 O   0  0  0  0  0  0  0  0  0  0  0  0
   -0.2161    3.0736    0.3317 O   0  0  0  0  0  0  0  0  0  0  0  0
    4.3034    1.3904    1.7046 O   0  0  0  0  0  0  0  0  0  0  0  0
    3.8918   -1.6287    1.7428 O   0  0  0  0  0  0  0  0  0  0  0  0
    2.5384   -0.7795   -2.2747 O   0  0  0  0  0  0  0  0  0  0  0  0
    4.9248    0.1632   -0.5640 O   0  0  0  0  0  0  0  0  0  0  0  0
   -4.6763    1.6145    0.1246 O   0  0  0  0  0  0  0  0  0  0  0  0
   -4.2568   -1.2406    1.6281 O   0  0  0  0  0  0  0  0  0  0  0  0
   -1.2368    0.4810   -1.8518 N   0  0  1  0  0  0  0  0  0  0  0  0
   -0.4991    0.6259    0.5759 C   0  0  1  0  0  0  0  0  0  0  0  0
   -1.5814   -0.5083    0.7584 C   0  0  2  0  0  0  0  0  0  0  0  0
    0.7918    0.4035    1.4796 C   0  0  1  0  0  0  0  0  0  0  0  0
   -0.1375    0.3246   -0.8936 C   0  0  1  0  0  0  0  0  0  0  0  0
    0.2167   -1.1869   -0.7830 C   0  0  1  0  0  0  0  0  0  0  0  0
    1.5487   -0.9419    1.3656 C   0  0  1  0  0  0  0  0  0  0  0  0
    1.5915   -1.4329   -0.1017 C   0  0  1  0  0  0  0  0  0  0  0  0
   -0.9012   -1.7643    0.1287 C   0  0  2  0  0  0  0  0  0  0  0  0
   -2.9001   -0.0853    0.0346 C   0  0  2  0  0  0  0  0  0  0  0  0
   -1.0461    2.0575    0.8916 C   0  0  2  0  0  0  0  0  0  0  0  0
    1.9270    1.4430    1.2847 C   0  0  0  0  0  0  0  0  0  0  0  0
    3.2391    0.6515    1.1274 C   0  0  2  0  0  0  0  0  0  0  0  0
    2.9364   -0.6045    1.9280 C   0  0  2  0  0  0  0  0  0  0  0  0
    2.8363   -0.9307   -0.8850 C   0  0  2  0  0  0  0  0  0  0  0  0
   -2.6029    0.0919   -1.4899 C   0  0  0  0  0  0  0  0  0  0  0  0
   -3.4116    1.2371    0.6729 C   0  0  1  0  0  0  0  0  0  0  0  0
    3.5151    0.3510   -0.3631 C   0  0  2  0  0  0  0  0  0  0  0  0
   -2.4602    2.3852    0.4567 C   0  0  0  0  0  0  0  0  0  0  0  0
   -4.0418   -1.1151    0.2419 C   0  0  0  0  0  0  0  0  0  0  0  0
   -1.1054    1.5698   -2.7972 C   0  0  0  0  0  0  0  0  0  0  0  0
   -1.1531   -3.9064   -0.8080 C   0  0  0  0  0  0  0  0  0  0  0  0
   -1.7776    1.2345   -4.1178 C   0  0  0  0  0  0  0  0  0  0  0  0
   -0.2613    4.2633    1.1051 C   0  0  0  0  0  0  0  0  0  0  0  0
    5.2842    0.4234   -1.9085 C   0  0  0  0  0  0  0  0  0  0  0  0
   -5.2950   -2.1715    1.9261 C   0  0  0  0  0  0  0  0  0  0  0  0
   -1.7660   -0.6756    1.8266 H   0  0  0  0  0  0  0  0  0  0  0  0
    0.4604    0.4854    2.5258 H   0  0  0  0  0  0  0  0  0  0  0  0
    0.7365    0.8929   -1.2215 H   0  0  0  0  0  0  0  0  0  0  0  0
    0.2040   -1.6611   -1.7719 H   0  0  0  0  0  0  0  0  0  0  0  0
    1.1050   -1.7023    2.0187 H   0  0  0  0  0  0  0  0  0  0  0  0
   -0.5221   -2.3617    0.9628 H   0  0  0  0  0  0  0  0  0  0  0  0
   -1.0355    2.1410    1.9888 H   0  0  0  0  0  0  0  0  0  0  0  0
    1.8002    2.0934    0.4193 H   0  0  0  0  0  0  0  0  0  0  0  0
    1.9656    2.1041    2.1601 H   0  0  0  0  0  0  0  0  0  0  0  0
    2.8893   -0.3880    3.0029 H   0  0  0  0  0  0  0  0  0  0  0  0
    3.5915   -1.7297   -0.8617 H   0  0  0  0  0  0  0  0  0  0  0  0
   -2.8069   -0.8496   -2.0144 H   0  0  0  0  0  0  0  0  0  0  0  0
   -3.3372    0.7948   -1.9019 H   0  0  0  0  0  0  0  0  0  0  0  0
   -3.5579    1.1038    1.7524 H   0  0  0  0  0  0  0  0  0  0  0  0
    3.2073    1.2216   -0.9565 H   0  0  0  0  0  0  0  0  0  0  0  0
   -2.8349    3.2476    1.0248 H   0  0  0  0  0  0  0  0  0  0  0  0
   -2.5019    2.7429   -0.5757 H   0  0  0  0  0  0  0  0  0  0  0  0
   -3.8289   -2.0950   -0.1860 H   0  0  0  0  0  0  0  0  0  0  0  0
   -4.9635   -0.7722   -0.2453 H   0  0  0  0  0  0  0  0  0  0  0  0
    1.8145   -3.2035   -0.9488 H   0  0  0  0  0  0  0  0  0  0  0  0
   -1.5003    2.5104   -2.4054 H   0  0  0  0  0  0  0  0  0  0  0  0
   -0.0479    1.7525   -3.0254 H   0  0  0  0  0  0  0  0  0  0  0  0
    4.1056    1.5307    2.6461 H   0  0  0  0  0  0  0  0  0  0  0  0
    3.5450   -2.4307    2.1693 H   0  0  0  0  0  0  0  0  0  0  0  0
    2.2942   -1.6553   -2.6194 H   0  0  0  0  0  0  0  0  0  0  0  0
   -4.9719    2.4164    0.5886 H   0  0  0  0  0  0  0  0  0  0  0  0
   -1.9019   -4.5452   -1.2853 H   0  0  0  0  0  0  0  0  0  0  0  0
   -0.8867   -4.3589    0.1522 H   0  0  0  0  0  0  0  0  0  0  0  0
   -0.2861   -3.8636   -1.4707 H   0  0  0  0  0  0  0  0  0  0  0  0
   -2.8659    1.1657   -4.0309 H   0  0  0  0  0  0  0  0  0  0  0  0
   -1.5615    2.0176   -4.8527 H   0  0  0  0  0  0  0  0  0  0  0  0
   -1.4035    0.2887   -4.5249 H   0  0  0  0  0  0  0  0  0  0  0  0
    0.4636    4.9643    0.6810 H   0  0  0  0  0  0  0  0  0  0  0  0
    0.0257    4.0723    2.1439 H   0  0  0  0  0  0  0  0  0  0  0  0
   -1.2445    4.7382    1.0608 H   0  0  0  0  0  0  0  0  0  0  0  0
    4.9227    1.3996   -2.2472 H   0  0  0  0  0  0  0  0  0  0  0  0
    4.9424   -0.3695   -2.5778 H   0  0  0  0  0  0  0  0  0  0  0  0
    6.3771    0.4395   -1.9622 H   0  0  0  0  0  0  0  0  0  0  0  0
   -5.4140   -2.2156    3.0119 H   0  0  0  0  0  0  0  0  0  0  0  0
   -5.0297   -3.1685    1.5614 H   0  0  0  0  0  0  0  0  0  0  0  0
   -6.2401   -1.8443    1.4822 H   0  0  0  0  0  0  0  0  0  0  0  0
  1 17  1  0  0  0  0
  1 55  1  0  0  0  0
  2 18  1  0  0  0  0
  2 31  1  0  0  0  0
  3 20  1  0  0  0  0
  3 33  1  0  0  0  0
  4 22  1  0  0  0  0
  4 58  1  0  0  0  0
  5 23  1  0  0  0  0
  5 59  1  0  0  0  0
  6 24  1  0  0  0  0
  6 60  1  0  0  0  0
  7 27  1  0  0  0  0
  7 34  1  0  0  0  0
  8 26  1  0  0  0  0
  8 61  1  0  0  0  0
  9 29  1  0  0  0  0
  9 35  1  0  0  0  0
 10 14  1  0  0  0  0
 10 25  1  0  0  0  0
 10 30  1  0  0  0  0
 11 12  1  0  0  0  0
 11 13  1  0  0  0  0
 11 14  1  0  0  0  0
 11 20  1  0  0  0  0
 12 18  1  0  0  0  0
 12 19  1  0  0  0  0
 12 36  1  0  0  0  0
 13 16  1  0  0  0  0
 13 21  1  0  0  0  0
 13 37  1  0  0  0  0
 14 15  1  0  0  0  0
 14 38  1  0  0  0  0
 15 17  1  0  0  0  0
 15 18  1  0  0  0  0
 15 39  1  0  0  0  0
 16 17  1  0  0  0  0
 16 23  1  0  0  0  0
 16 40  1  0  0  0  0
 17 24  1  0  0  0  0
 18 41  1  0  0  0  0
 19 25  1  0  0  0  0
 19 26  1  0  0  0  0
 19 29  1  0  0  0  0
 20 28  1  0  0  0  0
 20 42  1  0  0  0  0
 21 22  1  0  0  0  0
 21 43  1  0  0  0  0
 21 44  1  0  0  0  0
 22 23  1  0  0  0  0
 22 27  1  0  0  0  0
 23 45  1  0  0  0  0
 24 27  1  0  0  0  0
 24 46  1  0  0  0  0
 25 47  1  0  0  0  0
 25 48  1  0  0  0  0
 26 28  1  0  0  0  0
 26 49  1  0  0  0  0
 27 50  1  0  0  0  0
 28 51  1  0  0  0  0
 28 52  1  0  0  0  0
 29 53  1  0  0  0  0
 29 54  1  0  0  0  0
 30 32  1  0  0  0  0
 30 56  1  0  0  0  0
 30 57  1  0  0  0  0
 31 62  1  0  0  0  0
 31 63  1  0  0  0  0
 31 64  1  0  0  0  0
 32 65  1  0  0  0  0
 32 66  1  0  0  0  0
 32 67  1  0  0  0  0
 33 68  1  0  0  0  0
 33 69  1  0  0  0  0
 33 70  1  0  0  0  0
 34 71  1  0  0  0  0
 34 72  1  0  0  0  0
 34 73  1  0  0  0  0
 35 74  1  0  0  0  0
 35 75  1  0  0  0  0
 35 76  1  0  0  0  0
M  END
> <PUBCHEM_COMPOUND_CID>
102004920

> <PUBCHEM_CONFORMER_RMSD>
1

> <PUBCHEM_CONFORMER_DIVERSEORDER>
1

> <PUBCHEM_MMFF94_PARTIAL_CHARGES>
31
1 -0.68
10 -0.81
14 0.27
17 0.28
18 0.28
2 -0.56
20 0.28
22 0.28
23 0.28
24 0.28
25 0.27
26 0.28
27 0.28
29 0.28
3 -0.56
30 0.27
31 0.28
33 0.28
34 0.28
35 0.28
4 -0.68
5 -0.68
55 0.4
58 0.4
59 0.4
6 -0.68
60 0.4
61 0.4
7 -0.56
8 -0.68
9 -0.56

> <PUBCHEM_EFFECTIVE_ROTOR_COUNT>
8

> <PUBCHEM_PHARMACOPHORE_FEATURES>
19
1 1 acceptor
1 1 donor
1 10 cation
1 2 acceptor
1 3 acceptor
1 4 acceptor
1 4 donor
1 5 acceptor
1 5 donor
1 6 acceptor
1 6 donor
1 7 acceptor
1 8 acceptor
1 8 donor
1 9 acceptor
6 11 12 19 20 26 28 rings
8 10 11 12 14 15 18 19 25 rings
8 11 12 13 14 15 16 17 18 rings
8 13 16 17 21 22 23 24 27 rings

> <PUBCHEM_HEAVY_ATOM_COUNT>
35

> <PUBCHEM_ATOM_DEF_STEREO_COUNT>
14

> <PUBCHEM_ATOM_UDEF_STEREO_COUNT>
1

> <PUBCHEM_BOND_DEF_STEREO_COUNT>
0

> <PUBCHEM_BOND_UDEF_STEREO_COUNT>
0

> <PUBCHEM_ISOTOPIC_ATOM_COUNT>
0

> <PUBCHEM_COMPONENT_COUNT>
1

> <PUBCHEM_CACTVS_TAUTO_COUNT>
1

> <PUBCHEM_CONFORMER_ID>
061478B800000001

> <PUBCHEM_MMFF94_ENERGY>
205.7894

> <PUBCHEM_FEATURE_SELFOVERLAP>
97.872

> <PUBCHEM_SHAPE_FINGERPRINT>
10165383 225 18338809922348322702
10498660 4 18341050722466296409
10863032 1 18270685247032746009
11578080 2 17679300763107535852
12156800 1 16759517719736937034
12173636 292 18269266868174110716
12403814 3 17749380469028920359
12553582 1 18342452681432720467
12633257 1 18201994486306169219
12788726 201 18410583863966908408
13140716 1 17837770397985953451
13224815 77 18200861907677240440
13583140 156 17751052830256566474
14223421 5 18269549442699151867
14787075 74 17896325881533744003
14790565 3 18342749519597860505
14955137 171 18195265513930358243
16945 1 18271231789952737658
17349148 13 13695873592852224368
18981168 100 17901661571029710980
20691752 17 18129929096796622900
21033648 29 17775286058486231915
21421861 104 17260762157791599003
23419403 2 17402010858501450407
23558518 356 17689994540458816225
23559900 14 18266469706340181982
350125 39 18053103913245959762
469060 322 17824528906122367095
6287921 2 17556571368307721480

> <PUBCHEM_SHAPE_MULTIPOLES>
662.48
8.19
3.44
2.6
1.92
0.46
-2.45
-1.55
1.81
-1.99
0.6
-0.14
0.83
0.93

> <PUBCHEM_SHAPE_SELFOVERLAP>
1445.752

> <PUBCHEM_SHAPE_VOLUME>
353.4

> <PUBCHEM_COORDINATE_TYPE>
2
5
10

$$$$
