102086406
  -OEChem-03292013293D

 72 74  0     1  0  0  0  0  0999 V2000
   -1.8429   -0.4081    0.3161 O   0  0  0  0  0  0  0  0  0  0  0  0
   -3.7474    0.9387    0.3701 O   0  0  0  0  0  0  0  0  0  0  0  0
    4.7882   -1.4846   -0.6580 O   0  0  0  0  0  0  0  0  0  0  0  0
   -3.3712   -2.4849   -0.8495 O   0  0  0  0  0  0  0  0  0  0  0  0
   -6.2158   -2.3095   -0.1024 O   0  0  0  0  0  0  0  0  0  0  0  0
   -7.2304    0.3514   -0.5984 O   0  0  0  0  0  0  0  0  0  0  0  0
   -4.5943    3.5510    0.2499 O   0  0  0  0  0  0  0  0  0  0  0  0
    5.5127    3.8925   -0.0548 O   0  0  0  0  0  0  0  0  0  0  0  0
    4.0784    3.3875   -1.7409 O   0  0  0  0  0  0  0  0  0  0  0  0
    0.2791    0.3638   -0.6458 C   0  0  0  0  0  0  0  0  0  0  0  0
   -0.9934    0.7339    0.1754 C   0  0  2  0  0  0  0  0  0  0  0  0
    1.2861   -0.4500    0.1990 C   0  0  0  0  0  0  0  0  0  0  0  0
   -0.6393    1.2562    1.5624 C   0  0  0  0  0  0  0  0  0  0  0  0
    2.3834   -1.1354   -0.5664 C   0  0  1  0  0  0  0  0  0  0  0  0
    1.1965   -0.5275    1.5498 C   0  0  0  0  0  0  0  0  0  0  0  0
    0.1496    0.2161    2.3505 C   0  0  0  0  0  0  0  0  0  0  0  0
   -0.1640   -0.4244   -1.9013 C   0  0  0  0  0  0  0  0  0  0  0  0
    0.9648    1.6695   -1.1133 C   0  0  0  0  0  0  0  0  0  0  0  0
   -3.1241   -0.1738   -0.2675 C   0  0  2  0  0  0  0  0  0  0  0  0
    3.7752   -0.6232   -0.1281 C   0  0  2  0  0  0  0  0  0  0  0  0
   -3.9640   -1.4375   -0.0821 C   0  0  1  0  0  0  0  0  0  0  0  0
    2.2921   -2.6345   -0.4071 C   0  0  0  0  0  0  0  0  0  0  0  0
   -5.4044   -1.2210   -0.5463 C   0  0  2  0  0  0  0  0  0  0  0  0
    2.0985   -1.3695    2.4182 C   0  0  0  0  0  0  0  0  0  0  0  0
   -5.9848    0.0688    0.0340 C   0  0  1  0  0  0  0  0  0  0  0  0
   -5.0277    1.2425   -0.1865 C   0  0  1  0  0  0  0  0  0  0  0  0
    3.3683   -3.4005   -0.1633 C   0  0  0  0  0  0  0  0  0  0  0  0
    4.7417   -2.7933   -0.0818 C   0  0  0  0  0  0  0  0  0  0  0  0
    4.0699    0.7535   -0.6347 C   0  0  0  0  0  0  0  0  0  0  0  0
   -5.5311    2.5158    0.4860 C   0  0  0  0  0  0  0  0  0  0  0  0
    3.2747   -4.8831    0.0313 C   0  0  0  0  0  0  0  0  0  0  0  0
    4.3928    1.8406    0.0904 C   0  0  0  0  0  0  0  0  0  0  0  0
    4.5653    1.8840    1.5799 C   0  0  0  0  0  0  0  0  0  0  0  0
    4.6175    3.0950   -0.6846 C   0  0  0  0  0  0  0  0  0  0  0  0
   -1.5169    1.5400   -0.3577 H   0  0  0  0  0  0  0  0  0  0  0  0
   -1.5507    1.4996    2.1217 H   0  0  0  0  0  0  0  0  0  0  0  0
   -0.0582    2.1824    1.4859 H   0  0  0  0  0  0  0  0  0  0  0  0
    2.3088   -0.9598   -1.6432 H   0  0  0  0  0  0  0  0  0  0  0  0
   -0.5477   -0.5205    2.7702 H   0  0  0  0  0  0  0  0  0  0  0  0
    0.6249    0.7204    3.2010 H   0  0  0  0  0  0  0  0  0  0  0  0
    0.6231   -0.5101   -2.6567 H   0  0  0  0  0  0  0  0  0  0  0  0
   -0.5001   -1.4369   -1.6516 H   0  0  0  0  0  0  0  0  0  0  0  0
    1.4211    2.2175   -0.2831 H   0  0  0  0  0  0  0  0  0  0  0  0
    1.7343    1.4757   -1.8659 H   0  0  0  0  0  0  0  0  0  0  0  0
    0.2398    2.3414   -1.5882 H   0  0  0  0  0  0  0  0  0  0  0  0
   -0.9894    0.0894   -2.4073 H   0  0  0  0  0  0  0  0  0  0  0  0
   -2.9917    0.0385   -1.3359 H   0  0  0  0  0  0  0  0  0  0  0  0
    3.9202   -0.6344    0.9501 H   0  0  0  0  0  0  0  0  0  0  0  0
   -3.9423   -1.7618    0.9651 H   0  0  0  0  0  0  0  0  0  0  0  0
    1.3130   -3.0974   -0.5063 H   0  0  0  0  0  0  0  0  0  0  0  0
   -5.4672   -1.2201   -1.6408 H   0  0  0  0  0  0  0  0  0  0  0  0
    2.7040   -0.7181    3.0580 H   0  0  0  0  0  0  0  0  0  0  0  0
    2.7700   -2.0691    1.9411 H   0  0  0  0  0  0  0  0  0  0  0  0
    1.4762   -1.9822    3.0824 H   0  0  0  0  0  0  0  0  0  0  0  0
   -6.1844   -0.0658    1.1041 H   0  0  0  0  0  0  0  0  0  0  0  0
   -4.9008    1.4523   -1.2574 H   0  0  0  0  0  0  0  0  0  0  0  0
    5.0853   -2.7464    0.9578 H   0  0  0  0  0  0  0  0  0  0  0  0
    5.4556   -3.4053   -0.6429 H   0  0  0  0  0  0  0  0  0  0  0  0
    4.0202    0.8470   -1.7197 H   0  0  0  0  0  0  0  0  0  0  0  0
   -5.6104    2.3791    1.5697 H   0  0  0  0  0  0  0  0  0  0  0  0
   -6.5026    2.8235    0.0878 H   0  0  0  0  0  0  0  0  0  0  0  0
   -3.3713   -2.2121   -1.7829 H   0  0  0  0  0  0  0  0  0  0  0  0
    2.2419   -5.2420   -0.0291 H   0  0  0  0  0  0  0  0  0  0  0  0
    3.6673   -5.1608    1.0148 H   0  0  0  0  0  0  0  0  0  0  0  0
    3.8555   -5.4052   -0.7358 H   0  0  0  0  0  0  0  0  0  0  0  0
   -6.1662   -2.3478    0.8680 H   0  0  0  0  0  0  0  0  0  0  0  0
   -7.0621    0.4861   -1.5466 H   0  0  0  0  0  0  0  0  0  0  0  0
   -4.9317    4.3495    0.6903 H   0  0  0  0  0  0  0  0  0  0  0  0
    5.6280    1.8500    1.8403 H   0  0  0  0  0  0  0  0  0  0  0  0
    4.0592    1.0697    2.1000 H   0  0  0  0  0  0  0  0  0  0  0  0
    4.1415    2.8104    1.9837 H   0  0  0  0  0  0  0  0  0  0  0  0
    5.6732    4.7252   -0.5481 H   0  0  0  0  0  0  0  0  0  0  0  0
  1 11  1  0  0  0  0
  1 19  1  0  0  0  0
  2 19  1  0  0  0  0
  2 26  1  0  0  0  0
  3 20  1  0  0  0  0
  3 28  1  0  0  0  0
  4 21  1  0  0  0  0
  4 62  1  0  0  0  0
  5 23  1  0  0  0  0
  5 66  1  0  0  0  0
  6 25  1  0  0  0  0
  6 67  1  0  0  0  0
  7 30  1  0  0  0  0
  7 68  1  0  0  0  0
  8 34  1  0  0  0  0
  8 72  1  0  0  0  0
  9 34  2  0  0  0  0
 10 11  1  0  0  0  0
 10 12  1  0  0  0  0
 10 17  1  0  0  0  0
 10 18  1  0  0  0  0
 11 13  1  0  0  0  0
 11 35  1  0  0  0  0
 12 14  1  0  0  0  0
 12 15  2  0  0  0  0
 13 16  1  0  0  0  0
 13 36  1  0  0  0  0
 13 37  1  0  0  0  0
 14 20  1  0  0  0  0
 14 22  1  0  0  0  0
 14 38  1  0  0  0  0
 15 16  1  0  0  0  0
 15 24  1  0  0  0  0
 16 39  1  0  0  0  0
 16 40  1  0  0  0  0
 17 41  1  0  0  0  0
 17 42  1  0  0  0  0
 17 46  1  0  0  0  0
 18 43  1  0  0  0  0
 18 44  1  0  0  0  0
 18 45  1  0  0  0  0
 19 21  1  0  0  0  0
 19 47  1  0  0  0  0
 20 29  1  0  0  0  0
 20 48  1  0  0  0  0
 21 23  1  0  0  0  0
 21 49  1  0  0  0  0
 22 27  2  0  0  0  0
 22 50  1  0  0  0  0
 23 25  1  0  0  0  0
 23 51  1  0  0  0  0
 24 52  1  0  0  0  0
 24 53  1  0  0  0  0
 24 54  1  0  0  0  0
 25 26  1  0  0  0  0
 25 55  1  0  0  0  0
 26 30  1  0  0  0  0
 26 56  1  0  0  0  0
 27 28  1  0  0  0  0
 27 31  1  0  0  0  0
 28 57  1  0  0  0  0
 28 58  1  0  0  0  0
 29 32  2  0  0  0  0
 29 59  1  0  0  0  0
 30 60  1  0  0  0  0
 30 61  1  0  0  0  0
 31 63  1  0  0  0  0
 31 64  1  0  0  0  0
 31 65  1  0  0  0  0
 32 33  1  0  0  0  0
 32 34  1  0  0  0  0
 33 69  1  0  0  0  0
 33 70  1  0  0  0  0
 33 71  1  0  0  0  0
M  END
> <PUBCHEM_COMPOUND_CID>
102086406

> <PUBCHEM_CONFORMER_RMSD>
1

> <PUBCHEM_CONFORMER_DIVERSEORDER>
1
32
17
21
15
13
8
25
6
12
9
20
23
5
29
2
4
11
19
18
7
30
34
31
27
24
3
33
28
26
10
16
22
14

> <PUBCHEM_MMFF94_PARTIAL_CHARGES>
38
1 -0.56
10 0.14
11 0.28
12 -0.28
14 0.28
15 -0.28
16 0.14
19 0.56
2 -0.56
20 0.42
21 0.28
22 -0.29
23 0.28
24 0.14
25 0.28
26 0.28
27 -0.28
28 0.42
29 -0.29
3 -0.56
30 0.28
31 0.14
32 -0.12
33 0.14
34 0.71
4 -0.68
5 -0.68
50 0.15
59 0.15
6 -0.68
62 0.4
66 0.4
67 0.4
68 0.4
7 -0.68
72 0.5
8 -0.65
9 -0.57

> <PUBCHEM_EFFECTIVE_ROTOR_COUNT>
8.8

> <PUBCHEM_PHARMACOPHORE_FEATURES>
19
1 1 acceptor
1 2 acceptor
1 3 acceptor
1 33 hydrophobe
1 4 acceptor
1 4 donor
1 5 acceptor
1 5 donor
1 6 acceptor
1 6 donor
1 7 acceptor
1 7 donor
1 8 acceptor
1 9 acceptor
3 10 17 18 hydrophobe
3 8 9 34 anion
6 10 11 12 13 15 16 rings
6 2 19 21 23 25 26 rings
6 3 14 20 22 27 28 rings

> <PUBCHEM_HEAVY_ATOM_COUNT>
34

> <PUBCHEM_ATOM_DEF_STEREO_COUNT>
8

> <PUBCHEM_ATOM_UDEF_STEREO_COUNT>
0

> <PUBCHEM_BOND_DEF_STEREO_COUNT>
1

> <PUBCHEM_BOND_UDEF_STEREO_COUNT>
0

> <PUBCHEM_ISOTOPIC_ATOM_COUNT>
0

> <PUBCHEM_COMPONENT_COUNT>
1

> <PUBCHEM_CACTVS_TAUTO_COUNT>
1

> <PUBCHEM_CONFORMER_ID>
0615B70600000001

> <PUBCHEM_MMFF94_ENERGY>
92.9015

> <PUBCHEM_FEATURE_SELFOVERLAP>
96.547

> <PUBCHEM_SHAPE_FINGERPRINT>
10554248 39 18199175218939979013
10595046 47 18412265064711775573
10673678 19 18339081617885414864
10906281 52 17459484401739632972
11796584 16 18057887944205260183
12107183 9 17980204080632550961
12788726 201 17274833419386568563
131258 43 16772128938832303414
1361 2 18263647423785961828
13617811 41 18195797690886078749
13726171 33 17416989342230002017
14068700 675 18126845989474336810
14790565 3 18122627425250740852
15183329 4 18337955576349977519
15324884 4 17755055152410533970
15840311 113 18261398798180565757
17349148 13 14996281396822985180
17844677 252 18339931415777176229
19319366 153 18200586012380590398
20511986 3 18261100916169607109
22149856 69 18270974526466499307
23522609 53 17773900678420806401
23559900 14 18129093429315480546
249057 3 18195811760692525100
3004659 81 18271243816040891074
3493558 16 18335993072290357165
3633792 109 18114449125278720679
4073 2 18335143137248948219
4149490 64 18260269676647227523
4340502 62 18201150048954994890
44317340 157 18335992973811506057
5104073 3 18342461405081095595
513532 50 17967249780715872786
6695519 79 17983314891017247762
70251023 43 18190745232950696762
77296 10 18411705348515637949

> <PUBCHEM_SHAPE_MULTIPOLES>
646.88
15.05
4.61
1.53
20.34
0.79
0.72
-3.35
-1.98
-6.62
-0.75
-1.05
-0.31
-1.19

> <PUBCHEM_SHAPE_SELFOVERLAP>
1345.169

> <PUBCHEM_SHAPE_VOLUME>
364.9

> <PUBCHEM_COORDINATE_TYPE>
2
5
10

$$$$
