102041154
  -OEChem-03292013293D

 58 60  0     1  0  0  0  0  0999 V2000
   -2.4182   -0.4234   -1.3197 O   0  0  0  0  0  0  0  0  0  0  0  0
   -2.3476    1.8546   -1.8410 O   0  0  0  0  0  0  0  0  0  0  0  0
   -3.8988    2.5226    0.2867 O   0  0  0  0  0  0  0  0  0  0  0  0
   -0.2948    0.1645    2.1848 O   0  0  0  0  0  0  0  0  0  0  0  0
   -2.0229   -2.8558   -0.3394 O   0  0  0  0  0  0  0  0  0  0  0  0
    2.4917   -1.8715    0.7850 O   0  0  0  0  0  0  0  0  0  0  0  0
    2.1125    1.8508   -0.9432 O   0  0  0  0  0  0  0  0  0  0  0  0
   -1.1255    1.0103    0.0670 C   0  0  1  0  0  0  0  0  0  0  0  0
   -0.1723    0.2147   -0.8677 C   0  0  2  0  0  0  0  0  0  0  0  0
   -2.4315    0.9099   -0.7591 C   0  0  2  0  0  0  0  0  0  0  0  0
   -1.0694   -0.9095   -1.3830 C   0  0  1  0  0  0  0  0  0  0  0  0
   -3.7575    1.1189    0.0251 C   0  0  1  0  0  0  0  0  0  0  0  0
   -1.2661    0.3714    1.4551 C   0  0  0  0  0  0  0  0  0  0  0  0
   -0.6404    2.4502    0.2983 C   0  0  0  0  0  0  0  0  0  0  0  0
    1.1727   -0.2531   -0.3583 C   0  0  0  0  0  0  0  0  0  0  0  0
   -1.0282   -2.1480   -0.5003 C   0  0  0  0  0  0  0  0  0  0  0  0
   -3.7396    0.4099    1.3709 C   0  0  0  0  0  0  0  0  0  0  0  0
   -0.7636   -1.3211   -2.8210 C   0  0  0  0  0  0  0  0  0  0  0  0
   -2.6066    0.0516    1.9903 C   0  0  0  0  0  0  0  0  0  0  0  0
   -4.9672    0.6843   -0.8323 C   0  0  0  0  0  0  0  0  0  0  0  0
    1.2724   -1.6113    0.1809 C   0  0  0  0  0  0  0  0  0  0  0  0
    0.2732   -2.5173    0.1476 C   0  0  0  0  0  0  0  0  0  0  0  0
    2.2357    0.5666   -0.4589 C   0  0  0  0  0  0  0  0  0  0  0  0
   -5.0553    0.1499    2.0616 C   0  0  0  0  0  0  0  0  0  0  0  0
    0.3194   -3.9110    0.7095 C   0  0  0  0  0  0  0  0  0  0  0  0
    3.5671    0.1548   -0.0676 C   0  0  0  0  0  0  0  0  0  0  0  0
    4.6684    0.9200   -0.1416 C   0  0  0  0  0  0  0  0  0  0  0  0
    5.9768    0.4554    0.2655 C   0  0  0  0  0  0  0  0  0  0  0  0
    7.0800    1.2146    0.1939 C   0  0  0  0  0  0  0  0  0  0  0  0
    8.4359    0.7472    0.6109 C   0  0  0  0  0  0  0  0  0  0  0  0
    0.0219    0.8648   -1.7362 H   0  0  0  0  0  0  0  0  0  0  0  0
   -0.4317    2.9736   -0.6403 H   0  0  0  0  0  0  0  0  0  0  0  0
    0.2727    2.4750    0.9031 H   0  0  0  0  0  0  0  0  0  0  0  0
   -1.3878    3.0343    0.8459 H   0  0  0  0  0  0  0  0  0  0  0  0
   -0.9036   -0.4784   -3.5072 H   0  0  0  0  0  0  0  0  0  0  0  0
   -1.4489   -2.1090   -3.1551 H   0  0  0  0  0  0  0  0  0  0  0  0
    0.2590   -1.6960   -2.9312 H   0  0  0  0  0  0  0  0  0  0  0  0
   -2.6260   -0.4387    2.9591 H   0  0  0  0  0  0  0  0  0  0  0  0
   -4.9641    1.1656   -1.8156 H   0  0  0  0  0  0  0  0  0  0  0  0
   -5.9149    0.9866   -0.3711 H   0  0  0  0  0  0  0  0  0  0  0  0
   -4.9917   -0.4000   -0.9857 H   0  0  0  0  0  0  0  0  0  0  0  0
   -3.2316    2.1999   -2.0393 H   0  0  0  0  0  0  0  0  0  0  0  0
   -4.7641    2.6729    0.7037 H   0  0  0  0  0  0  0  0  0  0  0  0
   -5.6368    1.0736    2.1438 H   0  0  0  0  0  0  0  0  0  0  0  0
   -4.9205   -0.2360    3.0782 H   0  0  0  0  0  0  0  0  0  0  0  0
   -5.6425   -0.5910    1.5102 H   0  0  0  0  0  0  0  0  0  0  0  0
   -0.2679   -3.9644    1.6320 H   0  0  0  0  0  0  0  0  0  0  0  0
    1.3303   -4.2619    0.9287 H   0  0  0  0  0  0  0  0  0  0  0  0
   -0.0996   -4.6260   -0.0076 H   0  0  0  0  0  0  0  0  0  0  0  0
    2.4670   -2.7354    1.2231 H   0  0  0  0  0  0  0  0  0  0  0  0
    3.8852   -0.8666    0.0388 H   0  0  0  0  0  0  0  0  0  0  0  0
    2.9148    2.0921   -1.4330 H   0  0  0  0  0  0  0  0  0  0  0  0
    4.6087    1.9744   -0.3967 H   0  0  0  0  0  0  0  0  0  0  0  0
    6.0564   -0.5613    0.6424 H   0  0  0  0  0  0  0  0  0  0  0  0
    7.0179    2.2326   -0.1834 H   0  0  0  0  0  0  0  0  0  0  0  0
    9.1246    0.7980   -0.2380 H   0  0  0  0  0  0  0  0  0  0  0  0
    8.4251   -0.2832    0.9801 H   0  0  0  0  0  0  0  0  0  0  0  0
    8.8229    1.3905    1.4070 H   0  0  0  0  0  0  0  0  0  0  0  0
  1 10  1  0  0  0  0
  1 11  1  0  0  0  0
  2 10  1  0  0  0  0
  2 42  1  0  0  0  0
  3 12  1  0  0  0  0
  3 43  1  0  0  0  0
  4 13  2  0  0  0  0
  5 16  2  0  0  0  0
  6 21  1  0  0  0  0
  6 50  1  0  0  0  0
  7 23  1  0  0  0  0
  7 52  1  0  0  0  0
  8  9  1  0  0  0  0
  8 10  1  0  0  0  0
  8 13  1  0  0  0  0
  8 14  1  0  0  0  0
  9 11  1  0  0  0  0
  9 15  1  0  0  0  0
  9 31  1  0  0  0  0
 10 12  1  0  0  0  0
 11 16  1  0  0  0  0
 11 18  1  0  0  0  0
 12 17  1  0  0  0  0
 12 20  1  0  0  0  0
 13 19  1  0  0  0  0
 14 32  1  0  0  0  0
 14 33  1  0  0  0  0
 14 34  1  0  0  0  0
 15 21  1  0  0  0  0
 15 23  2  0  0  0  0
 16 22  1  0  0  0  0
 17 19  2  0  0  0  0
 17 24  1  0  0  0  0
 18 35  1  0  0  0  0
 18 36  1  0  0  0  0
 18 37  1  0  0  0  0
 19 38  1  0  0  0  0
 20 39  1  0  0  0  0
 20 40  1  0  0  0  0
 20 41  1  0  0  0  0
 21 22  2  0  0  0  0
 22 25  1  0  0  0  0
 23 26  1  0  0  0  0
 24 44  1  0  0  0  0
 24 45  1  0  0  0  0
 24 46  1  0  0  0  0
 25 47  1  0  0  0  0
 25 48  1  0  0  0  0
 25 49  1  0  0  0  0
 26 27  2  0  0  0  0
 26 51  1  0  0  0  0
 27 28  1  0  0  0  0
 27 53  1  0  0  0  0
 28 29  2  0  0  0  0
 28 54  1  0  0  0  0
 29 30  1  0  0  0  0
 29 55  1  0  0  0  0
 30 56  1  0  0  0  0
 30 57  1  0  0  0  0
 30 58  1  0  0  0  0
M  END
> <PUBCHEM_COMPOUND_CID>
102041154

> <PUBCHEM_CONFORMER_RMSD>
0.8

> <PUBCHEM_CONFORMER_DIVERSEORDER>
1

> <PUBCHEM_MMFF94_PARTIAL_CHARGES>
36
1 -0.56
10 0.56
11 0.34
12 0.42
13 0.49
15 -0.14
16 0.49
17 -0.28
19 -0.14
2 -0.68
21 0.08
22 -0.12
23 0.08
24 0.14
25 0.14
26 -0.15
27 -0.15
28 -0.15
29 -0.29
3 -0.68
30 0.14
38 0.15
4 -0.57
42 0.4
43 0.4
5 -0.57
50 0.45
51 0.15
52 0.45
53 0.15
54 0.15
55 0.15
6 -0.53
7 -0.53
8 0.06
9 0.14

> <PUBCHEM_EFFECTIVE_ROTOR_COUNT>
2.4

> <PUBCHEM_PHARMACOPHORE_FEATURES>
13
1 1 acceptor
1 2 acceptor
1 2 donor
1 3 acceptor
1 3 donor
1 30 hydrophobe
1 4 acceptor
1 5 acceptor
1 6 donor
1 7 donor
5 1 8 9 10 11 rings
6 8 10 12 13 17 19 rings
6 9 11 15 16 21 22 rings

> <PUBCHEM_HEAVY_ATOM_COUNT>
30

> <PUBCHEM_ATOM_DEF_STEREO_COUNT>
5

> <PUBCHEM_ATOM_UDEF_STEREO_COUNT>
0

> <PUBCHEM_BOND_DEF_STEREO_COUNT>
3

> <PUBCHEM_BOND_UDEF_STEREO_COUNT>
0

> <PUBCHEM_ISOTOPIC_ATOM_COUNT>
0

> <PUBCHEM_COMPONENT_COUNT>
1

> <PUBCHEM_CACTVS_TAUTO_COUNT>
144

> <PUBCHEM_CONFORMER_ID>
0615064200000001

> <PUBCHEM_MMFF94_ENERGY>
104.7452

> <PUBCHEM_FEATURE_SELFOVERLAP>
66.419

> <PUBCHEM_SHAPE_FINGERPRINT>
10 15 18041281050124383696
10291535 26 16343712053523893746
10411042 1 17762615487803538663
10863032 1 18190186698355400915
10948715 1 18338238159359405935
1100329 8 18338800134345247208
11135609 201 17774171085029405617
11315181 36 17489022764909204112
11578080 2 14491571423136712479
12236239 1 17988641861449372060
12592029 89 18337955593397692107
12788726 201 16916510237963750424
13140716 1 18196660802718158344
13583140 156 16226311691078506620
13782708 43 12324230669240660400
13947920 75 17274812575910170420
14223421 5 17972328317513288639
14955137 171 17675931989135943100
15183329 4 18131634457745451742
15219462 58 17832743125670145419
16945 1 18052814754747109375
17492 54 18058713746378229685
21236236 1 18341329011326216614
21756936 100 18131633387254129050
21792961 116 12103572969631232516
23198884 109 16487259868025256768
23419403 2 17244697867522932543
23559900 14 17243033253799271991
4340502 62 18128278760752101939
444769 64 18261669299858239346
469060 322 18041275590355858663
484985 159 17896029021974220314
5104073 3 18042692693240091696
57527306 92 16845581894144662745
59755656 520 17988928868428427510
6669772 16 18272095950822578334
7226269 152 18131070437849769472

> <PUBCHEM_SHAPE_MULTIPOLES>
576.3
12.25
2.84
1.81
29.55
2.48
0.16
-7.89
-3.54
-0.84
-0.06
-2.06
0.19
-0.26

> <PUBCHEM_SHAPE_SELFOVERLAP>
1244.847

> <PUBCHEM_SHAPE_VOLUME>
312.7

> <PUBCHEM_COORDINATE_TYPE>
2
5
10

$$$$
