102004514
  -OEChem-03292013293D

 51 55  0     1  0  0  0  0  0999 V2000
   -1.3055    1.6781   -1.8222 O   0  0  0  0  0  0  0  0  0  0  0  0
   -0.7179   -2.7430    0.1624 O   0  0  0  0  0  0  0  0  0  0  0  0
   -0.4547    3.0654   -0.1206 O   0  0  0  0  0  0  0  0  0  0  0  0
   -2.2835    2.0596    1.6970 O   0  0  0  0  0  0  0  0  0  0  0  0
    1.8141    2.4597    1.1271 O   0  0  0  0  0  0  0  0  0  0  0  0
   -1.8914   -3.6137    1.8682 O   0  0  0  0  0  0  0  0  0  0  0  0
    4.3388    1.6759    1.3619 O   0  0  0  0  0  0  0  0  0  0  0  0
   -1.1757   -0.4715   -0.7889 C   0  0  1  0  0  0  0  0  0  0  0  0
   -0.3080    0.5377    0.0085 C   0  0  1  0  0  0  0  0  0  0  0  0
    1.2663    0.4555   -0.2363 C   0  0  2  0  0  0  0  0  0  0  0  0
   -1.0753    1.8229   -0.4028 C   0  0  2  0  0  0  0  0  0  0  0  0
   -0.5853   -1.8639   -0.9897 C   0  0  1  0  0  0  0  0  0  0  0  0
   -2.5761   -0.6445   -0.1244 C   0  0  2  0  0  0  0  0  0  0  0  0
    1.6928   -1.0619   -0.2541 C   0  0  1  0  0  0  0  0  0  0  0  0
   -1.3696    0.2739   -2.1236 C   0  0  0  0  0  0  0  0  0  0  0  0
    0.9080   -1.8451   -1.3239 C   0  0  0  0  0  0  0  0  0  0  0  0
   -2.4640    1.9117    0.2865 C   0  0  1  0  0  0  0  0  0  0  0  0
    2.0298    1.0689    0.9862 C   0  0  1  0  0  0  0  0  0  0  0  0
   -3.3061    0.6755    0.0648 C   0  0  0  0  0  0  0  0  0  0  0  0
   -2.4752   -1.4091    1.1889 C   0  0  0  0  0  0  0  0  0  0  0  0
    1.7244    1.1715   -1.5402 C   0  0  0  0  0  0  0  0  0  0  0  0
    3.2065   -1.2581   -0.2926 C   0  0  0  0  0  0  0  0  0  0  0  0
   -1.7020   -2.6889    1.0810 C   0  0  0  0  0  0  0  0  0  0  0  0
    3.5366    0.8682    0.8951 C   0  0  0  0  0  0  0  0  0  0  0  0
    4.0478   -0.3624    0.2483 C   0  0  0  0  0  0  0  0  0  0  0  0
   -4.6391    0.7621   -0.0749 C   0  0  0  0  0  0  0  0  0  0  0  0
    3.7644   -2.5243   -0.8819 C   0  0  0  0  0  0  0  0  0  0  0  0
   -0.4285    0.3751    1.0854 H   0  0  0  0  0  0  0  0  0  0  0  0
   -1.1099   -2.3775   -1.8055 H   0  0  0  0  0  0  0  0  0  0  0  0
   -3.1768   -1.2659   -0.8077 H   0  0  0  0  0  0  0  0  0  0  0  0
    1.3991   -1.4939    0.7160 H   0  0  0  0  0  0  0  0  0  0  0  0
   -0.6054    0.0479   -2.8696 H   0  0  0  0  0  0  0  0  0  0  0  0
   -2.3340    0.0607   -2.5980 H   0  0  0  0  0  0  0  0  0  0  0  0
    1.0848   -1.4400   -2.3247 H   0  0  0  0  0  0  0  0  0  0  0  0
    1.2473   -2.8877   -1.3488 H   0  0  0  0  0  0  0  0  0  0  0  0
   -2.9979    2.8014   -0.0723 H   0  0  0  0  0  0  0  0  0  0  0  0
    1.6983    0.5874    1.9153 H   0  0  0  0  0  0  0  0  0  0  0  0
   -3.4867   -1.6678    1.5281 H   0  0  0  0  0  0  0  0  0  0  0  0
   -2.0140   -0.8104    1.9815 H   0  0  0  0  0  0  0  0  0  0  0  0
    1.4528    2.2308   -1.5341 H   0  0  0  0  0  0  0  0  0  0  0  0
    1.3022    0.7306   -2.4420 H   0  0  0  0  0  0  0  0  0  0  0  0
    2.8097    1.1420   -1.6765 H   0  0  0  0  0  0  0  0  0  0  0  0
   -1.1180    3.7737   -0.1645 H   0  0  0  0  0  0  0  0  0  0  0  0
    5.1232   -0.5042    0.2427 H   0  0  0  0  0  0  0  0  0  0  0  0
   -5.1554    1.7118    0.0169 H   0  0  0  0  0  0  0  0  0  0  0  0
   -5.2425   -0.1164   -0.2780 H   0  0  0  0  0  0  0  0  0  0  0  0
   -3.1619    2.1744    2.0986 H   0  0  0  0  0  0  0  0  0  0  0  0
    2.1960    2.7347    1.9783 H   0  0  0  0  0  0  0  0  0  0  0  0
    3.3359   -3.3992   -0.3824 H   0  0  0  0  0  0  0  0  0  0  0  0
    4.8524   -2.5892   -0.7698 H   0  0  0  0  0  0  0  0  0  0  0  0
    3.5465   -2.5800   -1.9531 H   0  0  0  0  0  0  0  0  0  0  0  0
  1 11  1  0  0  0  0
  1 15  1  0  0  0  0
  2 12  1  0  0  0  0
  2 23  1  0  0  0  0
  3 11  1  0  0  0  0
  3 43  1  0  0  0  0
  4 17  1  0  0  0  0
  4 47  1  0  0  0  0
  5 18  1  0  0  0  0
  5 48  1  0  0  0  0
  6 23  2  0  0  0  0
  7 24  2  0  0  0  0
  8  9  1  0  0  0  0
  8 12  1  0  0  0  0
  8 13  1  0  0  0  0
  8 15  1  0  0  0  0
  9 10  1  0  0  0  0
  9 11  1  0  0  0  0
  9 28  1  0  0  0  0
 10 14  1  0  0  0  0
 10 18  1  0  0  0  0
 10 21  1  0  0  0  0
 11 17  1  0  0  0  0
 12 16  1  0  0  0  0
 12 29  1  0  0  0  0
 13 19  1  0  0  0  0
 13 20  1  0  0  0  0
 13 30  1  0  0  0  0
 14 16  1  0  0  0  0
 14 22  1  0  0  0  0
 14 31  1  0  0  0  0
 15 32  1  0  0  0  0
 15 33  1  0  0  0  0
 16 34  1  0  0  0  0
 16 35  1  0  0  0  0
 17 19  1  0  0  0  0
 17 36  1  0  0  0  0
 18 24  1  0  0  0  0
 18 37  1  0  0  0  0
 19 26  2  0  0  0  0
 20 23  1  0  0  0  0
 20 38  1  0  0  0  0
 20 39  1  0  0  0  0
 21 40  1  0  0  0  0
 21 41  1  0  0  0  0
 21 42  1  0  0  0  0
 22 25  2  0  0  0  0
 22 27  1  0  0  0  0
 24 25  1  0  0  0  0
 25 44  1  0  0  0  0
 26 45  1  0  0  0  0
 26 46  1  0  0  0  0
 27 49  1  0  0  0  0
 27 50  1  0  0  0  0
 27 51  1  0  0  0  0
M  END
> <PUBCHEM_COMPOUND_CID>
102004514

> <PUBCHEM_CONFORMER_RMSD>
0.6

> <PUBCHEM_CONFORMER_DIVERSEORDER>
1

> <PUBCHEM_MMFF94_PARTIAL_CHARGES>
28
1 -0.56
11 0.56
12 0.28
13 0.14
14 0.14
15 0.28
17 0.42
18 0.34
19 -0.28
2 -0.43
20 0.06
22 -0.28
23 0.66
24 0.49
25 -0.14
26 -0.3
27 0.14
3 -0.68
4 -0.68
43 0.4
44 0.15
45 0.15
46 0.15
47 0.4
48 0.4
5 -0.68
6 -0.57
7 -0.57

> <PUBCHEM_EFFECTIVE_ROTOR_COUNT>
1.4

> <PUBCHEM_PHARMACOPHORE_FEATURES>
13
1 1 acceptor
1 3 acceptor
1 3 donor
1 4 acceptor
1 4 donor
1 5 acceptor
1 5 donor
1 6 acceptor
1 7 acceptor
6 10 14 18 22 24 25 rings
6 2 8 12 13 20 23 rings
6 8 9 10 12 14 16 rings
8 1 8 9 11 13 15 17 19 rings

> <PUBCHEM_HEAVY_ATOM_COUNT>
27

> <PUBCHEM_ATOM_DEF_STEREO_COUNT>
8

> <PUBCHEM_ATOM_UDEF_STEREO_COUNT>
1

> <PUBCHEM_BOND_DEF_STEREO_COUNT>
0

> <PUBCHEM_BOND_UDEF_STEREO_COUNT>
0

> <PUBCHEM_ISOTOPIC_ATOM_COUNT>
0

> <PUBCHEM_COMPONENT_COUNT>
1

> <PUBCHEM_CACTVS_TAUTO_COUNT>
10

> <PUBCHEM_CONFORMER_ID>
0614772200000001

> <PUBCHEM_MMFF94_ENERGY>
106.6669

> <PUBCHEM_FEATURE_SELFOVERLAP>
66.2

> <PUBCHEM_SHAPE_FINGERPRINT>
10165383 225 17323814265802085068
10366900 7 18343021090532154884
10863032 1 18202280299104298615
10948715 1 18130221558573937693
10967382 1 18272082777951554892
11370993 70 18412822456523822361
11578080 2 16414045664431687994
11640471 11 15626229008914464198
11680986 33 18411704313185491158
12011746 2 18337114441032316415
12035758 1 18334580183163771955
12156800 1 15324851660749962014
12422481 6 18047223931968670331
12553582 1 17687479269829102446
12592029 89 17131552721902523687
12633257 1 18339366240613893394
13140716 1 18263641921600513570
13224815 77 18334574676783712892
14223421 5 18268713981603071824
14787075 74 18272359885231381565
15209289 33 18196657285092216726
15295992 7 18201445735477308794
16945 1 17977110389745481887
19049666 15 18339921520257091166
19591789 44 18126565617876342446
19930381 70 18058726875692703759
20600515 1 17895473738716134079
20691752 17 18334571296517733485
20905425 154 17620476809459066135
21033648 29 18115577150055482740
23419403 2 16158178065067357451
23558518 356 18342465790153345441
23559900 14 18335711511698611278
238 59 17690247470782444533
2748010 2 18341059617390993910
350125 39 18270123387901083300
35225 105 17676482826448140019
392239 28 18339935814055790155
4340502 62 18410013200716297329
598444 67 18263645073869301023
81228 2 18260548965142523551
9709674 26 18413387657109022534
9981440 41 17412140552044105808

> <PUBCHEM_SHAPE_MULTIPOLES>
514.56
6.54
3.41
1.59
2.66
1.3
0.16
-0.64
-1.41
-0.41
-1.13
-0.19
0.09
1.56

> <PUBCHEM_SHAPE_SELFOVERLAP>
1140.331

> <PUBCHEM_SHAPE_VOLUME>
266.4

> <PUBCHEM_COORDINATE_TYPE>
2
5
10

$$$$
