102004839
  -OEChem-03292013293D

 71 75  0     1  0  0  0  0  0999 V2000
   -4.2428   -1.1914    0.8116 O   0  0  0  0  0  0  0  0  0  0  0  0
    0.8188    2.8504    1.0795 O   0  0  0  0  0  0  0  0  0  0  0  0
   -1.1388    3.5241   -0.6980 O   0  0  0  0  0  0  0  0  0  0  0  0
    6.6791   -1.3626   -0.5565 O   0  0  0  0  0  0  0  0  0  0  0  0
    0.2836   -2.7641   -0.1016 O   0  0  0  0  0  0  0  0  0  0  0  0
   -4.7862   -3.2580   -0.0223 O   0  0  0  0  0  0  0  0  0  0  0  0
   -1.8669    0.1726    0.1066 C   0  0  1  0  0  0  0  0  0  0  0  0
   -0.8813    1.0774   -0.6948 C   0  0  2  0  0  0  0  0  0  0  0  0
    2.4445   -0.7802    0.3542 C   0  0  1  0  0  0  0  0  0  0  0  0
   -3.2573    0.6659   -0.3723 C   0  0  2  0  0  0  0  0  0  0  0  0
    3.3470    0.4313   -0.1170 C   0  0  2  0  0  0  0  0  0  0  0  0
    0.5214    0.8269   -0.1714 C   0  0  0  0  0  0  0  0  0  0  0  0
    0.9636   -0.4497    0.0013 C   0  0  0  0  0  0  0  0  0  0  0  0
    4.9085    0.2506   -0.0347 C   0  0  0  0  0  0  0  0  0  0  0  0
   -1.5509   -1.2780   -0.2325 C   0  0  0  0  0  0  0  0  0  0  0  0
    2.8351    1.7307    0.5109 C   0  0  0  0  0  0  0  0  0  0  0  0
   -3.1205    2.1985   -0.3390 C   0  0  0  0  0  0  0  0  0  0  0  0
    1.4035    2.0316    0.0652 C   0  0  2  0  0  0  0  0  0  0  0  0
   -1.6322    2.4118   -0.5618 C   0  0  0  0  0  0  0  0  0  0  0  0
   -4.4706    0.1747    0.4209 C   0  0  1  0  0  0  0  0  0  0  0  0
    2.9807   -2.0489   -0.3672 C   0  0  0  0  0  0  0  0  0  0  0  0
   -0.0583   -1.5815   -0.1120 C   0  0  0  0  0  0  0  0  0  0  0  0
    5.2904   -1.0837   -0.7300 C   0  0  2  0  0  0  0  0  0  0  0  0
   -1.7456    0.3518    1.6561 C   0  0  0  0  0  0  0  0  0  0  0  0
   -0.8317    0.8493   -2.2330 C   0  0  0  0  0  0  0  0  0  0  0  0
    4.4838   -2.2701   -0.2248 C   0  0  0  0  0  0  0  0  0  0  0  0
    2.4456   -1.0326    1.8790 C   0  0  0  0  0  0  0  0  0  0  0  0
   -5.7333    0.1089   -0.4235 C   0  0  0  0  0  0  0  0  0  0  0  0
    5.4810    0.3257    1.3962 C   0  0  0  0  0  0  0  0  0  0  0  0
    5.6068    1.3912   -0.8301 C   0  0  0  0  0  0  0  0  0  0  0  0
   -4.6653    1.0199    1.6757 C   0  0  0  0  0  0  0  0  0  0  0  0
   -5.6411   -1.2521   -1.0757 C   0  0  0  0  0  0  0  0  0  0  0  0
   -4.8707   -2.0401   -0.0589 C   0  0  0  0  0  0  0  0  0  0  0  0
   -3.3799    0.3487   -1.4159 H   0  0  0  0  0  0  0  0  0  0  0  0
    3.1509    0.5291   -1.1994 H   0  0  0  0  0  0  0  0  0  0  0  0
   -1.8656   -1.5385   -1.2490 H   0  0  0  0  0  0  0  0  0  0  0  0
   -2.0476   -1.9673    0.4572 H   0  0  0  0  0  0  0  0  0  0  0  0
    3.4499    2.5899    0.2232 H   0  0  0  0  0  0  0  0  0  0  0  0
    2.9000    1.6968    1.6043 H   0  0  0  0  0  0  0  0  0  0  0  0
   -3.3499    2.6973    0.6024 H   0  0  0  0  0  0  0  0  0  0  0  0
   -3.6887    2.6580   -1.1526 H   0  0  0  0  0  0  0  0  0  0  0  0
    1.4413    2.6151   -0.8630 H   0  0  0  0  0  0  0  0  0  0  0  0
    2.7293   -1.9992   -1.4351 H   0  0  0  0  0  0  0  0  0  0  0  0
    2.5123   -2.9553    0.0282 H   0  0  0  0  0  0  0  0  0  0  0  0
    5.1202   -0.9857   -1.8105 H   0  0  0  0  0  0  0  0  0  0  0  0
   -2.4239   -0.2988    2.2137 H   0  0  0  0  0  0  0  0  0  0  0  0
   -0.7544    0.0563    2.0185 H   0  0  0  0  0  0  0  0  0  0  0  0
   -1.8512    1.3941    1.9701 H   0  0  0  0  0  0  0  0  0  0  0  0
   -1.7973    1.0158   -2.7220 H   0  0  0  0  0  0  0  0  0  0  0  0
   -0.4945   -0.1553   -2.5079 H   0  0  0  0  0  0  0  0  0  0  0  0
   -0.1331    1.5573   -2.6984 H   0  0  0  0  0  0  0  0  0  0  0  0
    4.7489   -2.5029    0.8128 H   0  0  0  0  0  0  0  0  0  0  0  0
    4.7682   -3.1662   -0.7919 H   0  0  0  0  0  0  0  0  0  0  0  0
    3.4169   -1.3409    2.2618 H   0  0  0  0  0  0  0  0  0  0  0  0
    1.7537   -1.8431    2.1413 H   0  0  0  0  0  0  0  0  0  0  0  0
    2.1246   -0.1553    2.4494 H   0  0  0  0  0  0  0  0  0  0  0  0
   -5.8287    0.9248   -1.1464 H   0  0  0  0  0  0  0  0  0  0  0  0
   -6.6256    0.1304    0.2156 H   0  0  0  0  0  0  0  0  0  0  0  0
    6.6837    1.2106   -0.9273 H   0  0  0  0  0  0  0  0  0  0  0  0
    6.5750    0.4046    1.3780 H   0  0  0  0  0  0  0  0  0  0  0  0
    5.4970    2.3625   -0.3379 H   0  0  0  0  0  0  0  0  0  0  0  0
    5.1977    1.4775   -1.8429 H   0  0  0  0  0  0  0  0  0  0  0  0
    5.2555   -0.5576    1.9927 H   0  0  0  0  0  0  0  0  0  0  0  0
    5.1154    1.2047    1.9357 H   0  0  0  0  0  0  0  0  0  0  0  0
   -5.1321    1.9841    1.4418 H   0  0  0  0  0  0  0  0  0  0  0  0
   -3.8209    1.2063    2.3269 H   0  0  0  0  0  0  0  0  0  0  0  0
   -5.3824    0.5037    2.3300 H   0  0  0  0  0  0  0  0  0  0  0  0
   -5.0771   -1.2235   -2.0119 H   0  0  0  0  0  0  0  0  0  0  0  0
   -6.6313   -1.6843   -1.2379 H   0  0  0  0  0  0  0  0  0  0  0  0
    1.3524    3.6607    1.1457 H   0  0  0  0  0  0  0  0  0  0  0  0
    6.8779   -2.1819   -1.0409 H   0  0  0  0  0  0  0  0  0  0  0  0
  1 20  1  0  0  0  0
  1 33  1  0  0  0  0
  2 18  1  0  0  0  0
  2 70  1  0  0  0  0
  3 19  2  0  0  0  0
  4 23  1  0  0  0  0
  4 71  1  0  0  0  0
  5 22  2  0  0  0  0
  6 33  2  0  0  0  0
  7  8  1  0  0  0  0
  7 10  1  0  0  0  0
  7 15  1  0  0  0  0
  7 24  1  0  0  0  0
  8 12  1  0  0  0  0
  8 19  1  0  0  0  0
  8 25  1  0  0  0  0
  9 11  1  0  0  0  0
  9 13  1  0  0  0  0
  9 21  1  0  0  0  0
  9 27  1  0  0  0  0
 10 17  1  0  0  0  0
 10 20  1  0  0  0  0
 10 34  1  0  0  0  0
 11 14  1  0  0  0  0
 11 16  1  0  0  0  0
 11 35  1  0  0  0  0
 12 13  2  0  0  0  0
 12 18  1  0  0  0  0
 13 22  1  0  0  0  0
 14 23  1  0  0  0  0
 14 29  1  0  0  0  0
 14 30  1  0  0  0  0
 15 22  1  0  0  0  0
 15 36  1  0  0  0  0
 15 37  1  0  0  0  0
 16 18  1  0  0  0  0
 16 38  1  0  0  0  0
 16 39  1  0  0  0  0
 17 19  1  0  0  0  0
 17 40  1  0  0  0  0
 17 41  1  0  0  0  0
 18 42  1  0  0  0  0
 20 28  1  0  0  0  0
 20 31  1  0  0  0  0
 21 26  1  0  0  0  0
 21 43  1  0  0  0  0
 21 44  1  0  0  0  0
 23 26  1  0  0  0  0
 23 45  1  0  0  0  0
 24 46  1  0  0  0  0
 24 47  1  0  0  0  0
 24 48  1  0  0  0  0
 25 49  1  0  0  0  0
 25 50  1  0  0  0  0
 25 51  1  0  0  0  0
 26 52  1  0  0  0  0
 26 53  1  0  0  0  0
 27 54  1  0  0  0  0
 27 55  1  0  0  0  0
 27 56  1  0  0  0  0
 28 32  1  0  0  0  0
 28 57  1  0  0  0  0
 28 58  1  0  0  0  0
 29 60  1  0  0  0  0
 29 63  1  0  0  0  0
 29 64  1  0  0  0  0
 30 59  1  0  0  0  0
 30 61  1  0  0  0  0
 30 62  1  0  0  0  0
 31 65  1  0  0  0  0
 31 66  1  0  0  0  0
 31 67  1  0  0  0  0
 32 33  1  0  0  0  0
 32 68  1  0  0  0  0
 32 69  1  0  0  0  0
M  END
> <PUBCHEM_COMPOUND_CID>
102004839

> <PUBCHEM_CONFORMER_RMSD>
0.8

> <PUBCHEM_CONFORMER_DIVERSEORDER>
1
4
2
3

> <PUBCHEM_MMFF94_PARTIAL_CHARGES>
21
1 -0.43
12 -0.28
13 -0.12
15 0.06
17 0.06
18 0.42
19 0.45
2 -0.68
20 0.28
22 0.49
23 0.28
3 -0.57
32 0.06
33 0.66
4 -0.68
5 -0.57
6 -0.57
70 0.4
71 0.4
8 0.2
9 0.14

> <PUBCHEM_EFFECTIVE_ROTOR_COUNT>
3.6

> <PUBCHEM_PHARMACOPHORE_FEATURES>
13
1 2 acceptor
1 2 donor
1 3 acceptor
1 4 acceptor
1 4 donor
1 5 acceptor
1 6 acceptor
3 14 29 30 hydrophobe
5 1 20 28 32 33 rings
5 7 8 10 17 19 rings
6 7 8 12 13 15 22 rings
6 9 11 12 13 16 18 rings
6 9 11 14 21 23 26 rings

> <PUBCHEM_HEAVY_ATOM_COUNT>
33

> <PUBCHEM_ATOM_DEF_STEREO_COUNT>
7

> <PUBCHEM_ATOM_UDEF_STEREO_COUNT>
1

> <PUBCHEM_BOND_DEF_STEREO_COUNT>
0

> <PUBCHEM_BOND_UDEF_STEREO_COUNT>
0

> <PUBCHEM_ISOTOPIC_ATOM_COUNT>
0

> <PUBCHEM_COMPONENT_COUNT>
1

> <PUBCHEM_CACTVS_TAUTO_COUNT>
8

> <PUBCHEM_CONFORMER_ID>
0614786700000001

> <PUBCHEM_MMFF94_ENERGY>
137.7942

> <PUBCHEM_FEATURE_SELFOVERLAP>
66.071

> <PUBCHEM_SHAPE_FINGERPRINT>
10 15 18337379535837372640
10366900 7 17749392555146032296
10675989 125 16676106186764575469
11488393 25 17559128583198944110
11552529 35 18060415850644933207
11963148 33 18336819883860574274
12011746 2 18333730217177194949
12107698 1 18261110730344094306
12166972 35 17917993905695511136
12236239 1 17561365071347839761
12403259 226 18411695487117758449
12422481 6 17560805428566768335
12516196 113 18343299266852792913
12596602 18 17418094325624559122
12633257 1 18271252621240377729
12788726 201 18115020797556612297
13140716 1 18121491621202178072
13224815 77 18041556949252095868
13402501 40 18410856559914382030
13544653 18 18187368727162433669
13782708 43 18060140920987684318
14787075 74 18260551142869810064
14790565 3 18410862066041317540
14840074 17 18333736823011151679
14955137 171 17917712409386518144
15131766 46 15408893042430526632
15196674 1 18338234869171903124
15361156 5 18188221969180253141
15484559 13 15242861607296532046
15927050 60 17547294865955648748
17349148 13 17458351835589274767
17492 89 18195526983493196998
17980427 23 17676498220054190133
1813 80 17458348549960672180
18608769 82 18411699894444962854
19319366 153 17967527991691934130
19591789 44 18410855464428462422
20028762 73 18130500937596851663
21033648 29 18200015266971667872
21236236 1 18411420575130261205
21267235 1 18410580582231825839
21682296 61 18201727193469601958
221357 26 18411698764551910012
22393880 68 18262230019541745053
22950370 63 18341898471938199780
23522609 53 18125191344433249376
23559900 14 18339071692411055745
23569914 152 17108437526023146023
3004659 81 18260831488918903350
335352 9 18410009915266704893
350125 39 18410855490251273540
3633792 109 18269549461103010221
392239 28 18408324371550115912
4073 2 18261398879088384931
5104073 3 18342454790356563354
59755656 215 18335698317147575687

> <PUBCHEM_SHAPE_MULTIPOLES>
643.91
13.48
3.05
1.31
3.65
0.18
0.19
-5.14
-0.47
-1
-0.3
-0.16
0.25
0.07

> <PUBCHEM_SHAPE_SELFOVERLAP>
1404.864

> <PUBCHEM_SHAPE_VOLUME>
346.6

> <PUBCHEM_COORDINATE_TYPE>
2
5
10

$$$$
