102005084
  -OEChem-03292013293D

 73 75  0     1  0  0  0  0  0999 V2000
   -2.9908   -0.1802    0.7920 O   0  0  0  0  0  0  0  0  0  0  0  0
   -1.3101    2.1709    1.4073 O   0  0  0  0  0  0  0  0  0  0  0  0
   -2.6705    2.2504   -1.9469 O   0  0  0  0  0  0  0  0  0  0  0  0
   -0.4192    0.1316    2.2276 O   0  0  0  0  0  0  0  0  0  0  0  0
    3.3221    0.4395    0.5684 O   0  0  0  0  0  0  0  0  0  0  0  0
   -4.5563   -2.6335   -2.2041 O   0  0  0  0  0  0  0  0  0  0  0  0
    4.1766   -1.5349    1.4921 O   0  0  0  0  0  0  0  0  0  0  0  0
    3.1847   -2.9769   -0.6105 O   0  0  0  0  0  0  0  0  0  0  0  0
   -5.4437   -3.7996    0.2138 O   0  0  0  0  0  0  0  0  0  0  0  0
    1.3574   -2.5857    1.3953 O   0  0  0  0  0  0  0  0  0  0  0  0
    0.5916   -0.6996    0.2777 N   0  0  0  0  0  0  0  0  0  0  0  0
   -4.1135    1.8684    0.0119 C   0  0  0  0  0  0  0  0  0  0  0  0
   -2.7389    2.3692   -0.5241 C   0  0  1  0  0  0  0  0  0  0  0  0
   -4.1532    0.3161    0.1143 C   0  0  1  0  0  0  0  0  0  0  0  0
   -1.5324    1.6476    0.0953 C   0  0  2  0  0  0  0  0  0  0  0  0
   -1.7407    0.1280    0.1622 C   0  0  1  0  0  0  0  0  0  0  0  0
   -0.6489   -0.5562    0.9962 C   0  0  2  0  0  0  0  0  0  0  0  0
   -4.3958   -0.4632   -1.1800 C   0  0  0  0  0  0  0  0  0  0  0  0
   -5.2639    2.4040   -0.8656 C   0  0  0  0  0  0  0  0  0  0  0  0
   -4.3388    2.4371    1.4383 C   0  0  0  0  0  0  0  0  0  0  0  0
   -4.3772   -1.9728   -0.9515 C   0  0  1  0  0  0  0  0  0  0  0  0
   -0.2102    1.5281    2.0399 C   0  0  0  0  0  0  0  0  0  0  0  0
    3.8539   -0.8607    0.2716 C   0  0  1  0  0  0  0  0  0  0  0  0
    2.7195   -1.6590   -0.3717 C   0  0  2  0  0  0  0  0  0  0  0  0
    1.5019   -1.7145    0.5404 C   0  0  0  0  0  0  0  0  0  0  0  0
   -5.5027   -2.3948   -0.0108 C   0  0  0  0  0  0  0  0  0  0  0  0
    5.1056   -0.8384   -0.6305 C   0  0  0  0  0  0  0  0  0  0  0  0
    4.4261    1.5359   -1.3057 C   0  0  1  0  0  0  0  0  0  0  0  0
    4.1854    1.5272    0.2245 C   0  0  1  0  0  0  0  0  0  0  0  0
    4.9992    0.1907   -1.7247 C   0  0  0  0  0  0  0  0  0  0  0  0
    3.1547    1.8660   -2.1024 C   0  0  0  0  0  0  0  0  0  0  0  0
    3.5456    2.8080    0.7497 C   0  0  0  0  0  0  0  0  0  0  0  0
    5.4139   -0.0721   -2.9736 C   0  0  0  0  0  0  0  0  0  0  0  0
    4.8683   -0.6768    2.3839 C   0  0  0  0  0  0  0  0  0  0  0  0
   -2.6580    3.4436   -0.3128 H   0  0  0  0  0  0  0  0  0  0  0  0
   -4.9931    0.0902    0.7806 H   0  0  0  0  0  0  0  0  0  0  0  0
   -0.6387    1.8635   -0.5051 H   0  0  0  0  0  0  0  0  0  0  0  0
   -1.7376   -0.3014   -0.8458 H   0  0  0  0  0  0  0  0  0  0  0  0
   -0.9879   -1.5610    1.2751 H   0  0  0  0  0  0  0  0  0  0  0  0
   -5.3583   -0.1839   -1.6258 H   0  0  0  0  0  0  0  0  0  0  0  0
   -3.6449   -0.2146   -1.9380 H   0  0  0  0  0  0  0  0  0  0  0  0
   -5.3530    2.2155    1.7921 H   0  0  0  0  0  0  0  0  0  0  0  0
   -4.2203    3.5264    1.4542 H   0  0  0  0  0  0  0  0  0  0  0  0
   -6.2356    2.0573   -0.4958 H   0  0  0  0  0  0  0  0  0  0  0  0
   -5.1766    2.0880   -1.9098 H   0  0  0  0  0  0  0  0  0  0  0  0
   -3.6495    2.0118    2.1732 H   0  0  0  0  0  0  0  0  0  0  0  0
   -5.2793    3.5001   -0.8602 H   0  0  0  0  0  0  0  0  0  0  0  0
   -3.4149   -2.3159   -0.5565 H   0  0  0  0  0  0  0  0  0  0  0  0
   -1.8317    2.6478   -2.2365 H   0  0  0  0  0  0  0  0  0  0  0  0
    0.7159    1.7127    1.4849 H   0  0  0  0  0  0  0  0  0  0  0  0
   -0.0909    1.9773    3.0301 H   0  0  0  0  0  0  0  0  0  0  0  0
    0.8359    0.0151   -0.4012 H   0  0  0  0  0  0  0  0  0  0  0  0
    2.4229   -1.2298   -1.3348 H   0  0  0  0  0  0  0  0  0  0  0  0
   -5.4292   -1.9215    0.9702 H   0  0  0  0  0  0  0  0  0  0  0  0
   -6.4813   -2.1729   -0.4495 H   0  0  0  0  0  0  0  0  0  0  0  0
    5.3191   -1.8378   -1.0291 H   0  0  0  0  0  0  0  0  0  0  0  0
    6.0047   -0.5904   -0.0549 H   0  0  0  0  0  0  0  0  0  0  0  0
    5.1731    2.3112   -1.5229 H   0  0  0  0  0  0  0  0  0  0  0  0
    5.1455    1.4257    0.7436 H   0  0  0  0  0  0  0  0  0  0  0  0
   -3.8196   -2.3708   -2.7819 H   0  0  0  0  0  0  0  0  0  0  0  0
    2.3420    1.1672   -1.8813 H   0  0  0  0  0  0  0  0  0  0  0  0
    3.3356    1.8344   -3.1821 H   0  0  0  0  0  0  0  0  0  0  0  0
    2.8011    2.8773   -1.8779 H   0  0  0  0  0  0  0  0  0  0  0  0
    4.1283    3.6893    0.4657 H   0  0  0  0  0  0  0  0  0  0  0  0
    3.4826    2.7726    1.8432 H   0  0  0  0  0  0  0  0  0  0  0  0
    2.5185    2.9273    0.3916 H   0  0  0  0  0  0  0  0  0  0  0  0
    3.5149   -3.3364    0.2307 H   0  0  0  0  0  0  0  0  0  0  0  0
   -6.1825   -4.0258    0.8043 H   0  0  0  0  0  0  0  0  0  0  0  0
    5.3582    0.6757   -3.7571 H   0  0  0  0  0  0  0  0  0  0  0  0
    5.8285   -1.0392   -3.2381 H   0  0  0  0  0  0  0  0  0  0  0  0
    4.2346    0.1409    2.7401 H   0  0  0  0  0  0  0  0  0  0  0  0
    5.8125   -0.3054    1.9818 H   0  0  0  0  0  0  0  0  0  0  0  0
    5.1223   -1.2735    3.2664 H   0  0  0  0  0  0  0  0  0  0  0  0
  1 14  1  0  0  0  0
  1 16  1  0  0  0  0
  2 15  1  0  0  0  0
  2 22  1  0  0  0  0
  3 13  1  0  0  0  0
  3 49  1  0  0  0  0
  4 17  1  0  0  0  0
  4 22  1  0  0  0  0
  5 23  1  0  0  0  0
  5 29  1  0  0  0  0
  6 21  1  0  0  0  0
  6 60  1  0  0  0  0
  7 23  1  0  0  0  0
  7 34  1  0  0  0  0
  8 24  1  0  0  0  0
  8 67  1  0  0  0  0
  9 26  1  0  0  0  0
  9 68  1  0  0  0  0
 10 25  2  0  0  0  0
 11 17  1  0  0  0  0
 11 25  1  0  0  0  0
 11 52  1  0  0  0  0
 12 13  1  0  0  0  0
 12 14  1  0  0  0  0
 12 19  1  0  0  0  0
 12 20  1  0  0  0  0
 13 15  1  0  0  0  0
 13 35  1  0  0  0  0
 14 18  1  0  0  0  0
 14 36  1  0  0  0  0
 15 16  1  0  0  0  0
 15 37  1  0  0  0  0
 16 17  1  0  0  0  0
 16 38  1  0  0  0  0
 17 39  1  0  0  0  0
 18 21  1  0  0  0  0
 18 40  1  0  0  0  0
 18 41  1  0  0  0  0
 19 44  1  0  0  0  0
 19 45  1  0  0  0  0
 19 47  1  0  0  0  0
 20 42  1  0  0  0  0
 20 43  1  0  0  0  0
 20 46  1  0  0  0  0
 21 26  1  0  0  0  0
 21 48  1  0  0  0  0
 22 50  1  0  0  0  0
 22 51  1  0  0  0  0
 23 24  1  0  0  0  0
 23 27  1  0  0  0  0
 24 25  1  0  0  0  0
 24 53  1  0  0  0  0
 26 54  1  0  0  0  0
 26 55  1  0  0  0  0
 27 30  1  0  0  0  0
 27 56  1  0  0  0  0
 27 57  1  0  0  0  0
 28 29  1  0  0  0  0
 28 30  1  0  0  0  0
 28 31  1  0  0  0  0
 28 58  1  0  0  0  0
 29 32  1  0  0  0  0
 29 59  1  0  0  0  0
 30 33  2  0  0  0  0
 31 61  1  0  0  0  0
 31 62  1  0  0  0  0
 31 63  1  0  0  0  0
 32 64  1  0  0  0  0
 32 65  1  0  0  0  0
 32 66  1  0  0  0  0
 33 69  1  0  0  0  0
 33 70  1  0  0  0  0
 34 71  1  0  0  0  0
 34 72  1  0  0  0  0
 34 73  1  0  0  0  0
M  END
> <PUBCHEM_COMPOUND_CID>
102005084

> <PUBCHEM_CONFORMER_RMSD>
1.2

> <PUBCHEM_CONFORMER_DIVERSEORDER>
1
125
82
129
100
45
60
127
19
25
76
58
22
102
107
128
117
81
84
65
98
31
131
37
74
114
20
96
70
109
89
83
64
9
38
92
26
28
48
78
56
34
7
108
105
27
90
12
8
130
85
41
55
68
44
47
75
106
29
40
112
110
18
126
71
97
69
113
79
61
99
124
53
72
39
63
52
104
103
73
120
57
50
94
101
46
11
123
62
4
95
51
42
122
23
6
91
93
21
66
119
59
67
36
30
86
15
32
16
111
3
80
87
49
118
17
35
88
115
43
121
14
54
10
116
77
33
13
5
24
2

> <PUBCHEM_MMFF94_PARTIAL_CHARGES>
35
1 -0.56
10 -0.57
11 -0.73
13 0.28
14 0.28
15 0.28
16 0.28
17 0.58
2 -0.56
21 0.28
22 0.56
23 0.56
24 0.34
25 0.57
26 0.28
27 0.14
28 0.14
29 0.28
3 -0.68
30 -0.28
33 -0.3
34 0.28
4 -0.56
49 0.4
5 -0.56
52 0.37
6 -0.68
60 0.4
67 0.4
68 0.4
69 0.15
7 -0.56
70 0.15
8 -0.68
9 -0.68

> <PUBCHEM_EFFECTIVE_ROTOR_COUNT>
10.6

> <PUBCHEM_PHARMACOPHORE_FEATURES>
19
1 1 acceptor
1 10 acceptor
1 11 donor
1 2 acceptor
1 3 acceptor
1 3 donor
1 4 acceptor
1 5 acceptor
1 6 acceptor
1 6 donor
1 7 acceptor
1 8 acceptor
1 8 donor
1 9 acceptor
1 9 donor
3 12 19 20 hydrophobe
6 1 12 13 14 15 16 rings
6 2 4 15 16 17 22 rings
6 5 23 27 28 29 30 rings

> <PUBCHEM_HEAVY_ATOM_COUNT>
34

> <PUBCHEM_ATOM_DEF_STEREO_COUNT>
10

> <PUBCHEM_ATOM_UDEF_STEREO_COUNT>
0

> <PUBCHEM_BOND_DEF_STEREO_COUNT>
0

> <PUBCHEM_BOND_UDEF_STEREO_COUNT>
0

> <PUBCHEM_ISOTOPIC_ATOM_COUNT>
0

> <PUBCHEM_COMPONENT_COUNT>
1

> <PUBCHEM_CACTVS_TAUTO_COUNT>
2

> <PUBCHEM_CONFORMER_ID>
0614795C00000001

> <PUBCHEM_MMFF94_ENERGY>
108.3461

> <PUBCHEM_FEATURE_SELFOVERLAP>
96.623

> <PUBCHEM_SHAPE_FINGERPRINT>
10670039 82 18334304192696845990
12166972 35 18334852776311599146
12616971 3 18041278751298470072
1361 2 17898294050223789556
13690498 29 18201721799459929855
14251764 30 16487262096643941391
14790565 3 17911805670183405833
15001296 14 18125715935932783007
15082195 135 17605001484330860710
17349148 13 17894349968833364936
1813 80 14692563321204563001
21033648 144 16515694355100071190
21033648 29 13262399955490872582
22393880 68 18412831282840098468
23559900 14 18127406752920067618
249057 3 18050002190828082447
25223398 141 18202558484685440606
2838139 119 17749116590955552540
329604 57 18337383946099014995
460360 51 11599736038294465049
474 4 17895485734586191168
508706 21 17313105215726116429
513202 73 14404918946633793947
57724786 102 16371020568057086660
6898599 12 18335137554081724605
7237137 82 18413105061583294975

> <PUBCHEM_SHAPE_MULTIPOLES>
636.03
14.47
3.67
2.23
1.55
1.15
-0.38
2.67
-5.1
4
-0.17
-2.21
-0.25
-1.55

> <PUBCHEM_SHAPE_SELFOVERLAP>
1312.242

> <PUBCHEM_SHAPE_VOLUME>
358.3

> <PUBCHEM_COORDINATE_TYPE>
2
5
10

$$$$
