102057059
  -OEChem-03292013293D

 52 57  0     1  0  0  0  0  0999 V2000
    1.7295   -0.5739    1.5171 O   0  0  0  0  0  0  0  0  0  0  0  0
   -1.3711    2.4721    0.0831 O   0  0  0  0  0  0  0  0  0  0  0  0
    3.0432    3.0721    0.7798 O   0  0  0  0  0  0  0  0  0  0  0  0
    2.5060   -3.3602    1.1199 O   0  0  0  0  0  0  0  0  0  0  0  0
    4.8256   -0.4853   -1.4839 O   0  0  0  0  0  0  0  0  0  0  0  0
   -3.3979    0.9216    0.5292 N   0  0  2  0  0  0  0  0  0  0  0  0
    2.6250    0.1069   -0.9728 N   0  0  0  0  0  0  0  0  0  0  0  0
    4.2741    1.4221   -0.2781 N   0  0  0  0  0  0  0  0  0  0  0  0
   -0.3583    0.4134    0.8129 C   0  0  1  0  0  0  0  0  0  0  0  0
   -1.1009    1.1124   -0.3042 C   0  0  1  0  0  0  0  0  0  0  0  0
    1.1464    0.6847    1.0116 C   0  0  2  0  0  0  0  0  0  0  0  0
   -2.4114    0.2296   -0.2993 C   0  0  3  0  0  0  0  0  0  0  0  0
    1.9128    1.1652   -0.2698 C   0  0  2  0  0  0  0  0  0  0  0  0
   -1.2399    0.6027    2.1271 C   0  0  0  0  0  0  0  0  0  0  0  0
   -0.2733    1.2474   -1.5891 C   0  0  0  0  0  0  0  0  0  0  0  0
   -0.1957   -1.0386    0.3757 C   0  0  0  0  0  0  0  0  0  0  0  0
    1.0559    1.9570   -1.2718 C   0  0  0  0  0  0  0  0  0  0  0  0
   -2.2402   -1.0503   -1.1544 C   0  0  0  0  0  0  0  0  0  0  0  0
   -2.7977    1.0258    1.9237 C   0  0  0  0  0  0  0  0  0  0  0  0
   -1.0054   -1.7573   -0.5376 C   0  0  0  0  0  0  0  0  0  0  0  0
    0.9793   -1.5430    0.8878 C   0  0  0  0  0  0  0  0  0  0  0  0
    3.1180    2.0216    0.1554 C   0  0  0  0  0  0  0  0  0  0  0  0
   -4.7094    0.2887    0.5321 C   0  0  0  0  0  0  0  0  0  0  0  0
   -0.6259   -3.0642   -0.8261 C   0  0  0  0  0  0  0  0  0  0  0  0
    1.3541   -2.8426    0.6256 C   0  0  0  0  0  0  0  0  0  0  0  0
    4.0088    0.2644   -0.9673 C   0  0  0  0  0  0  0  0  0  0  0  0
    0.5358   -3.6038   -0.2294 C   0  0  0  0  0  0  0  0  0  0  0  0
   -5.4815    0.6138   -0.7096 C   0  0  0  0  0  0  0  0  0  0  0  0
   -5.9060   -0.3021   -1.5876 C   0  0  0  0  0  0  0  0  0  0  0  0
    1.2763    1.4294    1.8062 H   0  0  0  0  0  0  0  0  0  0  0  0
   -2.3869   -0.4888    0.5327 H   0  0  0  0  0  0  0  0  0  0  0  0
   -0.7932    1.3915    2.7453 H   0  0  0  0  0  0  0  0  0  0  0  0
   -1.2157   -0.3197    2.7216 H   0  0  0  0  0  0  0  0  0  0  0  0
   -0.8229    1.8528   -2.3205 H   0  0  0  0  0  0  0  0  0  0  0  0
   -0.0575    0.2911   -2.0732 H   0  0  0  0  0  0  0  0  0  0  0  0
    1.6057    2.1081   -2.2106 H   0  0  0  0  0  0  0  0  0  0  0  0
    0.8569    2.9638   -0.8836 H   0  0  0  0  0  0  0  0  0  0  0  0
   -2.0796   -0.8176   -2.2108 H   0  0  0  0  0  0  0  0  0  0  0  0
   -3.1134   -1.7078   -1.0736 H   0  0  0  0  0  0  0  0  0  0  0  0
   -3.3761    0.4203    2.6342 H   0  0  0  0  0  0  0  0  0  0  0  0
   -2.9130    2.0678    2.2463 H   0  0  0  0  0  0  0  0  0  0  0  0
   -2.0339    2.8222   -0.5367 H   0  0  0  0  0  0  0  0  0  0  0  0
    2.1629   -0.6662   -1.4411 H   0  0  0  0  0  0  0  0  0  0  0  0
   -5.3034    0.6929    1.3628 H   0  0  0  0  0  0  0  0  0  0  0  0
   -4.6451   -0.7931    0.7050 H   0  0  0  0  0  0  0  0  0  0  0  0
   -1.2126   -3.6737   -1.5071 H   0  0  0  0  0  0  0  0  0  0  0  0
    5.2041    1.7924   -0.1195 H   0  0  0  0  0  0  0  0  0  0  0  0
    0.8116   -4.6285   -0.4713 H   0  0  0  0  0  0  0  0  0  0  0  0
   -5.7093    1.6598   -0.9005 H   0  0  0  0  0  0  0  0  0  0  0  0
    2.5972   -4.2772    0.8087 H   0  0  0  0  0  0  0  0  0  0  0  0
   -6.4622   -0.0017   -2.4688 H   0  0  0  0  0  0  0  0  0  0  0  0
   -5.7091   -1.3588   -1.4453 H   0  0  0  0  0  0  0  0  0  0  0  0
  1 11  1  0  0  0  0
  1 21  1  0  0  0  0
  2 10  1  0  0  0  0
  2 42  1  0  0  0  0
  3 22  2  0  0  0  0
  4 25  1  0  0  0  0
  4 50  1  0  0  0  0
  5 26  2  0  0  0  0
  6 12  1  0  0  0  0
  6 19  1  0  0  0  0
  6 23  1  0  0  0  0
  7 13  1  0  0  0  0
  7 26  1  0  0  0  0
  7 43  1  0  0  0  0
  8 22  1  0  0  0  0
  8 26  1  0  0  0  0
  8 47  1  0  0  0  0
  9 10  1  0  0  0  0
  9 11  1  0  0  0  0
  9 14  1  0  0  0  0
  9 16  1  0  0  0  0
 10 12  1  0  0  0  0
 10 15  1  0  0  0  0
 11 13  1  0  0  0  0
 11 30  1  0  0  0  0
 12 18  1  0  0  0  0
 12 31  1  0  0  0  0
 13 17  1  0  0  0  0
 13 22  1  0  0  0  0
 14 19  1  0  0  0  0
 14 32  1  0  0  0  0
 14 33  1  0  0  0  0
 15 17  1  0  0  0  0
 15 34  1  0  0  0  0
 15 35  1  0  0  0  0
 16 20  2  0  0  0  0
 16 21  1  0  0  0  0
 17 36  1  0  0  0  0
 17 37  1  0  0  0  0
 18 20  1  0  0  0  0
 18 38  1  0  0  0  0
 18 39  1  0  0  0  0
 19 40  1  0  0  0  0
 19 41  1  0  0  0  0
 20 24  1  0  0  0  0
 21 25  2  0  0  0  0
 23 28  1  0  0  0  0
 23 44  1  0  0  0  0
 23 45  1  0  0  0  0
 24 27  2  0  0  0  0
 24 46  1  0  0  0  0
 25 27  1  0  0  0  0
 27 48  1  0  0  0  0
 28 29  2  0  0  0  0
 28 49  1  0  0  0  0
 29 51  1  0  0  0  0
 29 52  1  0  0  0  0
M  END
> <PUBCHEM_COMPOUND_CID>
102057059

> <PUBCHEM_CONFORMER_RMSD>
0.8

> <PUBCHEM_CONFORMER_DIVERSEORDER>
1
6
7
5
4
3
2
8

> <PUBCHEM_MMFF94_PARTIAL_CHARGES>
35
1 -0.36
10 0.28
11 0.28
12 0.27
13 0.36
16 -0.14
18 0.14
19 0.27
2 -0.68
20 -0.14
21 0.08
22 0.57
23 0.41
24 -0.15
25 0.08
26 0.69
27 -0.15
28 -0.29
29 -0.3
3 -0.57
4 -0.53
42 0.4
43 0.37
46 0.15
47 0.37
48 0.15
49 0.15
5 -0.57
50 0.45
51 0.15
52 0.15
6 -0.81
7 -0.73
8 -0.49
9 0.14

> <PUBCHEM_EFFECTIVE_ROTOR_COUNT>
3.8

> <PUBCHEM_PHARMACOPHORE_FEATURES>
16
1 1 acceptor
1 2 acceptor
1 2 donor
1 29 hydrophobe
1 3 acceptor
1 4 donor
1 5 acceptor
1 6 cation
1 7 donor
1 8 donor
5 1 9 11 16 21 rings
5 7 8 13 22 26 rings
6 16 20 21 24 25 27 rings
6 6 9 10 12 14 19 rings
6 9 10 11 13 15 17 rings
6 9 10 12 16 18 20 rings

> <PUBCHEM_HEAVY_ATOM_COUNT>
29

> <PUBCHEM_ATOM_DEF_STEREO_COUNT>
4

> <PUBCHEM_ATOM_UDEF_STEREO_COUNT>
1

> <PUBCHEM_BOND_DEF_STEREO_COUNT>
0

> <PUBCHEM_BOND_UDEF_STEREO_COUNT>
0

> <PUBCHEM_ISOTOPIC_ATOM_COUNT>
0

> <PUBCHEM_COMPONENT_COUNT>
1

> <PUBCHEM_CACTVS_TAUTO_COUNT>
25

> <PUBCHEM_CONFORMER_ID>
0615446300000001

> <PUBCHEM_MMFF94_ENERGY>
190.3249

> <PUBCHEM_FEATURE_SELFOVERLAP>
82.636

> <PUBCHEM_SHAPE_FINGERPRINT>
10863032 1 17845380010382120204
10948715 1 18272379688777009181
12035759 4 18341891887811500455
12422481 6 17970319599473298512
12592029 89 18334580122322170339
12633257 1 18338789143940746672
12969540 114 18262507195683759509
13140716 1 18263921197680498034
133893 2 17971499324063119089
14790565 3 18265893738858273381
14955137 171 18190761880238830041
15420108 30 17123980252188886040
1601671 61 18114175346155488373
16945 1 18339067216400667833
17138139 8 17843097446250730143
17492 54 18261968361945487390
1813 80 17980197483136289206
19591789 44 18338805640076466051
19930381 70 17482018660627982206
20197701 30 18339080501088059039
20600515 1 16246261495723960851
20905425 154 17899142611602293124
21421861 104 17913229576342443817
22393880 68 18272083882127629725
23419403 2 17533483552580364359
23559900 14 17911228735774055976
25147074 1 17986676970416037761
3060560 45 18334858324781701716
350125 39 18265888073257754962
404807 14 14971848960317283470
404807 78 17900815257264164351
4340502 62 18272362131008738609
57527306 92 16443070525748768372
70251023 43 17899406490177607259
7495541 125 15554445223621466661
81228 2 17760376886898107474
9981440 41 17054691628473684040

> <PUBCHEM_SHAPE_MULTIPOLES>
552.52
8.18
3.37
1.63
6.61
2.78
0.29
-2.86
-3
-2.56
0.21
0.45
-0.19
-0.81

> <PUBCHEM_SHAPE_SELFOVERLAP>
1245.419

> <PUBCHEM_SHAPE_VOLUME>
287.2

> <PUBCHEM_COORDINATE_TYPE>
2
5
10

$$$$
