102004821
  -OEChem-03292013293D

 53 57  0     1  0  0  0  0  0999 V2000
   -0.8327    1.9250   -1.8242 O   0  0  0  0  0  0  0  0  0  0  0  0
   -0.7381   -2.5516    0.1157 O   0  0  0  0  0  0  0  0  0  0  0  0
   -3.2853   -0.9859   -1.1066 O   0  0  0  0  0  0  0  0  0  0  0  0
    0.1442    3.1666   -0.0787 O   0  0  0  0  0  0  0  0  0  0  0  0
   -1.7966    2.2578    1.7132 O   0  0  0  0  0  0  0  0  0  0  0  0
    2.2984    2.2990    1.1955 O   0  0  0  0  0  0  0  0  0  0  0  0
   -3.6805   -1.2054    1.6245 O   0  0  0  0  0  0  0  0  0  0  0  0
   -2.1109   -3.3532    1.7024 O   0  0  0  0  0  0  0  0  0  0  0  0
    4.7144    1.2410    1.4869 O   0  0  0  0  0  0  0  0  0  0  0  0
   -0.9592   -0.2533   -0.8487 C   0  0  2  0  0  0  0  0  0  0  0  0
    0.0068    0.6368   -0.0124 C   0  0  1  0  0  0  0  0  0  0  0  0
    1.5697    0.3962   -0.2296 C   0  0  2  0  0  0  0  0  0  0  0  0
   -2.4024   -0.2792   -0.2124 C   0  0  1  0  0  0  0  0  0  0  0  0
   -0.6040    2.0066   -0.4009 C   0  0  2  0  0  0  0  0  0  0  0  0
   -0.5036   -1.6993   -1.0439 C   0  0  1  0  0  0  0  0  0  0  0  0
    1.8385   -1.1561   -0.2695 C   0  0  1  0  0  0  0  0  0  0  0  0
   -1.0043    0.5386   -2.1723 C   0  0  0  0  0  0  0  0  0  0  0  0
    0.9883   -1.8393   -1.3564 C   0  0  0  0  0  0  0  0  0  0  0  0
   -1.9718    2.2239    0.2960 C   0  0  1  0  0  0  0  0  0  0  0  0
   -2.9688    1.1320   -0.0282 C   0  0  0  0  0  0  0  0  0  0  0  0
    2.3660    0.8960    1.0262 C   0  0  1  0  0  0  0  0  0  0  0  0
   -2.3586   -1.0367    1.1193 C   0  0  2  0  0  0  0  0  0  0  0  0
    2.1344    1.0851   -1.5061 C   0  0  0  0  0  0  0  0  0  0  0  0
    3.3255   -1.5031   -0.2954 C   0  0  0  0  0  0  0  0  0  0  0  0
   -1.7586   -2.4164    0.9897 C   0  0  0  0  0  0  0  0  0  0  0  0
    3.8460    0.5400    0.9692 C   0  0  0  0  0  0  0  0  0  0  0  0
    4.2429   -0.7151    0.2884 C   0  0  0  0  0  0  0  0  0  0  0  0
   -4.2624    1.4477   -0.2182 C   0  0  0  0  0  0  0  0  0  0  0  0
    3.7627   -2.7976   -0.9234 C   0  0  0  0  0  0  0  0  0  0  0  0
   -0.1427    0.4638    1.0576 H   0  0  0  0  0  0  0  0  0  0  0  0
   -1.0618   -2.1638   -1.8664 H   0  0  0  0  0  0  0  0  0  0  0  0
    1.4922   -1.5712    0.6905 H   0  0  0  0  0  0  0  0  0  0  0  0
   -0.2137    0.2624   -2.8712 H   0  0  0  0  0  0  0  0  0  0  0  0
   -1.9354    0.4415   -2.7348 H   0  0  0  0  0  0  0  0  0  0  0  0
    1.2227   -1.4490   -2.3511 H   0  0  0  0  0  0  0  0  0  0  0  0
    1.2137   -2.9124   -1.3853 H   0  0  0  0  0  0  0  0  0  0  0  0
   -2.3791    3.1992   -0.0019 H   0  0  0  0  0  0  0  0  0  0  0  0
    1.9609    0.4335    1.9356 H   0  0  0  0  0  0  0  0  0  0  0  0
   -1.7906   -0.5006    1.8850 H   0  0  0  0  0  0  0  0  0  0  0  0
    1.9379    2.1605   -1.5052 H   0  0  0  0  0  0  0  0  0  0  0  0
    1.7298    0.6763   -2.4305 H   0  0  0  0  0  0  0  0  0  0  0  0
    3.2206    0.9831   -1.5917 H   0  0  0  0  0  0  0  0  0  0  0  0
   -3.4779   -0.4363   -1.8829 H   0  0  0  0  0  0  0  0  0  0  0  0
   -0.4317    3.9468   -0.1338 H   0  0  0  0  0  0  0  0  0  0  0  0
    5.2985   -0.9644    0.2936 H   0  0  0  0  0  0  0  0  0  0  0  0
   -5.0088    0.7028   -0.4701 H   0  0  0  0  0  0  0  0  0  0  0  0
   -4.6131    2.4688   -0.1069 H   0  0  0  0  0  0  0  0  0  0  0  0
   -2.6634    2.4377    2.1160 H   0  0  0  0  0  0  0  0  0  0  0  0
    2.6827    2.5123    2.0631 H   0  0  0  0  0  0  0  0  0  0  0  0
    3.2477   -3.6425   -0.4549 H   0  0  0  0  0  0  0  0  0  0  0  0
    4.8384   -2.9711   -0.8087 H   0  0  0  0  0  0  0  0  0  0  0  0
    3.5485   -2.7973   -1.9968 H   0  0  0  0  0  0  0  0  0  0  0  0
   -3.6071   -1.5724    2.5222 H   0  0  0  0  0  0  0  0  0  0  0  0
  1 14  1  0  0  0  0
  1 17  1  0  0  0  0
  2 15  1  0  0  0  0
  2 25  1  0  0  0  0
  3 13  1  0  0  0  0
  3 43  1  0  0  0  0
  4 14  1  0  0  0  0
  4 44  1  0  0  0  0
  5 19  1  0  0  0  0
  5 48  1  0  0  0  0
  6 21  1  0  0  0  0
  6 49  1  0  0  0  0
  7 22  1  0  0  0  0
  7 53  1  0  0  0  0
  8 25  2  0  0  0  0
  9 26  2  0  0  0  0
 10 11  1  0  0  0  0
 10 13  1  0  0  0  0
 10 15  1  0  0  0  0
 10 17  1  0  0  0  0
 11 12  1  0  0  0  0
 11 14  1  0  0  0  0
 11 30  1  0  0  0  0
 12 16  1  0  0  0  0
 12 21  1  0  0  0  0
 12 23  1  0  0  0  0
 13 20  1  0  0  0  0
 13 22  1  0  0  0  0
 14 19  1  0  0  0  0
 15 18  1  0  0  0  0
 15 31  1  0  0  0  0
 16 18  1  0  0  0  0
 16 24  1  0  0  0  0
 16 32  1  0  0  0  0
 17 33  1  0  0  0  0
 17 34  1  0  0  0  0
 18 35  1  0  0  0  0
 18 36  1  0  0  0  0
 19 20  1  0  0  0  0
 19 37  1  0  0  0  0
 20 28  2  0  0  0  0
 21 26  1  0  0  0  0
 21 38  1  0  0  0  0
 22 25  1  0  0  0  0
 22 39  1  0  0  0  0
 23 40  1  0  0  0  0
 23 41  1  0  0  0  0
 23 42  1  0  0  0  0
 24 27  2  0  0  0  0
 24 29  1  0  0  0  0
 26 27  1  0  0  0  0
 27 45  1  0  0  0  0
 28 46  1  0  0  0  0
 28 47  1  0  0  0  0
 29 50  1  0  0  0  0
 29 51  1  0  0  0  0
 29 52  1  0  0  0  0
M  END
> <PUBCHEM_COMPOUND_CID>
102004821

> <PUBCHEM_CONFORMER_RMSD>
0.6

> <PUBCHEM_CONFORMER_DIVERSEORDER>
1

> <PUBCHEM_MMFF94_PARTIAL_CHARGES>
32
1 -0.56
13 0.42
14 0.56
15 0.28
16 0.14
17 0.28
19 0.42
2 -0.43
20 -0.28
21 0.34
22 0.34
24 -0.28
25 0.66
26 0.49
27 -0.14
28 -0.3
29 0.14
3 -0.68
4 -0.68
43 0.4
44 0.4
45 0.15
46 0.15
47 0.15
48 0.4
49 0.4
5 -0.68
53 0.4
6 -0.68
7 -0.68
8 -0.57
9 -0.57

> <PUBCHEM_EFFECTIVE_ROTOR_COUNT>
1.4

> <PUBCHEM_PHARMACOPHORE_FEATURES>
17
1 1 acceptor
1 3 acceptor
1 3 donor
1 4 acceptor
1 4 donor
1 5 acceptor
1 5 donor
1 6 acceptor
1 6 donor
1 7 acceptor
1 7 donor
1 8 acceptor
1 9 acceptor
6 10 11 12 15 16 18 rings
6 12 16 21 24 26 27 rings
6 2 10 13 15 22 25 rings
8 1 10 11 13 14 17 19 20 rings

> <PUBCHEM_HEAVY_ATOM_COUNT>
29

> <PUBCHEM_ATOM_DEF_STEREO_COUNT>
9

> <PUBCHEM_ATOM_UDEF_STEREO_COUNT>
1

> <PUBCHEM_BOND_DEF_STEREO_COUNT>
0

> <PUBCHEM_BOND_UDEF_STEREO_COUNT>
0

> <PUBCHEM_ISOTOPIC_ATOM_COUNT>
0

> <PUBCHEM_COMPONENT_COUNT>
1

> <PUBCHEM_CACTVS_TAUTO_COUNT>
5

> <PUBCHEM_CONFORMER_ID>
0614785500000001

> <PUBCHEM_MMFF94_ENERGY>
116.5283

> <PUBCHEM_FEATURE_SELFOVERLAP>
86.523

> <PUBCHEM_SHAPE_FINGERPRINT>
10165383 225 17324380514369374452
10366900 7 18342733065930836370
10863032 1 18059568066432866053
10906281 52 18411707607810893053
10948715 1 18129374900282014797
11370993 70 18340762637592692721
11578080 2 15407186441369791395
11640471 11 15554448479016766526
12011746 2 18193561064653747759
12035758 1 18333454257508263473
12422481 6 18118718528760537739
12553582 1 18120387693904968311
12633257 1 18195531389474950290
12714826 92 17386002901193298623
13140716 1 18197506125143143112
13224815 77 18408889542349717236
133893 2 16228025953754073804
14223421 5 18340770450407086416
14787075 74 18272356556521126317
15209289 33 18124035620241016774
15295992 7 18129666287853236930
15420108 30 16973101349562638802
16945 1 18192717971363924421
1813 80 17095249154313699063
19049666 15 18267862792368954614
20600515 1 18040152941665016717
20691752 17 18187358775554365103
20905425 154 17757855676428207271
21421861 104 17608396832035117043
2334 1 18410864252184777293
23419403 2 17320954852511597191
23558518 356 18198065776857690761
23559900 14 18335428907208831278
238 59 17473793175047878356
2748010 2 18412550881341143095
3493558 16 14686675178998169569
350125 39 18198906903268373932
35225 105 17895462631651157802
392239 28 18268441139811365523
4340502 62 18264491690008298233
57527452 28 14063144802098144577
81228 2 18333733515638498110
9709674 26 18413103961750238422
9981440 41 17483350396947486896

> <PUBCHEM_SHAPE_MULTIPOLES>
543.98
6.89
3.35
1.65
3.68
0.69
0.11
0.28
-1.81
-0.49
-0.78
-0.24
0.04
1.61

> <PUBCHEM_SHAPE_SELFOVERLAP>
1210.079

> <PUBCHEM_SHAPE_VOLUME>
280

> <PUBCHEM_COORDINATE_TYPE>
2
5
10

$$$$
