102004753
  -OEChem-03292013293D

 64 68  0     1  0  0  0  0  0999 V2000
    0.4872    0.5911    2.2611 O   0  0  0  0  0  0  0  0  0  0  0  0
    2.5571    1.6662    2.1665 O   0  0  0  0  0  0  0  0  0  0  0  0
    1.6287    3.3166    0.1029 O   0  0  0  0  0  0  0  0  0  0  0  0
   -3.0617   -0.0077    0.1761 O   0  0  0  0  0  0  0  0  0  0  0  0
   -0.0246   -2.4950    0.4776 O   0  0  0  0  0  0  0  0  0  0  0  0
    3.2867    1.5623   -1.0452 O   0  0  0  0  0  0  0  0  0  0  0  0
   -4.0011   -1.7957   -0.9452 O   0  0  0  0  0  0  0  0  0  0  0  0
   -0.8625   -4.1603   -0.8868 O   0  0  0  0  0  0  0  0  0  0  0  0
   -0.6383    0.4178    0.0463 C   0  0  1  0  0  0  0  0  0  0  0  0
    0.6637   -0.3335   -0.4752 C   0  0  1  0  0  0  0  0  0  0  0  0
    1.8826    0.1373    0.3975 C   0  0  1  0  0  0  0  0  0  0  0  0
   -0.3351    1.9432   -0.2500 C   0  0  2  0  0  0  0  0  0  0  0  0
    1.4429    1.2313    1.3920 C   0  0  1  0  0  0  0  0  0  0  0  0
    0.7210    2.4426    0.7621 C   0  0  1  0  0  0  0  0  0  0  0  0
   -1.5789    2.8686   -0.4733 C   0  0  0  0  0  0  0  0  0  0  0  0
    2.5616   -1.0662    1.1113 C   0  0  0  0  0  0  0  0  0  0  0  0
   -1.9248   -0.0524   -0.6860 C   0  0  2  0  0  0  0  0  0  0  0  0
    0.6007   -1.8783   -0.6436 C   0  0  1  0  0  0  0  0  0  0  0  0
   -0.7235    0.2308    1.5853 C   0  0  0  0  0  0  0  0  0  0  0  0
    3.1230   -1.8767   -0.0566 C   0  0  1  0  0  0  0  0  0  0  0  0
    1.9847   -2.5281   -0.8641 C   0  0  0  0  0  0  0  0  0  0  0  0
    3.0295    0.4780   -0.5524 C   0  0  0  0  0  0  0  0  0  0  0  0
   -2.4941    2.2620   -1.5812 C   0  0  0  0  0  0  0  0  0  0  0  0
   -2.2146    0.7937   -1.9221 C   0  0  0  0  0  0  0  0  0  0  0  0
    3.7856   -0.7767   -0.8450 C   0  0  0  0  0  0  0  0  0  0  0  0
   -1.1141    4.2646   -0.9582 C   0  0  0  0  0  0  0  0  0  0  0  0
   -2.4198    3.1189    0.7962 C   0  0  0  0  0  0  0  0  0  0  0  0
    4.8734   -0.8308   -1.6141 C   0  0  0  0  0  0  0  0  0  0  0  0
   -4.0275   -0.9423   -0.0688 C   0  0  0  0  0  0  0  0  0  0  0  0
   -0.7277   -3.6355    0.2103 C   0  0  0  0  0  0  0  0  0  0  0  0
   -5.1529   -0.7758    0.9068 C   0  0  0  0  0  0  0  0  0  0  0  0
   -1.3269   -4.1701    1.4757 C   0  0  0  0  0  0  0  0  0  0  0  0
    0.8379    0.0214   -1.5033 H   0  0  0  0  0  0  0  0  0  0  0  0
    0.1554    1.9718   -1.2364 H   0  0  0  0  0  0  0  0  0  0  0  0
    0.2589    3.0260    1.5637 H   0  0  0  0  0  0  0  0  0  0  0  0
    1.8812   -1.6435    1.7441 H   0  0  0  0  0  0  0  0  0  0  0  0
    3.3822   -0.7314    1.7621 H   0  0  0  0  0  0  0  0  0  0  0  0
   -1.7859   -1.0837   -1.0143 H   0  0  0  0  0  0  0  0  0  0  0  0
    0.0080   -2.0770   -1.5460 H   0  0  0  0  0  0  0  0  0  0  0  0
   -1.5131    0.8420    2.0275 H   0  0  0  0  0  0  0  0  0  0  0  0
   -0.9596   -0.7991    1.8638 H   0  0  0  0  0  0  0  0  0  0  0  0
    3.8491   -2.6253    0.2768 H   0  0  0  0  0  0  0  0  0  0  0  0
    2.2278   -2.5035   -1.9343 H   0  0  0  0  0  0  0  0  0  0  0  0
    1.9376   -3.5883   -0.5854 H   0  0  0  0  0  0  0  0  0  0  0  0
   -2.4021    2.8328   -2.5146 H   0  0  0  0  0  0  0  0  0  0  0  0
   -3.5483    2.3595   -1.2899 H   0  0  0  0  0  0  0  0  0  0  0  0
   -3.0857    0.3991   -2.4590 H   0  0  0  0  0  0  0  0  0  0  0  0
   -1.3694    0.7322   -2.6186 H   0  0  0  0  0  0  0  0  0  0  0  0
   -1.8225    3.5310    1.6143 H   0  0  0  0  0  0  0  0  0  0  0  0
   -0.5579    4.7989   -0.1808 H   0  0  0  0  0  0  0  0  0  0  0  0
   -2.9133    2.2179    1.1608 H   0  0  0  0  0  0  0  0  0  0  0  0
   -3.2181    3.8440    0.5937 H   0  0  0  0  0  0  0  0  0  0  0  0
   -1.9705    4.8925   -1.2314 H   0  0  0  0  0  0  0  0  0  0  0  0
   -0.4702    4.1846   -1.8412 H   0  0  0  0  0  0  0  0  0  0  0  0
    2.3570    2.5508    2.5155 H   0  0  0  0  0  0  0  0  0  0  0  0
    1.9751    2.8713   -0.6865 H   0  0  0  0  0  0  0  0  0  0  0  0
    5.3964   -1.7689   -1.7659 H   0  0  0  0  0  0  0  0  0  0  0  0
    5.2664    0.0505   -2.1091 H   0  0  0  0  0  0  0  0  0  0  0  0
   -4.7849   -0.9268    1.9247 H   0  0  0  0  0  0  0  0  0  0  0  0
   -5.9257   -1.5217    0.7005 H   0  0  0  0  0  0  0  0  0  0  0  0
   -5.5915    0.2195    0.7993 H   0  0  0  0  0  0  0  0  0  0  0  0
   -0.5356   -4.3885    2.1971 H   0  0  0  0  0  0  0  0  0  0  0  0
   -1.8659   -5.0967    1.2589 H   0  0  0  0  0  0  0  0  0  0  0  0
   -2.0324   -3.4429    1.8855 H   0  0  0  0  0  0  0  0  0  0  0  0
  1 13  1  0  0  0  0
  1 19  1  0  0  0  0
  2 13  1  0  0  0  0
  2 55  1  0  0  0  0
  3 14  1  0  0  0  0
  3 56  1  0  0  0  0
  4 17  1  0  0  0  0
  4 29  1  0  0  0  0
  5 18  1  0  0  0  0
  5 30  1  0  0  0  0
  6 22  2  0  0  0  0
  7 29  2  0  0  0  0
  8 30  2  0  0  0  0
  9 10  1  0  0  0  0
  9 12  1  0  0  0  0
  9 17  1  0  0  0  0
  9 19  1  0  0  0  0
 10 11  1  0  0  0  0
 10 18  1  0  0  0  0
 10 33  1  0  0  0  0
 11 13  1  0  0  0  0
 11 16  1  0  0  0  0
 11 22  1  0  0  0  0
 12 14  1  0  0  0  0
 12 15  1  0  0  0  0
 12 34  1  0  0  0  0
 13 14  1  0  0  0  0
 14 35  1  0  0  0  0
 15 23  1  0  0  0  0
 15 26  1  0  0  0  0
 15 27  1  0  0  0  0
 16 20  1  0  0  0  0
 16 36  1  0  0  0  0
 16 37  1  0  0  0  0
 17 24  1  0  0  0  0
 17 38  1  0  0  0  0
 18 21  1  0  0  0  0
 18 39  1  0  0  0  0
 19 40  1  0  0  0  0
 19 41  1  0  0  0  0
 20 21  1  0  0  0  0
 20 25  1  0  0  0  0
 20 42  1  0  0  0  0
 21 43  1  0  0  0  0
 21 44  1  0  0  0  0
 22 25  1  0  0  0  0
 23 24  1  0  0  0  0
 23 45  1  0  0  0  0
 23 46  1  0  0  0  0
 24 47  1  0  0  0  0
 24 48  1  0  0  0  0
 25 28  2  0  0  0  0
 26 50  1  0  0  0  0
 26 53  1  0  0  0  0
 26 54  1  0  0  0  0
 27 49  1  0  0  0  0
 27 51  1  0  0  0  0
 27 52  1  0  0  0  0
 28 57  1  0  0  0  0
 28 58  1  0  0  0  0
 29 31  1  0  0  0  0
 30 32  1  0  0  0  0
 31 59  1  0  0  0  0
 31 60  1  0  0  0  0
 31 61  1  0  0  0  0
 32 62  1  0  0  0  0
 32 63  1  0  0  0  0
 32 64  1  0  0  0  0
M  END
> <PUBCHEM_COMPOUND_CID>
102004753

> <PUBCHEM_CONFORMER_RMSD>
0.8

> <PUBCHEM_CONFORMER_DIVERSEORDER>
1
2

> <PUBCHEM_MMFF94_PARTIAL_CHARGES>
26
1 -0.56
11 0.06
13 0.56
14 0.28
17 0.28
18 0.28
19 0.28
2 -0.68
20 0.14
22 0.49
25 -0.12
28 -0.3
29 0.66
3 -0.68
30 0.66
31 0.06
32 0.06
4 -0.43
5 -0.43
55 0.4
56 0.4
57 0.15
58 0.15
6 -0.57
7 -0.57
8 -0.57

> <PUBCHEM_EFFECTIVE_ROTOR_COUNT>
6

> <PUBCHEM_PHARMACOPHORE_FEATURES>
12
1 1 acceptor
1 2 acceptor
1 2 donor
1 3 acceptor
1 3 donor
1 6 acceptor
1 7 acceptor
1 8 acceptor
3 15 26 27 hydrophobe
6 9 12 15 17 23 24 rings
8 1 9 10 11 12 13 14 19 rings
8 10 11 16 18 20 21 22 25 rings

> <PUBCHEM_HEAVY_ATOM_COUNT>
32

> <PUBCHEM_ATOM_DEF_STEREO_COUNT>
8

> <PUBCHEM_ATOM_UDEF_STEREO_COUNT>
1

> <PUBCHEM_BOND_DEF_STEREO_COUNT>
0

> <PUBCHEM_BOND_UDEF_STEREO_COUNT>
0

> <PUBCHEM_ISOTOPIC_ATOM_COUNT>
0

> <PUBCHEM_COMPONENT_COUNT>
1

> <PUBCHEM_CACTVS_TAUTO_COUNT>
4

> <PUBCHEM_CONFORMER_ID>
0614781100000001

> <PUBCHEM_MMFF94_ENERGY>
138.9609

> <PUBCHEM_FEATURE_SELFOVERLAP>
60.979

> <PUBCHEM_SHAPE_FINGERPRINT>
10863032 1 18193838137558213004
11513181 2 17481438495944634663
11578080 2 17129018575344861402
12035758 1 18340207500280092578
12422481 6 17765701808984962680
12553582 1 18410287051640793487
12714826 92 18058728000826208245
12788726 201 18334861571529259099
13140716 1 17907282605273119512
13224815 77 18270953544928609476
13636023 20 17480808305005879599
14178342 30 17976245851182926427
14790565 3 18338250318322760893
16945 1 17702927176418151780
17492 54 18262810669166319166
19591789 44 18340209596102306311
20691752 17 18267286781240391279
20739085 24 18265071248515824993
20764821 26 18193247794509067415
20775438 99 17697566107866449495
21421861 104 17901392191018483851
22182313 1 18270661109338141552
22907989 373 17753652067534450798
2334 1 18339634543057710372
23419403 2 17559653106242653584
238 59 18123153932311853359
2748010 2 18198035050540160472
3380486 145 17974030614546878706
350125 39 18339084787090770116
35225 105 17603855741395990379
469060 322 18264790790981841033
563151 40 17837528200073674983
59554788 170 18410015472068376637

> <PUBCHEM_SHAPE_MULTIPOLES>
611.59
6.63
5.02
1.67
0.03
1.98
-0.36
1.07
1.87
-2.51
-0.2
0.2
-0.32
0.84

> <PUBCHEM_SHAPE_SELFOVERLAP>
1334.971

> <PUBCHEM_SHAPE_VOLUME>
321.4

> <PUBCHEM_COORDINATE_TYPE>
2
5
10

$$$$
