102039175
  -OEChem-03292013293D

 64 64  0     1  0  0  0  0  0999 V2000
   -3.0379   -2.3003   -0.0817 O   0  0  0  0  0  0  0  0  0  0  0  0
    1.7137    4.1058    1.1225 O   0  0  0  0  0  0  0  0  0  0  0  0
   -5.1348    1.9315    1.2220 O   0  0  0  0  0  0  0  0  0  0  0  0
    0.7278    2.3939   -2.7694 O   0  0  0  0  0  0  0  0  0  0  0  0
    5.7309   -3.1229    0.2382 O   0  0  0  0  0  0  0  0  0  0  0  0
   -1.0544   -1.8210    1.0071 O   0  0  0  0  0  0  0  0  0  0  0  0
   -4.2890   -0.8549    1.4084 C   0  0  0  0  0  0  0  0  0  0  0  0
   -5.2562   -0.3251    0.3313 C   0  0  0  0  0  0  0  0  0  0  0  0
   -3.7947   -2.2869    1.1507 C   0  0  1  0  0  0  0  0  0  0  0  0
    1.9685    2.5191   -0.7121 C   0  0  0  0  0  0  0  0  0  0  0  0
    2.6516    3.5358    0.2170 C   0  0  2  0  0  0  0  0  0  0  0  0
   -5.0870    1.1710    0.0212 C   0  0  2  0  0  0  0  0  0  0  0  0
    0.8057    3.1078   -1.5341 C   0  0  2  0  0  0  0  0  0  0  0  0
    3.8292    2.9279    0.9966 C   0  0  0  0  0  0  0  0  0  0  0  0
   -4.9264   -3.2986    1.0200 C   0  0  0  0  0  0  0  0  0  0  0  0
   -3.8125    1.4108   -0.7495 C   0  0  0  0  0  0  0  0  0  0  0  0
   -0.5094    3.0208   -0.7953 C   0  0  0  0  0  0  0  0  0  0  0  0
    3.4178    1.9192    2.0355 C   0  0  0  0  0  0  0  0  0  0  0  0
   -2.7778    2.1787   -0.3750 C   0  0  0  0  0  0  0  0  0  0  0  0
   -1.5647    2.2740   -1.1569 C   0  0  0  0  0  0  0  0  0  0  0  0
    3.5233    0.5826    1.9897 C   0  0  0  0  0  0  0  0  0  0  0  0
   -1.7120   -2.0032   -0.0043 C   0  0  0  0  0  0  0  0  0  0  0  0
    4.5747   -2.4059   -0.1992 C   0  0  1  0  0  0  0  0  0  0  0  0
    3.5125   -3.4186   -0.6473 C   0  0  0  0  0  0  0  0  0  0  0  0
    4.0167   -0.2093    0.8867 C   0  0  0  0  0  0  0  0  0  0  0  0
    4.0953   -1.5476    0.9392 C   0  0  0  0  0  0  0  0  0  0  0  0
   -1.2012   -1.8844   -1.3879 C   0  0  0  0  0  0  0  0  0  0  0  0
    2.3934   -2.7940   -1.4314 C   0  0  0  0  0  0  0  0  0  0  0  0
    0.0585   -2.1361   -1.7709 C   0  0  0  0  0  0  0  0  0  0  0  0
    1.1388   -2.6699   -0.9710 C   0  0  0  0  0  0  0  0  0  0  0  0
   -3.4110   -0.2027    1.4770 H   0  0  0  0  0  0  0  0  0  0  0  0
   -4.7864   -0.8105    2.3851 H   0  0  0  0  0  0  0  0  0  0  0  0
   -5.1616   -0.8917   -0.6029 H   0  0  0  0  0  0  0  0  0  0  0  0
   -6.2783   -0.4944    0.6945 H   0  0  0  0  0  0  0  0  0  0  0  0
   -3.1545   -2.6028    1.9839 H   0  0  0  0  0  0  0  0  0  0  0  0
    1.5898    1.6686   -0.1307 H   0  0  0  0  0  0  0  0  0  0  0  0
    2.7273    2.1075   -1.3904 H   0  0  0  0  0  0  0  0  0  0  0  0
    3.0387    4.3556   -0.4008 H   0  0  0  0  0  0  0  0  0  0  0  0
   -5.9216    1.5016   -0.6082 H   0  0  0  0  0  0  0  0  0  0  0  0
    0.9989    4.1565   -1.7865 H   0  0  0  0  0  0  0  0  0  0  0  0
    4.3495    3.7336    1.5311 H   0  0  0  0  0  0  0  0  0  0  0  0
    4.5617    2.5113    0.2970 H   0  0  0  0  0  0  0  0  0  0  0  0
   -5.5439   -3.1085    0.1364 H   0  0  0  0  0  0  0  0  0  0  0  0
   -5.5662   -3.2949    1.9076 H   0  0  0  0  0  0  0  0  0  0  0  0
   -4.5145   -4.3061    0.8939 H   0  0  0  0  0  0  0  0  0  0  0  0
   -3.7459    0.8721   -1.6945 H   0  0  0  0  0  0  0  0  0  0  0  0
   -0.5821    3.6136    0.1139 H   0  0  0  0  0  0  0  0  0  0  0  0
    2.9987    2.3453    2.9465 H   0  0  0  0  0  0  0  0  0  0  0  0
   -2.8122    2.7271    0.5617 H   0  0  0  0  0  0  0  0  0  0  0  0
   -1.5208    1.6725   -2.0609 H   0  0  0  0  0  0  0  0  0  0  0  0
    2.1865    4.7629    1.6612 H   0  0  0  0  0  0  0  0  0  0  0  0
   -5.9772    1.7294    1.6638 H   0  0  0  0  0  0  0  0  0  0  0  0
    1.5518    2.5619   -3.2578 H   0  0  0  0  0  0  0  0  0  0  0  0
    3.1823    0.0294    2.8635 H   0  0  0  0  0  0  0  0  0  0  0  0
    4.8877   -1.7851   -1.0478 H   0  0  0  0  0  0  0  0  0  0  0  0
    3.1282   -3.9709    0.2209 H   0  0  0  0  0  0  0  0  0  0  0  0
    3.9803   -4.1831   -1.2816 H   0  0  0  0  0  0  0  0  0  0  0  0
    4.3163    0.3034   -0.0216 H   0  0  0  0  0  0  0  0  0  0  0  0
    3.7963   -2.0701    1.8462 H   0  0  0  0  0  0  0  0  0  0  0  0
   -1.9136   -1.5386   -2.1330 H   0  0  0  0  0  0  0  0  0  0  0  0
    2.6398   -2.4578   -2.4363 H   0  0  0  0  0  0  0  0  0  0  0  0
    0.2939   -1.9571   -2.8195 H   0  0  0  0  0  0  0  0  0  0  0  0
    0.9129   -3.0159    0.0323 H   0  0  0  0  0  0  0  0  0  0  0  0
    6.0653   -3.6312   -0.5205 H   0  0  0  0  0  0  0  0  0  0  0  0
  1  9  1  0  0  0  0
  1 22  1  0  0  0  0
  2 11  1  0  0  0  0
  2 51  1  0  0  0  0
  3 12  1  0  0  0  0
  3 52  1  0  0  0  0
  4 13  1  0  0  0  0
  4 53  1  0  0  0  0
  5 23  1  0  0  0  0
  5 64  1  0  0  0  0
  6 22  2  0  0  0  0
  7  8  1  0  0  0  0
  7  9  1  0  0  0  0
  7 31  1  0  0  0  0
  7 32  1  0  0  0  0
  8 12  1  0  0  0  0
  8 33  1  0  0  0  0
  8 34  1  0  0  0  0
  9 15  1  0  0  0  0
  9 35  1  0  0  0  0
 10 11  1  0  0  0  0
 10 13  1  0  0  0  0
 10 36  1  0  0  0  0
 10 37  1  0  0  0  0
 11 14  1  0  0  0  0
 11 38  1  0  0  0  0
 12 16  1  0  0  0  0
 12 39  1  0  0  0  0
 13 17  1  0  0  0  0
 13 40  1  0  0  0  0
 14 18  1  0  0  0  0
 14 41  1  0  0  0  0
 14 42  1  0  0  0  0
 15 43  1  0  0  0  0
 15 44  1  0  0  0  0
 15 45  1  0  0  0  0
 16 19  2  0  0  0  0
 16 46  1  0  0  0  0
 17 20  2  0  0  0  0
 17 47  1  0  0  0  0
 18 21  2  0  0  0  0
 18 48  1  0  0  0  0
 19 20  1  0  0  0  0
 19 49  1  0  0  0  0
 20 50  1  0  0  0  0
 21 25  1  0  0  0  0
 21 54  1  0  0  0  0
 22 27  1  0  0  0  0
 23 24  1  0  0  0  0
 23 26  1  0  0  0  0
 23 55  1  0  0  0  0
 24 28  1  0  0  0  0
 24 56  1  0  0  0  0
 24 57  1  0  0  0  0
 25 26  2  0  0  0  0
 25 58  1  0  0  0  0
 26 59  1  0  0  0  0
 27 29  2  0  0  0  0
 27 60  1  0  0  0  0
 28 30  2  0  0  0  0
 28 61  1  0  0  0  0
 29 30  1  0  0  0  0
 29 62  1  0  0  0  0
 30 63  1  0  0  0  0
M  END
> <PUBCHEM_COMPOUND_CID>
102039175

> <PUBCHEM_CONFORMER_RMSD>
0.6

> <PUBCHEM_CONFORMER_DIVERSEORDER>
1
36
22
6
16
2
32
14
39
20
19
7
3
27
37
25
10
30
34
4
28
29
8
17
21
13
26
11
38
31
24
5
40
15
35
18
23
12
33
9

> <PUBCHEM_MMFF94_PARTIAL_CHARGES>
42
1 -0.43
11 0.28
12 0.42
13 0.42
14 0.14
16 -0.29
17 -0.29
18 -0.29
19 -0.15
2 -0.68
20 -0.15
21 -0.15
22 0.71
23 0.42
24 0.14
25 -0.15
26 -0.29
27 -0.14
28 -0.29
29 -0.15
3 -0.68
30 -0.15
4 -0.68
46 0.15
47 0.15
48 0.15
49 0.15
5 -0.68
50 0.15
51 0.4
52 0.4
53 0.4
54 0.15
58 0.15
59 0.15
6 -0.57
60 0.15
61 0.15
62 0.15
63 0.15
64 0.4
9 0.28

> <PUBCHEM_EFFECTIVE_ROTOR_COUNT>
2.2

> <PUBCHEM_PHARMACOPHORE_FEATURES>
9
1 2 acceptor
1 2 donor
1 3 acceptor
1 3 donor
1 4 acceptor
1 4 donor
1 5 acceptor
1 5 donor
1 6 acceptor

> <PUBCHEM_HEAVY_ATOM_COUNT>
30

> <PUBCHEM_ATOM_DEF_STEREO_COUNT>
4

> <PUBCHEM_ATOM_UDEF_STEREO_COUNT>
1

> <PUBCHEM_BOND_DEF_STEREO_COUNT>
6

> <PUBCHEM_BOND_UDEF_STEREO_COUNT>
0

> <PUBCHEM_ISOTOPIC_ATOM_COUNT>
0

> <PUBCHEM_COMPONENT_COUNT>
1

> <PUBCHEM_CACTVS_TAUTO_COUNT>
3

> <PUBCHEM_CONFORMER_ID>
0614FE8700000001

> <PUBCHEM_MMFF94_ENERGY>
49.1484

> <PUBCHEM_FEATURE_SELFOVERLAP>
45.676

> <PUBCHEM_SHAPE_FINGERPRINT>
10864689 126 17617662051323610133
11513181 2 18200308952334451918
11756154 5 17977652123135831338
12422481 6 18410295822196068665
12717326 68 18121501516891542063
13402501 40 18124869063140070646
13561361 72 18263354820163845706
14725015 67 18189618242407036317
150020 26 18343297102241848360
15264996 154 17898867995594175310
15264996 44 18200889417011350630
19319366 153 16094328819204615685
3493558 16 17916595211072491683
373842 8 18411417358484813999
42626532 9 17968961749895306394
563151 74 17273386522736190776
581034 39 17622703724733755960
636783 150 17401766320714314826

> <PUBCHEM_SHAPE_MULTIPOLES>
582.17
11.76
6.23
1.92
5.55
1.19
0.24
-4.81
-5.81
-4.12
1.02
-0.7
0.53
2.42

> <PUBCHEM_SHAPE_SELFOVERLAP>
1148.98

> <PUBCHEM_SHAPE_VOLUME>
341.8

> <PUBCHEM_COORDINATE_TYPE>
2
5
10

$$$$
