102004432
  -OEChem-03292013293D

 73 75  0     1  0  0  0  0  0999 V2000
    3.3806   -2.1237    1.4764 O   0  0  0  0  0  0  0  0  0  0  0  0
    6.9573   -1.0320   -0.6037 O   0  0  0  0  0  0  0  0  0  0  0  0
   -2.4677   -2.3439   -0.0845 O   0  0  0  0  0  0  0  0  0  0  0  0
   -1.6717    2.3643   -0.1925 O   0  0  0  0  0  0  0  0  0  0  0  0
   -5.9967    0.7000    0.9862 O   0  0  0  0  0  0  0  0  0  0  0  0
   -3.6050    3.9017    0.3924 O   0  0  0  0  0  0  0  0  0  0  0  0
   -6.3594   -1.8910    0.4871 O   0  0  0  0  0  0  0  0  0  0  0  0
    2.1406    0.5220    1.1588 C   0  0  2  0  0  0  0  0  0  0  0  0
    2.5871    1.7579    0.3940 C   0  0  0  0  0  0  0  0  0  0  0  0
    3.5937    0.9300    1.1838 C   0  0  2  0  0  0  0  0  0  0  0  0
    1.6598   -0.7248    0.4853 C   0  0  2  0  0  0  0  0  0  0  0  0
    0.1328   -0.9899    0.5576 C   0  0  2  0  0  0  0  0  0  0  0  0
    4.6764    0.1324    0.5425 C   0  0  0  0  0  0  0  0  0  0  0  0
    2.6394    1.6427   -1.1111 C   0  0  0  0  0  0  0  0  0  0  0  0
    2.1952    3.1359    0.8632 C   0  0  0  0  0  0  0  0  0  0  0  0
    0.0539   -2.5152    0.3309 C   0  0  0  0  0  0  0  0  0  0  0  0
    2.2285   -1.9985    1.0798 C   0  0  0  0  0  0  0  0  0  0  0  0
   -0.6181   -0.2450   -0.5535 C   0  0  1  0  0  0  0  0  0  0  0  0
    1.2097   -3.1074    1.1307 C   0  0  0  0  0  0  0  0  0  0  0  0
   -0.4982   -0.6247    1.9148 C   0  0  0  0  0  0  0  0  0  0  0  0
    5.9452    0.9572    0.3252 C   0  0  0  0  0  0  0  0  0  0  0  0
   -0.4892   -1.0232   -1.8833 C   0  0  0  0  0  0  0  0  0  0  0  0
   -2.0581    0.0081   -0.1412 C   0  0  0  0  0  0  0  0  0  0  0  0
   -0.7359   -0.1949   -3.1629 C   0  0  0  0  0  0  0  0  0  0  0  0
    7.0753    0.1513   -0.2896 C   0  0  0  0  0  0  0  0  0  0  0  0
   -2.9206   -1.0665    0.0757 C   0  0  0  0  0  0  0  0  0  0  0  0
   -2.5179    1.3150    0.0206 C   0  0  0  0  0  0  0  0  0  0  0  0
   -2.1387    0.4128   -3.2043 C   0  0  0  0  0  0  0  0  0  0  0  0
   -0.5221   -1.0778   -4.3962 C   0  0  0  0  0  0  0  0  0  0  0  0
    8.3744    0.8847   -0.5007 C   0  0  0  0  0  0  0  0  0  0  0  0
   -4.2428   -0.8342    0.4541 C   0  0  0  0  0  0  0  0  0  0  0  0
   -3.8400    1.5475    0.3991 C   0  0  0  0  0  0  0  0  0  0  0  0
   -4.7026    0.4729    0.6157 C   0  0  0  0  0  0  0  0  0  0  0  0
   -4.3201    2.9146    0.5692 C   0  0  0  0  0  0  0  0  0  0  0  0
   -5.1449   -1.9584    0.6804 C   0  0  0  0  0  0  0  0  0  0  0  0
    1.6484    0.6810    2.1128 H   0  0  0  0  0  0  0  0  0  0  0  0
    3.9437    1.3489    2.1246 H   0  0  0  0  0  0  0  0  0  0  0  0
    1.9842   -0.7714   -0.5560 H   0  0  0  0  0  0  0  0  0  0  0  0
    4.3777   -0.3661   -0.3832 H   0  0  0  0  0  0  0  0  0  0  0  0
    4.9813   -0.6529    1.2401 H   0  0  0  0  0  0  0  0  0  0  0  0
    1.2071    3.4048    0.4760 H   0  0  0  0  0  0  0  0  0  0  0  0
    2.9804    0.6897   -1.5156 H   0  0  0  0  0  0  0  0  0  0  0  0
    1.6541    1.8509   -1.5397 H   0  0  0  0  0  0  0  0  0  0  0  0
    2.1540    3.1886    1.9562 H   0  0  0  0  0  0  0  0  0  0  0  0
    2.9203    3.8793    0.5168 H   0  0  0  0  0  0  0  0  0  0  0  0
    3.3253    2.4021   -1.5054 H   0  0  0  0  0  0  0  0  0  0  0  0
    0.1753   -2.8949   -0.6834 H   0  0  0  0  0  0  0  0  0  0  0  0
   -0.7956   -3.0119    0.7939 H   0  0  0  0  0  0  0  0  0  0  0  0
   -0.1211    0.7184   -0.6986 H   0  0  0  0  0  0  0  0  0  0  0  0
    1.6007   -4.0183    0.6712 H   0  0  0  0  0  0  0  0  0  0  0  0
    0.9367   -3.2904    2.1744 H   0  0  0  0  0  0  0  0  0  0  0  0
   -0.6196    0.4562    2.0489 H   0  0  0  0  0  0  0  0  0  0  0  0
    0.1546   -0.9535    2.7343 H   0  0  0  0  0  0  0  0  0  0  0  0
   -1.4484   -1.1214    2.1271 H   0  0  0  0  0  0  0  0  0  0  0  0
    6.2980    1.3625    1.2807 H   0  0  0  0  0  0  0  0  0  0  0  0
    5.7305    1.7996   -0.3419 H   0  0  0  0  0  0  0  0  0  0  0  0
    0.5380   -1.3886   -2.0025 H   0  0  0  0  0  0  0  0  0  0  0  0
   -1.1519   -1.8919   -1.9422 H   0  0  0  0  0  0  0  0  0  0  0  0
   -0.0046    0.6220   -3.2049 H   0  0  0  0  0  0  0  0  0  0  0  0
   -2.9089   -0.3092   -2.9165 H   0  0  0  0  0  0  0  0  0  0  0  0
   -2.3776    0.7518   -4.2194 H   0  0  0  0  0  0  0  0  0  0  0  0
   -1.2422   -1.9027   -4.4253 H   0  0  0  0  0  0  0  0  0  0  0  0
   -2.2083    1.3021   -2.5790 H   0  0  0  0  0  0  0  0  0  0  0  0
    0.4859   -1.5060   -4.4000 H   0  0  0  0  0  0  0  0  0  0  0  0
   -0.6369   -0.4955   -5.3167 H   0  0  0  0  0  0  0  0  0  0  0  0
    8.7586    1.2335    0.4609 H   0  0  0  0  0  0  0  0  0  0  0  0
    8.2118    1.7314   -1.1722 H   0  0  0  0  0  0  0  0  0  0  0  0
    9.1090    0.2120   -0.9520 H   0  0  0  0  0  0  0  0  0  0  0  0
   -3.2018   -2.9320   -0.3234 H   0  0  0  0  0  0  0  0  0  0  0  0
   -2.1612    3.1934   -0.2986 H   0  0  0  0  0  0  0  0  0  0  0  0
   -5.3718    3.0518    0.8693 H   0  0  0  0  0  0  0  0  0  0  0  0
   -4.6993   -2.9049    1.0279 H   0  0  0  0  0  0  0  0  0  0  0  0
   -6.4445   -0.1281    1.2188 H   0  0  0  0  0  0  0  0  0  0  0  0
  1 17  2  0  0  0  0
  2 25  2  0  0  0  0
  3 26  1  0  0  0  0
  3 69  1  0  0  0  0
  4 27  1  0  0  0  0
  4 70  1  0  0  0  0
  5 33  1  0  0  0  0
  5 73  1  0  0  0  0
  6 34  2  0  0  0  0
  7 35  2  0  0  0  0
  8  9  1  0  0  0  0
  8 10  1  0  0  0  0
  8 11  1  0  0  0  0
  8 36  1  0  0  0  0
  9 10  1  0  0  0  0
  9 14  1  0  0  0  0
  9 15  1  0  0  0  0
 10 13  1  0  0  0  0
 10 37  1  0  0  0  0
 11 12  1  0  0  0  0
 11 17  1  0  0  0  0
 11 38  1  0  0  0  0
 12 16  1  0  0  0  0
 12 18  1  0  0  0  0
 12 20  1  0  0  0  0
 13 21  1  0  0  0  0
 13 39  1  0  0  0  0
 13 40  1  0  0  0  0
 14 42  1  0  0  0  0
 14 43  1  0  0  0  0
 14 46  1  0  0  0  0
 15 41  1  0  0  0  0
 15 44  1  0  0  0  0
 15 45  1  0  0  0  0
 16 19  1  0  0  0  0
 16 47  1  0  0  0  0
 16 48  1  0  0  0  0
 17 19  1  0  0  0  0
 18 22  1  0  0  0  0
 18 23  1  0  0  0  0
 18 49  1  0  0  0  0
 19 50  1  0  0  0  0
 19 51  1  0  0  0  0
 20 52  1  0  0  0  0
 20 53  1  0  0  0  0
 20 54  1  0  0  0  0
 21 25  1  0  0  0  0
 21 55  1  0  0  0  0
 21 56  1  0  0  0  0
 22 24  1  0  0  0  0
 22 57  1  0  0  0  0
 22 58  1  0  0  0  0
 23 26  2  0  0  0  0
 23 27  1  0  0  0  0
 24 28  1  0  0  0  0
 24 29  1  0  0  0  0
 24 59  1  0  0  0  0
 25 30  1  0  0  0  0
 26 31  1  0  0  0  0
 27 32  2  0  0  0  0
 28 60  1  0  0  0  0
 28 61  1  0  0  0  0
 28 63  1  0  0  0  0
 29 62  1  0  0  0  0
 29 64  1  0  0  0  0
 29 65  1  0  0  0  0
 30 66  1  0  0  0  0
 30 67  1  0  0  0  0
 30 68  1  0  0  0  0
 31 33  2  0  0  0  0
 31 35  1  0  0  0  0
 32 33  1  0  0  0  0
 32 34  1  0  0  0  0
 34 71  1  0  0  0  0
 35 72  1  0  0  0  0
M  END
> <PUBCHEM_COMPOUND_CID>
102004432

> <PUBCHEM_CONFORMER_RMSD>
1.2

> <PUBCHEM_CONFORMER_DIVERSEORDER>
1
4
2
3
5

> <PUBCHEM_MMFF94_PARTIAL_CHARGES>
35
1 -0.57
10 -0.19
11 0.16
13 0.09
14 0.09
15 0.09
17 0.45
18 0.14
19 0.06
2 -0.57
21 0.06
23 -0.14
25 0.45
26 0.08
27 0.08
3 -0.53
30 0.06
31 0.09
32 0.09
33 0.08
34 0.42
35 0.42
36 0.1
37 0.1
4 -0.53
5 -0.53
6 -0.57
69 0.45
7 -0.57
70 0.45
71 0.06
72 0.06
73 0.45
8 -0.19
9 -0.19

> <PUBCHEM_EFFECTIVE_ROTOR_COUNT>
11.4

> <PUBCHEM_PHARMACOPHORE_FEATURES>
11
1 1 acceptor
1 2 acceptor
1 3 donor
1 4 donor
1 5 donor
1 6 acceptor
1 7 acceptor
3 24 28 29 hydrophobe
3 9 14 15 hydrophobe
5 11 12 16 17 19 rings
6 23 26 27 31 32 33 rings

> <PUBCHEM_HEAVY_ATOM_COUNT>
35

> <PUBCHEM_ATOM_DEF_STEREO_COUNT>
5

> <PUBCHEM_ATOM_UDEF_STEREO_COUNT>
0

> <PUBCHEM_BOND_DEF_STEREO_COUNT>
0

> <PUBCHEM_BOND_UDEF_STEREO_COUNT>
0

> <PUBCHEM_ISOTOPIC_ATOM_COUNT>
0

> <PUBCHEM_COMPONENT_COUNT>
1

> <PUBCHEM_CACTVS_TAUTO_COUNT>
180

> <PUBCHEM_CONFORMER_ID>
061476D000000001

> <PUBCHEM_MMFF94_ENERGY>
136.6849

> <PUBCHEM_FEATURE_SELFOVERLAP>
55.822

> <PUBCHEM_SHAPE_FINGERPRINT>
10165383 225 18113339726050705114
10369192 42 18407761456684582734
10670039 82 18410009944308336217
10674148 151 18341615898594450400
11135926 11 18188477005583540434
11578080 2 17314775305548792757
11796584 16 15482670226189987094
12107698 1 18201159952838433916
13583140 156 18337377271909676333
14279260 333 18341048503070556154
14790565 3 18335144206896589728
14840074 17 16660935481689814790
14856354 85 18337956787256571830
15183329 4 16630529518837546760
15297060 5 16486421966865767857
15849732 13 17918279770603265516
1813 80 16443354126660391103
18608769 82 18337957890952280714
19611394 137 17825963786583055491
20691752 17 16660650600651089747
21033648 144 18189889817289211125
21756936 100 18271515464337585154
21987440 362 17555749711348014876
23559900 14 18266168449319210163
350125 39 18334856129969030634
392239 28 18335429014698753251
4144715 1 18267314135744999939
469060 322 16298380254331189023
5265222 85 18270406126505280452
58260988 521 17274553143144076975
59755656 215 18334293188922477274
59755656 520 18411133667115269398

> <PUBCHEM_SHAPE_MULTIPOLES>
679.2
14.56
3.23
2.42
19.22
1.25
-4.09
2.79
2.33
-2.15
1.16
-0.98
-0.9
-0.43

> <PUBCHEM_SHAPE_SELFOVERLAP>
1439.327

> <PUBCHEM_SHAPE_VOLUME>
380.2

> <PUBCHEM_COORDINATE_TYPE>
2
5
10

$$$$
