102004952
  -OEChem-03292013293D

 58 61  0     1  0  0  0  0  0999 V2000
    6.1287    1.2839    0.0090 O   0  0  0  0  0  0  0  0  0  0  0  0
    3.4845    1.8097    0.5590 O   0  0  0  0  0  0  0  0  0  0  0  0
    2.7329    0.2167   -1.0382 O   0  0  0  0  0  0  0  0  0  0  0  0
    4.9740   -1.3588   -2.1251 O   0  0  0  0  0  0  0  0  0  0  0  0
    5.2874    0.0275    2.9566 O   0  0  0  0  0  0  0  0  0  0  0  0
   -4.1099    1.9386   -0.5072 O   0  0  0  0  0  0  0  0  0  0  0  0
   -6.8262    2.5793   -0.2950 O   0  0  0  0  0  0  0  0  0  0  0  0
   -5.8103   -1.9592    0.4622 O   0  0  0  0  0  0  0  0  0  0  0  0
   -7.7867   -0.6763    0.4567 N   0  0  0  0  0  0  0  0  0  0  0  0
    5.1252    0.5373   -0.6987 C   0  0  1  0  0  0  0  0  0  0  0  0
    5.6622    0.0809    0.6379 C   0  0  2  0  0  0  0  0  0  0  0  0
    3.7498    1.1744   -0.7035 C   0  0  2  0  0  0  0  0  0  0  0  0
    3.4485    0.8687    1.6263 C   0  0  1  0  0  0  0  0  0  0  0  0
    2.3718   -0.1926    1.3435 C   0  0  1  0  0  0  0  0  0  0  0  0
    4.8475    0.3123    1.8490 C   0  0  0  0  0  0  0  0  0  0  0  0
    2.5639   -0.8140   -0.0553 C   0  0  1  0  0  0  0  0  0  0  0  0
    5.6328   -0.1154   -1.9462 C   0  0  0  0  0  0  0  0  0  0  0  0
    3.6616    2.2848   -1.7509 C   0  0  0  0  0  0  0  0  0  0  0  0
    1.3686   -1.6510   -0.5008 C   0  0  2  0  0  0  0  0  0  0  0  0
    2.2889   -1.2381    2.4543 C   0  0  0  0  0  0  0  0  0  0  0  0
    1.6066   -2.2226   -1.9006 C   0  0  0  0  0  0  0  0  0  0  0  0
    0.1130   -0.8070   -0.4987 C   0  0  0  0  0  0  0  0  0  0  0  0
   -1.1618   -1.1875   -0.2667 C   0  0  0  0  0  0  0  0  0  0  0  0
   -1.5764   -2.5980    0.0616 C   0  0  0  0  0  0  0  0  0  0  0  0
   -2.2167   -0.1696   -0.3327 C   0  0  0  0  0  0  0  0  0  0  0  0
   -3.5325   -0.3630   -0.1319 C   0  0  0  0  0  0  0  0  0  0  0  0
   -4.5549    0.6662   -0.2050 C   0  0  0  0  0  0  0  0  0  0  0  0
   -5.8527    0.4052    0.0067 C   0  0  0  0  0  0  0  0  0  0  0  0
   -6.9513    1.3918   -0.0487 C   0  0  0  0  0  0  0  0  0  0  0  0
   -6.4201   -0.9139    0.3337 C   0  0  0  0  0  0  0  0  0  0  0  0
   -8.2485    0.6900    0.2486 C   0  0  0  0  0  0  0  0  0  0  0  0
    6.3327   -0.7697    0.6582 H   0  0  0  0  0  0  0  0  0  0  0  0
    3.1844    1.4318    2.5293 H   0  0  0  0  0  0  0  0  0  0  0  0
    1.4298    0.3713    1.3487 H   0  0  0  0  0  0  0  0  0  0  0  0
    3.4498   -1.4592   -0.0537 H   0  0  0  0  0  0  0  0  0  0  0  0
    6.7084   -0.3134   -1.8773 H   0  0  0  0  0  0  0  0  0  0  0  0
    5.4680    0.5049   -2.8309 H   0  0  0  0  0  0  0  0  0  0  0  0
    2.6992    2.8048   -1.6722 H   0  0  0  0  0  0  0  0  0  0  0  0
    3.7249    1.8956   -2.7718 H   0  0  0  0  0  0  0  0  0  0  0  0
    4.4467    3.0348   -1.6065 H   0  0  0  0  0  0  0  0  0  0  0  0
    1.2585   -2.4938    0.1892 H   0  0  0  0  0  0  0  0  0  0  0  0
    1.3828   -1.8446    2.3625 H   0  0  0  0  0  0  0  0  0  0  0  0
    2.2562   -0.7577    3.4381 H   0  0  0  0  0  0  0  0  0  0  0  0
    3.1497   -1.9145    2.4349 H   0  0  0  0  0  0  0  0  0  0  0  0
    5.3255   -1.7551   -2.9404 H   0  0  0  0  0  0  0  0  0  0  0  0
    1.6876   -1.4407   -2.6639 H   0  0  0  0  0  0  0  0  0  0  0  0
    2.5249   -2.8188   -1.9251 H   0  0  0  0  0  0  0  0  0  0  0  0
    0.7821   -2.8819   -2.1953 H   0  0  0  0  0  0  0  0  0  0  0  0
    0.2696    0.2385   -0.7688 H   0  0  0  0  0  0  0  0  0  0  0  0
   -2.2956   -2.9727   -0.6752 H   0  0  0  0  0  0  0  0  0  0  0  0
   -2.0282   -2.6472    1.0583 H   0  0  0  0  0  0  0  0  0  0  0  0
   -0.7381   -3.2995    0.0571 H   0  0  0  0  0  0  0  0  0  0  0  0
   -1.8730    0.8365   -0.5704 H   0  0  0  0  0  0  0  0  0  0  0  0
   -3.8236   -1.3729    0.1016 H   0  0  0  0  0  0  0  0  0  0  0  0
   -8.7060    1.0570    1.1684 H   0  0  0  0  0  0  0  0  0  0  0  0
   -8.9262    0.7123   -0.6059 H   0  0  0  0  0  0  0  0  0  0  0  0
   -4.8659    2.5474   -0.5316 H   0  0  0  0  0  0  0  0  0  0  0  0
   -8.4348   -1.4242    0.6827 H   0  0  0  0  0  0  0  0  0  0  0  0
  1 10  1  0  0  0  0
  1 11  1  0  0  0  0
  2 12  1  0  0  0  0
  2 13  1  0  0  0  0
  3 12  1  0  0  0  0
  3 16  1  0  0  0  0
  4 17  1  0  0  0  0
  4 45  1  0  0  0  0
  5 15  2  0  0  0  0
  6 27  1  0  0  0  0
  6 57  1  0  0  0  0
  7 29  2  0  0  0  0
  8 30  2  0  0  0  0
  9 30  1  0  0  0  0
  9 31  1  0  0  0  0
  9 58  1  0  0  0  0
 10 11  1  0  0  0  0
 10 12  1  0  0  0  0
 10 17  1  0  0  0  0
 11 15  1  0  0  0  0
 11 32  1  0  0  0  0
 12 18  1  0  0  0  0
 13 14  1  0  0  0  0
 13 15  1  0  0  0  0
 13 33  1  0  0  0  0
 14 16  1  0  0  0  0
 14 20  1  0  0  0  0
 14 34  1  0  0  0  0
 16 19  1  0  0  0  0
 16 35  1  0  0  0  0
 17 36  1  0  0  0  0
 17 37  1  0  0  0  0
 18 38  1  0  0  0  0
 18 39  1  0  0  0  0
 18 40  1  0  0  0  0
 19 21  1  0  0  0  0
 19 22  1  0  0  0  0
 19 41  1  0  0  0  0
 20 42  1  0  0  0  0
 20 43  1  0  0  0  0
 20 44  1  0  0  0  0
 21 46  1  0  0  0  0
 21 47  1  0  0  0  0
 21 48  1  0  0  0  0
 22 23  2  0  0  0  0
 22 49  1  0  0  0  0
 23 24  1  0  0  0  0
 23 25  1  0  0  0  0
 24 50  1  0  0  0  0
 24 51  1  0  0  0  0
 24 52  1  0  0  0  0
 25 26  2  0  0  0  0
 25 53  1  0  0  0  0
 26 27  1  0  0  0  0
 26 54  1  0  0  0  0
 27 28  2  0  0  0  0
 28 29  1  0  0  0  0
 28 30  1  0  0  0  0
 29 31  1  0  0  0  0
 31 55  1  0  0  0  0
 31 56  1  0  0  0  0
M  END
> <PUBCHEM_COMPOUND_CID>
102004952

> <PUBCHEM_CONFORMER_RMSD>
0.8

> <PUBCHEM_CONFORMER_DIVERSEORDER>
1
159
156
256
260
250
293
180
152
264
86
188
254
334
186
255
267
268
96
104
231
218
203
32
37
261
166
310
11
174
220
232
160
224
24
291
162
113
273
284
252
271
305
111
309
204
50
154
68
251
102
129
195
213
258
201
78
53
207
253
322
163
190
144
132
265
209
149
150
318
169
127
13
64
296
233
266
103
236
181
3
16
27
238
280
223
317
137
22
145
301
193
84
283
171
30
142
125
6
141
18
23
214
285
175
170
5
80
183
259
331
281
60
97
217
101
33
277
235
286
92
304
108
58
12
228
139
146
205
4
116
222
189
8
257
299
226
153
72
216
79
244
227
184
164
17
167
73
62
7
333
107
316
192
48
40
336
135
128
303
148
311
114
134
95
46
147
210
124
292
99
140
110
199
332
19
272
85
87
215
14
123
56
77
21
282
335
44
83
75
43
63
225
155
20
177
239
15
54
297
122
66
2
118
10
126
65
94
26
130
157
240
263
120
248
197
294
67
90
47
208
143
300
115
35
179
289
69
182
34
302
196
191
198
52
81
315
106
112
237
89
165
45
279
100
91
262
194
55
269
306
61
321
151
9
82
25
131
117
246
187
298
49
76
74
119
324
136
42
41
38
36
173
109
29
234
138
121
275
168
28
39
287
51
59
98
133
312
229
276
31
247
161
70
270
221
71
230
57
314
274
202
93
105
178
245
243
88
290
206
158
211
329

> <PUBCHEM_MMFF94_PARTIAL_CHARGES>
34
1 -0.3
10 -0.04
11 0.05
12 0.65
13 0.34
15 0.51
16 0.28
17 0.38
19 0.14
2 -0.56
22 -0.29
23 -0.14
24 0.14
25 -0.15
26 -0.15
27 0.08
28 0.03
29 0.49
3 -0.56
30 0.62
31 0.36
32 0.1
4 -0.68
45 0.4
49 0.15
5 -0.57
53 0.15
54 0.15
57 0.45
58 0.37
6 -0.53
7 -0.57
8 -0.57
9 -0.73

> <PUBCHEM_EFFECTIVE_ROTOR_COUNT>
6.4

> <PUBCHEM_PHARMACOPHORE_FEATURES>
16
1 1 acceptor
1 2 acceptor
1 21 hydrophobe
1 24 hydrophobe
1 28 anion
1 3 acceptor
1 4 acceptor
1 4 donor
1 5 acceptor
1 6 donor
1 7 acceptor
1 8 acceptor
1 9 donor
5 9 28 29 30 31 rings
6 2 3 12 13 14 16 rings
7 1 2 10 11 12 13 15 rings

> <PUBCHEM_HEAVY_ATOM_COUNT>
31

> <PUBCHEM_ATOM_DEF_STEREO_COUNT>
2

> <PUBCHEM_ATOM_UDEF_STEREO_COUNT>
5

> <PUBCHEM_BOND_DEF_STEREO_COUNT>
3

> <PUBCHEM_BOND_UDEF_STEREO_COUNT>
0

> <PUBCHEM_ISOTOPIC_ATOM_COUNT>
0

> <PUBCHEM_COMPONENT_COUNT>
1

> <PUBCHEM_CACTVS_TAUTO_COUNT>
26

> <PUBCHEM_CONFORMER_ID>
061478D800000001

> <PUBCHEM_MMFF94_ENERGY>
77.6637

> <PUBCHEM_FEATURE_SELFOVERLAP>
81.963

> <PUBCHEM_SHAPE_FINGERPRINT>
10 15 18114185225255255297
10670039 82 17917720050064915809
11135609 127 12750939062288897098
11646440 116 17989209269658377705
12596602 18 16949997033008663329
12623949 98 15720219588469248946
12730499 353 17917716790005389871
12778500 126 17530682087537350852
13685833 64 7853572409741947863
14251764 18 17313106367536538699
14294032 229 18058724844405340063
14347332 77 12463580556235314467
14461889 52 18410017654550443323
14681490 219 15410897357643754795
14933364 13 18341618105511282223
15183329 4 13542467574893230011
15238133 3 18408878555833949752
15840311 113 17894634795050885172
19377110 9 17095523981261258095
20157964 124 16128655263006618316
21033648 29 17916855945995117978
21223535 225 16415212126668511739
221357 26 16343987992018676176
23198884 109 15267344033564428299
23559900 14 18265341612296453663
3663271 9 17458062660501152297
394071 54 14345803763821646678
4066623 53 16415480415905823664
4098825 35 13758362159127319171
44317340 157 17203888582576344901
59682541 52 16271931480159603822
9658208 31 17988639752383826207

> <PUBCHEM_SHAPE_MULTIPOLES>
586.03
21.75
2.2
1.91
38.68
0.04
-0.65
8.03
-1.74
1.2
0.64
-4.8
-0.35
0.39

> <PUBCHEM_SHAPE_SELFOVERLAP>
1253.905

> <PUBCHEM_SHAPE_VOLUME>
321.7

> <PUBCHEM_COORDINATE_TYPE>
2
5
10

$$$$
