10200390
  -OEChem-03292013303D

 47 50  0     0  0  0  0  0  0999 V2000
    4.0217   -2.3604   -0.5729 O   0  0  0  0  0  0  0  0  0  0  0  0
    6.0128   -0.9645    0.7731 O   0  0  0  0  0  0  0  0  0  0  0  0
   -5.7706   -0.6391   -0.0600 O   0  0  0  0  0  0  0  0  0  0  0  0
   -1.4982    2.3813   -0.3356 N   0  0  0  0  0  0  0  0  0  0  0  0
   -0.1430    0.4956   -0.0521 N   0  0  0  0  0  0  0  0  0  0  0  0
   -2.4605    0.2053   -0.3325 N   0  0  0  0  0  0  0  0  0  0  0  0
   -0.8427    4.5149   -0.3813 N   0  0  0  0  0  0  0  0  0  0  0  0
   -1.4869   -1.9268   -0.6883 N   0  0  0  0  0  0  0  0  0  0  0  0
   -4.8517   -0.5934    2.0256 N   0  0  0  0  0  0  0  0  0  0  0  0
   -0.4428    3.2672   -0.2555 C   0  0  0  0  0  0  0  0  0  0  0  0
    0.9348    1.3594    0.0381 C   0  0  0  0  0  0  0  0  0  0  0  0
   -1.3400    0.9897   -0.2341 C   0  0  0  0  0  0  0  0  0  0  0  0
    2.2687    0.7455    0.2292 C   0  0  0  0  0  0  0  0  0  0  0  0
    0.8355    2.7003   -0.0616 C   0  0  0  0  0  0  0  0  0  0  0  0
   -2.6317    3.1319   -0.5233 C   0  0  0  0  0  0  0  0  0  0  0  0
    2.5257   -0.5331   -0.2656 C   0  0  0  0  0  0  0  0  0  0  0  0
    3.2680    1.4456    0.9052 C   0  0  0  0  0  0  0  0  0  0  0  0
   -2.2001    4.4376   -0.5478 C   0  0  0  0  0  0  0  0  0  0  0  0
    3.7822   -1.1115   -0.0845 C   0  0  0  0  0  0  0  0  0  0  0  0
   -2.5478   -1.1858   -0.2629 C   0  0  0  0  0  0  0  0  0  0  0  0
    4.7814   -0.4111    0.5913 C   0  0  0  0  0  0  0  0  0  0  0  0
    4.5242    0.8675    1.0862 C   0  0  0  0  0  0  0  0  0  0  0  0
   -3.7142   -1.7670    0.2382 C   0  0  0  0  0  0  0  0  0  0  0  0
   -3.7940   -3.1537    0.3046 C   0  0  0  0  0  0  0  0  0  0  0  0
   -2.7216   -3.9275   -0.1249 C   0  0  0  0  0  0  0  0  0  0  0  0
   -4.8429   -0.9653    0.6903 C   0  0  0  0  0  0  0  0  0  0  0  0
   -1.6011   -3.2716   -0.6086 C   0  0  0  0  0  0  0  0  0  0  0  0
    2.9471   -3.0081   -1.2512 C   0  0  0  0  0  0  0  0  0  0  0  0
    6.9879   -0.7228   -0.2393 C   0  0  0  0  0  0  0  0  0  0  0  0
    1.6814    3.3766   -0.0288 H   0  0  0  0  0  0  0  0  0  0  0  0
   -3.6194    2.7049   -0.6209 H   0  0  0  0  0  0  0  0  0  0  0  0
   -3.3541    0.6542   -0.5053 H   0  0  0  0  0  0  0  0  0  0  0  0
    1.7255   -1.0376   -0.7960 H   0  0  0  0  0  0  0  0  0  0  0  0
    3.1042    2.4302    1.3342 H   0  0  0  0  0  0  0  0  0  0  0  0
   -2.8015    5.3256   -0.6768 H   0  0  0  0  0  0  0  0  0  0  0  0
    5.2962    1.4155    1.6198 H   0  0  0  0  0  0  0  0  0  0  0  0
   -4.6856   -3.6424    0.6884 H   0  0  0  0  0  0  0  0  0  0  0  0
   -2.7614   -5.0099   -0.0824 H   0  0  0  0  0  0  0  0  0  0  0  0
   -0.7373   -3.8290   -0.9554 H   0  0  0  0  0  0  0  0  0  0  0  0
    2.6597   -2.4693   -2.1606 H   0  0  0  0  0  0  0  0  0  0  0  0
    2.0969   -3.1875   -0.5842 H   0  0  0  0  0  0  0  0  0  0  0  0
    3.3128   -3.9904   -1.5682 H   0  0  0  0  0  0  0  0  0  0  0  0
    7.1944    0.3488   -0.3245 H   0  0  0  0  0  0  0  0  0  0  0  0
    6.6500   -1.1183   -1.2024 H   0  0  0  0  0  0  0  0  0  0  0  0
    7.9111   -1.2353    0.0448 H   0  0  0  0  0  0  0  0  0  0  0  0
   -4.1074   -0.8549    2.6646 H   0  0  0  0  0  0  0  0  0  0  0  0
   -5.6116   -0.0410    2.4083 H   0  0  0  0  0  0  0  0  0  0  0  0
  1 19  1  0  0  0  0
  1 28  1  0  0  0  0
  2 21  1  0  0  0  0
  2 29  1  0  0  0  0
  3 26  2  0  0  0  0
  4 10  1  0  0  0  0
  4 12  1  0  0  0  0
  4 15  1  0  0  0  0
  5 11  1  0  0  0  0
  5 12  2  0  0  0  0
  6 12  1  0  0  0  0
  6 20  1  0  0  0  0
  6 32  1  0  0  0  0
  7 10  2  0  0  0  0
  7 18  1  0  0  0  0
  8 20  1  0  0  0  0
  8 27  2  0  0  0  0
  9 26  1  0  0  0  0
  9 46  1  0  0  0  0
  9 47  1  0  0  0  0
 10 14  1  0  0  0  0
 11 13  1  0  0  0  0
 11 14  2  0  0  0  0
 13 16  2  0  0  0  0
 13 17  1  0  0  0  0
 14 30  1  0  0  0  0
 15 18  2  0  0  0  0
 15 31  1  0  0  0  0
 16 19  1  0  0  0  0
 16 33  1  0  0  0  0
 17 22  2  0  0  0  0
 17 34  1  0  0  0  0
 18 35  1  0  0  0  0
 19 21  2  0  0  0  0
 20 23  2  0  0  0  0
 21 22  1  0  0  0  0
 22 36  1  0  0  0  0
 23 24  1  0  0  0  0
 23 26  1  0  0  0  0
 24 25  2  0  0  0  0
 24 37  1  0  0  0  0
 25 27  1  0  0  0  0
 25 38  1  0  0  0  0
 27 39  1  0  0  0  0
 28 40  1  0  0  0  0
 28 41  1  0  0  0  0
 28 42  1  0  0  0  0
 29 43  1  0  0  0  0
 29 44  1  0  0  0  0
 29 45  1  0  0  0  0
M  END
> <PUBCHEM_COMPOUND_CID>
10200390

> <PUBCHEM_CONFORMER_RMSD>
0.8

> <PUBCHEM_CONFORMER_DIVERSEORDER>
85
106
34
71
103
108
86
118
23
78
131
101
36
83
38
137
114
139
72
63
120
79
53
69
81
105
95
112
107
67
51
52
84
136
77
130
91
61
76
82
45
80
135
102
39
65
57
88
24
125
126
48
58
46
127
42
96
92
32
64
113
33
68
89
124
22
111
54
110
70
74
98
75
30
99
31
87
25
104
60
122
66
28
97
47
55
116
94
129
134
40
109
121
29
19
90
93
133
20
56
128
26
123
44
41
50
132
1
37
43
117
62
100
13
138
15
119
115
7
59
35
17
12
73
10
6
27
49
21
4
14
11
18
5
9
16
8
2
3

> <PUBCHEM_MMFF94_PARTIAL_CHARGES>
41
1 -0.36
10 0.14
11 0.14
12 0.51
13 0.03
14 -0.11
15 -0.3
16 -0.15
17 -0.15
18 0.08
19 0.08
2 -0.36
20 0.41
21 0.08
22 -0.15
23 0.09
24 -0.15
25 -0.15
26 0.54
27 0.16
28 0.28
29 0.28
3 -0.57
30 0.15
31 0.15
32 0.4
33 0.15
34 0.15
35 0.15
36 0.15
37 0.15
38 0.15
39 0.15
4 0.29
46 0.37
47 0.37
5 -0.62
6 -0.55
7 -0.57
8 -0.62
9 -0.8

> <PUBCHEM_EFFECTIVE_ROTOR_COUNT>
6

> <PUBCHEM_PHARMACOPHORE_FEATURES>
11
1 1 acceptor
1 2 acceptor
1 3 acceptor
1 6 donor
1 8 acceptor
1 9 donor
4 4 5 6 12 cation
5 4 7 10 15 18 rings
6 13 16 17 19 21 22 rings
6 4 5 10 11 12 14 rings
6 8 20 23 24 25 27 rings

> <PUBCHEM_HEAVY_ATOM_COUNT>
29

> <PUBCHEM_ATOM_DEF_STEREO_COUNT>
0

> <PUBCHEM_ATOM_UDEF_STEREO_COUNT>
0

> <PUBCHEM_BOND_DEF_STEREO_COUNT>
0

> <PUBCHEM_BOND_UDEF_STEREO_COUNT>
0

> <PUBCHEM_ISOTOPIC_ATOM_COUNT>
0

> <PUBCHEM_COMPONENT_COUNT>
1

> <PUBCHEM_CACTVS_TAUTO_COUNT>
11

> <PUBCHEM_CONFORMER_ID>
009BA54600000055

> <PUBCHEM_MMFF94_ENERGY>
115.7673

> <PUBCHEM_FEATURE_SELFOVERLAP>
55.945

> <PUBCHEM_SHAPE_FINGERPRINT>
10411042 1 18265329684644472319
11056379 131 18338240371394313612
11135926 11 17975409436451782460
11756154 67 18338239374624790927
12107183 9 18339370781354343051
12553582 1 18338518667472616205
12788726 201 18260561016957490400
13004483 165 18336819879116408697
13140716 1 18197213869961952195
13402501 40 18342176665760915110
138480 1 15961173970465129093
14117953 113 18412546513897622775
14725015 67 18267305331073092375
14844126 61 18335129856677098520
15042514 8 18408882906420165969
15230672 131 17904484005263995294
15361156 5 18262246628544613222
15927050 60 17764301748779302309
16087824 20 18336544907728162061
16110190 28 18269558393653777954
1813 80 17604144938549234797
19591789 44 18195248819598024677
20739085 24 18051128387172408856
21133410 58 17834092510201999031
21796203 349 17900861353976352753
22122407 14 15841556322426378107
229767 44 18341344318684495361
23559900 14 18268985573580648008
3298306 158 17330549843842241636
335352 9 18409727392043797271
4409770 3 18261663784650830413
463206 1 18189617326951657826
5080951 261 17825077391052813456
513202 73 18262525783858962178
5171179 24 17768261111346224455
5309563 4 18266454489340091670
56633871 153 18340492282866930379
7097593 13 17979359990883863175
7399639 24 18198325433811884352
79837 15 17979075977133900033
9709674 26 18198334066500535020

> <PUBCHEM_SHAPE_MULTIPOLES>
549.31
12.14
5.62
0.97
10.93
3.4
0.24
-8.53
3.04
-5.16
-1.65
-0.13
-0.19
1.43

> <PUBCHEM_SHAPE_SELFOVERLAP>
1214.494

> <PUBCHEM_SHAPE_VOLUME>
293.9

> <PUBCHEM_COORDINATE_TYPE>
2
5
10

$$$$
