102004437
  -OEChem-03292013293D

 54 58  0     1  0  0  0  0  0999 V2000
   -0.2592   -0.1425   -2.1458 O   0  0  0  0  0  0  0  0  0  0  0  0
    0.9891   -2.1050   -1.8941 O   0  0  0  0  0  0  0  0  0  0  0  0
   -0.5900   -2.7743    0.3751 O   0  0  0  0  0  0  0  0  0  0  0  0
    2.1510    1.2860   -2.0215 O   0  0  0  0  0  0  0  0  0  0  0  0
   -1.4781    3.2287    0.1027 O   0  0  0  0  0  0  0  0  0  0  0  0
    1.7658   -2.1244    1.3032 O   0  0  0  0  0  0  0  0  0  0  0  0
   -1.0319    0.8182    0.0055 C   0  0  1  0  0  0  0  0  0  0  0  0
    1.2655   -0.3027   -0.2934 C   0  0  1  0  0  0  0  0  0  0  0  0
    0.4777    0.7875    0.5081 C   0  0  1  0  0  0  0  0  0  0  0  0
   -1.6356   -0.5903    0.3828 C   0  0  2  0  0  0  0  0  0  0  0  0
    0.2852   -1.0827   -1.1925 C   0  0  1  0  0  0  0  0  0  0  0  0
   -0.9344   -1.6797   -0.4627 C   0  0  1  0  0  0  0  0  0  0  0  0
    2.4834    0.2852   -1.0800 C   0  0  2  0  0  0  0  0  0  0  0  0
   -3.2050   -0.7176    0.4220 C   0  0  0  0  0  0  0  0  0  0  0  0
   -1.8183    1.9700    0.6825 C   0  0  2  0  0  0  0  0  0  0  0  0
   -0.9679    0.9459   -1.5335 C   0  0  0  0  0  0  0  0  0  0  0  0
    1.2139    2.1461    0.5471 C   0  0  0  0  0  0  0  0  0  0  0  0
    3.3751    0.8163    0.0484 C   0  0  1  0  0  0  0  0  0  0  0  0
    2.0856   -1.1004    0.7260 C   0  0  0  0  0  0  0  0  0  0  0  0
    2.7375    2.0360    0.7364 C   0  0  0  0  0  0  0  0  0  0  0  0
   -3.7907    0.4915    1.1837 C   0  0  0  0  0  0  0  0  0  0  0  0
   -3.3340    1.8212    0.6063 C   0  0  0  0  0  0  0  0  0  0  0  0
    3.3762   -0.3818    0.9597 C   0  0  0  0  0  0  0  0  0  0  0  0
   -3.5945   -1.9956    1.2057 C   0  0  0  0  0  0  0  0  0  0  0  0
   -3.8997   -0.8235   -0.9536 C   0  0  0  0  0  0  0  0  0  0  0  0
    4.3334   -0.8121    1.7820 C   0  0  0  0  0  0  0  0  0  0  0  0
    0.4389    0.4754    1.5636 H   0  0  0  0  0  0  0  0  0  0  0  0
   -1.3441   -0.7484    1.4336 H   0  0  0  0  0  0  0  0  0  0  0  0
   -1.6033   -2.0903   -1.2220 H   0  0  0  0  0  0  0  0  0  0  0  0
    3.0067   -0.5103   -1.6297 H   0  0  0  0  0  0  0  0  0  0  0  0
   -1.5342    2.0147    1.7419 H   0  0  0  0  0  0  0  0  0  0  0  0
   -1.9564    0.9921   -1.9906 H   0  0  0  0  0  0  0  0  0  0  0  0
   -0.4649    1.8677   -1.8424 H   0  0  0  0  0  0  0  0  0  0  0  0
    0.8137    2.7662    1.3583 H   0  0  0  0  0  0  0  0  0  0  0  0
    1.0241    2.7091   -0.3727 H   0  0  0  0  0  0  0  0  0  0  0  0
    4.3811    1.0617   -0.3081 H   0  0  0  0  0  0  0  0  0  0  0  0
    3.1913    2.9503    0.3327 H   0  0  0  0  0  0  0  0  0  0  0  0
    2.9727    2.0355    1.8085 H   0  0  0  0  0  0  0  0  0  0  0  0
   -3.4938    0.4450    2.2401 H   0  0  0  0  0  0  0  0  0  0  0  0
   -4.8876    0.4545    1.1744 H   0  0  0  0  0  0  0  0  0  0  0  0
   -3.6819    1.9519   -0.4246 H   0  0  0  0  0  0  0  0  0  0  0  0
   -3.8043    2.6379    1.1690 H   0  0  0  0  0  0  0  0  0  0  0  0
   -3.2729   -2.9024    0.6829 H   0  0  0  0  0  0  0  0  0  0  0  0
   -3.6194   -1.7310   -1.4955 H   0  0  0  0  0  0  0  0  0  0  0  0
   -3.7015    0.0284   -1.6023 H   0  0  0  0  0  0  0  0  0  0  0  0
   -4.6809   -2.0626    1.3367 H   0  0  0  0  0  0  0  0  0  0  0  0
   -3.1435   -2.0054    2.2043 H   0  0  0  0  0  0  0  0  0  0  0  0
   -4.9891   -0.8689   -0.8289 H   0  0  0  0  0  0  0  0  0  0  0  0
    0.3545   -2.7970   -2.1440 H   0  0  0  0  0  0  0  0  0  0  0  0
   -0.1131   -2.4361    1.1498 H   0  0  0  0  0  0  0  0  0  0  0  0
    2.9833    1.6512   -2.3668 H   0  0  0  0  0  0  0  0  0  0  0  0
   -1.9394    3.9206    0.6066 H   0  0  0  0  0  0  0  0  0  0  0  0
    5.2614   -0.2601    1.8860 H   0  0  0  0  0  0  0  0  0  0  0  0
    4.2173   -1.7167    2.3687 H   0  0  0  0  0  0  0  0  0  0  0  0
  1 11  1  0  0  0  0
  1 16  1  0  0  0  0
  2 11  1  0  0  0  0
  2 49  1  0  0  0  0
  3 12  1  0  0  0  0
  3 50  1  0  0  0  0
  4 13  1  0  0  0  0
  4 51  1  0  0  0  0
  5 15  1  0  0  0  0
  5 52  1  0  0  0  0
  6 19  2  0  0  0  0
  7  9  1  0  0  0  0
  7 10  1  0  0  0  0
  7 15  1  0  0  0  0
  7 16  1  0  0  0  0
  8  9  1  0  0  0  0
  8 11  1  0  0  0  0
  8 13  1  0  0  0  0
  8 19  1  0  0  0  0
  9 17  1  0  0  0  0
  9 27  1  0  0  0  0
 10 12  1  0  0  0  0
 10 14  1  0  0  0  0
 10 28  1  0  0  0  0
 11 12  1  0  0  0  0
 12 29  1  0  0  0  0
 13 18  1  0  0  0  0
 13 30  1  0  0  0  0
 14 21  1  0  0  0  0
 14 24  1  0  0  0  0
 14 25  1  0  0  0  0
 15 22  1  0  0  0  0
 15 31  1  0  0  0  0
 16 32  1  0  0  0  0
 16 33  1  0  0  0  0
 17 20  1  0  0  0  0
 17 34  1  0  0  0  0
 17 35  1  0  0  0  0
 18 20  1  0  0  0  0
 18 23  1  0  0  0  0
 18 36  1  0  0  0  0
 19 23  1  0  0  0  0
 20 37  1  0  0  0  0
 20 38  1  0  0  0  0
 21 22  1  0  0  0  0
 21 39  1  0  0  0  0
 21 40  1  0  0  0  0
 22 41  1  0  0  0  0
 22 42  1  0  0  0  0
 23 26  2  0  0  0  0
 24 43  1  0  0  0  0
 24 46  1  0  0  0  0
 24 47  1  0  0  0  0
 25 44  1  0  0  0  0
 25 45  1  0  0  0  0
 25 48  1  0  0  0  0
 26 53  1  0  0  0  0
 26 54  1  0  0  0  0
M  END
> <PUBCHEM_COMPOUND_CID>
102004437

> <PUBCHEM_CONFORMER_RMSD>
0.6

> <PUBCHEM_CONFORMER_DIVERSEORDER>
1

> <PUBCHEM_MMFF94_PARTIAL_CHARGES>
22
1 -0.56
11 0.56
12 0.28
13 0.28
15 0.28
16 0.28
18 0.14
19 0.49
2 -0.68
23 -0.12
26 -0.3
3 -0.68
4 -0.68
49 0.4
5 -0.68
50 0.4
51 0.4
52 0.4
53 0.15
54 0.15
6 -0.57
8 0.06

> <PUBCHEM_EFFECTIVE_ROTOR_COUNT>
2

> <PUBCHEM_PHARMACOPHORE_FEATURES>
14
1 1 acceptor
1 2 acceptor
1 2 donor
1 3 acceptor
1 3 donor
1 4 acceptor
1 4 donor
1 5 acceptor
1 5 donor
1 6 acceptor
3 14 24 25 hydrophobe
6 7 10 14 15 21 22 rings
8 1 7 8 9 10 11 12 16 rings
8 8 9 13 17 18 19 20 23 rings

> <PUBCHEM_HEAVY_ATOM_COUNT>
26

> <PUBCHEM_ATOM_DEF_STEREO_COUNT>
8

> <PUBCHEM_ATOM_UDEF_STEREO_COUNT>
1

> <PUBCHEM_BOND_DEF_STEREO_COUNT>
0

> <PUBCHEM_BOND_UDEF_STEREO_COUNT>
0

> <PUBCHEM_ISOTOPIC_ATOM_COUNT>
0

> <PUBCHEM_COMPONENT_COUNT>
1

> <PUBCHEM_CACTVS_TAUTO_COUNT>
1

> <PUBCHEM_CONFORMER_ID>
061476D500000001

> <PUBCHEM_MMFF94_ENERGY>
124.657

> <PUBCHEM_FEATURE_SELFOVERLAP>
71.134

> <PUBCHEM_SHAPE_FINGERPRINT>
10759866 29 18187938317109148228
10863032 1 18260828219541572833
10948715 1 18059296586035061120
10967382 1 18196371639697058473
11132069 177 17918276454545660601
11578080 2 17532085003717603852
12011746 2 18412546534887006373
12553582 1 18340218465658211049
12633257 1 18411423873591461041
12892183 10 18335701705807986274
13140716 1 18126000709296592979
13224815 77 18060139851487618389
13538477 17 18337388369830628414
13583140 156 18115858762697395649
14223421 5 18411985736770235491
14787075 74 17541952325996997143
14955137 171 18342737382810689136
15209289 33 18260540130964346010
16752209 62 18413953879790164983
16945 1 18272379718799517495
17349148 13 18410005568258751623
1813 80 17604430666419651018
18981168 100 17060058082160261509
20691752 17 18270982188397718447
20715895 44 18044648695136931557
20905425 154 18056490456066883797
21756936 100 18200867491899941104
22182313 1 17845377644071138948
2334 1 17621881315299008653
23419403 2 18045755018276377325
23559900 14 18127427652008884006
2748010 2 17914625951102510885
296302 2 17168147874852312069
3286 77 18334569178967007360
34934 24 18053936526847501952
3797600 57 18339091500356859952
392239 28 17903361746692075408
5104073 3 18411418431588426512
7097593 13 18044652001507070418

> <PUBCHEM_SHAPE_MULTIPOLES>
499.85
6.52
2.7
1.66
0.55
0.49
0.6
-0.39
-2.73
0.73
-0.4
-0.54
-0.36
-0.4

> <PUBCHEM_SHAPE_SELFOVERLAP>
1108.042

> <PUBCHEM_SHAPE_VOLUME>
257.4

> <PUBCHEM_COORDINATE_TYPE>
2
5
10

$$$$
