102117121
  -OEChem-03292013293D

 60 63  0     1  0  0  0  0  0999 V2000
   -2.0505   -2.0405   -0.7900 O   0  0  0  0  0  0  0  0  0  0  0  0
   -2.0929    2.7541    0.0686 O   0  0  0  0  0  0  0  0  0  0  0  0
    0.5762    2.6639    0.7585 O   0  0  0  0  0  0  0  0  0  0  0  0
   -5.0400    0.5528   -1.2745 O   0  0  0  0  0  0  0  0  0  0  0  0
    6.5794   -0.2387    0.2128 O   0  0  0  0  0  0  0  0  0  0  0  0
   -2.2402    0.3183   -0.2293 C   0  0  1  0  0  0  0  0  0  0  0  0
   -1.4545   -1.0020    0.0045 C   0  0  2  0  0  0  0  0  0  0  0  0
    0.0495   -0.9208   -0.3700 C   0  0  1  0  0  0  0  0  0  0  0  0
    0.8000    0.3019    0.2224 C   0  0  1  0  0  0  0  0  0  0  0  0
   -3.5740    0.0801    0.5683 C   0  0  2  0  0  0  0  0  0  0  0  0
   -1.4748    1.5086    0.4216 C   0  0  1  0  0  0  0  0  0  0  0  0
    2.3172    0.3621   -0.2952 C   0  0  2  0  0  0  0  0  0  0  0  0
   -0.0059    1.6061   -0.0069 C   0  0  1  0  0  0  0  0  0  0  0  0
   -1.7527   -1.3164    1.4778 C   0  0  0  0  0  0  0  0  0  0  0  0
   -3.2263   -0.9570    1.6573 C   0  0  0  0  0  0  0  0  0  0  0  0
    0.7807   -2.2279   -0.0010 C   0  0  0  0  0  0  0  0  0  0  0  0
   -2.4798    0.6002   -1.7284 C   0  0  0  0  0  0  0  0  0  0  0  0
    2.9626   -1.0320   -0.3111 C   0  0  0  0  0  0  0  0  0  0  0  0
    3.1569    1.2710    0.6571 C   0  0  0  0  0  0  0  0  0  0  0  0
   -4.7830   -0.3913   -0.2438 C   0  0  1  0  0  0  0  0  0  0  0  0
    2.2599   -2.1652   -0.1622 C   0  0  0  0  0  0  0  0  0  0  0  0
    2.3883    0.9328   -1.7331 C   0  0  0  0  0  0  0  0  0  0  0  0
    4.4619   -1.1095   -0.4867 C   0  0  0  0  0  0  0  0  0  0  0  0
    4.6700    1.2102    0.4408 C   0  0  0  0  0  0  0  0  0  0  0  0
    5.1880   -0.2198    0.5138 C   0  0  2  0  0  0  0  0  0  0  0  0
   -6.0158   -0.5409    0.6284 C   0  0  0  0  0  0  0  0  0  0  0  0
    0.0952   -0.8436   -1.4655 H   0  0  0  0  0  0  0  0  0  0  0  0
    0.8577    0.1472    1.3105 H   0  0  0  0  0  0  0  0  0  0  0  0
   -3.8693    1.0145    1.0619 H   0  0  0  0  0  0  0  0  0  0  0  0
   -1.5194    1.4556    1.5165 H   0  0  0  0  0  0  0  0  0  0  0  0
    0.0367    1.9215   -1.0530 H   0  0  0  0  0  0  0  0  0  0  0  0
   -1.1401   -0.7173    2.1592 H   0  0  0  0  0  0  0  0  0  0  0  0
   -1.5987   -2.3709    1.7308 H   0  0  0  0  0  0  0  0  0  0  0  0
   -3.8158   -1.8754    1.5619 H   0  0  0  0  0  0  0  0  0  0  0  0
   -3.4081   -0.5578    2.6611 H   0  0  0  0  0  0  0  0  0  0  0  0
    0.4076   -3.0424   -0.6330 H   0  0  0  0  0  0  0  0  0  0  0  0
    0.5814   -2.5123    1.0378 H   0  0  0  0  0  0  0  0  0  0  0  0
   -1.5237    0.7161   -2.2517 H   0  0  0  0  0  0  0  0  0  0  0  0
   -3.0250    1.5333   -1.9008 H   0  0  0  0  0  0  0  0  0  0  0  0
   -2.9885   -0.2196   -2.2451 H   0  0  0  0  0  0  0  0  0  0  0  0
    2.9515    0.9963    1.7004 H   0  0  0  0  0  0  0  0  0  0  0  0
    2.8679    2.3202    0.5445 H   0  0  0  0  0  0  0  0  0  0  0  0
   -4.5729   -1.3520   -0.7266 H   0  0  0  0  0  0  0  0  0  0  0  0
    2.7769   -3.1219   -0.1560 H   0  0  0  0  0  0  0  0  0  0  0  0
   -1.7551   -2.8999   -0.4462 H   0  0  0  0  0  0  0  0  0  0  0  0
    2.0982    1.9882   -1.7625 H   0  0  0  0  0  0  0  0  0  0  0  0
    1.7354    0.3836   -2.4194 H   0  0  0  0  0  0  0  0  0  0  0  0
    3.3984    0.8869   -2.1532 H   0  0  0  0  0  0  0  0  0  0  0  0
    4.8317   -2.1374   -0.3766 H   0  0  0  0  0  0  0  0  0  0  0  0
    4.7318   -0.8249   -1.5114 H   0  0  0  0  0  0  0  0  0  0  0  0
    4.9393    1.6607   -0.5227 H   0  0  0  0  0  0  0  0  0  0  0  0
    5.1752    1.8235    1.1974 H   0  0  0  0  0  0  0  0  0  0  0  0
   -2.9911    2.7642    0.4372 H   0  0  0  0  0  0  0  0  0  0  0  0
    5.0591   -0.6167    1.5282 H   0  0  0  0  0  0  0  0  0  0  0  0
    0.5539    2.4049    1.6956 H   0  0  0  0  0  0  0  0  0  0  0  0
   -6.2637    0.4061    1.1210 H   0  0  0  0  0  0  0  0  0  0  0  0
   -5.9120   -1.3137    1.3938 H   0  0  0  0  0  0  0  0  0  0  0  0
   -6.8846   -0.7998    0.0122 H   0  0  0  0  0  0  0  0  0  0  0  0
   -5.7960    0.2270   -1.7918 H   0  0  0  0  0  0  0  0  0  0  0  0
    7.0268    0.3331    0.8597 H   0  0  0  0  0  0  0  0  0  0  0  0
  1  7  1  0  0  0  0
  1 45  1  0  0  0  0
  2 11  1  0  0  0  0
  2 53  1  0  0  0  0
  3 13  1  0  0  0  0
  3 55  1  0  0  0  0
  4 20  1  0  0  0  0
  4 59  1  0  0  0  0
  5 25  1  0  0  0  0
  5 60  1  0  0  0  0
  6  7  1  0  0  0  0
  6 10  1  0  0  0  0
  6 11  1  0  0  0  0
  6 17  1  0  0  0  0
  7  8  1  0  0  0  0
  7 14  1  0  0  0  0
  8  9  1  0  0  0  0
  8 16  1  0  0  0  0
  8 27  1  0  0  0  0
  9 12  1  0  0  0  0
  9 13  1  0  0  0  0
  9 28  1  0  0  0  0
 10 15  1  0  0  0  0
 10 20  1  0  0  0  0
 10 29  1  0  0  0  0
 11 13  1  0  0  0  0
 11 30  1  0  0  0  0
 12 18  1  0  0  0  0
 12 19  1  0  0  0  0
 12 22  1  0  0  0  0
 13 31  1  0  0  0  0
 14 15  1  0  0  0  0
 14 32  1  0  0  0  0
 14 33  1  0  0  0  0
 15 34  1  0  0  0  0
 15 35  1  0  0  0  0
 16 21  1  0  0  0  0
 16 36  1  0  0  0  0
 16 37  1  0  0  0  0
 17 38  1  0  0  0  0
 17 39  1  0  0  0  0
 17 40  1  0  0  0  0
 18 21  2  0  0  0  0
 18 23  1  0  0  0  0
 19 24  1  0  0  0  0
 19 41  1  0  0  0  0
 19 42  1  0  0  0  0
 20 26  1  0  0  0  0
 20 43  1  0  0  0  0
 21 44  1  0  0  0  0
 22 46  1  0  0  0  0
 22 47  1  0  0  0  0
 22 48  1  0  0  0  0
 23 25  1  0  0  0  0
 23 49  1  0  0  0  0
 23 50  1  0  0  0  0
 24 25  1  0  0  0  0
 24 51  1  0  0  0  0
 24 52  1  0  0  0  0
 25 54  1  0  0  0  0
 26 56  1  0  0  0  0
 26 57  1  0  0  0  0
 26 58  1  0  0  0  0
M  END
> <PUBCHEM_COMPOUND_CID>
102117121

> <PUBCHEM_CONFORMER_RMSD>
0.6

> <PUBCHEM_CONFORMER_DIVERSEORDER>
1
2
5
3
4

> <PUBCHEM_MMFF94_PARTIAL_CHARGES>
21
1 -0.68
11 0.28
12 0.14
13 0.28
16 0.14
18 -0.28
2 -0.68
20 0.28
21 -0.29
23 0.14
25 0.28
3 -0.68
4 -0.68
44 0.15
45 0.4
5 -0.68
53 0.4
55 0.4
59 0.4
60 0.4
7 0.28

> <PUBCHEM_EFFECTIVE_ROTOR_COUNT>
3

> <PUBCHEM_PHARMACOPHORE_FEATURES>
14
1 1 acceptor
1 1 donor
1 2 acceptor
1 2 donor
1 3 acceptor
1 3 donor
1 4 acceptor
1 4 donor
1 5 acceptor
1 5 donor
5 6 7 10 14 15 rings
6 12 18 19 23 24 25 rings
6 6 7 8 9 11 13 rings
6 8 9 12 16 18 21 rings

> <PUBCHEM_HEAVY_ATOM_COUNT>
26

> <PUBCHEM_ATOM_DEF_STEREO_COUNT>
10

> <PUBCHEM_ATOM_UDEF_STEREO_COUNT>
0

> <PUBCHEM_BOND_DEF_STEREO_COUNT>
0

> <PUBCHEM_BOND_UDEF_STEREO_COUNT>
0

> <PUBCHEM_ISOTOPIC_ATOM_COUNT>
0

> <PUBCHEM_COMPONENT_COUNT>
1

> <PUBCHEM_CACTVS_TAUTO_COUNT>
1

> <PUBCHEM_CONFORMER_ID>
06162F0100000001

> <PUBCHEM_MMFF94_ENERGY>
100.5601

> <PUBCHEM_FEATURE_SELFOVERLAP>
71.24

> <PUBCHEM_SHAPE_FINGERPRINT>
10 15 18337663218575044512
10366900 7 18411704279226588866
10670039 82 18264224547543053572
10906281 52 18338255798568668065
11315181 36 18040440988653956688
11578080 2 16952799558760723782
11646440 116 18271533064760097913
12011746 2 18411134731791930849
12035758 1 18261120716148196555
12166972 35 18040718082352796596
12236239 1 13767926823541119399
12403259 415 18408876348247490372
12596599 1 17487918880028690487
12633257 1 18060134380005005056
12788726 201 18335694988526965592
12838862 33 18340749499540980576
13140716 1 18196937901191447993
13224815 77 18410295804789267882
13402501 40 18409166623258340506
13533116 47 17968367949587033706
13583140 156 17458057162552655480
13675066 3 18260831539851998842
13862211 1 18412541024496966199
14223421 5 18268433426039538750
14341114 176 17968100832769895290
14386348 63 18334577949058175562
14787075 74 18272929444896768008
14790565 3 18342745083117988137
15196674 1 18268430140183835386
15788980 27 18334292093589304190
16945 1 18340777021786267873
17349148 13 18260543420297065636
17492 89 18125159338273383230
19141452 34 18059575836203096255
19489759 90 17240199928783413071
200 152 18201718440457705347
21033648 29 18338217324146531800
21033650 10 14763254257118246034
21236236 1 18342177713891119609
21267235 1 18412833464984009062
21279426 13 18263642853877351381
23402539 116 18272363196039198423
23557571 272 17748824090122527372
23558518 356 18118695309413246417
23559900 14 18260548943888908392
23569914 152 16975321804983930791
26918003 58 18041000656661598274
335352 9 18412825810740228285
3380486 145 18191601937392892267
34934 24 18341609343192844951
350125 39 18410014338571576252
3545911 37 18407478860214998678
5104073 3 18268709403426540714
5283173 99 18115017498958691597
59755656 215 18409169887871880958
9709674 26 18268155270788016598

> <PUBCHEM_SHAPE_MULTIPOLES>
505.72
11.22
2.23
1.23
2.54
0.4
-0.17
-0.93
0.81
0.26
0.16
-0.68
0.06
0.7

> <PUBCHEM_SHAPE_SELFOVERLAP>
1079.13

> <PUBCHEM_SHAPE_VOLUME>
275

> <PUBCHEM_COORDINATE_TYPE>
2
5
10

$$$$
