10213
  -OEChem-03292013323D

 46 46  0     1  0  0  0  0  0999 V2000
   -4.0841   -1.7233    0.8659 O   0  0  0  0  0  0  0  0  0  0  0  0
   -0.9291    3.9480    0.9000 O   0  0  0  0  0  0  0  0  0  0  0  0
    4.1132    1.6665    0.9183 O   0  0  0  0  0  0  0  0  0  0  0  0
    0.8955   -3.9674    0.7659 O   0  0  0  0  0  0  0  0  0  0  0  0
   -2.6618   -0.4440    2.0916 O   0  0  0  0  0  0  0  0  0  0  0  0
   -0.0247    2.0585    1.7800 O   0  0  0  0  0  0  0  0  0  0  0  0
    2.6805    0.3609    2.1036 O   0  0  0  0  0  0  0  0  0  0  0  0
    0.0149   -2.0999    1.7141 O   0  0  0  0  0  0  0  0  0  0  0  0
   -1.3909    0.5335   -0.0535 N   0  0  0  0  0  0  0  0  0  0  0  0
    1.3920   -0.5269   -0.0699 N   0  0  0  0  0  0  0  0  0  0  0  0
   -0.5064    0.6126   -1.2184 C   0  0  1  0  0  0  0  0  0  0  0  0
    0.5029   -0.5556   -1.2340 C   0  0  1  0  0  0  0  0  0  0  0  0
   -1.3642    0.6117   -2.4919 C   0  0  0  0  0  0  0  0  0  0  0  0
    1.3626   -0.5194   -2.5058 C   0  0  0  0  0  0  0  0  0  0  0  0
   -0.5017    0.6372   -3.7513 C   0  0  0  0  0  0  0  0  0  0  0  0
    0.5016   -0.5108   -3.7665 C   0  0  0  0  0  0  0  0  0  0  0  0
   -2.4910   -0.3933   -0.3123 C   0  0  0  0  0  0  0  0  0  0  0  0
   -1.9052    1.8590    0.2854 C   0  0  0  0  0  0  0  0  0  0  0  0
    2.5017    0.3961   -0.3000 C   0  0  0  0  0  0  0  0  0  0  0  0
    1.8928   -1.8689    0.2208 C   0  0  0  0  0  0  0  0  0  0  0  0
   -3.0743   -0.8270    1.0041 C   0  0  0  0  0  0  0  0  0  0  0  0
   -0.8495    2.6021    1.0563 C   0  0  0  0  0  0  0  0  0  0  0  0
    3.0939    0.7772    1.0287 C   0  0  0  0  0  0  0  0  0  0  0  0
    0.8313   -2.6269    0.9691 C   0  0  0  0  0  0  0  0  0  0  0  0
    0.0615    1.5520   -1.2037 H   0  0  0  0  0  0  0  0  0  0  0  0
   -0.0655   -1.4946   -1.2527 H   0  0  0  0  0  0  0  0  0  0  0  0
   -1.9811   -0.2863   -2.6064 H   0  0  0  0  0  0  0  0  0  0  0  0
   -2.0388    1.4746   -2.5279 H   0  0  0  0  0  0  0  0  0  0  0  0
    1.9781    0.3825   -2.5942 H   0  0  0  0  0  0  0  0  0  0  0  0
    2.0379   -1.3803   -2.5668 H   0  0  0  0  0  0  0  0  0  0  0  0
   -1.1409    0.5789   -4.6398 H   0  0  0  0  0  0  0  0  0  0  0  0
    0.0340    1.5929   -3.8075 H   0  0  0  0  0  0  0  0  0  0  0  0
    1.1419   -0.4279   -4.6523 H   0  0  0  0  0  0  0  0  0  0  0  0
   -0.0339   -1.4647   -3.8495 H   0  0  0  0  0  0  0  0  0  0  0  0
   -3.3041    0.0508   -0.8999 H   0  0  0  0  0  0  0  0  0  0  0  0
   -2.1521   -1.3283   -0.7724 H   0  0  0  0  0  0  0  0  0  0  0  0
   -2.2015    2.4413   -0.5936 H   0  0  0  0  0  0  0  0  0  0  0  0
   -2.7766    1.8192    0.9494 H   0  0  0  0  0  0  0  0  0  0  0  0
    2.1687    1.3501   -0.7247 H   0  0  0  0  0  0  0  0  0  0  0  0
    3.3082   -0.0345   -0.9063 H   0  0  0  0  0  0  0  0  0  0  0  0
    2.7664   -1.8617    0.8830 H   0  0  0  0  0  0  0  0  0  0  0  0
    2.1802   -2.4241   -0.6784 H   0  0  0  0  0  0  0  0  0  0  0  0
   -4.4405   -2.0095    1.7338 H   0  0  0  0  0  0  0  0  0  0  0  0
   -0.2450    4.4179    1.4229 H   0  0  0  0  0  0  0  0  0  0  0  0
    4.4755    1.9182    1.7944 H   0  0  0  0  0  0  0  0  0  0  0  0
    0.2078   -4.4477    1.2745 H   0  0  0  0  0  0  0  0  0  0  0  0
  1 21  1  0  0  0  0
  1 43  1  0  0  0  0
  2 22  1  0  0  0  0
  2 44  1  0  0  0  0
  3 23  1  0  0  0  0
  3 45  1  0  0  0  0
  4 24  1  0  0  0  0
  4 46  1  0  0  0  0
  5 21  2  0  0  0  0
  6 22  2  0  0  0  0
  7 23  2  0  0  0  0
  8 24  2  0  0  0  0
  9 11  1  0  0  0  0
  9 17  1  0  0  0  0
  9 18  1  0  0  0  0
 10 12  1  0  0  0  0
 10 19  1  0  0  0  0
 10 20  1  0  0  0  0
 11 12  1  0  0  0  0
 11 13  1  0  0  0  0
 11 25  1  0  0  0  0
 12 14  1  0  0  0  0
 12 26  1  0  0  0  0
 13 15  1  0  0  0  0
 13 27  1  0  0  0  0
 13 28  1  0  0  0  0
 14 16  1  0  0  0  0
 14 29  1  0  0  0  0
 14 30  1  0  0  0  0
 15 16  1  0  0  0  0
 15 31  1  0  0  0  0
 15 32  1  0  0  0  0
 16 33  1  0  0  0  0
 16 34  1  0  0  0  0
 17 21  1  0  0  0  0
 17 35  1  0  0  0  0
 17 36  1  0  0  0  0
 18 22  1  0  0  0  0
 18 37  1  0  0  0  0
 18 38  1  0  0  0  0
 19 23  1  0  0  0  0
 19 39  1  0  0  0  0
 19 40  1  0  0  0  0
 20 24  1  0  0  0  0
 20 41  1  0  0  0  0
 20 42  1  0  0  0  0
M  END
> <PUBCHEM_COMPOUND_CID>
10213

> <PUBCHEM_CONFORMER_RMSD>
1

> <PUBCHEM_CONFORMER_DIVERSEORDER>
1
14
5
3
6
16
12
9
8
15
2
13
10
11
7
4

> <PUBCHEM_MMFF94_PARTIAL_CHARGES>
24
1 -0.65
10 -0.81
11 0.27
12 0.27
17 0.33
18 0.33
19 0.33
2 -0.65
20 0.33
21 0.66
22 0.66
23 0.66
24 0.66
3 -0.65
4 -0.65
43 0.5
44 0.5
45 0.5
46 0.5
5 -0.57
6 -0.57
7 -0.57
8 -0.57
9 -0.81

> <PUBCHEM_EFFECTIVE_ROTOR_COUNT>
11.2

> <PUBCHEM_PHARMACOPHORE_FEATURES>
15
1 1 acceptor
1 10 cation
1 2 acceptor
1 3 acceptor
1 4 acceptor
1 5 acceptor
1 6 acceptor
1 7 acceptor
1 8 acceptor
1 9 cation
3 1 5 21 anion
3 2 6 22 anion
3 3 7 23 anion
3 4 8 24 anion
6 11 12 13 14 15 16 rings

> <PUBCHEM_HEAVY_ATOM_COUNT>
24

> <PUBCHEM_ATOM_DEF_STEREO_COUNT>
0

> <PUBCHEM_ATOM_UDEF_STEREO_COUNT>
2

> <PUBCHEM_BOND_DEF_STEREO_COUNT>
0

> <PUBCHEM_BOND_UDEF_STEREO_COUNT>
0

> <PUBCHEM_ISOTOPIC_ATOM_COUNT>
0

> <PUBCHEM_COMPONENT_COUNT>
1

> <PUBCHEM_CACTVS_TAUTO_COUNT>
1

> <PUBCHEM_CONFORMER_ID>
000027E500000001

> <PUBCHEM_MMFF94_ENERGY>
56.2214

> <PUBCHEM_FEATURE_SELFOVERLAP>
76.362

> <PUBCHEM_SHAPE_FINGERPRINT>
11578080 2 17463409413395141300
12403259 327 17836655119211544813
13004483 165 15720768364386611928
14787075 74 18122624117614102764
14863182 85 18190200025333809843
15219462 58 18194965140865215599
16945 1 18188495786256817759
20511035 2 17483653634270408280
20600515 1 18047780326831000941
20626108 58 17169548730345113267
21756936 100 18269824467526982240
23419403 2 16745576879070599731
2748010 2 16086139115097093367
568465 68 18188478189780924633

> <PUBCHEM_SHAPE_MULTIPOLES>
436.99
4.5
3.43
3.28
0.09
4.26
0.18
-2.81
0.09
-0.03
-0.21
-0.02
-2.58
-0.61

> <PUBCHEM_SHAPE_SELFOVERLAP>
885.289

> <PUBCHEM_SHAPE_VOLUME>
251.9

> <PUBCHEM_COORDINATE_TYPE>
2
5
10

$$$$
