102120241
  -OEChem-03292013293D

 58 60  0     1  0  0  0  0  0999 V2000
    3.3473   -0.2329   -0.5183 O   0  0  0  0  0  0  0  0  0  0  0  0
    4.6973    0.2736    1.4055 O   0  0  0  0  0  0  0  0  0  0  0  0
   -4.5163    1.9856   -1.7301 O   0  0  0  0  0  0  0  0  0  0  0  0
   -6.1686    1.3732    0.8758 O   0  0  0  0  0  0  0  0  0  0  0  0
   -1.4051    1.5528   -0.9445 O   0  0  0  0  0  0  0  0  0  0  0  0
   -6.9827   -1.2456    1.7047 O   0  0  0  0  0  0  0  0  0  0  0  0
   -3.8763   -1.1296   -0.2828 N   0  0  0  0  0  0  0  0  0  0  0  0
   -3.2848    0.0676   -0.9010 C   0  0  1  0  0  0  0  0  0  0  0  0
   -4.2270    1.2280   -0.5655 C   0  0  2  0  0  0  0  0  0  0  0  0
    4.6481    0.1282   -0.0242 C   0  0  1  0  0  0  0  0  0  0  0  0
   -4.9173   -0.6824    0.6448 C   0  0  1  0  0  0  0  0  0  0  0  0
   -5.4843    0.5447   -0.0487 C   0  0  1  0  0  0  0  0  0  0  0  0
   -1.8672    0.3184   -0.3953 C   0  0  1  0  0  0  0  0  0  0  0  0
    2.8665   -1.4909   -0.0346 C   0  0  2  0  0  0  0  0  0  0  0  0
    5.6664   -0.9546   -0.4258 C   0  0  0  0  0  0  0  0  0  0  0  0
    3.8044   -2.6222   -0.4516 C   0  0  0  0  0  0  0  0  0  0  0  0
   -0.8736   -0.7845   -0.7753 C   0  0  0  0  0  0  0  0  0  0  0  0
    1.4703   -1.7000   -0.6055 C   0  0  0  0  0  0  0  0  0  0  0  0
    5.2213   -2.3412    0.0306 C   0  0  0  0  0  0  0  0  0  0  0  0
    5.0515    1.4591   -0.6858 C   0  0  0  0  0  0  0  0  0  0  0  0
    0.5341   -0.5532   -0.2250 C   0  0  0  0  0  0  0  0  0  0  0  0
    4.1968    2.6187   -0.1806 C   0  0  0  0  0  0  0  0  0  0  0  0
   -5.9552   -1.7684    0.8801 C   0  0  0  0  0  0  0  0  0  0  0  0
    4.2119    2.6577    1.3410 C   0  0  0  0  0  0  0  0  0  0  0  0
    3.8426    1.2980    1.9125 C   0  0  0  0  0  0  0  0  0  0  0  0
   -3.2475   -0.0842   -1.9873 H   0  0  0  0  0  0  0  0  0  0  0  0
   -3.8121    1.9100    0.1856 H   0  0  0  0  0  0  0  0  0  0  0  0
   -4.4762   -0.3958    1.6096 H   0  0  0  0  0  0  0  0  0  0  0  0
   -6.1761    0.2918   -0.8611 H   0  0  0  0  0  0  0  0  0  0  0  0
   -1.8822    0.4338    0.6966 H   0  0  0  0  0  0  0  0  0  0  0  0
    2.7983   -1.4502    1.0599 H   0  0  0  0  0  0  0  0  0  0  0  0
   -3.1923   -1.6999    0.2079 H   0  0  0  0  0  0  0  0  0  0  0  0
    6.6511   -0.7376    0.0049 H   0  0  0  0  0  0  0  0  0  0  0  0
    5.7736   -0.9744   -1.5181 H   0  0  0  0  0  0  0  0  0  0  0  0
    3.8209   -2.7069   -1.5458 H   0  0  0  0  0  0  0  0  0  0  0  0
    3.4552   -3.5810   -0.0525 H   0  0  0  0  0  0  0  0  0  0  0  0
   -0.8087   -0.8440   -1.8697 H   0  0  0  0  0  0  0  0  0  0  0  0
   -1.2256   -1.7594   -0.4219 H   0  0  0  0  0  0  0  0  0  0  0  0
    1.0615   -2.6523   -0.2471 H   0  0  0  0  0  0  0  0  0  0  0  0
    1.5224   -1.7560   -1.7004 H   0  0  0  0  0  0  0  0  0  0  0  0
    5.2591   -2.4037    1.1248 H   0  0  0  0  0  0  0  0  0  0  0  0
    5.9077   -3.1015   -0.3583 H   0  0  0  0  0  0  0  0  0  0  0  0
    4.9527    1.3940   -1.7759 H   0  0  0  0  0  0  0  0  0  0  0  0
    6.1008    1.6838   -0.4554 H   0  0  0  0  0  0  0  0  0  0  0  0
    0.9301    0.3908   -0.6149 H   0  0  0  0  0  0  0  0  0  0  0  0
    0.4887   -0.4609    0.8668 H   0  0  0  0  0  0  0  0  0  0  0  0
    3.1659    2.5037   -0.5368 H   0  0  0  0  0  0  0  0  0  0  0  0
    4.5725    3.5652   -0.5846 H   0  0  0  0  0  0  0  0  0  0  0  0
   -5.5076   -2.6329    1.3819 H   0  0  0  0  0  0  0  0  0  0  0  0
   -6.4048   -2.1058   -0.0605 H   0  0  0  0  0  0  0  0  0  0  0  0
    5.2212    2.9269    1.6757 H   0  0  0  0  0  0  0  0  0  0  0  0
    3.5248    3.4262    1.7100 H   0  0  0  0  0  0  0  0  0  0  0  0
    3.9544    1.3118    3.0014 H   0  0  0  0  0  0  0  0  0  0  0  0
    2.7976    1.0486    1.6970 H   0  0  0  0  0  0  0  0  0  0  0  0
   -4.9087    1.3918   -2.3926 H   0  0  0  0  0  0  0  0  0  0  0  0
   -5.5595    1.5957    1.6001 H   0  0  0  0  0  0  0  0  0  0  0  0
   -0.6551    1.8559   -0.4058 H   0  0  0  0  0  0  0  0  0  0  0  0
   -7.6297   -1.9582    1.8426 H   0  0  0  0  0  0  0  0  0  0  0  0
  1 10  1  0  0  0  0
  1 14  1  0  0  0  0
  2 10  1  0  0  0  0
  2 25  1  0  0  0  0
  3  9  1  0  0  0  0
  3 55  1  0  0  0  0
  4 12  1  0  0  0  0
  4 56  1  0  0  0  0
  5 13  1  0  0  0  0
  5 57  1  0  0  0  0
  6 23  1  0  0  0  0
  6 58  1  0  0  0  0
  7  8  1  0  0  0  0
  7 11  1  0  0  0  0
  7 32  1  0  0  0  0
  8  9  1  0  0  0  0
  8 13  1  0  0  0  0
  8 26  1  0  0  0  0
  9 12  1  0  0  0  0
  9 27  1  0  0  0  0
 10 15  1  0  0  0  0
 10 20  1  0  0  0  0
 11 12  1  0  0  0  0
 11 23  1  0  0  0  0
 11 28  1  0  0  0  0
 12 29  1  0  0  0  0
 13 17  1  0  0  0  0
 13 30  1  0  0  0  0
 14 16  1  0  0  0  0
 14 18  1  0  0  0  0
 14 31  1  0  0  0  0
 15 19  1  0  0  0  0
 15 33  1  0  0  0  0
 15 34  1  0  0  0  0
 16 19  1  0  0  0  0
 16 35  1  0  0  0  0
 16 36  1  0  0  0  0
 17 21  1  0  0  0  0
 17 37  1  0  0  0  0
 17 38  1  0  0  0  0
 18 21  1  0  0  0  0
 18 39  1  0  0  0  0
 18 40  1  0  0  0  0
 19 41  1  0  0  0  0
 19 42  1  0  0  0  0
 20 22  1  0  0  0  0
 20 43  1  0  0  0  0
 20 44  1  0  0  0  0
 21 45  1  0  0  0  0
 21 46  1  0  0  0  0
 22 24  1  0  0  0  0
 22 47  1  0  0  0  0
 22 48  1  0  0  0  0
 23 49  1  0  0  0  0
 23 50  1  0  0  0  0
 24 25  1  0  0  0  0
 24 51  1  0  0  0  0
 24 52  1  0  0  0  0
 25 53  1  0  0  0  0
 25 54  1  0  0  0  0
M  END
> <PUBCHEM_COMPOUND_CID>
102120241

> <PUBCHEM_CONFORMER_RMSD>
1.2

> <PUBCHEM_CONFORMER_DIVERSEORDER>
2
103
12
168
11
86
10
47
36
89
42
180
26
45
98
134
166
29
66
34
68
38
30
23
58
159
144
4
188
5
132
135
44
35
74
157
169
126
187
109
61
92
189
71
96
186
24
17
171
117
121
33
146
43
40
129
151
110
19
136
65
59
167
49
108
141
153
18
127
174
31
173
55
172
54
85
119
73
79
102
130
3
52
37
140
82
16
48
27
20
113
25
138
14
184
94
148
149
46
154
143
120
76
133
72
147
100
80
95
90
78
77
106
97
75
93
22
181
160
156
115
178
7
161
41
124
183
83
101
105
185
131
139
63
6
164
125
15
170
56
88
142
162
51
175
122
114
112
50
116
21
158
32
155
69
152
8
107
104
57
84
150
118
128
123
64
53
60
9
13
91
145
67
179
182
28
163
1
39
81
176
177
70
165
62
99
111
137
87

> <PUBCHEM_MMFF94_PARTIAL_CHARGES>
21
1 -0.56
10 0.56
11 0.27
12 0.28
13 0.28
14 0.28
2 -0.56
23 0.28
25 0.28
3 -0.68
32 0.36
4 -0.68
5 -0.68
55 0.4
56 0.4
57 0.4
58 0.4
6 -0.68
7 -0.9
8 0.27
9 0.28

> <PUBCHEM_EFFECTIVE_ROTOR_COUNT>
9

> <PUBCHEM_PHARMACOPHORE_FEATURES>
15
1 1 acceptor
1 2 acceptor
1 3 acceptor
1 3 donor
1 4 acceptor
1 4 donor
1 5 acceptor
1 5 donor
1 6 acceptor
1 6 donor
1 7 cation
1 7 donor
5 7 8 9 11 12 rings
6 1 10 14 15 16 19 rings
6 2 10 20 22 24 25 rings

> <PUBCHEM_HEAVY_ATOM_COUNT>
25

> <PUBCHEM_ATOM_DEF_STEREO_COUNT>
5

> <PUBCHEM_ATOM_UDEF_STEREO_COUNT>
2

> <PUBCHEM_BOND_DEF_STEREO_COUNT>
0

> <PUBCHEM_BOND_UDEF_STEREO_COUNT>
0

> <PUBCHEM_ISOTOPIC_ATOM_COUNT>
0

> <PUBCHEM_COMPONENT_COUNT>
1

> <PUBCHEM_CACTVS_TAUTO_COUNT>
1

> <PUBCHEM_CONFORMER_ID>
06163B3100000002

> <PUBCHEM_MMFF94_ENERGY>
45.2597

> <PUBCHEM_FEATURE_SELFOVERLAP>
76.166

> <PUBCHEM_SHAPE_FINGERPRINT>
11045977 3 18408040693202583991
11595378 159 16733253561114920556
12166972 35 18041006128719102020
12596602 18 17095237038132212248
12616971 3 17775278357166764502
12730499 353 18411704305302665674
12925494 130 18197491827683214337
13533116 47 18342461447856506306
13955234 65 18342452639253635514
14251764 75 17911799386424627512
14341114 176 18412267233068873247
146900 427 18131072661967419954
14933364 13 18409172099257311775
15183329 4 13542467574682350521
15348495 7 18408324384667269123
17349148 13 14562530643839668589
1768 85 18129093592492933728
17844677 252 18411985723880026405
18608769 82 18335422391774812086
190975 80 18262808505241696059
21033648 29 18187351104526724172
22122407 14 17704081668365448409
23559900 14 18262232192959117006
239999 70 18409730626033267286
3178227 256 18341896264985048738
3383291 50 17241341291042683795
397830 11 18335423499839464171
5104073 3 18336543833173279491
531348 171 8142091932051141673
960060 61 11599727320027734080

> <PUBCHEM_SHAPE_MULTIPOLES>
474.29
18.68
2.79
1.32
17.86
0.38
-0.37
0.01
-4.72
-3.46
-0.13
0.57
0.49
2.35

> <PUBCHEM_SHAPE_SELFOVERLAP>
966.867

> <PUBCHEM_SHAPE_VOLUME>
274.8

> <PUBCHEM_COORDINATE_TYPE>
2
5
10

$$$$
