102120567
  -OEChem-03292013293D

 59 61  0     1  0  0  0  0  0999 V2000
   -1.5103    0.9413    0.6645 O   0  0  0  0  0  0  0  0  0  0  0  0
   -3.0153    2.5052   -0.1530 O   0  0  0  0  0  0  0  0  0  0  0  0
   -3.9716   -0.7269    0.7161 O   0  0  0  0  0  0  0  0  0  0  0  0
    2.4783    2.7461   -0.3482 O   0  0  0  0  0  0  0  0  0  0  0  0
    2.0981   -1.0652   -0.4399 O   0  0  0  0  0  0  0  0  0  0  0  0
    4.3669    2.9069    0.9375 O   0  0  0  0  0  0  0  0  0  0  0  0
   -5.0982   -2.2029   -0.6583 O   0  0  0  0  0  0  0  0  0  0  0  0
    2.0477   -3.1181    0.6101 O   0  0  0  0  0  0  0  0  0  0  0  0
   -1.5298   -0.4894    0.6454 C   0  0  1  0  0  0  0  0  0  0  0  0
   -2.1245    1.4541   -0.5252 C   0  0  1  0  0  0  0  0  0  0  0  0
   -2.8199   -0.8135   -0.1200 C   0  0  2  0  0  0  0  0  0  0  0  0
   -1.0401    2.0161   -1.4888 C   0  0  2  0  0  0  0  0  0  0  0  0
   -2.9008    0.2870   -1.1662 C   0  0  0  0  0  0  0  0  0  0  0  0
   -0.2745   -0.9916   -0.1063 C   0  0  0  0  0  0  0  0  0  0  0  0
    1.3475    0.9293    0.7214 C   0  0  2  0  0  0  0  0  0  0  0  0
    1.0975   -0.5799    0.4665 C   0  0  2  0  0  0  0  0  0  0  0  0
    1.3710    1.8259   -0.5281 C   0  0  1  0  0  0  0  0  0  0  0  0
    0.1303    2.7199   -0.7657 C   0  0  0  0  0  0  0  0  0  0  0  0
   -1.5411   -0.9888    2.0917 C   0  0  0  0  0  0  0  0  0  0  0  0
   -1.6617    2.9571   -2.5335 C   0  0  0  0  0  0  0  0  0  0  0  0
    2.7025    1.2040    1.3066 C   0  0  0  0  0  0  0  0  0  0  0  0
    3.3158    2.3650    0.6471 C   0  0  0  0  0  0  0  0  0  0  0  0
    3.3479    0.5627    2.2861 C   0  0  0  0  0  0  0  0  0  0  0  0
   -5.0436   -1.4780    0.3260 C   0  0  0  0  0  0  0  0  0  0  0  0
    2.4803   -2.3610   -0.2492 C   0  0  0  0  0  0  0  0  0  0  0  0
    3.5457   -2.7246   -1.2685 C   0  0  0  0  0  0  0  0  0  0  0  0
   -6.1734   -1.2885    1.2923 C   0  0  0  0  0  0  0  0  0  0  0  0
    4.9249   -2.3920   -0.7120 C   0  0  0  0  0  0  0  0  0  0  0  0
    3.4506   -4.2001   -1.6481 C   0  0  0  0  0  0  0  0  0  0  0  0
   -2.7535   -1.8109   -0.5710 H   0  0  0  0  0  0  0  0  0  0  0  0
   -0.6016    1.1907   -2.0600 H   0  0  0  0  0  0  0  0  0  0  0  0
   -2.4113   -0.0586   -2.0837 H   0  0  0  0  0  0  0  0  0  0  0  0
   -3.9283    0.5623   -1.4267 H   0  0  0  0  0  0  0  0  0  0  0  0
   -0.2983   -0.6918   -1.1583 H   0  0  0  0  0  0  0  0  0  0  0  0
   -0.3192   -2.0887   -0.1479 H   0  0  0  0  0  0  0  0  0  0  0  0
    0.6300    1.3144    1.4532 H   0  0  0  0  0  0  0  0  0  0  0  0
    1.2102   -1.0849    1.4341 H   0  0  0  0  0  0  0  0  0  0  0  0
    1.5972    1.2593   -1.4389 H   0  0  0  0  0  0  0  0  0  0  0  0
    0.4632    3.5681   -1.3807 H   0  0  0  0  0  0  0  0  0  0  0  0
   -0.1986    3.1781    0.1755 H   0  0  0  0  0  0  0  0  0  0  0  0
   -2.3949   -0.5842    2.6468 H   0  0  0  0  0  0  0  0  0  0  0  0
   -0.6578   -0.6487    2.6418 H   0  0  0  0  0  0  0  0  0  0  0  0
   -1.5830   -2.0815    2.1354 H   0  0  0  0  0  0  0  0  0  0  0  0
   -2.0231    3.8850   -2.0779 H   0  0  0  0  0  0  0  0  0  0  0  0
   -2.4995    2.4761   -3.0488 H   0  0  0  0  0  0  0  0  0  0  0  0
   -0.9207    3.2279   -3.2938 H   0  0  0  0  0  0  0  0  0  0  0  0
   -3.8441    2.1026    0.1561 H   0  0  0  0  0  0  0  0  0  0  0  0
    2.9021   -0.2871    2.7909 H   0  0  0  0  0  0  0  0  0  0  0  0
    4.3344    0.8680    2.6187 H   0  0  0  0  0  0  0  0  0  0  0  0
    3.3657   -2.1376   -2.1779 H   0  0  0  0  0  0  0  0  0  0  0  0
   -7.0273   -1.8942    0.9756 H   0  0  0  0  0  0  0  0  0  0  0  0
   -6.4766   -0.2386    1.3057 H   0  0  0  0  0  0  0  0  0  0  0  0
   -5.8663   -1.6137    2.2894 H   0  0  0  0  0  0  0  0  0  0  0  0
    5.1312   -2.9572    0.2037 H   0  0  0  0  0  0  0  0  0  0  0  0
    3.6448   -4.8493   -0.7871 H   0  0  0  0  0  0  0  0  0  0  0  0
    4.1753   -4.4482   -2.4306 H   0  0  0  0  0  0  0  0  0  0  0  0
    4.9976   -1.3276   -0.4629 H   0  0  0  0  0  0  0  0  0  0  0  0
    5.7079   -2.6233   -1.4415 H   0  0  0  0  0  0  0  0  0  0  0  0
    2.4497   -4.4402   -2.0232 H   0  0  0  0  0  0  0  0  0  0  0  0
  1  9  1  0  0  0  0
  1 10  1  0  0  0  0
  2 10  1  0  0  0  0
  2 47  1  0  0  0  0
  3 11  1  0  0  0  0
  3 24  1  0  0  0  0
  4 17  1  0  0  0  0
  4 22  1  0  0  0  0
  5 16  1  0  0  0  0
  5 25  1  0  0  0  0
  6 22  2  0  0  0  0
  7 24  2  0  0  0  0
  8 25  2  0  0  0  0
  9 11  1  0  0  0  0
  9 14  1  0  0  0  0
  9 19  1  0  0  0  0
 10 12  1  0  0  0  0
 10 13  1  0  0  0  0
 11 13  1  0  0  0  0
 11 30  1  0  0  0  0
 12 18  1  0  0  0  0
 12 20  1  0  0  0  0
 12 31  1  0  0  0  0
 13 32  1  0  0  0  0
 13 33  1  0  0  0  0
 14 16  1  0  0  0  0
 14 34  1  0  0  0  0
 14 35  1  0  0  0  0
 15 16  1  0  0  0  0
 15 17  1  0  0  0  0
 15 21  1  0  0  0  0
 15 36  1  0  0  0  0
 16 37  1  0  0  0  0
 17 18  1  0  0  0  0
 17 38  1  0  0  0  0
 18 39  1  0  0  0  0
 18 40  1  0  0  0  0
 19 41  1  0  0  0  0
 19 42  1  0  0  0  0
 19 43  1  0  0  0  0
 20 44  1  0  0  0  0
 20 45  1  0  0  0  0
 20 46  1  0  0  0  0
 21 22  1  0  0  0  0
 21 23  2  0  0  0  0
 23 48  1  0  0  0  0
 23 49  1  0  0  0  0
 24 27  1  0  0  0  0
 25 26  1  0  0  0  0
 26 28  1  0  0  0  0
 26 29  1  0  0  0  0
 26 50  1  0  0  0  0
 27 51  1  0  0  0  0
 27 52  1  0  0  0  0
 27 53  1  0  0  0  0
 28 54  1  0  0  0  0
 28 57  1  0  0  0  0
 28 58  1  0  0  0  0
 29 55  1  0  0  0  0
 29 56  1  0  0  0  0
 29 59  1  0  0  0  0
M  END
> <PUBCHEM_COMPOUND_CID>
102120567

> <PUBCHEM_CONFORMER_RMSD>
0.8

> <PUBCHEM_CONFORMER_DIVERSEORDER>
1
10
5
30
16
24
13
8
22
27
38
35
29
15
32
3
19
28
18
11
6
33
25
2
14
36
34
21
31
37
17
26
20
12
9
7
23
4

> <PUBCHEM_MMFF94_PARTIAL_CHARGES>
24
1 -0.56
10 0.56
11 0.28
15 0.14
16 0.28
17 0.28
2 -0.68
21 -0.12
22 0.71
23 -0.3
24 0.66
25 0.66
26 0.06
27 0.06
3 -0.43
4 -0.43
47 0.4
48 0.15
49 0.15
5 -0.43
6 -0.57
7 -0.57
8 -0.57
9 0.28

> <PUBCHEM_EFFECTIVE_ROTOR_COUNT>
6.6

> <PUBCHEM_PHARMACOPHORE_FEATURES>
9
1 1 acceptor
1 2 acceptor
1 2 donor
1 6 acceptor
1 7 acceptor
1 8 acceptor
3 26 28 29 hydrophobe
5 1 9 10 11 13 rings
5 4 15 17 21 22 rings

> <PUBCHEM_HEAVY_ATOM_COUNT>
29

> <PUBCHEM_ATOM_DEF_STEREO_COUNT>
7

> <PUBCHEM_ATOM_UDEF_STEREO_COUNT>
0

> <PUBCHEM_BOND_DEF_STEREO_COUNT>
0

> <PUBCHEM_BOND_UDEF_STEREO_COUNT>
0

> <PUBCHEM_ISOTOPIC_ATOM_COUNT>
0

> <PUBCHEM_COMPONENT_COUNT>
1

> <PUBCHEM_CACTVS_TAUTO_COUNT>
4

> <PUBCHEM_CONFORMER_ID>
06163C7700000001

> <PUBCHEM_MMFF94_ENERGY>
86.1331

> <PUBCHEM_FEATURE_SELFOVERLAP>
45.72

> <PUBCHEM_SHAPE_FINGERPRINT>
10165383 225 18127977623135983512
10906281 52 17823990124202880993
12107183 9 17914072914767182539
12623949 98 18201172021929093079
13140716 1 18190449481260282945
13149001 5 17976808797073586612
13540713 4 18335974281939831829
13583140 156 17202747272380072785
14790565 3 16897648988063396244
14863182 85 18264775535263306412
15219462 58 17560254646509138275
15420108 30 17472976680411748060
15664445 248 17823432658585262725
1813 80 17749111127920363765
1979834 28 18265901443854918657
20028762 73 17910388721046966798
20600515 1 16878500271373164071
20691752 17 17821736009285557977
20775438 99 17830972963805493415
21049683 271 18337691766631862534
21285901 2 18114454660705574861
22182313 1 18338218380528618876
2260408 40 18121527845183083043
229495 10 18130493198049316429
23557571 272 18113052753162551085
23559900 14 18339355254388067479
25222932 49 17098050821827018859
2748010 2 18265037059911315452
2818148 4 18195552327345981516
350125 39 18341620295311691283
59554788 248 18121747713043709180
59755656 215 18340774848680372822
6287921 2 18412828005574141335
70251023 43 18338527347950337227
7399639 24 18338788013456433888
9709674 26 18334858346304050115

> <PUBCHEM_SHAPE_MULTIPOLES>
549.85
9.75
4.53
1.82
7.23
0.63
0
7.17
1.26
-4.41
-2.08
-0.29
-0.38
3.63

> <PUBCHEM_SHAPE_SELFOVERLAP>
1150.335

> <PUBCHEM_SHAPE_VOLUME>
310.9

> <PUBCHEM_COORDINATE_TYPE>
2
5
10

$$$$
