102132408
  -OEChem-03292013293D

 39 39  0     1  0  0  0  0  0999 V2000
    2.6070   -1.6539   -0.3959 O   0  0  0  0  0  0  0  0  0  0  0  0
   -2.0540   -0.1851   -2.1292 O   0  0  0  0  0  0  0  0  0  0  0  0
   -1.7727    2.6552    1.5938 O   0  0  0  0  0  0  0  0  0  0  0  0
   -0.5626    1.5293   -2.5050 O   0  0  0  0  0  0  0  0  0  0  0  0
    4.8184   -0.1402   -0.2033 O   0  0  0  0  0  0  0  0  0  0  0  0
   -1.1842   -4.1312    0.5909 O   0  0  0  0  0  0  0  0  0  0  0  0
   -0.6836   -0.5533    0.3213 N   0  0  0  0  0  0  0  0  0  0  0  0
    3.6675    1.6817    0.5923 N   0  0  0  0  0  0  0  0  0  0  0  0
    0.0216   -0.3158   -1.0042 C   0  0  2  0  0  0  0  0  0  0  0  0
    1.3990    0.3811   -0.8740 C   0  0  0  0  0  0  0  0  0  0  0  0
   -1.0427    0.4240    1.2124 C   0  0  0  0  0  0  0  0  0  0  0  0
    2.4155   -0.3198    0.0426 C   0  0  2  0  0  0  0  0  0  0  0  0
   -1.0583   -1.7785    0.8080 C   0  0  0  0  0  0  0  0  0  0  0  0
   -0.8653    0.4723   -1.9669 C   0  0  0  0  0  0  0  0  0  0  0  0
   -1.6565   -0.1866    2.2838 C   0  0  0  0  0  0  0  0  0  0  0  0
   -1.6665   -1.5800    2.0277 C   0  0  0  0  0  0  0  0  0  0  0  0
   -0.7710    1.8554    0.9669 C   0  0  0  0  0  0  0  0  0  0  0  0
    3.7603    0.3864    0.1330 C   0  0  0  0  0  0  0  0  0  0  0  0
   -0.8382   -3.0230    0.1360 C   0  0  0  0  0  0  0  0  0  0  0  0
   -2.9939    0.4442   -3.0063 C   0  0  0  0  0  0  0  0  0  0  0  0
   -1.5398    4.0381    1.3762 C   0  0  0  0  0  0  0  0  0  0  0  0
    0.1913   -1.2832   -1.4762 H   0  0  0  0  0  0  0  0  0  0  0  0
    1.8375    0.4228   -1.8821 H   0  0  0  0  0  0  0  0  0  0  0  0
    1.2874    1.4277   -0.5797 H   0  0  0  0  0  0  0  0  0  0  0  0
    2.0116   -0.3652    1.0612 H   0  0  0  0  0  0  0  0  0  0  0  0
   -2.0536    0.3112    3.1576 H   0  0  0  0  0  0  0  0  0  0  0  0
   -2.0743   -2.3495    2.6690 H   0  0  0  0  0  0  0  0  0  0  0  0
   -0.7779    2.1167   -0.0887 H   0  0  0  0  0  0  0  0  0  0  0  0
    0.2052    2.1148    1.3935 H   0  0  0  0  0  0  0  0  0  0  0  0
   -0.3379   -3.0254   -0.8410 H   0  0  0  0  0  0  0  0  0  0  0  0
    3.1316   -2.1134    0.2819 H   0  0  0  0  0  0  0  0  0  0  0  0
    2.7907    2.0960    0.8908 H   0  0  0  0  0  0  0  0  0  0  0  0
    4.4954    2.2614    0.6820 H   0  0  0  0  0  0  0  0  0  0  0  0
   -3.8912   -0.1790   -3.0462 H   0  0  0  0  0  0  0  0  0  0  0  0
   -2.5763    0.5242   -4.0144 H   0  0  0  0  0  0  0  0  0  0  0  0
   -3.2683    1.4308   -2.6210 H   0  0  0  0  0  0  0  0  0  0  0  0
   -2.3243    4.6036    1.8862 H   0  0  0  0  0  0  0  0  0  0  0  0
   -1.5815    4.2728    0.3081 H   0  0  0  0  0  0  0  0  0  0  0  0
   -0.5714    4.3357    1.7901 H   0  0  0  0  0  0  0  0  0  0  0  0
  1 12  1  0  0  0  0
  1 31  1  0  0  0  0
  2 14  1  0  0  0  0
  2 20  1  0  0  0  0
  3 17  1  0  0  0  0
  3 21  1  0  0  0  0
  4 14  2  0  0  0  0
  5 18  2  0  0  0  0
  6 19  2  0  0  0  0
  7  9  1  0  0  0  0
  7 11  1  0  0  0  0
  7 13  1  0  0  0  0
  8 18  1  0  0  0  0
  8 32  1  0  0  0  0
  8 33  1  0  0  0  0
  9 10  1  0  0  0  0
  9 14  1  0  0  0  0
  9 22  1  0  0  0  0
 10 12  1  0  0  0  0
 10 23  1  0  0  0  0
 10 24  1  0  0  0  0
 11 15  2  0  0  0  0
 11 17  1  0  0  0  0
 12 18  1  0  0  0  0
 12 25  1  0  0  0  0
 13 16  2  0  0  0  0
 13 19  1  0  0  0  0
 15 16  1  0  0  0  0
 15 26  1  0  0  0  0
 16 27  1  0  0  0  0
 17 28  1  0  0  0  0
 17 29  1  0  0  0  0
 19 30  1  0  0  0  0
 20 34  1  0  0  0  0
 20 35  1  0  0  0  0
 20 36  1  0  0  0  0
 21 37  1  0  0  0  0
 21 38  1  0  0  0  0
 21 39  1  0  0  0  0
M  END
> <PUBCHEM_COMPOUND_CID>
102132408

> <PUBCHEM_CONFORMER_RMSD>
0.8

> <PUBCHEM_CONFORMER_DIVERSEORDER>
4
79
97
73
85
55
112
15
52
86
114
71
92
49
122
40
43
54
26
35
101
65
56
51
105
68
119
120
61
94
27
100
62
98
89
50
83
78
36
75
99
12
57
104
34
111
110
3
33
124
117
37
8
118
44
109
11
80
59
63
102
64
18
42
123
93
90
115
76
19
17
39
113
25
21
28
88
32
23
126
53
38
45
48
31
6
13
41
82
16
95
22
107
91
24
10
58
81
121
46
7
66
77
84
69
2
87
108
20
70
103
116
1
125
96
72
106
67
29
60
30
14
47
9
74
5

> <PUBCHEM_MMFF94_PARTIAL_CHARGES>
26
1 -0.68
11 -0.33
12 0.34
13 -0.24
14 0.66
15 -0.15
16 -0.15
17 0.46
18 0.57
19 0.59
2 -0.43
20 0.28
21 0.28
26 0.15
27 0.15
3 -0.56
30 0.06
31 0.4
32 0.37
33 0.37
4 -0.57
5 -0.57
6 -0.57
7 0.05
8 -0.8
9 0.32

> <PUBCHEM_EFFECTIVE_ROTOR_COUNT>
9

> <PUBCHEM_PHARMACOPHORE_FEATURES>
9
1 1 acceptor
1 1 donor
1 3 acceptor
1 4 acceptor
1 5 acceptor
1 6 acceptor
1 7 cation
1 8 donor
5 7 11 13 15 16 rings

> <PUBCHEM_HEAVY_ATOM_COUNT>
21

> <PUBCHEM_ATOM_DEF_STEREO_COUNT>
2

> <PUBCHEM_ATOM_UDEF_STEREO_COUNT>
0

> <PUBCHEM_BOND_DEF_STEREO_COUNT>
0

> <PUBCHEM_BOND_UDEF_STEREO_COUNT>
0

> <PUBCHEM_ISOTOPIC_ATOM_COUNT>
0

> <PUBCHEM_COMPONENT_COUNT>
1

> <PUBCHEM_CACTVS_TAUTO_COUNT>
3

> <PUBCHEM_CONFORMER_ID>
06166AB800000004

> <PUBCHEM_MMFF94_ENERGY>
39.5747

> <PUBCHEM_FEATURE_SELFOVERLAP>
45.68

> <PUBCHEM_SHAPE_FINGERPRINT>
11421498 54 18194099860476461829
11578080 2 17758397761736784581
11582403 64 17627802919986209809
12173636 292 18339935809459934122
12716301 132 15000253769209915149
14817 1 17839786738796555781
15848702 105 17558529323765717541
16945 1 18194994982445921458
17980427 23 16914565378304293923
17980427 26 17544485149942616053
20602899 9 18189033340227009694
21524375 3 17699014985240243496
2306618 200 18188482583986214146
23419403 2 17691106554672996143
298252 57 17024562569760867605
5845 1 18047212987452748946
68419 9 17266061365396483921
81228 2 17822021916536558130
90316 7 18053130533173699104

> <PUBCHEM_SHAPE_MULTIPOLES>
386.99
4.91
3.71
2.67
8.5
0.06
1.65
-0.98
0.6
-2.73
-2.29
-3.18
-0.87
0.19

> <PUBCHEM_SHAPE_SELFOVERLAP>
786.522

> <PUBCHEM_SHAPE_VOLUME>
225.4

> <PUBCHEM_COORDINATE_TYPE>
2
5
10

$$$$
