102100765
  -OEChem-03292013293D

 37 36  0     1  0  0  0  0  0999 V2000
    0.1530    0.7071   -0.4758 O   0  0  0  0  0  0  0  0  0  0  0  0
    1.2838    0.6019    1.5316 O   0  0  0  0  0  0  0  0  0  0  0  0
   -2.7200   -1.6853   -1.3822 O   0  0  0  0  0  0  0  0  0  0  0  0
   -1.2477   -0.4779    2.5506 O   0  0  0  0  0  0  0  0  0  0  0  0
   -1.4758   -1.4003    1.5267 N   0  0  0  0  0  0  0  0  0  0  0  0
   -0.4342   -2.1343   -1.4090 N   0  0  0  0  0  0  0  0  0  0  0  0
   -2.1724    1.3827   -0.5878 C   0  0  0  0  0  0  0  0  0  0  0  0
   -1.0897    0.6377    0.2137 C   0  0  1  0  0  0  0  0  0  0  0  0
    3.7542    0.1633    0.0597 C   0  0  0  0  0  0  0  0  0  0  0  0
    2.5030    0.8003   -0.5648 C   0  0  0  0  0  0  0  0  0  0  0  0
   -1.8052    2.8604   -0.7639 C   0  0  0  0  0  0  0  0  0  0  0  0
   -3.5438    1.2714    0.0828 C   0  0  0  0  0  0  0  0  0  0  0  0
   -1.3937   -0.8393    0.3609 C   0  0  0  0  0  0  0  0  0  0  0  0
    1.2739    0.6797    0.3107 C   0  0  0  0  0  0  0  0  0  0  0  0
    4.9606    0.3682   -0.8587 C   0  0  0  0  0  0  0  0  0  0  0  0
    3.5504   -1.3313    0.3203 C   0  0  0  0  0  0  0  0  0  0  0  0
   -1.5965   -1.6044   -0.9147 C   0  0  0  0  0  0  0  0  0  0  0  0
   -2.2425    0.9588   -1.5974 H   0  0  0  0  0  0  0  0  0  0  0  0
   -1.0054    1.1627    1.1697 H   0  0  0  0  0  0  0  0  0  0  0  0
    3.9647    0.6516    1.0195 H   0  0  0  0  0  0  0  0  0  0  0  0
    2.2945    0.3159   -1.5270 H   0  0  0  0  0  0  0  0  0  0  0  0
    2.6697    1.8673   -0.7510 H   0  0  0  0  0  0  0  0  0  0  0  0
   -3.8822    0.2337    0.1515 H   0  0  0  0  0  0  0  0  0  0  0  0
   -2.5758    3.3861   -1.3381 H   0  0  0  0  0  0  0  0  0  0  0  0
   -4.2989    1.8219   -0.4889 H   0  0  0  0  0  0  0  0  0  0  0  0
   -3.5222    1.6869    1.0962 H   0  0  0  0  0  0  0  0  0  0  0  0
   -0.8596    2.9716   -1.3045 H   0  0  0  0  0  0  0  0  0  0  0  0
   -1.7041    3.3627    0.2042 H   0  0  0  0  0  0  0  0  0  0  0  0
    4.8082   -0.1129   -1.8309 H   0  0  0  0  0  0  0  0  0  0  0  0
    5.1390    1.4347   -1.0322 H   0  0  0  0  0  0  0  0  0  0  0  0
    3.2983   -1.8635   -0.6035 H   0  0  0  0  0  0  0  0  0  0  0  0
    4.4636   -1.7795    0.7270 H   0  0  0  0  0  0  0  0  0  0  0  0
    2.7505   -1.5142    1.0438 H   0  0  0  0  0  0  0  0  0  0  0  0
    5.8667   -0.0529   -0.4105 H   0  0  0  0  0  0  0  0  0  0  0  0
    0.4598   -2.0098   -0.9445 H   0  0  0  0  0  0  0  0  0  0  0  0
   -0.4294   -2.6743   -2.2679 H   0  0  0  0  0  0  0  0  0  0  0  0
   -1.3407   -1.0363    3.3408 H   0  0  0  0  0  0  0  0  0  0  0  0
  1  8  1  0  0  0  0
  1 14  1  0  0  0  0
  2 14  2  0  0  0  0
  3 17  2  0  0  0  0
  4  5  1  0  0  0  0
  4 37  1  0  0  0  0
  5 13  2  0  0  0  0
  6 17  1  0  0  0  0
  6 35  1  0  0  0  0
  6 36  1  0  0  0  0
  7  8  1  0  0  0  0
  7 11  1  0  0  0  0
  7 12  1  0  0  0  0
  7 18  1  0  0  0  0
  8 13  1  0  0  0  0
  8 19  1  0  0  0  0
  9 10  1  0  0  0  0
  9 15  1  0  0  0  0
  9 16  1  0  0  0  0
  9 20  1  0  0  0  0
 10 14  1  0  0  0  0
 10 21  1  0  0  0  0
 10 22  1  0  0  0  0
 11 24  1  0  0  0  0
 11 27  1  0  0  0  0
 11 28  1  0  0  0  0
 12 23  1  0  0  0  0
 12 25  1  0  0  0  0
 12 26  1  0  0  0  0
 13 17  1  0  0  0  0
 15 29  1  0  0  0  0
 15 30  1  0  0  0  0
 15 34  1  0  0  0  0
 16 31  1  0  0  0  0
 16 32  1  0  0  0  0
 16 33  1  0  0  0  0
M  END
> <PUBCHEM_COMPOUND_CID>
102100765

> <PUBCHEM_CONFORMER_RMSD>
0.8

> <PUBCHEM_CONFORMER_DIVERSEORDER>
1
189
96
286
235
153
309
229
324
310
296
295
287
134
108
313
315
301
197
71
260
136
202
231
106
151
319
123
176
157
52
75
312
167
238
175
233
166
253
219
250
201
103
86
271
122
130
265
138
212
306
322
169
245
184
124
70
244
307
293
302
316
132
139
33
196
230
268
305
113
251
78
192
155
26
259
282
261
273
128
213
236
53
223
44
28
321
209
172
195
304
158
34
94
49
135
248
255
311
125
320
246
281
203
16
112
188
127
57
211
31
62
194
129
215
39
190
178
165
40
98
115
156
5
284
264
68
237
288
240
50
121
119
59
164
137
89
214
152
181
220
183
17
308
90
12
154
58
111
87
290
107
297
147
226
254
276
227
18
126
263
241
83
207
249
222
299
258
32
61
85
198
266
24
204
116
19
303
141
174
256
159
242
76
54
173
142
69
45
144
300
131
272
317
234
133
200
120
10
225
269
292
232
9
117
65
170
84
146
22
148
114
42
30
180
64
161
101
81
55
79
162
193
48
239
51
182
252
143
206
74
289
80
262
171
15
217
280
274
25
208
187
185
270
13
294
285
38
168
4
110
41
298
291
279
91
60
82
109
67
27
283
21
140
221
100
46
73
99
191
243
205
216
186
163
8
145
118
36
179
63
6
92
88
47
224
177
72
318
105
29
277
23
228
77
20
150
14
102
210
218
35
104
199
257
149
11
3
97
314
56
43
2
93
278
66
247
267
37
323
275
7
160
95

> <PUBCHEM_MMFF94_PARTIAL_CHARGES>
14
1 -0.43
10 0.06
13 0.39
14 0.66
17 0.63
2 -0.57
3 -0.57
35 0.37
36 0.37
37 0.4
4 -0.34
5 -0.51
6 -0.8
8 0.34

> <PUBCHEM_EFFECTIVE_ROTOR_COUNT>
7

> <PUBCHEM_PHARMACOPHORE_FEATURES>
7
1 2 acceptor
1 3 acceptor
1 4 anion
1 5 acceptor
1 6 donor
3 7 11 12 hydrophobe
3 9 15 16 hydrophobe

> <PUBCHEM_HEAVY_ATOM_COUNT>
17

> <PUBCHEM_ATOM_DEF_STEREO_COUNT>
0

> <PUBCHEM_ATOM_UDEF_STEREO_COUNT>
1

> <PUBCHEM_BOND_DEF_STEREO_COUNT>
1

> <PUBCHEM_BOND_UDEF_STEREO_COUNT>
0

> <PUBCHEM_ISOTOPIC_ATOM_COUNT>
0

> <PUBCHEM_COMPONENT_COUNT>
1

> <PUBCHEM_CACTVS_TAUTO_COUNT>
14

> <PUBCHEM_CONFORMER_ID>
0615EF1D00000001

> <PUBCHEM_MMFF94_ENERGY>
30.1583

> <PUBCHEM_FEATURE_SELFOVERLAP>
35.522

> <PUBCHEM_SHAPE_FINGERPRINT>
10680689 15 18339653312734850020
10922049 32 18189619337201762113
12173636 292 17530969051123439816
12500047 106 18271517620617019628
12592029 89 18269558226087016219
12932764 1 18342464780972823544
13024252 1 17312822705983624537
14251751 93 18044083571159366309
14577589 140 18411706478117936380
14817 1 17171845455437196923
15775835 57 18342740706456200814
16945 1 18263623131224185961
19868273 293 18411694366241771812
200 152 15626499505880803181
20524608 308 18342730802134963861
20645476 183 17458626679274072065
20871999 31 18342737455382125428
21524375 3 18046059367975021805
2306618 200 17989212550696425480
23402539 116 18260825982217396933
23419403 2 17403223259176325635
23598291 2 18042111082254888846
298252 57 18267573607672532233
4175511 318 18410578362018837028
58051976 100 18411983580818050324
69090 78 18340199704945779957
74978 22 17989203772184413640
81228 2 18194381506782131585

> <PUBCHEM_SHAPE_MULTIPOLES>
316.41
6.75
2.28
1.51
8.46
0.25
0.67
1.2
-1.29
-1.95
-0.76
-0.64
-0.71
-0.21

> <PUBCHEM_SHAPE_SELFOVERLAP>
613.841

> <PUBCHEM_SHAPE_VOLUME>
192.4

> <PUBCHEM_COORDINATE_TYPE>
2
5
10

$$$$
