102134437
  -OEChem-03292013293D

 50 54  0     1  0  0  0  0  0999 V2000
    3.0020   -0.7184    0.0012 O   0  0  0  0  0  0  0  0  0  0  0  0
    1.1273    2.3758   -0.5913 O   0  0  0  0  0  0  0  0  0  0  0  0
    3.6304    3.3187    0.5340 O   0  0  0  0  0  0  0  0  0  0  0  0
    5.8283    1.6213   -0.2185 O   0  0  0  0  0  0  0  0  0  0  0  0
    4.9816   -2.5621   -0.4410 O   0  0  0  0  0  0  0  0  0  0  0  0
    0.6575   -0.4509   -0.2079 N   0  0  0  0  0  0  0  0  0  0  0  0
   -5.0095    0.4510   -1.4798 N   0  0  0  0  0  0  0  0  0  0  0  0
   -4.7693    1.3616    1.1391 N   0  0  0  0  0  0  0  0  0  0  0  0
   -0.9600   -2.3294   -0.6682 C   0  0  2  0  0  0  0  0  0  0  0  0
   -0.7546   -1.5516    1.5676 C   0  0  1  0  0  0  0  0  0  0  0  0
   -0.7286   -2.8599    0.7578 C   0  0  0  0  0  0  0  0  0  0  0  0
    0.5285   -0.7587    1.2315 C   0  0  0  0  0  0  0  0  0  0  0  0
    0.3138   -1.5723   -1.1063 C   0  0  0  0  0  0  0  0  0  0  0  0
   -1.9713   -0.9179    0.9397 C   0  0  0  0  0  0  0  0  0  0  0  0
   -2.0922   -1.3758   -0.3768 C   0  0  0  0  0  0  0  0  0  0  0  0
    1.9649    0.1124   -0.5240 C   0  0  1  0  0  0  0  0  0  0  0  0
    2.0844    1.5311    0.0460 C   0  0  1  0  0  0  0  0  0  0  0  0
    3.4843    2.1000   -0.1982 C   0  0  2  0  0  0  0  0  0  0  0  0
    4.5740    1.1168    0.2317 C   0  0  1  0  0  0  0  0  0  0  0  0
    4.3104   -0.2708   -0.3628 C   0  0  1  0  0  0  0  0  0  0  0  0
   -3.1033   -0.9182   -1.1953 C   0  0  0  0  0  0  0  0  0  0  0  0
   -2.8603    0.0029    1.4532 C   0  0  0  0  0  0  0  0  0  0  0  0
   -4.0183    0.0047   -0.6910 C   0  0  0  0  0  0  0  0  0  0  0  0
   -3.8958    0.4692    0.6447 C   0  0  0  0  0  0  0  0  0  0  0  0
    5.3011   -1.3136    0.1455 C   0  0  0  0  0  0  0  0  0  0  0  0
   -5.8717    1.3431   -0.9599 C   0  0  0  0  0  0  0  0  0  0  0  0
   -5.7536    1.7912    0.3290 C   0  0  0  0  0  0  0  0  0  0  0  0
   -0.8717   -1.7349    2.6393 H   0  0  0  0  0  0  0  0  0  0  0  0
   -1.2387   -3.1270   -1.3624 H   0  0  0  0  0  0  0  0  0  0  0  0
   -1.5460   -3.5276    1.0652 H   0  0  0  0  0  0  0  0  0  0  0  0
    0.2121   -3.4115    0.8632 H   0  0  0  0  0  0  0  0  0  0  0  0
    0.4877    0.1730    1.8057 H   0  0  0  0  0  0  0  0  0  0  0  0
    1.3802   -1.3406    1.6044 H   0  0  0  0  0  0  0  0  0  0  0  0
    1.1428   -2.2899   -1.1629 H   0  0  0  0  0  0  0  0  0  0  0  0
    0.1546   -1.1731   -2.1159 H   0  0  0  0  0  0  0  0  0  0  0  0
    2.0680    0.1674   -1.6170 H   0  0  0  0  0  0  0  0  0  0  0  0
    1.8906    1.5687    1.1226 H   0  0  0  0  0  0  0  0  0  0  0  0
    3.6077    2.3715   -1.2537 H   0  0  0  0  0  0  0  0  0  0  0  0
    4.6130    1.0659    1.3265 H   0  0  0  0  0  0  0  0  0  0  0  0
    4.3774   -0.2472   -1.4590 H   0  0  0  0  0  0  0  0  0  0  0  0
   -3.1799   -1.2728   -2.2191 H   0  0  0  0  0  0  0  0  0  0  0  0
   -2.7493    0.3592    2.4732 H   0  0  0  0  0  0  0  0  0  0  0  0
    5.2252   -1.4261    1.2322 H   0  0  0  0  0  0  0  0  0  0  0  0
    6.3294   -1.0509   -0.1205 H   0  0  0  0  0  0  0  0  0  0  0  0
    1.3000    2.3588   -1.5480 H   0  0  0  0  0  0  0  0  0  0  0  0
    3.5399    3.1137    1.4803 H   0  0  0  0  0  0  0  0  0  0  0  0
    5.8166    1.6320   -1.1908 H   0  0  0  0  0  0  0  0  0  0  0  0
    5.6212   -3.2109   -0.1013 H   0  0  0  0  0  0  0  0  0  0  0  0
   -6.6608    1.6845   -1.6180 H   0  0  0  0  0  0  0  0  0  0  0  0
   -6.4432    2.5092    0.7544 H   0  0  0  0  0  0  0  0  0  0  0  0
  1 16  1  0  0  0  0
  1 20  1  0  0  0  0
  2 17  1  0  0  0  0
  2 45  1  0  0  0  0
  3 18  1  0  0  0  0
  3 46  1  0  0  0  0
  4 19  1  0  0  0  0
  4 47  1  0  0  0  0
  5 25  1  0  0  0  0
  5 48  1  0  0  0  0
  6 12  1  0  0  0  0
  6 13  1  0  0  0  0
  6 16  1  0  0  0  0
  7 23  2  0  0  0  0
  7 26  1  0  0  0  0
  8 24  2  0  0  0  0
  8 27  1  0  0  0  0
  9 11  1  0  0  0  0
  9 13  1  0  0  0  0
  9 15  1  0  0  0  0
  9 29  1  0  0  0  0
 10 11  1  0  0  0  0
 10 12  1  0  0  0  0
 10 14  1  0  0  0  0
 10 28  1  0  0  0  0
 11 30  1  0  0  0  0
 11 31  1  0  0  0  0
 12 32  1  0  0  0  0
 12 33  1  0  0  0  0
 13 34  1  0  0  0  0
 13 35  1  0  0  0  0
 14 15  1  0  0  0  0
 14 22  2  0  0  0  0
 15 21  2  0  0  0  0
 16 17  1  0  0  0  0
 16 36  1  0  0  0  0
 17 18  1  0  0  0  0
 17 37  1  0  0  0  0
 18 19  1  0  0  0  0
 18 38  1  0  0  0  0
 19 20  1  0  0  0  0
 19 39  1  0  0  0  0
 20 25  1  0  0  0  0
 20 40  1  0  0  0  0
 21 23  1  0  0  0  0
 21 41  1  0  0  0  0
 22 24  1  0  0  0  0
 22 42  1  0  0  0  0
 23 24  1  0  0  0  0
 25 43  1  0  0  0  0
 25 44  1  0  0  0  0
 26 27  2  0  0  0  0
 26 49  1  0  0  0  0
 27 50  1  0  0  0  0
M  END
> <PUBCHEM_COMPOUND_CID>
102134437

> <PUBCHEM_CONFORMER_RMSD>
0.8

> <PUBCHEM_CONFORMER_DIVERSEORDER>
1
15
11
2
7
20
13
8
3
19
16
9
18
10
17
12
14
5
4
6

> <PUBCHEM_MMFF94_PARTIAL_CHARGES>
34
1 -0.56
10 0.14
12 0.27
13 0.27
14 -0.14
15 -0.14
16 0.55
17 0.28
18 0.28
19 0.28
2 -0.68
20 0.28
21 -0.15
22 -0.15
23 0.31
24 0.31
25 0.28
26 0.16
27 0.16
3 -0.68
4 -0.68
41 0.15
42 0.15
45 0.4
46 0.4
47 0.4
48 0.4
49 0.15
5 -0.68
50 0.15
6 -0.81
7 -0.62
8 -0.62
9 0.14

> <PUBCHEM_EFFECTIVE_ROTOR_COUNT>
4

> <PUBCHEM_PHARMACOPHORE_FEATURES>
16
1 1 acceptor
1 2 acceptor
1 2 donor
1 3 acceptor
1 3 donor
1 4 acceptor
1 4 donor
1 5 acceptor
1 5 donor
1 6 cation
1 7 acceptor
1 8 acceptor
6 1 16 17 18 19 20 rings
6 14 15 21 22 23 24 rings
6 7 8 23 24 26 27 rings
8 6 9 10 11 12 13 14 15 rings

> <PUBCHEM_HEAVY_ATOM_COUNT>
27

> <PUBCHEM_ATOM_DEF_STEREO_COUNT>
7

> <PUBCHEM_ATOM_UDEF_STEREO_COUNT>
0

> <PUBCHEM_BOND_DEF_STEREO_COUNT>
0

> <PUBCHEM_BOND_UDEF_STEREO_COUNT>
0

> <PUBCHEM_ISOTOPIC_ATOM_COUNT>
0

> <PUBCHEM_COMPONENT_COUNT>
1

> <PUBCHEM_CACTVS_TAUTO_COUNT>
30

> <PUBCHEM_CONFORMER_ID>
061672A500000001

> <PUBCHEM_MMFF94_ENERGY>
94.0542

> <PUBCHEM_FEATURE_SELFOVERLAP>
81.272

> <PUBCHEM_SHAPE_FINGERPRINT>
11089746 13 18411414016715154674
11186622 174 18410007693813979726
11370993 144 18334015020917051428
11578080 2 13841704122975230308
12107183 9 18340204081887051186
12236239 1 18130784538845292295
12403259 415 18187937196043341955
12596602 18 12829496921957094573
12788726 201 17775017747452791272
13103583 49 12468640496019459125
13224815 77 10015600380215965942
13402501 40 18187362095786215821
13583140 156 18265342887611336858
14955137 171 14779558841700250614
15064981 113 17060062475996903740
15183329 4 18343582910808944270
15238133 3 18041569126091204308
15537594 2 11314319359727326873
17349148 13 16558480750688704894
18335252 114 18339914901897176197
192875 21 17917713491459489384
20511986 3 17846203489183855042
20715895 44 18201441324624971369
20832881 197 18187645748532703194
21033648 144 18336820982943940709
21033648 29 17167853141649253653
21033650 10 16127279743362912608
21279426 13 18334576798180916172
21298829 104 18201439147308856024
21421861 104 17895178988707375864
22393880 68 17914904368732432828
22950370 63 10809343334497377975
23559900 14 18342740737106573490
2838139 119 18339640045364757149
335352 9 18410576159122626902
3459 83 18200594692018365150
34934 24 18336263531160360258
3633792 109 17560523907073462294
3737641 26 8213881291653325617
4017518 198 17132119014390937838
404807 14 16192299140197295470
463206 1 9943508731546554021
474 4 18411136905699646859
5104073 3 18260543476474708018
57724786 102 18041007270895735060
6328613 192 18335710498382092284
633830 44 18260822726357840626
7399639 24 17329155075004031362
9981440 41 17549526861880756944

> <PUBCHEM_SHAPE_MULTIPOLES>
511.36
13.08
2.93
1.25
0.55
0.38
0.14
7.09
-1.66
2.15
0.11
-1.28
-0.27
0.21

> <PUBCHEM_SHAPE_SELFOVERLAP>
1133.312

> <PUBCHEM_SHAPE_VOLUME>
271.3

> <PUBCHEM_COORDINATE_TYPE>
2
5
10

$$$$
