102111764
  -OEChem-03292013293D

 53 54  0     1  0  0  0  0  0999 V2000
   -4.3943    2.8521    0.4038 O   0  0  0  0  0  0  0  0  0  0  0  0
   -2.3865   -1.3504   -0.7844 O   0  0  0  0  0  0  0  0  0  0  0  0
    0.1756    2.5557    0.0827 O   0  0  0  0  0  0  0  0  0  0  0  0
    0.0958   -1.5625   -0.6130 O   0  0  0  0  0  0  0  0  0  0  0  0
   -8.2894   -2.2126    0.4949 O   0  0  0  0  0  0  0  0  0  0  0  0
   -2.1014    2.5799    0.3401 N   0  0  0  0  0  0  0  0  0  0  0  0
   -3.5491    0.7467   -0.4722 C   0  0  2  0  0  0  0  0  0  0  0  0
   -3.3602    1.8842    0.5412 C   0  0  2  0  0  0  0  0  0  0  0  0
   -4.8204   -0.0464   -0.2130 C   0  0  0  0  0  0  0  0  0  0  0  0
   -2.3196   -0.1574   -0.4931 C   0  0  0  0  0  0  0  0  0  0  0  0
   -1.0090    0.5042   -0.2117 C   0  0  0  0  0  0  0  0  0  0  0  0
   -0.8984    1.9599    0.0861 C   0  0  0  0  0  0  0  0  0  0  0  0
   -4.9875   -0.7196    0.9971 C   0  0  0  0  0  0  0  0  0  0  0  0
   -5.8192   -0.1011   -1.1852 C   0  0  0  0  0  0  0  0  0  0  0  0
    0.1118   -0.2296   -0.2503 C   0  0  0  0  0  0  0  0  0  0  0  0
    8.8497   -0.2246    0.5467 C   0  0  2  0  0  0  0  0  0  0  0  0
   -6.1534   -1.4474    1.2352 C   0  0  0  0  0  0  0  0  0  0  0  0
   -6.9851   -0.8287   -0.9472 C   0  0  0  0  0  0  0  0  0  0  0  0
   -7.1521   -1.5018    0.2631 C   0  0  0  0  0  0  0  0  0  0  0  0
    9.6901   -0.4503   -0.7233 C   0  0  0  0  0  0  0  0  0  0  0  0
    1.4456    0.2759    0.0000 C   0  0  0  0  0  0  0  0  0  0  0  0
    9.4931   -0.8440    1.7892 C   0  0  0  0  0  0  0  0  0  0  0  0
    7.4724   -0.8156    0.3497 C   0  0  0  0  0  0  0  0  0  0  0  0
    9.0825    0.1758   -1.9711 C   0  0  0  0  0  0  0  0  0  0  0  0
    2.5733   -0.4517   -0.0365 C   0  0  0  0  0  0  0  0  0  0  0  0
    6.3428   -0.0914    0.3854 C   0  0  0  0  0  0  0  0  0  0  0  0
    3.8826    0.1137    0.2111 C   0  0  0  0  0  0  0  0  0  0  0  0
    5.0103   -0.6130    0.1747 C   0  0  0  0  0  0  0  0  0  0  0  0
   -3.6134    1.1846   -1.4789 H   0  0  0  0  0  0  0  0  0  0  0  0
   -3.3593    1.5207    1.5750 H   0  0  0  0  0  0  0  0  0  0  0  0
   -2.0783    3.5736    0.5459 H   0  0  0  0  0  0  0  0  0  0  0  0
   -4.2178   -0.6952    1.7636 H   0  0  0  0  0  0  0  0  0  0  0  0
   -5.7039    0.4180   -2.1328 H   0  0  0  0  0  0  0  0  0  0  0  0
   -4.1825    3.5812    1.0107 H   0  0  0  0  0  0  0  0  0  0  0  0
    8.7710    0.8573    0.7172 H   0  0  0  0  0  0  0  0  0  0  0  0
   -6.2706   -1.9689    2.1814 H   0  0  0  0  0  0  0  0  0  0  0  0
   -7.7597   -0.8678   -1.7083 H   0  0  0  0  0  0  0  0  0  0  0  0
    9.8374   -1.5237   -0.8980 H   0  0  0  0  0  0  0  0  0  0  0  0
   10.6873   -0.0200   -0.5681 H   0  0  0  0  0  0  0  0  0  0  0  0
    9.6145   -1.9278    1.6812 H   0  0  0  0  0  0  0  0  0  0  0  0
   10.4841   -0.4116    1.9637 H   0  0  0  0  0  0  0  0  0  0  0  0
    8.8852   -0.6587    2.6818 H   0  0  0  0  0  0  0  0  0  0  0  0
    1.6373    1.2807    0.3315 H   0  0  0  0  0  0  0  0  0  0  0  0
    7.4175   -1.8858    0.1591 H   0  0  0  0  0  0  0  0  0  0  0  0
    8.1470   -0.3130   -2.2590 H   0  0  0  0  0  0  0  0  0  0  0  0
    9.7758    0.0767   -2.8129 H   0  0  0  0  0  0  0  0  0  0  0  0
    8.8866    1.2422   -1.8206 H   0  0  0  0  0  0  0  0  0  0  0  0
   -0.7888   -1.8469   -0.8800 H   0  0  0  0  0  0  0  0  0  0  0  0
    2.5452   -1.5068   -0.2971 H   0  0  0  0  0  0  0  0  0  0  0  0
    6.4124    0.9776    0.5756 H   0  0  0  0  0  0  0  0  0  0  0  0
    4.9490   -1.6789   -0.0390 H   0  0  0  0  0  0  0  0  0  0  0  0
   -8.2360   -2.6126    1.3799 H   0  0  0  0  0  0  0  0  0  0  0  0
    3.9376    1.1789    0.4235 H   0  0  0  0  0  0  0  0  0  0  0  0
  1  8  1  0  0  0  0
  1 34  1  0  0  0  0
  2 10  2  0  0  0  0
  3 12  2  0  0  0  0
  4 15  1  0  0  0  0
  4 48  1  0  0  0  0
  5 19  1  0  0  0  0
  5 52  1  0  0  0  0
  6  8  1  0  0  0  0
  6 12  1  0  0  0  0
  6 31  1  0  0  0  0
  7  8  1  0  0  0  0
  7  9  1  0  0  0  0
  7 10  1  0  0  0  0
  7 29  1  0  0  0  0
  8 30  1  0  0  0  0
  9 13  2  0  0  0  0
  9 14  1  0  0  0  0
 10 11  1  0  0  0  0
 11 12  1  0  0  0  0
 11 15  2  3  0  0  0
 13 17  1  0  0  0  0
 13 32  1  0  0  0  0
 14 18  2  0  0  0  0
 14 33  1  0  0  0  0
 15 21  1  0  0  0  0
 16 20  1  0  0  0  0
 16 22  1  0  0  0  0
 16 23  1  0  0  0  0
 16 35  1  0  0  0  0
 17 19  2  0  0  0  0
 17 36  1  0  0  0  0
 18 19  1  0  0  0  0
 18 37  1  0  0  0  0
 20 24  1  0  0  0  0
 20 38  1  0  0  0  0
 20 39  1  0  0  0  0
 21 25  2  0  0  0  0
 21 43  1  0  0  0  0
 22 40  1  0  0  0  0
 22 41  1  0  0  0  0
 22 42  1  0  0  0  0
 23 26  2  0  0  0  0
 23 44  1  0  0  0  0
 24 45  1  0  0  0  0
 24 46  1  0  0  0  0
 24 47  1  0  0  0  0
 25 27  1  0  0  0  0
 25 49  1  0  0  0  0
 26 28  1  0  0  0  0
 26 50  1  0  0  0  0
 27 28  2  0  0  0  0
 27 53  1  0  0  0  0
 28 51  1  0  0  0  0
M  END
> <PUBCHEM_COMPOUND_CID>
102111764

> <PUBCHEM_CONFORMER_RMSD>
0.8

> <PUBCHEM_CONFORMER_DIVERSEORDER>
1
13
7
75
50
34
88
29
98
78
95
87
65
51
82
39
19
92
43
79
64
93
3
23
33
27
20
5
32
85
117
28
36
38
48
44
12
115
107
52
2
60
17
42
9
30
25
66
53
15
37
57
18
49
83
71
4
76
67
73
35
90
40
109
114
11
106
63
45
81
105
56
104
22
59
113
72
100
54
108
14
96
16
8
10
69
68
62
110
111
91
101
70
102
24
58
46
118
80
86
94
47
97
89
99
6
74
119
61
21
84
103
116
26
112
55
77
41
31

> <PUBCHEM_MMFF94_PARTIAL_CHARGES>
39
1 -0.68
10 0.49
11 0.03
12 0.62
13 -0.15
14 -0.15
15 0.08
16 0.14
17 -0.15
18 -0.15
19 0.08
2 -0.57
21 -0.15
23 -0.29
25 -0.15
26 -0.15
27 -0.15
28 -0.15
3 -0.57
31 0.37
32 0.15
33 0.15
34 0.4
36 0.15
37 0.15
4 -0.53
43 0.15
44 0.15
48 0.45
49 0.15
5 -0.53
50 0.15
51 0.15
52 0.45
53 0.15
6 -0.73
7 0.2
8 0.58
9 -0.14

> <PUBCHEM_EFFECTIVE_ROTOR_COUNT>
6.6

> <PUBCHEM_PHARMACOPHORE_FEATURES>
12
1 1 acceptor
1 1 donor
1 11 anion
1 2 acceptor
1 22 hydrophobe
1 24 hydrophobe
1 3 acceptor
1 4 donor
1 5 donor
1 6 donor
6 6 7 8 10 11 12 rings
6 9 13 14 17 18 19 rings

> <PUBCHEM_HEAVY_ATOM_COUNT>
28

> <PUBCHEM_ATOM_DEF_STEREO_COUNT>
0

> <PUBCHEM_ATOM_UDEF_STEREO_COUNT>
3

> <PUBCHEM_BOND_DEF_STEREO_COUNT>
3

> <PUBCHEM_BOND_UDEF_STEREO_COUNT>
1

> <PUBCHEM_ISOTOPIC_ATOM_COUNT>
0

> <PUBCHEM_COMPONENT_COUNT>
1

> <PUBCHEM_CACTVS_TAUTO_COUNT>
1001

> <PUBCHEM_CONFORMER_ID>
06161A1400000001

> <PUBCHEM_MMFF94_ENERGY>
69.4792

> <PUBCHEM_FEATURE_SELFOVERLAP>
60.944

> <PUBCHEM_SHAPE_FINGERPRINT>
10076449 9 18060703896868547776
10162869 55 17458345248480936540
10299344 5 18186520987129349002
11135609 99 18188776188141122319
11211813 128 18131072627992927014
11273773 118 13830134945025103849
11315181 36 17822014202949315881
12082328 90 18339641144897120364
12089408 11 18113617864212210684
12104220 1 16487256569485099083
13673619 4 18130784564657905200
14118638 360 18342175510741487218
14202775 3 18337955594327250466
14251764 18 18334294250243109530
14251764 46 17385441024987066878
14444916 359 16989130846748880902
15461852 350 17530683199833641150
1577012 14 18261392179461272192
15979999 66 17385444345329448252
17686467 74 18333448768461593448
18335252 98 18272654532952163814
19611394 137 18263650713113803970
20105231 36 17918280840467347918
20721686 146 12031248178090284571
20721686 56 18339639052837155889
21130935 74 18269836403246469914
21150785 3 16950001435545047494
21267235 1 18413108376644133860
21360443 89 18337666511580882587
21792961 116 18259978276728335623
23389318 12 17821453469884665932
23559900 14 17677894720655341165
246663 6 18131353016453349982
335507 130 18131067143978650916
3383291 50 18410855481841161586
5104073 3 18128539267155303987
54039377 194 18335986458573042503
59521660 218 17749961075873250140
59682541 35 18202560705183058466
636775 8 18335989739221246286
67123 10 17385723608782647854
9663363 56 18342736322154324303
9953998 17 16558746836887258527

> <PUBCHEM_SHAPE_MULTIPOLES>
541.9
31.37
2.05
1.17
64.57
1.36
-0.11
-14.86
0.61
-4.18
0.47
1.46
-0.2
-0.54

> <PUBCHEM_SHAPE_SELFOVERLAP>
1132.917

> <PUBCHEM_SHAPE_VOLUME>
303

> <PUBCHEM_COORDINATE_TYPE>
2
5
10

$$$$
