102137059
  -OEChem-03292013293D

 67 70  0     1  0  0  0  0  0999 V2000
   -4.1816   -1.0502    0.7340 O   0  0  0  0  0  0  0  0  0  0  0  0
    1.1136   -1.1379    0.0539 O   0  0  0  0  0  0  0  0  0  0  0  0
   -1.6166    2.7404   -0.1429 O   0  0  0  0  0  0  0  0  0  0  0  0
    3.2788   -0.5944   -0.6246 O   0  0  0  0  0  0  0  0  0  0  0  0
   -5.9375    0.1464    1.5949 O   0  0  0  0  0  0  0  0  0  0  0  0
    1.7077   -0.1730    2.6470 O   0  0  0  0  0  0  0  0  0  0  0  0
    4.5816   -0.3748    3.2640 O   0  0  0  0  0  0  0  0  0  0  0  0
    6.1563    0.8131    1.1509 O   0  0  0  0  0  0  0  0  0  0  0  0
   -0.9533    3.2586   -2.2943 O   0  0  0  0  0  0  0  0  0  0  0  0
    4.7671    0.1926   -2.7976 O   0  0  0  0  0  0  0  0  0  0  0  0
   -0.9343   -1.4789   -1.2251 C   0  0  1  0  0  0  0  0  0  0  0  0
   -1.9639   -1.7784   -0.0965 C   0  0  1  0  0  0  0  0  0  0  0  0
   -3.0808   -0.7260   -0.1248 C   0  0  2  0  0  0  0  0  0  0  0  0
    0.2136   -0.5046   -0.8684 C   0  0  1  0  0  0  0  0  0  0  0  0
   -2.6625    0.6400    0.4024 C   0  0  1  0  0  0  0  0  0  0  0  0
   -1.6234    1.3512   -0.4723 C   0  0  2  0  0  0  0  0  0  0  0  0
   -0.2149    0.8103   -0.1799 C   0  0  0  0  0  0  0  0  0  0  0  0
   -0.4654   -2.8615   -1.7252 C   0  0  0  0  0  0  0  0  0  0  0  0
   -4.0357    1.2972    0.5739 C   0  0  1  0  0  0  0  0  0  0  0  0
   -2.4108   -3.1807   -0.4546 C   0  0  0  0  0  0  0  0  0  0  0  0
   -1.5909   -3.7544   -1.3428 C   0  0  0  0  0  0  0  0  0  0  0  0
    1.0167   -0.1623   -2.1385 C   0  0  0  0  0  0  0  0  0  0  0  0
   -4.8519    0.1065    1.0372 C   0  0  0  0  0  0  0  0  0  0  0  0
   -4.0851    2.4093    1.6116 C   0  0  0  0  0  0  0  0  0  0  0  0
   -3.5626   -3.8661    0.1937 C   0  0  0  0  0  0  0  0  0  0  0  0
    2.2462   -0.3099    0.3163 C   0  0  2  0  0  0  0  0  0  0  0  0
    2.7226   -0.6011    1.7392 C   0  0  1  0  0  0  0  0  0  0  0  0
    4.0256    0.1352    2.0510 C   0  0  2  0  0  0  0  0  0  0  0  0
    4.4357    0.2213   -0.4319 C   0  0  1  0  0  0  0  0  0  0  0  0
    5.0545   -0.0656    0.9383 C   0  0  1  0  0  0  0  0  0  0  0  0
   -1.2604    3.5831   -1.1552 C   0  0  0  0  0  0  0  0  0  0  0  0
    5.4086   -0.0849   -1.5662 C   0  0  0  0  0  0  0  0  0  0  0  0
   -1.2972    4.9997   -0.6674 C   0  0  0  0  0  0  0  0  0  0  0  0
   -1.4861   -1.0318   -2.0676 H   0  0  0  0  0  0  0  0  0  0  0  0
   -1.4911   -1.8157    0.8932 H   0  0  0  0  0  0  0  0  0  0  0  0
   -3.4906   -0.6522   -1.1428 H   0  0  0  0  0  0  0  0  0  0  0  0
   -2.2486    0.5195    1.4159 H   0  0  0  0  0  0  0  0  0  0  0  0
   -1.8878    1.2201   -1.5285 H   0  0  0  0  0  0  0  0  0  0  0  0
    0.4768    1.6180   -0.4534 H   0  0  0  0  0  0  0  0  0  0  0  0
   -0.1180    0.7281    0.9110 H   0  0  0  0  0  0  0  0  0  0  0  0
    0.4582   -3.2031   -1.2479 H   0  0  0  0  0  0  0  0  0  0  0  0
   -0.3172   -2.8529   -2.8098 H   0  0  0  0  0  0  0  0  0  0  0  0
   -4.4386    1.6383   -0.3866 H   0  0  0  0  0  0  0  0  0  0  0  0
   -1.6896   -4.7687   -1.7033 H   0  0  0  0  0  0  0  0  0  0  0  0
    1.5770   -1.0291   -2.5066 H   0  0  0  0  0  0  0  0  0  0  0  0
    1.7261    0.6620   -2.0141 H   0  0  0  0  0  0  0  0  0  0  0  0
    0.3386    0.1566   -2.9394 H   0  0  0  0  0  0  0  0  0  0  0  0
   -3.6853    2.0762    2.5758 H   0  0  0  0  0  0  0  0  0  0  0  0
   -5.1189    2.7289    1.7842 H   0  0  0  0  0  0  0  0  0  0  0  0
   -3.5230    3.2903    1.2941 H   0  0  0  0  0  0  0  0  0  0  0  0
    2.0435    0.7611    0.2770 H   0  0  0  0  0  0  0  0  0  0  0  0
   -4.5109   -3.4435   -0.1505 H   0  0  0  0  0  0  0  0  0  0  0  0
   -3.5030   -3.7688    1.2822 H   0  0  0  0  0  0  0  0  0  0  0  0
   -3.5768   -4.9362   -0.0401 H   0  0  0  0  0  0  0  0  0  0  0  0
    2.8460   -1.6804    1.8883 H   0  0  0  0  0  0  0  0  0  0  0  0
    3.8419    1.2019    2.2248 H   0  0  0  0  0  0  0  0  0  0  0  0
    4.1395    1.2758   -0.5182 H   0  0  0  0  0  0  0  0  0  0  0  0
    5.4422   -1.0911    0.9754 H   0  0  0  0  0  0  0  0  0  0  0  0
    5.6862   -1.1442   -1.5665 H   0  0  0  0  0  0  0  0  0  0  0  0
    6.3133    0.5264   -1.4957 H   0  0  0  0  0  0  0  0  0  0  0  0
    1.6114    0.7907    2.5601 H   0  0  0  0  0  0  0  0  0  0  0  0
   -2.3126    5.2580   -0.3566 H   0  0  0  0  0  0  0  0  0  0  0  0
   -0.9991    5.6705   -1.4782 H   0  0  0  0  0  0  0  0  0  0  0  0
   -0.5967    5.1241    0.1623 H   0  0  0  0  0  0  0  0  0  0  0  0
    4.7404   -1.3270    3.1471 H   0  0  0  0  0  0  0  0  0  0  0  0
    5.8252    1.7263    1.1061 H   0  0  0  0  0  0  0  0  0  0  0  0
    5.4015   -0.0139   -3.5049 H   0  0  0  0  0  0  0  0  0  0  0  0
  1 13  1  0  0  0  0
  1 23  1  0  0  0  0
  2 14  1  0  0  0  0
  2 26  1  0  0  0  0
  3 16  1  0  0  0  0
  3 31  1  0  0  0  0
  4 26  1  0  0  0  0
  4 29  1  0  0  0  0
  5 23  2  0  0  0  0
  6 27  1  0  0  0  0
  6 61  1  0  0  0  0
  7 28  1  0  0  0  0
  7 65  1  0  0  0  0
  8 30  1  0  0  0  0
  8 66  1  0  0  0  0
  9 31  2  0  0  0  0
 10 32  1  0  0  0  0
 10 67  1  0  0  0  0
 11 12  1  0  0  0  0
 11 14  1  0  0  0  0
 11 18  1  0  0  0  0
 11 34  1  0  0  0  0
 12 13  1  0  0  0  0
 12 20  1  0  0  0  0
 12 35  1  0  0  0  0
 13 15  1  0  0  0  0
 13 36  1  0  0  0  0
 14 17  1  0  0  0  0
 14 22  1  0  0  0  0
 15 16  1  0  0  0  0
 15 19  1  0  0  0  0
 15 37  1  0  0  0  0
 16 17  1  0  0  0  0
 16 38  1  0  0  0  0
 17 39  1  0  0  0  0
 17 40  1  0  0  0  0
 18 21  1  0  0  0  0
 18 41  1  0  0  0  0
 18 42  1  0  0  0  0
 19 23  1  0  0  0  0
 19 24  1  0  0  0  0
 19 43  1  0  0  0  0
 20 21  2  0  0  0  0
 20 25  1  0  0  0  0
 21 44  1  0  0  0  0
 22 45  1  0  0  0  0
 22 46  1  0  0  0  0
 22 47  1  0  0  0  0
 24 48  1  0  0  0  0
 24 49  1  0  0  0  0
 24 50  1  0  0  0  0
 25 52  1  0  0  0  0
 25 53  1  0  0  0  0
 25 54  1  0  0  0  0
 26 27  1  0  0  0  0
 26 51  1  0  0  0  0
 27 28  1  0  0  0  0
 27 55  1  0  0  0  0
 28 30  1  0  0  0  0
 28 56  1  0  0  0  0
 29 30  1  0  0  0  0
 29 32  1  0  0  0  0
 29 57  1  0  0  0  0
 30 58  1  0  0  0  0
 31 33  1  0  0  0  0
 32 59  1  0  0  0  0
 32 60  1  0  0  0  0
 33 62  1  0  0  0  0
 33 63  1  0  0  0  0
 33 64  1  0  0  0  0
M  END
> <PUBCHEM_COMPOUND_CID>
102137059

> <PUBCHEM_CONFORMER_RMSD>
1

> <PUBCHEM_CONFORMER_DIVERSEORDER>
1
19
5
25
14
16
12
3
23
4
18
20
10
21
24
15
22
17
8
7
11
26
2
6
13
9

> <PUBCHEM_MMFF94_PARTIAL_CHARGES>
33
1 -0.43
10 -0.68
12 0.14
13 0.28
14 0.28
16 0.28
18 0.14
19 0.06
2 -0.56
20 -0.28
21 -0.29
23 0.66
25 0.14
26 0.56
27 0.28
28 0.28
29 0.28
3 -0.43
30 0.28
31 0.66
32 0.28
33 0.06
4 -0.56
44 0.15
5 -0.57
6 -0.68
61 0.4
65 0.4
66 0.4
67 0.4
7 -0.68
8 -0.68
9 -0.57

> <PUBCHEM_EFFECTIVE_ROTOR_COUNT>
7.4

> <PUBCHEM_PHARMACOPHORE_FEATURES>
16
1 10 acceptor
1 10 donor
1 2 acceptor
1 4 acceptor
1 5 acceptor
1 6 acceptor
1 6 donor
1 7 acceptor
1 7 donor
1 8 acceptor
1 8 donor
1 9 acceptor
5 1 13 15 19 23 rings
5 11 12 18 20 21 rings
6 4 26 27 28 29 30 rings
7 11 12 13 14 15 16 17 rings

> <PUBCHEM_HEAVY_ATOM_COUNT>
33

> <PUBCHEM_ATOM_DEF_STEREO_COUNT>
11

> <PUBCHEM_ATOM_UDEF_STEREO_COUNT>
1

> <PUBCHEM_BOND_DEF_STEREO_COUNT>
0

> <PUBCHEM_BOND_UDEF_STEREO_COUNT>
0

> <PUBCHEM_ISOTOPIC_ATOM_COUNT>
0

> <PUBCHEM_COMPONENT_COUNT>
1

> <PUBCHEM_CACTVS_TAUTO_COUNT>
4

> <PUBCHEM_CONFORMER_ID>
06167CE300000001

> <PUBCHEM_MMFF94_ENERGY>
109.7644

> <PUBCHEM_FEATURE_SELFOVERLAP>
81.31

> <PUBCHEM_SHAPE_FINGERPRINT>
10074138 170 18339910602323877995
10165383 225 18059027072288938772
10906281 52 18045503020040637925
10930396 42 18048843481655919809
11578080 2 17489027188461404848
11595378 159 18114457877678355128
11763715 3 18042383881376413416
12156800 1 16122524458636133385
12160290 23 18200007612907104751
12633257 1 18271517684461228720
12788726 201 18113903736339062512
13140716 1 18339921648747108593
13782708 43 17560808735686863646
14068700 675 17912342519435654183
14341114 328 17822020804002696770
14840074 17 18188506725686571069
14910302 57 18272097063250256254
15775530 1 17617102408848226549
17980427 23 18130226090270779197
1813 80 18121489426162887302
20600515 1 18270974538955651405
21033648 29 17988931067567838603
21792961 116 17131292194688967678
23559900 14 18058751138479807214
23598288 3 17750500806752790837
25019877 29 17561370599672468055
469060 322 18265337381363335859
508706 21 17846211219487210742
5265222 85 18057342750342843734
9981440 41 17761459549274722497

> <PUBCHEM_SHAPE_MULTIPOLES>
620.43
11.14
4.5
2.39
10.3
1.9
0.54
0.53
5.33
-6.67
-2.47
2.93
0.38
-0.26

> <PUBCHEM_SHAPE_SELFOVERLAP>
1313.981

> <PUBCHEM_SHAPE_VOLUME>
343.8

> <PUBCHEM_COORDINATE_TYPE>
2
5
10

$$$$
