102106217
  -OEChem-03292013293D

 38 39  0     1  0  0  0  0  0999 V2000
   -0.9693    1.9820   -1.5801 O   0  0  0  0  0  0  0  0  0  0  0  0
   -4.1077    0.2810    0.6083 O   0  0  0  0  0  0  0  0  0  0  0  0
    1.4546    2.3129   -0.4265 O   0  0  0  0  0  0  0  0  0  0  0  0
   -1.5755   -3.5223   -0.5181 O   0  0  0  0  0  0  0  0  0  0  0  0
    3.2522   -1.6256   -0.6535 O   0  0  0  0  0  0  0  0  0  0  0  0
   -0.9492   -0.0683    0.8428 N   0  0  2  0  0  0  0  0  0  0  0  0
    2.7907    0.1263    0.8116 N   0  0  0  0  0  0  0  0  0  0  0  0
   -1.8495    1.0901    0.5348 C   0  0  1  0  0  0  0  0  0  0  0  0
    0.3997    0.2569    0.3510 C   0  0  1  0  0  0  0  0  0  0  0  0
   -1.5973   -1.2814    0.3098 C   0  0  1  0  0  0  0  0  0  0  0  0
   -0.9628    2.1280   -0.1644 C   0  0  1  0  0  0  0  0  0  0  0  0
   -3.0168    0.5351   -0.2766 C   0  0  1  0  0  0  0  0  0  0  0  0
    0.4147    1.7847    0.3740 C   0  0  2  0  0  0  0  0  0  0  0  0
   -2.4924   -0.7812   -0.8229 C   0  0  0  0  0  0  0  0  0  0  0  0
    1.4980   -0.3074    1.2476 C   0  0  0  0  0  0  0  0  0  0  0  0
   -0.7293   -2.4586   -0.1205 C   0  0  0  0  0  0  0  0  0  0  0  0
    3.5680   -0.5710   -0.1087 C   0  0  0  0  0  0  0  0  0  0  0  0
    4.8718    0.1188   -0.4090 C   0  0  0  0  0  0  0  0  0  0  0  0
   -2.1820    1.4980    1.4977 H   0  0  0  0  0  0  0  0  0  0  0  0
    0.5660   -0.0884   -0.6771 H   0  0  0  0  0  0  0  0  0  0  0  0
   -2.2612   -1.6519    1.1044 H   0  0  0  0  0  0  0  0  0  0  0  0
   -1.2550    3.1561    0.0680 H   0  0  0  0  0  0  0  0  0  0  0  0
   -3.3734    1.1999   -1.0686 H   0  0  0  0  0  0  0  0  0  0  0  0
    0.5287    2.1647    1.3979 H   0  0  0  0  0  0  0  0  0  0  0  0
   -3.3041   -1.4858   -1.0335 H   0  0  0  0  0  0  0  0  0  0  0  0
   -1.9160   -0.6253   -1.7410 H   0  0  0  0  0  0  0  0  0  0  0  0
    1.4833   -1.4004    1.2586 H   0  0  0  0  0  0  0  0  0  0  0  0
    1.3762    0.0328    2.2826 H   0  0  0  0  0  0  0  0  0  0  0  0
   -0.1196   -2.8160    0.7139 H   0  0  0  0  0  0  0  0  0  0  0  0
   -0.0769   -2.2098   -0.9625 H   0  0  0  0  0  0  0  0  0  0  0  0
   -0.6299    1.1067   -1.8215 H   0  0  0  0  0  0  0  0  0  0  0  0
   -4.4069    1.1395    0.9538 H   0  0  0  0  0  0  0  0  0  0  0  0
    1.3385    3.2778   -0.4549 H   0  0  0  0  0  0  0  0  0  0  0  0
    3.1476    0.9991    1.1902 H   0  0  0  0  0  0  0  0  0  0  0  0
   -1.0024   -4.2631   -0.7793 H   0  0  0  0  0  0  0  0  0  0  0  0
    4.6842    0.9864   -1.0473 H   0  0  0  0  0  0  0  0  0  0  0  0
    5.5434   -0.5721   -0.9259 H   0  0  0  0  0  0  0  0  0  0  0  0
    5.3520    0.4454    0.5178 H   0  0  0  0  0  0  0  0  0  0  0  0
  1 11  1  0  0  0  0
  1 31  1  0  0  0  0
  2 12  1  0  0  0  0
  2 32  1  0  0  0  0
  3 13  1  0  0  0  0
  3 33  1  0  0  0  0
  4 16  1  0  0  0  0
  4 35  1  0  0  0  0
  5 17  2  0  0  0  0
  6  8  1  0  0  0  0
  6  9  1  0  0  0  0
  6 10  1  0  0  0  0
  7 15  1  0  0  0  0
  7 17  1  0  0  0  0
  7 34  1  0  0  0  0
  8 11  1  0  0  0  0
  8 12  1  0  0  0  0
  8 19  1  0  0  0  0
  9 13  1  0  0  0  0
  9 15  1  0  0  0  0
  9 20  1  0  0  0  0
 10 14  1  0  0  0  0
 10 16  1  0  0  0  0
 10 21  1  0  0  0  0
 11 13  1  0  0  0  0
 11 22  1  0  0  0  0
 12 14  1  0  0  0  0
 12 23  1  0  0  0  0
 13 24  1  0  0  0  0
 14 25  1  0  0  0  0
 14 26  1  0  0  0  0
 15 27  1  0  0  0  0
 15 28  1  0  0  0  0
 16 29  1  0  0  0  0
 16 30  1  0  0  0  0
 17 18  1  0  0  0  0
 18 36  1  0  0  0  0
 18 37  1  0  0  0  0
 18 38  1  0  0  0  0
M  END
> <PUBCHEM_COMPOUND_CID>
102106217

> <PUBCHEM_CONFORMER_RMSD>
0.8

> <PUBCHEM_CONFORMER_DIVERSEORDER>
1
24
12
4
11
5
17
13
26
25
22
23
14
3
8
19
2
16
15
20
7
18
10
9
21
6

> <PUBCHEM_MMFF94_PARTIAL_CHARGES>
22
1 -0.68
10 0.27
11 0.28
12 0.28
13 0.28
15 0.3
16 0.28
17 0.57
18 0.06
2 -0.68
3 -0.68
31 0.4
32 0.4
33 0.4
34 0.37
35 0.4
4 -0.68
5 -0.57
6 -0.81
7 -0.73
8 0.27
9 0.27

> <PUBCHEM_EFFECTIVE_ROTOR_COUNT>
5.2

> <PUBCHEM_PHARMACOPHORE_FEATURES>
13
1 1 acceptor
1 1 donor
1 2 acceptor
1 2 donor
1 3 acceptor
1 3 donor
1 4 acceptor
1 4 donor
1 5 acceptor
1 6 cation
1 7 donor
5 6 8 10 12 14 rings
5 6 8 9 11 13 rings

> <PUBCHEM_HEAVY_ATOM_COUNT>
18

> <PUBCHEM_ATOM_DEF_STEREO_COUNT>
6

> <PUBCHEM_ATOM_UDEF_STEREO_COUNT>
0

> <PUBCHEM_BOND_DEF_STEREO_COUNT>
0

> <PUBCHEM_BOND_UDEF_STEREO_COUNT>
0

> <PUBCHEM_ISOTOPIC_ATOM_COUNT>
0

> <PUBCHEM_COMPONENT_COUNT>
1

> <PUBCHEM_CACTVS_TAUTO_COUNT>
3

> <PUBCHEM_CONFORMER_ID>
0616046900000001

> <PUBCHEM_MMFF94_ENERGY>
42.6202

> <PUBCHEM_FEATURE_SELFOVERLAP>
66.361

> <PUBCHEM_SHAPE_FINGERPRINT>
10756046 5 18119804969906006397
11322862 65 18342455928539207687
116883 192 17981876746998690327
12173636 292 18124874560572206396
12553582 1 18409156723527593226
13140716 1 18264481965379115562
13544592 145 18131072597964786578
14251745 187 18273491269606038162
14790565 3 18339371751295064025
14993402 34 18409161100072867953
15001771 113 18196087965623037825
15309172 13 18339925905154573393
15415430 112 18339366365642652574
16752209 62 18191002552598726801
16945 1 17968923237175944889
19591789 44 18196655094764774067
20510252 161 18200312096139963528
20645476 183 17385444314731542987
20645477 70 17040898336349402991
20871999 31 18411412904060129972
21029758 27 18187373142235930649
21501502 16 18122061167776823393
22213442 358 18339363088640563016
22713019 99 18341881996770602695
2334 1 17903067073143707035
23402539 116 18341604889263955174
23419403 2 16041314538672819265
23557571 272 18269846470364578574
23559900 14 18272647961936589488
2748010 2 18118955038891058971
4175511 318 18113615664360871310
465052 167 17969804019589884811
7364860 26 18198058282171362472
81228 2 18195227022380996235
9709674 26 18201723942543310166

> <PUBCHEM_SHAPE_MULTIPOLES>
331.12
6.29
2.78
1.01
6.08
1.38
0.05
0.84
0.65
-1.17
0.73
-0.02
-0.16
-0.01

> <PUBCHEM_SHAPE_SELFOVERLAP>
681.31

> <PUBCHEM_SHAPE_VOLUME>
190.8

> <PUBCHEM_COORDINATE_TYPE>
2
5
10

$$$$
