102155282
  -OEChem-03292013293D

 58 59  0     1  0  0  0  0  0999 V2000
   -2.7899    0.7690    1.1078 O   0  0  0  0  0  0  0  0  0  0  0  0
    1.6572   -0.5194   -0.2114 O   0  0  0  0  0  0  0  0  0  0  0  0
   -1.7307    2.5388   -0.9025 O   0  0  0  0  0  0  0  0  0  0  0  0
   -2.2615    1.5333    3.1593 O   0  0  0  0  0  0  0  0  0  0  0  0
    2.4493    0.0447    1.8765 O   0  0  0  0  0  0  0  0  0  0  0  0
   -0.7322   -3.5250   -2.4991 O   0  0  0  0  0  0  0  0  0  0  0  0
    4.9679   -0.1428    1.0883 O   0  0  0  0  0  0  0  0  0  0  0  0
   -0.2890    2.8546   -2.6798 O   0  0  0  0  0  0  0  0  0  0  0  0
   -2.1134   -1.2036   -0.2780 C   0  0  1  0  0  0  0  0  0  0  0  0
   -0.5750   -1.4378   -0.5157 C   0  0  1  0  0  0  0  0  0  0  0  0
   -2.4553    0.3292   -0.2458 C   0  0  2  0  0  0  0  0  0  0  0  0
   -0.1372    1.0235    0.1532 C   0  0  1  0  0  0  0  0  0  0  0  0
    0.3124   -0.4550    0.2833 C   0  0  2  0  0  0  0  0  0  0  0  0
   -1.3200    1.1776   -0.8007 C   0  0  2  0  0  0  0  0  0  0  0  0
   -2.8782   -1.8353   -1.4685 C   0  0  0  0  0  0  0  0  0  0  0  0
   -0.5450    1.5404    1.5092 C   0  0  0  0  0  0  0  0  0  0  0  0
   -2.6048   -1.8892    0.9795 C   0  0  0  0  0  0  0  0  0  0  0  0
   -0.1478   -2.8665   -0.2858 C   0  0  0  0  0  0  0  0  0  0  0  0
   -1.9151    1.2830    2.0098 C   0  0  0  0  0  0  0  0  0  0  0  0
    0.2784    2.2665    2.2806 C   0  0  0  0  0  0  0  0  0  0  0  0
   -3.5578   -2.8271    0.9969 C   0  0  0  0  0  0  0  0  0  0  0  0
    2.6361   -0.2444    0.7007 C   0  0  0  0  0  0  0  0  0  0  0  0
   -0.2861   -3.8347   -1.4006 C   0  0  0  0  0  0  0  0  0  0  0  0
    0.3533   -3.3277    0.8667 C   0  0  0  0  0  0  0  0  0  0  0  0
   -1.1303    3.2641   -1.8914 C   0  0  0  0  0  0  0  0  0  0  0  0
    4.0127   -0.3454    0.0485 C   0  0  1  0  0  0  0  0  0  0  0  0
    4.1775    0.7486   -1.0213 C   0  0  0  0  0  0  0  0  0  0  0  0
   -1.6562    4.6675   -1.8790 C   0  0  0  0  0  0  0  0  0  0  0  0
    4.2282   -1.7570   -0.4932 C   0  0  0  0  0  0  0  0  0  0  0  0
    4.0526    2.1705   -0.4875 C   0  0  0  0  0  0  0  0  0  0  0  0
   -0.3487   -1.2293   -1.5725 H   0  0  0  0  0  0  0  0  0  0  0  0
   -3.3645    0.5363   -0.8230 H   0  0  0  0  0  0  0  0  0  0  0  0
    0.6844    1.6470   -0.2235 H   0  0  0  0  0  0  0  0  0  0  0  0
    0.2939   -0.7346    1.3427 H   0  0  0  0  0  0  0  0  0  0  0  0
   -1.0691    0.8091   -1.8030 H   0  0  0  0  0  0  0  0  0  0  0  0
   -2.5030   -1.4322   -2.4178 H   0  0  0  0  0  0  0  0  0  0  0  0
   -3.9460   -1.5789   -1.4445 H   0  0  0  0  0  0  0  0  0  0  0  0
   -2.8097   -2.9240   -1.5307 H   0  0  0  0  0  0  0  0  0  0  0  0
   -2.1324   -1.6267    1.9231 H   0  0  0  0  0  0  0  0  0  0  0  0
    1.2839    2.5073    1.9511 H   0  0  0  0  0  0  0  0  0  0  0  0
   -0.0174    2.6530    3.2500 H   0  0  0  0  0  0  0  0  0  0  0  0
   -3.8277   -3.2731    1.9507 H   0  0  0  0  0  0  0  0  0  0  0  0
   -4.1153   -3.1924    0.1462 H   0  0  0  0  0  0  0  0  0  0  0  0
    0.0380   -4.8674   -1.1878 H   0  0  0  0  0  0  0  0  0  0  0  0
    0.4787   -2.7223    1.7549 H   0  0  0  0  0  0  0  0  0  0  0  0
    0.6475   -4.3680    0.9749 H   0  0  0  0  0  0  0  0  0  0  0  0
    5.1706    0.6540   -1.4784 H   0  0  0  0  0  0  0  0  0  0  0  0
    3.4423    0.6070   -1.8228 H   0  0  0  0  0  0  0  0  0  0  0  0
   -1.4316    5.1382   -0.9185 H   0  0  0  0  0  0  0  0  0  0  0  0
   -1.1706    5.2439   -2.6716 H   0  0  0  0  0  0  0  0  0  0  0  0
   -2.7335    4.6611   -2.0626 H   0  0  0  0  0  0  0  0  0  0  0  0
    5.2593   -1.8855   -0.8409 H   0  0  0  0  0  0  0  0  0  0  0  0
    3.5527   -1.9839   -1.3245 H   0  0  0  0  0  0  0  0  0  0  0  0
    4.0637   -2.5059    0.2905 H   0  0  0  0  0  0  0  0  0  0  0  0
    4.7827    0.7059    1.5233 H   0  0  0  0  0  0  0  0  0  0  0  0
    3.0878    2.3412   -0.0025 H   0  0  0  0  0  0  0  0  0  0  0  0
    4.1363    2.8834   -1.3148 H   0  0  0  0  0  0  0  0  0  0  0  0
    4.8481    2.4063    0.2254 H   0  0  0  0  0  0  0  0  0  0  0  0
  1 11  1  0  0  0  0
  1 19  1  0  0  0  0
  2 13  1  0  0  0  0
  2 22  1  0  0  0  0
  3 14  1  0  0  0  0
  3 25  1  0  0  0  0
  4 19  2  0  0  0  0
  5 22  2  0  0  0  0
  6 23  2  0  0  0  0
  7 26  1  0  0  0  0
  7 55  1  0  0  0  0
  8 25  2  0  0  0  0
  9 10  1  0  0  0  0
  9 11  1  0  0  0  0
  9 15  1  0  0  0  0
  9 17  1  0  0  0  0
 10 13  1  0  0  0  0
 10 18  1  0  0  0  0
 10 31  1  0  0  0  0
 11 14  1  0  0  0  0
 11 32  1  0  0  0  0
 12 13  1  0  0  0  0
 12 14  1  0  0  0  0
 12 16  1  0  0  0  0
 12 33  1  0  0  0  0
 13 34  1  0  0  0  0
 14 35  1  0  0  0  0
 15 36  1  0  0  0  0
 15 37  1  0  0  0  0
 15 38  1  0  0  0  0
 16 19  1  0  0  0  0
 16 20  2  0  0  0  0
 17 21  2  0  0  0  0
 17 39  1  0  0  0  0
 18 23  1  0  0  0  0
 18 24  2  0  0  0  0
 20 40  1  0  0  0  0
 20 41  1  0  0  0  0
 21 42  1  0  0  0  0
 21 43  1  0  0  0  0
 22 26  1  0  0  0  0
 23 44  1  0  0  0  0
 24 45  1  0  0  0  0
 24 46  1  0  0  0  0
 25 28  1  0  0  0  0
 26 27  1  0  0  0  0
 26 29  1  0  0  0  0
 27 30  1  0  0  0  0
 27 47  1  0  0  0  0
 27 48  1  0  0  0  0
 28 49  1  0  0  0  0
 28 50  1  0  0  0  0
 28 51  1  0  0  0  0
 29 52  1  0  0  0  0
 29 53  1  0  0  0  0
 29 54  1  0  0  0  0
 30 56  1  0  0  0  0
 30 57  1  0  0  0  0
 30 58  1  0  0  0  0
M  END
> <PUBCHEM_COMPOUND_CID>
102155282

> <PUBCHEM_CONFORMER_RMSD>
1

> <PUBCHEM_CONFORMER_DIVERSEORDER>
1
9
4
7
8
5
10
6
3
2

> <PUBCHEM_MMFF94_PARTIAL_CHARGES>
35
1 -0.43
10 0.14
11 0.28
12 0.14
13 0.28
14 0.28
16 -0.12
17 -0.29
18 -0.12
19 0.71
2 -0.43
20 -0.3
21 -0.3
22 0.66
23 0.5
24 -0.3
25 0.66
26 0.34
28 0.06
3 -0.43
39 0.15
4 -0.57
40 0.15
41 0.15
42 0.15
43 0.15
44 0.06
45 0.15
46 0.15
5 -0.57
55 0.4
6 -0.57
7 -0.68
8 -0.57
9 0.14

> <PUBCHEM_EFFECTIVE_ROTOR_COUNT>
10

> <PUBCHEM_PHARMACOPHORE_FEATURES>
11
1 21 hydrophobe
1 24 hydrophobe
1 30 hydrophobe
1 4 acceptor
1 5 acceptor
1 6 acceptor
1 7 acceptor
1 7 donor
1 8 acceptor
6 1 11 12 14 16 19 rings
6 9 10 11 12 13 14 rings

> <PUBCHEM_HEAVY_ATOM_COUNT>
30

> <PUBCHEM_ATOM_DEF_STEREO_COUNT>
6

> <PUBCHEM_ATOM_UDEF_STEREO_COUNT>
1

> <PUBCHEM_BOND_DEF_STEREO_COUNT>
0

> <PUBCHEM_BOND_UDEF_STEREO_COUNT>
0

> <PUBCHEM_ISOTOPIC_ATOM_COUNT>
0

> <PUBCHEM_COMPONENT_COUNT>
1

> <PUBCHEM_CACTVS_TAUTO_COUNT>
2

> <PUBCHEM_CONFORMER_ID>
0616C41200000001

> <PUBCHEM_MMFF94_ENERGY>
91.2324

> <PUBCHEM_FEATURE_SELFOVERLAP>
56.949

> <PUBCHEM_SHAPE_FINGERPRINT>
10165383 225 17693416293569306132
11578080 2 18268690836067661760
11582403 64 16374361850554973301
12160290 23 18342725347716895698
12173636 292 17917437458512447224
12403814 3 18260274022774218441
12553582 1 18048309239569638406
12788726 201 17970042518622554121
13140716 1 18411147930358294043
133893 2 17335054555923910226
13761468 95 18195831591237565444
14142880 1 18411705370185309017
14468879 13 17753331958973971260
16752209 62 18339905083106084530
16945 1 18115579353615934627
1813 80 17900809767171353257
20600515 1 18266750266462530510
22907989 373 18409720751396681804
23419403 2 16256662807092785551
23559900 14 17988918926397048842
238 59 17403161604614784485
2818148 4 16970569183037491275
35225 105 18342449318858411022
469060 322 18187939424762324898
81228 2 18267857470725133402

> <PUBCHEM_SHAPE_MULTIPOLES>
570.43
6.34
5.16
2.4
8.71
1.59
0.4
-1.94
0.72
-2.92
-3.36
-1.19
1.59
-0.15

> <PUBCHEM_SHAPE_SELFOVERLAP>
1193.048

> <PUBCHEM_SHAPE_VOLUME>
318.3

> <PUBCHEM_COORDINATE_TYPE>
2
5
10

$$$$
