102120240
  -OEChem-03292013293D

 58 60  0     1  0  0  0  0  0999 V2000
    3.8396   -0.1180    0.4072 O   0  0  0  0  0  0  0  0  0  0  0  0
    4.9829   -2.1535    0.5798 O   0  0  0  0  0  0  0  0  0  0  0  0
   -5.6382    1.7488   -1.3684 O   0  0  0  0  0  0  0  0  0  0  0  0
   -6.8612   -0.0709    0.8874 O   0  0  0  0  0  0  0  0  0  0  0  0
   -2.6982    2.6794   -0.3176 O   0  0  0  0  0  0  0  0  0  0  0  0
   -6.3276   -2.8701    1.1836 O   0  0  0  0  0  0  0  0  0  0  0  0
   -3.6107   -0.9158   -0.3696 N   0  0  0  0  0  0  0  0  0  0  0  0
   -3.6559    0.5143   -0.7131 C   0  0  1  0  0  0  0  0  0  0  0  0
    5.0753   -0.7861    0.1159 C   0  0  2  0  0  0  0  0  0  0  0  0
   -5.0518    1.0027   -0.3131 C   0  0  2  0  0  0  0  0  0  0  0  0
   -4.7642   -1.2045    0.4847 C   0  0  1  0  0  0  0  0  0  0  0  0
   -5.8347   -0.2785   -0.0676 C   0  0  1  0  0  0  0  0  0  0  0  0
    3.8245    1.2885    0.1473 C   0  0  2  0  0  0  0  0  0  0  0  0
   -2.5530    1.2966   -0.0062 C   0  0  1  0  0  0  0  0  0  0  0  0
    6.2322   -0.1222    0.8660 C   0  0  0  0  0  0  0  0  0  0  0  0
    4.9335    2.0033    0.9189 C   0  0  0  0  0  0  0  0  0  0  0  0
    5.3083   -0.9176   -1.3902 C   0  0  0  0  0  0  0  0  0  0  0  0
    6.2882    1.3773    0.6141 C   0  0  0  0  0  0  0  0  0  0  0  0
    2.4535    1.8133    0.5562 C   0  0  0  0  0  0  0  0  0  0  0  0
   -1.1659    0.8240   -0.4513 C   0  0  0  0  0  0  0  0  0  0  0  0
    1.3345    1.0799   -0.1802 C   0  0  0  0  0  0  0  0  0  0  0  0
   -0.0412    1.5870    0.2572 C   0  0  0  0  0  0  0  0  0  0  0  0
    4.4378   -2.1045   -1.7296 C   0  0  0  0  0  0  0  0  0  0  0  0
    4.6444   -3.0003   -0.5281 C   0  0  0  0  0  0  0  0  0  0  0  0
   -5.1520   -2.6732    0.4166 C   0  0  0  0  0  0  0  0  0  0  0  0
   -3.5221    0.6136   -1.7980 H   0  0  0  0  0  0  0  0  0  0  0  0
   -5.0403    1.6363    0.5813 H   0  0  0  0  0  0  0  0  0  0  0  0
   -4.5456   -0.9415    1.5290 H   0  0  0  0  0  0  0  0  0  0  0  0
   -6.2932   -0.6605   -0.9876 H   0  0  0  0  0  0  0  0  0  0  0  0
    3.9525    1.4602   -0.9271 H   0  0  0  0  0  0  0  0  0  0  0  0
   -2.6457    1.1968    1.0821 H   0  0  0  0  0  0  0  0  0  0  0  0
    7.1876   -0.5929    0.6054 H   0  0  0  0  0  0  0  0  0  0  0  0
    6.1007   -0.2912    1.9434 H   0  0  0  0  0  0  0  0  0  0  0  0
   -2.7541   -1.1862    0.1058 H   0  0  0  0  0  0  0  0  0  0  0  0
    4.7486    1.9194    1.9975 H   0  0  0  0  0  0  0  0  0  0  0  0
    4.9484    3.0706    0.6714 H   0  0  0  0  0  0  0  0  0  0  0  0
    6.3542   -1.1732   -1.6011 H   0  0  0  0  0  0  0  0  0  0  0  0
    5.0440   -0.0393   -1.9817 H   0  0  0  0  0  0  0  0  0  0  0  0
    6.5628    1.5729   -0.4292 H   0  0  0  0  0  0  0  0  0  0  0  0
    7.0612    1.8342    1.2418 H   0  0  0  0  0  0  0  0  0  0  0  0
    2.3897    2.8899    0.3581 H   0  0  0  0  0  0  0  0  0  0  0  0
    2.3114    1.6689    1.6350 H   0  0  0  0  0  0  0  0  0  0  0  0
   -1.0558    0.9770   -1.5328 H   0  0  0  0  0  0  0  0  0  0  0  0
   -1.0252   -0.2443   -0.2600 H   0  0  0  0  0  0  0  0  0  0  0  0
    1.4513    1.2192   -1.2619 H   0  0  0  0  0  0  0  0  0  0  0  0
    1.3916    0.0024    0.0143 H   0  0  0  0  0  0  0  0  0  0  0  0
   -0.1177    2.6588    0.0397 H   0  0  0  0  0  0  0  0  0  0  0  0
   -0.1487    1.4675    1.3423 H   0  0  0  0  0  0  0  0  0  0  0  0
    3.3878   -1.7949   -1.7927 H   0  0  0  0  0  0  0  0  0  0  0  0
    4.7050   -2.5899   -2.6720 H   0  0  0  0  0  0  0  0  0  0  0  0
    3.7527   -3.5851   -0.2851 H   0  0  0  0  0  0  0  0  0  0  0  0
    5.4805   -3.6895   -0.6857 H   0  0  0  0  0  0  0  0  0  0  0  0
   -4.3562   -3.3055    0.8245 H   0  0  0  0  0  0  0  0  0  0  0  0
   -5.3542   -2.9886   -0.6131 H   0  0  0  0  0  0  0  0  0  0  0  0
   -5.6748    1.1846   -2.1594 H   0  0  0  0  0  0  0  0  0  0  0  0
   -6.4577    0.2640    1.7061 H   0  0  0  0  0  0  0  0  0  0  0  0
   -2.6093    2.7812   -1.2807 H   0  0  0  0  0  0  0  0  0  0  0  0
   -6.5518   -3.8146    1.1269 H   0  0  0  0  0  0  0  0  0  0  0  0
  1  9  1  0  0  0  0
  1 13  1  0  0  0  0
  2  9  1  0  0  0  0
  2 24  1  0  0  0  0
  3 10  1  0  0  0  0
  3 55  1  0  0  0  0
  4 12  1  0  0  0  0
  4 56  1  0  0  0  0
  5 14  1  0  0  0  0
  5 57  1  0  0  0  0
  6 25  1  0  0  0  0
  6 58  1  0  0  0  0
  7  8  1  0  0  0  0
  7 11  1  0  0  0  0
  7 34  1  0  0  0  0
  8 10  1  0  0  0  0
  8 14  1  0  0  0  0
  8 26  1  0  0  0  0
  9 15  1  0  0  0  0
  9 17  1  0  0  0  0
 10 12  1  0  0  0  0
 10 27  1  0  0  0  0
 11 12  1  0  0  0  0
 11 25  1  0  0  0  0
 11 28  1  0  0  0  0
 12 29  1  0  0  0  0
 13 16  1  0  0  0  0
 13 19  1  0  0  0  0
 13 30  1  0  0  0  0
 14 20  1  0  0  0  0
 14 31  1  0  0  0  0
 15 18  1  0  0  0  0
 15 32  1  0  0  0  0
 15 33  1  0  0  0  0
 16 18  1  0  0  0  0
 16 35  1  0  0  0  0
 16 36  1  0  0  0  0
 17 23  1  0  0  0  0
 17 37  1  0  0  0  0
 17 38  1  0  0  0  0
 18 39  1  0  0  0  0
 18 40  1  0  0  0  0
 19 21  1  0  0  0  0
 19 41  1  0  0  0  0
 19 42  1  0  0  0  0
 20 22  1  0  0  0  0
 20 43  1  0  0  0  0
 20 44  1  0  0  0  0
 21 22  1  0  0  0  0
 21 45  1  0  0  0  0
 21 46  1  0  0  0  0
 22 47  1  0  0  0  0
 22 48  1  0  0  0  0
 23 24  1  0  0  0  0
 23 49  1  0  0  0  0
 23 50  1  0  0  0  0
 24 51  1  0  0  0  0
 24 52  1  0  0  0  0
 25 53  1  0  0  0  0
 25 54  1  0  0  0  0
M  END
> <PUBCHEM_COMPOUND_CID>
102120240

> <PUBCHEM_CONFORMER_RMSD>
1.2

> <PUBCHEM_CONFORMER_DIVERSEORDER>
1
68
168
104
31
90
53
163
167
42
134
71
64
189
238
50
202
139
197
7
25
29
232
209
19
94
127
170
217
227
72
40
86
177
103
149
171
211
47
60
194
212
210
169
46
156
162
62
109
75
10
98
33
44
112
34
151
30
180
48
122
191
124
140
110
161
100
84
9
240
222
52
132
117
80
152
143
205
70
229
99
96
218
200
43
66
186
174
74
4
147
36
157
61
83
224
172
8
69
195
148
234
88
125
120
158
23
207
87
213
18
113
214
116
185
59
164
108
51
129
91
150
56
175
118
67
196
89
21
135
63
226
93
3
32
126
76
119
241
208
235
220
78
239
225
193
198
81
201
5
160
221
107
219
138
65
26
137
115
35
77
173
92
102
123
176
73
178
15
216
136
183
155
181
153
105
142
190
179
13
146
128
12
141
11
182
233
215
20
199
54
121
188
17
145
184
144
192
130
231
79
203
55
154
16
228
2
22
57
187
133
28
159
24
236
27
101
237
6
114
165
97
82
49
14
41
95
242
85
45
111
37
230
206
39
223
38
106
204
166
58
131

> <PUBCHEM_MMFF94_PARTIAL_CHARGES>
21
1 -0.56
10 0.28
11 0.27
12 0.28
13 0.28
14 0.28
2 -0.56
24 0.28
25 0.28
3 -0.68
34 0.36
4 -0.68
5 -0.68
55 0.4
56 0.4
57 0.4
58 0.4
6 -0.68
7 -0.9
8 0.27
9 0.56

> <PUBCHEM_EFFECTIVE_ROTOR_COUNT>
9.8

> <PUBCHEM_PHARMACOPHORE_FEATURES>
16
1 1 acceptor
1 2 acceptor
1 3 acceptor
1 3 donor
1 4 acceptor
1 4 donor
1 5 acceptor
1 5 donor
1 6 acceptor
1 6 donor
1 7 cation
1 7 donor
4 19 20 21 22 hydrophobe
5 2 9 17 23 24 rings
5 7 8 10 11 12 rings
6 1 9 13 15 16 18 rings

> <PUBCHEM_HEAVY_ATOM_COUNT>
25

> <PUBCHEM_ATOM_DEF_STEREO_COUNT>
5

> <PUBCHEM_ATOM_UDEF_STEREO_COUNT>
2

> <PUBCHEM_BOND_DEF_STEREO_COUNT>
0

> <PUBCHEM_BOND_UDEF_STEREO_COUNT>
0

> <PUBCHEM_ISOTOPIC_ATOM_COUNT>
0

> <PUBCHEM_COMPONENT_COUNT>
1

> <PUBCHEM_CACTVS_TAUTO_COUNT>
1

> <PUBCHEM_CONFORMER_ID>
06163B3000000001

> <PUBCHEM_MMFF94_ENERGY>
48.2341

> <PUBCHEM_FEATURE_SELFOVERLAP>
81.256

> <PUBCHEM_SHAPE_FINGERPRINT>
10669705 251 18192159415178995339
10864689 126 18267026042002445359
11796584 16 18334849494155062809
12730499 353 18272930557936992920
13073987 5 18130787820106017304
13533116 47 17846777391224825000
13685833 64 18409449189141173360
14211702 104 18336271218730028339
14251751 18 18408044017670632655
14341114 176 18342458136099526764
14461889 52 18338790213271019872
14528608 73 11169919385466133688
15152005 304 17610919159350892155
15183329 4 18409166588840579961
15352257 5 18410293622824763619
15419008 42 18122612864800009117
15537594 2 17489862757105967988
16990366 60 18125159326396433350
17492 89 17986111812833452212
17844677 252 18341052921964578304
17857418 61 18271801307101019596
1979834 28 17203324456488011950
20645477 70 18271240531171300092
21197605 99 18341049743973615850
21279426 13 18409164381496518919
21315759 148 18410291440833684321
21623969 137 18272370893037375966
220451 1 17560797762134793788
2303208 19 18334861614816399105
23424784 1240 18342464724927693910
23559900 14 18410001148722118785
239999 70 18409444787643544880
25122255 55 18409173207696419259
3004659 81 18408040685430196964
3089732 80 18411423894781655246
312425 54 18343029873914472401
314194 84 17917701422817970412
3178227 256 18059847399455656328
33382 64 18344146990623815520
394071 54 16702297988572955920
4073 2 18408603664873513048
439807 62 18335141938879238826
465052 167 18202283564075977116
5104073 3 18059292059324492456
59755656 215 18262513693963763037
8863177 126 18411984667450239158

> <PUBCHEM_SHAPE_MULTIPOLES>
474.29
21.33
3.15
1.12
9.82
1.75
-0.23
7.52
2.71
-0.48
0.08
-0.32
0.34
3.44

> <PUBCHEM_SHAPE_SELFOVERLAP>
966.884

> <PUBCHEM_SHAPE_VOLUME>
276.2

> <PUBCHEM_COORDINATE_TYPE>
2
5
10

$$$$
