102117103
  -OEChem-03292013293D

 57 59  0     1  0  0  0  0  0999 V2000
    3.5440   -1.6009   -0.7700 O   0  0  0  0  0  0  0  0  0  0  0  0
   -2.7804   -0.2639    0.2070 O   0  0  0  0  0  0  0  0  0  0  0  0
    4.2403    1.3883    0.8931 O   0  0  0  0  0  0  0  0  0  0  0  0
    0.0376    3.4503    0.1250 O   0  0  0  0  0  0  0  0  0  0  0  0
    5.6152   -0.6773   -0.4614 O   0  0  0  0  0  0  0  0  0  0  0  0
    5.2731   -0.6429    2.5063 O   0  0  0  0  0  0  0  0  0  0  0  0
   -4.5972    0.3614   -1.0698 O   0  0  0  0  0  0  0  0  0  0  0  0
    0.3659    1.2850   -0.9643 C   0  0  2  0  0  0  0  0  0  0  0  0
   -0.4825    0.0489   -0.5572 C   0  0  2  0  0  0  0  0  0  0  0  0
    2.2556    0.0358    0.3605 C   0  0  1  0  0  0  0  0  0  0  0  0
    1.8620    1.2173   -0.5547 C   0  0  0  0  0  0  0  0  0  0  0  0
   -0.2047   -1.2274   -1.3748 C   0  0  1  0  0  0  0  0  0  0  0  0
    2.1920   -1.3389   -0.3268 C   0  0  1  0  0  0  0  0  0  0  0  0
   -1.9346    0.5622   -0.5766 C   0  0  2  0  0  0  0  0  0  0  0  0
    1.3008   -1.4948   -1.5632 C   0  0  0  0  0  0  0  0  0  0  0  0
   -0.4117    2.3585   -0.2031 C   0  0  0  0  0  0  0  0  0  0  0  0
    3.7108    0.0815    0.8503 C   0  0  1  0  0  0  0  0  0  0  0  0
   -1.8422    1.9499    0.0598 C   0  0  0  0  0  0  0  0  0  0  0  0
    0.2479    1.6836   -2.4499 C   0  0  0  0  0  0  0  0  0  0  0  0
   -0.8713   -2.4618   -0.7530 C   0  0  0  0  0  0  0  0  0  0  0  0
    4.4268   -0.7404   -0.1875 C   0  0  0  0  0  0  0  0  0  0  0  0
    3.8894   -0.5761    2.2198 C   0  0  0  0  0  0  0  0  0  0  0  0
   -4.1048   -0.2754   -0.1473 C   0  0  0  0  0  0  0  0  0  0  0  0
   -4.8880   -1.1750    0.7938 C   0  0  1  0  0  0  0  0  0  0  0  0
   -5.9577   -0.3876    1.5641 C   0  0  0  0  0  0  0  0  0  0  0  0
   -5.5224   -2.2938   -0.0277 C   0  0  0  0  0  0  0  0  0  0  0  0
   -5.3640    0.7335    2.4077 C   0  0  0  0  0  0  0  0  0  0  0  0
   -0.2939   -0.2022    0.4958 H   0  0  0  0  0  0  0  0  0  0  0  0
    1.5957    0.0639    1.2352 H   0  0  0  0  0  0  0  0  0  0  0  0
    2.1295    2.1555   -0.0551 H   0  0  0  0  0  0  0  0  0  0  0  0
    2.4941    1.1815   -1.4523 H   0  0  0  0  0  0  0  0  0  0  0  0
   -0.6381   -1.1081   -2.3767 H   0  0  0  0  0  0  0  0  0  0  0  0
    1.9426   -2.1173    0.4043 H   0  0  0  0  0  0  0  0  0  0  0  0
   -2.2871    0.6233   -1.6138 H   0  0  0  0  0  0  0  0  0  0  0  0
    1.4437   -2.5074   -1.9665 H   0  0  0  0  0  0  0  0  0  0  0  0
    1.6928   -0.8575   -2.3647 H   0  0  0  0  0  0  0  0  0  0  0  0
   -2.0225    1.9238    1.1387 H   0  0  0  0  0  0  0  0  0  0  0  0
   -2.5329    2.6493   -0.4182 H   0  0  0  0  0  0  0  0  0  0  0  0
    0.6621    0.9236   -3.1171 H   0  0  0  0  0  0  0  0  0  0  0  0
    0.7918    2.6173   -2.6395 H   0  0  0  0  0  0  0  0  0  0  0  0
   -0.7876    1.8631   -2.7578 H   0  0  0  0  0  0  0  0  0  0  0  0
   -0.5782   -2.5927    0.2937 H   0  0  0  0  0  0  0  0  0  0  0  0
   -1.9611   -2.3915   -0.7992 H   0  0  0  0  0  0  0  0  0  0  0  0
   -0.5941   -3.3717   -1.2966 H   0  0  0  0  0  0  0  0  0  0  0  0
    3.4771   -1.5893    2.2654 H   0  0  0  0  0  0  0  0  0  0  0  0
    3.4196    0.0258    3.0044 H   0  0  0  0  0  0  0  0  0  0  0  0
    3.7598    1.8848    1.5775 H   0  0  0  0  0  0  0  0  0  0  0  0
    5.6638   -1.3368    1.9488 H   0  0  0  0  0  0  0  0  0  0  0  0
   -4.1936   -1.6283    1.5126 H   0  0  0  0  0  0  0  0  0  0  0  0
   -6.6850    0.0466    0.8670 H   0  0  0  0  0  0  0  0  0  0  0  0
   -6.5106   -1.0702    2.2205 H   0  0  0  0  0  0  0  0  0  0  0  0
   -6.2401   -1.9003   -0.7562 H   0  0  0  0  0  0  0  0  0  0  0  0
   -4.7589   -2.8483   -0.5845 H   0  0  0  0  0  0  0  0  0  0  0  0
   -6.0495   -3.0016    0.6203 H   0  0  0  0  0  0  0  0  0  0  0  0
   -4.6176    0.3441    3.1074 H   0  0  0  0  0  0  0  0  0  0  0  0
   -6.1518    1.2218    2.9901 H   0  0  0  0  0  0  0  0  0  0  0  0
   -4.8888    1.4979    1.7855 H   0  0  0  0  0  0  0  0  0  0  0  0
  1 13  1  0  0  0  0
  1 21  1  0  0  0  0
  2 14  1  0  0  0  0
  2 23  1  0  0  0  0
  3 17  1  0  0  0  0
  3 47  1  0  0  0  0
  4 16  2  0  0  0  0
  5 21  2  0  0  0  0
  6 22  1  0  0  0  0
  6 48  1  0  0  0  0
  7 23  2  0  0  0  0
  8  9  1  0  0  0  0
  8 11  1  0  0  0  0
  8 16  1  0  0  0  0
  8 19  1  0  0  0  0
  9 12  1  0  0  0  0
  9 14  1  0  0  0  0
  9 28  1  0  0  0  0
 10 11  1  0  0  0  0
 10 13  1  0  0  0  0
 10 17  1  0  0  0  0
 10 29  1  0  0  0  0
 11 30  1  0  0  0  0
 11 31  1  0  0  0  0
 12 15  1  0  0  0  0
 12 20  1  0  0  0  0
 12 32  1  0  0  0  0
 13 15  1  0  0  0  0
 13 33  1  0  0  0  0
 14 18  1  0  0  0  0
 14 34  1  0  0  0  0
 15 35  1  0  0  0  0
 15 36  1  0  0  0  0
 16 18  1  0  0  0  0
 17 21  1  0  0  0  0
 17 22  1  0  0  0  0
 18 37  1  0  0  0  0
 18 38  1  0  0  0  0
 19 39  1  0  0  0  0
 19 40  1  0  0  0  0
 19 41  1  0  0  0  0
 20 42  1  0  0  0  0
 20 43  1  0  0  0  0
 20 44  1  0  0  0  0
 22 45  1  0  0  0  0
 22 46  1  0  0  0  0
 23 24  1  0  0  0  0
 24 25  1  0  0  0  0
 24 26  1  0  0  0  0
 24 49  1  0  0  0  0
 25 27  1  0  0  0  0
 25 50  1  0  0  0  0
 25 51  1  0  0  0  0
 26 52  1  0  0  0  0
 26 53  1  0  0  0  0
 26 54  1  0  0  0  0
 27 55  1  0  0  0  0
 27 56  1  0  0  0  0
 27 57  1  0  0  0  0
M  END
> <PUBCHEM_COMPOUND_CID>
102117103

> <PUBCHEM_CONFORMER_RMSD>
0.8

> <PUBCHEM_CONFORMER_DIVERSEORDER>
1
24
13
28
25
3
20
26
15
19
17
9
4
18
11
6
12
5
22
23
21
10
27
8
14
16
7
2

> <PUBCHEM_MMFF94_PARTIAL_CHARGES>
19
1 -0.43
13 0.28
14 0.28
16 0.45
17 0.34
18 0.06
2 -0.43
21 0.66
22 0.28
23 0.66
24 0.06
3 -0.68
4 -0.57
47 0.4
48 0.4
5 -0.57
6 -0.68
7 -0.57
8 0.06

> <PUBCHEM_EFFECTIVE_ROTOR_COUNT>
6.4

> <PUBCHEM_PHARMACOPHORE_FEATURES>
12
1 26 hydrophobe
1 27 hydrophobe
1 3 acceptor
1 3 donor
1 4 acceptor
1 5 acceptor
1 6 acceptor
1 6 donor
1 7 acceptor
5 1 10 13 17 21 rings
5 8 9 14 16 18 rings
7 8 9 10 11 12 13 15 rings

> <PUBCHEM_HEAVY_ATOM_COUNT>
27

> <PUBCHEM_ATOM_DEF_STEREO_COUNT>
8

> <PUBCHEM_ATOM_UDEF_STEREO_COUNT>
0

> <PUBCHEM_BOND_DEF_STEREO_COUNT>
0

> <PUBCHEM_BOND_UDEF_STEREO_COUNT>
0

> <PUBCHEM_ISOTOPIC_ATOM_COUNT>
0

> <PUBCHEM_COMPONENT_COUNT>
1

> <PUBCHEM_CACTVS_TAUTO_COUNT>
4

> <PUBCHEM_CONFORMER_ID>
06162EEF00000001

> <PUBCHEM_MMFF94_ENERGY>
77.5798

> <PUBCHEM_FEATURE_SELFOVERLAP>
60.98

> <PUBCHEM_SHAPE_FINGERPRINT>
10076449 9 18059306370820160822
10165383 225 17704077309200502030
10693767 8 12252174229889552545
11763715 3 16662065621066696524
11796584 16 16950570978162823571
11961588 58 10735583662110424869
12035759 4 10809603923285622375
12236239 1 17022904523738652062
12422481 6 18272376334745115711
12553582 1 18340475738488862836
12623949 98 17560254538845136942
12633257 1 17988060297281711648
12788726 201 18259985938074701120
12892183 10 17489588943939242113
12895836 83 11959432553117719458
12895837 130 13181016411812456634
13140716 1 17983012550930831613
13544653 18 18334576837030904493
13583140 156 17752173168829658868
13782708 43 17987802900124524782
14178342 30 18129117636379148457
14251751 18 16733274551004997371
14787075 74 18113621222032825238
14790565 3 17546170065640022700
14863182 85 18342192062780672735
14955137 171 18341621459316348461
15163728 17 13901638505408735121
15183329 4 12540684930061392163
15209294 21 17275390889367817129
15475509 35 17313388980373570195
15788980 27 17894914044796237631
16945 1 18269534088940050964
17349148 13 18334584555250626711
17980427 23 16558746841404083445
1813 80 17967255303584899109
18222031 100 18186519912337836638
1979834 28 17988659492643926959
200 152 15574713552263918860
20028762 73 18200593730468859943
20261772 1 18272085028277171334
20567600 247 15719401671997711227
20739085 24 18340220664534390629
20775438 99 12542125410183793561
21033648 29 17988630870575340465
21521239 73 12324248312549165409
21637258 2 16515670152832491490
21756936 100 14476376280268574954
22122407 14 15482398577640157387
22182313 1 18198908007106429773
23559900 14 18123470467001086622
23845131 108 17262734174608474209
2838139 119 14117519801098419675
392239 28 18411414012198849659
439807 62 15792308102314188595
46194498 28 12974470897434037827
465052 167 18113622287300856658
474 4 13326859937239583581
5104073 3 18127969707431778554
57724786 102 15769478929359140688
7064713 232 17988929985341678247

> <PUBCHEM_SHAPE_MULTIPOLES>
514.56
12.28
2.51
1.95
7.14
1.01
-0.77
-5.24
-8.03
0.68
0.63
-0.48
0.04
-0.3

> <PUBCHEM_SHAPE_SELFOVERLAP>
1080.86

> <PUBCHEM_SHAPE_VOLUME>
290.8

> <PUBCHEM_COORDINATE_TYPE>
2
5
10

$$$$
