102155281
  -OEChem-03292013293D

 59 61  0     1  0  0  0  0  0999 V2000
   -4.1741    1.6486   -0.7983 O   0  0  0  0  0  0  0  0  0  0  0  0
   -2.5156   -1.2307   -1.0978 O   0  0  0  0  0  0  0  0  0  0  0  0
    1.6667    0.6960    0.2230 O   0  0  0  0  0  0  0  0  0  0  0  0
   -1.1997   -2.8943    0.8831 O   0  0  0  0  0  0  0  0  0  0  0  0
   -1.8735   -1.8909   -3.1531 O   0  0  0  0  0  0  0  0  0  0  0  0
   -1.0792    3.2056    2.6437 O   0  0  0  0  0  0  0  0  0  0  0  0
    2.4878    0.3241   -1.8965 O   0  0  0  0  0  0  0  0  0  0  0  0
    0.2896   -3.0169    2.6449 O   0  0  0  0  0  0  0  0  0  0  0  0
    4.9522    0.9514   -1.1661 O   0  0  0  0  0  0  0  0  0  0  0  0
   -2.1544    0.7736    0.3649 C   0  0  2  0  0  0  0  0  0  0  0  0
   -0.6616    1.2198    0.5965 C   0  0  1  0  0  0  0  0  0  0  0  0
   -2.2640   -0.7943    0.2747 C   0  0  2  0  0  0  0  0  0  0  0  0
   -2.7608    1.4342   -0.8713 C   0  0  2  0  0  0  0  0  0  0  0  0
    0.3430    0.3977   -0.2397 C   0  0  2  0  0  0  0  0  0  0  0  0
    0.1320   -1.1342   -0.1227 C   0  0  1  0  0  0  0  0  0  0  0  0
   -1.0190   -1.4818    0.8182 C   0  0  2  0  0  0  0  0  0  0  0  0
   -3.3419    2.8191   -0.8084 C   0  0  0  0  0  0  0  0  0  0  0  0
   -2.9834    1.2294    1.5951 C   0  0  0  0  0  0  0  0  0  0  0  0
   -0.1853   -1.6905   -1.4864 C   0  0  0  0  0  0  0  0  0  0  0  0
   -0.4302    2.6969    0.4089 C   0  0  0  0  0  0  0  0  0  0  0  0
   -1.5735   -1.6134   -1.9971 C   0  0  0  0  0  0  0  0  0  0  0  0
    0.7362   -2.2894   -2.2556 C   0  0  0  0  0  0  0  0  0  0  0  0
   -0.6871    3.6044    1.5533 C   0  0  0  0  0  0  0  0  0  0  0  0
   -0.0043    3.2547   -0.7310 C   0  0  0  0  0  0  0  0  0  0  0  0
    2.6524    0.6204   -0.7192 C   0  0  0  0  0  0  0  0  0  0  0  0
   -0.4799   -3.5376    1.8487 C   0  0  0  0  0  0  0  0  0  0  0  0
    4.0059    0.9575   -0.0988 C   0  0  1  0  0  0  0  0  0  0  0  0
   -0.7682   -5.0074    1.7988 C   0  0  0  0  0  0  0  0  0  0  0  0
    4.3964   -0.1080    0.9408 C   0  0  0  0  0  0  0  0  0  0  0  0
    3.9776    2.3746    0.4704 C   0  0  0  0  0  0  0  0  0  0  0  0
    4.5160   -1.5188    0.3769 C   0  0  0  0  0  0  0  0  0  0  0  0
   -0.3951    1.0109    1.6438 H   0  0  0  0  0  0  0  0  0  0  0  0
   -3.1397   -1.1525    0.8286 H   0  0  0  0  0  0  0  0  0  0  0  0
   -2.3184    1.1395   -1.8130 H   0  0  0  0  0  0  0  0  0  0  0  0
    0.2434    0.6849   -1.2930 H   0  0  0  0  0  0  0  0  0  0  0  0
    1.0431   -1.6195    0.2515 H   0  0  0  0  0  0  0  0  0  0  0  0
   -0.8304   -1.1054    1.8311 H   0  0  0  0  0  0  0  0  0  0  0  0
   -3.3202    3.4303    0.0798 H   0  0  0  0  0  0  0  0  0  0  0  0
   -3.3339    3.4072   -1.7199 H   0  0  0  0  0  0  0  0  0  0  0  0
   -4.0119    0.8498    1.5433 H   0  0  0  0  0  0  0  0  0  0  0  0
   -3.0646    2.3051    1.7378 H   0  0  0  0  0  0  0  0  0  0  0  0
   -2.5567    0.8130    2.5162 H   0  0  0  0  0  0  0  0  0  0  0  0
    1.7629   -2.3900   -1.9186 H   0  0  0  0  0  0  0  0  0  0  0  0
    0.5045   -2.7029   -3.2313 H   0  0  0  0  0  0  0  0  0  0  0  0
   -0.5053    4.6770    1.3706 H   0  0  0  0  0  0  0  0  0  0  0  0
    0.1907    2.6982   -1.6383 H   0  0  0  0  0  0  0  0  0  0  0  0
    0.1481    4.3276   -0.8086 H   0  0  0  0  0  0  0  0  0  0  0  0
   -0.1877   -5.5175    2.5728 H   0  0  0  0  0  0  0  0  0  0  0  0
   -0.4779   -5.4085    0.8245 H   0  0  0  0  0  0  0  0  0  0  0  0
   -1.8303   -5.1832    1.9871 H   0  0  0  0  0  0  0  0  0  0  0  0
    5.3686    0.1570    1.3752 H   0  0  0  0  0  0  0  0  0  0  0  0
    3.6709   -0.1173    1.7634 H   0  0  0  0  0  0  0  0  0  0  0  0
    4.9778    2.6815    0.7961 H   0  0  0  0  0  0  0  0  0  0  0  0
    3.2957    2.4597    1.3229 H   0  0  0  0  0  0  0  0  0  0  0  0
    3.6587    3.0957   -0.2914 H   0  0  0  0  0  0  0  0  0  0  0  0
    4.9109    0.0917   -1.6168 H   0  0  0  0  0  0  0  0  0  0  0  0
    3.5830   -1.8535   -0.0845 H   0  0  0  0  0  0  0  0  0  0  0  0
    4.7542   -2.2194    1.1843 H   0  0  0  0  0  0  0  0  0  0  0  0
    5.3180   -1.5923   -0.3634 H   0  0  0  0  0  0  0  0  0  0  0  0
  1 13  1  0  0  0  0
  1 17  1  0  0  0  0
  2 12  1  0  0  0  0
  2 21  1  0  0  0  0
  3 14  1  0  0  0  0
  3 25  1  0  0  0  0
  4 16  1  0  0  0  0
  4 26  1  0  0  0  0
  5 21  2  0  0  0  0
  6 23  2  0  0  0  0
  7 25  2  0  0  0  0
  8 26  2  0  0  0  0
  9 27  1  0  0  0  0
  9 56  1  0  0  0  0
 10 11  1  0  0  0  0
 10 12  1  0  0  0  0
 10 13  1  0  0  0  0
 10 18  1  0  0  0  0
 11 14  1  0  0  0  0
 11 20  1  0  0  0  0
 11 32  1  0  0  0  0
 12 16  1  0  0  0  0
 12 33  1  0  0  0  0
 13 17  1  0  0  0  0
 13 34  1  0  0  0  0
 14 15  1  0  0  0  0
 14 35  1  0  0  0  0
 15 16  1  0  0  0  0
 15 19  1  0  0  0  0
 15 36  1  0  0  0  0
 16 37  1  0  0  0  0
 17 38  1  0  0  0  0
 17 39  1  0  0  0  0
 18 40  1  0  0  0  0
 18 41  1  0  0  0  0
 18 42  1  0  0  0  0
 19 21  1  0  0  0  0
 19 22  2  0  0  0  0
 20 23  1  0  0  0  0
 20 24  2  0  0  0  0
 22 43  1  0  0  0  0
 22 44  1  0  0  0  0
 23 45  1  0  0  0  0
 24 46  1  0  0  0  0
 24 47  1  0  0  0  0
 25 27  1  0  0  0  0
 26 28  1  0  0  0  0
 27 29  1  0  0  0  0
 27 30  1  0  0  0  0
 28 48  1  0  0  0  0
 28 49  1  0  0  0  0
 28 50  1  0  0  0  0
 29 31  1  0  0  0  0
 29 51  1  0  0  0  0
 29 52  1  0  0  0  0
 30 53  1  0  0  0  0
 30 54  1  0  0  0  0
 30 55  1  0  0  0  0
 31 57  1  0  0  0  0
 31 58  1  0  0  0  0
 31 59  1  0  0  0  0
M  END
> <PUBCHEM_COMPOUND_CID>
102155281

> <PUBCHEM_CONFORMER_RMSD>
1

> <PUBCHEM_CONFORMER_DIVERSEORDER>
1
18
9
17
11
13
16
8
5
7
15
10
14
2
6
12
3
4

> <PUBCHEM_MMFF94_PARTIAL_CHARGES>
36
1 -0.3
10 0.09
11 0.14
12 0.28
13 -0.05
14 0.28
15 0.14
16 0.28
17 -0.05
19 -0.12
2 -0.43
20 -0.12
21 0.71
22 -0.3
23 0.5
24 -0.3
25 0.66
26 0.66
27 0.34
28 0.06
3 -0.43
34 0.1
38 0.1
39 0.1
4 -0.43
43 0.15
44 0.15
45 0.06
46 0.15
47 0.15
5 -0.57
56 0.4
6 -0.57
7 -0.57
8 -0.57
9 -0.68

> <PUBCHEM_EFFECTIVE_ROTOR_COUNT>
10.6

> <PUBCHEM_PHARMACOPHORE_FEATURES>
11
1 1 acceptor
1 24 hydrophobe
1 31 hydrophobe
1 5 acceptor
1 6 acceptor
1 7 acceptor
1 8 acceptor
1 9 acceptor
1 9 donor
6 10 11 12 14 15 16 rings
6 2 12 15 16 19 21 rings

> <PUBCHEM_HEAVY_ATOM_COUNT>
31

> <PUBCHEM_ATOM_DEF_STEREO_COUNT>
7

> <PUBCHEM_ATOM_UDEF_STEREO_COUNT>
1

> <PUBCHEM_BOND_DEF_STEREO_COUNT>
0

> <PUBCHEM_BOND_UDEF_STEREO_COUNT>
0

> <PUBCHEM_ISOTOPIC_ATOM_COUNT>
0

> <PUBCHEM_COMPONENT_COUNT>
1

> <PUBCHEM_CACTVS_TAUTO_COUNT>
2

> <PUBCHEM_CONFORMER_ID>
0616C41100000001

> <PUBCHEM_MMFF94_ENERGY>
93.8567

> <PUBCHEM_FEATURE_SELFOVERLAP>
56.953

> <PUBCHEM_SHAPE_FINGERPRINT>
107951 10 18334301950275848982
12156800 1 16551367966644124237
12160290 23 18268452254669749463
12293681 25 16821057583154915687
12633257 1 17761245445033750403
12788726 201 18411983593829520154
13140716 1 18272094928277086784
133893 2 17615696128564473465
13583140 156 18334016111923556360
14955137 171 17049118229717569460
15420108 30 16975608781972385432
15422964 175 17038384861325417459
16945 1 18115877480117483365
17492 54 18269251527258065349
20101258 96 17763466514334878446
20600515 1 17759282787098195987
21524375 3 18197216936716593356
229495 10 17682649884679827965
23419403 2 14247936122169754357
23559900 14 17632301164512062036
3380486 145 17557149711592677680
3493558 16 15546559217190398682
35225 105 17534943841508554874
394222 165 18122618354253528761
57527585 103 18192173656910168734
70251023 43 17552085000742854285
81228 2 18341345443523119904

> <PUBCHEM_SHAPE_MULTIPOLES>
585.14
6.48
5.26
2.37
7.75
3.14
0.31
-3.92
0.85
-1.96
-3.17
-0.86
1.63
-0.48

> <PUBCHEM_SHAPE_SELFOVERLAP>
1232.776

> <PUBCHEM_SHAPE_VOLUME>
323.7

> <PUBCHEM_COORDINATE_TYPE>
2
5
10

$$$$
