102155283
  -OEChem-03292013293D

 55 56  0     1  0  0  0  0  0999 V2000
   -2.7684   -0.0089    1.1320 O   0  0  0  0  0  0  0  0  0  0  0  0
    1.8386    0.1493   -0.2562 O   0  0  0  0  0  0  0  0  0  0  0  0
   -2.3552    1.9552   -0.9337 O   0  0  0  0  0  0  0  0  0  0  0  0
   -2.4818    0.9344    3.1568 O   0  0  0  0  0  0  0  0  0  0  0  0
    0.4971   -3.5154   -2.4350 O   0  0  0  0  0  0  0  0  0  0  0  0
    2.4391    0.9872    1.8030 O   0  0  0  0  0  0  0  0  0  0  0  0
   -1.1138    2.6682   -2.7469 O   0  0  0  0  0  0  0  0  0  0  0  0
    4.9134    1.6480    0.9009 O   0  0  0  0  0  0  0  0  0  0  0  0
   -1.5193   -1.6984   -0.2299 C   0  0  1  0  0  0  0  0  0  0  0  0
    0.0103   -1.4376   -0.4956 C   0  0  1  0  0  0  0  0  0  0  0  0
   -2.3303   -0.3531   -0.2198 C   0  0  2  0  0  0  0  0  0  0  0  0
   -0.3480    1.0511    0.1167 C   0  0  1  0  0  0  0  0  0  0  0  0
    0.5502   -0.2044    0.2655 C   0  0  2  0  0  0  0  0  0  0  0  0
   -1.5316    0.7978   -0.8147 C   0  0  2  0  0  0  0  0  0  0  0  0
   -2.0601   -2.5696   -1.3916 C   0  0  0  0  0  0  0  0  0  0  0  0
   -0.8799    1.4452    1.4710 C   0  0  0  0  0  0  0  0  0  0  0  0
   -1.7495   -2.4730    1.0505 C   0  0  0  0  0  0  0  0  0  0  0  0
    0.8728   -2.6506   -0.2476 C   0  0  0  0  0  0  0  0  0  0  0  0
   -2.0900    0.7786    2.0053 C   0  0  0  0  0  0  0  0  0  0  0  0
   -0.3194    2.4142    2.2107 C   0  0  0  0  0  0  0  0  0  0  0  0
   -2.3545   -3.6643    1.1061 C   0  0  0  0  0  0  0  0  0  0  0  0
    1.0339   -3.6400   -1.3406 C   0  0  0  0  0  0  0  0  0  0  0  0
    1.5106   -2.9000    0.9026 C   0  0  0  0  0  0  0  0  0  0  0  0
    2.6917    0.7433    0.6290 C   0  0  0  0  0  0  0  0  0  0  0  0
   -2.0305    2.8088   -1.9489 C   0  0  0  0  0  0  0  0  0  0  0  0
    4.0373    1.0299   -0.0318 C   0  0  0  0  0  0  0  0  0  0  0  0
   -2.9751    3.9724   -1.9520 C   0  0  0  0  0  0  0  0  0  0  0  0
    4.6890   -0.2652   -0.5137 C   0  0  0  0  0  0  0  0  0  0  0  0
    3.8235    1.9969   -1.1921 C   0  0  0  0  0  0  0  0  0  0  0  0
    0.1437   -1.1945   -1.5608 H   0  0  0  0  0  0  0  0  0  0  0  0
   -3.2662   -0.4599   -0.7814 H   0  0  0  0  0  0  0  0  0  0  0  0
    0.2289    1.8939   -0.2882 H   0  0  0  0  0  0  0  0  0  0  0  0
    0.6363   -0.4491    1.3301 H   0  0  0  0  0  0  0  0  0  0  0  0
   -1.1906    0.5033   -1.8148 H   0  0  0  0  0  0  0  0  0  0  0  0
   -1.8459   -2.0919   -2.3562 H   0  0  0  0  0  0  0  0  0  0  0  0
   -3.1536   -2.6650   -1.3500 H   0  0  0  0  0  0  0  0  0  0  0  0
   -1.6499   -3.5813   -1.4345 H   0  0  0  0  0  0  0  0  0  0  0  0
   -1.3719   -2.0507    1.9788 H   0  0  0  0  0  0  0  0  0  0  0  0
    0.5526    2.9534    1.8547 H   0  0  0  0  0  0  0  0  0  0  0  0
   -0.7090    2.7109    3.1786 H   0  0  0  0  0  0  0  0  0  0  0  0
   -2.4552   -4.1491    2.0737 H   0  0  0  0  0  0  0  0  0  0  0  0
   -2.7787   -4.2087    0.2745 H   0  0  0  0  0  0  0  0  0  0  0  0
    1.6725   -4.5106   -1.1149 H   0  0  0  0  0  0  0  0  0  0  0  0
    1.4494   -2.2643    1.7762 H   0  0  0  0  0  0  0  0  0  0  0  0
    2.1218   -3.7899    1.0245 H   0  0  0  0  0  0  0  0  0  0  0  0
   -2.8985    4.5137   -1.0057 H   0  0  0  0  0  0  0  0  0  0  0  0
   -2.7092    4.6533   -2.7656 H   0  0  0  0  0  0  0  0  0  0  0  0
   -3.9969    3.6196   -2.1128 H   0  0  0  0  0  0  0  0  0  0  0  0
    4.7791    2.2893   -1.6421 H   0  0  0  0  0  0  0  0  0  0  0  0
    3.3467    2.9208   -0.8434 H   0  0  0  0  0  0  0  0  0  0  0  0
    3.1919    1.5695   -1.9781 H   0  0  0  0  0  0  0  0  0  0  0  0
    5.6827   -0.0737   -0.9342 H   0  0  0  0  0  0  0  0  0  0  0  0
    4.0853   -0.7739   -1.2726 H   0  0  0  0  0  0  0  0  0  0  0  0
    4.8299   -0.9588    0.3236 H   0  0  0  0  0  0  0  0  0  0  0  0
    5.7517    1.8439    0.4485 H   0  0  0  0  0  0  0  0  0  0  0  0
  1 11  1  0  0  0  0
  1 19  1  0  0  0  0
  2 13  1  0  0  0  0
  2 24  1  0  0  0  0
  3 14  1  0  0  0  0
  3 25  1  0  0  0  0
  4 19  2  0  0  0  0
  5 22  2  0  0  0  0
  6 24  2  0  0  0  0
  7 25  2  0  0  0  0
  8 26  1  0  0  0  0
  8 55  1  0  0  0  0
  9 10  1  0  0  0  0
  9 11  1  0  0  0  0
  9 15  1  0  0  0  0
  9 17  1  0  0  0  0
 10 13  1  0  0  0  0
 10 18  1  0  0  0  0
 10 30  1  0  0  0  0
 11 14  1  0  0  0  0
 11 31  1  0  0  0  0
 12 13  1  0  0  0  0
 12 14  1  0  0  0  0
 12 16  1  0  0  0  0
 12 32  1  0  0  0  0
 13 33  1  0  0  0  0
 14 34  1  0  0  0  0
 15 35  1  0  0  0  0
 15 36  1  0  0  0  0
 15 37  1  0  0  0  0
 16 19  1  0  0  0  0
 16 20  2  0  0  0  0
 17 21  2  0  0  0  0
 17 38  1  0  0  0  0
 18 22  1  0  0  0  0
 18 23  2  0  0  0  0
 20 39  1  0  0  0  0
 20 40  1  0  0  0  0
 21 41  1  0  0  0  0
 21 42  1  0  0  0  0
 22 43  1  0  0  0  0
 23 44  1  0  0  0  0
 23 45  1  0  0  0  0
 24 26  1  0  0  0  0
 25 27  1  0  0  0  0
 26 28  1  0  0  0  0
 26 29  1  0  0  0  0
 27 46  1  0  0  0  0
 27 47  1  0  0  0  0
 27 48  1  0  0  0  0
 28 52  1  0  0  0  0
 28 53  1  0  0  0  0
 28 54  1  0  0  0  0
 29 49  1  0  0  0  0
 29 50  1  0  0  0  0
 29 51  1  0  0  0  0
M  END
> <PUBCHEM_COMPOUND_CID>
102155283

> <PUBCHEM_CONFORMER_RMSD>
1

> <PUBCHEM_CONFORMER_DIVERSEORDER>
1
6
7
3
4
9
8
5
2

> <PUBCHEM_MMFF94_PARTIAL_CHARGES>
35
1 -0.43
10 0.14
11 0.28
12 0.14
13 0.28
14 0.28
16 -0.12
17 -0.29
18 -0.12
19 0.71
2 -0.43
20 -0.3
21 -0.3
22 0.5
23 -0.3
24 0.66
25 0.66
26 0.34
27 0.06
3 -0.43
38 0.15
39 0.15
4 -0.57
40 0.15
41 0.15
42 0.15
43 0.06
44 0.15
45 0.15
5 -0.57
55 0.4
6 -0.57
7 -0.57
8 -0.68
9 0.14

> <PUBCHEM_EFFECTIVE_ROTOR_COUNT>
9

> <PUBCHEM_PHARMACOPHORE_FEATURES>
11
1 21 hydrophobe
1 23 hydrophobe
1 4 acceptor
1 5 acceptor
1 6 acceptor
1 7 acceptor
1 8 acceptor
1 8 donor
3 26 28 29 hydrophobe
6 1 11 12 14 16 19 rings
6 9 10 11 12 13 14 rings

> <PUBCHEM_HEAVY_ATOM_COUNT>
29

> <PUBCHEM_ATOM_DEF_STEREO_COUNT>
6

> <PUBCHEM_ATOM_UDEF_STEREO_COUNT>
0

> <PUBCHEM_BOND_DEF_STEREO_COUNT>
0

> <PUBCHEM_BOND_UDEF_STEREO_COUNT>
0

> <PUBCHEM_ISOTOPIC_ATOM_COUNT>
0

> <PUBCHEM_COMPONENT_COUNT>
1

> <PUBCHEM_CACTVS_TAUTO_COUNT>
2

> <PUBCHEM_CONFORMER_ID>
0616C41300000001

> <PUBCHEM_MMFF94_ENERGY>
93.9736

> <PUBCHEM_FEATURE_SELFOVERLAP>
56.946

> <PUBCHEM_SHAPE_FINGERPRINT>
10165383 225 17907621022894500876
11578080 2 17610651633683042372
12160290 23 18198613531374840570
12173636 292 17988375814169658464
12403814 3 18187089498121692825
12553582 1 17626677351087202406
12788726 201 17896576536035946329
13140716 1 18192998351182074777
133893 2 17838615557097010112
13583140 156 17680440948313131034
13681431 1 17550382934904372798
13761468 95 18266482982865530780
14142880 1 18340211898516013529
14468879 13 18041276543696355333
14713325 29 18187351156018546788
16752209 62 18195509597101254466
16945 1 18187916317980540667
1813 80 17613709744781183258
20600515 1 17905900523230133918
22907989 373 18337102488101597036
23419403 2 17760393005963408977
238 59 17907565939659153589
35225 105 18270381910862370350
469060 322 17898861406934488850
5845 1 17410196735254801011
81228 2 17907571781310613066

> <PUBCHEM_SHAPE_MULTIPOLES>
549.85
6
5.06
2.46
8.54
1.9
-0.31
-3.43
-0.07
-2.87
2.69
-1.66
-1.34
1.59

> <PUBCHEM_SHAPE_SELFOVERLAP>
1154.123

> <PUBCHEM_SHAPE_VOLUME>
305.7

> <PUBCHEM_COORDINATE_TYPE>
2
5
10

$$$$
