102179881
  -OEChem-03292013293D

 56 59  0     1  0  0  0  0  0999 V2000
    2.0815    3.0471   -0.1310 S   0  0  0  0  0  0  0  0  0  0  0  0
    2.8261    2.0297    0.9244 O   0  0  0  0  0  0  0  0  0  0  0  0
    5.0191   -2.1318    0.1135 O   0  0  0  0  0  0  0  0  0  0  0  0
    2.9050    4.4474    0.0295 O   0  0  0  0  0  0  0  0  0  0  0  0
    2.2888    2.5602   -1.4824 O   0  0  0  0  0  0  0  0  0  0  0  0
    0.7342    3.2786    0.3567 O   0  0  0  0  0  0  0  0  0  0  0  0
   -2.3804    0.0044   -2.5477 N   0  3  0  0  0  0  0  0  0  0  0  0
   -1.6890   -0.3581   -0.2621 C   0  0  2  0  0  0  0  0  0  0  0  0
   -0.8910   -1.5857   -0.7335 C   0  0  1  0  0  0  0  0  0  0  0  0
   -2.5620   -0.7370    0.9559 C   0  0  2  0  0  0  0  0  0  0  0  0
   -0.3218   -1.3479   -2.1487 C   0  0  2  0  0  0  0  0  0  0  0  0
   -2.5461    0.2902   -1.3079 C   0  0  0  0  0  0  0  0  0  0  0  0
    0.1093   -2.0332    0.3814 C   0  0  2  0  0  0  0  0  0  0  0  0
   -3.3283    0.5139    1.4381 C   0  0  0  0  0  0  0  0  0  0  0  0
   -4.2563    1.0542    0.3300 C   0  0  2  0  0  0  0  0  0  0  0  0
   -3.4860    1.4024   -0.9491 C   0  0  0  0  0  0  0  0  0  0  0  0
   -1.7398   -1.4418    2.0277 C   0  0  0  0  0  0  0  0  0  0  0  0
   -1.4643   -1.0056   -3.1161 C   0  0  0  0  0  0  0  0  0  0  0  0
   -0.5493   -2.0099    1.7501 C   0  0  0  0  0  0  0  0  0  0  0  0
    0.4131   -2.5679   -2.7116 C   0  0  0  0  0  0  0  0  0  0  0  0
    1.4635   -1.3298    0.4305 C   0  0  0  0  0  0  0  0  0  0  0  0
   -5.0359    2.2699    0.8294 C   0  0  0  0  0  0  0  0  0  0  0  0
   -2.3293   -1.5599    3.4054 C   0  0  0  0  0  0  0  0  0  0  0  0
    1.5270    0.0450    0.6578 C   0  0  0  0  0  0  0  0  0  0  0  0
    2.6369   -2.0613    0.2472 C   0  0  0  0  0  0  0  0  0  0  0  0
    2.7638    0.6882    0.7021 C   0  0  0  0  0  0  0  0  0  0  0  0
    3.8737   -1.4181    0.2916 C   0  0  0  0  0  0  0  0  0  0  0  0
    3.9373   -0.0433    0.5189 C   0  0  0  0  0  0  0  0  0  0  0  0
   -1.0189    0.4531    0.0208 H   0  0  0  0  0  0  0  0  0  0  0  0
   -1.6148   -2.4121   -0.8364 H   0  0  0  0  0  0  0  0  0  0  0  0
   -3.3209   -1.4647    0.6298 H   0  0  0  0  0  0  0  0  0  0  0  0
    0.3763   -0.5009   -2.1202 H   0  0  0  0  0  0  0  0  0  0  0  0
    0.3100   -3.0957    0.1782 H   0  0  0  0  0  0  0  0  0  0  0  0
   -3.9459    0.2679    2.3101 H   0  0  0  0  0  0  0  0  0  0  0  0
   -2.6212    1.2912    1.7563 H   0  0  0  0  0  0  0  0  0  0  0  0
   -4.9821    0.2661    0.0869 H   0  0  0  0  0  0  0  0  0  0  0  0
   -2.8806    2.3047   -0.7952 H   0  0  0  0  0  0  0  0  0  0  0  0
   -4.1893    1.6101   -1.7640 H   0  0  0  0  0  0  0  0  0  0  0  0
   -1.0683   -0.5881   -4.0478 H   0  0  0  0  0  0  0  0  0  0  0  0
   -2.0791   -1.8791   -3.3586 H   0  0  0  0  0  0  0  0  0  0  0  0
   -0.0087   -2.5226    2.5439 H   0  0  0  0  0  0  0  0  0  0  0  0
   -2.9567    0.5014   -3.2345 H   0  0  0  0  0  0  0  0  0  0  0  0
   -0.2325   -3.4529   -2.7165 H   0  0  0  0  0  0  0  0  0  0  0  0
    1.3059   -2.8086   -2.1316 H   0  0  0  0  0  0  0  0  0  0  0  0
    0.7381   -2.3822   -3.7413 H   0  0  0  0  0  0  0  0  0  0  0  0
   -4.3628    3.0899    1.1017 H   0  0  0  0  0  0  0  0  0  0  0  0
   -5.6317    2.0139    1.7118 H   0  0  0  0  0  0  0  0  0  0  0  0
   -5.7213    2.6355    0.0575 H   0  0  0  0  0  0  0  0  0  0  0  0
   -2.3767   -0.5796    3.8896 H   0  0  0  0  0  0  0  0  0  0  0  0
   -1.7388   -2.2165    4.0536 H   0  0  0  0  0  0  0  0  0  0  0  0
   -3.3396   -1.9785    3.3521 H   0  0  0  0  0  0  0  0  0  0  0  0
    0.6485    0.6271    0.8908 H   0  0  0  0  0  0  0  0  0  0  0  0
    2.5922   -3.1335    0.0732 H   0  0  0  0  0  0  0  0  0  0  0  0
    4.9010    0.4584    0.5531 H   0  0  0  0  0  0  0  0  0  0  0  0
    4.7896   -3.0656   -0.0323 H   0  0  0  0  0  0  0  0  0  0  0  0
    2.5919    5.1880   -0.5412 H   0  0  0  0  0  0  0  0  0  0  0  0
  1  2  1  0  0  0  0
  1  4  1  0  0  0  0
  1  5  2  0  0  0  0
  1  6  2  0  0  0  0
  2 26  1  0  0  0  0
  3 27  1  0  0  0  0
  3 55  1  0  0  0  0
  4 56  1  0  0  0  0
  7 12  2  0  0  0  0
  7 18  1  0  0  0  0
  7 42  1  0  0  0  0
  8  9  1  0  0  0  0
  8 10  1  0  0  0  0
  8 12  1  0  0  0  0
  8 29  1  0  0  0  0
  9 11  1  0  0  0  0
  9 13  1  0  0  0  0
  9 30  1  0  0  0  0
 10 14  1  0  0  0  0
 10 17  1  0  0  0  0
 10 31  1  0  0  0  0
 11 18  1  0  0  0  0
 11 20  1  0  0  0  0
 11 32  1  0  0  0  0
 12 16  1  0  0  0  0
 13 19  1  0  0  0  0
 13 21  1  0  0  0  0
 13 33  1  0  0  0  0
 14 15  1  0  0  0  0
 14 34  1  0  0  0  0
 14 35  1  0  0  0  0
 15 16  1  0  0  0  0
 15 22  1  0  0  0  0
 15 36  1  0  0  0  0
 16 37  1  0  0  0  0
 16 38  1  0  0  0  0
 17 19  2  0  0  0  0
 17 23  1  0  0  0  0
 18 39  1  0  0  0  0
 18 40  1  0  0  0  0
 19 41  1  0  0  0  0
 20 43  1  0  0  0  0
 20 44  1  0  0  0  0
 20 45  1  0  0  0  0
 21 24  1  0  0  0  0
 21 25  2  0  0  0  0
 22 46  1  0  0  0  0
 22 47  1  0  0  0  0
 22 48  1  0  0  0  0
 23 49  1  0  0  0  0
 23 50  1  0  0  0  0
 23 51  1  0  0  0  0
 24 26  2  0  0  0  0
 24 52  1  0  0  0  0
 25 27  1  0  0  0  0
 25 53  1  0  0  0  0
 26 28  1  0  0  0  0
 27 28  2  0  0  0  0
 28 54  1  0  0  0  0
M  CHG  1   7   1
M  END
> <PUBCHEM_COMPOUND_CID>
102179881

> <PUBCHEM_CONFORMER_RMSD>
0.8

> <PUBCHEM_CONFORMER_DIVERSEORDER>
1
15
7
16
8
6
14
10
13
12
11
5
4
9
3
2

> <PUBCHEM_MMFF94_PARTIAL_CHARGES>
29
1 1.67
10 0.14
12 0.28
13 0.28
16 0.06
17 -0.28
18 0.35
19 -0.29
2 -0.27
21 -0.14
23 0.14
24 -0.15
25 -0.15
26 0.08
27 0.08
28 -0.15
3 -0.53
4 -0.68
41 0.15
42 0.4
5 -0.65
52 0.15
53 0.15
54 0.15
55 0.45
56 0.5
6 -0.65
7 -0.15
8 0.06

> <PUBCHEM_EFFECTIVE_ROTOR_COUNT>
4.2

> <PUBCHEM_PHARMACOPHORE_FEATURES>
11
1 3 donor
1 4 acceptor
1 5 acceptor
1 6 acceptor
1 7 acceptor
1 7 donor
4 1 4 5 6 anion
6 21 24 25 26 27 28 rings
6 7 8 9 11 12 18 rings
6 8 10 12 14 15 16 rings
6 8 9 10 13 17 19 rings

> <PUBCHEM_HEAVY_ATOM_COUNT>
28

> <PUBCHEM_ATOM_DEF_STEREO_COUNT>
6

> <PUBCHEM_ATOM_UDEF_STEREO_COUNT>
0

> <PUBCHEM_BOND_DEF_STEREO_COUNT>
0

> <PUBCHEM_BOND_UDEF_STEREO_COUNT>
0

> <PUBCHEM_ISOTOPIC_ATOM_COUNT>
0

> <PUBCHEM_COMPONENT_COUNT>
1

> <PUBCHEM_CACTVS_TAUTO_COUNT>
39

> <PUBCHEM_CONFORMER_ID>
0617242900000001

> <PUBCHEM_MMFF94_ENERGY>
77.5896

> <PUBCHEM_FEATURE_SELFOVERLAP>
55.939

> <PUBCHEM_SHAPE_FINGERPRINT>
10165383 225 17241612714803734379
10366900 7 17749383737483539395
11640471 11 17632574971990798194
12107698 1 18268142068375105321
12403259 327 18115036199119489931
12422481 6 17339000733131384858
12539773 59 16836874010923253129
12633257 1 17748821921285264793
12788726 201 17901659368296953322
128993 33 17823975851889269868
14279260 333 17830166910409498058
14932701 244 15906012112382388472
15238133 3 18117855312462423876
15295992 7 18260833695593317947
18219364 16 17750214998175099645
18981168 100 17970338441879629364
20600515 1 17753355096120687069
21033648 29 17168416070085854677
21475661 188 18190175694618163565
21860390 5 18197509432484277821
229495 10 18125448763086632339
3493558 16 16337241161438867993
35225 105 17622751007680427501
3524813 1 17458908128517610123
392239 28 18115888321353761969
474 4 18411976928114201337
57527306 92 18196923375522700817
6287921 2 17244162718765925060
9981440 41 17474072859302840152

> <PUBCHEM_SHAPE_MULTIPOLES>
545.75
7.66
3.83
2.72
0.14
4.4
-0.9
3.02
2.05
3.21
-0.12
-2.39
-2.07
0.24

> <PUBCHEM_SHAPE_SELFOVERLAP>
1157.181

> <PUBCHEM_SHAPE_VOLUME>
307.1

> <PUBCHEM_COORDINATE_TYPE>
2
5
10

$$$$
