102122419
  -OEChem-03292013293D

 46 48  0     1  0  0  0  0  0999 V2000
    2.3214    0.3230    1.9898 O   0  0  0  0  0  0  0  0  0  0  0  0
   -0.1009   -1.4315    0.4558 O   0  0  0  0  0  0  0  0  0  0  0  0
    3.3420    1.8753   -1.1754 O   0  0  0  0  0  0  0  0  0  0  0  0
    5.6815    1.3614    0.8143 O   0  0  0  0  0  0  0  0  0  0  0  0
   -0.4756   -1.6845   -1.8300 O   0  0  0  0  0  0  0  0  0  0  0  0
   -3.0170   -2.5033    0.5347 O   0  0  0  0  0  0  0  0  0  0  0  0
   -5.4081    1.6137    0.4402 O   0  0  0  0  0  0  0  0  0  0  0  0
    2.1675    0.6121    0.5823 C   0  0  2  0  0  0  0  0  0  0  0  0
    2.2052   -0.7628   -0.1908 C   0  0  2  0  0  0  0  0  0  0  0  0
    3.3647    1.5124    0.1940 C   0  0  1  0  0  0  0  0  0  0  0  0
    1.2822   -1.8587    0.4478 C   0  0  2  0  0  0  0  0  0  0  0  0
    0.8268    1.4078    0.4755 C   0  0  0  0  0  0  0  0  0  0  0  0
    3.6275   -1.2894   -0.3126 C   0  0  0  0  0  0  0  0  0  0  0  0
    4.6777    0.7895    0.3953 C   0  0  0  0  0  0  0  0  0  0  0  0
    4.7492   -0.6270   -0.0130 C   0  0  0  0  0  0  0  0  0  0  0  0
    1.3833   -3.2686   -0.1470 C   0  0  0  0  0  0  0  0  0  0  0  0
    0.3058    1.7508   -0.8947 C   0  0  0  0  0  0  0  0  0  0  0  0
   -0.9160    1.5168   -1.4021 C   0  0  0  0  0  0  0  0  0  0  0  0
   -0.7842   -1.3289   -0.7079 C   0  0  0  0  0  0  0  0  0  0  0  0
   -2.0257    0.8184   -0.7402 C   0  0  0  0  0  0  0  0  0  0  0  0
   -1.9820   -0.5441   -0.4054 C   0  0  0  0  0  0  0  0  0  0  0  0
   -3.1955    1.5334   -0.4548 C   0  0  0  0  0  0  0  0  0  0  0  0
   -3.0612   -1.1811    0.2123 C   0  0  0  0  0  0  0  0  0  0  0  0
   -4.2796    0.9033    0.1632 C   0  0  0  0  0  0  0  0  0  0  0  0
   -4.2116   -0.4496    0.4971 C   0  0  0  0  0  0  0  0  0  0  0  0
   -6.4775    0.9116    1.0715 C   0  0  0  0  0  0  0  0  0  0  0  0
    1.8661   -0.5790   -1.2180 H   0  0  0  0  0  0  0  0  0  0  0  0
    3.3766    2.4180    0.8128 H   0  0  0  0  0  0  0  0  0  0  0  0
    1.5458   -1.9639    1.5074 H   0  0  0  0  0  0  0  0  0  0  0  0
    0.9682    2.3652    0.9993 H   0  0  0  0  0  0  0  0  0  0  0  0
    0.0598    0.9149    1.0820 H   0  0  0  0  0  0  0  0  0  0  0  0
    3.7576   -2.2976   -0.6968 H   0  0  0  0  0  0  0  0  0  0  0  0
    5.7256   -1.0868   -0.1082 H   0  0  0  0  0  0  0  0  0  0  0  0
    1.3797   -3.2492   -1.2411 H   0  0  0  0  0  0  0  0  0  0  0  0
    0.5360   -3.8852    0.1724 H   0  0  0  0  0  0  0  0  0  0  0  0
    2.3004   -3.7712    0.1757 H   0  0  0  0  0  0  0  0  0  0  0  0
    2.3279    1.1671    2.4726 H   0  0  0  0  0  0  0  0  0  0  0  0
    0.9774    2.3204   -1.5319 H   0  0  0  0  0  0  0  0  0  0  0  0
    4.0393    2.5383   -1.3171 H   0  0  0  0  0  0  0  0  0  0  0  0
   -1.1438    1.8903   -2.3983 H   0  0  0  0  0  0  0  0  0  0  0  0
   -3.2695    2.5893   -0.7087 H   0  0  0  0  0  0  0  0  0  0  0  0
   -5.0268   -0.9814    0.9763 H   0  0  0  0  0  0  0  0  0  0  0  0
   -3.8566   -2.7612    0.9520 H   0  0  0  0  0  0  0  0  0  0  0  0
   -7.2922    1.6286    1.2172 H   0  0  0  0  0  0  0  0  0  0  0  0
   -6.1913    0.5492    2.0647 H   0  0  0  0  0  0  0  0  0  0  0  0
   -6.8679    0.1122    0.4324 H   0  0  0  0  0  0  0  0  0  0  0  0
  1  8  1  0  0  0  0
  1 37  1  0  0  0  0
  2 11  1  0  0  0  0
  2 19  1  0  0  0  0
  3 10  1  0  0  0  0
  3 39  1  0  0  0  0
  4 14  2  0  0  0  0
  5 19  2  0  0  0  0
  6 23  1  0  0  0  0
  6 43  1  0  0  0  0
  7 24  1  0  0  0  0
  7 26  1  0  0  0  0
  8  9  1  0  0  0  0
  8 10  1  0  0  0  0
  8 12  1  0  0  0  0
  9 11  1  0  0  0  0
  9 13  1  0  0  0  0
  9 27  1  0  0  0  0
 10 14  1  0  0  0  0
 10 28  1  0  0  0  0
 11 16  1  0  0  0  0
 11 29  1  0  0  0  0
 12 17  1  0  0  0  0
 12 30  1  0  0  0  0
 12 31  1  0  0  0  0
 13 15  2  0  0  0  0
 13 32  1  0  0  0  0
 14 15  1  0  0  0  0
 15 33  1  0  0  0  0
 16 34  1  0  0  0  0
 16 35  1  0  0  0  0
 16 36  1  0  0  0  0
 17 18  2  0  0  0  0
 17 38  1  0  0  0  0
 18 20  1  0  0  0  0
 18 40  1  0  0  0  0
 19 21  1  0  0  0  0
 20 21  2  0  0  0  0
 20 22  1  0  0  0  0
 21 23  1  0  0  0  0
 22 24  2  0  0  0  0
 22 41  1  0  0  0  0
 23 25  2  0  0  0  0
 24 25  1  0  0  0  0
 25 42  1  0  0  0  0
 26 44  1  0  0  0  0
 26 45  1  0  0  0  0
 26 46  1  0  0  0  0
M  END
> <PUBCHEM_COMPOUND_CID>
102122419

> <PUBCHEM_CONFORMER_RMSD>
0.6

> <PUBCHEM_CONFORMER_DIVERSEORDER>
1
2
7
4
6
8
3
5
9

> <PUBCHEM_MMFF94_PARTIAL_CHARGES>
34
1 -0.68
10 0.34
11 0.28
12 0.14
13 -0.29
14 0.49
15 -0.14
17 -0.29
18 -0.18
19 0.63
2 -0.43
20 0.03
21 0.09
22 -0.15
23 0.08
24 0.08
25 -0.15
26 0.28
3 -0.68
32 0.15
33 0.15
37 0.4
38 0.15
39 0.4
4 -0.57
40 0.15
41 0.15
42 0.15
43 0.45
5 -0.57
6 -0.53
7 -0.36
8 0.28
9 0.14

> <PUBCHEM_EFFECTIVE_ROTOR_COUNT>
1.8

> <PUBCHEM_PHARMACOPHORE_FEATURES>
10
1 1 acceptor
1 1 donor
1 3 acceptor
1 3 donor
1 4 acceptor
1 5 acceptor
1 6 donor
1 7 acceptor
6 20 21 22 23 24 25 rings
6 8 9 10 13 14 15 rings

> <PUBCHEM_HEAVY_ATOM_COUNT>
26

> <PUBCHEM_ATOM_DEF_STEREO_COUNT>
3

> <PUBCHEM_ATOM_UDEF_STEREO_COUNT>
1

> <PUBCHEM_BOND_DEF_STEREO_COUNT>
1

> <PUBCHEM_BOND_UDEF_STEREO_COUNT>
0

> <PUBCHEM_ISOTOPIC_ATOM_COUNT>
0

> <PUBCHEM_COMPONENT_COUNT>
1

> <PUBCHEM_CACTVS_TAUTO_COUNT>
54

> <PUBCHEM_CONFORMER_ID>
061643B300000001

> <PUBCHEM_MMFF94_ENERGY>
94.817

> <PUBCHEM_FEATURE_SELFOVERLAP>
50.749

> <PUBCHEM_SHAPE_FINGERPRINT>
10165383 225 18342738520080489952
10493431 412 18411979182560646301
10616163 171 18334856151364842971
11112241 14 17058062632023478384
12011746 2 18335134263893610799
12236239 1 17632856400208132649
12422481 6 18119222027523530770
12553582 1 18114169831243640509
12633257 1 18188199932040953611
13140716 1 18409440406201902994
13224815 77 18260537939950496550
13402501 40 18408041788397859555
13583140 156 16630239316081297231
14223421 5 18189610545087150814
14341114 176 18336268959287028256
14341114 328 17603305985544743448
14617045 38 18337117773721157598
14790565 3 18264213680569380044
14955137 171 18260841400812587133
15163728 17 15696610853496684073
15196674 1 18410855477403106462
1601671 61 18410856564008960768
1813 80 16732989708436361869
19141452 34 18409168831256587391
19591789 44 18337106869110656694
19784866 170 18333731303904186467
19784866 9 18411980230738336674
20691752 17 17821722853505331142
21033648 29 17917138502623112410
21421861 104 17896310325405025034
22182313 1 17896878755989663693
23559900 14 18336828576678572510
25222932 49 17023191582251683795
335352 9 18410576145826261902
350125 39 18409731742871989540
3680242 22 18187644665831185898
5104073 3 18410283744631929802
5265222 85 18197505237203459460
58260988 393 16226045548529018325
6442390 28 18408042926823357458

> <PUBCHEM_SHAPE_MULTIPOLES>
493.98
11.11
2.65
1.17
5.62
1.41
-0.06
-4.44
3.77
-0.55
-0.31
-0.02
-0.17
0.23

> <PUBCHEM_SHAPE_SELFOVERLAP>
1066.619

> <PUBCHEM_SHAPE_VOLUME>
265.4

> <PUBCHEM_COORDINATE_TYPE>
2
5
10

$$$$
