10224454
  -OEChem-03292013303D

 55 57  0     0  0  0  0  0  0999 V2000
   -4.9590   -1.2413   -0.3099 O   0  0  0  0  0  0  0  0  0  0  0  0
    0.6777   -4.1577    0.4162 O   0  0  0  0  0  0  0  0  0  0  0  0
   -5.4061    0.2542    1.2581 O   0  5  0  0  0  0  0  0  0  0  0  0
   -7.0402   -1.1108    0.5963 O   0  0  0  0  0  0  0  0  0  0  0  0
    5.6261   -0.2270    0.1308 O   0  0  0  0  0  0  0  0  0  0  0  0
    4.1543    1.8642    0.8449 O   0  0  0  0  0  0  0  0  0  0  0  0
   -0.3677   -2.2972   -0.4913 N   0  0  0  0  0  0  0  0  0  0  0  0
   -5.8935   -0.6574    0.5884 N   0  3  0  0  0  0  0  0  0  0  0  0
    2.1153    1.9357   -0.2568 N   0  0  0  0  0  0  0  0  0  0  0  0
   -1.4285    4.3503    1.1043 N   0  0  0  0  0  0  0  0  0  0  0  0
   -1.6937   -2.8679   -0.5658 C   0  0  0  0  0  0  0  0  0  0  0  0
   -2.4704   -2.3144   -1.7641 C   0  0  0  0  0  0  0  0  0  0  0  0
   -2.4525   -2.6604    0.7473 C   0  0  0  0  0  0  0  0  0  0  0  0
   -3.6627   -0.6502   -0.2448 C   0  0  0  0  0  0  0  0  0  0  0  0
   -2.9216   -0.8647   -1.5646 C   0  0  0  0  0  0  0  0  0  0  0  0
   -2.8913   -1.2080    0.9514 C   0  0  0  0  0  0  0  0  0  0  0  0
    0.7203   -3.0026    0.0011 C   0  0  0  0  0  0  0  0  0  0  0  0
    2.0099   -2.2659    0.0361 C   0  0  0  0  0  0  0  0  0  0  0  0
    2.0169   -0.8754    0.1464 C   0  0  0  0  0  0  0  0  0  0  0  0
    3.2144   -2.9653   -0.0420 C   0  0  0  0  0  0  0  0  0  0  0  0
    3.2280   -0.1843    0.1789 C   0  0  0  0  0  0  0  0  0  0  0  0
    4.4255   -2.2743   -0.0095 C   0  0  0  0  0  0  0  0  0  0  0  0
    4.4323   -0.8838    0.1010 C   0  0  0  0  0  0  0  0  0  0  0  0
    3.2132    1.2673    0.2950 C   0  0  0  0  0  0  0  0  0  0  0  0
    1.9674    3.3733   -0.2427 C   0  0  0  0  0  0  0  0  0  0  0  0
    0.5253    3.7894   -0.2045 C   0  0  0  0  0  0  0  0  0  0  0  0
    6.8057   -1.0237    0.0456 C   0  0  0  0  0  0  0  0  0  0  0  0
   -0.1918    3.9968   -1.3776 C   0  0  0  0  0  0  0  0  0  0  0  0
   -0.1331    3.9777    1.0000 C   0  0  0  0  0  0  0  0  0  0  0  0
   -1.5266    4.3807   -1.3111 C   0  0  0  0  0  0  0  0  0  0  0  0
   -2.0933    4.5425   -0.0571 C   0  0  0  0  0  0  0  0  0  0  0  0
   -1.5708   -3.9479   -0.7167 H   0  0  0  0  0  0  0  0  0  0  0  0
   -3.3593   -2.9375   -1.9264 H   0  0  0  0  0  0  0  0  0  0  0  0
   -1.8658   -2.3841   -2.6765 H   0  0  0  0  0  0  0  0  0  0  0  0
   -3.3448   -3.2994    0.7457 H   0  0  0  0  0  0  0  0  0  0  0  0
   -1.8413   -2.9771    1.6009 H   0  0  0  0  0  0  0  0  0  0  0  0
   -3.7401    0.4424   -0.1565 H   0  0  0  0  0  0  0  0  0  0  0  0
   -3.5682   -0.5824   -2.4042 H   0  0  0  0  0  0  0  0  0  0  0  0
   -2.0440   -0.2076   -1.5984 H   0  0  0  0  0  0  0  0  0  0  0  0
   -1.9982   -0.5913    1.1135 H   0  0  0  0  0  0  0  0  0  0  0  0
   -3.4754   -1.1612    1.8762 H   0  0  0  0  0  0  0  0  0  0  0  0
   -0.2527   -1.3493   -0.8322 H   0  0  0  0  0  0  0  0  0  0  0  0
    1.0838   -0.3359    0.2783 H   0  0  0  0  0  0  0  0  0  0  0  0
    3.2278   -4.0483   -0.1330 H   0  0  0  0  0  0  0  0  0  0  0  0
    5.3194   -2.8847   -0.0759 H   0  0  0  0  0  0  0  0  0  0  0  0
    1.4298    1.4119   -0.7920 H   0  0  0  0  0  0  0  0  0  0  0  0
    2.4554    3.7613   -1.1443 H   0  0  0  0  0  0  0  0  0  0  0  0
    2.5102    3.7938    0.6119 H   0  0  0  0  0  0  0  0  0  0  0  0
    6.9013   -1.6977    0.9037 H   0  0  0  0  0  0  0  0  0  0  0  0
    6.8679   -1.5531   -0.9114 H   0  0  0  0  0  0  0  0  0  0  0  0
    7.6595   -0.3389    0.0844 H   0  0  0  0  0  0  0  0  0  0  0  0
    0.2779    3.8604   -2.3477 H   0  0  0  0  0  0  0  0  0  0  0  0
    0.3729    3.8292    1.9490 H   0  0  0  0  0  0  0  0  0  0  0  0
   -2.1055    4.5469   -2.2124 H   0  0  0  0  0  0  0  0  0  0  0  0
   -3.1314    4.8401    0.0489 H   0  0  0  0  0  0  0  0  0  0  0  0
  1  8  1  0  0  0  0
  1 14  1  0  0  0  0
  2 17  2  0  0  0  0
  3  8  1  0  0  0  0
  4  8  2  0  0  0  0
  5 23  1  0  0  0  0
  5 27  1  0  0  0  0
  6 24  2  0  0  0  0
  7 11  1  0  0  0  0
  7 17  1  0  0  0  0
  7 42  1  0  0  0  0
  9 24  1  0  0  0  0
  9 25  1  0  0  0  0
  9 46  1  0  0  0  0
 10 29  1  0  0  0  0
 10 31  2  0  0  0  0
 11 12  1  0  0  0  0
 11 13  1  0  0  0  0
 11 32  1  0  0  0  0
 12 15  1  0  0  0  0
 12 33  1  0  0  0  0
 12 34  1  0  0  0  0
 13 16  1  0  0  0  0
 13 35  1  0  0  0  0
 13 36  1  0  0  0  0
 14 15  1  0  0  0  0
 14 16  1  0  0  0  0
 14 37  1  0  0  0  0
 15 38  1  0  0  0  0
 15 39  1  0  0  0  0
 16 40  1  0  0  0  0
 16 41  1  0  0  0  0
 17 18  1  0  0  0  0
 18 19  2  0  0  0  0
 18 20  1  0  0  0  0
 19 21  1  0  0  0  0
 19 43  1  0  0  0  0
 20 22  2  0  0  0  0
 20 44  1  0  0  0  0
 21 23  2  0  0  0  0
 21 24  1  0  0  0  0
 22 23  1  0  0  0  0
 22 45  1  0  0  0  0
 25 26  1  0  0  0  0
 25 47  1  0  0  0  0
 25 48  1  0  0  0  0
 26 28  1  0  0  0  0
 26 29  2  0  0  0  0
 27 49  1  0  0  0  0
 27 50  1  0  0  0  0
 27 51  1  0  0  0  0
 28 30  2  0  0  0  0
 28 52  1  0  0  0  0
 29 53  1  0  0  0  0
 30 31  1  0  0  0  0
 30 54  1  0  0  0  0
 31 55  1  0  0  0  0
M  CHG  2   3  -1   8   1
M  END
> <PUBCHEM_COMPOUND_CID>
10224454

> <PUBCHEM_CONFORMER_RMSD>
1

> <PUBCHEM_CONFORMER_DIVERSEORDER>
24
30
112
179
189
183
118
115
184
143
67
169
5
188
26
156
135
147
18
148
57
122
83
157
96
159
89
126
102
100
186
44
166
22
85
88
132
73
46
173
195
72
181
116
117
174
153
2
141
191
155
15
19
158
109
92
64
29
196
68
47
192
111
66
110
28
114
106
113
177
90
131
168
144
56
80
77
94
91
178
79
61
45
149
8
95
76
154
105
71
130
182
161
65
164
176
139
87
138
17
193
101
140
142
120
175
187
165
12
123
162
119
14
75
78
107
31
163
99
198
170
172
43
133
34
185
134
146
82
103
63
151
136
25
35
152
125
86
150
129
40
39
60
160
137
27
38
21
124
190
42
167
49
62
197
84
3
74
127
55
128
33
16
37
7
53
93
145
48
194
23
58
104
81
108
13
171
70
51
41
6
97
69
9
32
180
36
54
50
59
11
98
52
4
10
121
20
1

> <PUBCHEM_MMFF94_PARTIAL_CHARGES>
36
1 -0.27
10 -0.62
11 0.3
14 0.28
17 0.54
18 0.09
19 -0.15
2 -0.57
20 -0.15
21 0.09
22 -0.15
23 0.08
24 0.54
25 0.44
26 -0.14
27 0.28
28 -0.15
29 0.16
3 -0.52
30 -0.15
31 0.16
4 -0.52
42 0.37
43 0.15
44 0.15
45 0.15
46 0.37
5 -0.36
52 0.15
53 0.15
54 0.15
55 0.15
6 -0.57
7 -0.73
8 1.03
9 -0.73

> <PUBCHEM_EFFECTIVE_ROTOR_COUNT>
11.2

> <PUBCHEM_PHARMACOPHORE_FEATURES>
11
1 10 acceptor
1 2 acceptor
1 3 acceptor
1 4 acceptor
1 5 acceptor
1 6 acceptor
1 7 donor
1 9 donor
6 10 26 28 29 30 31 rings
6 11 12 13 14 15 16 rings
6 18 19 20 21 22 23 rings

> <PUBCHEM_HEAVY_ATOM_COUNT>
31

> <PUBCHEM_ATOM_DEF_STEREO_COUNT>
0

> <PUBCHEM_ATOM_UDEF_STEREO_COUNT>
0

> <PUBCHEM_BOND_DEF_STEREO_COUNT>
0

> <PUBCHEM_BOND_UDEF_STEREO_COUNT>
0

> <PUBCHEM_ISOTOPIC_ATOM_COUNT>
0

> <PUBCHEM_COMPONENT_COUNT>
1

> <PUBCHEM_CACTVS_TAUTO_COUNT>
4

> <PUBCHEM_CONFORMER_ID>
009C034600000018

> <PUBCHEM_MMFF94_ENERGY>
89.1025

> <PUBCHEM_FEATURE_SELFOVERLAP>
55.904

> <PUBCHEM_SHAPE_FINGERPRINT>
10074138 170 16315518045225764795
10190206 1 17973475306374915164
10439779 11 17692518327772210152
10815517 723 18343027666227409320
11059048 146 17111296767398493789
12156800 1 17980513094765621052
12522641 126 18123184878353346583
12788726 201 18263350422122694058
12925494 130 18122624127122195323
13122387 1 17330549848063465973
13561361 72 18193272992576024673
14028597 1 17676754393763532770
150020 26 17973169714539339649
151778 21 17758121784260157845
15276724 80 18413389848486284124
15320467 1 18410575084911310633
15475509 84 18117831106201226450
15483637 11 18121215377242679477
16760501 71 18266181810999650755
16993438 75 18046630001376840553
17138139 8 17407067181570627092
20567600 299 17980757460998254232
20764821 26 18337654378324339989
21133410 90 17346022391008017049
21860390 5 18199471154797294750
373842 8 18338518526636033093
653340 110 18268698442870642832

> <PUBCHEM_SHAPE_MULTIPOLES>
582.83
11.95
7.34
1.14
1.25
9.02
0.25
-7.37
-2.45
2.64
0.58
1.17
0.31
0.15

> <PUBCHEM_SHAPE_SELFOVERLAP>
1233.964

> <PUBCHEM_SHAPE_VOLUME>
322.5

> <PUBCHEM_COORDINATE_TYPE>
2
5
10

$$$$
