10223268
  -OEChem-03292013303D

 52 54  0     1  0  0  0  0  0999 V2000
    3.3511   -2.7330    0.6787 O   0  0  0  0  0  0  0  0  0  0  0  0
    3.9861    3.3969    0.5943 O   0  0  0  0  0  0  0  0  0  0  0  0
    4.5322   -0.5606    2.0217 O   0  0  0  0  0  0  0  0  0  0  0  0
    1.8211   -4.4480    0.6616 O   0  0  0  0  0  0  0  0  0  0  0  0
    4.0080    5.7428   -0.8107 O   0  0  0  0  0  0  0  0  0  0  0  0
   -0.4600   -3.6926   -1.1107 O   0  0  0  0  0  0  0  0  0  0  0  0
   -2.9827   -2.7557   -0.9764 O   0  0  0  0  0  0  0  0  0  0  0  0
    3.4229   -1.4556    0.0611 C   0  0  1  0  0  0  0  0  0  0  0  0
    2.0193   -1.1951   -0.3617 C   0  0  0  0  0  0  0  0  0  0  0  0
    2.3184    1.2048   -0.2751 C   0  0  0  0  0  0  0  0  0  0  0  0
    3.4809    1.0405    0.5864 C   0  0  0  0  0  0  0  0  0  0  0  0
    3.8724   -0.3447    1.0103 C   0  0  0  0  0  0  0  0  0  0  0  0
    1.9259    2.6347   -0.5277 C   0  0  0  0  0  0  0  0  0  0  0  0
    1.6212    0.1450   -0.7236 C   0  0  0  0  0  0  0  0  0  0  0  0
    3.1845    3.5103   -0.5984 C   0  0  1  0  0  0  0  0  0  0  0  0
    1.2684   -2.2908   -0.2424 C   0  0  0  0  0  0  0  0  0  0  0  0
    4.4023   -1.5544   -1.1128 C   0  0  0  0  0  0  0  0  0  0  0  0
    2.1388   -3.3018    0.3921 C   0  0  0  0  0  0  0  0  0  0  0  0
    4.2003    2.0961    0.9883 C   0  0  0  0  0  0  0  0  0  0  0  0
    2.8156    4.9799   -0.7618 C   0  0  0  0  0  0  0  0  0  0  0  0
   -0.1198   -2.4931   -0.5057 C   0  0  0  0  0  0  0  0  0  0  0  0
   -1.0550   -1.5741   -0.1856 C   0  0  0  0  0  0  0  0  0  0  0  0
   -2.5119   -1.7569   -0.4475 C   0  0  0  0  0  0  0  0  0  0  0  0
   -3.3491   -0.6071   -0.0067 C   0  0  0  0  0  0  0  0  0  0  0  0
   -4.6777   -0.6378   -0.1809 C   0  0  0  0  0  0  0  0  0  0  0  0
   -5.5445    0.4475    0.2263 C   0  0  0  0  0  0  0  0  0  0  0  0
   -6.8757    0.4250    0.0558 C   0  0  0  0  0  0  0  0  0  0  0  0
   -7.7349    1.5137    0.4662 C   0  0  0  0  0  0  0  0  0  0  0  0
   -9.0690    1.5802    0.3373 C   0  0  0  0  0  0  0  0  0  0  0  0
   -9.9889    2.6840    0.7477 C   0  0  0  0  0  0  0  0  0  0  0  0
    1.3468    2.7278   -1.4538 H   0  0  0  0  0  0  0  0  0  0  0  0
    1.2897    2.9670    0.3033 H   0  0  0  0  0  0  0  0  0  0  0  0
    0.7232    0.2927   -1.3135 H   0  0  0  0  0  0  0  0  0  0  0  0
    3.8178    3.2076   -1.4448 H   0  0  0  0  0  0  0  0  0  0  0  0
    4.4828   -0.6166   -1.6728 H   0  0  0  0  0  0  0  0  0  0  0  0
    5.4045   -1.8133   -0.7509 H   0  0  0  0  0  0  0  0  0  0  0  0
    4.1094   -2.3474   -1.8111 H   0  0  0  0  0  0  0  0  0  0  0  0
    5.0362    2.0485    1.6727 H   0  0  0  0  0  0  0  0  0  0  0  0
    2.2369    5.3371    0.0961 H   0  0  0  0  0  0  0  0  0  0  0  0
    2.2390    5.1570   -1.6749 H   0  0  0  0  0  0  0  0  0  0  0  0
   -0.7764   -0.6550    0.3215 H   0  0  0  0  0  0  0  0  0  0  0  0
    4.5137    5.4505   -1.5881 H   0  0  0  0  0  0  0  0  0  0  0  0
   -1.4199   -3.7319   -1.2447 H   0  0  0  0  0  0  0  0  0  0  0  0
   -2.8607    0.2460    0.4533 H   0  0  0  0  0  0  0  0  0  0  0  0
   -5.1553   -1.4979   -0.6433 H   0  0  0  0  0  0  0  0  0  0  0  0
   -5.0700    1.3098    0.6899 H   0  0  0  0  0  0  0  0  0  0  0  0
   -7.3569   -0.4334   -0.4067 H   0  0  0  0  0  0  0  0  0  0  0  0
   -7.2347    2.3641    0.9276 H   0  0  0  0  0  0  0  0  0  0  0  0
   -9.5743    0.7320   -0.1237 H   0  0  0  0  0  0  0  0  0  0  0  0
  -10.5279    3.0660   -0.1244 H   0  0  0  0  0  0  0  0  0  0  0  0
  -10.7198    2.3126    1.4722 H   0  0  0  0  0  0  0  0  0  0  0  0
   -9.4429    3.5147    1.2053 H   0  0  0  0  0  0  0  0  0  0  0  0
  1  8  1  0  0  0  0
  1 18  1  0  0  0  0
  2 15  1  0  0  0  0
  2 19  1  0  0  0  0
  3 12  2  0  0  0  0
  4 18  2  0  0  0  0
  5 20  1  0  0  0  0
  5 42  1  0  0  0  0
  6 21  1  0  0  0  0
  6 43  1  0  0  0  0
  7 23  2  0  0  0  0
  8  9  1  0  0  0  0
  8 12  1  0  0  0  0
  8 17  1  0  0  0  0
  9 14  1  0  0  0  0
  9 16  2  0  0  0  0
 10 11  1  0  0  0  0
 10 13  1  0  0  0  0
 10 14  2  0  0  0  0
 11 12  1  0  0  0  0
 11 19  2  0  0  0  0
 13 15  1  0  0  0  0
 13 31  1  0  0  0  0
 13 32  1  0  0  0  0
 14 33  1  0  0  0  0
 15 20  1  0  0  0  0
 15 34  1  0  0  0  0
 16 18  1  0  0  0  0
 16 21  1  0  0  0  0
 17 35  1  0  0  0  0
 17 36  1  0  0  0  0
 17 37  1  0  0  0  0
 19 38  1  0  0  0  0
 20 39  1  0  0  0  0
 20 40  1  0  0  0  0
 21 22  2  0  0  0  0
 22 23  1  0  0  0  0
 22 41  1  0  0  0  0
 23 24  1  0  0  0  0
 24 25  2  0  0  0  0
 24 44  1  0  0  0  0
 25 26  1  0  0  0  0
 25 45  1  0  0  0  0
 26 27  2  0  0  0  0
 26 46  1  0  0  0  0
 27 28  1  0  0  0  0
 27 47  1  0  0  0  0
 28 29  2  0  0  0  0
 28 48  1  0  0  0  0
 29 30  1  0  0  0  0
 29 49  1  0  0  0  0
 30 50  1  0  0  0  0
 30 51  1  0  0  0  0
 30 52  1  0  0  0  0
M  END
> <PUBCHEM_COMPOUND_CID>
10223268

> <PUBCHEM_CONFORMER_RMSD>
0.8

> <PUBCHEM_CONFORMER_DIVERSEORDER>
1
46
2
64
26
56
48
17
40
20
86
6
68
54
34
9
71
72
65
43
29
38
7
5
90
30
85
3
50
60
58
77
13
59
79
55
84
15
87
22
81
39
4
69
67
35
18
49
45
28
24
62
42
25
47
51
23
75
76
57
63
21
27
61
12
78
83
89
19
14
31
70
37
8
41
80
16
93
10
91
44
66
53
36
11
33
32
74
92
88
52
82
73

> <PUBCHEM_MMFF94_PARTIAL_CHARGES>
40
1 -0.43
10 -0.14
11 0.01
12 0.49
13 0.14
14 -0.15
15 0.28
16 0.01
18 0.71
19 -0.07
2 -0.36
20 0.28
21 0.08
22 -0.14
23 0.54
24 -0.14
25 -0.15
26 -0.15
27 -0.15
28 -0.15
29 -0.29
3 -0.57
30 0.14
33 0.15
38 0.15
4 -0.57
41 0.15
42 0.4
43 0.45
44 0.15
45 0.15
46 0.15
47 0.15
48 0.15
49 0.15
5 -0.68
6 -0.53
7 -0.57
8 0.48
9 -0.14

> <PUBCHEM_EFFECTIVE_ROTOR_COUNT>
6.8

> <PUBCHEM_PHARMACOPHORE_FEATURES>
11
1 2 acceptor
1 3 acceptor
1 30 hydrophobe
1 4 acceptor
1 5 acceptor
1 5 donor
1 6 donor
1 7 acceptor
5 1 8 9 16 18 rings
6 2 10 11 13 15 19 rings
6 8 9 10 11 12 14 rings

> <PUBCHEM_HEAVY_ATOM_COUNT>
30

> <PUBCHEM_ATOM_DEF_STEREO_COUNT>
2

> <PUBCHEM_ATOM_UDEF_STEREO_COUNT>
0

> <PUBCHEM_BOND_DEF_STEREO_COUNT>
4

> <PUBCHEM_BOND_UDEF_STEREO_COUNT>
0

> <PUBCHEM_ISOTOPIC_ATOM_COUNT>
0

> <PUBCHEM_COMPONENT_COUNT>
1

> <PUBCHEM_CACTVS_TAUTO_COUNT>
3

> <PUBCHEM_CONFORMER_ID>
009BFEA400000001

> <PUBCHEM_MMFF94_ENERGY>
66.8582

> <PUBCHEM_FEATURE_SELFOVERLAP>
55.964

> <PUBCHEM_SHAPE_FINGERPRINT>
10049733 57 18113609055388203829
10411042 1 17835522613799066638
10673678 19 18272093795123015307
10675989 125 18410574006779931281
10816530 90 18335989748676169348
10917259 69 18193843876289785180
11374522 174 18116728498187256901
11607047 403 8718546039961434036
11761917 142 17116066448671864544
11828042 163 18340216275774445748
11828042 53 17615981344802150084
11966995 178 18199761263238375493
12107183 9 18338221731041336690
12925494 130 18410854408747508419
13140716 1 18190171472522906250
13878862 14 18262785290832120063
13944108 23 18410299137832420972
14117953 113 18343023263580170901
14251764 75 18338519771801846805
14400156 260 18333730239628627400
14400156 96 17967818275587949391
14429380 56 18339069403768156093
14790565 3 17759523670228637828
15439362 3 18267028443753885156
15475509 8 18341619248516103286
15483637 11 17905606597734868189
155225 6 18338240491669962493
16067689 134 18119251903506906996
16087824 20 18410576154938416100
17810953 82 18411701010498104381
19053607 189 18196365034222571625
19301679 30 17615400364433224826
19302320 297 18409728439746759609
19427546 62 18413108343108056007
20715895 44 18342737403953378475
20721686 146 17560223856679857936
21026386 69 17899139309465202525
21315764 268 18262798442259655597
22122407 14 18341063913354951945
23522609 53 16884131012866414620
23569914 152 17985299398517222604
245318 6 18189907593910819133
3103668 31 17905614298557482502
3711267 37 17630336243335374841
397830 11 18260843618255064819
4408954 64 17390202864007819826
474 4 18120361306011315814
5104073 3 18114739447318803363
5364581 5 18335709395049523403
53794403 172 18410578426385265845
54076057 255 18261127257209379958
57676310 115 18115321098008757540
57724786 102 18337950194354925445
5951187 136 18271818925030280381
60111433 81 17416665012101618361
6058803 2 18197197355650319022
6176135 31 18409722993749957305
6636735 143 17821738230759343491
68570916 9 18413668003638332767
7970288 3 12285393203036504565
9849439 229 18191872442495471701

> <PUBCHEM_SHAPE_MULTIPOLES>
576.3
19.53
6.47
1.06
74.98
6
-0.19
18.55
-5.32
-9.42
1.4
-1.04
-0.02
-2.07

> <PUBCHEM_SHAPE_SELFOVERLAP>
1235.524

> <PUBCHEM_SHAPE_VOLUME>
316

> <PUBCHEM_COORDINATE_TYPE>
2
5
10

$$$$
