102226338
  -OEChem-03292013293D

 50 53  0     1  0  0  0  0  0999 V2000
    1.6804   -0.9195   -0.5007 O   0  0  0  0  0  0  0  0  0  0  0  0
   -2.4077    1.4743    1.2141 O   0  0  0  0  0  0  0  0  0  0  0  0
   -0.9610   -1.6130    2.0148 O   0  0  0  0  0  0  0  0  0  0  0  0
    0.2081    4.0676    1.4131 O   0  0  0  0  0  0  0  0  0  0  0  0
   -2.5724   -3.2235    0.4725 O   0  0  0  0  0  0  0  0  0  0  0  0
    5.0248    0.5975   -1.7318 O   0  0  0  0  0  0  0  0  0  0  0  0
    3.9881   -1.2882   -2.4737 O   0  0  0  0  0  0  0  0  0  0  0  0
    0.0985    0.3398    0.8964 C   0  0  1  0  0  0  0  0  0  0  0  0
   -0.4008    0.8841   -0.3721 C   0  0  0  0  0  0  0  0  0  0  0  0
   -1.7928    1.4994   -0.1313 C   0  0  2  0  0  0  0  0  0  0  0  0
    1.5414   -0.1996    0.7305 C   0  0  1  0  0  0  0  0  0  0  0  0
    0.0932    1.6208    1.8155 C   0  0  0  0  0  0  0  0  0  0  0  0
   -1.3789    2.9481   -0.0998 C   0  0  0  0  0  0  0  0  0  0  0  0
   -1.0082   -0.8033    1.0934 C   0  0  0  0  0  0  0  0  0  0  0  0
   -2.5995    0.3457   -0.5816 C   0  0  0  0  0  0  0  0  0  0  0  0
    0.2251    0.7264   -1.5521 C   0  0  0  0  0  0  0  0  0  0  0  0
   -0.2924    2.9975    1.0648 C   0  0  0  0  0  0  0  0  0  0  0  0
    1.4668   -0.1103   -1.6701 C   0  0  1  0  0  0  0  0  0  0  0  0
    1.9960   -1.1120    1.8641 C   0  0  0  0  0  0  0  0  0  0  0  0
   -2.2107   -0.8754    0.0974 C   0  0  0  0  0  0  0  0  0  0  0  0
    3.5160   -1.2428    1.8962 C   0  0  0  0  0  0  0  0  0  0  0  0
   -3.6461    0.3520   -1.4861 C   0  0  0  0  0  0  0  0  0  0  0  0
    2.6994    0.7254   -1.9983 C   0  0  0  0  0  0  0  0  0  0  0  0
   -2.9006   -2.0547   -0.1362 C   0  0  0  0  0  0  0  0  0  0  0  0
   -4.3198   -0.8488   -1.7213 C   0  0  0  0  0  0  0  0  0  0  0  0
   -3.9551   -2.0328   -1.0539 C   0  0  0  0  0  0  0  0  0  0  0  0
    3.9711   -2.1310    3.0430 C   0  0  0  0  0  0  0  0  0  0  0  0
    3.9372   -0.1239   -2.1069 C   0  0  0  0  0  0  0  0  0  0  0  0
    2.2342    0.6513    0.6974 H   0  0  0  0  0  0  0  0  0  0  0  0
    1.0913    1.7873    2.2408 H   0  0  0  0  0  0  0  0  0  0  0  0
   -0.5771    1.4913    2.6728 H   0  0  0  0  0  0  0  0  0  0  0  0
   -2.1973    3.6236    0.1742 H   0  0  0  0  0  0  0  0  0  0  0  0
   -0.9306    3.3046   -1.0334 H   0  0  0  0  0  0  0  0  0  0  0  0
   -0.2090    1.1309   -2.4615 H   0  0  0  0  0  0  0  0  0  0  0  0
    1.3034   -0.8259   -2.4853 H   0  0  0  0  0  0  0  0  0  0  0  0
    1.6583   -0.7105    2.8269 H   0  0  0  0  0  0  0  0  0  0  0  0
    1.5642   -2.1127    1.7442 H   0  0  0  0  0  0  0  0  0  0  0  0
   -3.2034    2.0357    1.1906 H   0  0  0  0  0  0  0  0  0  0  0  0
    3.8792   -1.6634    0.9514 H   0  0  0  0  0  0  0  0  0  0  0  0
    3.9764   -0.2543    2.0089 H   0  0  0  0  0  0  0  0  0  0  0  0
   -3.9470    1.2624   -1.9927 H   0  0  0  0  0  0  0  0  0  0  0  0
    2.5695    1.2550   -2.9491 H   0  0  0  0  0  0  0  0  0  0  0  0
    2.8655    1.4796   -1.2202 H   0  0  0  0  0  0  0  0  0  0  0  0
   -5.1465   -0.8693   -2.4271 H   0  0  0  0  0  0  0  0  0  0  0  0
   -4.5086   -2.9455   -1.2639 H   0  0  0  0  0  0  0  0  0  0  0  0
    5.0626   -2.2122    3.0491 H   0  0  0  0  0  0  0  0  0  0  0  0
    3.5563   -3.1396    2.9469 H   0  0  0  0  0  0  0  0  0  0  0  0
    3.6560   -1.7199    4.0074 H   0  0  0  0  0  0  0  0  0  0  0  0
   -1.7978   -3.0932    1.0431 H   0  0  0  0  0  0  0  0  0  0  0  0
    5.8505    0.0710   -1.7899 H   0  0  0  0  0  0  0  0  0  0  0  0
  1 11  1  0  0  0  0
  1 18  1  0  0  0  0
  2 10  1  0  0  0  0
  2 38  1  0  0  0  0
  3 14  2  0  0  0  0
  4 17  2  0  0  0  0
  5 24  1  0  0  0  0
  5 49  1  0  0  0  0
  6 28  1  0  0  0  0
  6 50  1  0  0  0  0
  7 28  2  0  0  0  0
  8  9  1  0  0  0  0
  8 11  1  0  0  0  0
  8 12  1  0  0  0  0
  8 14  1  0  0  0  0
  9 10  1  0  0  0  0
  9 16  2  0  0  0  0
 10 13  1  0  0  0  0
 10 15  1  0  0  0  0
 11 19  1  0  0  0  0
 11 29  1  0  0  0  0
 12 17  1  0  0  0  0
 12 30  1  0  0  0  0
 12 31  1  0  0  0  0
 13 17  1  0  0  0  0
 13 32  1  0  0  0  0
 13 33  1  0  0  0  0
 14 20  1  0  0  0  0
 15 20  2  0  0  0  0
 15 22  1  0  0  0  0
 16 18  1  0  0  0  0
 16 34  1  0  0  0  0
 18 23  1  0  0  0  0
 18 35  1  0  0  0  0
 19 21  1  0  0  0  0
 19 36  1  0  0  0  0
 19 37  1  0  0  0  0
 20 24  1  0  0  0  0
 21 27  1  0  0  0  0
 21 39  1  0  0  0  0
 21 40  1  0  0  0  0
 22 25  2  0  0  0  0
 22 41  1  0  0  0  0
 23 28  1  0  0  0  0
 23 42  1  0  0  0  0
 23 43  1  0  0  0  0
 24 26  2  0  0  0  0
 25 26  1  0  0  0  0
 25 44  1  0  0  0  0
 26 45  1  0  0  0  0
 27 46  1  0  0  0  0
 27 47  1  0  0  0  0
 27 48  1  0  0  0  0
M  END
> <PUBCHEM_COMPOUND_CID>
102226338

> <PUBCHEM_CONFORMER_RMSD>
0.8

> <PUBCHEM_CONFORMER_DIVERSEORDER>
1
3
5
4
7
2
6

> <PUBCHEM_MMFF94_PARTIAL_CHARGES>
32
1 -0.56
10 0.56
11 0.28
12 0.06
13 0.06
14 0.42
15 -0.14
16 -0.29
17 0.45
18 0.42
2 -0.68
20 0.09
22 -0.15
23 0.06
24 0.08
25 -0.15
26 -0.15
28 0.66
3 -0.57
34 0.15
38 0.4
4 -0.57
41 0.15
44 0.15
45 0.15
49 0.45
5 -0.53
50 0.5
6 -0.65
7 -0.57
8 0.2
9 -0.28

> <PUBCHEM_EFFECTIVE_ROTOR_COUNT>
5

> <PUBCHEM_PHARMACOPHORE_FEATURES>
14
1 1 acceptor
1 2 acceptor
1 2 donor
1 27 hydrophobe
1 3 acceptor
1 4 acceptor
1 5 donor
1 6 acceptor
1 7 acceptor
3 6 7 28 anion
6 1 8 9 11 16 18 rings
6 15 20 22 24 25 26 rings
6 8 9 10 12 13 17 rings
6 8 9 10 14 15 20 rings

> <PUBCHEM_HEAVY_ATOM_COUNT>
28

> <PUBCHEM_ATOM_DEF_STEREO_COUNT>
4

> <PUBCHEM_ATOM_UDEF_STEREO_COUNT>
0

> <PUBCHEM_BOND_DEF_STEREO_COUNT>
0

> <PUBCHEM_BOND_UDEF_STEREO_COUNT>
0

> <PUBCHEM_ISOTOPIC_ATOM_COUNT>
0

> <PUBCHEM_COMPONENT_COUNT>
1

> <PUBCHEM_CACTVS_TAUTO_COUNT>
30

> <PUBCHEM_CONFORMER_ID>
0617D9A200000001

> <PUBCHEM_MMFF94_ENERGY>
158.642

> <PUBCHEM_FEATURE_SELFOVERLAP>
71.871

> <PUBCHEM_SHAPE_FINGERPRINT>
10863032 1 18118940706833371825
11578080 2 17680107937702212421
11640471 11 17825406093279102780
12035759 4 18040159513165757718
12160290 23 18125725586924919657
12553582 1 18342461447946423855
12788726 201 18338802208682303093
13009979 54 18115017490252452834
133893 2 17768829893458804785
13681431 1 17987798664969992809
14115302 16 18041820853908066595
15475509 8 17988369174688159117
16945 1 18339641127443100169
1813 80 17917704738558765453
20600515 1 18129925824411611577
229495 10 16878813572252775569
23419403 2 17616844435305084857
23557571 272 17774149107254190936
23559900 14 18191838246197807576
57527293 21 17415813981564109122
6669772 16 17547843518411646256
70251023 43 18055366991944873375
81228 2 17916308247243926105

> <PUBCHEM_SHAPE_MULTIPOLES>
535.14
7.32
3.19
2.72
3.06
1.13
-0.38
-4.33
-3.86
-1.01
2.14
3.38
-0.12
-2.12

> <PUBCHEM_SHAPE_SELFOVERLAP>
1178.588

> <PUBCHEM_SHAPE_VOLUME>
284.5

> <PUBCHEM_COORDINATE_TYPE>
2
5
10

$$$$
