10221081
  -OEChem-03292013303D

 28 29  0     0  0  0  0  0  0999 V2000
    0.1721    1.1880    1.0953 S   0  0  0  0  0  0  0  0  0  0  0  0
   -1.0717   -1.7408    0.2559 O   0  0  0  0  0  0  0  0  0  0  0  0
   -3.0308    0.7505   -1.0971 O   0  0  0  0  0  0  0  0  0  0  0  0
   -0.0588    0.5154    2.3621 O   0  0  0  0  0  0  0  0  0  0  0  0
    0.2489    2.6343    0.9987 O   0  0  0  0  0  0  0  0  0  0  0  0
   -2.1815    2.7835   -0.5235 O   0  5  0  0  0  0  0  0  0  0  0  0
   -2.0502    1.5436   -0.4283 N   0  3  0  0  0  0  0  0  0  0  0  0
   -2.7079   -0.5823   -0.8703 N   0  0  0  0  0  0  0  0  0  0  0  0
   -1.2208    0.7157    0.1432 C   0  0  0  0  0  0  0  0  0  0  0  0
    1.5747    0.5137    0.3038 C   0  0  0  0  0  0  0  0  0  0  0  0
   -1.6088   -0.5719   -0.1171 C   0  0  0  0  0  0  0  0  0  0  0  0
    2.2456    1.2497   -0.6729 C   0  0  0  0  0  0  0  0  0  0  0  0
    2.0243   -0.7612    0.6480 C   0  0  0  0  0  0  0  0  0  0  0  0
    3.3659    0.7108   -1.3056 C   0  0  0  0  0  0  0  0  0  0  0  0
    3.1447   -1.2999    0.0153 C   0  0  0  0  0  0  0  0  0  0  0  0
   -1.7185   -2.9466   -0.1822 C   0  0  0  0  0  0  0  0  0  0  0  0
    3.8154   -0.5638   -0.9615 C   0  0  0  0  0  0  0  0  0  0  0  0
   -0.9426   -4.1387    0.3362 C   0  0  0  0  0  0  0  0  0  0  0  0
    1.9093    2.2413   -0.9621 H   0  0  0  0  0  0  0  0  0  0  0  0
    1.5187   -1.3526    1.4060 H   0  0  0  0  0  0  0  0  0  0  0  0
    3.8873    1.2830   -2.0675 H   0  0  0  0  0  0  0  0  0  0  0  0
    3.4946   -2.2926    0.2829 H   0  0  0  0  0  0  0  0  0  0  0  0
   -2.7418   -2.9843    0.2099 H   0  0  0  0  0  0  0  0  0  0  0  0
   -1.7403   -2.9822   -1.2780 H   0  0  0  0  0  0  0  0  0  0  0  0
    4.6873   -0.9836   -1.4544 H   0  0  0  0  0  0  0  0  0  0  0  0
   -1.4077   -5.0766    0.0201 H   0  0  0  0  0  0  0  0  0  0  0  0
    0.0895   -4.1146   -0.0292 H   0  0  0  0  0  0  0  0  0  0  0  0
   -0.8924   -4.1195    1.4299 H   0  0  0  0  0  0  0  0  0  0  0  0
  1  4  2  0  0  0  0
  1  5  2  0  0  0  0
  1  9  1  0  0  0  0
  1 10  1  0  0  0  0
  2 11  1  0  0  0  0
  2 16  1  0  0  0  0
  3  7  1  0  0  0  0
  3  8  1  0  0  0  0
  6  7  1  0  0  0  0
  7  9  2  0  0  0  0
  8 11  2  0  0  0  0
  9 11  1  0  0  0  0
 10 12  2  0  0  0  0
 10 13  1  0  0  0  0
 12 14  1  0  0  0  0
 12 19  1  0  0  0  0
 13 15  2  0  0  0  0
 13 20  1  0  0  0  0
 14 17  2  0  0  0  0
 14 21  1  0  0  0  0
 15 17  1  0  0  0  0
 15 22  1  0  0  0  0
 16 18  1  0  0  0  0
 16 23  1  0  0  0  0
 16 24  1  0  0  0  0
 17 25  1  0  0  0  0
 18 26  1  0  0  0  0
 18 27  1  0  0  0  0
 18 28  1  0  0  0  0
M  CHG  2   6  -1   7   1
M  END
> <PUBCHEM_COMPOUND_CID>
10221081

> <PUBCHEM_CONFORMER_RMSD>
0.6

> <PUBCHEM_CONFORMER_DIVERSEORDER>
1
28
15
21
6
3
11
18
10
2
14
9
17
27
8
5
4
19
30
31
12
16
26
20
29
22
23
24
13
7
32
25

> <PUBCHEM_MMFF94_PARTIAL_CHARGES>
22
1 1.37
10 -0.01
11 0.35
12 -0.15
13 -0.15
14 -0.15
15 -0.15
16 0.28
17 -0.15
19 0.15
2 -0.34
20 0.15
21 0.15
22 0.15
25 0.15
3 -0.12
4 -0.65
5 -0.65
6 -0.63
7 0.95
8 -0.41
9 -0.15

> <PUBCHEM_EFFECTIVE_ROTOR_COUNT>
4

> <PUBCHEM_PHARMACOPHORE_FEATURES>
5
1 4 acceptor
1 5 acceptor
1 6 anion
5 3 7 8 9 11 rings
6 10 12 13 14 15 17 rings

> <PUBCHEM_HEAVY_ATOM_COUNT>
18

> <PUBCHEM_ATOM_DEF_STEREO_COUNT>
0

> <PUBCHEM_ATOM_UDEF_STEREO_COUNT>
0

> <PUBCHEM_BOND_DEF_STEREO_COUNT>
0

> <PUBCHEM_BOND_UDEF_STEREO_COUNT>
0

> <PUBCHEM_ISOTOPIC_ATOM_COUNT>
0

> <PUBCHEM_COMPONENT_COUNT>
1

> <PUBCHEM_CACTVS_TAUTO_COUNT>
1

> <PUBCHEM_CONFORMER_ID>
009BF61900000001

> <PUBCHEM_MMFF94_ENERGY>
27.9703

> <PUBCHEM_FEATURE_SELFOVERLAP>
25.388

> <PUBCHEM_SHAPE_FINGERPRINT>
10871710 139 16177367660585978150
12054548 360 17907586074808871358
12173636 292 18336261245689548757
12553582 1 17976540833837531771
12592029 89 17977114457095387561
13764800 53 12685096942804809509
14115302 16 18410009923218225220
14817 1 13022005374482562994
16752209 62 18339631249002384703
16945 1 18337105760739971512
19591789 44 18410006663760469383
20645476 183 18261111816343215662
20645477 70 16246015269977267695
20871999 31 18342458127451472653
21330990 113 18119845493481860387
21486144 27 14562828637687900054
21665056 4 18337397041116515015
22802520 49 18196929100687296771
23557571 272 18123457543259759392
23559900 14 18058437709289103642
2748010 2 17764575908645433563
81228 2 18050271855045792267

> <PUBCHEM_SHAPE_MULTIPOLES>
334.97
5.17
3.55
1.3
3.16
2.65
-0.46
0.89
2.52
-2.94
-0.27
0.19
-0.46
0.32

> <PUBCHEM_SHAPE_SELFOVERLAP>
696.364

> <PUBCHEM_SHAPE_VOLUME>
191.1

> <PUBCHEM_COORDINATE_TYPE>
2
5
10

$$$$
