102225530
  -OEChem-03292013293D

 57 58  0     1  0  0  0  0  0999 V2000
    3.9868   -0.8001   -1.7308 O   0  0  0  0  0  0  0  0  0  0  0  0
    2.9503   -2.0579    1.0012 O   0  0  0  0  0  0  0  0  0  0  0  0
    5.8696    0.8245   -0.1233 O   0  0  0  0  0  0  0  0  0  0  0  0
   -3.1885    1.1731   -0.1166 O   0  0  0  0  0  0  0  0  0  0  0  0
    0.9692   -3.2878   -1.2700 O   0  0  0  0  0  0  0  0  0  0  0  0
   -4.2515   -0.2264    1.4068 O   0  0  0  0  0  0  0  0  0  0  0  0
    1.3686    2.0599    0.5389 C   0  0  2  0  0  0  0  0  0  0  0  0
    3.1236    1.0906   -0.5015 C   0  0  1  0  0  0  0  0  0  0  0  0
    2.7617    1.6127    0.8947 C   0  0  0  0  0  0  0  0  0  0  0  0
    0.5023    0.6932    0.5192 C   0  0  2  0  0  0  0  0  0  0  0  0
    1.6731    2.8349   -0.8253 C   0  0  0  0  0  0  0  0  0  0  0  0
    3.1010    2.3536   -1.3058 C   0  0  0  0  0  0  0  0  0  0  0  0
    3.7649   -0.2608   -0.4390 C   0  0  1  0  0  0  0  0  0  0  0  0
    1.1060   -0.7280    0.0044 C   0  0  1  0  0  0  0  0  0  0  0  0
    0.7998    3.0393    1.5733 C   0  0  0  0  0  0  0  0  0  0  0  0
    2.6438   -1.1058    0.2795 C   0  0  0  0  0  0  0  0  0  0  0  0
    5.0881   -0.2757    0.3104 C   0  0  0  0  0  0  0  0  0  0  0  0
    0.2336   -1.8763    0.5502 C   0  0  0  0  0  0  0  0  0  0  0  0
   -0.8232    0.9541   -0.1448 C   0  0  0  0  0  0  0  0  0  0  0  0
    0.5570   -3.1909   -0.1152 C   0  0  0  0  0  0  0  0  0  0  0  0
   -1.9926    0.9343    0.5011 C   0  0  0  0  0  0  0  0  0  0  0  0
    0.3407   -4.4142    0.7374 C   0  0  0  0  0  0  0  0  0  0  0  0
   -4.2619    0.5215    0.4425 C   0  0  0  0  0  0  0  0  0  0  0  0
   -5.4611    0.8827   -0.3547 C   0  0  0  0  0  0  0  0  0  0  0  0
   -6.5346    0.0948   -0.5461 C   0  0  0  0  0  0  0  0  0  0  0  0
   -6.5679   -1.2841    0.0617 C   0  0  0  0  0  0  0  0  0  0  0  0
   -7.7586    0.4389   -1.3481 C   0  0  0  0  0  0  0  0  0  0  0  0
    2.2697    0.7301   -1.0837 H   0  0  0  0  0  0  0  0  0  0  0  0
    2.7713    0.8858    1.7130 H   0  0  0  0  0  0  0  0  0  0  0  0
    3.4192    2.4364    1.2023 H   0  0  0  0  0  0  0  0  0  0  0  0
    0.3105    0.4960    1.5867 H   0  0  0  0  0  0  0  0  0  0  0  0
    1.6954    3.9217   -0.6864 H   0  0  0  0  0  0  0  0  0  0  0  0
    0.9180    2.6133   -1.5858 H   0  0  0  0  0  0  0  0  0  0  0  0
    3.1314    2.2048   -2.3896 H   0  0  0  0  0  0  0  0  0  0  0  0
    3.8858    3.0591   -1.0152 H   0  0  0  0  0  0  0  0  0  0  0  0
    0.9917   -0.7616   -1.0901 H   0  0  0  0  0  0  0  0  0  0  0  0
    0.6883    2.5643    2.5541 H   0  0  0  0  0  0  0  0  0  0  0  0
   -0.1796    3.4177    1.2633 H   0  0  0  0  0  0  0  0  0  0  0  0
    1.4601    3.9039    1.7062 H   0  0  0  0  0  0  0  0  0  0  0  0
    4.9516   -0.1822    1.3923 H   0  0  0  0  0  0  0  0  0  0  0  0
    5.6524   -1.1953    0.1211 H   0  0  0  0  0  0  0  0  0  0  0  0
   -0.8327   -1.7014    0.3790 H   0  0  0  0  0  0  0  0  0  0  0  0
    0.3887   -1.9745    1.6311 H   0  0  0  0  0  0  0  0  0  0  0  0
   -0.8217    1.1346   -1.2165 H   0  0  0  0  0  0  0  0  0  0  0  0
    3.1645   -0.7414   -2.2454 H   0  0  0  0  0  0  0  0  0  0  0  0
   -2.0603    0.7693    1.5675 H   0  0  0  0  0  0  0  0  0  0  0  0
    6.0055    0.7283   -1.0815 H   0  0  0  0  0  0  0  0  0  0  0  0
   -0.6976   -4.4454    1.0771 H   0  0  0  0  0  0  0  0  0  0  0  0
    0.5446   -5.3134    0.1493 H   0  0  0  0  0  0  0  0  0  0  0  0
    1.0188   -4.3910    1.5939 H   0  0  0  0  0  0  0  0  0  0  0  0
   -5.4350    1.8601   -0.8305 H   0  0  0  0  0  0  0  0  0  0  0  0
   -7.6978    1.4554   -1.7507 H   0  0  0  0  0  0  0  0  0  0  0  0
   -5.5928   -1.7801    0.0470 H   0  0  0  0  0  0  0  0  0  0  0  0
   -8.6544    0.3799   -0.7217 H   0  0  0  0  0  0  0  0  0  0  0  0
   -7.2375   -1.9386   -0.5086 H   0  0  0  0  0  0  0  0  0  0  0  0
   -6.9440   -1.2404    1.0887 H   0  0  0  0  0  0  0  0  0  0  0  0
   -7.8716   -0.2492   -2.1919 H   0  0  0  0  0  0  0  0  0  0  0  0
  1 13  1  0  0  0  0
  1 45  1  0  0  0  0
  2 16  2  0  0  0  0
  3 17  1  0  0  0  0
  3 47  1  0  0  0  0
  4 21  1  0  0  0  0
  4 23  1  0  0  0  0
  5 20  2  0  0  0  0
  6 23  2  0  0  0  0
  7  9  1  0  0  0  0
  7 10  1  0  0  0  0
  7 11  1  0  0  0  0
  7 15  1  0  0  0  0
  8  9  1  0  0  0  0
  8 12  1  0  0  0  0
  8 13  1  0  0  0  0
  8 28  1  0  0  0  0
  9 29  1  0  0  0  0
  9 30  1  0  0  0  0
 10 14  1  0  0  0  0
 10 19  1  0  0  0  0
 10 31  1  0  0  0  0
 11 12  1  0  0  0  0
 11 32  1  0  0  0  0
 11 33  1  0  0  0  0
 12 34  1  0  0  0  0
 12 35  1  0  0  0  0
 13 16  1  0  0  0  0
 13 17  1  0  0  0  0
 14 16  1  0  0  0  0
 14 18  1  0  0  0  0
 14 36  1  0  0  0  0
 15 37  1  0  0  0  0
 15 38  1  0  0  0  0
 15 39  1  0  0  0  0
 17 40  1  0  0  0  0
 17 41  1  0  0  0  0
 18 20  1  0  0  0  0
 18 42  1  0  0  0  0
 18 43  1  0  0  0  0
 19 21  2  0  0  0  0
 19 44  1  0  0  0  0
 20 22  1  0  0  0  0
 21 46  1  0  0  0  0
 22 48  1  0  0  0  0
 22 49  1  0  0  0  0
 22 50  1  0  0  0  0
 23 24  1  0  0  0  0
 24 25  2  0  0  0  0
 24 51  1  0  0  0  0
 25 26  1  0  0  0  0
 25 27  1  0  0  0  0
 26 53  1  0  0  0  0
 26 55  1  0  0  0  0
 26 56  1  0  0  0  0
 27 52  1  0  0  0  0
 27 54  1  0  0  0  0
 27 57  1  0  0  0  0
M  END
> <PUBCHEM_COMPOUND_CID>
102225530

> <PUBCHEM_CONFORMER_RMSD>
1

> <PUBCHEM_CONFORMER_DIVERSEORDER>
1
10
25
37
24
11
19
13
31
33
34
21
20
22
15
5
18
38
16
9
3
27
30
6
12
7
36
32
29
14
28
17
8
4
35
2
23
26

> <PUBCHEM_MMFF94_PARTIAL_CHARGES>
26
1 -0.68
10 0.14
13 0.34
14 0.06
16 0.45
17 0.28
18 0.06
19 -0.29
2 -0.57
20 0.45
21 -0.07
22 0.06
23 0.71
24 -0.14
25 -0.28
26 0.14
27 0.14
3 -0.68
4 -0.23
44 0.15
45 0.4
46 0.15
47 0.4
5 -0.57
51 0.15
6 -0.57

> <PUBCHEM_EFFECTIVE_ROTOR_COUNT>
8.2

> <PUBCHEM_PHARMACOPHORE_FEATURES>
10
1 1 acceptor
1 1 donor
1 2 acceptor
1 3 acceptor
1 3 donor
1 5 acceptor
1 6 acceptor
3 25 26 27 hydrophobe
5 7 8 9 11 12 rings
7 7 8 9 10 13 14 16 rings

> <PUBCHEM_HEAVY_ATOM_COUNT>
27

> <PUBCHEM_ATOM_DEF_STEREO_COUNT>
5

> <PUBCHEM_ATOM_UDEF_STEREO_COUNT>
0

> <PUBCHEM_BOND_DEF_STEREO_COUNT>
1

> <PUBCHEM_BOND_UDEF_STEREO_COUNT>
0

> <PUBCHEM_ISOTOPIC_ATOM_COUNT>
0

> <PUBCHEM_COMPONENT_COUNT>
1

> <PUBCHEM_CACTVS_TAUTO_COUNT>
6

> <PUBCHEM_CONFORMER_ID>
0617D67A00000001

> <PUBCHEM_MMFF94_ENERGY>
154.6958

> <PUBCHEM_FEATURE_SELFOVERLAP>
51.573

> <PUBCHEM_SHAPE_FINGERPRINT>
10366900 7 18336270068063798065
10693767 8 18058170527146585150
1100329 8 18339363071555587608
11421498 54 17274831203373529851
11578080 2 16556486361244988586
11719270 70 18409158896675848859
12236239 1 17775288235834423961
12596602 18 16917067746388513337
12838862 33 18337939173922745176
13402501 40 18261112980748578563
13692114 37 18128240371987010255
13836976 161 18408888438184426084
15131766 46 15359693222351872246
15183329 4 18261106349672962441
15483637 11 18121499318048134859
16728300 4 17244674816850245290
16945 1 17114386941102914408
16993438 75 18042973271418684715
17138139 8 17772731987770539759
17492 54 18115046146717109828
18681886 176 18410288155168112776
20028762 73 18272932721603900463
20645477 70 18335699421476124121
21054139 6 18342731949413705319
21197605 99 18267027344110823675
21344244 181 17845949463312018270
23558518 356 17908974749135467700
23559900 14 18335134320039922025
283562 15 18198351663124394000
3060560 45 18408888425637056220
3178227 256 18410018753660488667
335352 9 18409733963659952876
338550 245 18265894838179516551
350125 39 18336543910319147117
4340502 62 18271237322145168304
46194498 28 18040434391088779797
484985 159 13848940773380250514
484989 97 18265346164444679627
59682541 52 18337656531215811037
59755656 215 18334852801954899517

> <PUBCHEM_SHAPE_MULTIPOLES>
520.43
14.16
3.91
1.22
30.96
3.66
-0.1
-2.04
-4.09
-2.89
0.39
-0.16
-0.26
0.11

> <PUBCHEM_SHAPE_SELFOVERLAP>
1068.54

> <PUBCHEM_SHAPE_VOLUME>
296.8

> <PUBCHEM_COORDINATE_TYPE>
2
5
10

$$$$
