10228242
  -OEChem-03292013303D

 63 66  0     0  0  0  0  0  0999 V2000
    3.8701    0.4618    1.8891 S   0  0  0  0  0  0  0  0  0  0  0  0
   -1.6091   -4.1927    0.1446 S   0  0  0  0  0  0  0  0  0  0  0  0
    4.6017    1.6308    2.3287 O   0  0  0  0  0  0  0  0  0  0  0  0
    3.5059   -0.5838    2.8211 O   0  0  0  0  0  0  0  0  0  0  0  0
   -1.0443    2.3344   -0.7821 O   0  0  0  0  0  0  0  0  0  0  0  0
    4.6860   -0.2400    0.5571 N   0  0  0  0  0  0  0  0  0  0  0  0
    5.4492   -1.1086   -2.0756 N   0  0  0  0  0  0  0  0  0  0  0  0
   -2.3169    0.2618    0.3000 N   0  0  0  0  0  0  0  0  0  0  0  0
   -4.3731   -2.5040    0.1145 N   0  0  0  0  0  0  0  0  0  0  0  0
   -5.3693   -1.5925    0.1210 N   0  0  0  0  0  0  0  0  0  0  0  0
   -0.7806   -1.6003    0.2749 N   0  0  0  0  0  0  0  0  0  0  0  0
    5.2421    0.7238   -0.4347 C   0  0  0  0  0  0  0  0  0  0  0  0
    3.9696   -1.3607   -0.1157 C   0  0  0  0  0  0  0  0  0  0  0  0
    6.1648   -0.0156   -1.4026 C   0  0  0  0  0  0  0  0  0  0  0  0
    4.9167   -2.0598   -1.0898 C   0  0  0  0  0  0  0  0  0  0  0  0
    2.3964    1.0161    1.0909 C   0  0  0  0  0  0  0  0  0  0  0  0
    6.3276   -1.7904   -3.0255 C   0  0  0  0  0  0  0  0  0  0  0  0
    1.3029    0.1684    1.0201 C   0  0  0  0  0  0  0  0  0  0  0  0
    0.1386    0.6071    0.3893 C   0  0  0  0  0  0  0  0  0  0  0  0
    2.3577    2.2902    0.5480 C   0  0  0  0  0  0  0  0  0  0  0  0
   -1.0421   -0.3127    0.3158 C   0  0  0  0  0  0  0  0  0  0  0  0
   -3.3420   -0.6025    0.2283 C   0  0  0  0  0  0  0  0  0  0  0  0
    0.0840    1.8872   -0.1621 C   0  0  0  0  0  0  0  0  0  0  0  0
    1.1935    2.7288   -0.0826 C   0  0  0  0  0  0  0  0  0  0  0  0
   -4.7249   -0.4212    0.1926 C   0  0  0  0  0  0  0  0  0  0  0  0
   -3.1229   -1.9543    0.1795 C   0  0  0  0  0  0  0  0  0  0  0  0
   -5.4882    0.8368    0.2233 C   0  0  0  0  0  0  0  0  0  0  0  0
   -1.8063   -2.5323    0.2027 C   0  0  0  0  0  0  0  0  0  0  0  0
   -5.7592    1.4186   -1.1782 C   0  0  0  0  0  0  0  0  0  0  0  0
   -4.7537   -3.8961    0.0424 C   0  0  0  0  0  0  0  0  0  0  0  0
   -6.5807    2.6970   -1.1272 C   0  0  0  0  0  0  0  0  0  0  0  0
   -1.2990    3.7365   -0.7308 C   0  0  0  0  0  0  0  0  0  0  0  0
   -2.7943    3.9681   -0.7768 C   0  0  0  0  0  0  0  0  0  0  0  0
    4.4351    1.2061   -0.9960 H   0  0  0  0  0  0  0  0  0  0  0  0
    5.8249    1.4967    0.0764 H   0  0  0  0  0  0  0  0  0  0  0  0
    3.6289   -2.0894    0.6269 H   0  0  0  0  0  0  0  0  0  0  0  0
    3.1040   -0.9893   -0.6735 H   0  0  0  0  0  0  0  0  0  0  0  0
    7.0374   -0.4014   -0.8584 H   0  0  0  0  0  0  0  0  0  0  0  0
    6.5318    0.7026   -2.1456 H   0  0  0  0  0  0  0  0  0  0  0  0
    4.3603   -2.8543   -1.6015 H   0  0  0  0  0  0  0  0  0  0  0  0
    5.7336   -2.5369   -0.5317 H   0  0  0  0  0  0  0  0  0  0  0  0
    5.7811   -2.5765   -3.5582 H   0  0  0  0  0  0  0  0  0  0  0  0
    7.1957   -2.2455   -2.5350 H   0  0  0  0  0  0  0  0  0  0  0  0
    6.6893   -1.0894   -3.7859 H   0  0  0  0  0  0  0  0  0  0  0  0
    1.3480   -0.8242    1.4588 H   0  0  0  0  0  0  0  0  0  0  0  0
    3.2134    2.9571    0.5910 H   0  0  0  0  0  0  0  0  0  0  0  0
    1.2072    3.7207   -0.5244 H   0  0  0  0  0  0  0  0  0  0  0  0
   -2.4429    1.2666    0.3585 H   0  0  0  0  0  0  0  0  0  0  0  0
   -6.4461    0.6756    0.7352 H   0  0  0  0  0  0  0  0  0  0  0  0
   -4.9495    1.5813    0.8228 H   0  0  0  0  0  0  0  0  0  0  0  0
   -4.8085    1.6173   -1.6866 H   0  0  0  0  0  0  0  0  0  0  0  0
   -6.2912    0.6778   -1.7880 H   0  0  0  0  0  0  0  0  0  0  0  0
   -4.3503   -4.3320   -0.8737 H   0  0  0  0  0  0  0  0  0  0  0  0
   -4.4174   -4.4078    0.9462 H   0  0  0  0  0  0  0  0  0  0  0  0
   -5.8458   -3.9654   -0.0011 H   0  0  0  0  0  0  0  0  0  0  0  0
   -7.5564    2.5166   -0.6650 H   0  0  0  0  0  0  0  0  0  0  0  0
   -6.0647    3.4706   -0.5499 H   0  0  0  0  0  0  0  0  0  0  0  0
   -6.7483    3.0812   -2.1382 H   0  0  0  0  0  0  0  0  0  0  0  0
   -0.8240    4.2213   -1.5907 H   0  0  0  0  0  0  0  0  0  0  0  0
   -0.9280    4.1866    0.1986 H   0  0  0  0  0  0  0  0  0  0  0  0
   -3.2883    3.4844    0.0717 H   0  0  0  0  0  0  0  0  0  0  0  0
   -3.2219    3.5358   -1.6870 H   0  0  0  0  0  0  0  0  0  0  0  0
   -3.0253    5.0369   -0.7542 H   0  0  0  0  0  0  0  0  0  0  0  0
  1  3  2  0  0  0  0
  1  4  2  0  0  0  0
  1  6  1  0  0  0  0
  1 16  1  0  0  0  0
  2 28  2  0  0  0  0
  5 23  1  0  0  0  0
  5 32  1  0  0  0  0
  6 12  1  0  0  0  0
  6 13  1  0  0  0  0
  7 14  1  0  0  0  0
  7 15  1  0  0  0  0
  7 17  1  0  0  0  0
  8 21  1  0  0  0  0
  8 22  1  0  0  0  0
  8 48  1  0  0  0  0
  9 10  1  0  0  0  0
  9 26  1  0  0  0  0
  9 30  1  0  0  0  0
 10 25  2  0  0  0  0
 11 21  2  0  0  0  0
 11 28  1  0  0  0  0
 12 14  1  0  0  0  0
 12 34  1  0  0  0  0
 12 35  1  0  0  0  0
 13 15  1  0  0  0  0
 13 36  1  0  0  0  0
 13 37  1  0  0  0  0
 14 38  1  0  0  0  0
 14 39  1  0  0  0  0
 15 40  1  0  0  0  0
 15 41  1  0  0  0  0
 16 18  2  0  0  0  0
 16 20  1  0  0  0  0
 17 42  1  0  0  0  0
 17 43  1  0  0  0  0
 17 44  1  0  0  0  0
 18 19  1  0  0  0  0
 18 45  1  0  0  0  0
 19 21  1  0  0  0  0
 19 23  2  0  0  0  0
 20 24  2  0  0  0  0
 20 46  1  0  0  0  0
 22 25  1  0  0  0  0
 22 26  2  0  0  0  0
 23 24  1  0  0  0  0
 24 47  1  0  0  0  0
 25 27  1  0  0  0  0
 26 28  1  0  0  0  0
 27 29  1  0  0  0  0
 27 49  1  0  0  0  0
 27 50  1  0  0  0  0
 29 31  1  0  0  0  0
 29 51  1  0  0  0  0
 29 52  1  0  0  0  0
 30 53  1  0  0  0  0
 30 54  1  0  0  0  0
 30 55  1  0  0  0  0
 31 56  1  0  0  0  0
 31 57  1  0  0  0  0
 31 58  1  0  0  0  0
 32 33  1  0  0  0  0
 32 59  1  0  0  0  0
 32 60  1  0  0  0  0
 33 61  1  0  0  0  0
 33 62  1  0  0  0  0
 33 63  1  0  0  0  0
M  END
> <PUBCHEM_COMPOUND_CID>
10228242

> <PUBCHEM_CONFORMER_RMSD>
1

> <PUBCHEM_CONFORMER_DIVERSEORDER>
2
71
20
27
79
25
24
56
51
70
64
76
75
32
42
55
52
40
38
69
21
34
81
3
5
31
80
16
26
14
61
67
54
77
22
29
53
37
35
1
41
43
59
19
73
50
68
13
60
47
23
46
17
65
66
4
84
12
58
33
57
30
11
72
49
63
39
45
8
28
62
15
18
83
9
36
44
10
6
78
7
82
48
74

> <PUBCHEM_MMFF94_PARTIAL_CHARGES>
34
1 1.45
10 -0.71
11 -0.66
12 0.36
13 0.36
14 0.27
15 0.27
16 -0.01
17 0.27
18 -0.15
19 0.09
2 -0.38
20 -0.15
21 0.41
22 0.08
23 0.08
24 -0.15
25 0.11
26 -0.24
27 0.18
28 0.68
3 -0.65
30 0.26
32 0.28
4 -0.65
45 0.15
46 0.15
47 0.15
48 0.4
5 -0.36
6 -0.85
7 -0.81
8 -0.53
9 0.31

> <PUBCHEM_EFFECTIVE_ROTOR_COUNT>
8.2

> <PUBCHEM_PHARMACOPHORE_FEATURES>
13
1 10 acceptor
1 2 acceptor
1 3 acceptor
1 31 hydrophobe
1 4 acceptor
1 5 acceptor
1 7 cation
1 8 donor
3 8 11 21 cation
5 9 10 22 25 26 rings
6 16 18 19 20 23 24 rings
6 6 7 12 13 14 15 rings
6 8 11 21 22 26 28 rings

> <PUBCHEM_HEAVY_ATOM_COUNT>
33

> <PUBCHEM_ATOM_DEF_STEREO_COUNT>
0

> <PUBCHEM_ATOM_UDEF_STEREO_COUNT>
0

> <PUBCHEM_BOND_DEF_STEREO_COUNT>
0

> <PUBCHEM_BOND_UDEF_STEREO_COUNT>
0

> <PUBCHEM_ISOTOPIC_ATOM_COUNT>
0

> <PUBCHEM_COMPONENT_COUNT>
1

> <PUBCHEM_CACTVS_TAUTO_COUNT>
3

> <PUBCHEM_CONFORMER_ID>
009C121200000002

> <PUBCHEM_MMFF94_ENERGY>
75.1896

> <PUBCHEM_FEATURE_SELFOVERLAP>
66.094

> <PUBCHEM_SHAPE_FINGERPRINT>
10369192 42 17629185299046922144
11200772 71 18041293105501485292
12107183 9 18189595191021874611
12128747 34 17131281164221460536
12422481 6 17775568662685776807
12788726 201 18186800275224154880
13402501 40 18202010919352223054
13533116 47 17203333351038240602
13583140 156 15481533390563387170
13782708 43 17775289361005027518
14251757 5 18334021604848922830
14790565 3 17976821987160816793
14910302 57 18342175557769433836
15052358 14 18411420570766774343
15328829 1 17168441366984500413
15420108 30 17046809302570748240
15475509 8 18339936934409127616
15510800 12 17558838287403418622
15629462 23 16915663562423814913
15664445 248 18262801903929676824
17492 89 17833271196337262387
17852330 162 18335154068805562278
1813 80 17749661999808648276
19319366 153 17095791201120857754
19958102 18 18341612560059909769
21033648 29 18057019480759456449
21279426 13 18343584027600817171
21307412 95 18200889382725861126
21641784 216 17457780085480499420
2215653 11 18060420196666345278
22182313 1 18201143387618980832
23522609 53 17168152195653189981
23559900 14 18201441401918363688
244849 19 17631718384452113496
437815 12 17989211417210427976
4435113 14 18059591152114353886
46194498 28 18343306998717371164
563151 74 16199856389195389906
59755656 215 18340201878383861093
6698420 124 18060146402087900441
6823239 73 18342740745638466482
7237137 82 17894627037226813269
77296 10 16701722965133876983

> <PUBCHEM_SHAPE_MULTIPOLES>
639.33
15.78
4.78
1.8
3.59
0.64
0.1
2.77
6.84
-6.46
1.08
4.32
0.1
3.77

> <PUBCHEM_SHAPE_SELFOVERLAP>
1337.247

> <PUBCHEM_SHAPE_VOLUME>
367.4

> <PUBCHEM_COORDINATE_TYPE>
2
5
10

$$$$
