102220567
  -OEChem-03292013293D

 39 40  0     1  0  0  0  0  0999 V2000
    1.3910    0.8498   -0.0093 O   0  0  0  0  0  0  0  0  0  0  0  0
   -0.5032   -0.5127   -0.0053 O   0  0  0  0  0  0  0  0  0  0  0  0
    3.8289   -2.3211   -0.9415 O   0  0  0  0  0  0  0  0  0  0  0  0
    4.9769    0.1147    0.1094 O   0  0  0  0  0  0  0  0  0  0  0  0
    1.1620   -2.7895    0.2201 O   0  0  0  0  0  0  0  0  0  0  0  0
    2.3052    3.3419    0.7040 O   0  0  0  0  0  0  0  0  0  0  0  0
   -2.4090    1.6654   -1.3359 N   0  0  0  0  0  0  0  0  0  0  0  0
    3.1359   -1.4309   -0.0653 C   0  0  1  0  0  0  0  0  0  0  0  0
    3.6317   -0.0119   -0.3439 C   0  0  1  0  0  0  0  0  0  0  0  0
    1.6308   -1.5484   -0.3066 C   0  0  2  0  0  0  0  0  0  0  0  0
    2.7571    1.0197    0.3727 C   0  0  1  0  0  0  0  0  0  0  0  0
    0.8672   -0.4171    0.3819 C   0  0  1  0  0  0  0  0  0  0  0  0
    3.1603    2.4470    0.0163 C   0  0  0  0  0  0  0  0  0  0  0  0
   -1.3458    0.1761    0.9054 C   0  0  0  0  0  0  0  0  0  0  0  0
   -2.7699    0.0433    0.4515 C   0  0  0  0  0  0  0  0  0  0  0  0
   -3.2517    0.7764   -0.6329 C   0  0  0  0  0  0  0  0  0  0  0  0
   -3.6163   -0.8302    1.1341 C   0  0  0  0  0  0  0  0  0  0  0  0
   -4.5800    0.6359   -1.0348 C   0  0  0  0  0  0  0  0  0  0  0  0
   -4.9447   -0.9707    0.7323 C   0  0  0  0  0  0  0  0  0  0  0  0
   -5.4266   -0.2377   -0.3522 C   0  0  0  0  0  0  0  0  0  0  0  0
    3.3949   -1.7423    0.9534 H   0  0  0  0  0  0  0  0  0  0  0  0
    3.6323    0.1726   -1.4252 H   0  0  0  0  0  0  0  0  0  0  0  0
    1.4137   -1.5589   -1.3813 H   0  0  0  0  0  0  0  0  0  0  0  0
    2.8303    0.9093    1.4633 H   0  0  0  0  0  0  0  0  0  0  0  0
    0.9435   -0.5299    1.4726 H   0  0  0  0  0  0  0  0  0  0  0  0
    3.0402    2.6298   -1.0568 H   0  0  0  0  0  0  0  0  0  0  0  0
    4.1944    2.6566    0.3057 H   0  0  0  0  0  0  0  0  0  0  0  0
    3.6046   -2.0804   -1.8566 H   0  0  0  0  0  0  0  0  0  0  0  0
    4.9853   -0.0337    1.0704 H   0  0  0  0  0  0  0  0  0  0  0  0
    1.3447   -2.8002    1.1752 H   0  0  0  0  0  0  0  0  0  0  0  0
   -1.2313   -0.2566    1.9075 H   0  0  0  0  0  0  0  0  0  0  0  0
   -1.0638    1.2333    0.9834 H   0  0  0  0  0  0  0  0  0  0  0  0
    2.5765    4.2431    0.4596 H   0  0  0  0  0  0  0  0  0  0  0  0
   -3.2565   -1.4105    1.9796 H   0  0  0  0  0  0  0  0  0  0  0  0
   -4.9685    1.2010   -1.8783 H   0  0  0  0  0  0  0  0  0  0  0  0
   -5.6038   -1.6513    1.2633 H   0  0  0  0  0  0  0  0  0  0  0  0
   -6.4608   -0.3473   -0.6651 H   0  0  0  0  0  0  0  0  0  0  0  0
   -2.7761    2.1814   -2.1249 H   0  0  0  0  0  0  0  0  0  0  0  0
   -1.4275    1.7428   -1.1095 H   0  0  0  0  0  0  0  0  0  0  0  0
  1 11  1  0  0  0  0
  1 12  1  0  0  0  0
  2 12  1  0  0  0  0
  2 14  1  0  0  0  0
  3  8  1  0  0  0  0
  3 28  1  0  0  0  0
  4  9  1  0  0  0  0
  4 29  1  0  0  0  0
  5 10  1  0  0  0  0
  5 30  1  0  0  0  0
  6 13  1  0  0  0  0
  6 33  1  0  0  0  0
  7 16  1  0  0  0  0
  7 38  1  0  0  0  0
  7 39  1  0  0  0  0
  8  9  1  0  0  0  0
  8 10  1  0  0  0  0
  8 21  1  0  0  0  0
  9 11  1  0  0  0  0
  9 22  1  0  0  0  0
 10 12  1  0  0  0  0
 10 23  1  0  0  0  0
 11 13  1  0  0  0  0
 11 24  1  0  0  0  0
 12 25  1  0  0  0  0
 13 26  1  0  0  0  0
 13 27  1  0  0  0  0
 14 15  1  0  0  0  0
 14 31  1  0  0  0  0
 14 32  1  0  0  0  0
 15 16  1  0  0  0  0
 15 17  2  0  0  0  0
 16 18  2  0  0  0  0
 17 19  1  0  0  0  0
 17 34  1  0  0  0  0
 18 20  1  0  0  0  0
 18 35  1  0  0  0  0
 19 20  2  0  0  0  0
 19 36  1  0  0  0  0
 20 37  1  0  0  0  0
M  END
> <PUBCHEM_COMPOUND_CID>
102220567

> <PUBCHEM_CONFORMER_RMSD>
0.8

> <PUBCHEM_CONFORMER_DIVERSEORDER>
1
68
72
55
61
11
8
50
78
6
57
28
75
12
73
58
41
64
53
3
52
35
66
33
14
54
20
37
19
65
29
21
36
43
31
76
17
46
70
27
48
45
56
44
24
80
23
39
9
59
5
71
18
67
13
40
74
2
22
49
51
15
10
7
38
4
16
60
47
26
69
62
32
63
25
79
34
77
30
42

> <PUBCHEM_MMFF94_PARTIAL_CHARGES>
30
1 -0.56
10 0.28
11 0.28
12 0.56
13 0.28
14 0.42
15 -0.14
16 0.1
17 -0.15
18 -0.15
19 -0.15
2 -0.56
20 -0.15
28 0.4
29 0.4
3 -0.68
30 0.4
33 0.4
34 0.15
35 0.15
36 0.15
37 0.15
38 0.4
39 0.4
4 -0.68
5 -0.68
6 -0.68
7 -0.9
8 0.28
9 0.28

> <PUBCHEM_EFFECTIVE_ROTOR_COUNT>
5.2

> <PUBCHEM_PHARMACOPHORE_FEATURES>
14
1 1 acceptor
1 2 acceptor
1 3 acceptor
1 3 donor
1 4 acceptor
1 4 donor
1 5 acceptor
1 5 donor
1 6 acceptor
1 6 donor
1 7 cation
1 7 donor
6 1 8 9 10 11 12 rings
6 15 16 17 18 19 20 rings

> <PUBCHEM_HEAVY_ATOM_COUNT>
20

> <PUBCHEM_ATOM_DEF_STEREO_COUNT>
5

> <PUBCHEM_ATOM_UDEF_STEREO_COUNT>
0

> <PUBCHEM_BOND_DEF_STEREO_COUNT>
0

> <PUBCHEM_BOND_UDEF_STEREO_COUNT>
0

> <PUBCHEM_ISOTOPIC_ATOM_COUNT>
0

> <PUBCHEM_COMPONENT_COUNT>
1

> <PUBCHEM_CACTVS_TAUTO_COUNT>
3

> <PUBCHEM_CONFORMER_ID>
0617C31700000001

> <PUBCHEM_MMFF94_ENERGY>
65.2986

> <PUBCHEM_FEATURE_SELFOVERLAP>
71.109

> <PUBCHEM_SHAPE_FINGERPRINT>
10366900 7 18113907039274148403
10498660 4 17313378985963780805
11471102 20 18411982442757289554
11615757 297 18201722838409219139
12236239 1 17203612579319384419
12403259 226 18334574594825782884
12403259 415 18260830431629409385
12730499 353 18337116768693438210
128620 24 18272932717545770351
12916754 54 18412830170749283419
13402501 40 18260264178724948148
13631057 29 12109514808162365225
15961568 22 17241049936797199276
17844677 252 18342183241561183825
1813 80 17559410054349360582
18186145 218 18272938253732117776
200 152 18130785638383274379
20645477 56 17967812709590063637
20645477 70 18342177739106859943
21065201 7 17095240319956315867
221357 26 18410572842896262309
221490 88 18409733924055836942
22289505 5 18409444752782926060
23227448 37 18339358698925816231
23402539 116 17530679935653376915
23557571 272 17749111110534798565
23559900 14 17967533458646705087
23596394 208 18261671480694115215
23598288 3 16987162617644936649
3060560 45 18342176661623820318
312423 11 17988658362740233705
3268164 11 17095234818409385823
341906 21 16370997508219399277
351380 180 18186516609550138313
474 4 18270962465813040824
5104073 3 18336264535692162801
5281201 14 18410577258011664885
58051976 378 18342458144736791095
7471813 234 17846775174584071504
9709674 26 18333734637041739307

> <PUBCHEM_SHAPE_MULTIPOLES>
371.39
11.13
2.5
0.99
6.62
0.69
0.05
-0.34
0.97
-3.34
0
0.74
0.09
1.55

> <PUBCHEM_SHAPE_SELFOVERLAP>
772.203

> <PUBCHEM_SHAPE_VOLUME>
209.7

> <PUBCHEM_COORDINATE_TYPE>
2
5
10

$$$$
