10223013
  -OEChem-03292013303D

 52 55  0     0  0  0  0  0  0999 V2000
    2.9063    0.8645    0.7270 O   0  0  0  0  0  0  0  0  0  0  0  0
    2.6489   -1.8354    1.0508 O   0  0  0  0  0  0  0  0  0  0  0  0
    1.9440   -4.4193    0.2063 O   0  0  0  0  0  0  0  0  0  0  0  0
    6.3491    1.2916   -0.1696 O   0  0  0  0  0  0  0  0  0  0  0  0
    5.3993    0.1606    1.5644 O   0  0  0  0  0  0  0  0  0  0  0  0
   -1.2768   -0.4640   -0.8451 N   0  0  0  0  0  0  0  0  0  0  0  0
    2.1475   -3.3082   -1.8316 N   0  0  0  0  0  0  0  0  0  0  0  0
   -0.8958    2.0123   -0.5835 C   0  0  0  0  0  0  0  0  0  0  0  0
   -0.5591    0.6637   -0.5267 C   0  0  0  0  0  0  0  0  0  0  0  0
   -2.1549    2.6883   -1.0428 C   0  0  0  0  0  0  0  0  0  0  0  0
    0.0662    2.9556   -0.1938 C   0  0  0  0  0  0  0  0  0  0  0  0
   -1.9789    4.0836   -0.4282 C   0  0  0  0  0  0  0  0  0  0  0  0
   -0.4669    4.3467   -0.3576 C   0  0  0  0  0  0  0  0  0  0  0  0
    0.7029    0.2465   -0.0886 C   0  0  0  0  0  0  0  0  0  0  0  0
   -0.5189   -1.5819   -0.6186 C   0  0  0  0  0  0  0  0  0  0  0  0
    0.7102   -1.1754   -0.1511 C   0  0  0  0  0  0  0  0  0  0  0  0
    1.3286    2.5837    0.2346 C   0  0  0  0  0  0  0  0  0  0  0  0
    1.6545    1.2220    0.2961 C   0  0  0  0  0  0  0  0  0  0  0  0
   -2.6322   -0.4832   -1.3552 C   0  0  0  0  0  0  0  0  0  0  0  0
   -1.0399   -2.9431   -0.8733 C   0  0  0  0  0  0  0  0  0  0  0  0
    1.7806   -2.0691    0.1947 C   0  0  0  0  0  0  0  0  0  0  0  0
   -3.6386   -0.5472   -0.2382 C   0  0  0  0  0  0  0  0  0  0  0  0
   -3.1986   -0.5791    1.0782 C   0  0  0  0  0  0  0  0  0  0  0  0
   -4.9936   -0.5739   -0.5387 C   0  0  0  0  0  0  0  0  0  0  0  0
    4.0066    1.3522   -0.0308 C   0  0  0  0  0  0  0  0  0  0  0  0
    1.9679   -3.4095   -0.4773 C   0  0  0  0  0  0  0  0  0  0  0  0
   -4.1314   -0.6389    2.1136 C   0  0  0  0  0  0  0  0  0  0  0  0
   -5.9265   -0.6334    0.4966 C   0  0  0  0  0  0  0  0  0  0  0  0
   -5.4952   -0.6660    1.8228 C   0  0  0  0  0  0  0  0  0  0  0  0
    5.2948    0.8562    0.5652 C   0  0  0  0  0  0  0  0  0  0  0  0
   -2.1793    2.7408   -2.1358 H   0  0  0  0  0  0  0  0  0  0  0  0
   -3.0658    2.2261   -0.6595 H   0  0  0  0  0  0  0  0  0  0  0  0
   -2.3905    4.0826    0.5910 H   0  0  0  0  0  0  0  0  0  0  0  0
   -2.5113    4.8578   -0.9895 H   0  0  0  0  0  0  0  0  0  0  0  0
   -0.0970    4.7835   -1.2909 H   0  0  0  0  0  0  0  0  0  0  0  0
   -0.2145    4.9941    0.4868 H   0  0  0  0  0  0  0  0  0  0  0  0
    2.0403    3.3468    0.5341 H   0  0  0  0  0  0  0  0  0  0  0  0
   -2.7446   -1.3478   -2.0187 H   0  0  0  0  0  0  0  0  0  0  0  0
   -2.7885    0.3949   -1.9856 H   0  0  0  0  0  0  0  0  0  0  0  0
   -0.8107   -3.2586   -1.8959 H   0  0  0  0  0  0  0  0  0  0  0  0
   -2.1216   -3.0199   -0.7306 H   0  0  0  0  0  0  0  0  0  0  0  0
   -0.6154   -3.6724   -0.1780 H   0  0  0  0  0  0  0  0  0  0  0  0
   -2.1598   -0.5615    1.3837 H   0  0  0  0  0  0  0  0  0  0  0  0
   -5.3367   -0.5486   -1.5691 H   0  0  0  0  0  0  0  0  0  0  0  0
    4.0363    2.4463   -0.0143 H   0  0  0  0  0  0  0  0  0  0  0  0
    3.9321    0.9822   -1.0595 H   0  0  0  0  0  0  0  0  0  0  0  0
   -3.7968   -0.6642    3.1468 H   0  0  0  0  0  0  0  0  0  0  0  0
   -6.9885   -0.6544    0.2703 H   0  0  0  0  0  0  0  0  0  0  0  0
   -6.2215   -0.7124    2.6290 H   0  0  0  0  0  0  0  0  0  0  0  0
    2.1565   -2.4159   -2.3154 H   0  0  0  0  0  0  0  0  0  0  0  0
    2.2816   -4.1356   -2.4033 H   0  0  0  0  0  0  0  0  0  0  0  0
    7.2042    0.9813    0.1976 H   0  0  0  0  0  0  0  0  0  0  0  0
  1 18  1  0  0  0  0
  1 25  1  0  0  0  0
  2 21  2  0  0  0  0
  3 26  2  0  0  0  0
  4 30  1  0  0  0  0
  4 52  1  0  0  0  0
  5 30  2  0  0  0  0
  6  9  1  0  0  0  0
  6 15  1  0  0  0  0
  6 19  1  0  0  0  0
  7 26  1  0  0  0  0
  7 50  1  0  0  0  0
  7 51  1  0  0  0  0
  8  9  2  0  0  0  0
  8 10  1  0  0  0  0
  8 11  1  0  0  0  0
  9 14  1  0  0  0  0
 10 12  1  0  0  0  0
 10 31  1  0  0  0  0
 10 32  1  0  0  0  0
 11 13  1  0  0  0  0
 11 17  2  0  0  0  0
 12 13  1  0  0  0  0
 12 33  1  0  0  0  0
 12 34  1  0  0  0  0
 13 35  1  0  0  0  0
 13 36  1  0  0  0  0
 14 16  1  0  0  0  0
 14 18  2  0  0  0  0
 15 16  2  0  0  0  0
 15 20  1  0  0  0  0
 16 21  1  0  0  0  0
 17 18  1  0  0  0  0
 17 37  1  0  0  0  0
 19 22  1  0  0  0  0
 19 38  1  0  0  0  0
 19 39  1  0  0  0  0
 20 40  1  0  0  0  0
 20 41  1  0  0  0  0
 20 42  1  0  0  0  0
 21 26  1  0  0  0  0
 22 23  2  0  0  0  0
 22 24  1  0  0  0  0
 23 27  1  0  0  0  0
 23 43  1  0  0  0  0
 24 28  2  0  0  0  0
 24 44  1  0  0  0  0
 25 30  1  0  0  0  0
 25 45  1  0  0  0  0
 25 46  1  0  0  0  0
 27 29  2  0  0  0  0
 27 47  1  0  0  0  0
 28 29  1  0  0  0  0
 28 48  1  0  0  0  0
 29 49  1  0  0  0  0
M  END
> <PUBCHEM_COMPOUND_CID>
10223013

> <PUBCHEM_CONFORMER_RMSD>
1

> <PUBCHEM_CONFORMER_DIVERSEORDER>
1
27
35
13
11
28
16
19
8
22
12
21
34
9
31
33
10
20
32
17
26
4
18
25
7
29
2
15
30
24
6
14
23
5
3

> <PUBCHEM_MMFF94_PARTIAL_CHARGES>
37
1 -0.36
10 0.14
11 -0.14
13 0.14
15 -0.33
16 -0.09
17 -0.15
18 0.08
19 0.4
2 -0.57
20 0.18
21 0.66
22 -0.14
23 -0.15
24 -0.15
25 0.34
26 0.63
27 -0.15
28 -0.15
29 -0.15
3 -0.57
30 0.66
37 0.15
4 -0.65
43 0.15
44 0.15
47 0.15
48 0.15
49 0.15
5 -0.57
50 0.37
51 0.37
52 0.5
6 0.05
7 -0.8
8 -0.14
9 -0.15

> <PUBCHEM_EFFECTIVE_ROTOR_COUNT>
7.6

> <PUBCHEM_PHARMACOPHORE_FEATURES>
12
1 1 acceptor
1 2 acceptor
1 3 acceptor
1 4 acceptor
1 5 acceptor
1 6 cation
1 7 donor
3 4 5 30 anion
5 6 9 14 15 16 rings
5 8 10 11 12 13 rings
6 22 23 24 27 28 29 rings
6 8 9 11 14 17 18 rings

> <PUBCHEM_HEAVY_ATOM_COUNT>
30

> <PUBCHEM_ATOM_DEF_STEREO_COUNT>
0

> <PUBCHEM_ATOM_UDEF_STEREO_COUNT>
0

> <PUBCHEM_BOND_DEF_STEREO_COUNT>
0

> <PUBCHEM_BOND_UDEF_STEREO_COUNT>
0

> <PUBCHEM_ISOTOPIC_ATOM_COUNT>
0

> <PUBCHEM_COMPONENT_COUNT>
1

> <PUBCHEM_CACTVS_TAUTO_COUNT>
2

> <PUBCHEM_CONFORMER_ID>
009BFDA500000001

> <PUBCHEM_MMFF94_ENERGY>
79.8436

> <PUBCHEM_FEATURE_SELFOVERLAP>
61.136

> <PUBCHEM_SHAPE_FINGERPRINT>
10190108 129 18266764444207694433
11445158 3 17823979137333647588
11578080 2 18057610858764143833
12058002 1 17387157324046538724
12422481 6 18341047411304636600
12553582 1 18265595732072106556
12788726 201 18044672901024063387
13140716 1 18122623022423958929
13540713 4 18194961838183174964
13617811 41 18335153015626334884
13911987 19 18262790895284666396
13965767 371 17772780233116803745
14178342 30 16899606715286395288
14790565 3 18338241594833083445
14840074 17 18411136982655552480
14955137 171 18263371458672081953
15420108 30 17988928868655618831
15775530 1 18050007692544168432
1813 80 17985284988258027719
19319366 153 17750506464126787112
19591789 44 18193550301444650268
20028762 73 18056758964769923959
20739085 24 18269294408079185183
21796203 349 18046094758421327313
22182313 1 18340204072822044756
23558518 356 18045499707945255293
23559900 14 17692517928430039030
2748010 2 18195796380230028541
3178227 256 18264218074341555297
3380486 145 18408603674159461709
350125 39 18268431239716529820
3737641 26 18341621364711049182
3886686 26 16974175555322722633
469060 322 18337403685431474521
5171179 24 18125165926652813082
5265222 85 18412544349920108780
57527306 92 15698006227724596361
59554788 170 18341620260947055302
59755656 215 18408881823913626356
6004065 56 18336260258585607051

> <PUBCHEM_SHAPE_MULTIPOLES>
578.08
10.3
5.01
1.35
1.32
0.95
0.34
-1.04
4.8
2.03
-1.56
-0.96
-0.54
1.08

> <PUBCHEM_SHAPE_SELFOVERLAP>
1277.206

> <PUBCHEM_SHAPE_VOLUME>
310.8

> <PUBCHEM_COORDINATE_TYPE>
2
5
10

$$$$
