102293494
  -OEChem-03292013293D

 66 71  0     1  0  0  0  0  0999 V2000
    0.4034    2.2454    1.5529 O   0  0  0  0  0  0  0  0  0  0  0  0
   -1.1949    1.8482   -0.6245 O   0  0  0  0  0  0  0  0  0  0  0  0
    0.1256   -0.6621    2.7270 O   0  0  0  0  0  0  0  0  0  0  0  0
   -2.9794   -2.5199   -0.5356 O   0  0  0  0  0  0  0  0  0  0  0  0
    1.6273   -0.1888   -3.0809 O   0  0  0  0  0  0  0  0  0  0  0  0
   -4.8594    1.0703    0.0247 O   0  0  0  0  0  0  0  0  0  0  0  0
    3.3768   -1.8896    1.6443 O   0  0  0  0  0  0  0  0  0  0  0  0
    2.5267    1.3328   -0.1615 N   0  0  1  0  0  0  0  0  0  0  0  0
    0.8567   -0.6204   -0.8016 C   0  0  1  0  0  0  0  0  0  0  0  0
   -0.6942   -1.0098   -1.0199 C   0  0  1  0  0  0  0  0  0  0  0  0
    0.2527    1.0086    0.8812 C   0  0  2  0  0  0  0  0  0  0  0  0
    1.1417    0.8964   -0.4669 C   0  0  1  0  0  0  0  0  0  0  0  0
   -1.4731   -0.7154    0.2240 C   0  0  1  0  0  0  0  0  0  0  0  0
   -1.2269    0.8357    0.4468 C   0  0  2  0  0  0  0  0  0  0  0  0
    1.3102   -1.2263    0.5979 C   0  0  2  0  0  0  0  0  0  0  0  0
    0.9233   -0.1419    1.6796 C   0  0  2  0  0  0  0  0  0  0  0  0
   -3.1466   -0.2100   -1.2337 C   0  0  1  0  0  0  0  0  0  0  0  0
   -1.7349   -0.3952   -2.0463 C   0  0  0  0  0  0  0  0  0  0  0  0
   -2.9056   -1.1696   -0.1022 C   0  0  1  0  0  0  0  0  0  0  0  0
    1.5951   -1.1699   -2.0437 C   0  0  2  0  0  0  0  0  0  0  0  0
   -2.5752    1.3619    0.8851 C   0  0  0  0  0  0  0  0  0  0  0  0
   -3.5041    1.1243   -0.4256 C   0  0  2  0  0  0  0  0  0  0  0  0
    3.6156   -0.9574   -0.5548 C   0  0  1  0  0  0  0  0  0  0  0  0
    2.8222   -1.4162    0.6526 C   0  0  0  0  0  0  0  0  0  0  0  0
    3.0167   -1.6407   -1.7732 C   0  0  0  0  0  0  0  0  0  0  0  0
    3.6483    0.5674   -0.7071 C   0  0  0  0  0  0  0  0  0  0  0  0
    2.7246    2.7616   -0.4315 C   0  0  0  0  0  0  0  0  0  0  0  0
    0.9094   -1.3527    3.6935 C   0  0  0  0  0  0  0  0  0  0  0  0
    4.0080    3.2680    0.2046 C   0  0  0  0  0  0  0  0  0  0  0  0
   -3.2096   -3.4063    0.5518 C   0  0  0  0  0  0  0  0  0  0  0  0
   -5.3805    2.3712    0.2432 C   0  0  0  0  0  0  0  0  0  0  0  0
   -0.6982   -2.0972   -1.1866 H   0  0  0  0  0  0  0  0  0  0  0  0
    0.7932    1.5072   -1.3049 H   0  0  0  0  0  0  0  0  0  0  0  0
   -1.1856   -1.3299    1.0725 H   0  0  0  0  0  0  0  0  0  0  0  0
    0.8573   -2.2078    0.7774 H   0  0  0  0  0  0  0  0  0  0  0  0
    1.8270    0.2789    2.1447 H   0  0  0  0  0  0  0  0  0  0  0  0
   -3.9813   -0.5037   -1.8788 H   0  0  0  0  0  0  0  0  0  0  0  0
   -1.4051    0.5340   -2.5166 H   0  0  0  0  0  0  0  0  0  0  0  0
   -1.8921   -1.1216   -2.8534 H   0  0  0  0  0  0  0  0  0  0  0  0
   -3.6019   -1.0294    0.7328 H   0  0  0  0  0  0  0  0  0  0  0  0
    1.0547   -2.0263   -2.4649 H   0  0  0  0  0  0  0  0  0  0  0  0
   -2.5778    2.4296    1.1408 H   0  0  0  0  0  0  0  0  0  0  0  0
   -2.9697    0.8394    1.7642 H   0  0  0  0  0  0  0  0  0  0  0  0
   -3.4088    1.9570   -1.1360 H   0  0  0  0  0  0  0  0  0  0  0  0
    4.6421   -1.3279   -0.4349 H   0  0  0  0  0  0  0  0  0  0  0  0
    3.6620   -1.4849   -2.6463 H   0  0  0  0  0  0  0  0  0  0  0  0
    2.9959   -2.7232   -1.5869 H   0  0  0  0  0  0  0  0  0  0  0  0
    4.5550    0.8612   -0.1652 H   0  0  0  0  0  0  0  0  0  0  0  0
    3.8263    0.8276   -1.7590 H   0  0  0  0  0  0  0  0  0  0  0  0
   -0.0968    2.1885    2.3848 H   0  0  0  0  0  0  0  0  0  0  0  0
   -0.9442    2.7057   -0.2352 H   0  0  0  0  0  0  0  0  0  0  0  0
    1.8997    3.3504   -0.0173 H   0  0  0  0  0  0  0  0  0  0  0  0
    2.7382    2.9628   -1.5102 H   0  0  0  0  0  0  0  0  0  0  0  0
    2.0117   -0.6050   -3.8712 H   0  0  0  0  0  0  0  0  0  0  0  0
    0.2462   -1.6558    4.5087 H   0  0  0  0  0  0  0  0  0  0  0  0
    1.6872   -0.7054    4.1100 H   0  0  0  0  0  0  0  0  0  0  0  0
    1.3477   -2.2569    3.2639 H   0  0  0  0  0  0  0  0  0  0  0  0
    4.0945    2.9533    1.2503 H   0  0  0  0  0  0  0  0  0  0  0  0
    4.9020    2.9502   -0.3406 H   0  0  0  0  0  0  0  0  0  0  0  0
    4.0120    4.3639    0.1938 H   0  0  0  0  0  0  0  0  0  0  0  0
   -3.2156   -4.4282    0.1629 H   0  0  0  0  0  0  0  0  0  0  0  0
   -4.1830   -3.2073    1.0108 H   0  0  0  0  0  0  0  0  0  0  0  0
   -2.4144   -3.3255    1.2986 H   0  0  0  0  0  0  0  0  0  0  0  0
   -6.4218    2.2693    0.5621 H   0  0  0  0  0  0  0  0  0  0  0  0
   -4.8355    2.8934    1.0341 H   0  0  0  0  0  0  0  0  0  0  0  0
   -5.3650    2.9586   -0.6803 H   0  0  0  0  0  0  0  0  0  0  0  0
  1 11  1  0  0  0  0
  1 50  1  0  0  0  0
  2 14  1  0  0  0  0
  2 51  1  0  0  0  0
  3 16  1  0  0  0  0
  3 28  1  0  0  0  0
  4 19  1  0  0  0  0
  4 30  1  0  0  0  0
  5 20  1  0  0  0  0
  5 54  1  0  0  0  0
  6 22  1  0  0  0  0
  6 31  1  0  0  0  0
  7 24  2  0  0  0  0
  8 12  1  0  0  0  0
  8 26  1  0  0  0  0
  8 27  1  0  0  0  0
  9 10  1  0  0  0  0
  9 12  1  0  0  0  0
  9 15  1  0  0  0  0
  9 20  1  0  0  0  0
 10 13  1  0  0  0  0
 10 18  1  0  0  0  0
 10 32  1  0  0  0  0
 11 12  1  0  0  0  0
 11 14  1  0  0  0  0
 11 16  1  0  0  0  0
 12 33  1  0  0  0  0
 13 14  1  0  0  0  0
 13 19  1  0  0  0  0
 13 34  1  0  0  0  0
 14 21  1  0  0  0  0
 15 16  1  0  0  0  0
 15 24  1  0  0  0  0
 15 35  1  0  0  0  0
 16 36  1  0  0  0  0
 17 18  1  0  0  0  0
 17 19  1  0  0  0  0
 17 22  1  0  0  0  0
 17 37  1  0  0  0  0
 18 38  1  0  0  0  0
 18 39  1  0  0  0  0
 19 40  1  0  0  0  0
 20 25  1  0  0  0  0
 20 41  1  0  0  0  0
 21 22  1  0  0  0  0
 21 42  1  0  0  0  0
 21 43  1  0  0  0  0
 22 44  1  0  0  0  0
 23 24  1  0  0  0  0
 23 25  1  0  0  0  0
 23 26  1  0  0  0  0
 23 45  1  0  0  0  0
 25 46  1  0  0  0  0
 25 47  1  0  0  0  0
 26 48  1  0  0  0  0
 26 49  1  0  0  0  0
 27 29  1  0  0  0  0
 27 52  1  0  0  0  0
 27 53  1  0  0  0  0
 28 55  1  0  0  0  0
 28 56  1  0  0  0  0
 28 57  1  0  0  0  0
 29 58  1  0  0  0  0
 29 59  1  0  0  0  0
 29 60  1  0  0  0  0
 30 61  1  0  0  0  0
 30 62  1  0  0  0  0
 30 63  1  0  0  0  0
 31 64  1  0  0  0  0
 31 65  1  0  0  0  0
 31 66  1  0  0  0  0
M  END
> <PUBCHEM_COMPOUND_CID>
102293494

> <PUBCHEM_CONFORMER_RMSD>
0.8

> <PUBCHEM_CONFORMER_DIVERSEORDER>
1

> <PUBCHEM_MMFF94_PARTIAL_CHARGES>
26
1 -0.68
11 0.28
12 0.27
14 0.28
15 0.06
16 0.28
19 0.28
2 -0.68
20 0.28
22 0.28
23 0.06
24 0.45
26 0.27
27 0.27
28 0.28
3 -0.56
30 0.28
31 0.28
4 -0.56
5 -0.68
50 0.4
51 0.4
54 0.4
6 -0.56
7 -0.57
8 -0.81

> <PUBCHEM_EFFECTIVE_ROTOR_COUNT>
5.8

> <PUBCHEM_PHARMACOPHORE_FEATURES>
14
1 1 acceptor
1 1 donor
1 2 acceptor
1 2 donor
1 3 acceptor
1 4 acceptor
1 5 acceptor
1 5 donor
1 6 acceptor
1 7 acceptor
1 8 cation
8 10 13 14 17 18 19 21 22 rings
8 9 10 11 12 13 14 15 16 rings
9 8 9 12 15 20 23 24 25 26 rings

> <PUBCHEM_HEAVY_ATOM_COUNT>
31

> <PUBCHEM_ATOM_DEF_STEREO_COUNT>
11

> <PUBCHEM_ATOM_UDEF_STEREO_COUNT>
2

> <PUBCHEM_BOND_DEF_STEREO_COUNT>
0

> <PUBCHEM_BOND_UDEF_STEREO_COUNT>
0

> <PUBCHEM_ISOTOPIC_ATOM_COUNT>
0

> <PUBCHEM_COMPONENT_COUNT>
1

> <PUBCHEM_CACTVS_TAUTO_COUNT>
3

> <PUBCHEM_CONFORMER_ID>
0618DFF600000001

> <PUBCHEM_MMFF94_ENERGY>
245.8641

> <PUBCHEM_FEATURE_SELFOVERLAP>
71.147

> <PUBCHEM_SHAPE_FINGERPRINT>
10165383 225 16516831176918408136
10863032 1 18340488957934041028
10906281 52 17846501396246705937
10948715 1 18267303329907677388
11578080 2 17170993432931854292
121448 382 17242161585996732643
12156800 1 14646419373876825183
12422481 6 18270098198477139856
12633257 1 18337665317621593927
12788726 201 17844534305303996576
13140716 1 18410290315610138475
13224815 77 17346881164927472814
13583140 156 18041014911816426465
14223421 5 18341336711490266175
14787075 74 17467065684240722030
14790565 3 18198634229065359449
14955137 171 17680137482787269779
15163728 17 17752506496831068628
16945 1 18262233301139501670
17349148 13 17917143880185891069
17980427 23 17914585372784546816
20600515 1 18197197179819228216
20691752 17 17386001814413468668
20715895 44 18199468762300498189
20905425 154 18126568052975008918
22393880 68 18340779233800102868
23419403 2 16527523175874115017
23493267 7 18411696612815531651
23559900 14 18201445722882667910
3380486 145 17180834250599475578
394222 165 18268702991314751784
4340502 62 17676215662967208241
474 4 18114747165121930500
57527585 103 16404567651426741623
5895379 119 17842842126912961728
81228 2 17485666861203120064
9981440 41 17977946018984051288

> <PUBCHEM_SHAPE_MULTIPOLES>
591.9
7.47
3.06
2.39
4.86
0.7
-1.17
2.65
1.03
0.1
-0.48
-1.29
-1.24
-0.16

> <PUBCHEM_SHAPE_SELFOVERLAP>
1302.327

> <PUBCHEM_SHAPE_VOLUME>
315.5

> <PUBCHEM_COORDINATE_TYPE>
2
5
10

$$$$
