102225529
  -OEChem-03292013293D

 57 58  0     1  0  0  0  0  0999 V2000
    4.9694    0.2122    0.4908 O   0  0  0  0  0  0  0  0  0  0  0  0
    3.0957   -1.7064    1.2132 O   0  0  0  0  0  0  0  0  0  0  0  0
    4.7626   -1.8506   -1.4071 O   0  0  0  0  0  0  0  0  0  0  0  0
   -3.2041    1.0964   -0.1791 O   0  0  0  0  0  0  0  0  0  0  0  0
    1.2154   -3.1741   -1.0376 O   0  0  0  0  0  0  0  0  0  0  0  0
   -4.2223   -0.2940    1.3829 O   0  0  0  0  0  0  0  0  0  0  0  0
    1.2800    2.2710    0.5326 C   0  0  2  0  0  0  0  0  0  0  0  0
    3.0970    1.3577   -0.4487 C   0  0  1  0  0  0  0  0  0  0  0  0
    2.6887    1.9147    0.9244 C   0  0  0  0  0  0  0  0  0  0  0  0
    0.4917    0.8553    0.5538 C   0  0  2  0  0  0  0  0  0  0  0  0
    1.5695    3.0122   -0.8545 C   0  0  0  0  0  0  0  0  0  0  0  0
    3.0321    2.5930   -1.2910 C   0  0  0  0  0  0  0  0  0  0  0  0
    3.8207    0.0551   -0.3168 C   0  0  2  0  0  0  0  0  0  0  0  0
    1.1858   -0.5540    0.1156 C   0  0  1  0  0  0  0  0  0  0  0  0
    0.6397    3.2535    1.5209 C   0  0  0  0  0  0  0  0  0  0  0  0
    2.7395   -0.8271    0.4253 C   0  0  0  0  0  0  0  0  0  0  0  0
    4.2130   -0.5670   -1.6491 C   0  0  0  0  0  0  0  0  0  0  0  0
    0.3745   -1.7244    0.7053 C   0  0  0  0  0  0  0  0  0  0  0  0
   -0.8303    1.0113   -0.1484 C   0  0  0  0  0  0  0  0  0  0  0  0
    0.7829   -3.0477    0.1070 C   0  0  0  0  0  0  0  0  0  0  0  0
   -2.0114    0.9530    0.4733 C   0  0  0  0  0  0  0  0  0  0  0  0
    0.6269   -4.2404    1.0144 C   0  0  0  0  0  0  0  0  0  0  0  0
   -4.2522    0.4096    0.3861 C   0  0  0  0  0  0  0  0  0  0  0  0
   -5.4508    0.6672   -0.4510 C   0  0  0  0  0  0  0  0  0  0  0  0
   -6.4739   -0.1881   -0.6294 C   0  0  0  0  0  0  0  0  0  0  0  0
   -6.4439   -1.5391    0.0383 C   0  0  0  0  0  0  0  0  0  0  0  0
   -7.6962    0.0508   -1.4712 C   0  0  0  0  0  0  0  0  0  0  0  0
    2.2738    0.9246   -1.0256 H   0  0  0  0  0  0  0  0  0  0  0  0
    2.7291    1.2207    1.7700 H   0  0  0  0  0  0  0  0  0  0  0  0
    3.2971    2.7836    1.2078 H   0  0  0  0  0  0  0  0  0  0  0  0
    0.2866    0.6933    1.6248 H   0  0  0  0  0  0  0  0  0  0  0  0
    1.5296    4.1028   -0.7560 H   0  0  0  0  0  0  0  0  0  0  0  0
    0.8428    2.7209   -1.6193 H   0  0  0  0  0  0  0  0  0  0  0  0
    3.0923    2.4138   -2.3688 H   0  0  0  0  0  0  0  0  0  0  0  0
    3.7735    3.3461   -1.0062 H   0  0  0  0  0  0  0  0  0  0  0  0
    1.0898   -0.6452   -0.9773 H   0  0  0  0  0  0  0  0  0  0  0  0
    0.5393    2.8096    2.5173 H   0  0  0  0  0  0  0  0  0  0  0  0
   -0.3544    3.5629    1.1826 H   0  0  0  0  0  0  0  0  0  0  0  0
    1.2475    4.1589    1.6304 H   0  0  0  0  0  0  0  0  0  0  0  0
    3.3499   -0.6970   -2.3095 H   0  0  0  0  0  0  0  0  0  0  0  0
    4.9648    0.0354   -2.1698 H   0  0  0  0  0  0  0  0  0  0  0  0
   -0.6977   -1.6198    0.5143 H   0  0  0  0  0  0  0  0  0  0  0  0
    0.5200   -1.7627    1.7913 H   0  0  0  0  0  0  0  0  0  0  0  0
   -0.8136    1.1456   -1.2267 H   0  0  0  0  0  0  0  0  0  0  0  0
    5.3359   -0.6693    0.6724 H   0  0  0  0  0  0  0  0  0  0  0  0
   -2.0945    0.8305    1.5444 H   0  0  0  0  0  0  0  0  0  0  0  0
    5.6422   -1.7274   -1.0123 H   0  0  0  0  0  0  0  0  0  0  0  0
   -0.4121   -4.3164    1.3447 H   0  0  0  0  0  0  0  0  0  0  0  0
    0.8903   -5.1526    0.4718 H   0  0  0  0  0  0  0  0  0  0  0  0
    1.2914   -4.1372    1.8757 H   0  0  0  0  0  0  0  0  0  0  0  0
   -5.4683    1.6230   -0.9693 H   0  0  0  0  0  0  0  0  0  0  0  0
   -7.6830    1.0507   -1.9173 H   0  0  0  0  0  0  0  0  0  0  0  0
   -5.4426   -1.9790    0.0658 H   0  0  0  0  0  0  0  0  0  0  0  0
   -8.6016   -0.0319   -0.8615 H   0  0  0  0  0  0  0  0  0  0  0  0
   -7.0626   -2.2547   -0.5159 H   0  0  0  0  0  0  0  0  0  0  0  0
   -6.8455   -1.4725    1.0544 H   0  0  0  0  0  0  0  0  0  0  0  0
   -7.7508   -0.6786   -2.2856 H   0  0  0  0  0  0  0  0  0  0  0  0
  1 13  1  0  0  0  0
  1 45  1  0  0  0  0
  2 16  2  0  0  0  0
  3 17  1  0  0  0  0
  3 47  1  0  0  0  0
  4 21  1  0  0  0  0
  4 23  1  0  0  0  0
  5 20  2  0  0  0  0
  6 23  2  0  0  0  0
  7  9  1  0  0  0  0
  7 10  1  0  0  0  0
  7 11  1  0  0  0  0
  7 15  1  0  0  0  0
  8  9  1  0  0  0  0
  8 12  1  0  0  0  0
  8 13  1  0  0  0  0
  8 28  1  0  0  0  0
  9 29  1  0  0  0  0
  9 30  1  0  0  0  0
 10 14  1  0  0  0  0
 10 19  1  0  0  0  0
 10 31  1  0  0  0  0
 11 12  1  0  0  0  0
 11 32  1  0  0  0  0
 11 33  1  0  0  0  0
 12 34  1  0  0  0  0
 12 35  1  0  0  0  0
 13 16  1  0  0  0  0
 13 17  1  0  0  0  0
 14 16  1  0  0  0  0
 14 18  1  0  0  0  0
 14 36  1  0  0  0  0
 15 37  1  0  0  0  0
 15 38  1  0  0  0  0
 15 39  1  0  0  0  0
 17 40  1  0  0  0  0
 17 41  1  0  0  0  0
 18 20  1  0  0  0  0
 18 42  1  0  0  0  0
 18 43  1  0  0  0  0
 19 21  2  0  0  0  0
 19 44  1  0  0  0  0
 20 22  1  0  0  0  0
 21 46  1  0  0  0  0
 22 48  1  0  0  0  0
 22 49  1  0  0  0  0
 22 50  1  0  0  0  0
 23 24  1  0  0  0  0
 24 25  2  0  0  0  0
 24 51  1  0  0  0  0
 25 26  1  0  0  0  0
 25 27  1  0  0  0  0
 26 53  1  0  0  0  0
 26 55  1  0  0  0  0
 26 56  1  0  0  0  0
 27 52  1  0  0  0  0
 27 54  1  0  0  0  0
 27 57  1  0  0  0  0
M  END
> <PUBCHEM_COMPOUND_CID>
102225529

> <PUBCHEM_CONFORMER_RMSD>
1

> <PUBCHEM_CONFORMER_DIVERSEORDER>
1
23
28
25
15
6
7
29
20
27
17
22
14
18
3
26
31
10
9
19
30
12
11
32
8
5
4
16
13
2
21
24

> <PUBCHEM_MMFF94_PARTIAL_CHARGES>
26
1 -0.68
10 0.14
13 0.34
14 0.06
16 0.45
17 0.28
18 0.06
19 -0.29
2 -0.57
20 0.45
21 -0.07
22 0.06
23 0.71
24 -0.14
25 -0.28
26 0.14
27 0.14
3 -0.68
4 -0.23
44 0.15
45 0.4
46 0.15
47 0.4
5 -0.57
51 0.15
6 -0.57

> <PUBCHEM_EFFECTIVE_ROTOR_COUNT>
8.2

> <PUBCHEM_PHARMACOPHORE_FEATURES>
10
1 1 acceptor
1 1 donor
1 2 acceptor
1 3 acceptor
1 3 donor
1 5 acceptor
1 6 acceptor
3 25 26 27 hydrophobe
5 7 8 9 11 12 rings
7 7 8 9 10 13 14 16 rings

> <PUBCHEM_HEAVY_ATOM_COUNT>
27

> <PUBCHEM_ATOM_DEF_STEREO_COUNT>
5

> <PUBCHEM_ATOM_UDEF_STEREO_COUNT>
0

> <PUBCHEM_BOND_DEF_STEREO_COUNT>
1

> <PUBCHEM_BOND_UDEF_STEREO_COUNT>
0

> <PUBCHEM_ISOTOPIC_ATOM_COUNT>
0

> <PUBCHEM_COMPONENT_COUNT>
1

> <PUBCHEM_CACTVS_TAUTO_COUNT>
6

> <PUBCHEM_CONFORMER_ID>
0617D67900000001

> <PUBCHEM_MMFF94_ENERGY>
153.1866

> <PUBCHEM_FEATURE_SELFOVERLAP>
51.575

> <PUBCHEM_SHAPE_FINGERPRINT>
10366900 7 18334018268207823809
10693767 8 18200876154163610678
1100329 8 18338516447607448936
11421498 54 17346326964202242019
12236239 1 17704355459582550665
12596602 18 17060618893620851265
13836976 161 18408603677499750621
14844126 61 16242370800830976011
15183329 4 18339635656536006109
15483637 11 18049159166680632211
16114785 44 15473904021434593624
16728300 4 17172331362642258130
17492 54 18042426706611515988
18222031 100 18271806787352617265
18681886 176 18411696608304481808
20028762 73 18272651238042633878
20465049 17 18410862057272360014
20645477 70 18335698343376146233
20775438 99 18129652140331756246
21033648 29 11963971341359398852
21054139 6 18341886433535538799
21197605 99 18194405713487467355
22393880 68 18409445925609658423
23558518 356 17835790172901188428
23559900 14 18334570279164787969
239999 70 18272934920774387775
283562 15 18196663904264840464
3004659 81 18411978053575052117
3060560 45 18408325480047186932
3178227 256 18335710459088420739
338550 245 18265611172790557951
3886686 26 11017985432908868948
404807 78 17605288461398723755
46194498 28 18113898277678560901
484989 97 18263659513502221691
59682541 52 18336811023916932237
59755656 215 18333726906379863053

> <PUBCHEM_SHAPE_MULTIPOLES>
520.43
13.65
4.03
1.34
32.77
2.51
-0.16
1
-5.53
-3.77
0.67
-0.46
-0.11
0.3

> <PUBCHEM_SHAPE_SELFOVERLAP>
1067.937

> <PUBCHEM_SHAPE_VOLUME>
296.8

> <PUBCHEM_COORDINATE_TYPE>
2
5
10

$$$$
