102216446
  -OEChem-03292013293D

 66 70  0     1  0  0  0  0  0999 V2000
    0.2281   -3.1103   -0.5473 O   0  0  0  0  0  0  0  0  0  0  0  0
   -1.4798    2.5273    0.9034 O   0  0  0  0  0  0  0  0  0  0  0  0
    2.5855    1.3147   -3.5118 O   0  0  0  0  0  0  0  0  0  0  0  0
    4.0060    0.9297    2.0438 O   0  0  0  0  0  0  0  0  0  0  0  0
   -5.2424   -1.0065    1.4803 O   0  0  0  0  0  0  0  0  0  0  0  0
    2.5906   -0.8881    2.2126 O   0  0  0  0  0  0  0  0  0  0  0  0
    2.2574   -4.0862   -0.0304 O   0  0  0  0  0  0  0  0  0  0  0  0
   -2.2752    1.1575   -0.7754 N   0  0  0  0  0  0  0  0  0  0  0  0
   -0.1858    0.5291    0.4186 C   0  0  2  0  0  0  0  0  0  0  0  0
   -0.5593   -0.9028   -0.0856 C   0  0  2  0  0  0  0  0  0  0  0  0
   -0.8345   -0.7302   -1.6149 C   0  0  2  0  0  0  0  0  0  0  0  0
    0.9293    1.1660   -0.3803 C   0  0  0  0  0  0  0  0  0  0  0  0
    0.3382    0.6112    1.8771 C   0  0  0  0  0  0  0  0  0  0  0  0
    1.7665    2.0487    0.4921 C   0  0  1  0  0  0  0  0  0  0  0  0
    1.7064    1.3237    1.8403 C   0  0  2  0  0  0  0  0  0  0  0  0
    0.3908   -0.1727   -2.4006 C   0  0  0  0  0  0  0  0  0  0  0  0
   -1.7769   -1.5954    0.6531 C   0  0  0  0  0  0  0  0  0  0  0  0
    1.1796    0.8677   -1.6614 C   0  0  0  0  0  0  0  0  0  0  0  0
   -1.3557    1.5143    0.2090 C   0  0  0  0  0  0  0  0  0  0  0  0
   -2.0438    0.1730   -1.8286 C   0  0  0  0  0  0  0  0  0  0  0  0
    0.6274   -1.9080    0.0592 C   0  0  0  0  0  0  0  0  0  0  0  0
    3.1537    2.3017   -0.0964 C   0  0  0  0  0  0  0  0  0  0  0  0
   -2.8577   -0.8080    1.4291 C   0  0  0  0  0  0  0  0  0  0  0  0
    2.3055    1.5701   -2.3418 C   0  0  0  0  0  0  0  0  0  0  0  0
    3.0439    2.6540   -1.5758 C   0  0  0  0  0  0  0  0  0  0  0  0
   -3.6221    1.6922   -0.6877 C   0  0  0  0  0  0  0  0  0  0  0  0
   -4.1742   -0.4733    0.6787 C   0  0  2  0  0  0  0  0  0  0  0  0
   -4.4331    1.0503    0.4636 C   0  0  2  0  0  0  0  0  0  0  0  0
    2.7925    0.3084    2.0549 C   0  0  0  0  0  0  0  0  0  0  0  0
   -5.9194    1.3570    0.2202 C   0  0  0  0  0  0  0  0  0  0  0  0
    1.1409   -4.1384   -0.5282 C   0  0  0  0  0  0  0  0  0  0  0  0
    5.1366    0.0742    2.2381 C   0  0  0  0  0  0  0  0  0  0  0  0
    0.5809   -5.3511   -1.2079 C   0  0  0  0  0  0  0  0  0  0  0  0
   -1.0796   -1.6949   -2.0794 H   0  0  0  0  0  0  0  0  0  0  0  0
    0.3513   -0.3640    2.3714 H   0  0  0  0  0  0  0  0  0  0  0  0
   -0.3352    1.2098    2.5038 H   0  0  0  0  0  0  0  0  0  0  0  0
    1.2482    3.0126    0.5891 H   0  0  0  0  0  0  0  0  0  0  0  0
    1.7717    2.0349    2.6734 H   0  0  0  0  0  0  0  0  0  0  0  0
    0.0669    0.2229   -3.3709 H   0  0  0  0  0  0  0  0  0  0  0  0
    1.0654   -1.0084   -2.6291 H   0  0  0  0  0  0  0  0  0  0  0  0
   -1.3423   -2.2478    1.4253 H   0  0  0  0  0  0  0  0  0  0  0  0
   -2.2735   -2.2907   -0.0370 H   0  0  0  0  0  0  0  0  0  0  0  0
   -1.9955    0.7178   -2.7786 H   0  0  0  0  0  0  0  0  0  0  0  0
   -2.9338   -0.4617   -1.8970 H   0  0  0  0  0  0  0  0  0  0  0  0
    1.5554   -1.5489   -0.3951 H   0  0  0  0  0  0  0  0  0  0  0  0
    0.8260   -2.1126    1.1149 H   0  0  0  0  0  0  0  0  0  0  0  0
    3.7752    1.4018   -0.0864 H   0  0  0  0  0  0  0  0  0  0  0  0
    3.6747    3.0929    0.4528 H   0  0  0  0  0  0  0  0  0  0  0  0
   -3.1279   -1.4598    2.2742 H   0  0  0  0  0  0  0  0  0  0  0  0
   -2.4445    0.0704    1.9287 H   0  0  0  0  0  0  0  0  0  0  0  0
    4.0492    2.7554   -1.9994 H   0  0  0  0  0  0  0  0  0  0  0  0
    2.5127    3.6014   -1.7187 H   0  0  0  0  0  0  0  0  0  0  0  0
   -4.1221    1.5469   -1.6532 H   0  0  0  0  0  0  0  0  0  0  0  0
   -3.5615    2.7750   -0.5220 H   0  0  0  0  0  0  0  0  0  0  0  0
   -4.2364   -1.0012   -0.2769 H   0  0  0  0  0  0  0  0  0  0  0  0
   -4.1631    1.5619    1.3978 H   0  0  0  0  0  0  0  0  0  0  0  0
   -6.2992    0.8032   -0.6450 H   0  0  0  0  0  0  0  0  0  0  0  0
   -6.0700    2.4260    0.0331 H   0  0  0  0  0  0  0  0  0  0  0  0
   -6.5293    1.0939    1.0904 H   0  0  0  0  0  0  0  0  0  0  0  0
   -5.1439   -1.9741    1.4906 H   0  0  0  0  0  0  0  0  0  0  0  0
    6.0392    0.6898    2.1988 H   0  0  0  0  0  0  0  0  0  0  0  0
    5.1868   -0.6736    1.4409 H   0  0  0  0  0  0  0  0  0  0  0  0
    5.0820   -0.4082    3.2185 H   0  0  0  0  0  0  0  0  0  0  0  0
   -0.3176   -5.6861   -0.6839 H   0  0  0  0  0  0  0  0  0  0  0  0
    0.3539   -5.1177   -2.2511 H   0  0  0  0  0  0  0  0  0  0  0  0
    1.3209   -6.1561   -1.1828 H   0  0  0  0  0  0  0  0  0  0  0  0
  1 21  1  0  0  0  0
  1 31  1  0  0  0  0
  2 19  2  0  0  0  0
  3 24  2  0  0  0  0
  4 29  1  0  0  0  0
  4 32  1  0  0  0  0
  5 27  1  0  0  0  0
  5 60  1  0  0  0  0
  6 29  2  0  0  0  0
  7 31  2  0  0  0  0
  8 19  1  0  0  0  0
  8 20  1  0  0  0  0
  8 26  1  0  0  0  0
  9 10  1  0  0  0  0
  9 12  1  0  0  0  0
  9 13  1  0  0  0  0
  9 19  1  0  0  0  0
 10 11  1  0  0  0  0
 10 17  1  0  0  0  0
 10 21  1  0  0  0  0
 11 16  1  0  0  0  0
 11 20  1  0  0  0  0
 11 34  1  0  0  0  0
 12 14  1  0  0  0  0
 12 18  2  0  0  0  0
 13 15  1  0  0  0  0
 13 35  1  0  0  0  0
 13 36  1  0  0  0  0
 14 15  1  0  0  0  0
 14 22  1  0  0  0  0
 14 37  1  0  0  0  0
 15 29  1  0  0  0  0
 15 38  1  0  0  0  0
 16 18  1  0  0  0  0
 16 39  1  0  0  0  0
 16 40  1  0  0  0  0
 17 23  1  0  0  0  0
 17 41  1  0  0  0  0
 17 42  1  0  0  0  0
 18 24  1  0  0  0  0
 20 43  1  0  0  0  0
 20 44  1  0  0  0  0
 21 45  1  0  0  0  0
 21 46  1  0  0  0  0
 22 25  1  0  0  0  0
 22 47  1  0  0  0  0
 22 48  1  0  0  0  0
 23 27  1  0  0  0  0
 23 49  1  0  0  0  0
 23 50  1  0  0  0  0
 24 25  1  0  0  0  0
 25 51  1  0  0  0  0
 25 52  1  0  0  0  0
 26 28  1  0  0  0  0
 26 53  1  0  0  0  0
 26 54  1  0  0  0  0
 27 28  1  0  0  0  0
 27 55  1  0  0  0  0
 28 30  1  0  0  0  0
 28 56  1  0  0  0  0
 30 57  1  0  0  0  0
 30 58  1  0  0  0  0
 30 59  1  0  0  0  0
 31 33  1  0  0  0  0
 32 61  1  0  0  0  0
 32 62  1  0  0  0  0
 32 63  1  0  0  0  0
 33 64  1  0  0  0  0
 33 65  1  0  0  0  0
 33 66  1  0  0  0  0
M  END
> <PUBCHEM_COMPOUND_CID>
102216446

> <PUBCHEM_CONFORMER_RMSD>
1

> <PUBCHEM_CONFORMER_DIVERSEORDER>
1
10
13
3
12
4
11
5
9
6
7
2
8

> <PUBCHEM_MMFF94_PARTIAL_CHARGES>
26
1 -0.43
12 -0.28
14 0.14
15 0.06
16 0.14
18 -0.12
19 0.57
2 -0.57
20 0.3
21 0.28
24 0.49
25 0.06
26 0.3
27 0.28
29 0.66
3 -0.57
31 0.66
32 0.28
33 0.06
4 -0.43
5 -0.68
6 -0.57
60 0.4
7 -0.57
8 -0.66
9 0.2

> <PUBCHEM_EFFECTIVE_ROTOR_COUNT>
7.2

> <PUBCHEM_PHARMACOPHORE_FEATURES>
10
1 2 acceptor
1 3 acceptor
1 5 acceptor
1 5 donor
1 6 acceptor
1 7 acceptor
5 9 12 13 14 15 rings
6 12 14 18 22 24 25 rings
6 8 9 10 11 19 20 rings
6 9 10 11 12 16 18 rings

> <PUBCHEM_HEAVY_ATOM_COUNT>
33

> <PUBCHEM_ATOM_DEF_STEREO_COUNT>
4

> <PUBCHEM_ATOM_UDEF_STEREO_COUNT>
3

> <PUBCHEM_BOND_DEF_STEREO_COUNT>
0

> <PUBCHEM_BOND_UDEF_STEREO_COUNT>
0

> <PUBCHEM_ISOTOPIC_ATOM_COUNT>
0

> <PUBCHEM_COMPONENT_COUNT>
1

> <PUBCHEM_CACTVS_TAUTO_COUNT>
20

> <PUBCHEM_CONFORMER_ID>
0617B2FE00000001

> <PUBCHEM_MMFF94_ENERGY>
122.816

> <PUBCHEM_FEATURE_SELFOVERLAP>
52.302

> <PUBCHEM_SHAPE_FINGERPRINT>
10863032 1 18189919623998066469
11578080 2 17761760772532263700
11582403 64 16915634042964993264
12422481 6 18113609084375930955
12633257 1 17822004298944856753
12788726 201 17623274383752358303
131258 43 17410524007690271526
13140716 1 18057868329237319281
133893 2 18053969284673513939
14955137 171 18261387819948303400
15064986 96 18267286660939479962
16945 1 17840552969478354069
1813 80 16805592634672439696
20600515 1 16830626633072782103
20691752 17 18130504244557541285
22956985 138 18338240345250879235
23419403 2 17618762679395002340
23559900 14 18191597363057510247
3052486 1 17978799239753802671
3380486 77 17691648562460756757
35225 105 17982458392517210394
5265222 85 18341610477876614232
59554788 248 18187913006682003567
6442390 28 18196389219383192967

> <PUBCHEM_SHAPE_MULTIPOLES>
633.06
7.84
4.28
2.63
7.19
8.09
-0.83
-4.09
4.01
-2.44
-1.64
-2.79
-0.76
-0.24

> <PUBCHEM_SHAPE_SELFOVERLAP>
1373.001

> <PUBCHEM_SHAPE_VOLUME>
339.7

> <PUBCHEM_COORDINATE_TYPE>
2
5
10

$$$$
