102239747
  -OEChem-03292013293D

 59 63  0     1  0  0  0  0  0999 V2000
    0.3804    0.6752    1.9130 O   0  0  0  0  0  0  0  0  0  0  0  0
    1.6144    2.5616    1.2640 O   0  0  0  0  0  0  0  0  0  0  0  0
   -0.9778    2.4566    0.3143 O   0  0  0  0  0  0  0  0  0  0  0  0
   -0.3155   -3.2943    0.6618 O   0  0  0  0  0  0  0  0  0  0  0  0
    2.8326    1.7600   -1.6031 O   0  0  0  0  0  0  0  0  0  0  0  0
   -4.3812    0.1114   -0.3538 O   0  0  0  0  0  0  0  0  0  0  0  0
   -5.2632    0.9829    1.5955 O   0  0  0  0  0  0  0  0  0  0  0  0
    0.0120   -0.9369    0.0625 C   0  0  1  0  0  0  0  0  0  0  0  0
    2.1756    0.4013    0.3426 C   0  0  1  0  0  0  0  0  0  0  0  0
    1.5777   -0.9266   -0.2149 C   0  0  1  0  0  0  0  0  0  0  0  0
   -0.5911    0.2535   -0.7985 C   0  0  2  0  0  0  0  0  0  0  0  0
    1.0489    1.3297    0.8173 C   0  0  1  0  0  0  0  0  0  0  0  0
   -0.0079    1.5962   -0.2711 C   0  0  2  0  0  0  0  0  0  0  0  0
   -2.1282    0.1915   -1.1417 C   0  0  1  0  0  0  0  0  0  0  0  0
    3.2379    0.1261    1.4427 C   0  0  0  0  0  0  0  0  0  0  0  0
   -0.5963   -2.3079   -0.3307 C   0  0  2  0  0  0  0  0  0  0  0  0
   -0.1602   -0.6071    1.5645 C   0  0  0  0  0  0  0  0  0  0  0  0
    2.3696   -2.1640    0.2723 C   0  0  0  0  0  0  0  0  0  0  0  0
    4.3531   -0.5693    0.6570 C   0  0  1  0  0  0  0  0  0  0  0  0
    3.1142    0.9698   -0.7188 C   0  0  0  0  0  0  0  0  0  0  0  0
    3.8968   -1.9741    0.2287 C   0  0  0  0  0  0  0  0  0  0  0  0
   -2.4830   -1.2477   -1.5880 C   0  0  0  0  0  0  0  0  0  0  0  0
   -2.1030   -2.2853   -0.5470 C   0  0  0  0  0  0  0  0  0  0  0  0
    4.4610    0.3522   -0.5310 C   0  0  0  0  0  0  0  0  0  0  0  0
   -3.1009    0.5919   -0.0112 C   0  0  0  0  0  0  0  0  0  0  0  0
   -2.4229    1.1182   -2.3474 C   0  0  0  0  0  0  0  0  0  0  0  0
    5.5299    0.6538   -1.2685 C   0  0  0  0  0  0  0  0  0  0  0  0
   -5.3881    0.3743    0.5413 C   0  0  0  0  0  0  0  0  0  0  0  0
   -6.6847   -0.1930    0.0483 C   0  0  0  0  0  0  0  0  0  0  0  0
    1.7012   -0.9363   -1.3089 H   0  0  0  0  0  0  0  0  0  0  0  0
   -0.1109    0.1205   -1.7824 H   0  0  0  0  0  0  0  0  0  0  0  0
    0.4178    2.1539   -1.1124 H   0  0  0  0  0  0  0  0  0  0  0  0
    2.8593   -0.4833    2.2703 H   0  0  0  0  0  0  0  0  0  0  0  0
    3.6133    1.0614    1.8811 H   0  0  0  0  0  0  0  0  0  0  0  0
   -0.1262   -2.6469   -1.2631 H   0  0  0  0  0  0  0  0  0  0  0  0
   -1.2039   -0.6252    1.8797 H   0  0  0  0  0  0  0  0  0  0  0  0
    0.3465   -1.3416    2.1989 H   0  0  0  0  0  0  0  0  0  0  0  0
    2.1154   -3.0416   -0.3333 H   0  0  0  0  0  0  0  0  0  0  0  0
    2.0888   -2.4129    1.3018 H   0  0  0  0  0  0  0  0  0  0  0  0
    5.2895   -0.6112    1.2224 H   0  0  0  0  0  0  0  0  0  0  0  0
    4.3460   -2.7157    0.9013 H   0  0  0  0  0  0  0  0  0  0  0  0
    4.2694   -2.2136   -0.7754 H   0  0  0  0  0  0  0  0  0  0  0  0
   -1.9358   -1.4785   -2.5137 H   0  0  0  0  0  0  0  0  0  0  0  0
   -3.5380   -1.3644   -1.8613 H   0  0  0  0  0  0  0  0  0  0  0  0
   -2.6291   -2.1210    0.4002 H   0  0  0  0  0  0  0  0  0  0  0  0
   -2.4314   -3.2756   -0.8880 H   0  0  0  0  0  0  0  0  0  0  0  0
   -3.1618    1.6787    0.1005 H   0  0  0  0  0  0  0  0  0  0  0  0
   -2.8115    0.1625    0.9472 H   0  0  0  0  0  0  0  0  0  0  0  0
   -2.2256    2.1673   -2.1030 H   0  0  0  0  0  0  0  0  0  0  0  0
   -3.4684    1.0447   -2.6680 H   0  0  0  0  0  0  0  0  0  0  0  0
   -1.7995    0.8583   -3.2105 H   0  0  0  0  0  0  0  0  0  0  0  0
    0.9074    3.2249    1.3101 H   0  0  0  0  0  0  0  0  0  0  0  0
   -0.6803    3.3737    0.1905 H   0  0  0  0  0  0  0  0  0  0  0  0
   -0.6516   -4.1464    0.3354 H   0  0  0  0  0  0  0  0  0  0  0  0
    6.4897    0.1913   -1.0649 H   0  0  0  0  0  0  0  0  0  0  0  0
    5.4759    1.3620   -2.0880 H   0  0  0  0  0  0  0  0  0  0  0  0
   -6.9515    0.2693   -0.9053 H   0  0  0  0  0  0  0  0  0  0  0  0
   -7.4745    0.0215    0.7739 H   0  0  0  0  0  0  0  0  0  0  0  0
   -6.5959   -1.2768   -0.0606 H   0  0  0  0  0  0  0  0  0  0  0  0
  1 12  1  0  0  0  0
  1 17  1  0  0  0  0
  2 12  1  0  0  0  0
  2 52  1  0  0  0  0
  3 13  1  0  0  0  0
  3 53  1  0  0  0  0
  4 16  1  0  0  0  0
  4 54  1  0  0  0  0
  5 20  2  0  0  0  0
  6 25  1  0  0  0  0
  6 28  1  0  0  0  0
  7 28  2  0  0  0  0
  8 10  1  0  0  0  0
  8 11  1  0  0  0  0
  8 16  1  0  0  0  0
  8 17  1  0  0  0  0
  9 10  1  0  0  0  0
  9 12  1  0  0  0  0
  9 15  1  0  0  0  0
  9 20  1  0  0  0  0
 10 18  1  0  0  0  0
 10 30  1  0  0  0  0
 11 13  1  0  0  0  0
 11 14  1  0  0  0  0
 11 31  1  0  0  0  0
 12 13  1  0  0  0  0
 13 32  1  0  0  0  0
 14 22  1  0  0  0  0
 14 25  1  0  0  0  0
 14 26  1  0  0  0  0
 15 19  1  0  0  0  0
 15 33  1  0  0  0  0
 15 34  1  0  0  0  0
 16 23  1  0  0  0  0
 16 35  1  0  0  0  0
 17 36  1  0  0  0  0
 17 37  1  0  0  0  0
 18 21  1  0  0  0  0
 18 38  1  0  0  0  0
 18 39  1  0  0  0  0
 19 21  1  0  0  0  0
 19 24  1  0  0  0  0
 19 40  1  0  0  0  0
 20 24  1  0  0  0  0
 21 41  1  0  0  0  0
 21 42  1  0  0  0  0
 22 23  1  0  0  0  0
 22 43  1  0  0  0  0
 22 44  1  0  0  0  0
 23 45  1  0  0  0  0
 23 46  1  0  0  0  0
 24 27  2  0  0  0  0
 25 47  1  0  0  0  0
 25 48  1  0  0  0  0
 26 49  1  0  0  0  0
 26 50  1  0  0  0  0
 26 51  1  0  0  0  0
 27 55  1  0  0  0  0
 27 56  1  0  0  0  0
 28 29  1  0  0  0  0
 29 57  1  0  0  0  0
 29 58  1  0  0  0  0
 29 59  1  0  0  0  0
M  END
> <PUBCHEM_COMPOUND_CID>
102239747

> <PUBCHEM_CONFORMER_RMSD>
0.8

> <PUBCHEM_CONFORMER_DIVERSEORDER>
1
5
7
3
6
2
4

> <PUBCHEM_MMFF94_PARTIAL_CHARGES>
24
1 -0.56
12 0.56
13 0.28
16 0.28
17 0.28
19 0.14
2 -0.68
20 0.49
24 -0.12
25 0.28
27 -0.3
28 0.66
29 0.06
3 -0.68
4 -0.68
5 -0.57
52 0.4
53 0.4
54 0.4
55 0.15
56 0.15
6 -0.43
7 -0.57
9 0.06

> <PUBCHEM_EFFECTIVE_ROTOR_COUNT>
5

> <PUBCHEM_PHARMACOPHORE_FEATURES>
12
1 1 acceptor
1 2 acceptor
1 2 donor
1 3 acceptor
1 3 donor
1 4 acceptor
1 4 donor
1 5 acceptor
1 7 acceptor
6 8 11 14 16 22 23 rings
8 1 8 9 10 11 12 13 17 rings
8 9 10 15 18 19 20 21 24 rings

> <PUBCHEM_HEAVY_ATOM_COUNT>
29

> <PUBCHEM_ATOM_DEF_STEREO_COUNT>
7

> <PUBCHEM_ATOM_UDEF_STEREO_COUNT>
2

> <PUBCHEM_BOND_DEF_STEREO_COUNT>
0

> <PUBCHEM_BOND_UDEF_STEREO_COUNT>
0

> <PUBCHEM_ISOTOPIC_ATOM_COUNT>
0

> <PUBCHEM_COMPONENT_COUNT>
1

> <PUBCHEM_CACTVS_TAUTO_COUNT>
2

> <PUBCHEM_CONFORMER_ID>
06180E0300000001

> <PUBCHEM_MMFF94_ENERGY>
127.6638

> <PUBCHEM_FEATURE_SELFOVERLAP>
60.977

> <PUBCHEM_SHAPE_FINGERPRINT>
10165383 225 18408046221173328959
10674148 151 17632309926081425436
10863032 1 18261384615992202246
10906281 52 18272937163248313584
10930396 42 9438266504370246550
10948715 1 17095237008689413740
11488393 25 17971188119502809731
11578080 2 17983858062572319976
11796584 16 14333406757307151404
12035758 1 18338221739224712962
12035759 4 18409176528191481436
12236239 1 17846779585910681369
12293681 4 17418100935953702467
12403814 3 17894907434472148495
12422481 6 17841717309574513907
12553582 1 18271794714342219780
12592029 89 18187643553065884586
12788726 201 17917722253377727512
13009979 54 18051686647670051946
13140716 1 18268135647108581368
13782708 43 14057274243546012912
14787075 74 18040718078057536619
14790565 3 18341336578594569969
14955137 171 18334866025863967181
15209289 33 18272363170654399275
15238133 3 18060425690019376121
15475509 8 17559698181850811900
1601671 61 18131634469480411999
16945 1 18341033173704353696
18186145 218 18200579389139553812
19319366 153 18260825995012965690
19591789 44 18197776596524430595
20691752 17 18266996492695312077
21033648 29 18188469321312268965
21267235 1 18339082571616087342
21285901 2 15195019214576629473
23419403 2 14064059672833788650
23559900 14 16702301282691338016
2748010 2 17908407397283647080
335352 9 18413671322824665294
350125 39 18408038537561414311
5104073 3 18337659927828307530
5283173 99 11527680643834297707
58260988 393 15430314694678444925
6913067 236 10665224877766735020

> <PUBCHEM_SHAPE_MULTIPOLES>
555.72
10.43
2.48
1.59
8.79
1.03
-0.14
-1.23
-0.07
-0.59
0.11
0.28
-0.52
-0.7

> <PUBCHEM_SHAPE_SELFOVERLAP>
1219.553

> <PUBCHEM_SHAPE_VOLUME>
291.8

> <PUBCHEM_COORDINATE_TYPE>
2
5
10

$$$$
