102209473
  -OEChem-03292013293D

 38 39  0     1  0  0  0  0  0999 V2000
    2.0406    0.8593    1.8808 O   0  0  0  0  0  0  0  0  0  0  0  0
    3.6931    0.3510   -0.4274 O   0  0  0  0  0  0  0  0  0  0  0  0
   -0.7191    4.1421   -0.0360 O   0  0  0  0  0  0  0  0  0  0  0  0
    3.2958   -2.5679   -1.0652 O   0  0  0  0  0  0  0  0  0  0  0  0
   -5.4010   -1.6217    0.0496 O   0  0  0  0  0  0  0  0  0  0  0  0
   -3.4866   -1.6478    1.2697 O   0  0  0  0  0  0  0  0  0  0  0  0
   -0.3907    1.1765    0.0517 N   0  0  0  0  0  0  0  0  0  0  0  0
    1.6587   -1.4698    0.1731 N   0  0  0  0  0  0  0  0  0  0  0  0
   -1.0850   -0.6568   -0.9861 N   0  0  0  0  0  0  0  0  0  0  0  0
    0.5236    2.1938    0.5694 C   0  0  1  0  0  0  0  0  0  0  0  0
    1.9624    1.6498    0.6921 C   0  0  2  0  0  0  0  0  0  0  0  0
    2.3485    0.8075   -0.5366 C   0  0  2  0  0  0  0  0  0  0  0  0
    1.4045   -0.3875   -0.7511 C   0  0  2  0  0  0  0  0  0  0  0  0
   -0.0221    0.0184   -0.5930 C   0  0  0  0  0  0  0  0  0  0  0  0
    0.4778    3.4428   -0.3153 C   0  0  0  0  0  0  0  0  0  0  0  0
   -1.7544    1.2140    0.1050 C   0  0  0  0  0  0  0  0  0  0  0  0
   -2.1602    0.0776   -0.5534 C   0  0  0  0  0  0  0  0  0  0  0  0
   -3.5329   -0.3829   -0.8103 C   0  0  0  0  0  0  0  0  0  0  0  0
    2.5863   -2.4686   -0.0675 C   0  0  0  0  0  0  0  0  0  0  0  0
    2.6684   -3.4548    1.0667 C   0  0  0  0  0  0  0  0  0  0  0  0
   -4.1077   -1.2751    0.2840 C   0  0  0  0  0  0  0  0  0  0  0  0
    0.1385    2.4373    1.5693 H   0  0  0  0  0  0  0  0  0  0  0  0
    2.6838    2.4641    0.8266 H   0  0  0  0  0  0  0  0  0  0  0  0
    2.3031    1.4497   -1.4256 H   0  0  0  0  0  0  0  0  0  0  0  0
    1.5639   -0.7788   -1.7635 H   0  0  0  0  0  0  0  0  0  0  0  0
    0.5047    3.1959   -1.3821 H   0  0  0  0  0  0  0  0  0  0  0  0
    1.3111    4.1149   -0.0864 H   0  0  0  0  0  0  0  0  0  0  0  0
   -2.3018    2.0158    0.5805 H   0  0  0  0  0  0  0  0  0  0  0  0
    1.1692   -1.4662    1.0644 H   0  0  0  0  0  0  0  0  0  0  0  0
    1.8494    1.4426    2.6350 H   0  0  0  0  0  0  0  0  0  0  0  0
    4.2595    1.1325   -0.3092 H   0  0  0  0  0  0  0  0  0  0  0  0
   -4.1981    0.4820   -0.9177 H   0  0  0  0  0  0  0  0  0  0  0  0
   -3.5606   -0.9506   -1.7475 H   0  0  0  0  0  0  0  0  0  0  0  0
   -0.7302    4.9317   -0.6033 H   0  0  0  0  0  0  0  0  0  0  0  0
    1.6663   -3.7804    1.3602 H   0  0  0  0  0  0  0  0  0  0  0  0
    3.2425   -4.3307    0.7523 H   0  0  0  0  0  0  0  0  0  0  0  0
    3.1645   -2.9863    1.9211 H   0  0  0  0  0  0  0  0  0  0  0  0
   -5.7596   -2.1958    0.7596 H   0  0  0  0  0  0  0  0  0  0  0  0
  1 11  1  0  0  0  0
  1 30  1  0  0  0  0
  2 12  1  0  0  0  0
  2 31  1  0  0  0  0
  3 15  1  0  0  0  0
  3 34  1  0  0  0  0
  4 19  2  0  0  0  0
  5 21  1  0  0  0  0
  5 38  1  0  0  0  0
  6 21  2  0  0  0  0
  7 10  1  0  0  0  0
  7 14  1  0  0  0  0
  7 16  1  0  0  0  0
  8 13  1  0  0  0  0
  8 19  1  0  0  0  0
  8 29  1  0  0  0  0
  9 14  2  0  0  0  0
  9 17  1  0  0  0  0
 10 11  1  0  0  0  0
 10 15  1  0  0  0  0
 10 22  1  0  0  0  0
 11 12  1  0  0  0  0
 11 23  1  0  0  0  0
 12 13  1  0  0  0  0
 12 24  1  0  0  0  0
 13 14  1  0  0  0  0
 13 25  1  0  0  0  0
 15 26  1  0  0  0  0
 15 27  1  0  0  0  0
 16 17  2  0  0  0  0
 16 28  1  0  0  0  0
 17 18  1  0  0  0  0
 18 21  1  0  0  0  0
 18 32  1  0  0  0  0
 18 33  1  0  0  0  0
 19 20  1  0  0  0  0
 20 35  1  0  0  0  0
 20 36  1  0  0  0  0
 20 37  1  0  0  0  0
M  END
> <PUBCHEM_COMPOUND_CID>
102209473

> <PUBCHEM_CONFORMER_RMSD>
0.8

> <PUBCHEM_CONFORMER_DIVERSEORDER>
1
14
2
8
13
5
9
15
12
10
4
6
3
11
7

> <PUBCHEM_MMFF94_PARTIAL_CHARGES>
27
1 -0.68
10 0.26
11 0.28
12 0.28
13 0.48
14 0.01
15 0.28
16 -0.3
17 0.05
18 0.24
19 0.57
2 -0.68
20 0.06
21 0.66
28 0.15
29 0.37
3 -0.68
30 0.4
31 0.4
34 0.4
38 0.5
4 -0.57
5 -0.65
6 -0.57
7 0.05
8 -0.73
9 -0.57

> <PUBCHEM_EFFECTIVE_ROTOR_COUNT>
5.8

> <PUBCHEM_PHARMACOPHORE_FEATURES>
14
1 1 acceptor
1 1 donor
1 2 acceptor
1 2 donor
1 3 acceptor
1 3 donor
1 4 acceptor
1 5 acceptor
1 6 acceptor
1 8 donor
3 5 6 21 anion
3 7 9 14 cation
5 7 9 14 16 17 rings
6 7 10 11 12 13 14 rings

> <PUBCHEM_HEAVY_ATOM_COUNT>
21

> <PUBCHEM_ATOM_DEF_STEREO_COUNT>
4

> <PUBCHEM_ATOM_UDEF_STEREO_COUNT>
0

> <PUBCHEM_BOND_DEF_STEREO_COUNT>
0

> <PUBCHEM_BOND_UDEF_STEREO_COUNT>
0

> <PUBCHEM_ISOTOPIC_ATOM_COUNT>
0

> <PUBCHEM_COMPONENT_COUNT>
1

> <PUBCHEM_CACTVS_TAUTO_COUNT>
12

> <PUBCHEM_CONFORMER_ID>
061797C100000001

> <PUBCHEM_MMFF94_ENERGY>
30.2802

> <PUBCHEM_FEATURE_SELFOVERLAP>
71.219

> <PUBCHEM_SHAPE_FINGERPRINT>
10366900 7 18188492514019265111
114674 6 18187928447248390075
11578080 2 17535171273513037172
12506688 2 18335143080987196115
12553582 1 18342448261901141870
12788726 201 17976548208464716523
13052359 8 17545316385059947461
13140716 1 17836919367121865113
13533116 47 18339930415635709763
14178342 30 17841132665562250323
14790565 3 18122635121347838701
14866123 147 17472976208302592123
15375462 189 18343863342103632551
15422964 175 18409720764281472697
15490181 8 17189520401006408236
16945 1 18268697484544328981
19591789 44 17401213768194994500
20645477 70 18046898557787711205
20905425 154 18271244907315505820
21452121 199 18334569101747344690
2255824 54 18124032592178394405
23184049 29 18194959643560400990
2334 1 18341889662849512629
23526113 38 18113620101262671739
23559900 14 18259981570140375343
2748010 2 18270949155440501661
352729 6 17695909929980128228
54173680 148 18051411764560986956
58807428 26 17839719784725686080
81228 2 17695345871814082141
9999458 23 18194404626269313461

> <PUBCHEM_SHAPE_MULTIPOLES>
382.01
6.84
4.12
1.1
7.29
1.64
-0.25
-6.65
-0.25
-2.12
-0.67
-0.33
-0.25
0.4

> <PUBCHEM_SHAPE_SELFOVERLAP>
800.033

> <PUBCHEM_SHAPE_VOLUME>
212.5

> <PUBCHEM_COORDINATE_TYPE>
2
5
10

$$$$
