102216630
  -OEChem-03292013293D

 73 75  0     1  0  0  0  0  0999 V2000
    1.8908   -1.1816    1.1944 O   0  0  0  0  0  0  0  0  0  0  0  0
    1.0607    1.0785    0.4954 O   0  0  0  0  0  0  0  0  0  0  0  0
   -1.0181   -0.9805    0.8802 O   0  0  0  0  0  0  0  0  0  0  0  0
    0.4939    1.7966    2.6818 O   0  0  0  0  0  0  0  0  0  0  0  0
   -1.8423    1.1882   -0.1148 O   0  0  0  0  0  0  0  0  0  0  0  0
    3.6603    2.8216   -0.9515 O   0  0  0  0  0  0  0  0  0  0  0  0
   -3.7985    1.1902    1.1079 O   0  0  0  0  0  0  0  0  0  0  0  0
    0.9520   -1.2396    2.2847 C   0  0  1  0  0  0  0  0  0  0  0  0
   -0.2859   -0.3387    1.9242 C   0  0  1  0  0  0  0  0  0  0  0  0
    0.0330    1.1394    1.4933 C   0  0  2  0  0  0  0  0  0  0  0  0
    2.1207   -2.4844    0.6404 C   0  0  1  0  0  0  0  0  0  0  0  0
    0.6103   -2.7316    2.4453 C   0  0  0  0  0  0  0  0  0  0  0  0
    0.9448   -3.3358    1.0974 C   0  0  0  0  0  0  0  0  0  0  0  0
   -1.1835    1.9237    0.9149 C   0  0  1  0  0  0  0  0  0  0  0  0
    2.3664   -2.3713   -0.8943 C   0  0  0  0  0  0  0  0  0  0  0  0
   -0.7608    3.2937    0.3295 C   0  0  1  0  0  0  0  0  0  0  0  0
    0.4191    3.1222   -0.6390 C   0  0  0  0  0  0  0  0  0  0  0  0
    1.5339    2.3291    0.0301 C   0  0  2  0  0  0  0  0  0  0  0  0
    1.6841   -0.7390    3.5346 C   0  0  0  0  0  0  0  0  0  0  0  0
    3.5336   -1.4027   -1.1109 C   0  0  0  0  0  0  0  0  0  0  0  0
    2.8115   -3.7521   -1.4312 C   0  0  0  0  0  0  0  0  0  0  0  0
    1.0907   -1.9915   -1.6666 C   0  0  0  0  0  0  0  0  0  0  0  0
   -1.9197    4.0136   -0.3636 C   0  0  0  0  0  0  0  0  0  0  0  0
    2.6824    2.0688   -0.9402 C   0  0  0  0  0  0  0  0  0  0  0  0
    2.5749    0.8858   -1.9086 C   0  0  2  0  0  0  0  0  0  0  0  0
    3.6226   -0.1234   -1.5192 C   0  0  0  0  0  0  0  0  0  0  0  0
    2.7900    1.3707   -3.3408 C   0  0  0  0  0  0  0  0  0  0  0  0
   -3.1525    0.8903    0.1180 C   0  0  0  0  0  0  0  0  0  0  0  0
   -3.6467    0.1194   -1.0486 C   0  0  0  0  0  0  0  0  0  0  0  0
   -4.6061   -0.8240   -1.0097 C   0  0  0  0  0  0  0  0  0  0  0  0
   -5.0928   -1.6418   -2.1840 C   0  0  0  0  0  0  0  0  0  0  0  0
   -5.2634   -1.1611    0.3056 C   0  0  0  0  0  0  0  0  0  0  0  0
   -4.3052   -2.9328   -2.3547 C   0  0  0  0  0  0  0  0  0  0  0  0
   -0.9515   -0.3145    2.7961 H   0  0  0  0  0  0  0  0  0  0  0  0
    3.0316   -2.8609    1.1273 H   0  0  0  0  0  0  0  0  0  0  0  0
   -0.4276   -2.9067    2.7456 H   0  0  0  0  0  0  0  0  0  0  0  0
    1.2449   -3.2053    3.2047 H   0  0  0  0  0  0  0  0  0  0  0  0
    1.1976   -4.3984    1.1615 H   0  0  0  0  0  0  0  0  0  0  0  0
    0.0778   -3.2444    0.4390 H   0  0  0  0  0  0  0  0  0  0  0  0
   -1.8580    2.1362    1.7547 H   0  0  0  0  0  0  0  0  0  0  0  0
   -0.4280    3.9404    1.1511 H   0  0  0  0  0  0  0  0  0  0  0  0
    0.7919    4.0996   -0.9681 H   0  0  0  0  0  0  0  0  0  0  0  0
    0.0767    2.5947   -1.5389 H   0  0  0  0  0  0  0  0  0  0  0  0
    1.9541    2.8874    0.8760 H   0  0  0  0  0  0  0  0  0  0  0  0
    2.1794    0.2204    3.3587 H   0  0  0  0  0  0  0  0  0  0  0  0
    2.4948   -1.4233    3.8129 H   0  0  0  0  0  0  0  0  0  0  0  0
    1.0060   -0.6481    4.3886 H   0  0  0  0  0  0  0  0  0  0  0  0
    4.4993   -1.8484   -0.8572 H   0  0  0  0  0  0  0  0  0  0  0  0
    1.3174   -1.7574   -2.7137 H   0  0  0  0  0  0  0  0  0  0  0  0
    3.0535   -3.7028   -2.4998 H   0  0  0  0  0  0  0  0  0  0  0  0
    3.7012   -4.1217   -0.9075 H   0  0  0  0  0  0  0  0  0  0  0  0
    2.0244   -4.5044   -1.3058 H   0  0  0  0  0  0  0  0  0  0  0  0
    0.5861   -1.1349   -1.2299 H   0  0  0  0  0  0  0  0  0  0  0  0
    0.3662   -2.8131   -1.6866 H   0  0  0  0  0  0  0  0  0  0  0  0
   -2.2571    3.4818   -1.2591 H   0  0  0  0  0  0  0  0  0  0  0  0
   -1.6137    5.0187   -0.6735 H   0  0  0  0  0  0  0  0  0  0  0  0
   -2.7721    4.1194    0.3155 H   0  0  0  0  0  0  0  0  0  0  0  0
   -0.7640   -0.5744    0.0375 H   0  0  0  0  0  0  0  0  0  0  0  0
    0.3050    2.7457    2.6259 H   0  0  0  0  0  0  0  0  0  0  0  0
    1.5625    0.4975   -1.8551 H   0  0  0  0  0  0  0  0  0  0  0  0
    4.6416    0.2683   -1.5621 H   0  0  0  0  0  0  0  0  0  0  0  0
    2.6707    0.5474   -4.0536 H   0  0  0  0  0  0  0  0  0  0  0  0
    3.7893    1.7983   -3.4829 H   0  0  0  0  0  0  0  0  0  0  0  0
    2.0632    2.1495   -3.5975 H   0  0  0  0  0  0  0  0  0  0  0  0
   -3.1501    0.3224   -1.9946 H   0  0  0  0  0  0  0  0  0  0  0  0
   -4.9935   -1.0485   -3.1017 H   0  0  0  0  0  0  0  0  0  0  0  0
   -6.1624   -1.8585   -2.0795 H   0  0  0  0  0  0  0  0  0  0  0  0
   -6.0873   -0.4698    0.5091 H   0  0  0  0  0  0  0  0  0  0  0  0
   -4.5607   -1.1555    1.1443 H   0  0  0  0  0  0  0  0  0  0  0  0
   -5.6805   -2.1744    0.2816 H   0  0  0  0  0  0  0  0  0  0  0  0
   -3.2399   -2.7302   -2.5095 H   0  0  0  0  0  0  0  0  0  0  0  0
   -4.4047   -3.5784   -1.4759 H   0  0  0  0  0  0  0  0  0  0  0  0
   -4.6732   -3.4869   -3.2240 H   0  0  0  0  0  0  0  0  0  0  0  0
  1  8  1  0  0  0  0
  1 11  1  0  0  0  0
  2 10  1  0  0  0  0
  2 18  1  0  0  0  0
  3  9  1  0  0  0  0
  3 58  1  0  0  0  0
  4 10  1  0  0  0  0
  4 59  1  0  0  0  0
  5 14  1  0  0  0  0
  5 28  1  0  0  0  0
  6 24  2  0  0  0  0
  7 28  2  0  0  0  0
  8  9  1  0  0  0  0
  8 12  1  0  0  0  0
  8 19  1  0  0  0  0
  9 10  1  0  0  0  0
  9 34  1  0  0  0  0
 10 14  1  0  0  0  0
 11 13  1  0  0  0  0
 11 15  1  0  0  0  0
 11 35  1  0  0  0  0
 12 13  1  0  0  0  0
 12 36  1  0  0  0  0
 12 37  1  0  0  0  0
 13 38  1  0  0  0  0
 13 39  1  0  0  0  0
 14 16  1  0  0  0  0
 14 40  1  0  0  0  0
 15 20  1  0  0  0  0
 15 21  1  0  0  0  0
 15 22  1  0  0  0  0
 16 17  1  0  0  0  0
 16 23  1  0  0  0  0
 16 41  1  0  0  0  0
 17 18  1  0  0  0  0
 17 42  1  0  0  0  0
 17 43  1  0  0  0  0
 18 24  1  0  0  0  0
 18 44  1  0  0  0  0
 19 45  1  0  0  0  0
 19 46  1  0  0  0  0
 19 47  1  0  0  0  0
 20 26  2  0  0  0  0
 20 48  1  0  0  0  0
 21 50  1  0  0  0  0
 21 51  1  0  0  0  0
 21 52  1  0  0  0  0
 22 49  1  0  0  0  0
 22 53  1  0  0  0  0
 22 54  1  0  0  0  0
 23 55  1  0  0  0  0
 23 56  1  0  0  0  0
 23 57  1  0  0  0  0
 24 25  1  0  0  0  0
 25 26  1  0  0  0  0
 25 27  1  0  0  0  0
 25 60  1  0  0  0  0
 26 61  1  0  0  0  0
 27 62  1  0  0  0  0
 27 63  1  0  0  0  0
 27 64  1  0  0  0  0
 28 29  1  0  0  0  0
 29 30  2  0  0  0  0
 29 65  1  0  0  0  0
 30 31  1  0  0  0  0
 30 32  1  0  0  0  0
 31 33  1  0  0  0  0
 31 66  1  0  0  0  0
 31 67  1  0  0  0  0
 32 68  1  0  0  0  0
 32 69  1  0  0  0  0
 32 70  1  0  0  0  0
 33 71  1  0  0  0  0
 33 72  1  0  0  0  0
 33 73  1  0  0  0  0
M  END
> <PUBCHEM_COMPOUND_CID>
102216630

> <PUBCHEM_CONFORMER_RMSD>
0.8

> <PUBCHEM_CONFORMER_DIVERSEORDER>
1
13
14
10
12
4
8
7
11
9
5
2
6
3

> <PUBCHEM_MMFF94_PARTIAL_CHARGES>
28
1 -0.56
10 0.56
11 0.28
14 0.28
15 0.14
18 0.34
2 -0.56
20 -0.29
24 0.45
25 0.2
26 -0.29
28 0.71
29 -0.14
3 -0.68
30 -0.28
31 0.14
32 0.14
4 -0.68
48 0.15
5 -0.43
58 0.4
59 0.4
6 -0.57
61 0.15
65 0.15
7 -0.57
8 0.28
9 0.28

> <PUBCHEM_EFFECTIVE_ROTOR_COUNT>
6

> <PUBCHEM_PHARMACOPHORE_FEATURES>
13
1 1 acceptor
1 2 acceptor
1 3 acceptor
1 3 donor
1 32 hydrophobe
1 33 hydrophobe
1 4 acceptor
1 4 donor
1 6 acceptor
1 7 acceptor
3 15 21 22 hydrophobe
5 1 8 11 12 13 rings
6 2 10 14 16 17 18 rings

> <PUBCHEM_HEAVY_ATOM_COUNT>
33

> <PUBCHEM_ATOM_DEF_STEREO_COUNT>
8

> <PUBCHEM_ATOM_UDEF_STEREO_COUNT>
0

> <PUBCHEM_BOND_DEF_STEREO_COUNT>
2

> <PUBCHEM_BOND_UDEF_STEREO_COUNT>
0

> <PUBCHEM_ISOTOPIC_ATOM_COUNT>
0

> <PUBCHEM_COMPONENT_COUNT>
1

> <PUBCHEM_CACTVS_TAUTO_COUNT>
3

> <PUBCHEM_CONFORMER_ID>
0617B3B600000001

> <PUBCHEM_MMFF94_ENERGY>
106.6363

> <PUBCHEM_FEATURE_SELFOVERLAP>
66.032

> <PUBCHEM_SHAPE_FINGERPRINT>
10721379 63 17896301563808942373
10764073 3 12976367520405450316
11285246 1 17980499870388307775
11578080 2 17701808895963193320
11725454 13 15285370530179294099
12147406 95 18196061487872280359
12156800 1 16983750017199132154
13149001 5 17685227457394304869
13383661 66 16971962273366571087
133893 2 16951130547412818256
14114207 22 16662019570596699408
14863182 85 18118936287222314945
15297060 5 16615888129370059488
15484559 13 17686308252002257551
15664445 248 18268134543608681661
16090146 7 17194049895118538601
17909252 39 18342186543884554250
17974551 9 13248926312608346204
18603816 31 15042517957326996540
19026451 147 18337096926092782455
20567600 347 18262236745703247100
20600515 1 17617068353403884944
20764821 26 18047216290219055607
20775438 99 18409736196178842171
20775530 9 17844808071099540015
21304303 94 18336263552414085831
21857420 4 17686854464246587357
21860390 5 14852979877369027589
22121540 332 16087499477337813644
238 59 18041578995567126692
24941158 1 16301157641698344311
404807 78 16520736905032016867
4409770 3 17615715233159365500
44802255 64 15503244309059184070
463206 1 18339650039521312743
57359948 33 16082742982306092903
66674814 147 18113625603094471062
6669772 16 18122333855593721288
6823239 73 17489296525671119927
70251023 43 18264781964956156699
7471813 234 17680138582673456354
9925002 15 17466212042542940088

> <PUBCHEM_SHAPE_MULTIPOLES>
638.04
7.79
4.89
3.13
10.93
0.81
-0.75
-3.75
5.97
-1.13
0.86
-1.43
-1.24
-2.33

> <PUBCHEM_SHAPE_SELFOVERLAP>
1320.949

> <PUBCHEM_SHAPE_VOLUME>
360

> <PUBCHEM_COORDINATE_TYPE>
2
5
10

$$$$
