102201205
  -OEChem-03292013293D

 39 41  0     0  0  0  0  0  0999 V2000
    1.3651    2.3488    1.0219 S   0  0  0  0  0  0  0  0  0  0  0  0
   -3.7279    0.4579    1.2134 O   0  0  0  0  0  0  0  0  0  0  0  0
    0.5801    2.3778    2.2418 O   0  0  0  0  0  0  0  0  0  0  0  0
    2.5391    3.1915    0.9008 O   0  0  0  0  0  0  0  0  0  0  0  0
   -5.6422   -0.5382    1.9697 O   0  0  0  0  0  0  0  0  0  0  0  0
    2.5695    1.5149   -2.2214 O   0  5  0  0  0  0  0  0  0  0  0  0
    4.3040    1.8621   -0.9214 O   0  0  0  0  0  0  0  0  0  0  0  0
    2.6049   -4.2034    1.1174 O   0  5  0  0  0  0  0  0  0  0  0  0
    3.8064   -3.6518   -0.6351 O   0  0  0  0  0  0  0  0  0  0  0  0
    0.3190    2.5966   -0.3246 N   0  0  0  0  0  0  0  0  0  0  0  0
    3.2260    1.2770   -1.1804 N   0  3  0  0  0  0  0  0  0  0  0  0
    3.0380   -3.3470    0.3090 N   0  3  0  0  0  0  0  0  0  0  0  0
    1.8772    0.6717    0.7806 C   0  0  0  0  0  0  0  0  0  0  0  0
   -0.7498    1.6764   -0.5439 C   0  0  0  0  0  0  0  0  0  0  0  0
   -2.8573   -0.1446   -0.9881 C   0  0  0  0  0  0  0  0  0  0  0  0
   -2.7658    0.5939    0.1926 C   0  0  0  0  0  0  0  0  0  0  0  0
   -1.7292    1.4990    0.4277 C   0  0  0  0  0  0  0  0  0  0  0  0
    2.7309    0.3105   -0.2617 C   0  0  0  0  0  0  0  0  0  0  0  0
   -3.9828   -1.0747   -1.1509 C   0  0  0  0  0  0  0  0  0  0  0  0
   -0.8155    0.9524   -1.7331 C   0  0  0  0  0  0  0  0  0  0  0  0
   -1.8609    0.0485   -1.9543 C   0  0  0  0  0  0  0  0  0  0  0  0
    1.4082   -0.2985    1.6663 C   0  0  0  0  0  0  0  0  0  0  0  0
    3.1156   -1.0211   -0.4182 C   0  0  0  0  0  0  0  0  0  0  0  0
    2.6465   -1.9913    0.4673 C   0  0  0  0  0  0  0  0  0  0  0  0
    1.7929   -1.6300    1.5097 C   0  0  0  0  0  0  0  0  0  0  0  0
   -4.8828   -1.1837   -0.1635 C   0  0  0  0  0  0  0  0  0  0  0  0
   -4.1093   -1.8830   -2.4091 C   0  0  0  0  0  0  0  0  0  0  0  0
   -4.8000   -0.4117    1.0878 C   0  0  0  0  0  0  0  0  0  0  0  0
    0.7613    2.9598   -1.1791 H   0  0  0  0  0  0  0  0  0  0  0  0
   -1.7243    2.0690    1.3511 H   0  0  0  0  0  0  0  0  0  0  0  0
   -0.0645    1.0836   -2.5068 H   0  0  0  0  0  0  0  0  0  0  0  0
   -1.8742   -0.4941   -2.8960 H   0  0  0  0  0  0  0  0  0  0  0  0
    0.7406   -0.0531    2.4867 H   0  0  0  0  0  0  0  0  0  0  0  0
    3.7823   -1.2820   -1.2379 H   0  0  0  0  0  0  0  0  0  0  0  0
    1.4074   -2.3590    2.2179 H   0  0  0  0  0  0  0  0  0  0  0  0
   -5.7271   -1.8611   -0.2500 H   0  0  0  0  0  0  0  0  0  0  0  0
   -3.2369   -2.5312   -2.5444 H   0  0  0  0  0  0  0  0  0  0  0  0
   -4.9930   -2.5309   -2.3914 H   0  0  0  0  0  0  0  0  0  0  0  0
   -4.2057   -1.2300   -3.2831 H   0  0  0  0  0  0  0  0  0  0  0  0
  1  3  2  0  0  0  0
  1  4  2  0  0  0  0
  1 10  1  0  0  0  0
  1 13  1  0  0  0  0
  2 16  1  0  0  0  0
  2 28  1  0  0  0  0
  5 28  2  0  0  0  0
  6 11  1  0  0  0  0
  7 11  2  0  0  0  0
  8 12  1  0  0  0  0
  9 12  2  0  0  0  0
 10 14  1  0  0  0  0
 10 29  1  0  0  0  0
 11 18  1  0  0  0  0
 12 24  1  0  0  0  0
 13 18  2  0  0  0  0
 13 22  1  0  0  0  0
 14 17  2  0  0  0  0
 14 20  1  0  0  0  0
 15 16  2  0  0  0  0
 15 19  1  0  0  0  0
 15 21  1  0  0  0  0
 16 17  1  0  0  0  0
 17 30  1  0  0  0  0
 18 23  1  0  0  0  0
 19 26  2  0  0  0  0
 19 27  1  0  0  0  0
 20 21  2  0  0  0  0
 20 31  1  0  0  0  0
 21 32  1  0  0  0  0
 22 25  2  0  0  0  0
 22 33  1  0  0  0  0
 23 24  2  0  0  0  0
 23 34  1  0  0  0  0
 24 25  1  0  0  0  0
 25 35  1  0  0  0  0
 26 28  1  0  0  0  0
 26 36  1  0  0  0  0
 27 37  1  0  0  0  0
 27 38  1  0  0  0  0
 27 39  1  0  0  0  0
M  CHG  4   6  -1   8  -1  11   1  12   1
M  END
> <PUBCHEM_COMPOUND_CID>
102201205

> <PUBCHEM_CONFORMER_RMSD>
0.8

> <PUBCHEM_CONFORMER_DIVERSEORDER>
4
28
42
53
41
11
16
14
56
10
61
44
19
45
37
3
50
34
9
22
40
52
47
25
12
24
60
13
43
54
1
32
29
39
59
51
26
2
33
17
48
62
31
5
23
35
63
15
6
58
27
46
57
55
36
49
38
21
30
7
8
18
20

> <PUBCHEM_MMFF94_PARTIAL_CHARGES>
36
1 1.45
10 -0.76
11 0.91
12 0.91
13 -0.01
14 0.2
15 0.03
16 0.08
17 -0.15
18 0.13
19 -0.17
2 -0.23
20 -0.15
21 -0.15
22 -0.15
23 -0.15
24 0.13
25 -0.15
26 -0.14
27 0.14
28 0.71
29 0.42
3 -0.65
30 0.15
31 0.15
32 0.15
33 0.15
34 0.15
35 0.15
36 0.15
4 -0.65
5 -0.57
6 -0.52
7 -0.52
8 -0.52
9 -0.52

> <PUBCHEM_EFFECTIVE_ROTOR_COUNT>
5

> <PUBCHEM_PHARMACOPHORE_FEATURES>
13
1 10 donor
1 3 acceptor
1 4 acceptor
1 5 acceptor
1 6 acceptor
1 6 anion
1 7 acceptor
1 8 acceptor
1 8 anion
1 9 acceptor
6 13 18 22 23 24 25 rings
6 14 15 16 17 20 21 rings
6 2 15 16 19 26 28 rings

> <PUBCHEM_HEAVY_ATOM_COUNT>
28

> <PUBCHEM_ATOM_DEF_STEREO_COUNT>
0

> <PUBCHEM_ATOM_UDEF_STEREO_COUNT>
0

> <PUBCHEM_BOND_DEF_STEREO_COUNT>
0

> <PUBCHEM_BOND_UDEF_STEREO_COUNT>
0

> <PUBCHEM_ISOTOPIC_ATOM_COUNT>
0

> <PUBCHEM_COMPONENT_COUNT>
1

> <PUBCHEM_CACTVS_TAUTO_COUNT>
11

> <PUBCHEM_CONFORMER_ID>
0617777500000004

> <PUBCHEM_MMFF94_ENERGY>
88.3183

> <PUBCHEM_FEATURE_SELFOVERLAP>
66.187

> <PUBCHEM_SHAPE_FINGERPRINT>
10928967 22 18269266877039183679
11140007 195 15841285791005295933
11421498 54 18337403702822255308
11578080 2 18267560512460561709
12107183 9 18056770823712295849
12156800 1 12675277045633601046
12553582 1 18411414033784403461
12633257 1 17560799897208169815
12655364 131 10517144649879014286
13009979 54 18054792780634603138
13224815 77 16877932859043738977
13533116 47 18411978092530639547
13583140 156 18411420657262647761
13726171 33 17202508652814239760
14863182 85 18336253635529323688
150020 26 15195023672662447845
15295992 7 13039195809781924349
15375462 189 18343866606173275728
15537594 2 18343310270648721623
15664445 248 16588030138338096029
17134984 74 17620438713748634479
17980427 23 7781526888646151004
19319366 153 18338801233856414262
20715895 44 9294748441265467035
20775530 9 18265890255260001026
21521721 280 18266750267191030632
235170 7 17095238138034042199
23559900 14 15938063662358137657
23598288 3 17982458096243620624
238 59 18040989695757177274
2818148 4 18273491277831924279
345986 75 17989210304892897025
3737641 26 18408611344116672079
59682541 52 18121745497209584575
6669772 16 18125989710856285496
7097593 13 18060411435201956825

> <PUBCHEM_SHAPE_MULTIPOLES>
518.18
9.47
3.77
2.1
9.37
2.61
-0.26
4.82
0.2
-5.58
0.71
1.09
-0.13
-1.29

> <PUBCHEM_SHAPE_SELFOVERLAP>
1120.458

> <PUBCHEM_SHAPE_VOLUME>
284.9

> <PUBCHEM_COORDINATE_TYPE>
2
5
10

$$$$
