102202611
  -OEChem-03292013293D

 44 46  0     0  0  0  0  0  0999 V2000
   -0.9103   -1.8174    2.6097 Cl  0  0  0  0  0  0  0  0  0  0  0  0
    5.4193    0.9895    0.3900 S   0  0  0  0  0  0  0  0  0  0  0  0
    0.7760   -1.7759    0.0096 O   0  0  0  0  0  0  0  0  0  0  0  0
    4.2993   -1.8819   -0.3304 O   0  0  0  0  0  0  0  0  0  0  0  0
    1.3613    2.7961   -1.0665 O   0  0  0  0  0  0  0  0  0  0  0  0
   -0.1317    0.7916   -2.2504 O   0  0  0  0  0  0  0  0  0  0  0  0
   -1.3139    2.6171   -3.0566 O   0  0  0  0  0  0  0  0  0  0  0  0
    2.8999   -0.1196    0.3378 N   0  0  0  0  0  0  0  0  0  0  0  0
    1.7341    2.1592    1.1303 N   0  0  0  0  0  0  0  0  0  0  0  0
    3.1009    2.1286    0.9696 N   0  0  0  0  0  0  0  0  0  0  0  0
   -0.9846    1.9196   -2.0311 N   0  3  0  0  0  0  0  0  0  0  0  0
   -0.1300   -2.7635   -0.2142 C   0  0  0  0  0  0  0  0  0  0  0  0
   -1.5022   -2.4009    0.0013 C   0  0  0  0  0  0  0  0  0  0  0  0
    2.0008   -2.3072   -0.2444 C   0  0  0  0  0  0  0  0  0  0  0  0
    0.5027   -3.9196   -0.6086 C   0  0  0  0  0  0  0  0  0  0  0  0
    1.8865   -3.6233   -0.6280 C   0  0  0  0  0  0  0  0  0  0  0  0
   -0.5191    2.5077    0.3060 C   0  0  0  0  0  0  0  0  0  0  0  0
   -1.9605   -1.9594    1.2425 C   0  0  0  0  0  0  0  0  0  0  0  0
   -2.3857   -2.4996   -1.0735 C   0  0  0  0  0  0  0  0  0  0  0  0
   -1.4301    2.2226   -0.7110 C   0  0  0  0  0  0  0  0  0  0  0  0
    3.1879   -1.4297   -0.0753 C   0  0  0  0  0  0  0  0  0  0  0  0
   -0.9771    2.8026    1.5901 C   0  0  0  0  0  0  0  0  0  0  0  0
   -3.3023   -1.6168    1.4091 C   0  0  0  0  0  0  0  0  0  0  0  0
   -3.7277   -2.1571   -0.9070 C   0  0  0  0  0  0  0  0  0  0  0  0
    0.9437    2.5057    0.0513 C   0  0  0  0  0  0  0  0  0  0  0  0
   -2.7991    2.2322   -0.4439 C   0  0  0  0  0  0  0  0  0  0  0  0
   -4.1860   -1.7157    0.3343 C   0  0  0  0  0  0  0  0  0  0  0  0
   -2.3462    2.8124    1.8572 C   0  0  0  0  0  0  0  0  0  0  0  0
   -3.2572    2.5272    0.8402 C   0  0  0  0  0  0  0  0  0  0  0  0
    3.7516    0.9755    0.5618 C   0  0  0  0  0  0  0  0  0  0  0  0
    0.0309   -4.8612   -0.8519 H   0  0  0  0  0  0  0  0  0  0  0  0
    2.6958   -4.2899   -0.8897 H   0  0  0  0  0  0  0  0  0  0  0  0
   -2.0486   -2.8381   -2.0506 H   0  0  0  0  0  0  0  0  0  0  0  0
   -0.3035    3.0586    2.4028 H   0  0  0  0  0  0  0  0  0  0  0  0
   -3.6759   -1.2694    2.3691 H   0  0  0  0  0  0  0  0  0  0  0  0
   -4.4155   -2.2324   -1.7441 H   0  0  0  0  0  0  0  0  0  0  0  0
   -3.5189    2.0083   -1.2270 H   0  0  0  0  0  0  0  0  0  0  0  0
   -5.2305   -1.4475    0.4634 H   0  0  0  0  0  0  0  0  0  0  0  0
   -2.7037    3.0475    2.8555 H   0  0  0  0  0  0  0  0  0  0  0  0
   -4.3232    2.5342    1.0482 H   0  0  0  0  0  0  0  0  0  0  0  0
    1.9160    0.0765    0.5046 H   0  0  0  0  0  0  0  0  0  0  0  0
    1.3895    1.8694    2.0389 H   0  0  0  0  0  0  0  0  0  0  0  0
    3.5988    2.9893    1.1701 H   0  0  0  0  0  0  0  0  0  0  0  0
    0.0021    0.8351   -3.2122 H   0  0  0  0  0  0  0  0  0  0  0  0
  1 18  1  0  0  0  0
  2 30  2  0  0  0  0
  3 12  1  0  0  0  0
  3 14  1  0  0  0  0
  4 21  2  0  0  0  0
  5 25  2  0  0  0  0
  6 11  1  0  0  0  0
  6 44  1  0  0  0  0
  7 11  2  0  0  0  0
  8 21  1  0  0  0  0
  8 30  1  0  0  0  0
  8 41  1  0  0  0  0
  9 10  1  0  0  0  0
  9 25  1  0  0  0  0
  9 42  1  0  0  0  0
 10 30  1  0  0  0  0
 10 43  1  0  0  0  0
 11 20  1  0  0  0  0
 12 13  1  0  0  0  0
 12 15  2  0  0  0  0
 13 18  1  0  0  0  0
 13 19  2  0  0  0  0
 14 16  2  0  0  0  0
 14 21  1  0  0  0  0
 15 16  1  0  0  0  0
 15 31  1  0  0  0  0
 16 32  1  0  0  0  0
 17 20  1  0  0  0  0
 17 22  2  0  0  0  0
 17 25  1  0  0  0  0
 18 23  2  0  0  0  0
 19 24  1  0  0  0  0
 19 33  1  0  0  0  0
 20 26  2  0  0  0  0
 22 28  1  0  0  0  0
 22 34  1  0  0  0  0
 23 27  1  0  0  0  0
 23 35  1  0  0  0  0
 24 27  2  0  0  0  0
 24 36  1  0  0  0  0
 26 29  1  0  0  0  0
 26 37  1  0  0  0  0
 27 38  1  0  0  0  0
 28 29  2  0  0  0  0
 28 39  1  0  0  0  0
 29 40  1  0  0  0  0
M  CHG  1  11   1
M  END
> <PUBCHEM_COMPOUND_CID>
102202611

> <PUBCHEM_CONFORMER_RMSD>
1

> <PUBCHEM_CONFORMER_DIVERSEORDER>
2
107
66
31
81
168
17
104
164
138
112
124
72
119
152
48
166
93
135
84
121
70
133
40
131
148
141
85
115
15
170
192
122
120
126
153
58
105
83
132
181
185
101
116
139
178
77
149
95
69
167
144
103
177
160
187
11
117
109
188
183
63
137
175
154
4
162
190
100
97
42
163
108
61
64
34
50
82
161
44
176
174
51
182
68
114
130
88
43
49
75
118
29
1
184
158
173
79
91
151
35
10
136
62
110
36
3
146
134
150
86
129
38
89
32
125
87
189
59
127
90
113
156
186
57
60
94
128
92
180
67
24
106
39
37
98
8
145
142
71
165
155
143
23
28
6
55
21
96
169
140
33
52
78
123
76
26
99
191
41
172
179
22
16
171
74
27
73
25
18
147
102
14
46
111
157
45
7
80
9
56
65
5
159
19
53
20
54
47
30
13
12

> <PUBCHEM_MMFF94_PARTIAL_CHARGES>
44
1 -0.18
10 -0.43
11 0.81
12 0.09
13 0.05
14 0.05
15 -0.15
16 -0.15
17 0.09
18 0.18
19 -0.15
2 -0.38
20 -0.03
21 0.71
22 -0.15
23 -0.15
24 -0.15
25 0.54
26 -0.15
27 -0.15
28 -0.15
29 -0.15
3 -0.28
30 0.5
31 0.15
32 0.15
33 0.15
34 0.15
35 0.15
36 0.15
37 0.15
38 0.15
39 0.15
4 -0.57
40 0.15
41 0.37
42 0.37
43 0.37
44 0.4
5 -0.57
6 -0.54
7 -0.63
8 -0.49
9 -0.43

> <PUBCHEM_EFFECTIVE_ROTOR_COUNT>
9

> <PUBCHEM_PHARMACOPHORE_FEATURES>
13
1 10 donor
1 2 acceptor
1 3 acceptor
1 4 acceptor
1 5 acceptor
1 6 acceptor
1 6 anion
1 7 acceptor
1 8 donor
1 9 donor
5 3 12 14 15 16 rings
6 13 18 19 23 24 27 rings
6 17 20 22 26 28 29 rings

> <PUBCHEM_HEAVY_ATOM_COUNT>
30

> <PUBCHEM_ATOM_DEF_STEREO_COUNT>
0

> <PUBCHEM_ATOM_UDEF_STEREO_COUNT>
0

> <PUBCHEM_BOND_DEF_STEREO_COUNT>
0

> <PUBCHEM_BOND_UDEF_STEREO_COUNT>
0

> <PUBCHEM_ISOTOPIC_ATOM_COUNT>
0

> <PUBCHEM_COMPONENT_COUNT>
1

> <PUBCHEM_CACTVS_TAUTO_COUNT>
35

> <PUBCHEM_CONFORMER_ID>
06177CF300000002

> <PUBCHEM_MMFF94_ENERGY>
73.8756

> <PUBCHEM_FEATURE_SELFOVERLAP>
67.601

> <PUBCHEM_SHAPE_FINGERPRINT>
10708813 3 17259619773208676738
11513181 2 18129677394660173166
11578080 2 17343756241270921218
12156800 1 14602586754398673618
12422481 6 18193588651909302657
12788726 201 18053960707761616604
13122387 1 17762622789278589891
13140716 1 18267300942053586458
13402501 40 18409724079901260182
150020 26 17397836060148426131
17357779 13 18336256963580416534
19319366 153 13076681008715591971
19930381 70 18053374693918166259
20764821 26 18341049606244064058
238 59 16747040092749927151
25265897 201 17414748408989387607
3027735 51 18341612654775868483
35225 105 18267315226566037565
469060 322 17312827047895062615
653340 110 18272645775260562320

> <PUBCHEM_SHAPE_MULTIPOLES>
573.83
7.15
5.8
1.95
6.04
0.53
0.43
0.71
-1.26
-1.41
0.47
-1.3
-1.06
0.48

> <PUBCHEM_SHAPE_SELFOVERLAP>
1221.963

> <PUBCHEM_SHAPE_VOLUME>
320.7

> <PUBCHEM_COORDINATE_TYPE>
2
5
10

$$$$
