10226546
  -OEChem-03292013303D

 59 62  0     1  0  0  0  0  0999 V2000
    1.3611   -0.4805    0.9352 S   0  0  0  0  0  0  0  0  0  0  0  0
   -3.1473   -0.1822    1.2371 O   0  0  0  0  0  0  0  0  0  0  0  0
   -5.6785    1.2692    0.7632 O   0  0  0  0  0  0  0  0  0  0  0  0
   -2.1816   -0.5735   -2.1553 O   0  0  0  0  0  0  0  0  0  0  0  0
   -1.7014    2.6369   -1.2700 O   0  0  0  0  0  0  0  0  0  0  0  0
    2.2294    4.4493    0.4950 O   0  0  0  0  0  0  0  0  0  0  0  0
    1.8883    2.1596    0.7322 N   0  0  0  0  0  0  0  0  0  0  0  0
   -3.2476   -0.2013   -0.1704 N   0  0  0  0  0  0  0  0  0  0  0  0
    0.2686    3.5587   -0.3943 N   0  0  0  0  0  0  0  0  0  0  0  0
    2.4204   -4.7426    0.1320 N   0  0  0  0  0  0  0  0  0  0  0  0
    2.2943   -4.4977   -1.1835 N   0  0  0  0  0  0  0  0  0  0  0  0
   -0.1820    1.2213   -0.2003 C   0  0  0  0  0  0  0  0  0  0  0  0
    1.0148    1.1124    0.4579 C   0  0  0  0  0  0  0  0  0  0  0  0
   -0.8358   -0.0419   -0.3157 C   0  0  0  0  0  0  0  0  0  0  0  0
    3.1551    1.9858    1.4422 C   0  0  0  0  0  0  0  0  0  0  0  0
   -0.1035   -1.0565    0.2621 C   0  0  0  0  0  0  0  0  0  0  0  0
    4.3205    1.6890    0.4918 C   0  0  0  0  0  0  0  0  0  0  0  0
   -0.4188   -2.5000    0.3605 C   0  0  0  0  0  0  0  0  0  0  0  0
   -4.6251   -0.4118   -0.5809 C   0  0  0  0  0  0  0  0  0  0  0  0
   -2.1276   -0.2908   -0.9583 C   0  0  0  0  0  0  0  0  0  0  0  0
   -5.4199   -0.1269    0.6627 C   0  0  1  0  0  0  0  0  0  0  0  0
   -0.6336    2.5057   -0.6778 C   0  0  0  0  0  0  0  0  0  0  0  0
    1.5182    3.4570    0.2957 C   0  0  0  0  0  0  0  0  0  0  0  0
   -4.4458   -0.5289    1.7458 C   0  0  0  0  0  0  0  0  0  0  0  0
    0.7520   -3.3978    0.0239 C   0  0  0  0  0  0  0  0  0  0  0  0
    4.5124    2.8526   -0.4815 C   0  0  0  0  0  0  0  0  0  0  0  0
    4.0982    0.3896   -0.2854 C   0  0  0  0  0  0  0  0  0  0  0  0
    1.5019   -4.0937    0.9038 C   0  0  0  0  0  0  0  0  0  0  0  0
   -0.1165    4.8899   -0.8545 C   0  0  0  0  0  0  0  0  0  0  0  0
    1.2546   -3.6611   -1.2379 C   0  0  0  0  0  0  0  0  0  0  0  0
    1.4756   -4.2356    2.3694 C   0  0  0  0  0  0  0  0  0  0  0  0
    0.7995   -3.1542   -2.5447 C   0  0  0  0  0  0  0  0  0  0  0  0
    3.0649    1.2119    2.2120 H   0  0  0  0  0  0  0  0  0  0  0  0
    3.3745    2.9103    1.9917 H   0  0  0  0  0  0  0  0  0  0  0  0
    5.2337    1.5849    1.0904 H   0  0  0  0  0  0  0  0  0  0  0  0
   -0.7764   -2.7185    1.3753 H   0  0  0  0  0  0  0  0  0  0  0  0
   -1.2485   -2.7657   -0.3065 H   0  0  0  0  0  0  0  0  0  0  0  0
   -4.7126   -1.4575   -0.8951 H   0  0  0  0  0  0  0  0  0  0  0  0
   -4.8526    0.2372   -1.4315 H   0  0  0  0  0  0  0  0  0  0  0  0
   -6.3757   -0.6536    0.7116 H   0  0  0  0  0  0  0  0  0  0  0  0
   -4.6066    0.0045    2.6869 H   0  0  0  0  0  0  0  0  0  0  0  0
   -4.4582   -1.6091    1.9255 H   0  0  0  0  0  0  0  0  0  0  0  0
    5.4233    2.6923   -1.0706 H   0  0  0  0  0  0  0  0  0  0  0  0
    4.6454    3.8002    0.0495 H   0  0  0  0  0  0  0  0  0  0  0  0
    3.6924    2.9460   -1.1996 H   0  0  0  0  0  0  0  0  0  0  0  0
    3.2574    0.4363   -0.9817 H   0  0  0  0  0  0  0  0  0  0  0  0
    4.0257   -0.4704    0.3843 H   0  0  0  0  0  0  0  0  0  0  0  0
    4.9810    0.1968   -0.9088 H   0  0  0  0  0  0  0  0  0  0  0  0
   -0.1902    5.5511    0.0150 H   0  0  0  0  0  0  0  0  0  0  0  0
   -1.0672    4.8954   -1.3921 H   0  0  0  0  0  0  0  0  0  0  0  0
    0.6705    5.2751   -1.5109 H   0  0  0  0  0  0  0  0  0  0  0  0
   -4.8277    1.7381    0.7153 H   0  0  0  0  0  0  0  0  0  0  0  0
    3.1593   -5.3660    0.4330 H   0  0  0  0  0  0  0  0  0  0  0  0
    2.2459   -4.9273    2.7260 H   0  0  0  0  0  0  0  0  0  0  0  0
    1.6447   -3.2691    2.8543 H   0  0  0  0  0  0  0  0  0  0  0  0
    0.5049   -4.6185    2.7004 H   0  0  0  0  0  0  0  0  0  0  0  0
    1.2760   -3.6853   -3.3757 H   0  0  0  0  0  0  0  0  0  0  0  0
   -0.2832   -3.2749   -2.6533 H   0  0  0  0  0  0  0  0  0  0  0  0
    1.0375   -2.0904   -2.6461 H   0  0  0  0  0  0  0  0  0  0  0  0
  1 13  1  0  0  0  0
  1 16  1  0  0  0  0
  2  8  1  0  0  0  0
  2 24  1  0  0  0  0
  3 21  1  0  0  0  0
  3 52  1  0  0  0  0
  4 20  2  0  0  0  0
  5 22  2  0  0  0  0
  6 23  2  0  0  0  0
  7 13  1  0  0  0  0
  7 15  1  0  0  0  0
  7 23  1  0  0  0  0
  8 19  1  0  0  0  0
  8 20  1  0  0  0  0
  9 22  1  0  0  0  0
  9 23  1  0  0  0  0
  9 29  1  0  0  0  0
 10 11  1  0  0  0  0
 10 28  1  0  0  0  0
 10 53  1  0  0  0  0
 11 30  2  0  0  0  0
 12 13  2  0  0  0  0
 12 14  1  0  0  0  0
 12 22  1  0  0  0  0
 14 16  2  0  0  0  0
 14 20  1  0  0  0  0
 15 17  1  0  0  0  0
 15 33  1  0  0  0  0
 15 34  1  0  0  0  0
 16 18  1  0  0  0  0
 17 26  1  0  0  0  0
 17 27  1  0  0  0  0
 17 35  1  0  0  0  0
 18 25  1  0  0  0  0
 18 36  1  0  0  0  0
 18 37  1  0  0  0  0
 19 21  1  0  0  0  0
 19 38  1  0  0  0  0
 19 39  1  0  0  0  0
 21 24  1  0  0  0  0
 21 40  1  0  0  0  0
 24 41  1  0  0  0  0
 24 42  1  0  0  0  0
 25 28  2  0  0  0  0
 25 30  1  0  0  0  0
 26 43  1  0  0  0  0
 26 44  1  0  0  0  0
 26 45  1  0  0  0  0
 27 46  1  0  0  0  0
 27 47  1  0  0  0  0
 27 48  1  0  0  0  0
 28 31  1  0  0  0  0
 29 49  1  0  0  0  0
 29 50  1  0  0  0  0
 29 51  1  0  0  0  0
 30 32  1  0  0  0  0
 31 54  1  0  0  0  0
 31 55  1  0  0  0  0
 31 56  1  0  0  0  0
 32 57  1  0  0  0  0
 32 58  1  0  0  0  0
 32 59  1  0  0  0  0
M  END
> <PUBCHEM_COMPOUND_CID>
10226546

> <PUBCHEM_CONFORMER_RMSD>
1

> <PUBCHEM_CONFORMER_DIVERSEORDER>
1
26
83
72
31
77
17
85
63
71
46
67
76
30
33
60
18
65
37
32
78
49
79
59
68
82
21
54
66
19
52
84
73
28
22
56
47
61
74
36
2
23
75
58
50
41
64
69
24
70
48
35
57
9
38
34
62
81
80
44
4
25
45
51
20
10
43
53
27
7
14
42
55
29
40
11
13
3
8
39
12
15
16
6
5

> <PUBCHEM_MMFF94_PARTIAL_CHARGES>
31
1 -0.08
10 0.3
11 -0.71
12 -0.09
13 0.1
14 -0.09
15 0.3
16 -0.14
18 0.36
19 0.3
2 -0.32
20 0.72
21 0.28
22 0.72
23 0.69
24 0.28
25 -0.18
28 -0.33
29 0.3
3 -0.68
30 0.11
31 0.18
32 0.18
4 -0.57
5 -0.57
52 0.4
53 0.27
6 -0.57
7 -0.42
8 -0.32
9 -0.42

> <PUBCHEM_EFFECTIVE_ROTOR_COUNT>
7

> <PUBCHEM_PHARMACOPHORE_FEATURES>
12
1 10 donor
1 11 acceptor
1 3 acceptor
1 3 donor
1 4 acceptor
1 5 acceptor
1 6 acceptor
3 17 26 27 hydrophobe
5 1 12 13 14 16 rings
5 10 11 25 28 30 rings
5 2 8 19 21 24 rings
6 7 9 12 13 22 23 rings

> <PUBCHEM_HEAVY_ATOM_COUNT>
32

> <PUBCHEM_ATOM_DEF_STEREO_COUNT>
1

> <PUBCHEM_ATOM_UDEF_STEREO_COUNT>
0

> <PUBCHEM_BOND_DEF_STEREO_COUNT>
0

> <PUBCHEM_BOND_UDEF_STEREO_COUNT>
0

> <PUBCHEM_ISOTOPIC_ATOM_COUNT>
0

> <PUBCHEM_COMPONENT_COUNT>
1

> <PUBCHEM_CACTVS_TAUTO_COUNT>
1

> <PUBCHEM_CONFORMER_ID>
009C0B7200000001

> <PUBCHEM_MMFF94_ENERGY>
67.9041

> <PUBCHEM_FEATURE_SELFOVERLAP>
60.969

> <PUBCHEM_SHAPE_FINGERPRINT>
10940486 97 17832430074358378572
11445158 3 17678456578938237437
11578080 2 17460592511643502951
12160290 23 17472950261956829122
12788726 201 17469900882943613819
13140716 1 18265329688991914555
13383668 90 15601236327889351893
13692114 37 18049449442055784707
14178342 30 17258204697681539848
14725015 67 18338518531009874750
14790565 3 18336269053819383709
15420108 30 18202271520497568503
15775530 1 17970894571588853077
16728300 4 17680677404064631114
1813 80 17841718409171317031
19591789 44 18408880759020595800
20028762 73 18125720334343453279
20101258 96 17908140975703565819
20739085 24 18408606967482070945
21033648 29 18056192707749876361
3411729 13 18413112732194795779
4017518 198 18058738043340578398
5265222 85 18264219157053570532
79837 15 17979357787275737171

> <PUBCHEM_SHAPE_MULTIPOLES>
608.14
7.85
7.44
1.69
2.25
7.99
-0.24
-9.03
2.23
-1.5
-0.72
0.72
1.4
-0.44

> <PUBCHEM_SHAPE_SELFOVERLAP>
1299.795

> <PUBCHEM_SHAPE_VOLUME>
343.6

> <PUBCHEM_COORDINATE_TYPE>
2
5
10

$$$$
