102264289
  -OEChem-03292013293D

 53 58  0     1  0  0  0  0  0999 V2000
   -2.1154    1.4320   -0.5773 O   0  0  0  0  0  0  0  0  0  0  0  0
   -3.9416    0.8599   -2.5437 O   0  0  0  0  0  0  0  0  0  0  0  0
   -1.7083   -2.7542   -0.0517 O   0  0  0  0  0  0  0  0  0  0  0  0
   -3.7581    2.5496    1.1310 O   0  0  0  0  0  0  0  0  0  0  0  0
    0.7052   -2.3891    0.2475 O   0  0  0  0  0  0  0  0  0  0  0  0
    5.1257    2.1944   -0.1198 O   0  0  0  0  0  0  0  0  0  0  0  0
   -4.4823   -2.6176    0.6206 O   0  0  0  0  0  0  0  0  0  0  0  0
   -3.6894    0.4783    2.1516 O   0  0  0  0  0  0  0  0  0  0  0  0
    7.3138    1.3889   -0.0259 O   0  0  0  0  0  0  0  0  0  0  0  0
    3.8931    1.5553    0.0276 N   0  0  1  0  0  0  0  0  0  0  0  0
   -3.2958    0.6891   -0.2231 C   0  0  1  0  0  0  0  0  0  0  0  0
   -4.4056    1.0946   -1.2107 C   0  0  2  0  0  0  0  0  0  0  0  0
   -3.1335   -0.8034   -0.1259 C   0  0  0  0  0  0  0  0  0  0  0  0
   -5.7090    0.3201   -0.9895 C   0  0  0  0  0  0  0  0  0  0  0  0
   -5.4966   -1.1888   -1.0157 C   0  0  0  0  0  0  0  0  0  0  0  0
   -0.7395   -0.5451   -0.1942 C   0  0  0  0  0  0  0  0  0  0  0  0
   -4.3863   -1.6161   -0.0841 C   0  0  0  0  0  0  0  0  0  0  0  0
   -0.8975    0.8246   -0.4275 C   0  0  0  0  0  0  0  0  0  0  0  0
   -1.9301   -1.3981   -0.1133 C   0  0  0  0  0  0  0  0  0  0  0  0
    1.6958   -0.2463   -0.1721 C   0  0  0  0  0  0  0  0  0  0  0  0
    1.5075    1.1479   -0.4082 C   0  0  0  0  0  0  0  0  0  0  0  0
   -3.6015    1.1956    1.1643 C   0  0  0  0  0  0  0  0  0  0  0  0
    0.5605   -1.0673   -0.0673 C   0  0  0  0  0  0  0  0  0  0  0  0
    0.2135    1.6626   -0.5464 C   0  0  0  0  0  0  0  0  0  0  0  0
    2.6992    2.0954   -0.5833 C   0  0  0  0  0  0  0  0  0  0  0  0
    3.0731   -0.7572   -0.0447 C   0  0  0  0  0  0  0  0  0  0  0  0
    4.0705    0.1947    0.0276 C   0  0  0  0  0  0  0  0  0  0  0  0
    5.4169   -0.0874    0.0584 C   0  0  0  0  0  0  0  0  0  0  0  0
    3.5119   -2.0852   -0.0219 C   0  0  0  0  0  0  0  0  0  0  0  0
    6.1115    1.2118   -0.0187 C   0  0  0  0  0  0  0  0  0  0  0  0
    5.8693   -1.3847    0.0728 C   0  0  0  0  0  0  0  0  0  0  0  0
    4.8945   -2.3919    0.0443 C   0  0  0  0  0  0  0  0  0  0  0  0
   -4.0536    3.1654    2.3886 C   0  0  0  0  0  0  0  0  0  0  0  0
    0.6819   -2.7277    1.6309 C   0  0  0  0  0  0  0  0  0  0  0  0
   -4.6095    2.1701   -1.1530 H   0  0  0  0  0  0  0  0  0  0  0  0
   -6.4380    0.5831   -1.7650 H   0  0  0  0  0  0  0  0  0  0  0  0
   -6.1422    0.6085   -0.0239 H   0  0  0  0  0  0  0  0  0  0  0  0
   -5.2473   -1.5360   -2.0246 H   0  0  0  0  0  0  0  0  0  0  0  0
   -6.4226   -1.6883   -0.7101 H   0  0  0  0  0  0  0  0  0  0  0  0
    0.0707    2.7227   -0.7447 H   0  0  0  0  0  0  0  0  0  0  0  0
    2.8618    2.2475   -1.6573 H   0  0  0  0  0  0  0  0  0  0  0  0
    2.4734    3.0650   -0.1257 H   0  0  0  0  0  0  0  0  0  0  0  0
   -4.6477    1.1354   -3.1529 H   0  0  0  0  0  0  0  0  0  0  0  0
    2.8479   -2.9354   -0.1142 H   0  0  0  0  0  0  0  0  0  0  0  0
   -2.5638   -3.2124   -0.0120 H   0  0  0  0  0  0  0  0  0  0  0  0
    6.9248   -1.6273    0.0851 H   0  0  0  0  0  0  0  0  0  0  0  0
    5.2056   -3.4341    0.0411 H   0  0  0  0  0  0  0  0  0  0  0  0
   -4.1539    4.2416    2.2249 H   0  0  0  0  0  0  0  0  0  0  0  0
   -3.2369    2.9921    3.0959 H   0  0  0  0  0  0  0  0  0  0  0  0
   -4.9978    2.7807    2.7856 H   0  0  0  0  0  0  0  0  0  0  0  0
   -0.2365   -2.3825    2.1164 H   0  0  0  0  0  0  0  0  0  0  0  0
    1.5444   -2.3002    2.1516 H   0  0  0  0  0  0  0  0  0  0  0  0
    0.7311   -3.8168    1.7168 H   0  0  0  0  0  0  0  0  0  0  0  0
  1 11  1  0  0  0  0
  1 18  1  0  0  0  0
  2 12  1  0  0  0  0
  2 43  1  0  0  0  0
  3 19  1  0  0  0  0
  3 45  1  0  0  0  0
  4 22  1  0  0  0  0
  4 33  1  0  0  0  0
  5 23  1  0  0  0  0
  5 34  1  0  0  0  0
  6 10  1  0  0  0  0
  6 30  1  0  0  0  0
  7 17  2  0  0  0  0
  8 22  2  0  0  0  0
  9 30  2  0  0  0  0
 10 25  1  0  0  0  0
 10 27  1  0  0  0  0
 11 12  1  0  0  0  0
 11 13  1  0  0  0  0
 11 22  1  0  0  0  0
 12 14  1  0  0  0  0
 12 35  1  0  0  0  0
 13 17  1  0  0  0  0
 13 19  2  0  0  0  0
 14 15  1  0  0  0  0
 14 36  1  0  0  0  0
 14 37  1  0  0  0  0
 15 17  1  0  0  0  0
 15 38  1  0  0  0  0
 15 39  1  0  0  0  0
 16 18  2  0  0  0  0
 16 19  1  0  0  0  0
 16 23  1  0  0  0  0
 18 24  1  0  0  0  0
 20 21  1  0  0  0  0
 20 23  2  0  0  0  0
 20 26  1  0  0  0  0
 21 24  2  0  0  0  0
 21 25  1  0  0  0  0
 24 40  1  0  0  0  0
 25 41  1  0  0  0  0
 25 42  1  0  0  0  0
 26 27  1  0  0  0  0
 26 29  2  0  0  0  0
 27 28  2  0  0  0  0
 28 30  1  0  0  0  0
 28 31  1  0  0  0  0
 29 32  1  0  0  0  0
 29 44  1  0  0  0  0
 31 32  2  0  0  0  0
 31 46  1  0  0  0  0
 32 47  1  0  0  0  0
 33 48  1  0  0  0  0
 33 49  1  0  0  0  0
 33 50  1  0  0  0  0
 34 51  1  0  0  0  0
 34 52  1  0  0  0  0
 34 53  1  0  0  0  0
M  END
> <PUBCHEM_COMPOUND_CID>
102264289

> <PUBCHEM_CONFORMER_RMSD>
0.8

> <PUBCHEM_CONFORMER_DIVERSEORDER>
1
3
2
4
5

> <PUBCHEM_MMFF94_PARTIAL_CHARGES>
37
1 -0.36
10 -0.49
11 0.48
12 0.28
13 -0.12
15 0.06
16 0.03
17 0.49
18 0.08
19 0.05
2 -0.68
21 -0.14
22 0.66
23 0.08
24 -0.15
25 0.51
27 0.1
28 0.09
29 -0.15
3 -0.53
30 0.63
31 -0.15
32 -0.15
33 0.28
34 0.28
4 -0.43
40 0.15
43 0.4
44 0.15
45 0.45
46 0.15
47 0.15
5 -0.36
6 -0.13
7 -0.57
8 -0.57
9 -0.57

> <PUBCHEM_EFFECTIVE_ROTOR_COUNT>
4

> <PUBCHEM_PHARMACOPHORE_FEATURES>
14
1 1 acceptor
1 2 acceptor
1 2 donor
1 3 donor
1 5 acceptor
1 7 acceptor
1 8 acceptor
1 9 acceptor
5 6 10 27 28 30 rings
6 1 11 13 16 18 19 rings
6 10 20 21 25 26 27 rings
6 11 12 13 14 15 17 rings
6 16 18 20 21 23 24 rings
6 26 27 28 29 31 32 rings

> <PUBCHEM_HEAVY_ATOM_COUNT>
34

> <PUBCHEM_ATOM_DEF_STEREO_COUNT>
1

> <PUBCHEM_ATOM_UDEF_STEREO_COUNT>
1

> <PUBCHEM_BOND_DEF_STEREO_COUNT>
0

> <PUBCHEM_BOND_UDEF_STEREO_COUNT>
0

> <PUBCHEM_ISOTOPIC_ATOM_COUNT>
0

> <PUBCHEM_COMPONENT_COUNT>
1

> <PUBCHEM_CACTVS_TAUTO_COUNT>
5

> <PUBCHEM_CONFORMER_ID>
06186DE100000001

> <PUBCHEM_MMFF94_ENERGY>
140.2485

> <PUBCHEM_FEATURE_SELFOVERLAP>
71.373

> <PUBCHEM_SHAPE_FINGERPRINT>
10595046 47 18343862216864320870
10906281 52 18262536857313071492
11007060 377 17823141301342224144
11135609 12 17677065658411744819
11315181 36 18411420652107798316
11578080 2 16445292496772184431
12107183 9 17981612563438403274
12107698 1 17275099557304545057
12166972 35 18336543901977665253
12236239 1 18202560666016487357
12788726 201 17274551901882646208
13073987 5 18342461439203268306
13140716 1 18337117782390103034
13402501 40 18334009519238135510
13631057 29 18338793541844741519
13782708 43 17386002798810721386
14068700 675 17988350573100228597
14394314 77 18343308037709729753
14784336 7 18199741608650578833
14790565 3 18337675213558462144
15064981 113 17059205926173719765
15183329 4 18409730643307432294
15196674 1 18408038515996965398
15684973 49 17702083795835369511
15788980 27 17676207961504991364
16112460 7 18409172073624729784
17349148 13 18131070428494475964
1813 80 17094961048529820166
18608769 82 18117559745751249939
20028762 73 18341887459875006278
20511986 3 18342161255022118037
20775438 99 16401359684883021879
21033648 144 18335414638915718717
21033648 29 17168422658280629429
21033650 10 16772976738778326832
21065198 48 18343586222360851408
21236236 1 18412545414027194375
21267235 1 18408609179405942070
21279426 13 18334850576507849342
22393880 68 18041549270077606023
23522609 53 18119560720197697828
23559900 14 18338507650945214353
3004659 81 18186798063943582006
32027 91 18048307852469775350
335352 9 18335416837791437063
34797466 226 16630528483756034332
350125 39 18410856590094970259
3633792 109 18336535024775773077
3680242 22 18115300082643334090
392239 28 18261393287457196714
4073 2 17967816080617431210
4169191 19 18336828706181940132
460360 51 18337128798918017775
497634 4 18412261723190465109
5104073 3 18410011018609109042
59755656 215 18408038537788248294
9849439 229 15908571316175337321

> <PUBCHEM_SHAPE_MULTIPOLES>
641.9
15.11
3.14
1.35
11.2
0.31
-0.39
-2.56
0.89
-0.32
-1.14
-2.52
-0.66
-1.42

> <PUBCHEM_SHAPE_SELFOVERLAP>
1465.054

> <PUBCHEM_SHAPE_VOLUME>
331

> <PUBCHEM_COORDINATE_TYPE>
2
5
10

$$$$
