102271589
  -OEChem-03292013293D

 73 74  0     1  0  0  0  0  0999 V2000
   -7.5588   -1.0795    0.1480 S   0  0  0  0  0  0  0  0  0  0  0  0
    3.6555    0.4216    1.1877 O   0  0  0  0  0  0  0  0  0  0  0  0
   -0.2534   -2.5086   -0.8012 O   0  0  0  0  0  0  0  0  0  0  0  0
    3.5690   -2.7159    1.4826 O   0  0  0  0  0  0  0  0  0  0  0  0
   -0.5918    0.2618    0.7043 O   0  0  0  0  0  0  0  0  0  0  0  0
   -1.4284   -1.0316    2.4184 O   0  0  0  0  0  0  0  0  0  0  0  0
   -5.6273    0.2544   -0.9348 N   0  0  0  0  0  0  0  0  0  0  0  0
    2.1589   -2.8223   -0.4823 C   0  0  0  0  0  0  0  0  0  0  0  0
    4.3847   -1.3220   -0.3018 C   0  0  2  0  0  0  0  0  0  0  0  0
    3.8430    0.1200   -0.1979 C   0  0  2  0  0  0  0  0  0  0  0  0
    3.3970   -2.3306    0.3195 C   0  0  0  0  0  0  0  0  0  0  0  0
    0.9108   -1.9258   -0.2021 C   0  0  2  0  0  0  0  0  0  0  0  0
    4.7477    1.2106   -0.8349 C   0  0  2  0  0  0  0  0  0  0  0  0
    2.4454   -2.8572   -1.9973 C   0  0  0  0  0  0  0  0  0  0  0  0
    1.8949   -4.2890   -0.0610 C   0  0  0  0  0  0  0  0  0  0  0  0
    5.7568   -1.4943    0.3669 C   0  0  0  0  0  0  0  0  0  0  0  0
    0.5870   -1.7179    1.2857 C   0  0  0  0  0  0  0  0  0  0  0  0
    4.1672    2.6422   -0.6726 C   0  0  0  0  0  0  0  0  0  0  0  0
    5.0698    0.9121   -2.3042 C   0  0  0  0  0  0  0  0  0  0  0  0
   -0.6054   -0.8170    1.5363 C   0  0  0  0  0  0  0  0  0  0  0  0
    2.8483    2.8652   -1.3574 C   0  0  0  0  0  0  0  0  0  0  0  0
   -1.6500    1.2359    0.8496 C   0  0  1  0  0  0  0  0  0  0  0  0
    1.6386    3.1691   -0.8595 C   0  0  0  0  0  0  0  0  0  0  0  0
   -1.1934    2.5329    0.1674 C   0  0  0  0  0  0  0  0  0  0  0  0
    1.1982    3.4383    0.5022 C   0  0  0  0  0  0  0  0  0  0  0  0
   -0.0598    3.1835    0.9216 C   0  0  0  0  0  0  0  0  0  0  0  0
   -2.8898    0.7206    0.1867 C   0  0  0  0  0  0  0  0  0  0  0  0
    2.1428    4.1269    1.4516 C   0  0  0  0  0  0  0  0  0  0  0  0
   -2.7429    0.4541   -1.2865 C   0  0  0  0  0  0  0  0  0  0  0  0
   -4.0179    0.5442    0.9008 C   0  0  0  0  0  0  0  0  0  0  0  0
   -5.2929    0.0333    0.3869 C   0  0  0  0  0  0  0  0  0  0  0  0
   -6.2147   -0.6716    1.1320 C   0  0  0  0  0  0  0  0  0  0  0  0
   -6.8009   -0.2879   -1.1726 C   0  0  0  0  0  0  0  0  0  0  0  0
   -7.4882   -0.2554   -2.4820 C   0  0  0  0  0  0  0  0  0  0  0  0
    4.5257   -1.5942   -1.3501 H   0  0  0  0  0  0  0  0  0  0  0  0
    2.8576    0.1648   -0.6660 H   0  0  0  0  0  0  0  0  0  0  0  0
    1.0477   -0.9502   -0.6781 H   0  0  0  0  0  0  0  0  0  0  0  0
    5.7007    1.2318   -0.2893 H   0  0  0  0  0  0  0  0  0  0  0  0
    1.6496   -3.3682   -2.5504 H   0  0  0  0  0  0  0  0  0  0  0  0
    1.6595   -4.3761    1.0047 H   0  0  0  0  0  0  0  0  0  0  0  0
    2.7808   -4.9102   -0.2415 H   0  0  0  0  0  0  0  0  0  0  0  0
    2.5316   -1.8472   -2.4130 H   0  0  0  0  0  0  0  0  0  0  0  0
    3.3794   -3.3893   -2.2125 H   0  0  0  0  0  0  0  0  0  0  0  0
    1.0634   -4.7305   -0.6212 H   0  0  0  0  0  0  0  0  0  0  0  0
    5.7406   -1.2222    1.4272 H   0  0  0  0  0  0  0  0  0  0  0  0
    6.5232   -0.8919   -0.1294 H   0  0  0  0  0  0  0  0  0  0  0  0
    6.0801   -2.5402    0.3079 H   0  0  0  0  0  0  0  0  0  0  0  0
    1.4295   -1.2761    1.8251 H   0  0  0  0  0  0  0  0  0  0  0  0
    0.3432   -2.6807    1.7489 H   0  0  0  0  0  0  0  0  0  0  0  0
    4.8829    3.3633   -1.0887 H   0  0  0  0  0  0  0  0  0  0  0  0
    4.1171    2.8678    0.3925 H   0  0  0  0  0  0  0  0  0  0  0  0
    4.1622    0.7170   -2.8846 H   0  0  0  0  0  0  0  0  0  0  0  0
    5.7207    0.0372   -2.3962 H   0  0  0  0  0  0  0  0  0  0  0  0
    5.5986    1.7519   -2.7676 H   0  0  0  0  0  0  0  0  0  0  0  0
    4.5251    0.6000    1.5829 H   0  0  0  0  0  0  0  0  0  0  0  0
   -0.1683   -2.4165   -1.7648 H   0  0  0  0  0  0  0  0  0  0  0  0
    2.8880    2.7425   -2.4402 H   0  0  0  0  0  0  0  0  0  0  0  0
   -1.8085    1.4303    1.9191 H   0  0  0  0  0  0  0  0  0  0  0  0
    0.8486    3.2297   -1.6076 H   0  0  0  0  0  0  0  0  0  0  0  0
   -2.0215    3.2524    0.1325 H   0  0  0  0  0  0  0  0  0  0  0  0
   -0.9011    2.3316   -0.8667 H   0  0  0  0  0  0  0  0  0  0  0  0
   -0.3191    3.4613    1.9435 H   0  0  0  0  0  0  0  0  0  0  0  0
    2.7732    3.3967    1.9679 H   0  0  0  0  0  0  0  0  0  0  0  0
    1.6032    4.6890    2.2230 H   0  0  0  0  0  0  0  0  0  0  0  0
    2.7773    4.8518    0.9305 H   0  0  0  0  0  0  0  0  0  0  0  0
   -2.9977    1.3469   -1.8663 H   0  0  0  0  0  0  0  0  0  0  0  0
   -3.3687   -0.3776   -1.6222 H   0  0  0  0  0  0  0  0  0  0  0  0
   -1.7203    0.1607   -1.5473 H   0  0  0  0  0  0  0  0  0  0  0  0
   -3.9946    0.7424    1.9706 H   0  0  0  0  0  0  0  0  0  0  0  0
   -6.1710   -0.9612    2.1728 H   0  0  0  0  0  0  0  0  0  0  0  0
   -7.6588   -1.2679   -2.8618 H   0  0  0  0  0  0  0  0  0  0  0  0
   -8.4520    0.2585   -2.4074 H   0  0  0  0  0  0  0  0  0  0  0  0
   -6.8818    0.2794   -3.2205 H   0  0  0  0  0  0  0  0  0  0  0  0
  1 32  1  0  0  0  0
  1 33  1  0  0  0  0
  2 10  1  0  0  0  0
  2 55  1  0  0  0  0
  3 12  1  0  0  0  0
  3 56  1  0  0  0  0
  4 11  2  0  0  0  0
  5 20  1  0  0  0  0
  5 22  1  0  0  0  0
  6 20  2  0  0  0  0
  7 31  1  0  0  0  0
  7 33  2  0  0  0  0
  8 11  1  0  0  0  0
  8 12  1  0  0  0  0
  8 14  1  0  0  0  0
  8 15  1  0  0  0  0
  9 10  1  0  0  0  0
  9 11  1  0  0  0  0
  9 16  1  0  0  0  0
  9 35  1  0  0  0  0
 10 13  1  0  0  0  0
 10 36  1  0  0  0  0
 12 17  1  0  0  0  0
 12 37  1  0  0  0  0
 13 18  1  0  0  0  0
 13 19  1  0  0  0  0
 13 38  1  0  0  0  0
 14 39  1  0  0  0  0
 14 42  1  0  0  0  0
 14 43  1  0  0  0  0
 15 40  1  0  0  0  0
 15 41  1  0  0  0  0
 15 44  1  0  0  0  0
 16 45  1  0  0  0  0
 16 46  1  0  0  0  0
 16 47  1  0  0  0  0
 17 20  1  0  0  0  0
 17 48  1  0  0  0  0
 17 49  1  0  0  0  0
 18 21  1  0  0  0  0
 18 50  1  0  0  0  0
 18 51  1  0  0  0  0
 19 52  1  0  0  0  0
 19 53  1  0  0  0  0
 19 54  1  0  0  0  0
 21 23  2  0  0  0  0
 21 57  1  0  0  0  0
 22 24  1  0  0  0  0
 22 27  1  0  0  0  0
 22 58  1  0  0  0  0
 23 25  1  0  0  0  0
 23 59  1  0  0  0  0
 24 26  1  0  0  0  0
 24 60  1  0  0  0  0
 24 61  1  0  0  0  0
 25 26  2  0  0  0  0
 25 28  1  0  0  0  0
 26 62  1  0  0  0  0
 27 29  1  0  0  0  0
 27 30  2  0  0  0  0
 28 63  1  0  0  0  0
 28 64  1  0  0  0  0
 28 65  1  0  0  0  0
 29 66  1  0  0  0  0
 29 67  1  0  0  0  0
 29 68  1  0  0  0  0
 30 31  1  0  0  0  0
 30 69  1  0  0  0  0
 31 32  2  0  0  0  0
 32 70  1  0  0  0  0
 33 34  1  0  0  0  0
 34 71  1  0  0  0  0
 34 72  1  0  0  0  0
 34 73  1  0  0  0  0
M  END
> <PUBCHEM_COMPOUND_CID>
102271589

> <PUBCHEM_CONFORMER_RMSD>
0.8

> <PUBCHEM_CONFORMER_DIVERSEORDER>
4
5
19
12
15
22
13
20
23
10
7
18
8
16
9
21
3
25
24
2
6
17
26
11
1
14

> <PUBCHEM_MMFF94_PARTIAL_CHARGES>
36
1 -0.08
10 0.28
11 0.45
12 0.28
17 0.06
18 0.14
2 -0.68
20 0.66
21 -0.29
22 0.42
23 -0.15
24 0.14
25 -0.14
26 -0.29
27 -0.28
28 0.14
29 0.14
3 -0.68
30 -0.1
31 0.18
32 -0.11
33 0.2
34 0.18
4 -0.57
5 -0.43
55 0.4
56 0.4
57 0.15
59 0.15
6 -0.57
62 0.15
69 0.15
7 -0.57
70 0.15
8 0.06
9 0.06

> <PUBCHEM_EFFECTIVE_ROTOR_COUNT>
4

> <PUBCHEM_PHARMACOPHORE_FEATURES>
10
1 2 acceptor
1 2 donor
1 29 hydrophobe
1 3 acceptor
1 3 donor
1 4 acceptor
1 6 acceptor
1 7 acceptor
3 8 14 15 hydrophobe
5 1 7 31 32 33 rings

> <PUBCHEM_HEAVY_ATOM_COUNT>
34

> <PUBCHEM_ATOM_DEF_STEREO_COUNT>
5

> <PUBCHEM_ATOM_UDEF_STEREO_COUNT>
0

> <PUBCHEM_BOND_DEF_STEREO_COUNT>
3

> <PUBCHEM_BOND_UDEF_STEREO_COUNT>
0

> <PUBCHEM_ISOTOPIC_ATOM_COUNT>
0

> <PUBCHEM_COMPONENT_COUNT>
1

> <PUBCHEM_CACTVS_TAUTO_COUNT>
8

> <PUBCHEM_CONFORMER_ID>
06188A6500000004

> <PUBCHEM_MMFF94_ENERGY>
80.2516

> <PUBCHEM_FEATURE_SELFOVERLAP>
50.748

> <PUBCHEM_SHAPE_FINGERPRINT>
10675989 125 18266744756125881064
10838868 158 16958180925630108115
11135609 187 18338239378719558121
11204353 107 18188778374274624163
11513181 2 17912103667492095950
11763715 3 17908170705630557247
12166972 35 17822018558125249614
12645989 146 18123198900905051606
12838862 33 18337103588315253516
12838863 1 18335132052186446098
1361 2 18412829117859810257
14725015 67 18188482485349861200
14784336 7 17916868057819243729
14931854 50 18261972781756881564
15001296 14 18058158595985165245
15082195 135 18341888645243541215
15119646 104 18412551998861100569
15328829 1 17631475439753265465
15351334 14 17677309703255373671
15684973 49 17275112704969207247
15927050 60 17838897384324524452
15950262 2 15503801799751003068
17492 89 17980481165842208530
1813 80 18130505215837230919
19026451 147 18335981970041827570
19315092 285 16879335711295283594
20775438 99 18126549339876853415
21285901 2 17748825215435964916
22121540 332 17459725091959498383
23559900 14 18115029722778455161
25019877 29 17274810325722451870
27425 322 15214153053504487828
3298306 158 18262809603956485176
3729539 64 18260831501303028745
4015057 19 18408329882641821675
437795 51 18262804085587901199
45266715 3 18056755653134126992
463206 1 18271524290199947046
484989 97 18192447478302331858
513532 50 17917721184447523532
5265222 85 17540836304568657852
5309563 4 18341895134759433296
59755656 215 18260829349709211517
6669772 16 18127120003475662616

> <PUBCHEM_SHAPE_MULTIPOLES>
669.23
15.8
4.89
1.87
30.87
0.97
0.46
-3.66
6.29
-7.46
-0.39
0.64
-0.07
-0.67

> <PUBCHEM_SHAPE_SELFOVERLAP>
1350.355

> <PUBCHEM_SHAPE_VOLUME>
392.7

> <PUBCHEM_COORDINATE_TYPE>
2
5
10

$$$$
