102271497
  -OEChem-03292013293D

 67 67  0     1  0  0  0  0  0999 V2000
    0.9903    2.1337   -0.5180 O   0  0  0  0  0  0  0  0  0  0  0  0
   -1.5641    1.1073    1.8302 O   0  0  0  0  0  0  0  0  0  0  0  0
    4.4356   -3.5813    1.2091 O   0  0  0  0  0  0  0  0  0  0  0  0
   -6.6399    0.0773   -0.7368 O   0  0  0  0  0  0  0  0  0  0  0  0
   -4.2079    0.7093    1.6041 O   0  0  0  0  0  0  0  0  0  0  0  0
    2.6639    1.1999    0.7671 O   0  0  0  0  0  0  0  0  0  0  0  0
   -1.0888   -2.0077   -0.1143 C   0  0  2  0  0  0  0  0  0  0  0  0
   -2.4810   -1.8764    0.5761 C   0  0  0  0  0  0  0  0  0  0  0  0
    0.0053   -2.0359    0.9697 C   0  0  0  0  0  0  0  0  0  0  0  0
   -0.8818   -0.9202   -1.1613 C   0  0  0  0  0  0  0  0  0  0  0  0
   -1.0127   -3.3705   -0.8491 C   0  0  0  0  0  0  0  0  0  0  0  0
    0.0408    1.2087    0.0307 C   0  0  1  0  0  0  0  0  0  0  0  0
   -1.0824    1.9733    0.8030 C   0  0  1  0  0  0  0  0  0  0  0  0
   -0.4390    0.3463   -1.1102 C   0  0  0  0  0  0  0  0  0  0  0  0
   -3.6419   -1.5919   -0.3479 C   0  0  0  0  0  0  0  0  0  0  0  0
    1.3555   -2.2020    0.3520 C   0  0  0  0  0  0  0  0  0  0  0  0
   -4.3270   -0.4402   -0.4742 C   0  0  0  0  0  0  0  0  0  0  0  0
   -2.2185    2.4124   -0.1106 C   0  0  0  0  0  0  0  0  0  0  0  0
   -0.5370    3.2118    1.5351 C   0  0  0  0  0  0  0  0  0  0  0  0
    2.1729   -3.2286    0.6349 C   0  0  0  0  0  0  0  0  0  0  0  0
    3.5584   -3.4762    0.0815 C   0  0  0  0  0  0  0  0  0  0  0  0
   -3.9903    0.7172    0.3989 C   0  0  0  0  0  0  0  0  0  0  0  0
   -3.4435    1.8989   -0.3092 C   0  0  0  0  0  0  0  0  0  0  0  0
   -5.4579   -0.2617   -1.4393 C   0  0  0  0  0  0  0  0  0  0  0  0
    3.5764   -4.8191   -0.6569 C   0  0  0  0  0  0  0  0  0  0  0  0
    4.1084   -2.3737   -0.8300 C   0  0  0  0  0  0  0  0  0  0  0  0
    2.2629    2.0077   -0.0538 C   0  0  0  0  0  0  0  0  0  0  0  0
    3.0770    3.0534   -0.7179 C   0  0  0  0  0  0  0  0  0  0  0  0
    4.3890    3.2679   -0.5121 C   0  0  0  0  0  0  0  0  0  0  0  0
    5.2850    2.4883    0.4093 C   0  0  0  0  0  0  0  0  0  0  0  0
    5.0920    4.3718   -1.2601 C   0  0  0  0  0  0  0  0  0  0  0  0
   -2.4256   -1.1217    1.3632 H   0  0  0  0  0  0  0  0  0  0  0  0
   -2.7094   -2.8093    1.1099 H   0  0  0  0  0  0  0  0  0  0  0  0
   -0.0144   -1.1477    1.6034 H   0  0  0  0  0  0  0  0  0  0  0  0
   -0.1963   -2.8668    1.6608 H   0  0  0  0  0  0  0  0  0  0  0  0
   -1.2019   -1.2232   -2.1621 H   0  0  0  0  0  0  0  0  0  0  0  0
   -1.0712   -4.2082   -0.1440 H   0  0  0  0  0  0  0  0  0  0  0  0
   -0.0940   -3.4873   -1.4359 H   0  0  0  0  0  0  0  0  0  0  0  0
   -1.8427   -3.4917   -1.5555 H   0  0  0  0  0  0  0  0  0  0  0  0
    0.5404    0.5664    0.7528 H   0  0  0  0  0  0  0  0  0  0  0  0
   -0.4552    0.8691   -2.0694 H   0  0  0  0  0  0  0  0  0  0  0  0
   -3.9297   -2.4251   -0.9870 H   0  0  0  0  0  0  0  0  0  0  0  0
    1.6971   -1.4293   -0.3280 H   0  0  0  0  0  0  0  0  0  0  0  0
   -1.9633    3.2571   -0.7531 H   0  0  0  0  0  0  0  0  0  0  0  0
    0.2900    2.9392    2.2013 H   0  0  0  0  0  0  0  0  0  0  0  0
   -1.3097    3.6580    2.1735 H   0  0  0  0  0  0  0  0  0  0  0  0
   -0.1829    3.9845    0.8442 H   0  0  0  0  0  0  0  0  0  0  0  0
    1.8165   -3.9816    1.3376 H   0  0  0  0  0  0  0  0  0  0  0  0
   -4.0775    2.3348   -1.0759 H   0  0  0  0  0  0  0  0  0  0  0  0
   -0.8380    0.9328    2.4529 H   0  0  0  0  0  0  0  0  0  0  0  0
   -5.6521   -1.1804   -2.0033 H   0  0  0  0  0  0  0  0  0  0  0  0
   -5.2341    0.5296   -2.1617 H   0  0  0  0  0  0  0  0  0  0  0  0
    3.4987   -2.2435   -1.7305 H   0  0  0  0  0  0  0  0  0  0  0  0
    4.1656   -1.4152   -0.3007 H   0  0  0  0  0  0  0  0  0  0  0  0
    2.9068   -4.8130   -1.5240 H   0  0  0  0  0  0  0  0  0  0  0  0
    3.2771   -5.6398    0.0060 H   0  0  0  0  0  0  0  0  0  0  0  0
    4.5877   -5.0613   -1.0043 H   0  0  0  0  0  0  0  0  0  0  0  0
    5.1327   -2.6053   -1.1457 H   0  0  0  0  0  0  0  0  0  0  0  0
    5.3237   -3.8035    0.8810 H   0  0  0  0  0  0  0  0  0  0  0  0
   -7.3439    0.1925   -1.3977 H   0  0  0  0  0  0  0  0  0  0  0  0
    2.5419    3.6886   -1.4209 H   0  0  0  0  0  0  0  0  0  0  0  0
    5.8079    1.7042   -0.1472 H   0  0  0  0  0  0  0  0  0  0  0  0
    5.9205    3.9621   -1.8475 H   0  0  0  0  0  0  0  0  0  0  0  0
    6.0398    3.1482    0.8523 H   0  0  0  0  0  0  0  0  0  0  0  0
    4.4260    4.8996   -1.9511 H   0  0  0  0  0  0  0  0  0  0  0  0
    4.7601    2.0363    1.2520 H   0  0  0  0  0  0  0  0  0  0  0  0
    5.4937    5.1103   -0.5584 H   0  0  0  0  0  0  0  0  0  0  0  0
  1 12  1  0  0  0  0
  1 27  1  0  0  0  0
  2 13  1  0  0  0  0
  2 50  1  0  0  0  0
  3 21  1  0  0  0  0
  3 59  1  0  0  0  0
  4 24  1  0  0  0  0
  4 60  1  0  0  0  0
  5 22  2  0  0  0  0
  6 27  2  0  0  0  0
  7  8  1  0  0  0  0
  7  9  1  0  0  0  0
  7 10  1  0  0  0  0
  7 11  1  0  0  0  0
  8 15  1  0  0  0  0
  8 32  1  0  0  0  0
  8 33  1  0  0  0  0
  9 16  1  0  0  0  0
  9 34  1  0  0  0  0
  9 35  1  0  0  0  0
 10 14  2  0  0  0  0
 10 36  1  0  0  0  0
 11 37  1  0  0  0  0
 11 38  1  0  0  0  0
 11 39  1  0  0  0  0
 12 13  1  0  0  0  0
 12 14  1  0  0  0  0
 12 40  1  0  0  0  0
 13 18  1  0  0  0  0
 13 19  1  0  0  0  0
 14 41  1  0  0  0  0
 15 17  2  0  0  0  0
 15 42  1  0  0  0  0
 16 20  2  0  0  0  0
 16 43  1  0  0  0  0
 17 22  1  0  0  0  0
 17 24  1  0  0  0  0
 18 23  2  0  0  0  0
 18 44  1  0  0  0  0
 19 45  1  0  0  0  0
 19 46  1  0  0  0  0
 19 47  1  0  0  0  0
 20 21  1  0  0  0  0
 20 48  1  0  0  0  0
 21 25  1  0  0  0  0
 21 26  1  0  0  0  0
 22 23  1  0  0  0  0
 23 49  1  0  0  0  0
 24 51  1  0  0  0  0
 24 52  1  0  0  0  0
 25 55  1  0  0  0  0
 25 56  1  0  0  0  0
 25 57  1  0  0  0  0
 26 53  1  0  0  0  0
 26 54  1  0  0  0  0
 26 58  1  0  0  0  0
 27 28  1  0  0  0  0
 28 29  2  0  0  0  0
 28 61  1  0  0  0  0
 29 30  1  0  0  0  0
 29 31  1  0  0  0  0
 30 62  1  0  0  0  0
 30 64  1  0  0  0  0
 30 66  1  0  0  0  0
 31 63  1  0  0  0  0
 31 65  1  0  0  0  0
 31 67  1  0  0  0  0
M  END
> <PUBCHEM_COMPOUND_CID>
102271497

> <PUBCHEM_CONFORMER_RMSD>
1

> <PUBCHEM_CONFORMER_DIVERSEORDER>
1
8
7
35
9
16
22
18
20
29
17
6
32
19
13
27
25
21
10
12
31
26
4
5
33
34
2
3
15
14
11
28
24
23
30

> <PUBCHEM_MMFF94_PARTIAL_CHARGES>
38
1 -0.43
10 -0.29
12 0.42
13 0.42
14 -0.29
15 -0.29
16 -0.29
17 -0.12
18 -0.29
2 -0.68
20 -0.29
21 0.42
22 0.54
23 -0.14
24 0.42
27 0.71
28 -0.14
29 -0.28
3 -0.68
30 0.14
31 0.14
36 0.15
4 -0.68
41 0.15
42 0.15
43 0.15
44 0.15
48 0.15
49 0.15
5 -0.57
50 0.4
59 0.4
6 -0.57
60 0.4
61 0.15
7 0.14
8 0.14
9 0.14

> <PUBCHEM_EFFECTIVE_ROTOR_COUNT>
7.8

> <PUBCHEM_PHARMACOPHORE_FEATURES>
10
1 2 acceptor
1 2 donor
1 3 acceptor
1 3 donor
1 4 acceptor
1 4 donor
1 5 acceptor
1 6 acceptor
3 21 25 26 hydrophobe
3 29 30 31 hydrophobe

> <PUBCHEM_HEAVY_ATOM_COUNT>
31

> <PUBCHEM_ATOM_DEF_STEREO_COUNT>
3

> <PUBCHEM_ATOM_UDEF_STEREO_COUNT>
0

> <PUBCHEM_BOND_DEF_STEREO_COUNT>
4

> <PUBCHEM_BOND_UDEF_STEREO_COUNT>
0

> <PUBCHEM_ISOTOPIC_ATOM_COUNT>
0

> <PUBCHEM_COMPONENT_COUNT>
1

> <PUBCHEM_CACTVS_TAUTO_COUNT>
3

> <PUBCHEM_CONFORMER_ID>
06188A0900000001

> <PUBCHEM_MMFF94_ENERGY>
94.3449

> <PUBCHEM_FEATURE_SELFOVERLAP>
50.756

> <PUBCHEM_SHAPE_FINGERPRINT>
10190108 129 17690000455199488575
1100329 8 18123754153891163985
11135926 11 18337955691834209021
11513181 2 18273213105606229318
11578080 2 17968921025811165605
13140716 1 18340498759745827259
13540713 5 18201443528692553361
14068700 675 18055059970391422715
14251757 5 17544765985597200356
14790565 3 18192715772599644740
14955137 171 17834140562015355659
15439362 3 18335136492828968277
15927050 60 18268147745979362879
16067689 302 18339361981215065679
16719943 64 18049161374256015528
167882 2 18408322185596287245
17627616 140 18409736161950335824
20642791 35 18411423925490108710
21133665 82 18120941866232510444
21796203 349 17474438657387986018
23559900 14 18197200474228176393
3027735 51 18124882506387680986
5085150 59 18267010843109697136
5385378 56 18338524139730410579
6669772 16 18337396040578779460
9981440 41 18119531191811669586

> <PUBCHEM_SHAPE_MULTIPOLES>
602.75
11.11
6.49
1.3
2.21
3.24
0.18
-3.92
-2.67
-11.87
-0.34
0.35
-0.29
-1.7

> <PUBCHEM_SHAPE_SELFOVERLAP>
1216.766

> <PUBCHEM_SHAPE_VOLUME>
348.4

> <PUBCHEM_COORDINATE_TYPE>
2
5
10

$$$$
