102252208
  -OEChem-03292013293D

 75 79  0     1  0  0  0  0  0999 V2000
   -0.7120   -2.1532    2.3346 O   0  0  0  0  0  0  0  0  0  0  0  0
    3.4592   -0.0469    1.3084 O   0  0  0  0  0  0  0  0  0  0  0  0
   -7.5386   -1.8709   -0.2411 O   0  0  0  0  0  0  0  0  0  0  0  0
    4.9280   -1.0939   -0.1717 O   0  0  0  0  0  0  0  0  0  0  0  0
    4.9284    2.3558    1.0321 O   0  0  0  0  0  0  0  0  0  0  0  0
    7.7471    1.8482    0.3412 O   0  0  0  0  0  0  0  0  0  0  0  0
    7.9282    0.0630   -1.9250 O   0  0  0  0  0  0  0  0  0  0  0  0
    5.0910   -3.0731   -2.0721 O   0  0  0  0  0  0  0  0  0  0  0  0
   -2.2285   -0.3255    0.3443 C   0  0  1  0  0  0  0  0  0  0  0  0
   -2.8419    0.9761   -0.2643 C   0  0  2  0  0  0  0  0  0  0  0  0
   -4.1745    0.6410   -0.9337 C   0  0  1  0  0  0  0  0  0  0  0  0
   -0.8689   -0.0136    1.1107 C   0  0  2  0  0  0  0  0  0  0  0  0
   -5.2023    0.0496    0.0557 C   0  0  2  0  0  0  0  0  0  0  0  0
   -3.2645   -1.1710    1.1449 C   0  0  0  0  0  0  0  0  0  0  0  0
   -4.6489   -1.3136    0.4798 C   0  0  0  0  0  0  0  0  0  0  0  0
   -1.8673    1.5965   -1.2729 C   0  0  0  0  0  0  0  0  0  0  0  0
    0.0054    0.9413    0.2742 C   0  0  0  0  0  0  0  0  0  0  0  0
   -0.0806   -1.3511    1.3373 C   0  0  1  0  0  0  0  0  0  0  0  0
   -4.9445    1.7139   -1.7054 C   0  0  0  0  0  0  0  0  0  0  0  0
   -6.4094    0.0965   -0.8422 C   0  0  0  0  0  0  0  0  0  0  0  0
   -0.4564    1.6281   -0.7855 C   0  0  0  0  0  0  0  0  0  0  0  0
   -1.1473    0.6836    2.4668 C   0  0  0  0  0  0  0  0  0  0  0  0
   -5.5041    0.9289    1.2905 C   0  0  0  0  0  0  0  0  0  0  0  0
    1.4515    1.0948    0.6831 C   0  0  0  0  0  0  0  0  0  0  0  0
    1.3762   -1.1592    1.7718 C   0  0  0  0  0  0  0  0  0  0  0  0
   -6.2901    1.0431   -1.7862 C   0  0  0  0  0  0  0  0  0  0  0  0
    2.1403   -0.2565    0.8145 C   0  0  2  0  0  0  0  0  0  0  0  0
   -7.6031   -0.7163   -0.6876 C   0  0  0  0  0  0  0  0  0  0  0  0
    4.3883    0.1583    0.2445 C   0  0  2  0  0  0  0  0  0  0  0  0
   -8.9387   -0.1190   -1.0767 C   0  0  0  0  0  0  0  0  0  0  0  0
    5.4976    1.0757    0.7588 C   0  0  1  0  0  0  0  0  0  0  0  0
    6.6162    1.2275   -0.2720 C   0  0  2  0  0  0  0  0  0  0  0  0
    5.8498   -0.9604   -1.2550 C   0  0  1  0  0  0  0  0  0  0  0  0
    7.0587   -0.1323   -0.8128 C   0  0  1  0  0  0  0  0  0  0  0  0
    6.2560   -2.3652   -1.6890 C   0  0  0  0  0  0  0  0  0  0  0  0
   -1.9604   -0.9573   -0.5187 H   0  0  0  0  0  0  0  0  0  0  0  0
   -3.0124    1.7112    0.5302 H   0  0  0  0  0  0  0  0  0  0  0  0
   -3.9389   -0.1353   -1.6865 H   0  0  0  0  0  0  0  0  0  0  0  0
   -2.8766   -2.1845    1.2893 H   0  0  0  0  0  0  0  0  0  0  0  0
   -3.4099   -0.7533    2.1445 H   0  0  0  0  0  0  0  0  0  0  0  0
   -4.5615   -1.9814   -0.3873 H   0  0  0  0  0  0  0  0  0  0  0  0
   -5.3284   -1.8090    1.1838 H   0  0  0  0  0  0  0  0  0  0  0  0
   -2.1862    2.6219   -1.4953 H   0  0  0  0  0  0  0  0  0  0  0  0
   -1.8859    1.0455   -2.2214 H   0  0  0  0  0  0  0  0  0  0  0  0
   -0.0862   -1.9306    0.4047 H   0  0  0  0  0  0  0  0  0  0  0  0
   -4.5181    1.8729   -2.7002 H   0  0  0  0  0  0  0  0  0  0  0  0
   -5.0069    2.6697   -1.1769 H   0  0  0  0  0  0  0  0  0  0  0  0
    0.2200    2.2688   -1.3464 H   0  0  0  0  0  0  0  0  0  0  0  0
   -1.7195    0.0513    3.1516 H   0  0  0  0  0  0  0  0  0  0  0  0
   -1.7042    1.6174    2.3366 H   0  0  0  0  0  0  0  0  0  0  0  0
   -0.2217    0.9404    2.9931 H   0  0  0  0  0  0  0  0  0  0  0  0
   -5.8649    1.9260    1.0125 H   0  0  0  0  0  0  0  0  0  0  0  0
   -6.2820    0.4653    1.9096 H   0  0  0  0  0  0  0  0  0  0  0  0
   -4.6315    1.0789    1.9317 H   0  0  0  0  0  0  0  0  0  0  0  0
    1.9996    1.7246   -0.0282 H   0  0  0  0  0  0  0  0  0  0  0  0
    1.5091    1.6384    1.6349 H   0  0  0  0  0  0  0  0  0  0  0  0
    1.8780   -2.1337    1.8394 H   0  0  0  0  0  0  0  0  0  0  0  0
    1.4262   -0.7642    2.7952 H   0  0  0  0  0  0  0  0  0  0  0  0
   -7.0325    1.3047   -2.5262 H   0  0  0  0  0  0  0  0  0  0  0  0
    2.1755   -0.7621   -0.1614 H   0  0  0  0  0  0  0  0  0  0  0  0
   -0.2294   -2.9958    2.3856 H   0  0  0  0  0  0  0  0  0  0  0  0
    3.8899    0.6387   -0.6086 H   0  0  0  0  0  0  0  0  0  0  0  0
   -9.0994   -0.2422   -2.1506 H   0  0  0  0  0  0  0  0  0  0  0  0
   -8.9861    0.9385   -0.8024 H   0  0  0  0  0  0  0  0  0  0  0  0
   -9.7340   -0.6367   -0.5318 H   0  0  0  0  0  0  0  0  0  0  0  0
    5.8980    0.6987    1.7073 H   0  0  0  0  0  0  0  0  0  0  0  0
    6.3092    1.8916   -1.0885 H   0  0  0  0  0  0  0  0  0  0  0  0
    5.3312   -0.4826   -2.0975 H   0  0  0  0  0  0  0  0  0  0  0  0
    7.6277   -0.6676   -0.0429 H   0  0  0  0  0  0  0  0  0  0  0  0
    4.5613    2.7062    0.2026 H   0  0  0  0  0  0  0  0  0  0  0  0
    6.7199   -2.9107   -0.8604 H   0  0  0  0  0  0  0  0  0  0  0  0
    6.9466   -2.3398   -2.5373 H   0  0  0  0  0  0  0  0  0  0  0  0
    8.0334    1.2893    1.0837 H   0  0  0  0  0  0  0  0  0  0  0  0
    7.4285    0.5254   -2.6193 H   0  0  0  0  0  0  0  0  0  0  0  0
    5.3719   -3.9645   -2.3403 H   0  0  0  0  0  0  0  0  0  0  0  0
  1 18  1  0  0  0  0
  1 61  1  0  0  0  0
  2 27  1  0  0  0  0
  2 29  1  0  0  0  0
  3 28  2  0  0  0  0
  4 29  1  0  0  0  0
  4 33  1  0  0  0  0
  5 31  1  0  0  0  0
  5 70  1  0  0  0  0
  6 32  1  0  0  0  0
  6 73  1  0  0  0  0
  7 34  1  0  0  0  0
  7 74  1  0  0  0  0
  8 35  1  0  0  0  0
  8 75  1  0  0  0  0
  9 10  1  0  0  0  0
  9 12  1  0  0  0  0
  9 14  1  0  0  0  0
  9 36  1  0  0  0  0
 10 11  1  0  0  0  0
 10 16  1  0  0  0  0
 10 37  1  0  0  0  0
 11 13  1  0  0  0  0
 11 19  1  0  0  0  0
 11 38  1  0  0  0  0
 12 17  1  0  0  0  0
 12 18  1  0  0  0  0
 12 22  1  0  0  0  0
 13 15  1  0  0  0  0
 13 20  1  0  0  0  0
 13 23  1  0  0  0  0
 14 15  1  0  0  0  0
 14 39  1  0  0  0  0
 14 40  1  0  0  0  0
 15 41  1  0  0  0  0
 15 42  1  0  0  0  0
 16 21  1  0  0  0  0
 16 43  1  0  0  0  0
 16 44  1  0  0  0  0
 17 21  2  0  0  0  0
 17 24  1  0  0  0  0
 18 25  1  0  0  0  0
 18 45  1  0  0  0  0
 19 26  1  0  0  0  0
 19 46  1  0  0  0  0
 19 47  1  0  0  0  0
 20 26  2  0  0  0  0
 20 28  1  0  0  0  0
 21 48  1  0  0  0  0
 22 49  1  0  0  0  0
 22 50  1  0  0  0  0
 22 51  1  0  0  0  0
 23 52  1  0  0  0  0
 23 53  1  0  0  0  0
 23 54  1  0  0  0  0
 24 27  1  0  0  0  0
 24 55  1  0  0  0  0
 24 56  1  0  0  0  0
 25 27  1  0  0  0  0
 25 57  1  0  0  0  0
 25 58  1  0  0  0  0
 26 59  1  0  0  0  0
 27 60  1  0  0  0  0
 28 30  1  0  0  0  0
 29 31  1  0  0  0  0
 29 62  1  0  0  0  0
 30 63  1  0  0  0  0
 30 64  1  0  0  0  0
 30 65  1  0  0  0  0
 31 32  1  0  0  0  0
 31 66  1  0  0  0  0
 32 34  1  0  0  0  0
 32 67  1  0  0  0  0
 33 34  1  0  0  0  0
 33 35  1  0  0  0  0
 33 68  1  0  0  0  0
 34 69  1  0  0  0  0
 35 71  1  0  0  0  0
 35 72  1  0  0  0  0
M  END
> <PUBCHEM_COMPOUND_CID>
102252208

> <PUBCHEM_CONFORMER_RMSD>
1

> <PUBCHEM_CONFORMER_DIVERSEORDER>
1
26
22
15
29
18
4
12
5
31
17
23
2
28
9
20
11
24
25
13
14
19
6
8
16
27
7
21
3
30
10

> <PUBCHEM_MMFF94_PARTIAL_CHARGES>
34
1 -0.68
12 0.14
13 0.14
16 0.14
17 -0.28
18 0.28
19 0.14
2 -0.56
20 -0.12
21 -0.29
24 0.14
26 -0.29
27 0.28
28 0.49
29 0.56
3 -0.57
30 0.06
31 0.28
32 0.28
33 0.28
34 0.28
35 0.28
4 -0.56
48 0.15
5 -0.68
59 0.15
6 -0.68
61 0.4
7 -0.68
70 0.4
73 0.4
74 0.4
75 0.4
8 -0.68

> <PUBCHEM_EFFECTIVE_ROTOR_COUNT>
6.8

> <PUBCHEM_PHARMACOPHORE_FEATURES>
18
1 1 acceptor
1 1 donor
1 2 acceptor
1 3 acceptor
1 4 acceptor
1 5 acceptor
1 5 donor
1 6 acceptor
1 6 donor
1 7 acceptor
1 7 donor
1 8 acceptor
1 8 donor
5 11 13 19 20 26 rings
6 12 17 18 24 25 27 rings
6 4 29 31 32 33 34 rings
6 9 10 11 13 14 15 rings
6 9 10 12 16 17 21 rings

> <PUBCHEM_HEAVY_ATOM_COUNT>
35

> <PUBCHEM_ATOM_DEF_STEREO_COUNT>
12

> <PUBCHEM_ATOM_UDEF_STEREO_COUNT>
0

> <PUBCHEM_BOND_DEF_STEREO_COUNT>
0

> <PUBCHEM_BOND_UDEF_STEREO_COUNT>
0

> <PUBCHEM_ISOTOPIC_ATOM_COUNT>
0

> <PUBCHEM_COMPONENT_COUNT>
1

> <PUBCHEM_CACTVS_TAUTO_COUNT>
5

> <PUBCHEM_CONFORMER_ID>
06183EB000000001

> <PUBCHEM_MMFF94_ENERGY>
113.0273

> <PUBCHEM_FEATURE_SELFOVERLAP>
91.516

> <PUBCHEM_SHAPE_FINGERPRINT>
10 15 9871459924768594238
10076449 9 17749110015961683969
10299344 5 16630527344935540908
10906281 52 16515693186594530313
11007060 377 17822014203234458321
11456790 92 12607125180014041271
11578080 2 16629413433153320689
12082328 90 17917993867631531545
12166972 35 15697712700921998801
12758862 56 13686291405658255711
13533116 47 17489869319958206306
13617811 41 17313103047052429740
13782708 43 17131545063917591359
13811026 1 18408040736431890362
14294032 229 16588578696156821532
14347332 77 16988565641721168920
14347424 109 11671770590329098650
14415361 349 18340195402143677607
14856354 85 17385447648333130523
150020 25 18409167709827187246
15082195 135 17603312531581175158
15131766 46 12541853767020602638
15183329 4 18202003213721522690
15198563 99 18272654498239848649
15352257 5 17988923379233727734
16994733 274 15068614960032832229
18681886 176 17895464934502967577
19958102 18 18339367370507185926
20105231 36 18334015004450059995
21057603 40 18131072632161775094
21150785 3 18341890813890198241
21267235 1 13254797975436245633
21344244 181 18343865498209480662
22122407 14 13623826998689603604
23559900 14 18338515343437519768
23569914 152 17404287508890551934
23569943 247 18055641607442665738
23576562 1 17096380607713657951
3103668 31 17679309826027387051
335352 9 17822282510584815543
34797466 226 18411133653971774656
397638 26 10879990268286933197
4098825 35 18059860502192814721
4258327 124 14635165520548717835
44880568 143 18261394416538587789
45377200 153 18129655439758618167
5104073 3 12750653224068433559
54039377 194 16200158656266594212
59682541 52 18272654533052065774
59755656 215 18040994029347498058
68570916 9 12252483170748967577

> <PUBCHEM_SHAPE_MULTIPOLES>
673.33
24.52
2.13
1.99
6.12
0.39
0.32
-2.38
13.38
0.44
0.22
2.16
0.65
2.85

> <PUBCHEM_SHAPE_SELFOVERLAP>
1437.189

> <PUBCHEM_SHAPE_VOLUME>
369.9

> <PUBCHEM_COORDINATE_TYPE>
2
5
10

$$$$
