102277211
  -OEChem-03292013293D

 53 56  0     1  0  0  0  0  0999 V2000
   -1.5887   -0.2167   -0.1301 O   0  0  0  0  0  0  0  0  0  0  0  0
   -4.9775   -1.2228    0.5215 O   0  0  0  0  0  0  0  0  0  0  0  0
    0.5231    1.9748   -0.7750 O   0  0  0  0  0  0  0  0  0  0  0  0
   -0.0527   -0.1189   -2.4052 O   0  0  0  0  0  0  0  0  0  0  0  0
    0.0647   -3.2861   -0.1468 O   0  0  0  0  0  0  0  0  0  0  0  0
    0.1398   -0.8975    2.3011 O   0  0  0  0  0  0  0  0  0  0  0  0
    2.9395    1.7089   -2.0229 O   0  0  0  0  0  0  0  0  0  0  0  0
    1.3134    0.4888    0.8226 N   0  0  0  0  0  0  0  0  0  0  0  0
   -0.3335   -0.8984   -0.0935 C   0  0  2  0  0  0  0  0  0  0  0  0
    0.6224   -0.4244   -1.1977 C   0  0  2  0  0  0  0  0  0  0  0  0
    1.2850    0.8037   -0.5809 C   0  0  1  0  0  0  0  0  0  0  0  0
   -3.9776   -0.7515   -0.3780 C   0  0  2  0  0  0  0  0  0  0  0  0
   -2.5761   -1.1988   -0.2840 C   0  0  0  0  0  0  0  0  0  0  0  0
   -4.5127    0.1193    0.7272 C   0  0  1  0  0  0  0  0  0  0  0  0
   -0.7069   -2.3415   -0.1900 C   0  0  0  0  0  0  0  0  0  0  0  0
    0.3741   -0.4778    1.1782 C   0  0  0  0  0  0  0  0  0  0  0  0
   -2.1549   -2.4679   -0.3295 C   0  0  0  0  0  0  0  0  0  0  0  0
    2.6946    1.0244   -1.0323 C   0  0  0  0  0  0  0  0  0  0  0  0
   -5.3052    1.2831    0.3591 C   0  0  0  0  0  0  0  0  0  0  0  0
   -2.8721   -3.7515   -0.4735 C   0  0  0  0  0  0  0  0  0  0  0  0
    3.8079    0.4019   -0.2617 C   0  0  0  0  0  0  0  0  0  0  0  0
    1.0481    3.0793   -0.0432 C   0  0  0  0  0  0  0  0  0  0  0  0
   -4.8173    2.4919    0.0399 C   0  0  0  0  0  0  0  0  0  0  0  0
    3.8699   -0.9845   -0.1215 C   0  0  0  0  0  0  0  0  0  0  0  0
    4.7891    1.2060    0.3181 C   0  0  0  0  0  0  0  0  0  0  0  0
   -3.3555    2.8264    0.0155 C   0  0  0  0  0  0  0  0  0  0  0  0
    4.9130   -1.5669    0.5986 C   0  0  0  0  0  0  0  0  0  0  0  0
    5.8322    0.6238    1.0382 C   0  0  0  0  0  0  0  0  0  0  0  0
   -2.8802    3.3358    1.3674 C   0  0  0  0  0  0  0  0  0  0  0  0
    5.8942   -0.7627    1.1784 C   0  0  0  0  0  0  0  0  0  0  0  0
    1.3389   -1.2152   -1.4300 H   0  0  0  0  0  0  0  0  0  0  0  0
   -4.2990   -0.5531   -1.3952 H   0  0  0  0  0  0  0  0  0  0  0  0
   -3.9107    0.2618    1.6190 H   0  0  0  0  0  0  0  0  0  0  0  0
    1.8956    0.9583    1.5104 H   0  0  0  0  0  0  0  0  0  0  0  0
    0.6016    0.2581   -3.0177 H   0  0  0  0  0  0  0  0  0  0  0  0
   -6.3850    1.1571    0.3555 H   0  0  0  0  0  0  0  0  0  0  0  0
   -2.5015   -4.2997   -1.3454 H   0  0  0  0  0  0  0  0  0  0  0  0
   -3.9484   -3.6067   -0.6051 H   0  0  0  0  0  0  0  0  0  0  0  0
   -2.7220   -4.3745    0.4138 H   0  0  0  0  0  0  0  0  0  0  0  0
    0.4535    3.9562   -0.3189 H   0  0  0  0  0  0  0  0  0  0  0  0
    2.0880    3.3124   -0.2845 H   0  0  0  0  0  0  0  0  0  0  0  0
    0.9249    2.9436    1.0354 H   0  0  0  0  0  0  0  0  0  0  0  0
   -5.5147    3.2903   -0.1999 H   0  0  0  0  0  0  0  0  0  0  0  0
    3.1405   -1.6444   -0.5734 H   0  0  0  0  0  0  0  0  0  0  0  0
    4.7497    2.2874    0.2167 H   0  0  0  0  0  0  0  0  0  0  0  0
   -2.7504    1.9741   -0.2978 H   0  0  0  0  0  0  0  0  0  0  0  0
   -3.1913    3.6014   -0.7427 H   0  0  0  0  0  0  0  0  0  0  0  0
    4.9641   -2.6466    0.7042 H   0  0  0  0  0  0  0  0  0  0  0  0
    6.5961    1.2499    1.4899 H   0  0  0  0  0  0  0  0  0  0  0  0
   -1.8236    3.6162    1.3136 H   0  0  0  0  0  0  0  0  0  0  0  0
   -2.9847    2.5708    2.1436 H   0  0  0  0  0  0  0  0  0  0  0  0
   -3.4473    4.2192    1.6801 H   0  0  0  0  0  0  0  0  0  0  0  0
    6.7070   -1.2160    1.7382 H   0  0  0  0  0  0  0  0  0  0  0  0
  1  9  1  0  0  0  0
  1 13  1  0  0  0  0
  2 12  1  0  0  0  0
  2 14  1  0  0  0  0
  3 11  1  0  0  0  0
  3 22  1  0  0  0  0
  4 10  1  0  0  0  0
  4 35  1  0  0  0  0
  5 15  2  0  0  0  0
  6 16  2  0  0  0  0
  7 18  2  0  0  0  0
  8 11  1  0  0  0  0
  8 16  1  0  0  0  0
  8 34  1  0  0  0  0
  9 10  1  0  0  0  0
  9 15  1  0  0  0  0
  9 16  1  0  0  0  0
 10 11  1  0  0  0  0
 10 31  1  0  0  0  0
 11 18  1  0  0  0  0
 12 13  1  0  0  0  0
 12 14  1  0  0  0  0
 12 32  1  0  0  0  0
 13 17  2  0  0  0  0
 14 19  1  0  0  0  0
 14 33  1  0  0  0  0
 15 17  1  0  0  0  0
 17 20  1  0  0  0  0
 18 21  1  0  0  0  0
 19 23  2  0  0  0  0
 19 36  1  0  0  0  0
 20 37  1  0  0  0  0
 20 38  1  0  0  0  0
 20 39  1  0  0  0  0
 21 24  2  0  0  0  0
 21 25  1  0  0  0  0
 22 40  1  0  0  0  0
 22 41  1  0  0  0  0
 22 42  1  0  0  0  0
 23 26  1  0  0  0  0
 23 43  1  0  0  0  0
 24 27  1  0  0  0  0
 24 44  1  0  0  0  0
 25 28  2  0  0  0  0
 25 45  1  0  0  0  0
 26 29  1  0  0  0  0
 26 46  1  0  0  0  0
 26 47  1  0  0  0  0
 27 30  2  0  0  0  0
 27 48  1  0  0  0  0
 28 30  1  0  0  0  0
 28 49  1  0  0  0  0
 29 50  1  0  0  0  0
 29 51  1  0  0  0  0
 29 52  1  0  0  0  0
 30 53  1  0  0  0  0
M  END
> <PUBCHEM_COMPOUND_CID>
102277211

> <PUBCHEM_CONFORMER_RMSD>
1

> <PUBCHEM_CONFORMER_DIVERSEORDER>
1
10
41
35
45
25
60
43
34
9
27
14
61
59
11
55
44
47
58
23
22
51
52
53
57
2
30
54
50
16
17
37
12
56
31
26
5
7
36
62
49
33
15
28
39
48
8
4
6
20
42
24
13
40
18
21
3
19
29
46
32
38

> <PUBCHEM_MMFF94_PARTIAL_CHARGES>
40
1 -0.36
10 0.28
11 0.64
12 0.09
13 0.04
14 0.09
15 0.49
16 0.57
17 -0.12
18 0.42
19 -0.19
2 -0.3
20 0.14
21 0.09
22 0.28
23 -0.29
24 -0.15
25 -0.15
26 0.14
27 -0.15
28 -0.15
3 -0.56
30 -0.15
32 0.1
33 0.1
34 0.37
35 0.4
36 0.15
4 -0.68
43 0.15
44 0.15
45 0.15
48 0.15
49 0.15
5 -0.57
53 0.15
6 -0.57
7 -0.57
8 -0.73
9 0.4

> <PUBCHEM_EFFECTIVE_ROTOR_COUNT>
7.4

> <PUBCHEM_PHARMACOPHORE_FEATURES>
13
1 1 acceptor
1 2 acceptor
1 29 hydrophobe
1 3 acceptor
1 4 acceptor
1 4 donor
1 5 acceptor
1 6 acceptor
1 7 acceptor
1 8 donor
5 1 9 13 15 17 rings
5 8 9 10 11 16 rings
6 21 24 25 27 28 30 rings

> <PUBCHEM_HEAVY_ATOM_COUNT>
30

> <PUBCHEM_ATOM_DEF_STEREO_COUNT>
5

> <PUBCHEM_ATOM_UDEF_STEREO_COUNT>
0

> <PUBCHEM_BOND_DEF_STEREO_COUNT>
1

> <PUBCHEM_BOND_UDEF_STEREO_COUNT>
0

> <PUBCHEM_ISOTOPIC_ATOM_COUNT>
0

> <PUBCHEM_COMPONENT_COUNT>
1

> <PUBCHEM_CACTVS_TAUTO_COUNT>
2

> <PUBCHEM_CONFORMER_ID>
0618A05B00000001

> <PUBCHEM_MMFF94_ENERGY>
79.4582

> <PUBCHEM_FEATURE_SELFOVERLAP>
66.011

> <PUBCHEM_SHAPE_FINGERPRINT>
10838868 229 17761762980668076770
10906281 52 17749679609997552972
11578080 2 13181650709045596218
12107183 9 18335979758059830146
12236239 1 18114179760980805315
12403260 363 18339359790168964039
12422481 6 17969221127332842934
12467345 10 18336263457518305464
12788726 201 18270417077880919200
13140716 1 18194688287795827387
13583140 156 17703220840712690594
13911987 19 15841554132219831472
14347332 77 18124591135886312423
14466204 15 18411419479697608849
14790565 3 18339360738755395057
15021287 119 17458344139409151580
16120349 21 18121494649412870570
17818456 19 18410014329723042396
1813 80 17022901246778709038
19141452 34 18335696182891928614
20511986 3 18130492107518130354
20715895 44 18341613655255269832
21033648 29 17489292123260550602
23402539 116 18271801328660219653
23522609 53 17823155505131505468
23559900 14 17845112765064403158
23569943 247 17097470043818144018
25147074 1 18041287651262381716
345986 75 18042103407100878472
3493558 16 18269555103720178160
350125 39 18339642364742354219
460360 51 18265073365196061067
5104073 3 18263641943144078298
6371009 1 18411979170414437341
7226269 152 17988924461533571312
79837 15 18335430079561245619
9981440 41 18337680698775031771

> <PUBCHEM_SHAPE_MULTIPOLES>
571.32
11.77
3.74
1.39
5.4
0.23
0.16
-2.63
-3.5
-4.2
0.01
0.74
-0.24
-1.22

> <PUBCHEM_SHAPE_SELFOVERLAP>
1239.517

> <PUBCHEM_SHAPE_VOLUME>
313.9

> <PUBCHEM_COORDINATE_TYPE>
2
5
10

$$$$
