102231640
  -OEChem-03292013293D

 55 56  0     1  0  0  0  0  0999 V2000
    2.7730   -0.5899    0.8887 S   0  0  0  0  0  0  0  0  0  0  0  0
   -1.8032   -2.3934   -0.5340 O   0  0  0  0  0  0  0  0  0  0  0  0
   -0.4334    0.5223   -2.0626 O   0  0  0  0  0  0  0  0  0  0  0  0
    5.5583   -1.6353   -0.2338 O   0  0  0  0  0  0  0  0  0  0  0  0
   -0.8352    3.4065    0.4343 O   0  0  0  0  0  0  0  0  0  0  0  0
   -3.9361   -2.1605    0.3218 O   0  0  0  0  0  0  0  0  0  0  0  0
   -5.4994    2.9523    0.8998 O   0  0  0  0  0  0  0  0  0  0  0  0
    5.1178    1.9081   -0.6025 O   0  0  0  0  0  0  0  0  0  0  0  0
    6.3094    0.6794    0.9433 O   0  0  0  0  0  0  0  0  0  0  0  0
    1.0074   -0.5756    0.4004 C   0  0  1  0  0  0  0  0  0  0  0  0
    0.1393   -1.1552    1.5338 C   0  0  0  0  0  0  0  0  0  0  0  0
    0.3086   -2.6564    1.8004 C   0  0  0  0  0  0  0  0  0  0  0  0
   -0.0632   -3.6032    0.6495 C   0  0  0  0  0  0  0  0  0  0  0  0
    0.5952    0.8691    0.0801 C   0  0  0  0  0  0  0  0  0  0  0  0
   -1.5504   -3.5663    0.2689 C   0  0  2  0  0  0  0  0  0  0  0  0
   -0.5696    0.8883   -0.8983 C   0  0  0  0  0  0  0  0  0  0  0  0
   -1.8897    1.3795   -0.4325 C   0  0  0  0  0  0  0  0  0  0  0  0
   -1.9215   -4.7858   -0.5707 C   0  0  0  0  0  0  0  0  0  0  0  0
    3.4802   -0.5249   -0.7698 C   0  0  0  0  0  0  0  0  0  0  0  0
   -3.0829    0.6759   -0.6896 C   0  0  0  0  0  0  0  0  0  0  0  0
   -3.1462   -0.6582   -1.3892 C   0  0  0  0  0  0  0  0  0  0  0  0
   -3.0348   -1.8158   -0.4320 C   0  0  0  0  0  0  0  0  0  0  0  0
    5.0067   -0.4433   -0.7731 C   0  0  1  0  0  0  0  0  0  0  0  0
   -1.9217    2.6078    0.2439 C   0  0  0  0  0  0  0  0  0  0  0  0
   -4.2904    1.2252   -0.2198 C   0  0  0  0  0  0  0  0  0  0  0  0
   -3.1320    3.1338    0.6918 C   0  0  0  0  0  0  0  0  0  0  0  0
   -4.3157    2.4417    0.4632 C   0  0  0  0  0  0  0  0  0  0  0  0
    5.5745    0.7546   -0.0331 C   0  0  0  0  0  0  0  0  0  0  0  0
    5.5553    3.1193    0.0213 C   0  0  0  0  0  0  0  0  0  0  0  0
    0.8946   -1.2010   -0.4905 H   0  0  0  0  0  0  0  0  0  0  0  0
   -0.9174   -0.9529    1.3332 H   0  0  0  0  0  0  0  0  0  0  0  0
    0.3535   -0.6182    2.4685 H   0  0  0  0  0  0  0  0  0  0  0  0
    1.3437   -2.8636    2.0958 H   0  0  0  0  0  0  0  0  0  0  0  0
   -0.3041   -2.9164    2.6734 H   0  0  0  0  0  0  0  0  0  0  0  0
    0.5592   -3.3879   -0.2261 H   0  0  0  0  0  0  0  0  0  0  0  0
    0.1935   -4.6184    0.9784 H   0  0  0  0  0  0  0  0  0  0  0  0
    1.3891    1.4551   -0.3971 H   0  0  0  0  0  0  0  0  0  0  0  0
    0.3492    1.3845    1.0133 H   0  0  0  0  0  0  0  0  0  0  0  0
   -2.1580   -3.5540    1.1819 H   0  0  0  0  0  0  0  0  0  0  0  0
   -1.3421   -4.8117   -1.5003 H   0  0  0  0  0  0  0  0  0  0  0  0
   -2.9775   -4.7494   -0.8590 H   0  0  0  0  0  0  0  0  0  0  0  0
   -1.7462   -5.7157   -0.0212 H   0  0  0  0  0  0  0  0  0  0  0  0
    3.1713   -1.4336   -1.2981 H   0  0  0  0  0  0  0  0  0  0  0  0
    3.0752    0.3362   -1.3086 H   0  0  0  0  0  0  0  0  0  0  0  0
   -4.1032   -0.7644   -1.9174 H   0  0  0  0  0  0  0  0  0  0  0  0
   -2.4023   -0.7501   -2.1846 H   0  0  0  0  0  0  0  0  0  0  0  0
    5.3687   -0.3730   -1.8062 H   0  0  0  0  0  0  0  0  0  0  0  0
   -5.2230    0.6902   -0.3912 H   0  0  0  0  0  0  0  0  0  0  0  0
   -3.1687    4.0900    1.2085 H   0  0  0  0  0  0  0  0  0  0  0  0
    5.3435   -2.3606   -0.8450 H   0  0  0  0  0  0  0  0  0  0  0  0
   -1.0892    4.2111    0.9174 H   0  0  0  0  0  0  0  0  0  0  0  0
   -6.2165    2.3428    0.6543 H   0  0  0  0  0  0  0  0  0  0  0  0
    5.1232    3.9598   -0.5281 H   0  0  0  0  0  0  0  0  0  0  0  0
    6.6460    3.1951   -0.0214 H   0  0  0  0  0  0  0  0  0  0  0  0
    5.2046    3.1594    1.0569 H   0  0  0  0  0  0  0  0  0  0  0  0
  1 10  1  0  0  0  0
  1 19  1  0  0  0  0
  2 15  1  0  0  0  0
  2 22  1  0  0  0  0
  3 16  2  0  0  0  0
  4 23  1  0  0  0  0
  4 50  1  0  0  0  0
  5 24  1  0  0  0  0
  5 51  1  0  0  0  0
  6 22  2  0  0  0  0
  7 27  1  0  0  0  0
  7 52  1  0  0  0  0
  8 28  1  0  0  0  0
  8 29  1  0  0  0  0
  9 28  2  0  0  0  0
 10 11  1  0  0  0  0
 10 14  1  0  0  0  0
 10 30  1  0  0  0  0
 11 12  1  0  0  0  0
 11 31  1  0  0  0  0
 11 32  1  0  0  0  0
 12 13  1  0  0  0  0
 12 33  1  0  0  0  0
 12 34  1  0  0  0  0
 13 15  1  0  0  0  0
 13 35  1  0  0  0  0
 13 36  1  0  0  0  0
 14 16  1  0  0  0  0
 14 37  1  0  0  0  0
 14 38  1  0  0  0  0
 15 18  1  0  0  0  0
 15 39  1  0  0  0  0
 16 17  1  0  0  0  0
 17 20  2  0  0  0  0
 17 24  1  0  0  0  0
 18 40  1  0  0  0  0
 18 41  1  0  0  0  0
 18 42  1  0  0  0  0
 19 23  1  0  0  0  0
 19 43  1  0  0  0  0
 19 44  1  0  0  0  0
 20 21  1  0  0  0  0
 20 25  1  0  0  0  0
 21 22  1  0  0  0  0
 21 45  1  0  0  0  0
 21 46  1  0  0  0  0
 23 28  1  0  0  0  0
 23 47  1  0  0  0  0
 24 26  2  0  0  0  0
 25 27  2  0  0  0  0
 25 48  1  0  0  0  0
 26 27  1  0  0  0  0
 26 49  1  0  0  0  0
 29 53  1  0  0  0  0
 29 54  1  0  0  0  0
 29 55  1  0  0  0  0
M  END
> <PUBCHEM_COMPOUND_CID>
102231640

> <PUBCHEM_CONFORMER_RMSD>
0.8

> <PUBCHEM_CONFORMER_DIVERSEORDER>
1
120
78
294
222
339
53
11
180
152
57
205
255
350
286
193
265
27
69
300
15
144
251
170
311
347
335
60
334
185
153
113
299
91
306
129
155
228
5
8
320
217
125
115
336
194
318
218
292
296
135
219
86
329
260
192
80
164
169
346
159
134
291
42
83
266
163
109
18
187
210
136
168
141
282
41
223
203
162
100
147
269
319
190
50
126
195
281
106
328
112
184
314
325
304
92
13
73
256
47
324
167
48
229
24
122
20
206
111
145
332
119
35
237
32
150
264
37
52
272
9
81
172
321
302
274
22
308
245
49
188
63
160
196
99
183
62
121
250
133
105
97
12
315
114
242
3
244
98
305
261
179
216
174
148
279
171
4
74
287
173
85
123
131
175
198
7
88
207
246
154
215
96
87
199
243
259
14
280
26
214
231
104
34
262
201
66
227
44
158
127
56
235
322
182
273
59
90
95
283
202
271
39
234
16
76
248
348
46
110
301
103
6
137
254
289
343
21
108
240
340
303
143
249
238
139
89
345
278
30
161
232
337
94
298
117
236
71
297
326
29
213
341
186
270
68
312
101
82
276
70
2
178
247
45
149
317
310
268
177
323
225
28
344
327
331
65
309
200
208
116
165
212
267
93
330
209
230
241
284
64
226
10
61
253
316
23
239
285
313
17
77
25
342
181
33
36
224
333
31
107
221
277
54
257
233
151
55
40
146
290
288
67
142
102
189
138
43
204
349
191
263
295
338
84
124
275
128
38
132
252
51
156
130
79
72
293
58
211
166
19
157
258
220
75
197
118
307
140
176

> <PUBCHEM_MMFF94_PARTIAL_CHARGES>
30
1 -0.46
10 0.23
14 0.06
15 0.28
16 0.42
17 0.09
19 0.23
2 -0.43
20 -0.14
21 0.2
22 0.66
23 0.34
24 0.08
25 -0.15
26 -0.15
27 0.08
28 0.66
29 0.28
3 -0.57
4 -0.68
48 0.15
49 0.15
5 -0.53
50 0.4
51 0.45
52 0.45
6 -0.57
7 -0.53
8 -0.43
9 -0.57

> <PUBCHEM_EFFECTIVE_ROTOR_COUNT>
6.6

> <PUBCHEM_PHARMACOPHORE_FEATURES>
8
1 3 acceptor
1 4 acceptor
1 4 donor
1 5 donor
1 6 acceptor
1 7 donor
1 9 acceptor
6 17 20 24 25 26 27 rings

> <PUBCHEM_HEAVY_ATOM_COUNT>
29

> <PUBCHEM_ATOM_DEF_STEREO_COUNT>
3

> <PUBCHEM_ATOM_UDEF_STEREO_COUNT>
0

> <PUBCHEM_BOND_DEF_STEREO_COUNT>
0

> <PUBCHEM_BOND_UDEF_STEREO_COUNT>
0

> <PUBCHEM_ISOTOPIC_ATOM_COUNT>
0

> <PUBCHEM_COMPONENT_COUNT>
1

> <PUBCHEM_CACTVS_TAUTO_COUNT>
63

> <PUBCHEM_CONFORMER_ID>
0617EE5800000001

> <PUBCHEM_MMFF94_ENERGY>
71.1016

> <PUBCHEM_FEATURE_SELFOVERLAP>
40.604

> <PUBCHEM_SHAPE_FINGERPRINT>
1100329 8 18410015446425478557
11135609 187 18263347115689180693
12156800 1 17028868283392817267
12788726 201 18264481952658068658
14251757 5 18340487862860214506
14251764 38 18263928920427867596
14713325 29 18335428971486108987
14790565 3 18339082566682966073
14840074 17 17676494903822206356
23558518 356 18190748733043328100
23559900 14 18051118491356840149
27425 322 18341333296986342292
3380486 145 17543083727820522978
3493558 16 18118690061269594812
3633792 109 18262783109068348933
4073 2 18412263957063705316
469060 322 16371006338493025927
5283173 99 18412545440277124258
59755656 520 18334576790044785502
6287921 2 17691117142137100611

> <PUBCHEM_SHAPE_MULTIPOLES>
553.7
11.88
5.32
1.26
18.28
3.12
-0.01
-8.65
0.3
-4.68
-0.93
-0.12
0.33
-1.14

> <PUBCHEM_SHAPE_SELFOVERLAP>
1128.302

> <PUBCHEM_SHAPE_VOLUME>
321

> <PUBCHEM_COORDINATE_TYPE>
2
5
10

$$$$
