102213
  -OEChem-03292013323D

 35 37  0     1  0  0  0  0  0999 V2000
    1.8324   -0.9380   -0.9805 O   0  0  0  0  0  0  0  0  0  0  0  0
    1.2530    2.2050    0.6644 O   0  0  0  0  0  0  0  0  0  0  0  0
    3.3841    1.6866   -0.9401 O   0  0  0  0  0  0  0  0  0  0  0  0
    3.5298   -2.9925   -0.1082 O   0  0  0  0  0  0  0  0  0  0  0  0
   -0.3375   -0.4205   -0.1721 N   0  0  0  0  0  0  0  0  0  0  0  0
   -1.8280   -1.8586    0.6578 N   0  0  0  0  0  0  0  0  0  0  0  0
   -1.8271    1.3752   -0.8492 N   0  0  0  0  0  0  0  0  0  0  0  0
   -4.1538    0.8360   -0.3476 N   0  0  0  0  0  0  0  0  0  0  0  0
   -4.8015   -1.2239    0.6844 N   0  0  0  0  0  0  0  0  0  0  0  0
    1.6847    0.8646    0.5483 C   0  0  1  0  0  0  0  0  0  0  0  0
    0.9575    0.1290   -0.5668 C   0  0  1  0  0  0  0  0  0  0  0  0
    3.1276    0.7423    0.0994 C   0  0  1  0  0  0  0  0  0  0  0  0
    3.1660   -0.6631   -0.4923 C   0  0  1  0  0  0  0  0  0  0  0  0
    3.5312   -1.7285    0.5319 C   0  0  0  0  0  0  0  0  0  0  0  0
   -1.5604    0.1730   -0.3172 C   0  0  0  0  0  0  0  0  0  0  0  0
   -0.5521   -1.6393    0.4180 C   0  0  0  0  0  0  0  0  0  0  0  0
   -2.4696   -0.7340    0.2033 C   0  0  0  0  0  0  0  0  0  0  0  0
    2.0300    2.9323    1.6111 C   0  0  0  0  0  0  0  0  0  0  0  0
   -3.8110   -0.3657    0.1761 C   0  0  0  0  0  0  0  0  0  0  0  0
   -3.1552    1.6201   -0.8207 C   0  0  0  0  0  0  0  0  0  0  0  0
    1.5376    0.3454    1.5049 H   0  0  0  0  0  0  0  0  0  0  0  0
    0.7781    0.7722   -1.4372 H   0  0  0  0  0  0  0  0  0  0  0  0
    3.8584    0.9085    0.8964 H   0  0  0  0  0  0  0  0  0  0  0  0
    3.8359   -0.7327   -1.3568 H   0  0  0  0  0  0  0  0  0  0  0  0
    2.8118   -1.7724    1.3555 H   0  0  0  0  0  0  0  0  0  0  0  0
    4.5288   -1.5525    0.9448 H   0  0  0  0  0  0  0  0  0  0  0  0
    4.3002    1.5497   -1.2363 H   0  0  0  0  0  0  0  0  0  0  0  0
    0.2522   -2.3225    0.6548 H   0  0  0  0  0  0  0  0  0  0  0  0
    3.0298    3.1488    1.2259 H   0  0  0  0  0  0  0  0  0  0  0  0
    2.0936    2.3957    2.5631 H   0  0  0  0  0  0  0  0  0  0  0  0
    1.5295    3.8882    1.7902 H   0  0  0  0  0  0  0  0  0  0  0  0
    2.6397   -3.1353   -0.4732 H   0  0  0  0  0  0  0  0  0  0  0  0
   -3.4657    2.5746   -1.2324 H   0  0  0  0  0  0  0  0  0  0  0  0
   -4.5482   -2.1209    1.0761 H   0  0  0  0  0  0  0  0  0  0  0  0
   -5.7693   -0.9335    0.6537 H   0  0  0  0  0  0  0  0  0  0  0  0
  1 11  1  0  0  0  0
  1 13  1  0  0  0  0
  2 10  1  0  0  0  0
  2 18  1  0  0  0  0
  3 12  1  0  0  0  0
  3 27  1  0  0  0  0
  4 14  1  0  0  0  0
  4 32  1  0  0  0  0
  5 11  1  0  0  0  0
  5 15  1  0  0  0  0
  5 16  1  0  0  0  0
  6 16  2  0  0  0  0
  6 17  1  0  0  0  0
  7 15  2  0  0  0  0
  7 20  1  0  0  0  0
  8 19  1  0  0  0  0
  8 20  2  0  0  0  0
  9 19  1  0  0  0  0
  9 34  1  0  0  0  0
  9 35  1  0  0  0  0
 10 11  1  0  0  0  0
 10 12  1  0  0  0  0
 10 21  1  0  0  0  0
 11 22  1  0  0  0  0
 12 13  1  0  0  0  0
 12 23  1  0  0  0  0
 13 14  1  0  0  0  0
 13 24  1  0  0  0  0
 14 25  1  0  0  0  0
 14 26  1  0  0  0  0
 15 17  1  0  0  0  0
 16 28  1  0  0  0  0
 17 19  2  0  0  0  0
 18 29  1  0  0  0  0
 18 30  1  0  0  0  0
 18 31  1  0  0  0  0
 20 33  1  0  0  0  0
M  END
> <PUBCHEM_COMPOUND_CID>
102213

> <PUBCHEM_CONFORMER_RMSD>
0.6

> <PUBCHEM_CONFORMER_DIVERSEORDER>
1
10
18
13
21
6
16
4
23
28
27
26
11
5
8
20
24
14
15
12
3
22
2
17
25
9
7
19

> <PUBCHEM_MMFF94_PARTIAL_CHARGES>
26
1 -0.56
10 0.28
11 0.54
12 0.28
13 0.28
14 0.28
15 0.11
16 0.04
17 0.23
18 0.28
19 0.41
2 -0.56
20 0.47
27 0.4
28 0.15
3 -0.68
32 0.4
33 0.15
34 0.4
35 0.4
4 -0.68
5 0.05
6 -0.57
7 -0.57
8 -0.62
9 -0.9

> <PUBCHEM_EFFECTIVE_ROTOR_COUNT>
4

> <PUBCHEM_PHARMACOPHORE_FEATURES>
14
1 1 acceptor
1 2 acceptor
1 3 acceptor
1 3 donor
1 4 acceptor
1 4 donor
1 9 cation
1 9 donor
3 5 6 16 cation
3 5 7 15 cation
3 7 8 20 cation
5 1 10 11 12 13 rings
5 5 6 15 16 17 rings
6 7 8 15 17 19 20 rings

> <PUBCHEM_HEAVY_ATOM_COUNT>
20

> <PUBCHEM_ATOM_DEF_STEREO_COUNT>
4

> <PUBCHEM_ATOM_UDEF_STEREO_COUNT>
0

> <PUBCHEM_BOND_DEF_STEREO_COUNT>
0

> <PUBCHEM_BOND_UDEF_STEREO_COUNT>
0

> <PUBCHEM_ISOTOPIC_ATOM_COUNT>
0

> <PUBCHEM_COMPONENT_COUNT>
1

> <PUBCHEM_CACTVS_TAUTO_COUNT>
3

> <PUBCHEM_CONFORMER_ID>
00018F4500000001

> <PUBCHEM_MMFF94_ENERGY>
51.8044

> <PUBCHEM_FEATURE_SELFOVERLAP>
71.662

> <PUBCHEM_SHAPE_FINGERPRINT>
10366900 7 18265899244446586337
10608611 8 18411133683973203261
1100329 8 16536789236944380369
12403259 226 18409163282016409687
12403259 415 18333728018618455509
12507560 14 18200591389362912710
12788726 201 17982452599360253938
13134695 92 18058433340764135380
13140716 1 18055638313365656496
14178342 30 17903346345018661010
14866123 147 16756349640444030322
15196674 1 18334014978115064951
15219456 202 18412260661906118829
15295992 7 18411705366011791305
16945 1 18193267726924604668
17804303 29 18334580096694953703
17980427 23 12606533573020462890
18186145 218 18340774745268861349
19049666 15 18410007736768823616
192875 21 17917142797727584025
20510252 161 18335424573597287785
20645477 70 18343027674786098462
21501502 16 18338794619200732702
23175994 123 18129380410603560932
23419403 2 17695586742940538584
23559900 14 18261109677343650126
2748010 2 18334284388528933629
31174 14 18341612663149583449
3286 77 18412261722931722717
495365 180 17845360188833716825
5104073 3 18335423452447040633
6438718 38 16915953846367770145
69090 78 18342173401680501447
7364860 26 18411979183077578570
81228 2 17897161553705706563
9709674 26 18261117382478737778

> <PUBCHEM_SHAPE_MULTIPOLES>
363.21
7.93
2.71
1.01
4.19
0.36
-0.11
-1.45
-0.05
-2.33
-0.78
-0.27
0.45
1.15

> <PUBCHEM_SHAPE_SELFOVERLAP>
785.191

> <PUBCHEM_SHAPE_VOLUME>
196.3

> <PUBCHEM_COORDINATE_TYPE>
2
5
10

$$$$
