102288172
  -OEChem-03292013293D

 51 54  0     1  0  0  0  0  0999 V2000
    1.7614    2.8940    1.5319 O   0  0  0  0  0  0  0  0  0  0  0  0
    5.1773   -1.6774   -1.6906 O   0  0  0  0  0  0  0  0  0  0  0  0
    3.9839   -2.9597   -0.1349 O   0  0  0  0  0  0  0  0  0  0  0  0
   -0.3700    1.3429   -2.4151 O   0  0  0  0  0  0  0  0  0  0  0  0
   -1.8679   -3.0206    0.4598 O   0  0  0  0  0  0  0  0  0  0  0  0
   -3.1727    2.1179    0.2409 O   0  0  0  0  0  0  0  0  0  0  0  0
   -5.2240    0.3110    0.1387 O   0  0  0  0  0  0  0  0  0  0  0  0
    1.0327    1.1031    0.0333 N   0  0  2  0  0  0  0  0  0  0  0  0
    3.4706    0.5514    1.5409 N   0  0  0  0  0  0  0  0  0  0  0  0
    2.6915   -0.5383    0.9328 C   0  0  1  0  0  0  0  0  0  0  0  0
    1.2049   -0.0903    0.8752 C   0  0  2  0  0  0  0  0  0  0  0  0
    3.4582    1.5701    0.4818 C   0  0  1  0  0  0  0  0  0  0  0  0
    3.3715   -0.6679   -0.4465 C   0  0  1  0  0  0  0  0  0  0  0  0
    3.8893    0.7537   -0.7372 C   0  0  0  0  0  0  0  0  0  0  0  0
    2.0301    2.1516    0.3373 C   0  0  2  0  0  0  0  0  0  0  0  0
    0.3108   -1.2272    0.3488 C   0  0  0  0  0  0  0  0  0  0  0  0
   -0.3637    1.5939   -0.0393 C   0  0  2  0  0  0  0  0  0  0  0  0
    4.5167   -1.6809   -0.4364 C   0  0  0  0  0  0  0  0  0  0  0  0
   -1.1227   -0.7875    0.2397 C   0  0  0  0  0  0  0  0  0  0  0  0
   -1.4313    0.5095    0.1042 C   0  0  0  0  0  0  0  0  0  0  0  0
   -0.5283    2.3056   -1.3952 C   0  0  0  0  0  0  0  0  0  0  0  0
   -2.1690   -1.8359    0.3350 C   0  0  0  0  0  0  0  0  0  0  0  0
   -2.8561    0.9323    0.1784 C   0  0  0  0  0  0  0  0  0  0  0  0
   -3.5996   -1.4192    0.2538 C   0  0  0  0  0  0  0  0  0  0  0  0
   -3.9105   -0.1136    0.1884 C   0  0  0  0  0  0  0  0  0  0  0  0
   -4.6144   -2.5247    0.2742 C   0  0  0  0  0  0  0  0  0  0  0  0
   -5.6687    0.4060   -1.1999 C   0  0  0  0  0  0  0  0  0  0  0  0
    2.7753   -1.4466    1.5389 H   0  0  0  0  0  0  0  0  0  0  0  0
    0.8881    0.1485    1.9026 H   0  0  0  0  0  0  0  0  0  0  0  0
    4.1729    2.3677    0.7118 H   0  0  0  0  0  0  0  0  0  0  0  0
    2.6587   -0.9603   -1.2258 H   0  0  0  0  0  0  0  0  0  0  0  0
    4.9819    0.7743   -0.8298 H   0  0  0  0  0  0  0  0  0  0  0  0
    3.4725    1.1501   -1.6696 H   0  0  0  0  0  0  0  0  0  0  0  0
    2.0528    2.8737   -0.4855 H   0  0  0  0  0  0  0  0  0  0  0  0
    4.4290    0.2393    1.6986 H   0  0  0  0  0  0  0  0  0  0  0  0
    0.3953   -2.0708    1.0451 H   0  0  0  0  0  0  0  0  0  0  0  0
    0.6386   -1.5863   -0.6332 H   0  0  0  0  0  0  0  0  0  0  0  0
   -0.5369    2.3144    0.7703 H   0  0  0  0  0  0  0  0  0  0  0  0
    5.2484   -1.4201    0.3379 H   0  0  0  0  0  0  0  0  0  0  0  0
    0.2022    3.1064   -1.5418 H   0  0  0  0  0  0  0  0  0  0  0  0
   -1.5184    2.7590   -1.5010 H   0  0  0  0  0  0  0  0  0  0  0  0
    2.4341    3.5926    1.6019 H   0  0  0  0  0  0  0  0  0  0  0  0
    6.0820   -2.0001   -1.5404 H   0  0  0  0  0  0  0  0  0  0  0  0
    4.7007   -3.4842    0.2603 H   0  0  0  0  0  0  0  0  0  0  0  0
   -0.4807    1.8019   -3.2650 H   0  0  0  0  0  0  0  0  0  0  0  0
   -4.5081   -3.1521   -0.6169 H   0  0  0  0  0  0  0  0  0  0  0  0
   -4.4751   -3.1540    1.1599 H   0  0  0  0  0  0  0  0  0  0  0  0
   -5.6450   -2.1587    0.3021 H   0  0  0  0  0  0  0  0  0  0  0  0
   -6.7099    0.7423   -1.1894 H   0  0  0  0  0  0  0  0  0  0  0  0
   -5.6346   -0.5630   -1.7096 H   0  0  0  0  0  0  0  0  0  0  0  0
   -5.0838    1.1431   -1.7613 H   0  0  0  0  0  0  0  0  0  0  0  0
  1 15  1  0  0  0  0
  1 42  1  0  0  0  0
  2 18  1  0  0  0  0
  2 43  1  0  0  0  0
  3 18  1  0  0  0  0
  3 44  1  0  0  0  0
  4 21  1  0  0  0  0
  4 45  1  0  0  0  0
  5 22  2  0  0  0  0
  6 23  2  0  0  0  0
  7 25  1  0  0  0  0
  7 27  1  0  0  0  0
  8 11  1  0  0  0  0
  8 15  1  0  0  0  0
  8 17  1  0  0  0  0
  9 10  1  0  0  0  0
  9 12  1  0  0  0  0
  9 35  1  0  0  0  0
 10 11  1  0  0  0  0
 10 13  1  0  0  0  0
 10 28  1  0  0  0  0
 11 16  1  0  0  0  0
 11 29  1  0  0  0  0
 12 14  1  0  0  0  0
 12 15  1  0  0  0  0
 12 30  1  0  0  0  0
 13 14  1  0  0  0  0
 13 18  1  0  0  0  0
 13 31  1  0  0  0  0
 14 32  1  0  0  0  0
 14 33  1  0  0  0  0
 15 34  1  0  0  0  0
 16 19  1  0  0  0  0
 16 36  1  0  0  0  0
 16 37  1  0  0  0  0
 17 20  1  0  0  0  0
 17 21  1  0  0  0  0
 17 38  1  0  0  0  0
 18 39  1  0  0  0  0
 19 20  2  0  0  0  0
 19 22  1  0  0  0  0
 20 23  1  0  0  0  0
 21 40  1  0  0  0  0
 21 41  1  0  0  0  0
 22 24  1  0  0  0  0
 23 25  1  0  0  0  0
 24 25  2  0  0  0  0
 24 26  1  0  0  0  0
 26 46  1  0  0  0  0
 26 47  1  0  0  0  0
 26 48  1  0  0  0  0
 27 49  1  0  0  0  0
 27 50  1  0  0  0  0
 27 51  1  0  0  0  0
M  END
> <PUBCHEM_COMPOUND_CID>
102288172

> <PUBCHEM_CONFORMER_RMSD>
0.8

> <PUBCHEM_CONFORMER_DIVERSEORDER>
1
2

> <PUBCHEM_MMFF94_PARTIAL_CHARGES>
30
1 -0.68
10 0.27
11 0.27
12 0.27
15 0.55
16 0.14
17 0.41
18 0.56
19 -0.12
2 -0.68
20 -0.12
21 0.28
22 0.54
23 0.54
24 -0.12
25 0.09
26 0.14
27 0.28
3 -0.68
35 0.36
4 -0.68
42 0.4
43 0.4
44 0.4
45 0.4
5 -0.57
6 -0.57
7 -0.36
8 -0.81
9 -0.9

> <PUBCHEM_EFFECTIVE_ROTOR_COUNT>
4.2

> <PUBCHEM_PHARMACOPHORE_FEATURES>
17
1 1 acceptor
1 1 donor
1 2 acceptor
1 2 donor
1 3 acceptor
1 3 donor
1 4 acceptor
1 4 donor
1 5 acceptor
1 6 acceptor
1 7 acceptor
1 8 cation
1 9 cation
1 9 donor
6 19 20 22 23 24 25 rings
6 8 11 16 17 19 20 rings
8 8 9 10 11 12 13 14 15 rings

> <PUBCHEM_HEAVY_ATOM_COUNT>
27

> <PUBCHEM_ATOM_DEF_STEREO_COUNT>
6

> <PUBCHEM_ATOM_UDEF_STEREO_COUNT>
0

> <PUBCHEM_BOND_DEF_STEREO_COUNT>
0

> <PUBCHEM_BOND_UDEF_STEREO_COUNT>
0

> <PUBCHEM_ISOTOPIC_ATOM_COUNT>
0

> <PUBCHEM_COMPONENT_COUNT>
1

> <PUBCHEM_CACTVS_TAUTO_COUNT>
5

> <PUBCHEM_CONFORMER_ID>
0618CB2C00000001

> <PUBCHEM_MMFF94_ENERGY>
69.2013

> <PUBCHEM_FEATURE_SELFOVERLAP>
86.391

> <PUBCHEM_SHAPE_FINGERPRINT>
10369192 42 18055625373352438632
1100329 8 17042323840035587835
11552529 35 17415284107269982539
12011746 2 18335417929235070541
12236239 1 17458620155476842216
12403259 226 18413105074099340993
12592029 89 16486977262997296733
12623949 98 17986691443628312991
12633257 1 18201170840369214721
12788726 201 15141232179624412637
13140716 1 18262787596506858321
13224815 77 17822284725437557976
13402501 40 18341618070972903942
13533116 47 18201998863199207025
13544592 145 18410855460249604551
13583140 156 16772376538451974739
14022347 108 17603581936982664600
14223421 5 18196652019314606000
14790565 3 17403749843705565824
14863182 85 17328308455187471918
14866123 147 17552370877565210290
14910302 57 18336260159294534860
14955137 171 18115328738459319913
15196674 1 18409447029120659707
15536298 74 18339922718051573225
15664445 248 17749958881244786132
1601671 61 18261955249067194028
16945 1 18409443682971962049
17349148 13 14907909309539940711
17492 89 18266742570250972555
17804303 29 18411423920814748369
1813 80 17458341983008371957
19591789 44 18264206915694532795
20691752 17 17313100873603649232
21033648 29 18335405886427133433
21267235 1 18408895031486914987
21279426 13 18410289190850803661
21521239 73 18200292408827322551
221357 26 18341611486450006481
221490 88 18339367456385088858
2215653 11 18342174453704486727
22182313 1 18188750800024797148
22393880 68 18261101972678924391
22907989 373 17314501531010763284
23559900 14 18341893017218879840
3004659 81 18261680268925365582
335352 9 18410575055157561735
350125 39 18191868924700815697
437815 12 18131075879335475862
5104073 3 18337388352903759979
59755656 215 18337389319413825623
6823239 73 18341896299112185218
9709674 26 18339361993044458371

> <PUBCHEM_SHAPE_MULTIPOLES>
504.6
10.46
3.06
1.27
3.6
0.65
-0.44
4.14
-1.89
-0.54
0.01
-0.76
-0.48
1.51

> <PUBCHEM_SHAPE_SELFOVERLAP>
1092.984

> <PUBCHEM_SHAPE_VOLUME>
272.4

> <PUBCHEM_COORDINATE_TYPE>
2
5
10

$$$$
