102237436
  -OEChem-03292013293D

 65 68  0     1  0  0  0  0  0999 V2000
    2.5280   -1.8814   -0.3298 O   0  0  0  0  0  0  0  0  0  0  0  0
   -0.3965    3.2509    1.0000 O   0  0  0  0  0  0  0  0  0  0  0  0
   -3.5361   -0.7601   -0.8898 O   0  0  0  0  0  0  0  0  0  0  0  0
   -3.0520   -2.5269    1.1538 O   0  0  0  0  0  0  0  0  0  0  0  0
    2.6681    1.0134   -2.6127 O   0  0  0  0  0  0  0  0  0  0  0  0
    2.7535   -3.5138    1.2892 O   0  0  0  0  0  0  0  0  0  0  0  0
   -5.8108   -0.9681   -0.5445 O   0  0  0  0  0  0  0  0  0  0  0  0
   -0.3572    0.1559    0.7949 C   0  0  1  0  0  0  0  0  0  0  0  0
    1.0263    0.0258    0.0044 C   0  0  1  0  0  0  0  0  0  0  0  0
    1.6798    1.3933   -0.3866 C   0  0  1  0  0  0  0  0  0  0  0  0
   -1.2767    1.1696   -0.0035 C   0  0  1  0  0  0  0  0  0  0  0  0
   -2.8065    1.2122    0.4019 C   0  0  0  0  0  0  0  0  0  0  0  0
    0.6989    2.4072   -0.9816 C   0  0  0  0  0  0  0  0  0  0  0  0
   -0.6132    2.5532   -0.2138 C   0  0  2  0  0  0  0  0  0  0  0  0
    2.5503    1.9746    0.7432 C   0  0  0  0  0  0  0  0  0  0  0  0
    2.0531   -0.9605    0.6646 C   0  0  2  0  0  0  0  0  0  0  0  0
   -1.0631   -1.2391    0.7864 C   0  0  0  0  0  0  0  0  0  0  0  0
    3.7391    1.0151    0.7896 C   0  0  1  0  0  0  0  0  0  0  0  0
    3.2726   -0.3271    1.3701 C   0  0  0  0  0  0  0  0  0  0  0  0
   -3.3799   -0.2387    0.4365 C   0  0  2  0  0  0  0  0  0  0  0  0
    2.7945    1.1136   -1.4032 C   0  0  0  0  0  0  0  0  0  0  0  0
   -2.5206   -1.2047    1.2539 C   0  0  1  0  0  0  0  0  0  0  0  0
   -0.1149    0.5289    2.2766 C   0  0  0  0  0  0  0  0  0  0  0  0
    4.0788    0.9180   -0.6682 C   0  0  0  0  0  0  0  0  0  0  0  0
   -3.0950    1.9092    1.7464 C   0  0  0  0  0  0  0  0  0  0  0  0
   -3.6070    2.0125   -0.6650 C   0  0  0  0  0  0  0  0  0  0  0  0
    5.2639    0.7485   -1.2537 C   0  0  0  0  0  0  0  0  0  0  0  0
    2.8390   -3.1216    0.1333 C   0  0  0  0  0  0  0  0  0  0  0  0
   -4.8115   -1.0815   -1.2415 C   0  0  0  0  0  0  0  0  0  0  0  0
    3.3172   -3.9684   -1.0070 C   0  0  0  0  0  0  0  0  0  0  0  0
   -4.8219   -1.6102   -2.6438 C   0  0  0  0  0  0  0  0  0  0  0  0
    0.7498   -0.4376   -0.9572 H   0  0  0  0  0  0  0  0  0  0  0  0
   -1.3093    0.7427   -1.0212 H   0  0  0  0  0  0  0  0  0  0  0  0
    0.4477    2.1050   -2.0076 H   0  0  0  0  0  0  0  0  0  0  0  0
    1.1871    3.3865   -1.0712 H   0  0  0  0  0  0  0  0  0  0  0  0
   -1.2626    3.1889   -0.8228 H   0  0  0  0  0  0  0  0  0  0  0  0
    2.0492    2.0449    1.7080 H   0  0  0  0  0  0  0  0  0  0  0  0
    2.8963    2.9882    0.4942 H   0  0  0  0  0  0  0  0  0  0  0  0
    1.5274   -1.5510    1.4185 H   0  0  0  0  0  0  0  0  0  0  0  0
   -0.5232   -1.9597    1.4121 H   0  0  0  0  0  0  0  0  0  0  0  0
   -1.0307   -1.6670   -0.2252 H   0  0  0  0  0  0  0  0  0  0  0  0
    4.5607    1.4323    1.3809 H   0  0  0  0  0  0  0  0  0  0  0  0
    4.1198   -1.0239    1.3792 H   0  0  0  0  0  0  0  0  0  0  0  0
    3.0066   -0.1515    2.4205 H   0  0  0  0  0  0  0  0  0  0  0  0
   -4.3537   -0.1987    0.9413 H   0  0  0  0  0  0  0  0  0  0  0  0
   -2.5743   -0.9346    2.3125 H   0  0  0  0  0  0  0  0  0  0  0  0
   -0.9903    0.3648    2.9038 H   0  0  0  0  0  0  0  0  0  0  0  0
    0.6620   -0.0889    2.7341 H   0  0  0  0  0  0  0  0  0  0  0  0
    0.1785    1.5642    2.4276 H   0  0  0  0  0  0  0  0  0  0  0  0
   -4.1769    1.9725    1.9199 H   0  0  0  0  0  0  0  0  0  0  0  0
   -3.3650    1.6906   -1.6837 H   0  0  0  0  0  0  0  0  0  0  0  0
   -3.4082    3.0875   -0.6008 H   0  0  0  0  0  0  0  0  0  0  0  0
   -2.7209    2.9365    1.7635 H   0  0  0  0  0  0  0  0  0  0  0  0
   -2.6852    1.3855    2.6071 H   0  0  0  0  0  0  0  0  0  0  0  0
   -4.6868    1.8864   -0.5221 H   0  0  0  0  0  0  0  0  0  0  0  0
    0.0162    4.1042    0.7843 H   0  0  0  0  0  0  0  0  0  0  0  0
   -2.5097   -3.1055    1.7165 H   0  0  0  0  0  0  0  0  0  0  0  0
    6.1630    0.6337   -0.6580 H   0  0  0  0  0  0  0  0  0  0  0  0
    5.3668    0.7184   -2.3328 H   0  0  0  0  0  0  0  0  0  0  0  0
    2.5252   -4.0665   -1.7537 H   0  0  0  0  0  0  0  0  0  0  0  0
    3.5720   -4.9654   -0.6363 H   0  0  0  0  0  0  0  0  0  0  0  0
    4.2117   -3.5229   -1.4498 H   0  0  0  0  0  0  0  0  0  0  0  0
   -4.4531   -0.8445   -3.3310 H   0  0  0  0  0  0  0  0  0  0  0  0
   -5.8467   -1.8676   -2.9267 H   0  0  0  0  0  0  0  0  0  0  0  0
   -4.2069   -2.5115   -2.7047 H   0  0  0  0  0  0  0  0  0  0  0  0
  1 16  1  0  0  0  0
  1 28  1  0  0  0  0
  2 14  1  0  0  0  0
  2 56  1  0  0  0  0
  3 20  1  0  0  0  0
  3 29  1  0  0  0  0
  4 22  1  0  0  0  0
  4 57  1  0  0  0  0
  5 21  2  0  0  0  0
  6 28  2  0  0  0  0
  7 29  2  0  0  0  0
  8  9  1  0  0  0  0
  8 11  1  0  0  0  0
  8 17  1  0  0  0  0
  8 23  1  0  0  0  0
  9 10  1  0  0  0  0
  9 16  1  0  0  0  0
  9 32  1  0  0  0  0
 10 13  1  0  0  0  0
 10 15  1  0  0  0  0
 10 21  1  0  0  0  0
 11 12  1  0  0  0  0
 11 14  1  0  0  0  0
 11 33  1  0  0  0  0
 12 20  1  0  0  0  0
 12 25  1  0  0  0  0
 12 26  1  0  0  0  0
 13 14  1  0  0  0  0
 13 34  1  0  0  0  0
 13 35  1  0  0  0  0
 14 36  1  0  0  0  0
 15 18  1  0  0  0  0
 15 37  1  0  0  0  0
 15 38  1  0  0  0  0
 16 19  1  0  0  0  0
 16 39  1  0  0  0  0
 17 22  1  0  0  0  0
 17 40  1  0  0  0  0
 17 41  1  0  0  0  0
 18 19  1  0  0  0  0
 18 24  1  0  0  0  0
 18 42  1  0  0  0  0
 19 43  1  0  0  0  0
 19 44  1  0  0  0  0
 20 22  1  0  0  0  0
 20 45  1  0  0  0  0
 21 24  1  0  0  0  0
 22 46  1  0  0  0  0
 23 47  1  0  0  0  0
 23 48  1  0  0  0  0
 23 49  1  0  0  0  0
 24 27  2  0  0  0  0
 25 50  1  0  0  0  0
 25 53  1  0  0  0  0
 25 54  1  0  0  0  0
 26 51  1  0  0  0  0
 26 52  1  0  0  0  0
 26 55  1  0  0  0  0
 27 58  1  0  0  0  0
 27 59  1  0  0  0  0
 28 30  1  0  0  0  0
 29 31  1  0  0  0  0
 30 60  1  0  0  0  0
 30 61  1  0  0  0  0
 30 62  1  0  0  0  0
 31 63  1  0  0  0  0
 31 64  1  0  0  0  0
 31 65  1  0  0  0  0
M  END
> <PUBCHEM_COMPOUND_CID>
102237436

> <PUBCHEM_CONFORMER_RMSD>
0.8

> <PUBCHEM_CONFORMER_DIVERSEORDER>
2
6
3
1
4
5

> <PUBCHEM_MMFF94_PARTIAL_CHARGES>
24
1 -0.43
10 0.06
14 0.28
16 0.28
18 0.14
2 -0.68
20 0.28
21 0.49
22 0.28
24 -0.12
27 -0.3
28 0.66
29 0.66
3 -0.43
30 0.06
31 0.06
4 -0.68
5 -0.57
56 0.4
57 0.4
58 0.15
59 0.15
6 -0.57
7 -0.57

> <PUBCHEM_EFFECTIVE_ROTOR_COUNT>
5.8

> <PUBCHEM_PHARMACOPHORE_FEATURES>
11
1 2 acceptor
1 2 donor
1 4 acceptor
1 4 donor
1 5 acceptor
1 6 acceptor
1 7 acceptor
3 12 25 26 hydrophobe
6 8 11 12 17 20 22 rings
6 8 9 10 11 13 14 rings
8 9 10 15 16 18 19 21 24 rings

> <PUBCHEM_HEAVY_ATOM_COUNT>
31

> <PUBCHEM_ATOM_DEF_STEREO_COUNT>
9

> <PUBCHEM_ATOM_UDEF_STEREO_COUNT>
0

> <PUBCHEM_BOND_DEF_STEREO_COUNT>
0

> <PUBCHEM_BOND_UDEF_STEREO_COUNT>
0

> <PUBCHEM_ISOTOPIC_ATOM_COUNT>
0

> <PUBCHEM_COMPONENT_COUNT>
1

> <PUBCHEM_CACTVS_TAUTO_COUNT>
4

> <PUBCHEM_CONFORMER_ID>
061804FC00000002

> <PUBCHEM_MMFF94_ENERGY>
127.9324

> <PUBCHEM_FEATURE_SELFOVERLAP>
55.85

> <PUBCHEM_SHAPE_FINGERPRINT>
10366900 7 18340206387851530760
10863032 1 18340771446602538144
11513181 2 18200035036373926110
11578080 2 16516806936719368590
12553582 1 18261403281435202801
13140716 1 18265626381137975531
13224815 77 18336274486931206176
13533116 47 18411980243939950819
13583140 156 16915631757889424201
13911987 19 18046645644180593380
14251757 17 17459167634868639703
14950920 106 11311776237088793623
15183329 4 18131626795481676029
15238133 3 12901815078749933087
16945 1 18115316690554159225
17134984 74 18054485166524288439
17349148 13 18334848446336016809
17492 89 18342452591634695599
18681886 176 18116439331256005460
20691752 17 16951132750946935384
20715895 44 17532069666874302941
20775530 9 18266464191882164634
20905425 154 18267038184480859742
21285901 2 17677034798739199615
22393880 68 18273217478035442756
23559900 14 18190457366677988817
25147074 1 18341056207381840875
25222932 49 17201613740200248583
312423 11 18341056216119825587
3380486 77 17387947846889277850
350125 39 17758976826022748840
460360 51 17895478029504325267
46194498 28 17314514927467192815
463206 1 18340763857485256615
5081480 168 17169570518170997838
57527585 103 17315388957190106722
59755656 215 18334579053165671686
633830 44 17458915812246062969
70251023 43 18267022756579271555
7164475 11 18339072692711167741
9709674 26 18408885101016221947

> <PUBCHEM_SHAPE_MULTIPOLES>
596.88
9.69
3.74
1.93
5.33
2.58
-0.49
3.59
-4.14
-1.98
-0.01
0.57
0.16
-1.4

> <PUBCHEM_SHAPE_SELFOVERLAP>
1273.373

> <PUBCHEM_SHAPE_VOLUME>
323.4

> <PUBCHEM_COORDINATE_TYPE>
2
5
10

$$$$
