102204473
  -OEChem-03292013293D

 42 44  0     1  0  0  0  0  0999 V2000
   -2.2115    0.7054    0.0061 O   0  0  0  0  0  0  0  0  0  0  0  0
   -1.0055   -1.2188    0.5423 O   0  0  0  0  0  0  0  0  0  0  0  0
   -5.7603   -1.0650    1.0730 O   0  0  0  0  0  0  0  0  0  0  0  0
   -5.7774    1.3233   -0.5554 O   0  0  0  0  0  0  0  0  0  0  0  0
   -3.4028   -2.7197    0.4526 O   0  0  0  0  0  0  0  0  0  0  0  0
   -2.0196    3.1341   -1.2666 O   0  0  0  0  0  0  0  0  0  0  0  0
    0.2759   -0.0299   -0.9622 O   0  0  0  0  0  0  0  0  0  0  0  0
    2.9162   -2.7382   -1.3626 O   0  0  0  0  0  0  0  0  0  0  0  0
    4.5181   -1.0584   -1.1506 N   0  0  0  0  0  0  0  0  0  0  0  0
   -4.7062   -0.7074    0.1778 C   0  0  1  0  0  0  0  0  0  0  0  0
   -4.6299    0.8184    0.1224 C   0  0  1  0  0  0  0  0  0  0  0  0
   -3.3913   -1.3096    0.6736 C   0  0  2  0  0  0  0  0  0  0  0  0
   -3.3671    1.2728   -0.6133 C   0  0  1  0  0  0  0  0  0  0  0  0
   -2.1936   -0.7181   -0.0699 C   0  0  1  0  0  0  0  0  0  0  0  0
   -3.2089    2.7896   -0.5796 C   0  0  0  0  0  0  0  0  0  0  0  0
    0.1720   -0.7900   -0.0091 C   0  0  0  0  0  0  0  0  0  0  0  0
    1.3212   -1.3962    0.7662 C   0  0  0  0  0  0  0  0  0  0  0  0
    2.6313   -0.9559    0.2147 C   0  0  0  0  0  0  0  0  0  0  0  0
    3.3916    0.0977    0.5148 C   0  0  0  0  0  0  0  0  0  0  0  0
    4.5523   -0.0270   -0.3729 C   0  0  0  0  0  0  0  0  0  0  0  0
    3.3395   -1.7112   -0.8542 C   0  0  0  0  0  0  0  0  0  0  0  0
    3.2772    1.1848    1.4372 C   0  0  0  0  0  0  0  0  0  0  0  0
    5.5965    1.0139   -0.2761 C   0  0  0  0  0  0  0  0  0  0  0  0
    4.2595    2.0995    1.4790 C   0  0  0  0  0  0  0  0  0  0  0  0
    5.4229    2.0058    0.6130 C   0  0  0  0  0  0  0  0  0  0  0  0
   -4.9824   -1.1205   -0.7994 H   0  0  0  0  0  0  0  0  0  0  0  0
   -4.6463    1.2254    1.1409 H   0  0  0  0  0  0  0  0  0  0  0  0
   -3.2835   -1.1599    1.7544 H   0  0  0  0  0  0  0  0  0  0  0  0
   -3.3883    0.9573   -1.6653 H   0  0  0  0  0  0  0  0  0  0  0  0
   -2.1952   -1.0399   -1.1206 H   0  0  0  0  0  0  0  0  0  0  0  0
   -3.1146    3.1492    0.4505 H   0  0  0  0  0  0  0  0  0  0  0  0
   -4.0520    3.2924   -1.0628 H   0  0  0  0  0  0  0  0  0  0  0  0
   -5.5351   -0.7261    1.9562 H   0  0  0  0  0  0  0  0  0  0  0  0
   -5.7649    0.9789   -1.4647 H   0  0  0  0  0  0  0  0  0  0  0  0
   -3.4981   -2.8745   -0.5027 H   0  0  0  0  0  0  0  0  0  0  0  0
    1.2394   -2.4876    0.7297 H   0  0  0  0  0  0  0  0  0  0  0  0
    1.2314   -1.0819    1.8122 H   0  0  0  0  0  0  0  0  0  0  0  0
   -1.9365    4.1022   -1.2291 H   0  0  0  0  0  0  0  0  0  0  0  0
    2.4109    1.2590    2.0835 H   0  0  0  0  0  0  0  0  0  0  0  0
    6.4665    0.9526   -0.9170 H   0  0  0  0  0  0  0  0  0  0  0  0
    4.2077    2.9380    2.1651 H   0  0  0  0  0  0  0  0  0  0  0  0
    6.1712    2.7861    0.7091 H   0  0  0  0  0  0  0  0  0  0  0  0
  1 13  1  0  0  0  0
  1 14  1  0  0  0  0
  2 14  1  0  0  0  0
  2 16  1  0  0  0  0
  3 10  1  0  0  0  0
  3 33  1  0  0  0  0
  4 11  1  0  0  0  0
  4 34  1  0  0  0  0
  5 12  1  0  0  0  0
  5 35  1  0  0  0  0
  6 15  1  0  0  0  0
  6 38  1  0  0  0  0
  7 16  2  0  0  0  0
  8 21  2  0  0  0  0
  9 20  2  0  0  0  0
  9 21  1  0  0  0  0
 10 11  1  0  0  0  0
 10 12  1  0  0  0  0
 10 26  1  0  0  0  0
 11 13  1  0  0  0  0
 11 27  1  0  0  0  0
 12 14  1  0  0  0  0
 12 28  1  0  0  0  0
 13 15  1  0  0  0  0
 13 29  1  0  0  0  0
 14 30  1  0  0  0  0
 15 31  1  0  0  0  0
 15 32  1  0  0  0  0
 16 17  1  0  0  0  0
 17 18  1  0  0  0  0
 17 36  1  0  0  0  0
 17 37  1  0  0  0  0
 18 19  2  0  0  0  0
 18 21  1  0  0  0  0
 19 20  1  0  0  0  0
 19 22  1  0  0  0  0
 20 23  1  0  0  0  0
 22 24  2  0  0  0  0
 22 39  1  0  0  0  0
 23 25  2  0  0  0  0
 23 40  1  0  0  0  0
 24 25  1  0  0  0  0
 24 41  1  0  0  0  0
 25 42  1  0  0  0  0
M  END
> <PUBCHEM_COMPOUND_CID>
102204473

> <PUBCHEM_CONFORMER_RMSD>
1.2

> <PUBCHEM_CONFORMER_DIVERSEORDER>
1
7
59
8
16
58
27
32
26
54
18
28
5
46
21
47
62
44
66
68
22
9
42
60
78
23
73
13
20
25
6
33
49
10
14
2
52
43
36
4
48
61
74
51
57
34
15
29
38
12
72
69
17
55
56
19
67
24
64
39
40
65
45
35
70
75
3
41
71
11
63
79
31
37
77
53
50
30
76

> <PUBCHEM_MMFF94_PARTIAL_CHARGES>
33
1 -0.56
10 0.28
11 0.28
12 0.28
13 0.28
14 0.56
15 0.28
16 0.66
17 0.2
18 -0.12
19 0.01
2 -0.43
20 0.42
21 0.77
22 -0.15
23 -0.14
24 -0.15
25 -0.15
3 -0.68
33 0.4
34 0.4
35 0.4
38 0.4
39 0.15
4 -0.68
40 0.15
41 0.15
42 0.15
5 -0.68
6 -0.68
7 -0.57
8 -0.57
9 -0.66

> <PUBCHEM_EFFECTIVE_ROTOR_COUNT>
6.2

> <PUBCHEM_PHARMACOPHORE_FEATURES>
16
1 1 acceptor
1 3 acceptor
1 3 donor
1 4 acceptor
1 4 donor
1 5 acceptor
1 5 donor
1 6 acceptor
1 6 donor
1 7 acceptor
1 8 acceptor
1 9 acceptor
1 9 donor
5 9 18 19 20 21 rings
6 1 10 11 12 13 14 rings
6 19 20 22 23 24 25 rings

> <PUBCHEM_HEAVY_ATOM_COUNT>
25

> <PUBCHEM_ATOM_DEF_STEREO_COUNT>
5

> <PUBCHEM_ATOM_UDEF_STEREO_COUNT>
0

> <PUBCHEM_BOND_DEF_STEREO_COUNT>
0

> <PUBCHEM_BOND_UDEF_STEREO_COUNT>
0

> <PUBCHEM_ISOTOPIC_ATOM_COUNT>
0

> <PUBCHEM_COMPONENT_COUNT>
1

> <PUBCHEM_CACTVS_TAUTO_COUNT>
7

> <PUBCHEM_CONFORMER_ID>
0617843900000001

> <PUBCHEM_MMFF94_ENERGY>
54.117

> <PUBCHEM_FEATURE_SELFOVERLAP>
81.373

> <PUBCHEM_SHAPE_FINGERPRINT>
10319926 262 18261940870112786698
10498660 4 18261107431181625892
10670039 82 18040723537277637380
11370993 144 18129672893839927217
11595378 159 17458615692668516704
12236239 1 16732703848066004250
12403259 415 18411704266204530083
12596602 18 16588023545510646072
12730499 353 18271813445116642778
12769317 202 18060131077154230872
13402501 40 18411415141881100680
13583140 156 18202565076937565406
14251757 17 18341891844767070536
14341114 176 18412269436387063625
14739800 52 18188473727658291872
15961568 22 18187929538270264524
17349148 13 15864069870940103066
1768 85 17915737789260741664
17844677 252 18201728310049900057
20645477 56 18411981364657292211
20645477 70 17560809801413388774
21033648 29 18272078422517191616
22122407 14 16773250573271865595
221357 26 18131349674679020280
22289505 5 18202002114753181256
23557571 272 18334020496879190327
23559900 14 18336552624997948342
341906 21 17749104461508829484
34797466 226 17988371441502346598
3545911 37 18341898510476841562
469060 322 16950286187323641341
495365 180 17917418835898222530
497634 4 17346314955779572071
5104073 3 18260830345919741099
5281201 14 18201160953692161230
6442390 28 18334293176074413946
7808743 9 18192147312392872448

> <PUBCHEM_SHAPE_MULTIPOLES>
462.55
14.25
2.9
1.17
2.74
0.8
-0.04
4
-0.84
0.47
0.52
-0.66
0.13
2.92

> <PUBCHEM_SHAPE_SELFOVERLAP>
995.075

> <PUBCHEM_SHAPE_VOLUME>
252.2

> <PUBCHEM_COORDINATE_TYPE>
2
5
10

$$$$
