102216447
  -OEChem-03292013293D

 65 69  0     1  0  0  0  0  0999 V2000
    2.2055    2.3742   -1.0832 O   0  0  0  0  0  0  0  0  0  0  0  0
   -1.0801   -3.2446    0.5542 O   0  0  0  0  0  0  0  0  0  0  0  0
   -0.5370    2.7593    0.3249 O   0  0  0  0  0  0  0  0  0  0  0  0
    4.3511    1.7089    1.5521 O   0  0  0  0  0  0  0  0  0  0  0  0
    2.0769   -1.2560   -3.8096 O   0  0  0  0  0  0  0  0  0  0  0  0
    3.2273    0.1310    2.8105 O   0  0  0  0  0  0  0  0  0  0  0  0
   -4.9306    0.2997    0.5793 O   0  0  0  0  0  0  0  0  0  0  0  0
    0.5452   -4.7424    1.2270 O   0  0  0  0  0  0  0  0  0  0  0  0
   -1.9218    1.4328   -0.9657 N   0  0  0  0  0  0  0  0  0  0  0  0
   -0.0300    0.3905    0.2600 C   0  0  2  0  0  0  0  0  0  0  0  0
   -0.9610   -0.8719    0.3026 C   0  0  2  0  0  0  0  0  0  0  0  0
   -1.4376   -1.0473   -1.1751 C   0  0  2  0  0  0  0  0  0  0  0  0
    1.0496    0.3167   -0.7988 C   0  0  0  0  0  0  0  0  0  0  0  0
    2.2649    1.1115   -0.4103 C   0  0  2  0  0  0  0  0  0  0  0  0
    0.8185    0.6040    1.5280 C   0  0  0  0  0  0  0  0  0  0  0  0
    2.0807    1.3752    1.0970 C   0  0  1  0  0  0  0  0  0  0  0  0
   -0.2519   -1.3208   -2.1472 C   0  0  0  0  0  0  0  0  0  0  0  0
    0.9683   -0.4919   -1.8656 C   0  0  0  0  0  0  0  0  0  0  0  0
   -0.8292    1.6475   -0.1235 C   0  0  0  0  0  0  0  0  0  0  0  0
   -2.1717   -0.8238    1.3250 C   0  0  0  0  0  0  0  0  0  0  0  0
   -2.2241    0.1750   -1.6491 C   0  0  0  0  0  0  0  0  0  0  0  0
   -0.1836   -2.1741    0.6953 C   0  0  0  0  0  0  0  0  0  0  0  0
    3.5235    0.3728   -0.8681 C   0  0  0  0  0  0  0  0  0  0  0  0
    3.4500    0.0717   -2.3665 C   0  0  0  0  0  0  0  0  0  0  0  0
    2.1560   -0.6200   -2.7588 C   0  0  0  0  0  0  0  0  0  0  0  0
   -2.8522    0.4779    1.7708 C   0  0  0  0  0  0  0  0  0  0  0  0
   -2.9749    2.4434   -0.9962 C   0  0  0  0  0  0  0  0  0  0  0  0
    3.2625    0.9807    1.9308 C   0  0  0  0  0  0  0  0  0  0  0  0
   -3.7938    2.4249    0.3088 C   0  0  2  0  0  0  0  0  0  0  0  0
   -3.9577    1.0007    0.8600 C   0  0  0  0  0  0  0  0  0  0  0  0
   -5.1506    3.0940    0.1095 C   0  0  0  0  0  0  0  0  0  0  0  0
   -0.5934   -4.4960    0.8530 C   0  0  0  0  0  0  0  0  0  0  0  0
    5.5570    1.4313    2.2710 C   0  0  0  0  0  0  0  0  0  0  0  0
   -1.6558   -5.5349    0.6576 C   0  0  0  0  0  0  0  0  0  0  0  0
   -2.1111   -1.9102   -1.2667 H   0  0  0  0  0  0  0  0  0  0  0  0
    1.0902   -0.3466    1.9895 H   0  0  0  0  0  0  0  0  0  0  0  0
    0.2741    1.1686    2.2943 H   0  0  0  0  0  0  0  0  0  0  0  0
    1.9074    2.4425    1.2928 H   0  0  0  0  0  0  0  0  0  0  0  0
   -0.5762   -1.1645   -3.1834 H   0  0  0  0  0  0  0  0  0  0  0  0
    0.0255   -2.3807   -2.0808 H   0  0  0  0  0  0  0  0  0  0  0  0
   -1.8088   -1.2567    2.2687 H   0  0  0  0  0  0  0  0  0  0  0  0
   -2.9499   -1.5148    0.9737 H   0  0  0  0  0  0  0  0  0  0  0  0
   -2.1085    0.3563   -2.7239 H   0  0  0  0  0  0  0  0  0  0  0  0
   -3.2891   -0.0372   -1.5003 H   0  0  0  0  0  0  0  0  0  0  0  0
    0.1373   -2.1368    1.7422 H   0  0  0  0  0  0  0  0  0  0  0  0
    0.7118   -2.3460    0.0911 H   0  0  0  0  0  0  0  0  0  0  0  0
    3.6445   -0.5687   -0.3170 H   0  0  0  0  0  0  0  0  0  0  0  0
    4.4240    0.9766   -0.7167 H   0  0  0  0  0  0  0  0  0  0  0  0
    4.2856   -0.5827   -2.6386 H   0  0  0  0  0  0  0  0  0  0  0  0
    3.5309    0.9928   -2.9544 H   0  0  0  0  0  0  0  0  0  0  0  0
   -2.1305    1.2603    2.0107 H   0  0  0  0  0  0  0  0  0  0  0  0
   -3.3613    0.2809    2.7253 H   0  0  0  0  0  0  0  0  0  0  0  0
   -3.6073    2.2668   -1.8743 H   0  0  0  0  0  0  0  0  0  0  0  0
   -2.5169    3.4319   -1.1212 H   0  0  0  0  0  0  0  0  0  0  0  0
    2.9816    2.8914   -0.8071 H   0  0  0  0  0  0  0  0  0  0  0  0
   -3.2606    2.9995    1.0771 H   0  0  0  0  0  0  0  0  0  0  0  0
   -5.0275    4.1354   -0.2055 H   0  0  0  0  0  0  0  0  0  0  0  0
   -5.7279    3.0860    1.0405 H   0  0  0  0  0  0  0  0  0  0  0  0
   -5.7453    2.5763   -0.6512 H   0  0  0  0  0  0  0  0  0  0  0  0
    6.3452    2.0766    1.8743 H   0  0  0  0  0  0  0  0  0  0  0  0
    5.8516    0.3875    2.1262 H   0  0  0  0  0  0  0  0  0  0  0  0
    5.4236    1.6522    3.3343 H   0  0  0  0  0  0  0  0  0  0  0  0
   -2.4983   -5.3309    1.3230 H   0  0  0  0  0  0  0  0  0  0  0  0
   -1.2493   -6.5208    0.9002 H   0  0  0  0  0  0  0  0  0  0  0  0
   -1.9812   -5.5381   -0.3857 H   0  0  0  0  0  0  0  0  0  0  0  0
  1 14  1  0  0  0  0
  1 55  1  0  0  0  0
  2 22  1  0  0  0  0
  2 32  1  0  0  0  0
  3 19  2  0  0  0  0
  4 28  1  0  0  0  0
  4 33  1  0  0  0  0
  5 25  2  0  0  0  0
  6 28  2  0  0  0  0
  7 30  2  0  0  0  0
  8 32  2  0  0  0  0
  9 19  1  0  0  0  0
  9 21  1  0  0  0  0
  9 27  1  0  0  0  0
 10 11  1  0  0  0  0
 10 13  1  0  0  0  0
 10 15  1  0  0  0  0
 10 19  1  0  0  0  0
 11 12  1  0  0  0  0
 11 20  1  0  0  0  0
 11 22  1  0  0  0  0
 12 17  1  0  0  0  0
 12 21  1  0  0  0  0
 12 35  1  0  0  0  0
 13 14  1  0  0  0  0
 13 18  2  0  0  0  0
 14 16  1  0  0  0  0
 14 23  1  0  0  0  0
 15 16  1  0  0  0  0
 15 36  1  0  0  0  0
 15 37  1  0  0  0  0
 16 28  1  0  0  0  0
 16 38  1  0  0  0  0
 17 18  1  0  0  0  0
 17 39  1  0  0  0  0
 17 40  1  0  0  0  0
 18 25  1  0  0  0  0
 20 26  1  0  0  0  0
 20 41  1  0  0  0  0
 20 42  1  0  0  0  0
 21 43  1  0  0  0  0
 21 44  1  0  0  0  0
 22 45  1  0  0  0  0
 22 46  1  0  0  0  0
 23 24  1  0  0  0  0
 23 47  1  0  0  0  0
 23 48  1  0  0  0  0
 24 25  1  0  0  0  0
 24 49  1  0  0  0  0
 24 50  1  0  0  0  0
 26 30  1  0  0  0  0
 26 51  1  0  0  0  0
 26 52  1  0  0  0  0
 27 29  1  0  0  0  0
 27 53  1  0  0  0  0
 27 54  1  0  0  0  0
 29 30  1  0  0  0  0
 29 31  1  0  0  0  0
 29 56  1  0  0  0  0
 31 57  1  0  0  0  0
 31 58  1  0  0  0  0
 31 59  1  0  0  0  0
 32 34  1  0  0  0  0
 33 60  1  0  0  0  0
 33 61  1  0  0  0  0
 33 62  1  0  0  0  0
 34 63  1  0  0  0  0
 34 64  1  0  0  0  0
 34 65  1  0  0  0  0
M  END
> <PUBCHEM_COMPOUND_CID>
102216447

> <PUBCHEM_CONFORMER_RMSD>
1

> <PUBCHEM_CONFORMER_DIVERSEORDER>
1
7
8
6
4
3
9
5
10
2

> <PUBCHEM_MMFF94_PARTIAL_CHARGES>
29
1 -0.68
10 0.2
13 -0.28
14 0.42
16 0.06
17 0.14
18 -0.12
19 0.57
2 -0.43
21 0.3
22 0.28
24 0.06
25 0.49
26 0.06
27 0.3
28 0.66
29 0.06
3 -0.57
30 0.45
32 0.66
33 0.28
34 0.06
4 -0.43
5 -0.57
55 0.4
6 -0.57
7 -0.57
8 -0.57
9 -0.66

> <PUBCHEM_EFFECTIVE_ROTOR_COUNT>
7

> <PUBCHEM_PHARMACOPHORE_FEATURES>
11
1 1 acceptor
1 1 donor
1 3 acceptor
1 5 acceptor
1 6 acceptor
1 7 acceptor
1 8 acceptor
5 10 13 14 15 16 rings
6 10 11 12 13 17 18 rings
6 13 14 18 23 24 25 rings
6 9 10 11 12 19 21 rings

> <PUBCHEM_HEAVY_ATOM_COUNT>
34

> <PUBCHEM_ATOM_DEF_STEREO_COUNT>
3

> <PUBCHEM_ATOM_UDEF_STEREO_COUNT>
3

> <PUBCHEM_BOND_DEF_STEREO_COUNT>
0

> <PUBCHEM_BOND_UDEF_STEREO_COUNT>
0

> <PUBCHEM_ISOTOPIC_ATOM_COUNT>
0

> <PUBCHEM_COMPONENT_COUNT>
1

> <PUBCHEM_CACTVS_TAUTO_COUNT>
24

> <PUBCHEM_CONFORMER_ID>
0617B2FF00000001

> <PUBCHEM_MMFF94_ENERGY>
115.4327

> <PUBCHEM_FEATURE_SELFOVERLAP>
57.369

> <PUBCHEM_SHAPE_FINGERPRINT>
10305334 12 18127667419239243506
10764073 3 16667930312372001056
107951 10 18342162372183054930
10863032 1 17753362818529816541
11578080 2 17059508476559686624
11582403 64 17773005675216739754
12293681 4 17978777228062098623
12788726 201 17975976784678002447
13140716 1 18267293249424138011
14856354 85 18190445247218730824
14955137 171 17624693453863838175
15219462 58 18050013190830651945
15324884 4 17702114758096324452
16945 1 18262235633169742964
17980427 23 17168135707421466029
17980427 26 18053646006780403605
20600515 1 17758096474012497887
20691752 17 18410848846000138157
21033648 29 18340781372520151929
22393880 68 18128542570581311813
229495 10 16603840853557920145
22956985 138 17898852344918186235
23419403 2 17630076873114555123
23559900 14 17753620031579078579
27425 322 18340189860912853688
3380486 145 16546896553417416057
3380486 77 17900789898969101477
35225 105 18189353388162574619
376196 1 17631430354754013048
484985 159 17755538877107329850
5265222 85 18044968760320768958
6442390 28 18336001804374724167
6669772 16 18271796879221930330
9981440 41 17202750627086763818

> <PUBCHEM_SHAPE_MULTIPOLES>
647.77
7.64
4.74
2.78
0.14
8.96
1.31
-7.73
-3.02
-3.38
-2.09
3.45
0.41
1.7

> <PUBCHEM_SHAPE_SELFOVERLAP>
1414.717

> <PUBCHEM_SHAPE_VOLUME>
344.9

> <PUBCHEM_COORDINATE_TYPE>
2
5
10

$$$$
