102283124
  -OEChem-03292013293D

 72 77  0     1  0  0  0  0  0999 V2000
   -0.6664    0.5671    2.4071 O   0  0  0  0  0  0  0  0  0  0  0  0
    1.7214    1.3329    1.3107 O   0  0  0  0  0  0  0  0  0  0  0  0
   -0.1340    2.5746   -0.1533 O   0  0  0  0  0  0  0  0  0  0  0  0
    3.7662   -0.1777   -0.3892 O   0  0  0  0  0  0  0  0  0  0  0  0
   -2.1318   -2.7643   -1.5335 O   0  0  0  0  0  0  0  0  0  0  0  0
    3.1957   -2.8916    1.1047 O   0  0  0  0  0  0  0  0  0  0  0  0
   -0.4281    3.6925    1.8470 O   0  0  0  0  0  0  0  0  0  0  0  0
    4.3611    1.3644   -2.0034 O   0  0  0  0  0  0  0  0  0  0  0  0
   -2.7115   -0.9690    0.8788 N   0  0  2  0  0  0  0  0  0  0  0  0
   -1.2232   -0.5217   -1.0595 C   0  0  1  0  0  0  0  0  0  0  0  0
    0.2713   -0.6000   -1.5597 C   0  0  1  0  0  0  0  0  0  0  0  0
   -0.4644    0.3659    1.0121 C   0  0  2  0  0  0  0  0  0  0  0  0
   -1.2955   -0.8461    0.4626 C   0  0  1  0  0  0  0  0  0  0  0  0
   -1.7721    0.9516   -0.9864 C   0  0  2  0  0  0  0  0  0  0  0  0
    1.3476    0.1804   -0.7763 C   0  0  1  0  0  0  0  0  0  0  0  0
    1.0659    0.1776    0.7441 C   0  0  1  0  0  0  0  0  0  0  0  0
   -1.0655    1.5836    0.2470 C   0  0  2  0  0  0  0  0  0  0  0  0
   -3.3131    0.8944   -0.6921 C   0  0  2  0  0  0  0  0  0  0  0  0
    0.8577   -2.0365   -1.6349 C   0  0  0  0  0  0  0  0  0  0  0  0
    2.2019   -1.9956   -0.8925 C   0  0  1  0  0  0  0  0  0  0  0  0
    2.6388   -0.5609   -1.1459 C   0  0  2  0  0  0  0  0  0  0  0  0
   -2.0743   -1.4248   -2.0256 C   0  0  2  0  0  0  0  0  0  0  0  0
    1.6971   -1.0440    1.4705 C   0  0  0  0  0  0  0  0  0  0  0  0
   -3.5496    0.2248    0.6943 C   0  0  0  0  0  0  0  0  0  0  0  0
    1.9996   -2.2805    0.6070 C   0  0  2  0  0  0  0  0  0  0  0  0
   -4.0378    0.0706   -1.7298 C   0  0  0  0  0  0  0  0  0  0  0  0
   -3.4717   -0.9841   -2.3177 C   0  0  0  0  0  0  0  0  0  0  0  0
   -3.9297    2.3070   -0.7202 C   0  0  0  0  0  0  0  0  0  0  0  0
   -2.8966   -1.5637    2.1954 C   0  0  0  0  0  0  0  0  0  0  0  0
   -4.3403   -1.9865    2.4088 C   0  0  0  0  0  0  0  0  0  0  0  0
    0.0957    3.5814    0.7468 C   0  0  0  0  0  0  0  0  0  0  0  0
    4.5550    0.8046   -0.9328 C   0  0  0  0  0  0  0  0  0  0  0  0
    2.9266   -3.6835    2.2488 C   0  0  0  0  0  0  0  0  0  0  0  0
    1.0955    4.5500    0.1917 C   0  0  0  0  0  0  0  0  0  0  0  0
    5.7082    1.1068   -0.0247 C   0  0  0  0  0  0  0  0  0  0  0  0
    0.2810   -0.1989   -2.5848 H   0  0  0  0  0  0  0  0  0  0  0  0
   -0.8024   -1.7975    0.6774 H   0  0  0  0  0  0  0  0  0  0  0  0
   -1.5646    1.4993   -1.9137 H   0  0  0  0  0  0  0  0  0  0  0  0
    1.4404    1.2037   -1.1533 H   0  0  0  0  0  0  0  0  0  0  0  0
   -1.7940    2.0824    0.8887 H   0  0  0  0  0  0  0  0  0  0  0  0
    0.2109   -2.8152   -1.2296 H   0  0  0  0  0  0  0  0  0  0  0  0
    1.0301   -2.2897   -2.6891 H   0  0  0  0  0  0  0  0  0  0  0  0
    2.9119   -2.7132   -1.3189 H   0  0  0  0  0  0  0  0  0  0  0  0
    2.8438   -0.4526   -2.2210 H   0  0  0  0  0  0  0  0  0  0  0  0
   -1.5725   -1.4673   -3.0009 H   0  0  0  0  0  0  0  0  0  0  0  0
    1.0749   -1.3621    2.3140 H   0  0  0  0  0  0  0  0  0  0  0  0
    2.6298   -0.7257    1.9596 H   0  0  0  0  0  0  0  0  0  0  0  0
   -3.3848    0.9366    1.5123 H   0  0  0  0  0  0  0  0  0  0  0  0
   -4.6125   -0.0419    0.7526 H   0  0  0  0  0  0  0  0  0  0  0  0
    1.1822   -3.0054    0.7106 H   0  0  0  0  0  0  0  0  0  0  0  0
   -5.0724    0.3052   -1.9661 H   0  0  0  0  0  0  0  0  0  0  0  0
   -4.0479   -1.5585   -3.0380 H   0  0  0  0  0  0  0  0  0  0  0  0
   -0.5087   -0.2723    2.8677 H   0  0  0  0  0  0  0  0  0  0  0  0
   -3.5080    2.9682    0.0423 H   0  0  0  0  0  0  0  0  0  0  0  0
   -5.0115    2.2721   -0.5417 H   0  0  0  0  0  0  0  0  0  0  0  0
   -3.7704    2.7862   -1.6935 H   0  0  0  0  0  0  0  0  0  0  0  0
    2.6593    1.3020    1.0570 H   0  0  0  0  0  0  0  0  0  0  0  0
   -2.2738   -2.4620    2.2845 H   0  0  0  0  0  0  0  0  0  0  0  0
   -2.6057   -0.8856    3.0037 H   0  0  0  0  0  0  0  0  0  0  0  0
   -2.5715   -3.3131   -2.2054 H   0  0  0  0  0  0  0  0  0  0  0  0
   -5.0053   -1.1335    2.5750 H   0  0  0  0  0  0  0  0  0  0  0  0
   -4.7190   -2.5729    1.5645 H   0  0  0  0  0  0  0  0  0  0  0  0
   -4.4092   -2.6175    3.3020 H   0  0  0  0  0  0  0  0  0  0  0  0
    3.8685   -4.1289    2.5816 H   0  0  0  0  0  0  0  0  0  0  0  0
    2.2350   -4.4967    2.0067 H   0  0  0  0  0  0  0  0  0  0  0  0
    2.5297   -3.0809    3.0707 H   0  0  0  0  0  0  0  0  0  0  0  0
    2.0307    4.0303   -0.0320 H   0  0  0  0  0  0  0  0  0  0  0  0
    1.2991    5.3270    0.9340 H   0  0  0  0  0  0  0  0  0  0  0  0
    0.6927    5.0213   -0.7081 H   0  0  0  0  0  0  0  0  0  0  0  0
    6.3220    0.2118    0.1036 H   0  0  0  0  0  0  0  0  0  0  0  0
    5.3355    1.4597    0.9402 H   0  0  0  0  0  0  0  0  0  0  0  0
    6.3248    1.8930   -0.4695 H   0  0  0  0  0  0  0  0  0  0  0  0
  1 12  1  0  0  0  0
  1 53  1  0  0  0  0
  2 16  1  0  0  0  0
  2 57  1  0  0  0  0
  3 17  1  0  0  0  0
  3 31  1  0  0  0  0
  4 21  1  0  0  0  0
  4 32  1  0  0  0  0
  5 22  1  0  0  0  0
  5 60  1  0  0  0  0
  6 25  1  0  0  0  0
  6 33  1  0  0  0  0
  7 31  2  0  0  0  0
  8 32  2  0  0  0  0
  9 13  1  0  0  0  0
  9 24  1  0  0  0  0
  9 29  1  0  0  0  0
 10 11  1  0  0  0  0
 10 13  1  0  0  0  0
 10 14  1  0  0  0  0
 10 22  1  0  0  0  0
 11 15  1  0  0  0  0
 11 19  1  0  0  0  0
 11 36  1  0  0  0  0
 12 13  1  0  0  0  0
 12 16  1  0  0  0  0
 12 17  1  0  0  0  0
 13 37  1  0  0  0  0
 14 17  1  0  0  0  0
 14 18  1  0  0  0  0
 14 38  1  0  0  0  0
 15 16  1  0  0  0  0
 15 21  1  0  0  0  0
 15 39  1  0  0  0  0
 16 23  1  0  0  0  0
 17 40  1  0  0  0  0
 18 24  1  0  0  0  0
 18 26  1  0  0  0  0
 18 28  1  0  0  0  0
 19 20  1  0  0  0  0
 19 41  1  0  0  0  0
 19 42  1  0  0  0  0
 20 21  1  0  0  0  0
 20 25  1  0  0  0  0
 20 43  1  0  0  0  0
 21 44  1  0  0  0  0
 22 27  1  0  0  0  0
 22 45  1  0  0  0  0
 23 25  1  0  0  0  0
 23 46  1  0  0  0  0
 23 47  1  0  0  0  0
 24 48  1  0  0  0  0
 24 49  1  0  0  0  0
 25 50  1  0  0  0  0
 26 27  2  0  0  0  0
 26 51  1  0  0  0  0
 27 52  1  0  0  0  0
 28 54  1  0  0  0  0
 28 55  1  0  0  0  0
 28 56  1  0  0  0  0
 29 30  1  0  0  0  0
 29 58  1  0  0  0  0
 29 59  1  0  0  0  0
 30 61  1  0  0  0  0
 30 62  1  0  0  0  0
 30 63  1  0  0  0  0
 31 34  1  0  0  0  0
 32 35  1  0  0  0  0
 33 64  1  0  0  0  0
 33 65  1  0  0  0  0
 33 66  1  0  0  0  0
 34 67  1  0  0  0  0
 34 68  1  0  0  0  0
 34 69  1  0  0  0  0
 35 70  1  0  0  0  0
 35 71  1  0  0  0  0
 35 72  1  0  0  0  0
M  END
> <PUBCHEM_COMPOUND_CID>
102283124

> <PUBCHEM_CONFORMER_RMSD>
1

> <PUBCHEM_CONFORMER_DIVERSEORDER>
1

> <PUBCHEM_MMFF94_PARTIAL_CHARGES>
31
1 -0.68
12 0.28
13 0.27
16 0.28
17 0.28
18 0.14
2 -0.68
21 0.28
22 0.42
24 0.27
25 0.28
26 -0.29
27 -0.29
29 0.27
3 -0.43
31 0.66
32 0.66
33 0.28
34 0.06
35 0.06
4 -0.43
5 -0.68
51 0.15
52 0.15
53 0.4
57 0.4
6 -0.56
60 0.4
7 -0.57
8 -0.57
9 -0.81

> <PUBCHEM_EFFECTIVE_ROTOR_COUNT>
7.6

> <PUBCHEM_PHARMACOPHORE_FEATURES>
14
1 1 acceptor
1 1 donor
1 2 acceptor
1 2 donor
1 5 acceptor
1 5 donor
1 6 acceptor
1 7 acceptor
1 8 acceptor
1 9 cation
6 10 14 18 22 26 27 rings
8 10 11 12 13 14 15 16 17 rings
8 11 15 16 19 20 21 23 25 rings
8 9 10 12 13 14 17 18 24 rings

> <PUBCHEM_HEAVY_ATOM_COUNT>
35

> <PUBCHEM_ATOM_DEF_STEREO_COUNT>
10

> <PUBCHEM_ATOM_UDEF_STEREO_COUNT>
3

> <PUBCHEM_BOND_DEF_STEREO_COUNT>
0

> <PUBCHEM_BOND_UDEF_STEREO_COUNT>
0

> <PUBCHEM_ISOTOPIC_ATOM_COUNT>
0

> <PUBCHEM_COMPONENT_COUNT>
1

> <PUBCHEM_CACTVS_TAUTO_COUNT>
4

> <PUBCHEM_CONFORMER_ID>
0618B77400000001

> <PUBCHEM_MMFF94_ENERGY>
163.1667

> <PUBCHEM_FEATURE_SELFOVERLAP>
72.505

> <PUBCHEM_SHAPE_FINGERPRINT>
10006869 2 18123767360852659937
10032420 55 17969507202156666282
10675989 125 17687738346941820085
10863032 1 17895200952205224063
11007060 377 18125149696772917216
11578080 2 17531260417293840765
12156800 1 15726115478485543626
12160290 23 17696199101380042929
12553582 1 18202276983537265447
12788726 201 18054508010880192465
13224815 77 18273495645882151502
133893 2 18057029423281600657
13583140 156 18334858346288232091
13911987 19 18044678587908351548
14787075 74 18046085988176605846
14790565 3 17699860518388417513
14955137 171 17843432762129867009
15219462 58 17750774718740382393
16945 1 18268698571434545541
17980427 23 17764573332245116426
20600515 1 17678431113765805256
20691752 17 17988922301550162218
20715895 44 17546152018255900213
21033648 29 16701469935989448627
23419403 2 17972326371761442645
23558518 356 17691688887592440593
23559900 14 17968374525366436834
3380486 77 18057580145310650151
34934 24 18413389813061039204
3493558 16 17749393628777730244
4340502 62 17603875464101506413
57527295 17 18336529578561776855
6669772 16 17906451383352270200

> <PUBCHEM_SHAPE_MULTIPOLES>
668.35
7.81
4.1
2.42
3.8
2.62
0.33
-0.77
-1.16
1.65
2.01
-1.32
-1.27
-0.48

> <PUBCHEM_SHAPE_SELFOVERLAP>
1467.835

> <PUBCHEM_SHAPE_VOLUME>
353.8

> <PUBCHEM_COORDINATE_TYPE>
2
5
10

$$$$
