102317091
  -OEChem-03292013293D

 75 79  0     1  0  0  0  0  0999 V2000
   -4.9251    0.5018    2.0481 O   0  0  0  0  0  0  0  0  0  0  0  0
   -4.8793    2.4263   -1.0798 O   0  0  0  0  0  0  0  0  0  0  0  0
    4.9582   -0.2150   -1.2945 O   0  0  0  0  0  0  0  0  0  0  0  0
   -4.3151   -2.7939    0.7347 O   0  0  0  0  0  0  0  0  0  0  0  0
    2.0852   -2.2188    0.0696 O   0  0  0  0  0  0  0  0  0  0  0  0
    7.1848   -0.3174   -1.6336 O   0  0  0  0  0  0  0  0  0  0  0  0
    8.6173   -0.6076    1.2214 O   0  0  0  0  0  0  0  0  0  0  0  0
   -0.0145    0.0801   -0.8151 C   0  0  1  0  0  0  0  0  0  0  0  0
   -0.8309    1.0816    0.0297 C   0  0  2  0  0  0  0  0  0  0  0  0
   -2.3334    1.0422   -0.2807 C   0  0  1  0  0  0  0  0  0  0  0  0
   -2.8705   -0.3937    0.0517 C   0  0  1  0  0  0  0  0  0  0  0  0
    1.4028    0.4092   -0.2857 C   0  0  2  0  0  0  0  0  0  0  0  0
   -4.4315   -0.5034   -0.1530 C   0  0  1  0  0  0  0  0  0  0  0  0
   -0.5170   -1.3311   -0.4835 C   0  0  0  0  0  0  0  0  0  0  0  0
   -0.0643    2.3910   -0.1312 C   0  0  0  0  0  0  0  0  0  0  0  0
   -2.0342   -1.4613   -0.7172 C   0  0  0  0  0  0  0  0  0  0  0  0
    1.4112    1.9542   -0.2033 C   0  0  0  0  0  0  0  0  0  0  0  0
   -3.0868    2.1369    0.4859 C   0  0  0  0  0  0  0  0  0  0  0  0
   -5.1441    0.6635    0.6235 C   0  0  2  0  0  0  0  0  0  0  0  0
   -4.5989    2.0615    0.2659 C   0  0  2  0  0  0  0  0  0  0  0  0
    2.5748   -0.1480   -1.0806 C   0  0  1  0  0  0  0  0  0  0  0  0
   -0.1039    0.3185   -2.3441 C   0  0  0  0  0  0  0  0  0  0  0  0
   -4.7759   -0.5455   -1.6606 C   0  0  0  0  0  0  0  0  0  0  0  0
   -6.6811    0.5967    0.4825 C   0  0  0  0  0  0  0  0  0  0  0  0
   -4.9994   -1.8108    0.4605 C   0  0  0  0  0  0  0  0  0  0  0  0
    3.8963    0.2932   -0.4681 C   0  0  1  0  0  0  0  0  0  0  0  0
    2.5205   -1.6786   -1.1712 C   0  0  0  0  0  0  0  0  0  0  0  0
   -7.2179   -0.7909    0.6815 C   0  0  0  0  0  0  0  0  0  0  0  0
   -6.4668   -1.8965    0.6968 C   0  0  0  0  0  0  0  0  0  0  0  0
    4.0570   -0.2315    0.9476 C   0  0  0  0  0  0  0  0  0  0  0  0
    5.4413    0.0916    1.4389 C   0  0  0  0  0  0  0  0  0  0  0  0
    6.2452   -0.1222   -0.8686 C   0  0  0  0  0  0  0  0  0  0  0  0
    6.4686    0.1974    0.5723 C   0  0  0  0  0  0  0  0  0  0  0  0
    5.5471    0.2566    2.9295 C   0  0  0  0  0  0  0  0  0  0  0  0
    7.8803    0.5643    0.9307 C   0  0  0  0  0  0  0  0  0  0  0  0
   -0.7291    0.8045    1.0928 H   0  0  0  0  0  0  0  0  0  0  0  0
   -2.4807    1.2427   -1.3471 H   0  0  0  0  0  0  0  0  0  0  0  0
   -2.6778   -0.5739    1.1205 H   0  0  0  0  0  0  0  0  0  0  0  0
    1.4413    0.0440    0.7491 H   0  0  0  0  0  0  0  0  0  0  0  0
   -0.3137   -1.5778    0.5658 H   0  0  0  0  0  0  0  0  0  0  0  0
   -0.0529   -2.0980   -1.1053 H   0  0  0  0  0  0  0  0  0  0  0  0
   -0.2347    3.0719    0.7090 H   0  0  0  0  0  0  0  0  0  0  0  0
   -0.3536    2.9161   -1.0483 H   0  0  0  0  0  0  0  0  0  0  0  0
   -2.3230   -2.4722   -0.4186 H   0  0  0  0  0  0  0  0  0  0  0  0
   -2.2341   -1.3965   -1.7916 H   0  0  0  0  0  0  0  0  0  0  0  0
    1.8831    2.4155   -1.0783 H   0  0  0  0  0  0  0  0  0  0  0  0
    1.9581    2.2925    0.6839 H   0  0  0  0  0  0  0  0  0  0  0  0
   -2.8654    2.0569    1.5574 H   0  0  0  0  0  0  0  0  0  0  0  0
   -2.7260    3.1195    0.1583 H   0  0  0  0  0  0  0  0  0  0  0  0
   -5.0723    2.8152    0.9077 H   0  0  0  0  0  0  0  0  0  0  0  0
    2.5690    0.2328   -2.1103 H   0  0  0  0  0  0  0  0  0  0  0  0
    0.3174    1.2839   -2.6420 H   0  0  0  0  0  0  0  0  0  0  0  0
   -1.1318    0.2992   -2.7152 H   0  0  0  0  0  0  0  0  0  0  0  0
    0.4358   -0.4539   -2.9011 H   0  0  0  0  0  0  0  0  0  0  0  0
   -4.2845    0.2500   -2.2259 H   0  0  0  0  0  0  0  0  0  0  0  0
   -4.4714   -1.5001   -2.1058 H   0  0  0  0  0  0  0  0  0  0  0  0
   -5.8499   -0.4634   -1.8515 H   0  0  0  0  0  0  0  0  0  0  0  0
   -7.0075    0.9562   -0.4997 H   0  0  0  0  0  0  0  0  0  0  0  0
   -7.1530    1.2474    1.2301 H   0  0  0  0  0  0  0  0  0  0  0  0
    3.9793    1.3871   -0.4902 H   0  0  0  0  0  0  0  0  0  0  0  0
    1.8365   -2.0002   -1.9606 H   0  0  0  0  0  0  0  0  0  0  0  0
    3.4906   -2.1217   -1.4178 H   0  0  0  0  0  0  0  0  0  0  0  0
   -5.3360    1.2531    2.5086 H   0  0  0  0  0  0  0  0  0  0  0  0
   -8.2892   -0.8864    0.8365 H   0  0  0  0  0  0  0  0  0  0  0  0
   -6.8984   -2.8731    0.8815 H   0  0  0  0  0  0  0  0  0  0  0  0
   -4.5391    3.3261   -1.2210 H   0  0  0  0  0  0  0  0  0  0  0  0
    3.9707   -1.3178    1.0274 H   0  0  0  0  0  0  0  0  0  0  0  0
    3.3268    0.2289    1.6197 H   0  0  0  0  0  0  0  0  0  0  0  0
    2.0616   -3.1855   -0.0322 H   0  0  0  0  0  0  0  0  0  0  0  0
    4.9971    1.1471    3.2506 H   0  0  0  0  0  0  0  0  0  0  0  0
    6.5766    0.3525    3.2827 H   0  0  0  0  0  0  0  0  0  0  0  0
    5.1178   -0.6156    3.4346 H   0  0  0  0  0  0  0  0  0  0  0  0
    7.9281    1.2366    1.7931 H   0  0  0  0  0  0  0  0  0  0  0  0
    8.3763    1.0937    0.1102 H   0  0  0  0  0  0  0  0  0  0  0  0
    8.2083   -1.0351    1.9932 H   0  0  0  0  0  0  0  0  0  0  0  0
  1 19  1  0  0  0  0
  1 63  1  0  0  0  0
  2 20  1  0  0  0  0
  2 66  1  0  0  0  0
  3 26  1  0  0  0  0
  3 32  1  0  0  0  0
  4 25  2  0  0  0  0
  5 27  1  0  0  0  0
  5 69  1  0  0  0  0
  6 32  2  0  0  0  0
  7 35  1  0  0  0  0
  7 75  1  0  0  0  0
  8  9  1  0  0  0  0
  8 12  1  0  0  0  0
  8 14  1  0  0  0  0
  8 22  1  0  0  0  0
  9 10  1  0  0  0  0
  9 15  1  0  0  0  0
  9 36  1  0  0  0  0
 10 11  1  0  0  0  0
 10 18  1  0  0  0  0
 10 37  1  0  0  0  0
 11 13  1  0  0  0  0
 11 16  1  0  0  0  0
 11 38  1  0  0  0  0
 12 17  1  0  0  0  0
 12 21  1  0  0  0  0
 12 39  1  0  0  0  0
 13 19  1  0  0  0  0
 13 23  1  0  0  0  0
 13 25  1  0  0  0  0
 14 16  1  0  0  0  0
 14 40  1  0  0  0  0
 14 41  1  0  0  0  0
 15 17  1  0  0  0  0
 15 42  1  0  0  0  0
 15 43  1  0  0  0  0
 16 44  1  0  0  0  0
 16 45  1  0  0  0  0
 17 46  1  0  0  0  0
 17 47  1  0  0  0  0
 18 20  1  0  0  0  0
 18 48  1  0  0  0  0
 18 49  1  0  0  0  0
 19 20  1  0  0  0  0
 19 24  1  0  0  0  0
 20 50  1  0  0  0  0
 21 26  1  0  0  0  0
 21 27  1  0  0  0  0
 21 51  1  0  0  0  0
 22 52  1  0  0  0  0
 22 53  1  0  0  0  0
 22 54  1  0  0  0  0
 23 55  1  0  0  0  0
 23 56  1  0  0  0  0
 23 57  1  0  0  0  0
 24 28  1  0  0  0  0
 24 58  1  0  0  0  0
 24 59  1  0  0  0  0
 25 29  1  0  0  0  0
 26 30  1  0  0  0  0
 26 60  1  0  0  0  0
 27 61  1  0  0  0  0
 27 62  1  0  0  0  0
 28 29  2  0  0  0  0
 28 64  1  0  0  0  0
 29 65  1  0  0  0  0
 30 31  1  0  0  0  0
 30 67  1  0  0  0  0
 30 68  1  0  0  0  0
 31 33  2  0  0  0  0
 31 34  1  0  0  0  0
 32 33  1  0  0  0  0
 33 35  1  0  0  0  0
 34 70  1  0  0  0  0
 34 71  1  0  0  0  0
 34 72  1  0  0  0  0
 35 73  1  0  0  0  0
 35 74  1  0  0  0  0
M  END
> <PUBCHEM_COMPOUND_CID>
102317091

> <PUBCHEM_CONFORMER_RMSD>
1

> <PUBCHEM_CONFORMER_DIVERSEORDER>
1
5
6
4
3
2

> <PUBCHEM_MMFF94_PARTIAL_CHARGES>
28
1 -0.68
13 0.06
19 0.28
2 -0.68
20 0.28
24 0.14
25 0.49
26 0.28
27 0.28
28 -0.29
29 -0.14
3 -0.43
30 0.14
31 -0.28
32 0.71
33 -0.12
34 0.14
35 0.42
4 -0.57
5 -0.68
6 -0.57
63 0.4
64 0.15
65 0.15
66 0.4
69 0.4
7 -0.68
75 0.4

> <PUBCHEM_EFFECTIVE_ROTOR_COUNT>
6.2

> <PUBCHEM_PHARMACOPHORE_FEATURES>
15
1 1 acceptor
1 1 donor
1 2 acceptor
1 2 donor
1 4 acceptor
1 5 acceptor
1 5 donor
1 6 acceptor
1 7 acceptor
1 7 donor
5 8 9 12 15 17 rings
6 10 11 13 18 19 20 rings
6 13 19 24 25 28 29 rings
6 3 26 30 31 32 33 rings
6 8 9 10 11 14 16 rings

> <PUBCHEM_HEAVY_ATOM_COUNT>
35

> <PUBCHEM_ATOM_DEF_STEREO_COUNT>
10

> <PUBCHEM_ATOM_UDEF_STEREO_COUNT>
0

> <PUBCHEM_BOND_DEF_STEREO_COUNT>
0

> <PUBCHEM_BOND_UDEF_STEREO_COUNT>
0

> <PUBCHEM_ISOTOPIC_ATOM_COUNT>
0

> <PUBCHEM_COMPONENT_COUNT>
1

> <PUBCHEM_CACTVS_TAUTO_COUNT>
3

> <PUBCHEM_CONFORMER_ID>
06193C2300000001

> <PUBCHEM_MMFF94_ENERGY>
130.2246

> <PUBCHEM_FEATURE_SELFOVERLAP>
76.216

> <PUBCHEM_SHAPE_FINGERPRINT>
10 15 18201435913430343728
10290309 65 18340488838303516447
10299344 5 17603304860532233354
10319926 262 18412542137173064649
11135926 11 18260541199862965927
11315181 36 17894352194375556229
11456790 92 18270981124100372473
11578080 2 13325475558054214265
11646440 116 17989212555134077824
11991303 11 12823003253328480772
12166972 35 17531251703032427805
12236239 1 17821730529292176292
12516196 113 18342742918121719636
12730499 353 17560805399372363454
12838862 33 18339916031821734285
13533116 47 16370720423231949872
13782708 43 13767919118506882312
13811026 1 18272368693576134061
14068700 675 18114183090261201749
14251764 18 17821731649592903015
14849402 71 18269557315860502360
14856354 85 18187933914804768615
14955137 171 18060140955357932944
15021287 119 16950567696417075341
15131766 46 15265628868439750816
15183329 4 17821730545823133742
15276724 80 13830132776609912658
15301273 46 18131354102984974382
15419008 47 17846498123619244808
18608769 82 18272088314254018218
19377110 9 18040434373787207514
21033648 29 17417231244237454754
21267235 1 18340497728278332605
21792961 116 17274831217223516068
22061861 79 14056999408187476874
22122407 14 14476683082710297770
22956985 138 17754164290305483018
23522609 53 17314533473152373380
23559900 14 18265615562601062257
23569914 152 13122440891319349795
23569943 247 12614126740456644448
24771293 8 17844797265573538016
2747138 104 18343308088673336744
2838139 119 15339114654539960816
3004659 81 18260274074419093820
32027 91 17831013525150432591
335352 9 18410015443021509517
3383291 50 18338518642014951739
350125 39 18410864286982566965
3882209 13 17193168550507618511
394071 54 16200434684903324984
4093350 32 15770061610439610308
4616759 239 18059858350677989971
5104073 3 18200315403079996074
5969126 39 16081079372728028279
59755656 520 13973963195110627357
6086070 43 17386270069887420933
9953998 17 18060140942667599369

> <PUBCHEM_SHAPE_MULTIPOLES>
679.2
21.57
2.15
1.71
20.41
0.15
0.31
-2.65
8.08
-3.17
0.02
1.78
-0.03
1.08

> <PUBCHEM_SHAPE_SELFOVERLAP>
1463.501

> <PUBCHEM_SHAPE_VOLUME>
367.8

> <PUBCHEM_COORDINATE_TYPE>
2
5
10

$$$$
