102322501
  -OEChem-03292013293D

 41 43  0     0  0  0  0  0  0999 V2000
    2.0128    1.8448    0.8304 O   0  0  0  0  0  0  0  0  0  0  0  0
    6.4627    1.1239   -0.5495 O   0  5  0  0  0  0  0  0  0  0  0  0
   -7.3413   -1.2355    0.1878 O   0  3  0  0  0  0  0  0  0  0  0  0
   -0.1465    2.1815    1.4979 O   0  0  0  0  0  0  0  0  0  0  0  0
   -1.0220   -1.5182    1.9049 O   0  0  0  0  0  0  0  0  0  0  0  0
    6.1493   -1.7685   -2.2553 O   0  5  0  0  0  0  0  0  0  0  0  0
    6.7166   -2.2200   -0.1832 O   0  0  0  0  0  0  0  0  0  0  0  0
   -5.6645    1.2749   -2.6211 O   0  0  0  0  0  0  0  0  0  0  0  0
   -7.5181    1.0957   -1.3176 O   0  0  0  0  0  0  0  0  0  0  0  0
   -1.8712   -0.0081    0.3096 N   0  0  0  0  0  0  0  0  0  0  0  0
    6.0156   -1.6127   -1.0218 N   0  3  0  0  0  0  0  0  0  0  0  0
    2.7255   -0.3776    0.1495 C   0  0  0  0  0  0  0  0  0  0  0  0
    3.0109    0.9669    0.3646 C   0  0  0  0  0  0  0  0  0  0  0  0
    4.2795    1.4943    0.1313 C   0  0  0  0  0  0  0  0  0  0  0  0
    1.3794   -0.8621    0.4131 C   0  0  0  0  0  0  0  0  0  0  0  0
    0.4353   -0.0234    0.8559 C   0  0  0  0  0  0  0  0  0  0  0  0
    3.7421   -1.2169   -0.3126 C   0  0  0  0  0  0  0  0  0  0  0  0
    5.0199   -0.7023   -0.5509 C   0  0  0  0  0  0  0  0  0  0  0  0
    5.2875    0.6503   -0.3295 C   0  0  0  0  0  0  0  0  0  0  0  0
    0.7162    1.4105    1.0920 C   0  0  0  0  0  0  0  0  0  0  0  0
    4.5167    2.9535    0.3853 C   0  0  0  0  0  0  0  0  0  0  0  0
   -0.8914   -0.6063    1.0901 C   0  0  0  0  0  0  0  0  0  0  0  0
   -3.2536   -0.3142    0.2742 C   0  0  0  0  0  0  0  0  0  0  0  0
   -4.1034    0.3930   -0.5763 C   0  0  0  0  0  0  0  0  0  0  0  0
   -5.4648    0.0914   -0.6106 C   0  0  0  0  0  0  0  0  0  0  0  0
   -3.7653   -1.3228    1.0906 C   0  0  0  0  0  0  0  0  0  0  0  0
   -5.9764   -0.9173    0.2057 C   0  0  0  0  0  0  0  0  0  0  0  0
   -5.1266   -1.6245    1.0564 C   0  0  0  0  0  0  0  0  0  0  0  0
   -6.3249    0.8498   -1.5108 C   0  0  0  0  0  0  0  0  0  0  0  0
    1.1756   -1.9137    0.2350 H   0  0  0  0  0  0  0  0  0  0  0  0
    3.5373   -2.2719   -0.4864 H   0  0  0  0  0  0  0  0  0  0  0  0
    4.8327    3.4538   -0.5371 H   0  0  0  0  0  0  0  0  0  0  0  0
    3.6337    3.4914    0.7420 H   0  0  0  0  0  0  0  0  0  0  0  0
    5.2905    3.0855    1.1499 H   0  0  0  0  0  0  0  0  0  0  0  0
   -1.5833    0.7379   -0.3206 H   0  0  0  0  0  0  0  0  0  0  0  0
   -3.6879    1.1856   -1.1947 H   0  0  0  0  0  0  0  0  0  0  0  0
   -3.1697   -1.9121    1.7737 H   0  0  0  0  0  0  0  0  0  0  0  0
   -5.5143   -2.4126    1.6973 H   0  0  0  0  0  0  0  0  0  0  0  0
   -7.7750   -1.0579    1.0615 H   0  0  0  0  0  0  0  0  0  0  0  0
   -7.5019   -2.1632   -0.1228 H   0  0  0  0  0  0  0  0  0  0  0  0
   -6.2496    1.7845   -3.2214 H   0  0  0  0  0  0  0  0  0  0  0  0
  1 13  1  0  0  0  0
  1 20  1  0  0  0  0
  2 19  1  0  0  0  0
  3 27  1  0  0  0  0
  3 39  1  0  0  0  0
  3 40  1  0  0  0  0
  4 20  2  0  0  0  0
  5 22  2  0  0  0  0
  6 11  1  0  0  0  0
  7 11  2  0  0  0  0
  8 29  1  0  0  0  0
  8 41  1  0  0  0  0
  9 29  2  0  0  0  0
 10 22  1  0  0  0  0
 10 23  1  0  0  0  0
 10 35  1  0  0  0  0
 11 18  1  0  0  0  0
 12 13  1  0  0  0  0
 12 15  1  0  0  0  0
 12 17  2  0  0  0  0
 13 14  2  0  0  0  0
 14 19  1  0  0  0  0
 14 21  1  0  0  0  0
 15 16  2  0  0  0  0
 15 30  1  0  0  0  0
 16 20  1  0  0  0  0
 16 22  1  0  0  0  0
 17 18  1  0  0  0  0
 17 31  1  0  0  0  0
 18 19  2  0  0  0  0
 21 32  1  0  0  0  0
 21 33  1  0  0  0  0
 21 34  1  0  0  0  0
 23 24  2  0  0  0  0
 23 26  1  0  0  0  0
 24 25  1  0  0  0  0
 24 36  1  0  0  0  0
 25 27  2  0  0  0  0
 25 29  1  0  0  0  0
 26 28  2  0  0  0  0
 26 37  1  0  0  0  0
 27 28  1  0  0  0  0
 28 38  1  0  0  0  0
M  CHG  4   2  -1   3   1   6  -1  11   1
M  END
> <PUBCHEM_COMPOUND_CID>
102322501

> <PUBCHEM_CONFORMER_RMSD>
0.8

> <PUBCHEM_CONFORMER_DIVERSEORDER>
1
17
3
16
9
12
18
10
5
7
14
6
4
8
15
11
13
2

> <PUBCHEM_MMFF94_PARTIAL_CHARGES>
38
1 -0.23
10 -0.55
11 0.91
12 0.03
13 0.08
14 -0.14
15 -0.18
16 0.03
17 -0.15
18 0.13
19 -0.17
2 -0.83
20 0.71
21 0.14
22 0.62
23 0.12
24 -0.15
25 0.09
26 -0.15
27 0.16
28 -0.15
29 0.63
3 -0.29
30 0.15
31 0.15
35 0.37
36 0.15
37 0.15
38 0.15
39 0.57
4 -0.57
40 0.57
41 0.5
5 -0.57
6 -0.52
7 -0.52
8 -0.65
9 -0.57

> <PUBCHEM_EFFECTIVE_ROTOR_COUNT>
5

> <PUBCHEM_PHARMACOPHORE_FEATURES>
15
1 10 donor
1 16 anion
1 3 acceptor
1 3 donor
1 4 acceptor
1 5 acceptor
1 6 acceptor
1 6 anion
1 7 acceptor
1 8 acceptor
1 9 acceptor
3 8 9 29 anion
6 1 12 13 15 16 20 rings
6 12 13 14 17 18 19 rings
6 23 24 25 26 27 28 rings

> <PUBCHEM_HEAVY_ATOM_COUNT>
29

> <PUBCHEM_ATOM_DEF_STEREO_COUNT>
0

> <PUBCHEM_ATOM_UDEF_STEREO_COUNT>
0

> <PUBCHEM_BOND_DEF_STEREO_COUNT>
0

> <PUBCHEM_BOND_UDEF_STEREO_COUNT>
0

> <PUBCHEM_ISOTOPIC_ATOM_COUNT>
0

> <PUBCHEM_COMPONENT_COUNT>
1

> <PUBCHEM_CACTVS_TAUTO_COUNT>
16

> <PUBCHEM_CONFORMER_ID>
0619514500000001

> <PUBCHEM_MMFF94_ENERGY>
115.7218

> <PUBCHEM_FEATURE_SELFOVERLAP>
76.297

> <PUBCHEM_SHAPE_FINGERPRINT>
10670039 82 17168140118568708743
10673678 19 17826808220177221348
10693767 8 17988637467798679134
10763959 59 17967535692082700260
10835480 77 18337951298235880104
11497681 19 17983290719648439991
11719270 70 18411975850257433762
12236239 1 16917348125599988795
12403259 415 18186802508722926787
12838862 33 18201714116312414080
13533116 47 17632301190028248914
13782708 43 18261397801083443707
14931854 50 18188504467272550126
14933364 13 18333449859424789557
15082195 135 18188784962880796692
15119646 104 17131841944894669519
15183329 4 18410009897511790081
15188451 53 13901901224706557549
15475509 35 13182198236731228732
15475509 8 16443350828051817438
18608769 82 17822297950744877499
20028762 73 17775292625755607958
21033648 29 18187635968528056345
21279426 13 18407760339254327969
21315764 119 17313111813349965450
21637258 2 16200428052940693137
21792961 116 18334579022889722546
22061861 79 18341895199057049911
221357 26 18413103957254980025
22224240 67 8214139642873722065
22393880 68 18334571373743262227
23081809 10 17060349529924427043
23522609 53 16557371394695304897
23559900 14 18410574036696600345
23569914 152 17619333317434959303
24771750 20 17616258417083258460
29717793 49 17989210330499072172
3004659 81 18407479955700567826
34797466 226 18261396705834620957
3882209 13 17542772123986925522
445580 37 17458628883108837821
46194498 28 18115871982512287517
59682541 52 18060133253995949597

> <PUBCHEM_SHAPE_MULTIPOLES>
534.02
20.78
2.23
1.55
11.59
0.58
0.6
-2.48
10.59
-2.63
-0.16
1.08
0.06
3.62

> <PUBCHEM_SHAPE_SELFOVERLAP>
1181.894

> <PUBCHEM_SHAPE_VOLUME>
282.9

> <PUBCHEM_COORDINATE_TYPE>
2
5
10

$$$$
