102314453
  -OEChem-03292013293D

 56 60  0     1  0  0  0  0  0999 V2000
   -1.7816   -2.5230   -1.5463 O   0  0  0  0  0  0  0  0  0  0  0  0
   -0.9694   -2.0378    0.6208 O   0  0  0  0  0  0  0  0  0  0  0  0
   -0.3117    1.4613   -1.7044 O   0  0  0  0  0  0  0  0  0  0  0  0
    3.4672   -1.9427    2.1595 O   0  0  0  0  0  0  0  0  0  0  0  0
    1.1047    3.0211   -2.5289 O   0  0  0  0  0  0  0  0  0  0  0  0
    3.6028    3.0173   -1.9277 O   0  0  0  0  0  0  0  0  0  0  0  0
   -4.7097    3.2558    0.9428 O   0  0  0  0  0  0  0  0  0  0  0  0
   -3.0396    2.5546    2.3772 O   0  0  0  0  0  0  0  0  0  0  0  0
   -1.9541   -1.6859   -0.3764 C   0  0  1  0  0  0  0  0  0  0  0  0
   -1.8847   -0.2001   -0.8062 C   0  0  2  0  0  0  0  0  0  0  0  0
   -3.3233   -2.0849    0.1820 C   0  0  0  0  0  0  0  0  0  0  0  0
   -0.4690    0.0781   -1.3319 C   0  0  2  0  0  0  0  0  0  0  0  0
   -3.3661   -3.5647   -0.1216 C   0  0  0  0  0  0  0  0  0  0  0  0
   -2.7155   -3.6138   -1.4918 C   0  0  2  0  0  0  0  0  0  0  0  0
    0.5430   -0.3878   -0.3385 C   0  0  0  0  0  0  0  0  0  0  0  0
    0.2652   -1.4567    0.5158 C   0  0  0  0  0  0  0  0  0  0  0  0
    1.7976    0.2211   -0.3364 C   0  0  0  0  0  0  0  0  0  0  0  0
   -2.2843    0.7501    0.2908 C   0  0  0  0  0  0  0  0  0  0  0  0
   -1.9938   -4.9182   -1.7703 C   0  0  0  0  0  0  0  0  0  0  0  0
    2.8244   -0.2981    0.4840 C   0  0  0  0  0  0  0  0  0  0  0  0
    2.0341    1.3467   -1.1333 C   0  0  0  0  0  0  0  0  0  0  0  0
    1.2632   -1.9493    1.3537 C   0  0  0  0  0  0  0  0  0  0  0  0
    0.9247    2.0041   -1.8719 C   0  0  0  0  0  0  0  0  0  0  0  0
    2.5412   -1.3872    1.3242 C   0  0  0  0  0  0  0  0  0  0  0  0
    4.0946    0.2962    0.4406 C   0  0  0  0  0  0  0  0  0  0  0  0
   -3.3107    1.6043    0.1878 C   0  0  0  0  0  0  0  0  0  0  0  0
    3.3071    1.9261   -1.1649 C   0  0  0  0  0  0  0  0  0  0  0  0
    4.3347    1.3937   -0.3870 C   0  0  0  0  0  0  0  0  0  0  0  0
    5.2617   -0.1786    1.2494 C   0  0  0  0  0  0  0  0  0  0  0  0
   -3.6371    2.5059    1.3136 C   0  0  0  0  0  0  0  0  0  0  0  0
    3.5544   -1.4031    3.4755 C   0  0  0  0  0  0  0  0  0  0  0  0
   -5.1702    4.1956    1.9195 C   0  0  0  0  0  0  0  0  0  0  0  0
   -2.5673   -0.0507   -1.6558 H   0  0  0  0  0  0  0  0  0  0  0  0
   -4.1345   -1.5864   -0.3625 H   0  0  0  0  0  0  0  0  0  0  0  0
   -3.4353   -1.8841    1.2518 H   0  0  0  0  0  0  0  0  0  0  0  0
   -0.3203   -0.4982   -2.2556 H   0  0  0  0  0  0  0  0  0  0  0  0
   -2.7754   -4.1159    0.6200 H   0  0  0  0  0  0  0  0  0  0  0  0
   -4.3791   -3.9769   -0.1201 H   0  0  0  0  0  0  0  0  0  0  0  0
   -3.4642   -3.4328   -2.2719 H   0  0  0  0  0  0  0  0  0  0  0  0
   -1.6987    0.7228    1.2066 H   0  0  0  0  0  0  0  0  0  0  0  0
   -1.1844   -5.0809   -1.0501 H   0  0  0  0  0  0  0  0  0  0  0  0
   -1.5285   -4.8916   -2.7614 H   0  0  0  0  0  0  0  0  0  0  0  0
   -2.6805   -5.7687   -1.7276 H   0  0  0  0  0  0  0  0  0  0  0  0
    1.0487   -2.7794    2.0229 H   0  0  0  0  0  0  0  0  0  0  0  0
   -3.9164    1.6554   -0.7106 H   0  0  0  0  0  0  0  0  0  0  0  0
    5.3174    1.8592   -0.4222 H   0  0  0  0  0  0  0  0  0  0  0  0
    5.1884    0.1502    2.2872 H   0  0  0  0  0  0  0  0  0  0  0  0
    6.1957    0.2590    0.8720 H   0  0  0  0  0  0  0  0  0  0  0  0
    5.4236   -1.2562    1.1620 H   0  0  0  0  0  0  0  0  0  0  0  0
    2.8819    3.1995   -2.5499 H   0  0  0  0  0  0  0  0  0  0  0  0
    4.5628   -1.5780    3.8608 H   0  0  0  0  0  0  0  0  0  0  0  0
    2.8451   -1.9279    4.1233 H   0  0  0  0  0  0  0  0  0  0  0  0
    3.3342   -0.3306    3.5046 H   0  0  0  0  0  0  0  0  0  0  0  0
   -6.0279    4.7286    1.5006 H   0  0  0  0  0  0  0  0  0  0  0  0
   -4.3832    4.9206    2.1477 H   0  0  0  0  0  0  0  0  0  0  0  0
   -5.4897    3.6732    2.8263 H   0  0  0  0  0  0  0  0  0  0  0  0
  1  9  1  0  0  0  0
  1 14  1  0  0  0  0
  2  9  1  0  0  0  0
  2 16  1  0  0  0  0
  3 12  1  0  0  0  0
  3 23  1  0  0  0  0
  4 24  1  0  0  0  0
  4 31  1  0  0  0  0
  5 23  2  0  0  0  0
  6 27  1  0  0  0  0
  6 50  1  0  0  0  0
  7 30  1  0  0  0  0
  7 32  1  0  0  0  0
  8 30  2  0  0  0  0
  9 10  1  0  0  0  0
  9 11  1  0  0  0  0
 10 12  1  0  0  0  0
 10 18  1  0  0  0  0
 10 33  1  0  0  0  0
 11 13  1  0  0  0  0
 11 34  1  0  0  0  0
 11 35  1  0  0  0  0
 12 15  1  0  0  0  0
 12 36  1  0  0  0  0
 13 14  1  0  0  0  0
 13 37  1  0  0  0  0
 13 38  1  0  0  0  0
 14 19  1  0  0  0  0
 14 39  1  0  0  0  0
 15 16  1  0  0  0  0
 15 17  2  0  0  0  0
 16 22  2  0  0  0  0
 17 20  1  0  0  0  0
 17 21  1  0  0  0  0
 18 26  2  0  0  0  0
 18 40  1  0  0  0  0
 19 41  1  0  0  0  0
 19 42  1  0  0  0  0
 19 43  1  0  0  0  0
 20 24  2  0  0  0  0
 20 25  1  0  0  0  0
 21 23  1  0  0  0  0
 21 27  2  0  0  0  0
 22 24  1  0  0  0  0
 22 44  1  0  0  0  0
 25 28  2  0  0  0  0
 25 29  1  0  0  0  0
 26 30  1  0  0  0  0
 26 45  1  0  0  0  0
 27 28  1  0  0  0  0
 28 46  1  0  0  0  0
 29 47  1  0  0  0  0
 29 48  1  0  0  0  0
 29 49  1  0  0  0  0
 31 51  1  0  0  0  0
 31 52  1  0  0  0  0
 31 53  1  0  0  0  0
 32 54  1  0  0  0  0
 32 55  1  0  0  0  0
 32 56  1  0  0  0  0
M  END
> <PUBCHEM_COMPOUND_CID>
102314453

> <PUBCHEM_CONFORMER_RMSD>
0.8

> <PUBCHEM_CONFORMER_DIVERSEORDER>
1
4
2
3

> <PUBCHEM_MMFF94_PARTIAL_CHARGES>
32
1 -0.56
10 0.14
12 0.42
14 0.28
15 -0.14
16 0.08
18 -0.29
2 -0.36
21 0.09
22 -0.15
23 0.63
24 0.08
25 -0.14
26 -0.14
27 0.08
28 -0.15
29 0.14
3 -0.43
30 0.71
31 0.28
32 0.28
4 -0.36
40 0.15
44 0.15
45 0.15
46 0.15
5 -0.57
50 0.45
6 -0.53
7 -0.43
8 -0.57
9 0.56

> <PUBCHEM_EFFECTIVE_ROTOR_COUNT>
5.4

> <PUBCHEM_PHARMACOPHORE_FEATURES>
11
1 1 acceptor
1 2 acceptor
1 4 acceptor
1 5 acceptor
1 6 donor
1 8 acceptor
5 1 9 11 13 14 rings
6 15 16 17 20 22 24 rings
6 17 20 21 25 27 28 rings
6 2 9 10 12 15 16 rings
6 3 12 15 17 21 23 rings

> <PUBCHEM_HEAVY_ATOM_COUNT>
32

> <PUBCHEM_ATOM_DEF_STEREO_COUNT>
4

> <PUBCHEM_ATOM_UDEF_STEREO_COUNT>
0

> <PUBCHEM_BOND_DEF_STEREO_COUNT>
1

> <PUBCHEM_BOND_UDEF_STEREO_COUNT>
0

> <PUBCHEM_ISOTOPIC_ATOM_COUNT>
0

> <PUBCHEM_COMPONENT_COUNT>
1

> <PUBCHEM_CACTVS_TAUTO_COUNT>
18

> <PUBCHEM_CONFORMER_ID>
061931D500000001

> <PUBCHEM_MMFF94_ENERGY>
123.7039

> <PUBCHEM_FEATURE_SELFOVERLAP>
56.008

> <PUBCHEM_SHAPE_FINGERPRINT>
10674148 151 18265917782812853012
10764073 3 10869575307976141311
10967382 1 17533770761934305758
1100329 8 17390470092535810534
11115154 58 17909805950790652831
11135609 187 17246101200367052092
11421498 54 18122916592076347050
11578080 2 16914013337024413356
11763715 3 17697858603739251158
12293681 160 17326906577920223125
12422481 6 17683241365669096529
12553582 1 17750219345352117610
12788726 201 18196380427569482463
13009979 54 18337377348839396490
13140716 1 17824515549090113378
133893 2 17313655049128762666
13540713 5 18260832656818056036
13583140 156 16702008808330074178
13965767 371 18264490585552954128
14294032 229 18059587880145566529
14765038 42 18259992574448344408
14787075 74 17402609044219219004
14790565 3 17532957071796231564
15219462 58 17486170605280857826
15297060 5 17916319237695926265
15420108 30 18409172077925166436
15842332 3 18334288799185909834
17818456 19 18413387644245037767
1979834 28 17905906777378360761
21033650 10 17906771268210960316
21133410 230 16608014509350014811
21814621 53 17632304497665276092
23598288 3 18339650039626963315
25147074 1 18261106413395475214
3380486 145 17532072952266179060
345986 75 18192980746217123739
392239 28 17981033430016796168
463206 1 17544751695550507950
6058803 2 18335133237233188706
6086070 43 17838892991539202695

> <PUBCHEM_SHAPE_MULTIPOLES>
611.59
9.11
5.4
2.51
1.57
0.93
-0.88
-4.96
-4.44
-9.02
0.64
1.44
-0.68
-6.34

> <PUBCHEM_SHAPE_SELFOVERLAP>
1362.374

> <PUBCHEM_SHAPE_VOLUME>
326

> <PUBCHEM_COORDINATE_TYPE>
2
5
10

$$$$
