102316550
  -OEChem-03292013293D

 46 46  0     1  0  0  0  0  0999 V2000
    4.1560    0.0576    0.7129 O   0  0  0  0  0  0  0  0  0  0  0  0
    3.7819    2.2464   -0.9262 O   0  0  0  0  0  0  0  0  0  0  0  0
    1.3176    3.5734   -0.9566 O   0  0  0  0  0  0  0  0  0  0  0  0
   -3.1926    1.2099   -0.1635 O   0  0  0  0  0  0  0  0  0  0  0  0
   -2.5099   -1.4735   -0.6249 O   0  0  0  0  0  0  0  0  0  0  0  0
    5.5564   -1.4884    1.6017 O   0  0  0  0  0  0  0  0  0  0  0  0
   -4.2098    1.4937    1.8911 O   0  0  0  0  0  0  0  0  0  0  0  0
   -3.8513   -3.0552    0.3925 O   0  0  0  0  0  0  0  0  0  0  0  0
    2.8614    0.2791    0.1114 C   0  0  1  0  0  0  0  0  0  0  0  0
    2.7025    1.7751   -0.1195 C   0  0  2  0  0  0  0  0  0  0  0  0
    1.3523    2.1603   -0.7497 C   0  0  1  0  0  0  0  0  0  0  0  0
    2.7362   -0.5023   -1.1895 C   0  0  0  0  0  0  0  0  0  0  0  0
    0.1533    1.7965    0.0808 C   0  0  0  0  0  0  0  0  0  0  0  0
   -2.0438    0.6501    0.4747 C   0  0  1  0  0  0  0  0  0  0  0  0
   -2.2547   -0.8646    0.6405 C   0  0  2  0  0  0  0  0  0  0  0  0
   -0.8448    1.0135   -0.3561 C   0  0  0  0  0  0  0  0  0  0  0  0
    3.1291   -1.9188   -0.9412 C   0  0  0  0  0  0  0  0  0  0  0  0
    4.6223   -1.2117    0.8573 C   0  0  0  0  0  0  0  0  0  0  0  0
    3.9764   -2.2529    0.0367 C   0  0  0  0  0  0  0  0  0  0  0  0
   -1.0662   -1.5710    1.2779 C   0  0  0  0  0  0  0  0  0  0  0  0
   -4.2031    1.5894    0.6714 C   0  0  0  0  0  0  0  0  0  0  0  0
   -3.3290   -2.5652   -0.5995 C   0  0  0  0  0  0  0  0  0  0  0  0
   -5.3348    2.1547   -0.1324 C   0  0  0  0  0  0  0  0  0  0  0  0
   -3.5056   -3.0961   -1.9899 C   0  0  0  0  0  0  0  0  0  0  0  0
    2.1111   -0.0617    0.8371 H   0  0  0  0  0  0  0  0  0  0  0  0
    2.8192    2.2958    0.8401 H   0  0  0  0  0  0  0  0  0  0  0  0
    1.2845    1.7284   -1.7547 H   0  0  0  0  0  0  0  0  0  0  0  0
    3.3813   -0.1016   -1.9796 H   0  0  0  0  0  0  0  0  0  0  0  0
    1.7043   -0.4849   -1.5540 H   0  0  0  0  0  0  0  0  0  0  0  0
   -1.9129    1.0922    1.4721 H   0  0  0  0  0  0  0  0  0  0  0  0
    0.1128    2.2033    1.0884 H   0  0  0  0  0  0  0  0  0  0  0  0
   -3.1293   -0.9928    1.2916 H   0  0  0  0  0  0  0  0  0  0  0  0
   -0.8049    0.6181   -1.3683 H   0  0  0  0  0  0  0  0  0  0  0  0
    2.7120   -2.6914   -1.5794 H   0  0  0  0  0  0  0  0  0  0  0  0
    3.6444    3.1985   -1.0689 H   0  0  0  0  0  0  0  0  0  0  0  0
    4.2646   -3.2845    0.2019 H   0  0  0  0  0  0  0  0  0  0  0  0
    0.4847    3.7880   -1.4110 H   0  0  0  0  0  0  0  0  0  0  0  0
   -0.1954   -1.5720    0.6134 H   0  0  0  0  0  0  0  0  0  0  0  0
   -1.3003   -2.6224    1.4762 H   0  0  0  0  0  0  0  0  0  0  0  0
   -0.7866   -1.1009    2.2258 H   0  0  0  0  0  0  0  0  0  0  0  0
   -4.9941    3.0341   -0.6847 H   0  0  0  0  0  0  0  0  0  0  0  0
   -6.1422    2.4570    0.5407 H   0  0  0  0  0  0  0  0  0  0  0  0
   -5.7186    1.3941   -0.8170 H   0  0  0  0  0  0  0  0  0  0  0  0
   -2.5377   -3.4004   -2.3958 H   0  0  0  0  0  0  0  0  0  0  0  0
   -4.1630   -3.9699   -1.9638 H   0  0  0  0  0  0  0  0  0  0  0  0
   -3.9660   -2.3326   -2.6220 H   0  0  0  0  0  0  0  0  0  0  0  0
  1  9  1  0  0  0  0
  1 18  1  0  0  0  0
  2 10  1  0  0  0  0
  2 35  1  0  0  0  0
  3 11  1  0  0  0  0
  3 37  1  0  0  0  0
  4 14  1  0  0  0  0
  4 21  1  0  0  0  0
  5 15  1  0  0  0  0
  5 22  1  0  0  0  0
  6 18  2  0  0  0  0
  7 21  2  0  0  0  0
  8 22  2  0  0  0  0
  9 10  1  0  0  0  0
  9 12  1  0  0  0  0
  9 25  1  0  0  0  0
 10 11  1  0  0  0  0
 10 26  1  0  0  0  0
 11 13  1  0  0  0  0
 11 27  1  0  0  0  0
 12 17  1  0  0  0  0
 12 28  1  0  0  0  0
 12 29  1  0  0  0  0
 13 16  2  0  0  0  0
 13 31  1  0  0  0  0
 14 15  1  0  0  0  0
 14 16  1  0  0  0  0
 14 30  1  0  0  0  0
 15 20  1  0  0  0  0
 15 32  1  0  0  0  0
 16 33  1  0  0  0  0
 17 19  2  0  0  0  0
 17 34  1  0  0  0  0
 18 19  1  0  0  0  0
 19 36  1  0  0  0  0
 20 38  1  0  0  0  0
 20 39  1  0  0  0  0
 20 40  1  0  0  0  0
 21 23  1  0  0  0  0
 22 24  1  0  0  0  0
 23 41  1  0  0  0  0
 23 42  1  0  0  0  0
 23 43  1  0  0  0  0
 24 44  1  0  0  0  0
 24 45  1  0  0  0  0
 24 46  1  0  0  0  0
M  END
> <PUBCHEM_COMPOUND_CID>
102316550

> <PUBCHEM_CONFORMER_RMSD>
1.2

> <PUBCHEM_CONFORMER_DIVERSEORDER>
1
185
52
20
41
238
123
184
11
54
106
202
197
117
57
45
181
50
42
110
107
182
102
210
61
103
124
193
179
75
192
86
99
222
146
145
206
70
114
153
220
71
46
148
190
213
62
199
119
63
171
203
164
239
125
120
40
200
140
81
186
194
133
204
113
208
32
136
64
25
55
167
49
212
180
82
112
65
34
214
221
228
216
233
88
191
141
205
69
134
96
126
78
242
76
137
66
108
223
161
154
187
131
97
53
21
104
166
219
16
35
175
135
74
224
14
163
26
201
87
48
91
43
235
68
211
165
240
158
13
92
118
22
95
23
174
176
38
24
183
90
234
60
232
159
72
7
198
100
139
47
227
156
28
143
115
231
162
58
177
89
2
51
196
15
207
150
132
129
10
80
149
111
217
170
9
130
122
116
138
29
8
236
241
79
30
18
83
157
209
5
84
229
155
44
94
39
3
237
19
160
226
4
105
85
218
128
152
6
109
37
121
173
195
17
56
67
59
230
144
31
168
147
77
142
93
151
127
98
12
27
188
33
225
36
172
169
215
73
178
189
101

> <PUBCHEM_MMFF94_PARTIAL_CHARGES>
29
1 -0.43
10 0.28
11 0.42
12 0.14
13 -0.29
14 0.42
15 0.28
16 -0.29
17 -0.29
18 0.71
19 -0.14
2 -0.68
21 0.66
22 0.66
23 0.06
24 0.06
3 -0.68
31 0.15
33 0.15
34 0.15
35 0.4
36 0.15
37 0.4
4 -0.43
5 -0.43
6 -0.57
7 -0.57
8 -0.57
9 0.28

> <PUBCHEM_EFFECTIVE_ROTOR_COUNT>
9.6

> <PUBCHEM_PHARMACOPHORE_FEATURES>
8
1 2 acceptor
1 2 donor
1 3 acceptor
1 3 donor
1 6 acceptor
1 7 acceptor
1 8 acceptor
6 1 9 12 17 18 19 rings

> <PUBCHEM_HEAVY_ATOM_COUNT>
24

> <PUBCHEM_ATOM_DEF_STEREO_COUNT>
2

> <PUBCHEM_ATOM_UDEF_STEREO_COUNT>
3

> <PUBCHEM_BOND_DEF_STEREO_COUNT>
1

> <PUBCHEM_BOND_UDEF_STEREO_COUNT>
0

> <PUBCHEM_ISOTOPIC_ATOM_COUNT>
0

> <PUBCHEM_COMPONENT_COUNT>
1

> <PUBCHEM_CACTVS_TAUTO_COUNT>
4

> <PUBCHEM_CONFORMER_ID>
06193A0600000001

> <PUBCHEM_MMFF94_ENERGY>
43.0009

> <PUBCHEM_FEATURE_SELFOVERLAP>
40.606

> <PUBCHEM_SHAPE_FINGERPRINT>
10062212 137 18411697707789722523
10616163 171 18195818580921158758
12107183 9 18337113345916311521
12553582 1 18263935345434587836
12596599 1 18200327540973936090
12633257 1 18336548231187985926
12788726 201 18128823138924394247
13140716 1 18411138034796036840
13583140 156 17417803002156262065
14848160 33 18262798613341260246
15537594 2 18115314363003612370
17492 89 18339366382417034991
17818456 19 18200888287667410377
19141452 34 18340765944780800881
20626108 58 18338222864975545098
20681651 13 17988093308221208625
21421861 104 18196105545103814119
21703447 108 17769645731234340089
21859007 373 17898556588843023733
22393880 68 18270695280329901604
23503953 91 18413107230156787472
23558518 356 18116720797130682459
23559900 14 18059029288956274852
23622692 118 18341323508845278774
312423 11 18261962958475474598
38695281 34 18124876755885712877
463206 1 18040995086284746970
5104073 3 18412265064194934912
5309563 4 17545332229389890515
532947 4 17909556052112048319
56633871 153 18267022747846769218
5924683 9 18201710782478567935
633830 44 17167583803912978713
6823239 73 17916047727581126854
7164475 11 18267865176228486013
9709674 26 18190468335860445330

> <PUBCHEM_SHAPE_MULTIPOLES>
446.95
11.33
4.03
1.38
1.31
0.63
-0.03
2.28
-2.28
-2.35
1.37
-0.16
0.51
-2.26

> <PUBCHEM_SHAPE_SELFOVERLAP>
899.073

> <PUBCHEM_SHAPE_VOLUME>
260.2

> <PUBCHEM_COORDINATE_TYPE>
2
5
10

$$$$
