102362414
  -OEChem-03292013293D

 44 47  0     1  0  0  0  0  0999 V2000
    2.7437   -0.6843    1.7692 O   0  0  0  0  0  0  0  0  0  0  0  0
    0.3714    1.8501    0.6457 O   0  0  0  0  0  0  0  0  0  0  0  0
    3.3155   -0.6966   -1.4791 O   0  0  0  0  0  0  0  0  0  0  0  0
    2.3244    2.4803   -1.2360 O   0  0  0  0  0  0  0  0  0  0  0  0
   -1.3761   -2.2321    0.8174 O   0  0  0  0  0  0  0  0  0  0  0  0
   -1.2251   -2.2057   -1.5951 O   0  0  0  0  0  0  0  0  0  0  0  0
   -3.5183   -1.0595   -0.3661 O   0  0  0  0  0  0  0  0  0  0  0  0
    1.1690   -0.7688   -0.1784 C   0  0  1  0  0  0  0  0  0  0  0  0
    1.5859   -0.1241    1.1299 C   0  0  2  0  0  0  0  0  0  0  0  0
   -0.3631   -0.3212   -0.4064 C   0  0  2  0  0  0  0  0  0  0  0  0
    1.6923    1.3316    0.8309 C   0  0  1  0  0  0  0  0  0  0  0  0
    2.1174    0.0209   -1.1871 C   0  0  1  0  0  0  0  0  0  0  0  0
    1.5196   -0.7161    2.5166 C   0  0  0  0  0  0  0  0  0  0  0  0
    2.5314    1.3206   -0.4532 C   0  0  1  0  0  0  0  0  0  0  0  0
   -0.4205    1.2540   -0.4002 C   0  0  1  0  0  0  0  0  0  0  0  0
   -1.3365   -0.8124    0.7278 C   0  0  1  0  0  0  0  0  0  0  0  0
    1.4101   -2.2828   -0.2331 C   0  0  0  0  0  0  0  0  0  0  0  0
   -0.8646   -0.8575   -1.7756 C   0  0  0  0  0  0  0  0  0  0  0  0
   -2.7860   -0.2945    0.5913 C   0  0  1  0  0  0  0  0  0  0  0  0
   -1.7986    1.8374   -0.2335 C   0  0  0  0  0  0  0  0  0  0  0  0
   -2.8722    1.1544    0.1956 C   0  0  0  0  0  0  0  0  0  0  0  0
   -4.2197    1.8062    0.3195 C   0  0  0  0  0  0  0  0  0  0  0  0
    2.1745    1.9137    1.6223 H   0  0  0  0  0  0  0  0  0  0  0  0
    1.6405    0.2275   -2.1474 H   0  0  0  0  0  0  0  0  0  0  0  0
    1.4288   -0.0414    3.3582 H   0  0  0  0  0  0  0  0  0  0  0  0
    1.0473   -1.6788    2.6579 H   0  0  0  0  0  0  0  0  0  0  0  0
    3.5960    1.2837   -0.1885 H   0  0  0  0  0  0  0  0  0  0  0  0
   -0.0515    1.6300   -1.3617 H   0  0  0  0  0  0  0  0  0  0  0  0
   -0.9655   -0.4425    1.6898 H   0  0  0  0  0  0  0  0  0  0  0  0
    0.8352   -2.8354    0.5111 H   0  0  0  0  0  0  0  0  0  0  0  0
    2.4580   -2.5261   -0.0207 H   0  0  0  0  0  0  0  0  0  0  0  0
    1.1931   -2.6925   -1.2235 H   0  0  0  0  0  0  0  0  0  0  0  0
   -0.1108   -0.7989   -2.5632 H   0  0  0  0  0  0  0  0  0  0  0  0
   -1.7430   -0.3115   -2.1331 H   0  0  0  0  0  0  0  0  0  0  0  0
   -3.2824   -0.4483    1.5580 H   0  0  0  0  0  0  0  0  0  0  0  0
   -1.9037    2.8901   -0.4872 H   0  0  0  0  0  0  0  0  0  0  0  0
    3.8478   -0.1445   -2.0772 H   0  0  0  0  0  0  0  0  0  0  0  0
    2.8306    2.3705   -2.0589 H   0  0  0  0  0  0  0  0  0  0  0  0
   -1.9601   -2.4655    1.5589 H   0  0  0  0  0  0  0  0  0  0  0  0
   -1.5459   -2.5374   -2.4508 H   0  0  0  0  0  0  0  0  0  0  0  0
   -4.1827    2.8754    0.0850 H   0  0  0  0  0  0  0  0  0  0  0  0
   -4.5974    1.7066    1.3422 H   0  0  0  0  0  0  0  0  0  0  0  0
   -4.9378    1.3438   -0.3647 H   0  0  0  0  0  0  0  0  0  0  0  0
   -4.4646   -0.8809   -0.2322 H   0  0  0  0  0  0  0  0  0  0  0  0
  1  9  1  0  0  0  0
  1 13  1  0  0  0  0
  2 11  1  0  0  0  0
  2 15  1  0  0  0  0
  3 12  1  0  0  0  0
  3 37  1  0  0  0  0
  4 14  1  0  0  0  0
  4 38  1  0  0  0  0
  5 16  1  0  0  0  0
  5 39  1  0  0  0  0
  6 18  1  0  0  0  0
  6 40  1  0  0  0  0
  7 19  1  0  0  0  0
  7 44  1  0  0  0  0
  8  9  1  0  0  0  0
  8 10  1  0  0  0  0
  8 12  1  0  0  0  0
  8 17  1  0  0  0  0
  9 11  1  0  0  0  0
  9 13  1  0  0  0  0
 10 15  1  0  0  0  0
 10 16  1  0  0  0  0
 10 18  1  0  0  0  0
 11 14  1  0  0  0  0
 11 23  1  0  0  0  0
 12 14  1  0  0  0  0
 12 24  1  0  0  0  0
 13 25  1  0  0  0  0
 13 26  1  0  0  0  0
 14 27  1  0  0  0  0
 15 20  1  0  0  0  0
 15 28  1  0  0  0  0
 16 19  1  0  0  0  0
 16 29  1  0  0  0  0
 17 30  1  0  0  0  0
 17 31  1  0  0  0  0
 17 32  1  0  0  0  0
 18 33  1  0  0  0  0
 18 34  1  0  0  0  0
 19 21  1  0  0  0  0
 19 35  1  0  0  0  0
 20 21  2  0  0  0  0
 20 36  1  0  0  0  0
 21 22  1  0  0  0  0
 22 41  1  0  0  0  0
 22 42  1  0  0  0  0
 22 43  1  0  0  0  0
M  END
> <PUBCHEM_COMPOUND_CID>
102362414

> <PUBCHEM_CONFORMER_RMSD>
0.6

> <PUBCHEM_CONFORMER_DIVERSEORDER>
1

> <PUBCHEM_MMFF94_PARTIAL_CHARGES>
28
1 -0.3
11 0.38
12 0.28
13 -0.05
14 0.28
15 0.42
16 0.28
18 0.28
19 0.42
2 -0.56
20 -0.29
21 -0.28
22 0.14
25 0.1
26 0.1
3 -0.68
36 0.15
37 0.4
38 0.4
39 0.4
4 -0.68
40 0.4
44 0.4
5 -0.68
6 -0.68
7 -0.68
8 0.09
9 -0.04

> <PUBCHEM_EFFECTIVE_ROTOR_COUNT>
2.4

> <PUBCHEM_PHARMACOPHORE_FEATURES>
14
1 1 acceptor
1 2 acceptor
1 3 acceptor
1 3 donor
1 4 acceptor
1 4 donor
1 5 acceptor
1 5 donor
1 6 acceptor
1 6 donor
1 7 acceptor
1 7 donor
6 10 15 16 19 20 21 rings
8 2 8 9 10 11 12 14 15 rings

> <PUBCHEM_HEAVY_ATOM_COUNT>
22

> <PUBCHEM_ATOM_DEF_STEREO_COUNT>
9

> <PUBCHEM_ATOM_UDEF_STEREO_COUNT>
0

> <PUBCHEM_BOND_DEF_STEREO_COUNT>
0

> <PUBCHEM_BOND_UDEF_STEREO_COUNT>
0

> <PUBCHEM_ISOTOPIC_ATOM_COUNT>
0

> <PUBCHEM_COMPONENT_COUNT>
1

> <PUBCHEM_CACTVS_TAUTO_COUNT>
1

> <PUBCHEM_CONFORMER_ID>
0619ED2E00000001

> <PUBCHEM_MMFF94_ENERGY>
99.189

> <PUBCHEM_FEATURE_SELFOVERLAP>
71.14

> <PUBCHEM_SHAPE_FINGERPRINT>
10064457 181 16733564752901540465
10863032 1 18270982235420721764
10948715 1 18262530319597783172
11578080 2 17059495295378772248
11680611 10 18263063531007580587
12423570 1 18199730523065447410
12654903 92 18131078133940196076
13140716 1 18410849979808096680
13172582 1 18265322924486982017
13538477 17 18113336414171847641
13583140 156 17240768355036914953
144361 1 18271821119610939672
14787075 74 17104267546422018195
14817 1 16595093577350029578
15881359 60 18049129255989435813
16945 1 18190483617528112220
1813 80 16735792213653108474
18981168 100 17059489780514111336
20511035 2 18057032502451327199
20645476 183 17968105213372786465
21501502 16 18335698360345025393
23419403 2 16400811569081098402
23493267 7 18261971685975412787
23557571 272 17631996625122959283
23558518 356 17755592885788488868
23559900 14 18339929203452151222
2748010 2 18128531570478684309
34934 24 18334861610421549444
495365 180 17273398488330661737
5845 1 17249720471061479418
81228 2 17343202315380989191
9999458 23 17970360217495818621

> <PUBCHEM_SHAPE_MULTIPOLES>
411.66
5.11
2.39
1.69
3.37
0.03
-0.39
1.37
-0.12
0.19
0.44
-1.16
-0.5
-0.52

> <PUBCHEM_SHAPE_SELFOVERLAP>
896.789

> <PUBCHEM_SHAPE_VOLUME>
217.6

> <PUBCHEM_COORDINATE_TYPE>
2
5
10

$$$$
