102316721
  -OEChem-03292013293D

 50 52  0     1  0  0  0  0  0999 V2000
   -0.6070   -0.5195    1.0235 O   0  0  0  0  0  0  0  0  0  0  0  0
   -2.1328    0.8041   -0.1444 O   0  0  0  0  0  0  0  0  0  0  0  0
    1.0676   -1.7733   -0.0099 O   0  0  0  0  0  0  0  0  0  0  0  0
    5.1786    0.1141   -1.3331 O   0  0  0  0  0  0  0  0  0  0  0  0
   -0.1289    1.4897    2.2466 O   0  0  0  0  0  0  0  0  0  0  0  0
   -2.4146   -2.6920    0.8793 O   0  0  0  0  0  0  0  0  0  0  0  0
   -5.2111   -1.7850    0.6852 O   0  0  0  0  0  0  0  0  0  0  0  0
   -5.4996    0.1596   -1.4340 O   0  0  0  0  0  0  0  0  0  0  0  0
   -2.3201    2.9132   -1.8971 O   0  0  0  0  0  0  0  0  0  0  0  0
    5.0737   -2.1440   -1.2381 O   0  0  0  0  0  0  0  0  0  0  0  0
    1.6631    0.2830    1.2082 C   0  0  2  0  0  0  0  0  0  0  0  0
    3.0434    0.3430    0.5133 C   0  0  2  0  0  0  0  0  0  0  0  0
    0.6343   -0.4453    0.3241 C   0  0  2  0  0  0  0  0  0  0  0  0
    1.1639    1.6489    1.6819 C   0  0  2  0  0  0  0  0  0  0  0  0
    3.2693    1.4900   -0.4632 C   0  0  0  0  0  0  0  0  0  0  0  0
   -1.7102   -0.5320    0.1181 C   0  0  2  0  0  0  0  0  0  0  0  0
   -2.8398   -1.3343    0.7637 C   0  0  1  0  0  0  0  0  0  0  0  0
    3.2948   -0.9017   -0.2756 C   0  0  0  0  0  0  0  0  0  0  0  0
   -4.1162   -1.2722   -0.0755 C   0  0  2  0  0  0  0  0  0  0  0  0
   -4.4484    0.1665   -0.4717 C   0  0  1  0  0  0  0  0  0  0  0  0
   -3.2222    0.8629   -1.0668 C   0  0  1  0  0  0  0  0  0  0  0  0
    4.7099    1.4344   -0.9595 C   0  0  0  0  0  0  0  0  0  0  0  0
    2.3625   -1.8461   -0.4524 C   0  0  0  0  0  0  0  0  0  0  0  0
    2.1004    2.2540    2.7088 C   0  0  0  0  0  0  0  0  0  0  0  0
    4.5857   -1.0526   -0.9696 C   0  0  0  0  0  0  0  0  0  0  0  0
   -3.4962    2.3343   -1.3617 C   0  0  0  0  0  0  0  0  0  0  0  0
    1.7760   -0.3509    2.1029 H   0  0  0  0  0  0  0  0  0  0  0  0
    3.8029    0.4040    1.3058 H   0  0  0  0  0  0  0  0  0  0  0  0
    0.5048    0.1266   -0.6070 H   0  0  0  0  0  0  0  0  0  0  0  0
    1.0446    2.3313    0.8339 H   0  0  0  0  0  0  0  0  0  0  0  0
    3.0993    2.4733   -0.0164 H   0  0  0  0  0  0  0  0  0  0  0  0
    2.5857    1.4022   -1.3178 H   0  0  0  0  0  0  0  0  0  0  0  0
   -1.4136   -1.0184   -0.8225 H   0  0  0  0  0  0  0  0  0  0  0  0
   -3.0315   -0.9752    1.7818 H   0  0  0  0  0  0  0  0  0  0  0  0
   -4.0341   -1.9125   -0.9617 H   0  0  0  0  0  0  0  0  0  0  0  0
   -4.8117    0.7158    0.4055 H   0  0  0  0  0  0  0  0  0  0  0  0
   -2.9115    0.3818   -2.0043 H   0  0  0  0  0  0  0  0  0  0  0  0
    4.8289    2.0822   -1.8341 H   0  0  0  0  0  0  0  0  0  0  0  0
    5.3932    1.8022   -0.1858 H   0  0  0  0  0  0  0  0  0  0  0  0
    2.5168   -2.7741   -0.9862 H   0  0  0  0  0  0  0  0  0  0  0  0
    2.1970    1.6008    3.5834 H   0  0  0  0  0  0  0  0  0  0  0  0
    1.6930    3.2014    3.0796 H   0  0  0  0  0  0  0  0  0  0  0  0
    3.0991    2.4536    2.3131 H   0  0  0  0  0  0  0  0  0  0  0  0
   -3.7459    2.8761   -0.4433 H   0  0  0  0  0  0  0  0  0  0  0  0
   -4.3080    2.4548   -2.0853 H   0  0  0  0  0  0  0  0  0  0  0  0
   -0.4395    2.3673    2.5275 H   0  0  0  0  0  0  0  0  0  0  0  0
   -2.2380   -3.0302   -0.0151 H   0  0  0  0  0  0  0  0  0  0  0  0
   -5.2988   -1.2464    1.4901 H   0  0  0  0  0  0  0  0  0  0  0  0
   -5.1823   -0.3137   -2.2220 H   0  0  0  0  0  0  0  0  0  0  0  0
   -2.5153    3.8494   -2.0728 H   0  0  0  0  0  0  0  0  0  0  0  0
  1 13  1  0  0  0  0
  1 16  1  0  0  0  0
  2 16  1  0  0  0  0
  2 21  1  0  0  0  0
  3 13  1  0  0  0  0
  3 23  1  0  0  0  0
  4 22  1  0  0  0  0
  4 25  1  0  0  0  0
  5 14  1  0  0  0  0
  5 46  1  0  0  0  0
  6 17  1  0  0  0  0
  6 47  1  0  0  0  0
  7 19  1  0  0  0  0
  7 48  1  0  0  0  0
  8 20  1  0  0  0  0
  8 49  1  0  0  0  0
  9 26  1  0  0  0  0
  9 50  1  0  0  0  0
 10 25  2  0  0  0  0
 11 12  1  0  0  0  0
 11 13  1  0  0  0  0
 11 14  1  0  0  0  0
 11 27  1  0  0  0  0
 12 15  1  0  0  0  0
 12 18  1  0  0  0  0
 12 28  1  0  0  0  0
 13 29  1  0  0  0  0
 14 24  1  0  0  0  0
 14 30  1  0  0  0  0
 15 22  1  0  0  0  0
 15 31  1  0  0  0  0
 15 32  1  0  0  0  0
 16 17  1  0  0  0  0
 16 33  1  0  0  0  0
 17 19  1  0  0  0  0
 17 34  1  0  0  0  0
 18 23  2  0  0  0  0
 18 25  1  0  0  0  0
 19 20  1  0  0  0  0
 19 35  1  0  0  0  0
 20 21  1  0  0  0  0
 20 36  1  0  0  0  0
 21 26  1  0  0  0  0
 21 37  1  0  0  0  0
 22 38  1  0  0  0  0
 22 39  1  0  0  0  0
 23 40  1  0  0  0  0
 24 41  1  0  0  0  0
 24 42  1  0  0  0  0
 24 43  1  0  0  0  0
 26 44  1  0  0  0  0
 26 45  1  0  0  0  0
M  END
> <PUBCHEM_COMPOUND_CID>
102316721

> <PUBCHEM_CONFORMER_RMSD>
0.8

> <PUBCHEM_CONFORMER_DIVERSEORDER>
3
75
92
95
60
24
101
100
38
6
34
62
37
77
79
78
25
31
69
76
2
85
73
104
86
53
44
58
63
14
70
18
84
61
22
90
88
74
99
43
56
93
7
46
49
83
15
97
29
50
39
68
17
21
52
66
12
96
26
72
10
19
71
91
98
54
9
57
28
8
33
87
36
41
67
59
55
105
51
47
81
20
80
102
23
40
32
1
48
103
82
5
64
94
16
89
27
35
42
11
13
45
30
65
4

> <PUBCHEM_MMFF94_PARTIAL_CHARGES>
29
1 -0.56
10 -0.57
12 0.14
13 0.56
14 0.28
16 0.56
17 0.28
18 -0.12
19 0.28
2 -0.56
20 0.28
21 0.28
22 0.28
23 -0.07
25 0.71
26 0.28
3 -0.36
4 -0.43
40 0.15
46 0.4
47 0.4
48 0.4
49 0.4
5 -0.68
50 0.4
6 -0.68
7 -0.68
8 -0.68
9 -0.68

> <PUBCHEM_EFFECTIVE_ROTOR_COUNT>
6.4

> <PUBCHEM_PHARMACOPHORE_FEATURES>
17
1 1 acceptor
1 10 acceptor
1 2 acceptor
1 3 acceptor
1 5 acceptor
1 5 donor
1 6 acceptor
1 6 donor
1 7 acceptor
1 7 donor
1 8 acceptor
1 8 donor
1 9 acceptor
1 9 donor
6 2 16 17 19 20 21 rings
6 3 11 12 13 18 23 rings
6 4 12 15 18 22 25 rings

> <PUBCHEM_HEAVY_ATOM_COUNT>
26

> <PUBCHEM_ATOM_DEF_STEREO_COUNT>
8

> <PUBCHEM_ATOM_UDEF_STEREO_COUNT>
1

> <PUBCHEM_BOND_DEF_STEREO_COUNT>
0

> <PUBCHEM_BOND_UDEF_STEREO_COUNT>
0

> <PUBCHEM_ISOTOPIC_ATOM_COUNT>
0

> <PUBCHEM_COMPONENT_COUNT>
1

> <PUBCHEM_CACTVS_TAUTO_COUNT>
1

> <PUBCHEM_CONFORMER_ID>
06193AB100000003

> <PUBCHEM_MMFF94_ENERGY>
79.4546

> <PUBCHEM_FEATURE_SELFOVERLAP>
86.455

> <PUBCHEM_SHAPE_FINGERPRINT>
10366900 7 18412536626830074959
10369192 42 17552907843020330000
10498660 4 17822282483865705685
10670039 82 17822289041853395172
10764073 3 16895334636318807928
11595378 159 16588011403796128429
12236239 1 15410897392203978371
12553582 1 17132119030878838662
12670546 177 18409170995540309660
13134695 92 17561359591476225848
13782708 43 18342176717369295803
13911987 19 17988094373758122398
14251757 17 18335704897311539332
14739800 52 17387114555095138304
15183329 4 17968661515154813534
15575132 122 17241038787705332605
15961568 22 17750238174225415788
17349148 13 15841555188470439599
17357779 13 17703504398759005032
18222031 100 16559034887258218202
19784866 140 17846787290765538056
200 152 17918280835175250570
204376 136 12901552355505010232
20645477 70 17417802989329226272
20693207 138 18343294898976534889
21033650 10 17822864074088032776
221357 26 18272646831727395565
22182313 1 18200014244368498784
22393880 68 18261395499339331022
23175994 123 17917713470063689443
23402539 116 17131559332252765426
23536364 44 18128824027739557364
23557571 272 18041281088024377443
23559900 14 18408317809109002263
2838139 119 17387422444357713596
4280585 95 17547012923403139430
46194498 28 18335989773865581300
469060 322 11819864928239579105
474 4 15357701924287568636
5281201 14 18409736157686712092
6049 1 18342166795883429433
6287921 2 18051688038717625205
633830 44 15502384447695090038
6669772 16 17630594838266327168
7471813 234 16558749022503107082
7495541 125 18131067164430269542
7808743 9 17896032153321643549
7970288 3 17060621075016358390

> <PUBCHEM_SHAPE_MULTIPOLES>
476.37
11.36
2.7
1.86
2.29
0.39
-0.58
-2.42
5.64
0.12
-0.08
-0.29
1.45
2.73

> <PUBCHEM_SHAPE_SELFOVERLAP>
999.797

> <PUBCHEM_SHAPE_VOLUME>
263.7

> <PUBCHEM_COORDINATE_TYPE>
2
5
10

$$$$
