102369225
  -OEChem-03292013293D

 73 75  0     1  0  0  0  0  0999 V2000
   -5.9445   -0.3134   -0.6953 O   0  0  0  0  0  0  0  0  0  0  0  0
   -3.0544    1.4092    0.8541 O   0  0  0  0  0  0  0  0  0  0  0  0
   -3.7141   -1.2096   -2.3377 O   0  0  0  0  0  0  0  0  0  0  0  0
   -4.9502    2.3785   -0.2028 O   0  0  0  0  0  0  0  0  0  0  0  0
   -1.0184    0.1610    2.1075 O   0  0  0  0  0  0  0  0  0  0  0  0
   -0.1444   -2.2808    1.6350 O   0  0  0  0  0  0  0  0  0  0  0  0
    3.6413    1.3375   -1.8277 O   0  0  0  0  0  0  0  0  0  0  0  0
    4.1978   -2.4603   -0.3640 O   0  0  0  0  0  0  0  0  0  0  0  0
    3.0679   -4.5127    0.6149 O   0  0  0  0  0  0  0  0  0  0  0  0
   -4.5770    0.0103   -0.3901 C   0  0  1  0  0  0  0  0  0  0  0  0
   -5.2861   -1.2031    0.2130 C   0  0  2  0  0  0  0  0  0  0  0  0
   -3.6591   -0.0043   -1.5872 C   0  0  1  0  0  0  0  0  0  0  0  0
   -4.4272    1.2387    0.4772 C   0  0  1  0  0  0  0  0  0  0  0  0
   -2.2251    0.2488   -1.1170 C   0  0  0  0  0  0  0  0  0  0  0  0
   -2.1604    1.5162   -0.2612 C   0  0  2  0  0  0  0  0  0  0  0  0
   -5.1804   -2.6047   -0.2665 C   0  0  0  0  0  0  0  0  0  0  0  0
   -0.7578    1.7301    0.2916 C   0  0  1  0  0  0  0  0  0  0  0  0
   -3.9603   -3.3216    0.2590 C   0  0  0  0  0  0  0  0  0  0  0  0
   -0.7051    3.0127    1.1455 C   0  0  0  0  0  0  0  0  0  0  0  0
   -0.3648    0.5084    1.1251 C   0  0  0  0  0  0  0  0  0  0  0  0
    0.7210    3.5441    1.3203 C   0  0  0  0  0  0  0  0  0  0  0  0
    0.8306   -0.2915    0.7400 C   0  0  0  0  0  0  0  0  0  0  0  0
    0.7445    4.7972    2.1820 C   0  0  0  0  0  0  0  0  0  0  0  0
    1.8939    0.3459    0.1006 C   0  0  0  0  0  0  0  0  0  0  0  0
    0.8969   -1.6586    1.0090 C   0  0  0  0  0  0  0  0  0  0  0  0
    3.0234   -0.3839   -0.2701 C   0  0  0  0  0  0  0  0  0  0  0  0
    2.0265   -2.3883    0.6386 C   0  0  0  0  0  0  0  0  0  0  0  0
    4.1512    0.3164   -0.9540 C   0  0  2  0  0  0  0  0  0  0  0  0
    3.0899   -1.7511   -0.0011 C   0  0  0  0  0  0  0  0  0  0  0  0
    5.2336    0.9626   -0.0381 C   0  0  0  0  0  0  0  0  0  0  0  0
    2.0972   -3.8186    0.9190 C   0  0  0  0  0  0  0  0  0  0  0  0
    6.0003   -0.0538    0.8137 C   0  0  0  0  0  0  0  0  0  0  0  0
    4.6565    2.0678    0.8480 C   0  0  0  0  0  0  0  0  0  0  0  0
    3.1915    0.7802   -3.0484 C   0  0  0  0  0  0  0  0  0  0  0  0
    2.6652    1.8903   -3.9330 C   0  0  0  0  0  0  0  0  0  0  0  0
   -5.5711   -1.1574    1.2578 H   0  0  0  0  0  0  0  0  0  0  0  0
   -3.9637    0.8017   -2.2663 H   0  0  0  0  0  0  0  0  0  0  0  0
   -4.9981    1.1210    1.4049 H   0  0  0  0  0  0  0  0  0  0  0  0
   -1.9093   -0.6353   -0.5507 H   0  0  0  0  0  0  0  0  0  0  0  0
   -1.5512    0.3224   -1.9789 H   0  0  0  0  0  0  0  0  0  0  0  0
   -2.4483    2.3867   -0.8650 H   0  0  0  0  0  0  0  0  0  0  0  0
   -6.0688   -3.1431    0.0878 H   0  0  0  0  0  0  0  0  0  0  0  0
   -5.2246   -2.6810   -1.3564 H   0  0  0  0  0  0  0  0  0  0  0  0
   -0.1022    1.8495   -0.5760 H   0  0  0  0  0  0  0  0  0  0  0  0
   -3.0871   -1.1263   -3.0762 H   0  0  0  0  0  0  0  0  0  0  0  0
   -3.9494   -4.3619   -0.0806 H   0  0  0  0  0  0  0  0  0  0  0  0
   -3.9449   -3.3205    1.3541 H   0  0  0  0  0  0  0  0  0  0  0  0
   -3.0386   -2.8420   -0.0844 H   0  0  0  0  0  0  0  0  0  0  0  0
   -5.2589    3.0013    0.4769 H   0  0  0  0  0  0  0  0  0  0  0  0
   -1.3036    3.7979    0.6658 H   0  0  0  0  0  0  0  0  0  0  0  0
   -1.1480    2.8366    2.1339 H   0  0  0  0  0  0  0  0  0  0  0  0
    1.1604    3.7701    0.3421 H   0  0  0  0  0  0  0  0  0  0  0  0
    1.3485    2.7857    1.8003 H   0  0  0  0  0  0  0  0  0  0  0  0
    0.3427    4.5951    3.1800 H   0  0  0  0  0  0  0  0  0  0  0  0
    1.7712    5.1589    2.2961 H   0  0  0  0  0  0  0  0  0  0  0  0
    0.1510    5.5968    1.7275 H   0  0  0  0  0  0  0  0  0  0  0  0
    1.8747    1.4118   -0.0913 H   0  0  0  0  0  0  0  0  0  0  0  0
    4.6943   -0.4022   -1.5840 H   0  0  0  0  0  0  0  0  0  0  0  0
    5.9609    1.4493   -0.7030 H   0  0  0  0  0  0  0  0  0  0  0  0
   -0.9100   -1.6891    1.7030 H   0  0  0  0  0  0  0  0  0  0  0  0
    1.2346   -4.2812    1.4258 H   0  0  0  0  0  0  0  0  0  0  0  0
    4.1139    2.8149    0.2601 H   0  0  0  0  0  0  0  0  0  0  0  0
    5.4627    2.5917    1.3738 H   0  0  0  0  0  0  0  0  0  0  0  0
    3.9798    1.6682    1.6099 H   0  0  0  0  0  0  0  0  0  0  0  0
    6.4400   -0.8349    0.1854 H   0  0  0  0  0  0  0  0  0  0  0  0
    5.3542   -0.5288    1.5586 H   0  0  0  0  0  0  0  0  0  0  0  0
    6.8186    0.4373    1.3514 H   0  0  0  0  0  0  0  0  0  0  0  0
    4.2327   -3.3134    0.0935 H   0  0  0  0  0  0  0  0  0  0  0  0
    4.0215    0.2816   -3.5623 H   0  0  0  0  0  0  0  0  0  0  0  0
    2.3932    0.0500   -2.8775 H   0  0  0  0  0  0  0  0  0  0  0  0
    1.8368    2.4124   -3.4426 H   0  0  0  0  0  0  0  0  0  0  0  0
    3.4444    2.6361   -4.1218 H   0  0  0  0  0  0  0  0  0  0  0  0
    2.3152    1.4952   -4.8908 H   0  0  0  0  0  0  0  0  0  0  0  0
  1 10  1  0  0  0  0
  1 11  1  0  0  0  0
  2 13  1  0  0  0  0
  2 15  1  0  0  0  0
  3 12  1  0  0  0  0
  3 45  1  0  0  0  0
  4 13  1  0  0  0  0
  4 49  1  0  0  0  0
  5 20  2  0  0  0  0
  6 25  1  0  0  0  0
  6 60  1  0  0  0  0
  7 28  1  0  0  0  0
  7 34  1  0  0  0  0
  8 29  1  0  0  0  0
  8 68  1  0  0  0  0
  9 31  2  0  0  0  0
 10 11  1  0  0  0  0
 10 12  1  0  0  0  0
 10 13  1  0  0  0  0
 11 16  1  0  0  0  0
 11 36  1  0  0  0  0
 12 14  1  0  0  0  0
 12 37  1  0  0  0  0
 13 38  1  0  0  0  0
 14 15  1  0  0  0  0
 14 39  1  0  0  0  0
 14 40  1  0  0  0  0
 15 17  1  0  0  0  0
 15 41  1  0  0  0  0
 16 18  1  0  0  0  0
 16 42  1  0  0  0  0
 16 43  1  0  0  0  0
 17 19  1  0  0  0  0
 17 20  1  0  0  0  0
 17 44  1  0  0  0  0
 18 46  1  0  0  0  0
 18 47  1  0  0  0  0
 18 48  1  0  0  0  0
 19 21  1  0  0  0  0
 19 50  1  0  0  0  0
 19 51  1  0  0  0  0
 20 22  1  0  0  0  0
 21 23  1  0  0  0  0
 21 52  1  0  0  0  0
 21 53  1  0  0  0  0
 22 24  1  0  0  0  0
 22 25  2  0  0  0  0
 23 54  1  0  0  0  0
 23 55  1  0  0  0  0
 23 56  1  0  0  0  0
 24 26  2  0  0  0  0
 24 57  1  0  0  0  0
 25 27  1  0  0  0  0
 26 28  1  0  0  0  0
 26 29  1  0  0  0  0
 27 29  2  0  0  0  0
 27 31  1  0  0  0  0
 28 30  1  0  0  0  0
 28 58  1  0  0  0  0
 30 32  1  0  0  0  0
 30 33  1  0  0  0  0
 30 59  1  0  0  0  0
 31 61  1  0  0  0  0
 32 65  1  0  0  0  0
 32 66  1  0  0  0  0
 32 67  1  0  0  0  0
 33 62  1  0  0  0  0
 33 63  1  0  0  0  0
 33 64  1  0  0  0  0
 34 35  1  0  0  0  0
 34 69  1  0  0  0  0
 34 70  1  0  0  0  0
 35 71  1  0  0  0  0
 35 72  1  0  0  0  0
 35 73  1  0  0  0  0
M  END
> <PUBCHEM_COMPOUND_CID>
102369225

> <PUBCHEM_CONFORMER_RMSD>
1.2

> <PUBCHEM_CONFORMER_DIVERSEORDER>
1
131
137
111
123
77
67
42
63
39
21
96
133
35
108
126
103
48
83
9
72
100
107
124
80
55
120
44
98
43
91
59
51
30
41
135
117
84
37
89
118
70
25
136
66
65
34
114
47
116
94
129
14
110
45
102
115
134
101
23
71
18
12
79
11
20
125
97
57
106
90
15
5
38
88
52
78
28
64
82
113
99
87
58
6
122
13
69
32
53
24
60
27
130
86
74
128
54
112
4
109
76
95
61
22
26
31
121
56
85
105
17
68
7
127
49
81
73
93
92
29
19
40
46
33
10
119
2
104
3
132
50
8
62
75
36
16

> <PUBCHEM_MMFF94_PARTIAL_CHARGES>
33
1 -0.3
10 -0.04
11 -0.05
12 0.38
13 0.65
15 0.28
16 0.09
17 0.06
2 -0.56
20 0.42
22 0.09
24 -0.15
25 0.08
26 -0.14
27 0.09
28 0.42
29 0.08
3 -0.68
31 0.42
34 0.28
36 0.1
4 -0.68
45 0.4
49 0.4
5 -0.57
57 0.15
6 -0.53
60 0.45
61 0.06
68 0.45
7 -0.56
8 -0.53
9 -0.57

> <PUBCHEM_EFFECTIVE_ROTOR_COUNT>
12.4

> <PUBCHEM_PHARMACOPHORE_FEATURES>
16
1 1 acceptor
1 18 hydrophobe
1 2 acceptor
1 23 hydrophobe
1 3 acceptor
1 3 donor
1 4 acceptor
1 4 donor
1 5 acceptor
1 6 donor
1 7 acceptor
1 8 donor
1 9 acceptor
3 30 32 33 hydrophobe
6 2 10 12 13 14 15 rings
6 22 24 25 26 27 29 rings

> <PUBCHEM_HEAVY_ATOM_COUNT>
35

> <PUBCHEM_ATOM_DEF_STEREO_COUNT>
5

> <PUBCHEM_ATOM_UDEF_STEREO_COUNT>
2

> <PUBCHEM_BOND_DEF_STEREO_COUNT>
0

> <PUBCHEM_BOND_UDEF_STEREO_COUNT>
0

> <PUBCHEM_ISOTOPIC_ATOM_COUNT>
0

> <PUBCHEM_COMPONENT_COUNT>
1

> <PUBCHEM_CACTVS_TAUTO_COUNT>
30

> <PUBCHEM_CONFORMER_ID>
061A07C900000001

> <PUBCHEM_MMFF94_ENERGY>
84.7925

> <PUBCHEM_FEATURE_SELFOVERLAP>
81.247

> <PUBCHEM_SHAPE_FINGERPRINT>
10074138 170 16327055822326241513
11136257 43 18189032288619483648
12156800 1 16602373551011426396
12166972 35 18040714779839573748
12633046 712 18339349791722482597
12788726 201 17911520900507109049
13726171 33 17703802404901535425
13911987 19 18190197830768571100
14068700 675 18265609876032597234
14932702 115 17901127508883553391
15537594 2 18273210915810925359
15664445 248 17918001598119445172
17349148 13 18040436564621565376
17909252 39 18271813376328925482
1813 80 17632306687170279701
19319366 153 18335977640240676191
22149856 69 18190484739194968593
23559900 14 18194672675073099554
24893989 43 17341526707269461759
25222932 49 18131059485023385710
3493558 16 15652135929437629878
463206 1 18411420579187994779
484989 97 18191594262075071258
6328613 192 9943518665821688706
6669772 16 17982159329966115568

> <PUBCHEM_SHAPE_MULTIPOLES>
667.46
12.22
4.82
2.32
6.41
0.51
-2.52
2.92
-3.13
-1.35
3.1
-1.93
-1.59
-1.14

> <PUBCHEM_SHAPE_SELFOVERLAP>
1388.58

> <PUBCHEM_SHAPE_VOLUME>
377.2

> <PUBCHEM_COORDINATE_TYPE>
2
5
10

$$$$
