102313697
  -OEChem-03292013293D

 50 52  0     1  0  0  0  0  0999 V2000
   -4.7073   -0.4869    0.6498 O   0  0  0  0  0  0  0  0  0  0  0  0
   -2.8800   -2.5889   -0.4419 O   0  0  0  0  0  0  0  0  0  0  0  0
    0.9540    1.8735   -0.9418 O   0  0  0  0  0  0  0  0  0  0  0  0
    2.6248   -1.3587    1.4287 O   0  0  0  0  0  0  0  0  0  0  0  0
    3.6686    2.3782   -1.2450 O   0  0  0  0  0  0  0  0  0  0  0  0
    4.9282    0.7756   -0.0630 N   0  0  0  0  0  0  0  0  0  0  0  0
    0.2778   -0.0500    0.4345 C   0  0  2  0  0  0  0  0  0  0  0  0
   -1.1341    0.4930    0.0126 C   0  0  1  0  0  0  0  0  0  0  0  0
    0.4541   -1.5285   -0.0555 C   0  0  1  0  0  0  0  0  0  0  0  0
   -2.3011   -0.4134    0.4668 C   0  0  1  0  0  0  0  0  0  0  0  0
   -0.6780   -2.4267    0.4559 C   0  0  0  0  0  0  0  0  0  0  0  0
   -1.4091    1.9402    0.4836 C   0  0  0  0  0  0  0  0  0  0  0  0
   -3.6451    0.0771   -0.1249 C   0  0  2  0  0  0  0  0  0  0  0  0
   -2.0280   -1.8659    0.0744 C   0  0  0  0  0  0  0  0  0  0  0  0
    0.4764    0.0050    1.9693 C   0  0  0  0  0  0  0  0  0  0  0  0
    1.3712    0.8111   -0.1640 C   0  0  0  0  0  0  0  0  0  0  0  0
    0.5748   -1.6816   -1.5841 C   0  0  0  0  0  0  0  0  0  0  0  0
   -3.8123    1.5796   -0.1331 C   0  0  0  0  0  0  0  0  0  0  0  0
   -2.7964    2.4073    0.1616 C   0  0  0  0  0  0  0  0  0  0  0  0
    2.6766    0.5882    0.0246 C   0  0  0  0  0  0  0  0  0  0  0  0
    0.7593   -3.1318   -1.9678 C   0  0  0  0  0  0  0  0  0  0  0  0
   -5.1638    2.1147   -0.5157 C   0  0  0  0  0  0  0  0  0  0  0  0
    3.2577   -0.5074    0.8279 C   0  0  0  0  0  0  0  0  0  0  0  0
    3.7740    1.3957   -0.5346 C   0  0  0  0  0  0  0  0  0  0  0  0
    4.7576   -0.3994    0.7818 C   0  0  0  0  0  0  0  0  0  0  0  0
   -1.1669    0.5090   -1.0881 H   0  0  0  0  0  0  0  0  0  0  0  0
    1.3118   -2.0698    0.2960 H   0  0  0  0  0  0  0  0  0  0  0  0
   -2.3810   -0.4161    1.5624 H   0  0  0  0  0  0  0  0  0  0  0  0
   -0.6613   -2.4862    1.5506 H   0  0  0  0  0  0  0  0  0  0  0  0
   -0.6067   -3.4636    0.1183 H   0  0  0  0  0  0  0  0  0  0  0  0
   -0.7469    2.6820    0.0398 H   0  0  0  0  0  0  0  0  0  0  0  0
   -1.2814    2.0376    1.5671 H   0  0  0  0  0  0  0  0  0  0  0  0
   -3.7650   -0.2792   -1.1560 H   0  0  0  0  0  0  0  0  0  0  0  0
   -0.4536    0.2834    2.4773 H   0  0  0  0  0  0  0  0  0  0  0  0
    1.2066    0.7500    2.3072 H   0  0  0  0  0  0  0  0  0  0  0  0
    0.7169   -0.9569    2.4304 H   0  0  0  0  0  0  0  0  0  0  0  0
   -0.3014   -1.2837   -2.1061 H   0  0  0  0  0  0  0  0  0  0  0  0
    1.4442   -1.1285   -1.9549 H   0  0  0  0  0  0  0  0  0  0  0  0
   -2.9590    3.4822    0.1643 H   0  0  0  0  0  0  0  0  0  0  0  0
    1.5158   -3.6333   -1.3558 H   0  0  0  0  0  0  0  0  0  0  0  0
    1.0956   -3.1914   -3.0095 H   0  0  0  0  0  0  0  0  0  0  0  0
   -0.1753   -3.6981   -1.9210 H   0  0  0  0  0  0  0  0  0  0  0  0
   -4.6501   -1.4540    0.5681 H   0  0  0  0  0  0  0  0  0  0  0  0
   -5.9170    1.8271    0.2245 H   0  0  0  0  0  0  0  0  0  0  0  0
   -5.1701    3.2077   -0.5862 H   0  0  0  0  0  0  0  0  0  0  0  0
   -5.4645    1.7199   -1.4917 H   0  0  0  0  0  0  0  0  0  0  0  0
    1.7229    2.3601   -1.2786 H   0  0  0  0  0  0  0  0  0  0  0  0
    5.1793   -0.1961    1.7671 H   0  0  0  0  0  0  0  0  0  0  0  0
    5.2105   -1.2619    0.2909 H   0  0  0  0  0  0  0  0  0  0  0  0
    5.8509    1.1279   -0.2976 H   0  0  0  0  0  0  0  0  0  0  0  0
  1 13  1  0  0  0  0
  1 43  1  0  0  0  0
  2 14  2  0  0  0  0
  3 16  1  0  0  0  0
  3 47  1  0  0  0  0
  4 23  2  0  0  0  0
  5 24  2  0  0  0  0
  6 24  1  0  0  0  0
  6 25  1  0  0  0  0
  6 50  1  0  0  0  0
  7  8  1  0  0  0  0
  7  9  1  0  0  0  0
  7 15  1  0  0  0  0
  7 16  1  0  0  0  0
  8 10  1  0  0  0  0
  8 12  1  0  0  0  0
  8 26  1  0  0  0  0
  9 11  1  0  0  0  0
  9 17  1  0  0  0  0
  9 27  1  0  0  0  0
 10 13  1  0  0  0  0
 10 14  1  0  0  0  0
 10 28  1  0  0  0  0
 11 14  1  0  0  0  0
 11 29  1  0  0  0  0
 11 30  1  0  0  0  0
 12 19  1  0  0  0  0
 12 31  1  0  0  0  0
 12 32  1  0  0  0  0
 13 18  1  0  0  0  0
 13 33  1  0  0  0  0
 15 34  1  0  0  0  0
 15 35  1  0  0  0  0
 15 36  1  0  0  0  0
 16 20  2  3  0  0  0
 17 21  1  0  0  0  0
 17 37  1  0  0  0  0
 17 38  1  0  0  0  0
 18 19  2  0  0  0  0
 18 22  1  0  0  0  0
 19 39  1  0  0  0  0
 20 23  1  0  0  0  0
 20 24  1  0  0  0  0
 21 40  1  0  0  0  0
 21 41  1  0  0  0  0
 21 42  1  0  0  0  0
 22 44  1  0  0  0  0
 22 45  1  0  0  0  0
 22 46  1  0  0  0  0
 23 25  1  0  0  0  0
 25 48  1  0  0  0  0
 25 49  1  0  0  0  0
M  END
> <PUBCHEM_COMPOUND_CID>
102313697

> <PUBCHEM_CONFORMER_RMSD>
0.6

> <PUBCHEM_CONFORMER_DIVERSEORDER>
1
2

> <PUBCHEM_MMFF94_PARTIAL_CHARGES>
24
1 -0.68
10 0.06
11 0.06
12 0.14
13 0.42
14 0.45
16 -0.06
18 -0.28
19 -0.29
2 -0.57
20 0.03
22 0.14
23 0.49
24 0.62
25 0.36
3 -0.53
39 0.15
4 -0.57
43 0.4
47 0.45
5 -0.57
50 0.37
6 -0.73
7 0.14

> <PUBCHEM_EFFECTIVE_ROTOR_COUNT>
3.4

> <PUBCHEM_PHARMACOPHORE_FEATURES>
12
1 1 acceptor
1 1 donor
1 2 acceptor
1 20 anion
1 21 hydrophobe
1 3 donor
1 4 acceptor
1 5 acceptor
1 6 donor
5 6 20 23 24 25 rings
6 7 8 9 10 11 14 rings
6 8 10 12 13 18 19 rings

> <PUBCHEM_HEAVY_ATOM_COUNT>
25

> <PUBCHEM_ATOM_DEF_STEREO_COUNT>
5

> <PUBCHEM_ATOM_UDEF_STEREO_COUNT>
0

> <PUBCHEM_BOND_DEF_STEREO_COUNT>
0

> <PUBCHEM_BOND_UDEF_STEREO_COUNT>
1

> <PUBCHEM_ISOTOPIC_ATOM_COUNT>
0

> <PUBCHEM_COMPONENT_COUNT>
1

> <PUBCHEM_CACTVS_TAUTO_COUNT>
21

> <PUBCHEM_CONFORMER_ID>
06192EE100000001

> <PUBCHEM_MMFF94_ENERGY>
88.2135

> <PUBCHEM_FEATURE_SELFOVERLAP>
60.912

> <PUBCHEM_SHAPE_FINGERPRINT>
10062212 137 18334289894223092529
10366900 7 17703779289661796169
10411042 1 17833831947436304547
10616163 171 18411702109899092239
10759866 29 18261115192387671536
10863032 1 18187082879545025530
10906281 52 18340219505056530161
10948715 1 18334296469802282819
11370993 70 18342737381929805300
11963148 33 18270109236522862031
12107183 9 17900531290208409760
12173636 292 18339917216266960780
12236239 1 18113615686141786336
12422481 6 18050824664697700218
12467345 10 18187363242167378552
12592029 89 18409173186016140618
12788726 201 18119808268541681706
13140716 1 18197501933777165473
13383661 66 15696015154169686159
133893 2 17699596674267780682
13583140 156 17458351801562229433
14251751 93 18413387656908231431
14790565 3 18411144597939316001
15196674 1 18334294253815578817
1601671 61 18412261718716039024
16752209 62 18200583825893791014
16945 1 18272941492058480579
17349148 13 18270956851910762173
17492 89 18334015012090630274
18681886 176 18342451548157700088
20691752 17 17756159894733437465
20715895 44 17901095331601365501
21033648 144 18334563668303135380
21033648 29 17702645757640059248
21267235 1 18261119577343656650
22149856 69 18129958776286650833
22182313 1 18267042574006157227
22907989 373 18268984474401226045
23227448 37 18410011048420522701
23402539 116 18412254035008997013
23419403 2 15461785731941715506
23558518 356 17339007334849864969
23559900 14 18200317598230335854
2748010 2 18051422777410826799
335352 9 18334854966475946534
34934 24 18260823817706801880
350125 39 18336829792570594017
352729 6 18341058466366021577
4340502 62 18341333271933800197
474 4 18261674762033214417
5104073 3 18187082857944024448
58051976 378 18267581317307808957
59755656 215 18199189499268283990
633830 44 17458063789608123864
90525 40 18341052999141659638
9709674 26 18341619178694417639
9862522 239 18341039766104613383
9999458 23 17386289788039500106

> <PUBCHEM_SHAPE_MULTIPOLES>
480.16
8.69
3.07
1.31
0.47
1.21
-0.06
-4.83
0.06
1.04
-1.28
-0.78
0.49
-0.23

> <PUBCHEM_SHAPE_SELFOVERLAP>
1030.215

> <PUBCHEM_SHAPE_VOLUME>
261.2

> <PUBCHEM_COORDINATE_TYPE>
2
5
10

$$$$
