102376082
  -OEChem-03292013293D

 68 70  0     1  0  0  0  0  0999 V2000
   -1.1046   -0.8700   -0.4590 O   0  0  0  0  0  0  0  0  0  0  0  0
    1.9974    0.8704    1.9840 O   0  0  0  0  0  0  0  0  0  0  0  0
   -0.3405   -4.4461   -0.9967 O   0  0  0  0  0  0  0  0  0  0  0  0
   -2.8541    0.7191    0.8781 O   0  0  0  0  0  0  0  0  0  0  0  0
    2.9732    1.3144   -0.5415 O   0  0  0  0  0  0  0  0  0  0  0  0
    4.0113    0.2778    2.9320 O   0  0  0  0  0  0  0  0  0  0  0  0
   -3.8068    2.8235    0.8557 O   0  0  0  0  0  0  0  0  0  0  0  0
    2.8160    0.2593   -2.5905 O   0  0  0  0  0  0  0  0  0  0  0  0
   -0.3384   -2.0087   -0.8737 C   0  0  2  0  0  0  0  0  0  0  0  0
   -0.9666   -3.3301   -0.3532 C   0  0  1  0  0  0  0  0  0  0  0  0
   -2.4697   -0.8611   -0.9215 C   0  0  2  0  0  0  0  0  0  0  0  0
    1.1660   -1.8329   -0.5096 C   0  0  0  0  0  0  0  0  0  0  0  0
    1.4906   -1.1037    0.8067 C   0  0  2  0  0  0  0  0  0  0  0  0
   -3.1603    0.4782   -0.4975 C   0  0  2  0  0  0  0  0  0  0  0  0
   -2.4420   -3.3749   -0.7682 C   0  0  0  0  0  0  0  0  0  0  0  0
   -3.1842   -2.1067   -0.3738 C   0  0  0  0  0  0  0  0  0  0  0  0
    1.2119    0.4011    0.8631 C   0  0  2  0  0  0  0  0  0  0  0  0
    1.5544    1.2458   -0.3896 C   0  0  1  0  0  0  0  0  0  0  0  0
   -2.7420    1.7054   -1.3594 C   0  0  0  0  0  0  0  0  0  0  0  0
    0.9512    2.6755   -0.3350 C   0  0  2  0  0  0  0  0  0  0  0  0
   -1.2539    2.0172   -1.5278 C   0  0  0  0  0  0  0  0  0  0  0  0
   -0.5979    2.6656   -0.3018 C   0  0  0  0  0  0  0  0  0  0  0  0
   -0.8441   -3.5283    1.1620 C   0  0  0  0  0  0  0  0  0  0  0  0
    2.9048   -1.1115    1.2876 C   0  0  0  0  0  0  0  0  0  0  0  0
   -4.6977    0.3875   -0.5912 C   0  0  0  0  0  0  0  0  0  0  0  0
    3.0860    0.0641    2.1702 C   0  0  0  0  0  0  0  0  0  0  0  0
    1.4537    3.5513   -1.4915 C   0  0  0  0  0  0  0  0  0  0  0  0
    3.9161   -1.9404    1.0196 C   0  0  0  0  0  0  0  0  0  0  0  0
   -3.4708    1.8002    1.4362 C   0  0  0  0  0  0  0  0  0  0  0  0
    3.4677    0.7801   -1.6954 C   0  0  0  0  0  0  0  0  0  0  0  0
   -3.6863    1.5558    2.8990 C   0  0  0  0  0  0  0  0  0  0  0  0
    4.9595    0.9220   -1.7168 C   0  0  0  0  0  0  0  0  0  0  0  0
   -0.3664   -2.0436   -1.9729 H   0  0  0  0  0  0  0  0  0  0  0  0
   -2.4640   -0.9141   -2.0186 H   0  0  0  0  0  0  0  0  0  0  0  0
    1.6512   -1.3281   -1.3428 H   0  0  0  0  0  0  0  0  0  0  0  0
    1.6284   -2.8277   -0.5005 H   0  0  0  0  0  0  0  0  0  0  0  0
    0.9141   -1.5709    1.6142 H   0  0  0  0  0  0  0  0  0  0  0  0
   -2.9418   -4.2523   -0.3384 H   0  0  0  0  0  0  0  0  0  0  0  0
   -2.5119   -3.5101   -1.8565 H   0  0  0  0  0  0  0  0  0  0  0  0
   -4.2054   -2.1767   -0.7625 H   0  0  0  0  0  0  0  0  0  0  0  0
   -3.2527   -2.0508    0.7188 H   0  0  0  0  0  0  0  0  0  0  0  0
    0.1655    0.5292    1.1456 H   0  0  0  0  0  0  0  0  0  0  0  0
    1.1065    0.7526   -1.2507 H   0  0  0  0  0  0  0  0  0  0  0  0
   -3.2674    2.6370   -1.1490 H   0  0  0  0  0  0  0  0  0  0  0  0
   -3.0892    1.4669   -2.3780 H   0  0  0  0  0  0  0  0  0  0  0  0
    1.3000    3.1576    0.5883 H   0  0  0  0  0  0  0  0  0  0  0  0
   -1.1572    2.7193   -2.3668 H   0  0  0  0  0  0  0  0  0  0  0  0
   -0.7437    1.1137   -1.8586 H   0  0  0  0  0  0  0  0  0  0  0  0
   -0.9589    3.6996   -0.2218 H   0  0  0  0  0  0  0  0  0  0  0  0
   -0.9200    2.1814    0.6187 H   0  0  0  0  0  0  0  0  0  0  0  0
   -1.2097   -2.6654    1.7260 H   0  0  0  0  0  0  0  0  0  0  0  0
   -1.4090   -4.4103    1.4867 H   0  0  0  0  0  0  0  0  0  0  0  0
    0.1941   -3.7270    1.4484 H   0  0  0  0  0  0  0  0  0  0  0  0
   -5.1160   -0.2425    0.2023 H   0  0  0  0  0  0  0  0  0  0  0  0
   -5.0014   -0.0248   -1.5604 H   0  0  0  0  0  0  0  0  0  0  0  0
   -5.1974    1.3581   -0.5035 H   0  0  0  0  0  0  0  0  0  0  0  0
   -0.7610   -5.2592   -0.6683 H   0  0  0  0  0  0  0  0  0  0  0  0
    1.2560    3.0873   -2.4631 H   0  0  0  0  0  0  0  0  0  0  0  0
    2.5327    3.7209   -1.4141 H   0  0  0  0  0  0  0  0  0  0  0  0
    0.9692    4.5334   -1.4763 H   0  0  0  0  0  0  0  0  0  0  0  0
    3.7874   -2.7940    0.3639 H   0  0  0  0  0  0  0  0  0  0  0  0
    4.9024   -1.7917    1.4464 H   0  0  0  0  0  0  0  0  0  0  0  0
   -4.1821    2.4239    3.3426 H   0  0  0  0  0  0  0  0  0  0  0  0
   -2.7235    1.4124    3.3958 H   0  0  0  0  0  0  0  0  0  0  0  0
   -4.3260    0.6805    3.0377 H   0  0  0  0  0  0  0  0  0  0  0  0
    5.2299    1.9808   -1.7139 H   0  0  0  0  0  0  0  0  0  0  0  0
    5.3543    0.4621   -2.6273 H   0  0  0  0  0  0  0  0  0  0  0  0
    5.3941    0.4113   -0.8540 H   0  0  0  0  0  0  0  0  0  0  0  0
  1  9  1  0  0  0  0
  1 11  1  0  0  0  0
  2 17  1  0  0  0  0
  2 26  1  0  0  0  0
  3 10  1  0  0  0  0
  3 57  1  0  0  0  0
  4 14  1  0  0  0  0
  4 29  1  0  0  0  0
  5 18  1  0  0  0  0
  5 30  1  0  0  0  0
  6 26  2  0  0  0  0
  7 29  2  0  0  0  0
  8 30  2  0  0  0  0
  9 10  1  0  0  0  0
  9 12  1  0  0  0  0
  9 33  1  0  0  0  0
 10 15  1  0  0  0  0
 10 23  1  0  0  0  0
 11 14  1  0  0  0  0
 11 16  1  0  0  0  0
 11 34  1  0  0  0  0
 12 13  1  0  0  0  0
 12 35  1  0  0  0  0
 12 36  1  0  0  0  0
 13 17  1  0  0  0  0
 13 24  1  0  0  0  0
 13 37  1  0  0  0  0
 14 19  1  0  0  0  0
 14 25  1  0  0  0  0
 15 16  1  0  0  0  0
 15 38  1  0  0  0  0
 15 39  1  0  0  0  0
 16 40  1  0  0  0  0
 16 41  1  0  0  0  0
 17 18  1  0  0  0  0
 17 42  1  0  0  0  0
 18 20  1  0  0  0  0
 18 43  1  0  0  0  0
 19 21  1  0  0  0  0
 19 44  1  0  0  0  0
 19 45  1  0  0  0  0
 20 22  1  0  0  0  0
 20 27  1  0  0  0  0
 20 46  1  0  0  0  0
 21 22  1  0  0  0  0
 21 47  1  0  0  0  0
 21 48  1  0  0  0  0
 22 49  1  0  0  0  0
 22 50  1  0  0  0  0
 23 51  1  0  0  0  0
 23 52  1  0  0  0  0
 23 53  1  0  0  0  0
 24 26  1  0  0  0  0
 24 28  2  0  0  0  0
 25 54  1  0  0  0  0
 25 55  1  0  0  0  0
 25 56  1  0  0  0  0
 27 58  1  0  0  0  0
 27 59  1  0  0  0  0
 27 60  1  0  0  0  0
 28 61  1  0  0  0  0
 28 62  1  0  0  0  0
 29 31  1  0  0  0  0
 30 32  1  0  0  0  0
 31 63  1  0  0  0  0
 31 64  1  0  0  0  0
 31 65  1  0  0  0  0
 32 66  1  0  0  0  0
 32 67  1  0  0  0  0
 32 68  1  0  0  0  0
M  END
> <PUBCHEM_COMPOUND_CID>
102376082

> <PUBCHEM_CONFORMER_RMSD>
0.8

> <PUBCHEM_CONFORMER_DIVERSEORDER>
1
7
4
6
3
9
2
5
8

> <PUBCHEM_MMFF94_PARTIAL_CHARGES>
25
1 -0.56
10 0.28
11 0.28
13 0.14
14 0.28
17 0.28
18 0.28
2 -0.43
24 -0.12
26 0.71
28 -0.3
29 0.66
3 -0.68
30 0.66
31 0.06
32 0.06
4 -0.43
5 -0.43
57 0.4
6 -0.57
61 0.15
62 0.15
7 -0.57
8 -0.57
9 0.28

> <PUBCHEM_EFFECTIVE_ROTOR_COUNT>
6.4

> <PUBCHEM_PHARMACOPHORE_FEATURES>
8
1 1 acceptor
1 3 acceptor
1 3 donor
1 6 acceptor
1 7 acceptor
1 8 acceptor
5 2 13 17 24 26 rings
6 1 9 10 11 15 16 rings

> <PUBCHEM_HEAVY_ATOM_COUNT>
32

> <PUBCHEM_ATOM_DEF_STEREO_COUNT>
8

> <PUBCHEM_ATOM_UDEF_STEREO_COUNT>
0

> <PUBCHEM_BOND_DEF_STEREO_COUNT>
0

> <PUBCHEM_BOND_UDEF_STEREO_COUNT>
0

> <PUBCHEM_ISOTOPIC_ATOM_COUNT>
0

> <PUBCHEM_COMPONENT_COUNT>
1

> <PUBCHEM_CACTVS_TAUTO_COUNT>
4

> <PUBCHEM_CONFORMER_ID>
061A229200000001

> <PUBCHEM_MMFF94_ENERGY>
110.6063

> <PUBCHEM_FEATURE_SELFOVERLAP>
40.599

> <PUBCHEM_SHAPE_FINGERPRINT>
10165383 225 18127720174005495905
10369192 42 15142113021940813550
11578080 2 17415863507206591408
12035759 4 18117558654839495556
12156800 1 15321483933880153127
12160290 23 18268984457285257703
12553582 1 18118957242225625687
12788726 201 18054226811313722543
13140716 1 18339353055275401171
133893 2 16517908861944398432
13583140 156 16588026775188408981
13965767 371 18051681157989529041
14117953 113 18192416499299072037
14178342 30 18270675377472297209
14400156 96 17550415955088595657
14790565 3 18195544609453540884
1813 80 17242143809781423610
19319366 153 17603308180473342554
20600515 1 18196342992112524964
20764821 26 18192144897945889519
20905425 154 17402605745757844461
23557571 272 17843392144671771042
244849 19 16916789617270440474
25222932 49 17098091431169732737
2818148 4 18334019410321127230
3052486 1 18337104683087983838
35225 105 18338504339688849959
513202 73 17393305625908736562
5895379 119 18341612680851614096
70251023 43 17690009250696106526

> <PUBCHEM_SHAPE_MULTIPOLES>
611.59
7.83
4.61
2.35
1.06
2.72
-1.3
-2.36
-1.18
-2.12
1.19
1.24
-0.81
-2.25

> <PUBCHEM_SHAPE_SELFOVERLAP>
1268.618

> <PUBCHEM_SHAPE_VOLUME>
343.9

> <PUBCHEM_COORDINATE_TYPE>
2
5
10

$$$$
