102325298
  -OEChem-03292013293D

 60 61  0     1  0  0  0  0  0999 V2000
   -2.1071   -0.9740   -0.9889 O   0  0  0  0  0  0  0  0  0  0  0  0
    3.0352   -2.5830    0.2340 O   0  0  0  0  0  0  0  0  0  0  0  0
    0.4109   -2.1802   -0.9888 O   0  0  0  0  0  0  0  0  0  0  0  0
    0.4869    2.5284   -0.8384 O   0  0  0  0  0  0  0  0  0  0  0  0
    8.3022    0.7937    0.6966 O   0  0  0  0  0  0  0  0  0  0  0  0
    2.1329    0.8438   -0.8668 N   0  0  0  0  0  0  0  0  0  0  0  0
   -3.4145    0.8276    1.3144 C   0  0  2  0  0  0  0  0  0  0  0  0
   -3.5206    1.2343   -0.1749 C   0  0  0  0  0  0  0  0  0  0  0  0
   -2.1816    1.4728   -0.9092 C   0  0  1  0  0  0  0  0  0  0  0  0
   -4.8158    0.6263    1.9434 C   0  0  0  0  0  0  0  0  0  0  0  0
   -1.3680    0.1937   -0.9407 C   0  0  0  0  0  0  0  0  0  0  0  0
    2.2735   -0.6103   -0.9211 C   0  0  2  0  0  0  0  0  0  0  0  0
   -0.0275    0.1778   -0.9218 C   0  0  0  0  0  0  0  0  0  0  0  0
   -2.6488    1.8700    2.1375 C   0  0  0  0  0  0  0  0  0  0  0  0
   -2.3835    2.0074   -2.3305 C   0  0  0  0  0  0  0  0  0  0  0  0
    0.8208   -1.0322   -0.9505 C   0  0  0  0  0  0  0  0  0  0  0  0
    2.9988   -1.1550    0.2913 C   0  0  2  0  0  0  0  0  0  0  0  0
   -5.6678   -0.4441    1.2828 C   0  0  0  0  0  0  0  0  0  0  0  0
    0.8419    1.3648   -0.8686 C   0  0  0  0  0  0  0  0  0  0  0  0
    4.4161   -0.6337    0.3998 C   0  0  0  0  0  0  0  0  0  0  0  0
   -5.0548   -1.8169    1.2397 C   0  0  0  0  0  0  0  0  0  0  0  0
   -6.8865   -0.1290    0.8014 C   0  0  0  0  0  0  0  0  0  0  0  0
    5.3174   -0.8427   -0.6440 C   0  0  0  0  0  0  0  0  0  0  0  0
    4.8207    0.0551    1.5433 C   0  0  0  0  0  0  0  0  0  0  0  0
   -7.8845   -1.0306    0.1342 C   0  0  0  0  0  0  0  0  0  0  0  0
    6.6233   -0.3628   -0.5445 C   0  0  0  0  0  0  0  0  0  0  0  0
    6.1265    0.5351    1.6429 C   0  0  0  0  0  0  0  0  0  0  0  0
   -7.6738   -1.0625   -1.3715 C   0  0  0  0  0  0  0  0  0  0  0  0
    7.0277    0.3261    0.5990 C   0  0  0  0  0  0  0  0  0  0  0  0
   -2.8616   -0.1148    1.3996 H   0  0  0  0  0  0  0  0  0  0  0  0
   -4.1110    0.4937   -0.7291 H   0  0  0  0  0  0  0  0  0  0  0  0
   -4.1039    2.1645   -0.2302 H   0  0  0  0  0  0  0  0  0  0  0  0
   -1.6732    2.2554   -0.3438 H   0  0  0  0  0  0  0  0  0  0  0  0
   -5.3431    1.5897    1.9478 H   0  0  0  0  0  0  0  0  0  0  0  0
   -4.6970    0.3476    2.9993 H   0  0  0  0  0  0  0  0  0  0  0  0
    2.7296   -0.8784   -1.8796 H   0  0  0  0  0  0  0  0  0  0  0  0
   -3.0868    2.8672    2.0226 H   0  0  0  0  0  0  0  0  0  0  0  0
   -1.5967    1.9199    1.8417 H   0  0  0  0  0  0  0  0  0  0  0  0
   -2.6666    1.6143    3.2026 H   0  0  0  0  0  0  0  0  0  0  0  0
   -2.9443    1.2949   -2.9460 H   0  0  0  0  0  0  0  0  0  0  0  0
   -1.4284    2.2032   -2.8290 H   0  0  0  0  0  0  0  0  0  0  0  0
   -2.9469    2.9464   -2.3104 H   0  0  0  0  0  0  0  0  0  0  0  0
    2.4481   -0.8971    1.2056 H   0  0  0  0  0  0  0  0  0  0  0  0
    2.9437    1.4550   -0.8696 H   0  0  0  0  0  0  0  0  0  0  0  0
   -4.1986   -1.8401    0.5607 H   0  0  0  0  0  0  0  0  0  0  0  0
   -5.7541   -2.5844    0.8988 H   0  0  0  0  0  0  0  0  0  0  0  0
   -4.7162   -2.1115    2.2385 H   0  0  0  0  0  0  0  0  0  0  0  0
   -7.2158    0.9064    0.8834 H   0  0  0  0  0  0  0  0  0  0  0  0
   -1.5057   -1.7361   -0.9988 H   0  0  0  0  0  0  0  0  0  0  0  0
    2.1212   -2.9071    0.3009 H   0  0  0  0  0  0  0  0  0  0  0  0
    5.0240   -1.3855   -1.5383 H   0  0  0  0  0  0  0  0  0  0  0  0
    4.1300    0.2262    2.3645 H   0  0  0  0  0  0  0  0  0  0  0  0
   -8.8934   -0.6636    0.3567 H   0  0  0  0  0  0  0  0  0  0  0  0
   -7.8372   -2.0461    0.5398 H   0  0  0  0  0  0  0  0  0  0  0  0
    7.3166   -0.5340   -1.3636 H   0  0  0  0  0  0  0  0  0  0  0  0
    6.4359    1.0710    2.5360 H   0  0  0  0  0  0  0  0  0  0  0  0
   -6.6858   -1.4606   -1.6265 H   0  0  0  0  0  0  0  0  0  0  0  0
   -8.4269   -1.7009   -1.8443 H   0  0  0  0  0  0  0  0  0  0  0  0
   -7.7600   -0.0605   -1.8054 H   0  0  0  0  0  0  0  0  0  0  0  0
    8.7864    0.5602   -0.1140 H   0  0  0  0  0  0  0  0  0  0  0  0
  1 11  1  0  0  0  0
  1 49  1  0  0  0  0
  2 17  1  0  0  0  0
  2 50  1  0  0  0  0
  3 16  2  0  0  0  0
  4 19  2  0  0  0  0
  5 29  1  0  0  0  0
  5 60  1  0  0  0  0
  6 12  1  0  0  0  0
  6 19  1  0  0  0  0
  6 44  1  0  0  0  0
  7  8  1  0  0  0  0
  7 10  1  0  0  0  0
  7 14  1  0  0  0  0
  7 30  1  0  0  0  0
  8  9  1  0  0  0  0
  8 31  1  0  0  0  0
  8 32  1  0  0  0  0
  9 11  1  0  0  0  0
  9 15  1  0  0  0  0
  9 33  1  0  0  0  0
 10 18  1  0  0  0  0
 10 34  1  0  0  0  0
 10 35  1  0  0  0  0
 11 13  2  0  0  0  0
 12 16  1  0  0  0  0
 12 17  1  0  0  0  0
 12 36  1  0  0  0  0
 13 16  1  0  0  0  0
 13 19  1  0  0  0  0
 14 37  1  0  0  0  0
 14 38  1  0  0  0  0
 14 39  1  0  0  0  0
 15 40  1  0  0  0  0
 15 41  1  0  0  0  0
 15 42  1  0  0  0  0
 17 20  1  0  0  0  0
 17 43  1  0  0  0  0
 18 21  1  0  0  0  0
 18 22  2  0  0  0  0
 20 23  2  0  0  0  0
 20 24  1  0  0  0  0
 21 45  1  0  0  0  0
 21 46  1  0  0  0  0
 21 47  1  0  0  0  0
 22 25  1  0  0  0  0
 22 48  1  0  0  0  0
 23 26  1  0  0  0  0
 23 51  1  0  0  0  0
 24 27  2  0  0  0  0
 24 52  1  0  0  0  0
 25 28  1  0  0  0  0
 25 53  1  0  0  0  0
 25 54  1  0  0  0  0
 26 29  2  0  0  0  0
 26 55  1  0  0  0  0
 27 29  1  0  0  0  0
 27 56  1  0  0  0  0
 28 57  1  0  0  0  0
 28 58  1  0  0  0  0
 28 59  1  0  0  0  0
M  END
> <PUBCHEM_COMPOUND_CID>
102325298

> <PUBCHEM_CONFORMER_RMSD>
1

> <PUBCHEM_CONFORMER_DIVERSEORDER>
1
119
91
165
195
94
31
142
40
96
171
222
202
98
104
90
71
132
173
134
168
194
54
99
97
212
151
115
193
106
57
125
169
139
205
28
180
101
158
200
217
58
102
70
100
190
175
95
198
221
196
210
197
38
3
85
75
131
79
81
52
135
39
45
110
80
162
103
59
64
176
164
172
109
88
157
154
33
206
120
93
69
32
122
65
117
188
146
201
184
53
208
77
89
123
220
182
111
140
13
105
129
76
51
6
121
138
163
191
17
83
63
24
149
215
136
42
148
62
112
46
126
2
178
219
143
26
56
82
34
128
67
9
185
187
204
108
92
127
107
166
189
16
218
29
133
78
66
86
124
14
47
177
7
22
214
114
160
11
199
35
61
60
27
209
170
181
10
5
68
4
144
137
141
130
41
87
207
113
153
72
21
161
186
192
73
183
145
44
167
37
84
147
150
116
179
12
48
55
216
18
159
50
152
30
74
15
23
156
19
211
25
174
43
118
203
155
36
213
49
8
20

> <PUBCHEM_MMFF94_PARTIAL_CHARGES>
33
1 -0.53
10 0.14
11 -0.06
12 0.36
13 0.03
16 0.49
17 0.42
18 -0.28
19 0.62
2 -0.68
20 -0.14
21 0.14
22 -0.29
23 -0.15
24 -0.15
25 0.14
26 -0.15
27 -0.15
29 0.08
3 -0.57
4 -0.57
44 0.37
48 0.15
49 0.45
5 -0.53
50 0.4
51 0.15
52 0.15
55 0.15
56 0.15
6 -0.73
60 0.45
9 0.14

> <PUBCHEM_EFFECTIVE_ROTOR_COUNT>
8.4

> <PUBCHEM_PHARMACOPHORE_FEATURES>
15
1 1 donor
1 13 anion
1 14 hydrophobe
1 15 hydrophobe
1 2 acceptor
1 2 donor
1 21 hydrophobe
1 28 hydrophobe
1 3 acceptor
1 4 acceptor
1 5 donor
1 6 donor
5 6 12 13 16 19 rings
5 7 8 9 10 18 hydrophobe
6 20 23 24 26 27 29 rings

> <PUBCHEM_HEAVY_ATOM_COUNT>
29

> <PUBCHEM_ATOM_DEF_STEREO_COUNT>
4

> <PUBCHEM_ATOM_UDEF_STEREO_COUNT>
0

> <PUBCHEM_BOND_DEF_STEREO_COUNT>
2

> <PUBCHEM_BOND_UDEF_STEREO_COUNT>
0

> <PUBCHEM_ISOTOPIC_ATOM_COUNT>
0

> <PUBCHEM_COMPONENT_COUNT>
1

> <PUBCHEM_CACTVS_TAUTO_COUNT>
24

> <PUBCHEM_CONFORMER_ID>
06195C3200000001

> <PUBCHEM_MMFF94_ENERGY>
61.1338

> <PUBCHEM_FEATURE_SELFOVERLAP>
76.197

> <PUBCHEM_SHAPE_FINGERPRINT>
10 15 18060139838344130522
10165383 225 13110967518165118061
10369192 42 13326857721385073513
106641 1 18342458161810899104
10670039 82 11671791438016120267
10674148 151 13551465973796963349
11135609 201 17203315737340488378
11796584 16 15864362358645334995
12596602 18 18059017181153518443
12857493 111 17967246495235574157
13177829 20 17632578262410325259
13540713 4 18120090576652085222
13914758 101 13117996686952567559
14068700 675 16660367008587590749
14251752 14 14634866449338623059
1454969 45 18260276265015711334
14849402 71 17489021673270392352
15119646 104 14418126292732631497
15183329 4 11674873416347472369
15188451 53 16298382449091054408
15510800 12 16226626086457556058
15728490 51 18130504223446961447
17857418 61 16877667859155231825
18603816 31 16009029544529405675
21315764 119 12901547940320932081
22224240 67 18343302573888232246
23198884 109 11887669559529072211
23559900 14 15213879236575623077
2838139 119 14333123027382835432
29717793 49 11602826791735438282
3009799 131 7853569093879580110
3633792 109 14273730746761782725
4098825 35 11527952248817679061
4325135 7 15913329100630519251
504579 68 14562827525460851086
5104073 3 18191019002708501818
56616090 163 12319733665917925069
59682541 35 18334012822268576360
5969126 39 17894346671084745333
6126387 218 13551186706364812550
613672 6 17313403196678682123
6703917 75 13614245923227057919
9689198 14 16415484843758603320

> <PUBCHEM_SHAPE_MULTIPOLES>
562.48
21.54
2.01
1.9
2.75
0.09
0.34
-5.29
6.99
-1.01
-0.4
-1.5
0.66
0.37

> <PUBCHEM_SHAPE_SELFOVERLAP>
1163.813

> <PUBCHEM_SHAPE_VOLUME>
321.1

> <PUBCHEM_COORDINATE_TYPE>
2
5
10

$$$$
