102376881
  -OEChem-03292013293D

 68 70  0     1  0  0  0  0  0999 V2000
   -4.7884    2.5760   -2.7922 O   0  0  0  0  0  0  0  0  0  0  0  0
   -0.3845    1.2506   -0.6308 O   0  0  0  0  0  0  0  0  0  0  0  0
   -3.7291   -1.5327   -0.2588 O   0  0  0  0  0  0  0  0  0  0  0  0
    0.8659   -0.9715    2.1951 O   0  0  0  0  0  0  0  0  0  0  0  0
    3.5287   -1.5423    2.0454 O   0  0  0  0  0  0  0  0  0  0  0  0
    8.5800    1.1805   -1.2411 O   0  0  0  0  0  0  0  0  0  0  0  0
   -2.3193    0.6062    0.4848 N   0  0  0  0  0  0  0  0  0  0  0  0
   -4.2093   -2.2011    1.8898 N   0  0  0  0  0  0  0  0  0  0  0  0
    0.7544   -1.0059   -0.1269 N   0  0  0  0  0  0  0  0  0  0  0  0
   -4.2068    1.7798    1.3756 C   0  0  2  0  0  0  0  0  0  0  0  0
   -2.9740    1.9235    0.4592 C   0  0  2  0  0  0  0  0  0  0  0  0
   -3.7642    0.6992    2.3702 C   0  0  0  0  0  0  0  0  0  0  0  0
   -2.8690   -0.2302    1.5505 C   0  0  1  0  0  0  0  0  0  0  0  0
   -5.5235    1.3903    0.6845 C   0  0  0  0  0  0  0  0  0  0  0  0
   -3.2939    2.4895   -0.9276 C   0  0  0  0  0  0  0  0  0  0  0  0
   -4.5525    1.9073   -1.5571 C   0  0  1  0  0  0  0  0  0  0  0  0
   -5.7451    2.1113   -0.6331 C   0  0  0  0  0  0  0  0  0  0  0  0
   -1.1050    0.3699   -0.1566 C   0  0  0  0  0  0  0  0  0  0  0  0
   -3.6302   -1.3753    0.9556 C   0  0  0  0  0  0  0  0  0  0  0  0
   -0.6714   -1.0727   -0.2536 C   0  0  1  0  0  0  0  0  0  0  0  0
   -1.1235   -1.6694   -1.5805 C   0  0  0  0  0  0  0  0  0  0  0  0
   -1.2381   -3.2071   -1.5728 C   0  0  0  0  0  0  0  0  0  0  0  0
    1.4181   -0.9601    1.0972 C   0  0  0  0  0  0  0  0  0  0  0  0
    0.0923   -3.8898   -1.2520 C   0  0  0  0  0  0  0  0  0  0  0  0
   -1.7529   -3.6939   -2.9303 C   0  0  0  0  0  0  0  0  0  0  0  0
    2.9314   -0.8744    0.9432 C   0  0  1  0  0  0  0  0  0  0  0  0
    3.3898    0.5877    0.9390 C   0  0  0  0  0  0  0  0  0  0  0  0
    4.7745    0.7462    0.3580 C   0  0  0  0  0  0  0  0  0  0  0  0
    5.8926    0.6722    1.1885 C   0  0  0  0  0  0  0  0  0  0  0  0
    4.9352    0.9662   -1.0100 C   0  0  0  0  0  0  0  0  0  0  0  0
    7.1715    0.8185    0.6513 C   0  0  0  0  0  0  0  0  0  0  0  0
    6.2140    1.1125   -1.5475 C   0  0  0  0  0  0  0  0  0  0  0  0
    7.3321    1.0387   -0.7167 C   0  0  0  0  0  0  0  0  0  0  0  0
   -4.3797    2.7301    1.8965 H   0  0  0  0  0  0  0  0  0  0  0  0
   -2.2539    2.6022    0.9378 H   0  0  0  0  0  0  0  0  0  0  0  0
   -4.6073    0.2115    2.8686 H   0  0  0  0  0  0  0  0  0  0  0  0
   -3.1562    1.1751    3.1510 H   0  0  0  0  0  0  0  0  0  0  0  0
   -2.0609   -0.6283    2.1741 H   0  0  0  0  0  0  0  0  0  0  0  0
   -6.3601    1.6012    1.3621 H   0  0  0  0  0  0  0  0  0  0  0  0
   -5.5672    0.3140    0.4926 H   0  0  0  0  0  0  0  0  0  0  0  0
   -3.4250    3.5770   -0.8362 H   0  0  0  0  0  0  0  0  0  0  0  0
   -2.4504    2.3649   -1.6157 H   0  0  0  0  0  0  0  0  0  0  0  0
   -4.4187    0.8415   -1.7744 H   0  0  0  0  0  0  0  0  0  0  0  0
   -6.6585    1.7436   -1.1158 H   0  0  0  0  0  0  0  0  0  0  0  0
   -5.9111    3.1822   -0.4591 H   0  0  0  0  0  0  0  0  0  0  0  0
   -1.0414   -1.6669    0.5823 H   0  0  0  0  0  0  0  0  0  0  0  0
   -4.0196    2.4144   -3.3654 H   0  0  0  0  0  0  0  0  0  0  0  0
   -0.4230   -1.3721   -2.3744 H   0  0  0  0  0  0  0  0  0  0  0  0
   -2.0835   -1.2431   -1.8924 H   0  0  0  0  0  0  0  0  0  0  0  0
   -4.0967   -2.0592    2.8884 H   0  0  0  0  0  0  0  0  0  0  0  0
   -4.7576   -3.0058    1.6046 H   0  0  0  0  0  0  0  0  0  0  0  0
    1.3047   -0.9192   -0.9769 H   0  0  0  0  0  0  0  0  0  0  0  0
   -1.9667   -3.5081   -0.8105 H   0  0  0  0  0  0  0  0  0  0  0  0
   -2.7246   -3.2448   -3.1613 H   0  0  0  0  0  0  0  0  0  0  0  0
   -1.8812   -4.7816   -2.9310 H   0  0  0  0  0  0  0  0  0  0  0  0
   -1.0579   -3.4340   -3.7361 H   0  0  0  0  0  0  0  0  0  0  0  0
    0.0052   -4.9767   -1.3577 H   0  0  0  0  0  0  0  0  0  0  0  0
    0.8878   -3.5498   -1.9236 H   0  0  0  0  0  0  0  0  0  0  0  0
    0.4023   -3.6952   -0.2211 H   0  0  0  0  0  0  0  0  0  0  0  0
    3.2355   -1.4010    0.0317 H   0  0  0  0  0  0  0  0  0  0  0  0
    2.6948    1.2046    0.3540 H   0  0  0  0  0  0  0  0  0  0  0  0
    3.3750    1.0060    1.9542 H   0  0  0  0  0  0  0  0  0  0  0  0
    3.3031   -1.0544    2.8558 H   0  0  0  0  0  0  0  0  0  0  0  0
    5.7806    0.5006    2.2558 H   0  0  0  0  0  0  0  0  0  0  0  0
    4.0716    1.0231   -1.6675 H   0  0  0  0  0  0  0  0  0  0  0  0
    8.0387    0.7596    1.3033 H   0  0  0  0  0  0  0  0  0  0  0  0
    6.3257    1.2829   -2.6149 H   0  0  0  0  0  0  0  0  0  0  0  0
    8.5042    1.3255   -2.1999 H   0  0  0  0  0  0  0  0  0  0  0  0
  1 16  1  0  0  0  0
  1 47  1  0  0  0  0
  2 18  2  0  0  0  0
  3 19  2  0  0  0  0
  4 23  2  0  0  0  0
  5 26  1  0  0  0  0
  5 63  1  0  0  0  0
  6 33  1  0  0  0  0
  6 68  1  0  0  0  0
  7 11  1  0  0  0  0
  7 13  1  0  0  0  0
  7 18  1  0  0  0  0
  8 19  1  0  0  0  0
  8 50  1  0  0  0  0
  8 51  1  0  0  0  0
  9 20  1  0  0  0  0
  9 23  1  0  0  0  0
  9 52  1  0  0  0  0
 10 11  1  0  0  0  0
 10 12  1  0  0  0  0
 10 14  1  0  0  0  0
 10 34  1  0  0  0  0
 11 15  1  0  0  0  0
 11 35  1  0  0  0  0
 12 13  1  0  0  0  0
 12 36  1  0  0  0  0
 12 37  1  0  0  0  0
 13 19  1  0  0  0  0
 13 38  1  0  0  0  0
 14 17  1  0  0  0  0
 14 39  1  0  0  0  0
 14 40  1  0  0  0  0
 15 16  1  0  0  0  0
 15 41  1  0  0  0  0
 15 42  1  0  0  0  0
 16 17  1  0  0  0  0
 16 43  1  0  0  0  0
 17 44  1  0  0  0  0
 17 45  1  0  0  0  0
 18 20  1  0  0  0  0
 20 21  1  0  0  0  0
 20 46  1  0  0  0  0
 21 22  1  0  0  0  0
 21 48  1  0  0  0  0
 21 49  1  0  0  0  0
 22 24  1  0  0  0  0
 22 25  1  0  0  0  0
 22 53  1  0  0  0  0
 23 26  1  0  0  0  0
 24 57  1  0  0  0  0
 24 58  1  0  0  0  0
 24 59  1  0  0  0  0
 25 54  1  0  0  0  0
 25 55  1  0  0  0  0
 25 56  1  0  0  0  0
 26 27  1  0  0  0  0
 26 60  1  0  0  0  0
 27 28  1  0  0  0  0
 27 61  1  0  0  0  0
 27 62  1  0  0  0  0
 28 29  2  0  0  0  0
 28 30  1  0  0  0  0
 29 31  1  0  0  0  0
 29 64  1  0  0  0  0
 30 32  2  0  0  0  0
 30 65  1  0  0  0  0
 31 33  2  0  0  0  0
 31 66  1  0  0  0  0
 32 33  1  0  0  0  0
 32 67  1  0  0  0  0
M  END
> <PUBCHEM_COMPOUND_CID>
102376881

> <PUBCHEM_CONFORMER_RMSD>
1.2

> <PUBCHEM_CONFORMER_DIVERSEORDER>
1
11
27
17
40
132
13
144
114
95
68
76
99
38
71
122
113
106
58
135
134
127
101
28
37
104
25
66
78
139
136
77
120
80
138
24
84
69
89
18
65
3
118
85
62
102
92
137
59
79
45
96
140
60
10
5
119
105
67
72
15
75
52
131
124
91
81
42
64
100
125
47
110
19
9
83
54
117
82
116
86
43
111
115
30
98
29
39
126
44
107
22
48
112
35
31
130
109
56
123
90
49
26
23
108
2
14
94
57
87
88
129
63
73
121
46
141
21
143
33
36
53
103
41
7
93
51
8
16
20
50
133
74
32
61
34
55
4
70
97
145
6
128
142
12

> <PUBCHEM_MMFF94_PARTIAL_CHARGES>
34
1 -0.68
11 0.3
13 0.36
16 0.28
18 0.57
19 0.57
2 -0.57
20 0.36
23 0.57
26 0.34
27 0.14
28 -0.14
29 -0.15
3 -0.57
30 -0.15
31 -0.15
32 -0.15
33 0.08
4 -0.57
47 0.4
5 -0.68
50 0.37
51 0.37
52 0.37
6 -0.53
63 0.4
64 0.15
65 0.15
66 0.15
67 0.15
68 0.45
7 -0.66
8 -0.8
9 -0.73

> <PUBCHEM_EFFECTIVE_ROTOR_COUNT>
11.4

> <PUBCHEM_PHARMACOPHORE_FEATURES>
14
1 1 acceptor
1 1 donor
1 2 acceptor
1 3 acceptor
1 4 acceptor
1 5 acceptor
1 5 donor
1 6 donor
1 8 donor
1 9 donor
3 22 24 25 hydrophobe
5 7 10 11 12 13 rings
6 10 11 14 15 16 17 rings
6 28 29 30 31 32 33 rings

> <PUBCHEM_HEAVY_ATOM_COUNT>
33

> <PUBCHEM_ATOM_DEF_STEREO_COUNT>
6

> <PUBCHEM_ATOM_UDEF_STEREO_COUNT>
0

> <PUBCHEM_BOND_DEF_STEREO_COUNT>
0

> <PUBCHEM_BOND_UDEF_STEREO_COUNT>
0

> <PUBCHEM_ISOTOPIC_ATOM_COUNT>
0

> <PUBCHEM_COMPONENT_COUNT>
1

> <PUBCHEM_CACTVS_TAUTO_COUNT>
24

> <PUBCHEM_CONFORMER_ID>
061A25B100000001

> <PUBCHEM_MMFF94_ENERGY>
83.3343

> <PUBCHEM_FEATURE_SELFOVERLAP>
71.222

> <PUBCHEM_SHAPE_FINGERPRINT>
10 15 17312828160202324280
10010297 198 18188482476238375666
10165383 225 17632031805232126027
105312 117 17988928872712780478
10906281 52 18267870476329405809
11578080 2 17844546422292702099
11991303 11 18342736338279756670
12166972 35 10951760881258073002
12788726 201 18056455460821906567
131258 43 17121698121637864206
13782708 43 10662942279497814917
13911987 19 18271797983150208613
14202776 33 18336551641176027134
14856354 85 17896050999395389474
15183329 4 17346605145434810744
15230672 131 18130517353890232910
15513586 35 18046637977136754280
15575132 122 18410291436670546863
1577012 14 17749389278808918488
17980427 23 16515694346298938695
19319366 153 18187638056135259770
19958102 18 17774451495054049460
21033648 144 18336547101812371917
21033650 10 16128380324537707402
21756936 100 18114183077413028210
23559900 14 17389398012780082487
24771293 8 18337964386008962281
3610482 184 18262812882044959756
3729539 64 17628947559305110846
44249763 50 18270947047249979648
497634 4 16950840418277108618
504843 32 18410288112798883263
5951187 136 17034420589638094901
59755656 520 16917078775859747875
6523845 18 17704080615771679323
6608658 132 18272360928365869289

> <PUBCHEM_SHAPE_MULTIPOLES>
628.97
17.57
3.6
2.39
34.94
4.48
0.27
-14.22
3.44
-4.59
2.5
-1.69
0.3
0.03

> <PUBCHEM_SHAPE_SELFOVERLAP>
1314.179

> <PUBCHEM_SHAPE_VOLUME>
353.2

> <PUBCHEM_COORDINATE_TYPE>
2
5
10

$$$$
