102302608
  -OEChem-03292013293D

 76 79  0     1  0  0  0  0  0999 V2000
   -0.4705   -1.7855   -1.0797 O   0  0  0  0  0  0  0  0  0  0  0  0
    2.9662   -0.6931   -0.3613 O   0  0  0  0  0  0  0  0  0  0  0  0
    2.4889   -3.1382    1.3234 O   0  0  0  0  0  0  0  0  0  0  0  0
    3.2092    0.9704    1.3066 O   0  0  0  0  0  0  0  0  0  0  0  0
    5.7818   -0.3195    1.9057 O   0  0  0  0  0  0  0  0  0  0  0  0
    5.2371    0.6327   -1.5773 O   0  0  0  0  0  0  0  0  0  0  0  0
    5.4579    3.1936   -0.5544 O   0  0  0  0  0  0  0  0  0  0  0  0
   -3.0649    0.8100    0.1724 C   0  0  1  0  0  0  0  0  0  0  0  0
   -4.2881   -0.1149   -0.1693 C   0  0  2  0  0  0  0  0  0  0  0  0
   -1.7850    0.1917   -0.5086 C   0  0  2  0  0  0  0  0  0  0  0  0
   -1.4902   -1.2972   -0.1806 C   0  0  1  0  0  0  0  0  0  0  0  0
   -5.6829    0.4091    0.3445 C   0  0  0  0  0  0  0  0  0  0  0  0
   -4.0231   -1.6000    0.1548 C   0  0  0  0  0  0  0  0  0  0  0  0
   -3.3301    2.2234   -0.4478 C   0  0  0  0  0  0  0  0  0  0  0  0
   -2.7512   -2.1213   -0.5179 C   0  0  0  0  0  0  0  0  0  0  0  0
   -0.4934    1.0186   -0.3973 C   0  0  0  0  0  0  0  0  0  0  0  0
   -5.7233    1.9592    0.3817 C   0  0  0  0  0  0  0  0  0  0  0  0
   -4.8031    2.5903   -0.6502 C   0  0  0  0  0  0  0  0  0  0  0  0
   -2.8545    0.9938    1.6912 C   0  0  0  0  0  0  0  0  0  0  0  0
    0.7573   -1.0548   -1.2235 C   0  0  1  0  0  0  0  0  0  0  0  0
    0.5332    0.4594   -1.3797 C   0  0  0  0  0  0  0  0  0  0  0  0
   -1.0707   -1.6251    1.2631 C   0  0  0  0  0  0  0  0  0  0  0  0
   -6.7811   -0.0761   -0.6383 C   0  0  0  0  0  0  0  0  0  0  0  0
   -6.0751   -0.1221    1.7385 C   0  0  0  0  0  0  0  0  0  0  0  0
    1.7413   -1.3616   -0.0860 C   0  0  1  0  0  0  0  0  0  0  0  0
    1.3831   -1.5965   -2.5218 C   0  0  0  0  0  0  0  0  0  0  0  0
    2.0089   -2.8528    0.0139 C   0  0  0  0  0  0  0  0  0  0  0  0
    3.6348   -0.3137    0.8377 C   0  0  2  0  0  0  0  0  0  0  0  0
    5.1554   -0.3629    0.6250 C   0  0  1  0  0  0  0  0  0  0  0  0
    5.6578    0.8091   -0.2250 C   0  0  2  0  0  0  0  0  0  0  0  0
    5.0945    2.1269    0.3109 C   0  0  2  0  0  0  0  0  0  0  0  0
    3.5796    2.0471    0.4493 C   0  0  0  0  0  0  0  0  0  0  0  0
   -4.3537   -0.0849   -1.2699 H   0  0  0  0  0  0  0  0  0  0  0  0
   -2.0178    0.2012   -1.5877 H   0  0  0  0  0  0  0  0  0  0  0  0
   -4.8606   -2.2135   -0.1966 H   0  0  0  0  0  0  0  0  0  0  0  0
   -3.9652   -1.7578    1.2355 H   0  0  0  0  0  0  0  0  0  0  0  0
   -2.8523    2.3100   -1.4323 H   0  0  0  0  0  0  0  0  0  0  0  0
   -2.8544    2.9943    0.1729 H   0  0  0  0  0  0  0  0  0  0  0  0
   -2.5958   -3.1744   -0.2488 H   0  0  0  0  0  0  0  0  0  0  0  0
   -2.9007   -2.1275   -1.6067 H   0  0  0  0  0  0  0  0  0  0  0  0
   -0.0839    1.0080    0.6166 H   0  0  0  0  0  0  0  0  0  0  0  0
   -0.6718    2.0691   -0.6487 H   0  0  0  0  0  0  0  0  0  0  0  0
   -6.7473    2.3180    0.2153 H   0  0  0  0  0  0  0  0  0  0  0  0
   -5.4505    2.3354    1.3741 H   0  0  0  0  0  0  0  0  0  0  0  0
   -4.9084    3.6814   -0.6254 H   0  0  0  0  0  0  0  0  0  0  0  0
   -5.1173    2.2796   -1.6544 H   0  0  0  0  0  0  0  0  0  0  0  0
   -2.9247    0.0573    2.2442 H   0  0  0  0  0  0  0  0  0  0  0  0
   -3.5916    1.6673    2.1344 H   0  0  0  0  0  0  0  0  0  0  0  0
   -1.8800    1.4399    1.9125 H   0  0  0  0  0  0  0  0  0  0  0  0
    0.1357    0.6526   -2.3866 H   0  0  0  0  0  0  0  0  0  0  0  0
    1.4623    1.0252   -1.3314 H   0  0  0  0  0  0  0  0  0  0  0  0
   -0.4729   -0.8361    1.7218 H   0  0  0  0  0  0  0  0  0  0  0  0
   -0.4963   -2.5553    1.3079 H   0  0  0  0  0  0  0  0  0  0  0  0
   -1.9233   -1.7740    1.9292 H   0  0  0  0  0  0  0  0  0  0  0  0
   -7.0240    0.3176    2.0688 H   0  0  0  0  0  0  0  0  0  0  0  0
   -7.7734    0.2696   -0.3257 H   0  0  0  0  0  0  0  0  0  0  0  0
   -5.3269    0.1194    2.4974 H   0  0  0  0  0  0  0  0  0  0  0  0
   -6.2128   -1.2086    1.7370 H   0  0  0  0  0  0  0  0  0  0  0  0
   -6.6070    0.3019   -1.6518 H   0  0  0  0  0  0  0  0  0  0  0  0
   -6.8217   -1.1688   -0.6924 H   0  0  0  0  0  0  0  0  0  0  0  0
    1.3461   -0.9867    0.8585 H   0  0  0  0  0  0  0  0  0  0  0  0
    1.4761   -2.6877   -2.5206 H   0  0  0  0  0  0  0  0  0  0  0  0
    2.3608   -1.1548   -2.7400 H   0  0  0  0  0  0  0  0  0  0  0  0
    0.7276   -1.3749   -3.3739 H   0  0  0  0  0  0  0  0  0  0  0  0
    2.7854   -3.1762   -0.6872 H   0  0  0  0  0  0  0  0  0  0  0  0
    1.1127   -3.4611   -0.1337 H   0  0  0  0  0  0  0  0  0  0  0  0
    3.4077   -1.0031    1.6563 H   0  0  0  0  0  0  0  0  0  0  0  0
    2.6625   -4.0941    1.3624 H   0  0  0  0  0  0  0  0  0  0  0  0
    5.4197   -1.3144    0.1482 H   0  0  0  0  0  0  0  0  0  0  0  0
    6.7527    0.8602   -0.2286 H   0  0  0  0  0  0  0  0  0  0  0  0
    5.5377    2.3237    1.2947 H   0  0  0  0  0  0  0  0  0  0  0  0
    3.1965    2.9738    0.8905 H   0  0  0  0  0  0  0  0  0  0  0  0
    3.1013    1.9592   -0.5283 H   0  0  0  0  0  0  0  0  0  0  0  0
    6.7420   -0.3787    1.7637 H   0  0  0  0  0  0  0  0  0  0  0  0
    5.6116   -0.2073   -1.8929 H   0  0  0  0  0  0  0  0  0  0  0  0
    5.0844    4.0117   -0.1847 H   0  0  0  0  0  0  0  0  0  0  0  0
  1 11  1  0  0  0  0
  1 20  1  0  0  0  0
  2 25  1  0  0  0  0
  2 28  1  0  0  0  0
  3 27  1  0  0  0  0
  3 68  1  0  0  0  0
  4 28  1  0  0  0  0
  4 32  1  0  0  0  0
  5 29  1  0  0  0  0
  5 74  1  0  0  0  0
  6 30  1  0  0  0  0
  6 75  1  0  0  0  0
  7 31  1  0  0  0  0
  7 76  1  0  0  0  0
  8  9  1  0  0  0  0
  8 10  1  0  0  0  0
  8 14  1  0  0  0  0
  8 19  1  0  0  0  0
  9 12  1  0  0  0  0
  9 13  1  0  0  0  0
  9 33  1  0  0  0  0
 10 11  1  0  0  0  0
 10 16  1  0  0  0  0
 10 34  1  0  0  0  0
 11 15  1  0  0  0  0
 11 22  1  0  0  0  0
 12 17  1  0  0  0  0
 12 23  1  0  0  0  0
 12 24  1  0  0  0  0
 13 15  1  0  0  0  0
 13 35  1  0  0  0  0
 13 36  1  0  0  0  0
 14 18  1  0  0  0  0
 14 37  1  0  0  0  0
 14 38  1  0  0  0  0
 15 39  1  0  0  0  0
 15 40  1  0  0  0  0
 16 21  1  0  0  0  0
 16 41  1  0  0  0  0
 16 42  1  0  0  0  0
 17 18  1  0  0  0  0
 17 43  1  0  0  0  0
 17 44  1  0  0  0  0
 18 45  1  0  0  0  0
 18 46  1  0  0  0  0
 19 47  1  0  0  0  0
 19 48  1  0  0  0  0
 19 49  1  0  0  0  0
 20 21  1  0  0  0  0
 20 25  1  0  0  0  0
 20 26  1  0  0  0  0
 21 50  1  0  0  0  0
 21 51  1  0  0  0  0
 22 52  1  0  0  0  0
 22 53  1  0  0  0  0
 22 54  1  0  0  0  0
 23 56  1  0  0  0  0
 23 59  1  0  0  0  0
 23 60  1  0  0  0  0
 24 55  1  0  0  0  0
 24 57  1  0  0  0  0
 24 58  1  0  0  0  0
 25 27  1  0  0  0  0
 25 61  1  0  0  0  0
 26 62  1  0  0  0  0
 26 63  1  0  0  0  0
 26 64  1  0  0  0  0
 27 65  1  0  0  0  0
 27 66  1  0  0  0  0
 28 29  1  0  0  0  0
 28 67  1  0  0  0  0
 29 30  1  0  0  0  0
 29 69  1  0  0  0  0
 30 31  1  0  0  0  0
 30 70  1  0  0  0  0
 31 32  1  0  0  0  0
 31 71  1  0  0  0  0
 32 72  1  0  0  0  0
 32 73  1  0  0  0  0
M  END
> <PUBCHEM_COMPOUND_CID>
102302608

> <PUBCHEM_CONFORMER_RMSD>
1

> <PUBCHEM_CONFORMER_DIVERSEORDER>
4
5
29
13
1
32
31
14
12
25
33
18
21
19
23
17
10
22
34
8
30
35
16
15
3
24
26
2
28
7
9
6
11
20
27

> <PUBCHEM_MMFF94_PARTIAL_CHARGES>
20
1 -0.56
11 0.28
2 -0.56
20 0.28
25 0.28
27 0.28
28 0.56
29 0.28
3 -0.68
30 0.28
31 0.28
32 0.28
4 -0.56
5 -0.68
6 -0.68
68 0.4
7 -0.68
74 0.4
75 0.4
76 0.4

> <PUBCHEM_EFFECTIVE_ROTOR_COUNT>
7.2

> <PUBCHEM_PHARMACOPHORE_FEATURES>
16
1 1 acceptor
1 2 acceptor
1 3 acceptor
1 3 donor
1 4 acceptor
1 5 acceptor
1 5 donor
1 6 acceptor
1 6 donor
1 7 acceptor
1 7 donor
3 12 23 24 hydrophobe
6 1 10 11 16 20 21 rings
6 4 28 29 30 31 32 rings
6 8 9 10 11 13 15 rings
6 8 9 12 14 17 18 rings

> <PUBCHEM_HEAVY_ATOM_COUNT>
32

> <PUBCHEM_ATOM_DEF_STEREO_COUNT>
9

> <PUBCHEM_ATOM_UDEF_STEREO_COUNT>
1

> <PUBCHEM_BOND_DEF_STEREO_COUNT>
0

> <PUBCHEM_BOND_UDEF_STEREO_COUNT>
0

> <PUBCHEM_ISOTOPIC_ATOM_COUNT>
0

> <PUBCHEM_COMPONENT_COUNT>
1

> <PUBCHEM_CACTVS_TAUTO_COUNT>
1

> <PUBCHEM_CONFORMER_ID>
0619039000000004

> <PUBCHEM_MMFF94_ENERGY>
137.5328

> <PUBCHEM_FEATURE_SELFOVERLAP>
81.286

> <PUBCHEM_SHAPE_FINGERPRINT>
10 15 18334017207066168889
10670039 82 17489318442989530080
10906281 52 18130522897995879987
12236239 1 17095243618322354797
12403259 415 18268438945146367357
12422481 6 17240478083159535229
12516196 113 13984660360589665356
12596602 18 16950566601300979089
12633257 1 18115010940812162474
12760667 363 11097849696984734589
12788726 201 17417250914454506401
13402501 40 18343300362138434377
14251751 18 8718827587060966132
14251764 38 18268431222453050745
14341114 328 18408318904325818682
14787075 74 18131345311492926531
14790565 3 18265053707642560684
14840074 17 18113622325855401076
15183329 4 18413106177652676552
15238133 3 18411693293185561896
15510800 12 12035991470772559384
15961568 22 18411421708828268997
17349148 13 15936700289620188139
17980427 23 18337110176324847461
1813 80 16081375094190893870
19958102 18 10375878446132237737
20465049 17 18341057333364742892
20511986 3 18114451315094953591
20567600 234 18260269663445372101
21033648 29 17917139615578713456
21315764 119 12031797946081938665
21716022 299 13972310556156475340
21756936 100 18196926898165684924
21859007 373 17242440617749332989
23559900 14 18056490460309500327
2838139 119 18272641355364609196
3411729 13 18413107238947240534
34797466 226 17988934378581344269
392239 28 18410576188775746563
4093350 32 16271378404937525621
4325135 7 18060413617425190509
5104073 3 18191313685068285577
59755656 215 18412826880562046901

> <PUBCHEM_SHAPE_MULTIPOLES>
617.46
15.61
2.97
1.55
0.3
0.09
0.07
8.42
-2.96
-1.4
0.14
-0.61
-0.42
-0.13

> <PUBCHEM_SHAPE_SELFOVERLAP>
1287.409

> <PUBCHEM_SHAPE_VOLUME>
344.1

> <PUBCHEM_COORDINATE_TYPE>
2
5
10

$$$$
