102333891
  -OEChem-03292013293D

 32 34  0     0  0  0  0  0  0999 V2000
   -2.5489   -2.4783    0.2943 S   0  0  0  0  0  0  0  0  0  0  0  0
   -1.9007   -1.3477   -0.7013 O   0  0  0  0  0  0  0  0  0  0  0  0
    4.8178   -0.4287    0.0422 O   0  0  0  0  0  0  0  0  0  0  0  0
   -1.5323   -3.7486    0.1630 O   0  0  0  0  0  0  0  0  0  0  0  0
    3.3321   -2.1251   -0.4203 O   0  0  0  0  0  0  0  0  0  0  0  0
   -2.4885   -1.9981    1.6626 O   0  0  0  0  0  0  0  0  0  0  0  0
   -3.8212   -2.8808   -0.2765 O   0  0  0  0  0  0  0  0  0  0  0  0
   -0.3229    2.9227    0.2812 N   0  0  0  0  0  0  0  0  0  0  0  0
    3.0048    1.3321    0.2420 N   0  0  0  0  0  0  0  0  0  0  0  0
   -1.1417    0.9016   -0.1893 C   0  0  0  0  0  0  0  0  0  0  0  0
    0.2828    0.8082   -0.0901 C   0  0  0  0  0  0  0  0  0  0  0  0
   -1.4893    2.2321    0.0479 C   0  0  0  0  0  0  0  0  0  0  0  0
    0.7624    2.0840    0.2046 C   0  0  0  0  0  0  0  0  0  0  0  0
   -2.1694   -0.0262   -0.4592 C   0  0  0  0  0  0  0  0  0  0  0  0
    1.2079   -0.2393   -0.2220 C   0  0  0  0  0  0  0  0  0  0  0  0
   -2.8143    2.6831    0.0296 C   0  0  0  0  0  0  0  0  0  0  0  0
    2.1165    2.3445    0.3693 C   0  0  0  0  0  0  0  0  0  0  0  0
   -3.4991    0.4099   -0.4810 C   0  0  0  0  0  0  0  0  0  0  0  0
   -3.8144    1.7450   -0.2396 C   0  0  0  0  0  0  0  0  0  0  0  0
    2.5440    0.0935   -0.0437 C   0  0  0  0  0  0  0  0  0  0  0  0
    3.5634   -0.9356   -0.1637 C   0  0  0  0  0  0  0  0  0  0  0  0
    5.9111   -1.3485   -0.0501 C   0  0  0  0  0  0  0  0  0  0  0  0
   -0.2721    3.9117    0.4828 H   0  0  0  0  0  0  0  0  0  0  0  0
    0.8865   -1.2494   -0.4497 H   0  0  0  0  0  0  0  0  0  0  0  0
   -3.0605    3.7230    0.2164 H   0  0  0  0  0  0  0  0  0  0  0  0
    2.5123    3.3253    0.5979 H   0  0  0  0  0  0  0  0  0  0  0  0
   -4.3074   -0.2817   -0.7020 H   0  0  0  0  0  0  0  0  0  0  0  0
   -4.8532    2.0643   -0.2645 H   0  0  0  0  0  0  0  0  0  0  0  0
   -1.7684   -4.5352    0.7086 H   0  0  0  0  0  0  0  0  0  0  0  0
    6.8364   -0.7975    0.1373 H   0  0  0  0  0  0  0  0  0  0  0  0
    5.9554   -1.7817   -1.0536 H   0  0  0  0  0  0  0  0  0  0  0  0
    5.8084   -2.1329    0.7055 H   0  0  0  0  0  0  0  0  0  0  0  0
  1  2  1  0  0  0  0
  1  4  1  0  0  0  0
  1  6  2  0  0  0  0
  1  7  2  0  0  0  0
  2 14  1  0  0  0  0
  3 21  1  0  0  0  0
  3 22  1  0  0  0  0
  4 29  1  0  0  0  0
  5 21  2  0  0  0  0
  8 12  1  0  0  0  0
  8 13  1  0  0  0  0
  8 23  1  0  0  0  0
  9 17  1  0  0  0  0
  9 20  2  0  0  0  0
 10 11  1  0  0  0  0
 10 12  2  0  0  0  0
 10 14  1  0  0  0  0
 11 13  1  0  0  0  0
 11 15  2  0  0  0  0
 12 16  1  0  0  0  0
 13 17  2  0  0  0  0
 14 18  2  0  0  0  0
 15 20  1  0  0  0  0
 15 24  1  0  0  0  0
 16 19  2  0  0  0  0
 16 25  1  0  0  0  0
 17 26  1  0  0  0  0
 18 19  1  0  0  0  0
 18 27  1  0  0  0  0
 19 28  1  0  0  0  0
 20 21  1  0  0  0  0
 22 30  1  0  0  0  0
 22 31  1  0  0  0  0
 22 32  1  0  0  0  0
M  END
> <PUBCHEM_COMPOUND_CID>
102333891

> <PUBCHEM_CONFORMER_RMSD>
0.6

> <PUBCHEM_CONFORMER_DIVERSEORDER>
1
8
9
14
7
6
13
10
4
5
3
2
11
12

> <PUBCHEM_MMFF94_PARTIAL_CHARGES>
27
1 1.67
12 -0.15
13 -0.15
14 0.08
15 -0.15
16 -0.15
17 0.16
18 -0.15
19 -0.15
2 -0.27
20 0.4
21 0.63
22 0.28
23 0.27
24 0.15
25 0.15
26 0.15
27 0.15
28 0.15
29 0.5
3 -0.43
4 -0.68
5 -0.57
6 -0.65
7 -0.65
8 0.03
9 -0.62

> <PUBCHEM_EFFECTIVE_ROTOR_COUNT>
4

> <PUBCHEM_PHARMACOPHORE_FEATURES>
11
1 4 acceptor
1 5 acceptor
1 6 acceptor
1 7 acceptor
1 8 cation
1 8 donor
1 9 acceptor
4 1 4 6 7 anion
5 8 10 11 12 13 rings
6 10 12 14 16 18 19 rings
6 9 11 13 15 17 20 rings

> <PUBCHEM_HEAVY_ATOM_COUNT>
22

> <PUBCHEM_ATOM_DEF_STEREO_COUNT>
0

> <PUBCHEM_ATOM_UDEF_STEREO_COUNT>
0

> <PUBCHEM_BOND_DEF_STEREO_COUNT>
0

> <PUBCHEM_BOND_UDEF_STEREO_COUNT>
0

> <PUBCHEM_ISOTOPIC_ATOM_COUNT>
0

> <PUBCHEM_COMPONENT_COUNT>
1

> <PUBCHEM_CACTVS_TAUTO_COUNT>
9

> <PUBCHEM_CONFORMER_ID>
06197DC300000001

> <PUBCHEM_MMFF94_ENERGY>
51.928

> <PUBCHEM_FEATURE_SELFOVERLAP>
56.066

> <PUBCHEM_SHAPE_FINGERPRINT>
10411042 1 18267302212952871487
10616163 171 18412263913397095006
10693767 8 17769345281540145671
107951 10 17386574536002823801
10906281 52 18057619680347426972
10967382 1 18196088837459239813
1100329 8 18411700958948304729
11135609 12 18187935048248678856
11578080 2 17058631075345234937
11680986 33 18341323500155513409
12553582 1 18337941290971947720
12555020 224 18337660924260518533
12788726 201 18055348037985112752
13140716 1 18342741835842884081
13583140 156 13469873410327470399
138480 1 16465300086429227719
13911852 28 18049163568942924387
14115302 16 18261119534352065164
14223421 5 18268424818403331817
14790565 3 17979643329302374336
14844126 61 18409442579371517810
14866123 147 18410857651321664539
15042514 8 18410858728614111309
15196674 1 18413385445316935692
15422964 175 17977939417233694789
15880784 105 16486672732920970860
15927050 60 18052819153052167719
16945 1 18339921648958793773
17492 89 18338231695196521454
17859628 97 18119810205619093003
19591789 44 17906735795658765287
19930381 70 17618222806485750975
20028762 73 18201719557835355807
21267235 1 18341335500299192404
21279426 13 18263629810557942175
21478907 32 18267301109620672759
221490 88 18338800121554940136
23184049 29 18337951293681787149
23402539 116 18199738146675070252
23466295 7 18187942710560116139
23557571 272 18058734568733147524
23559900 14 18340758300208973784
23566358 27 18116728489043108925
2748010 2 18269831081001118869
3084891 72 18195804068490714741
3178227 256 18266191535148741017
335352 9 18340484465725810477
43471831 8 17833269718825567297
5104073 3 18343295973193171768
5309563 4 17833554874421192659
54173680 148 18411136956843771365
81228 2 18115587205238229393
8809292 202 18410292501637787301
9709674 26 18340198695475627421

> <PUBCHEM_SHAPE_MULTIPOLES>
411.42
8.69
3.97
0.76
10.92
1.9
-0.14
3.72
0.51
-3.35
-0.54
-0.33
0.22
0.63

> <PUBCHEM_SHAPE_SELFOVERLAP>
899.754

> <PUBCHEM_SHAPE_VOLUME>
226.8

> <PUBCHEM_COORDINATE_TYPE>
2
5
10

$$$$
