102397297
  -OEChem-03292013293D

 54 55  0     1  0  0  0  0  0999 V2000
   -1.2740    4.5396   -1.2592 O   0  0  0  0  0  0  0  0  0  0  0  0
    0.8747    0.7159    2.1615 O   0  0  0  0  0  0  0  0  0  0  0  0
    1.6082    2.7717    1.5588 O   0  0  0  0  0  0  0  0  0  0  0  0
   -3.0388   -2.4803    1.4581 O   0  0  0  0  0  0  0  0  0  0  0  0
    5.5502   -0.9653    0.7356 O   0  0  0  0  0  0  0  0  0  0  0  0
   -5.1661   -2.4155   -0.3296 O   0  0  0  0  0  0  0  0  0  0  0  0
    4.9628   -3.2319   -0.7619 O   0  0  0  0  0  0  0  0  0  0  0  0
   -0.7178    2.2805   -0.5256 C   0  0  1  0  0  0  0  0  0  0  0  0
    0.4857    1.3761   -0.1093 C   0  0  1  0  0  0  0  0  0  0  0  0
   -1.9426    2.1810    0.4222 C   0  0  0  0  0  0  0  0  0  0  0  0
    1.6526    1.3460   -1.1190 C   0  0  0  0  0  0  0  0  0  0  0  0
   -0.2421    3.7395   -0.6977 C   0  0  0  0  0  0  0  0  0  0  0  0
   -2.8008    0.9519    0.2230 C   0  0  0  0  0  0  0  0  0  0  0  0
    1.0630    1.7178    1.2618 C   0  0  0  0  0  0  0  0  0  0  0  0
    2.5372    0.1277   -1.0224 C   0  0  0  0  0  0  0  0  0  0  0  0
   -2.5249   -0.2146    0.9365 C   0  0  0  0  0  0  0  0  0  0  0  0
   -3.8689    0.9849   -0.6735 C   0  0  0  0  0  0  0  0  0  0  0  0
    3.6502    0.1389   -0.1814 C   0  0  0  0  0  0  0  0  0  0  0  0
    2.2419   -1.0101   -1.7731 C   0  0  0  0  0  0  0  0  0  0  0  0
   -3.3171   -1.3480    0.7536 C   0  0  0  0  0  0  0  0  0  0  0  0
   -4.6610   -0.1487   -0.8565 C   0  0  0  0  0  0  0  0  0  0  0  0
    4.4675   -0.9878   -0.0912 C   0  0  0  0  0  0  0  0  0  0  0  0
   -4.3853   -1.3150   -0.1429 C   0  0  0  0  0  0  0  0  0  0  0  0
    3.0594   -2.1367   -1.6831 C   0  0  0  0  0  0  0  0  0  0  0  0
    4.1722   -2.1256   -0.8421 C   0  0  0  0  0  0  0  0  0  0  0  0
   -1.9298   -2.4300    2.3537 C   0  0  0  0  0  0  0  0  0  0  0  0
    5.7812    0.2368    1.4677 C   0  0  0  0  0  0  0  0  0  0  0  0
   -6.2376   -2.2987   -1.2638 C   0  0  0  0  0  0  0  0  0  0  0  0
   -1.0540    1.9457   -1.5177 H   0  0  0  0  0  0  0  0  0  0  0  0
    0.0953    0.3515   -0.0483 H   0  0  0  0  0  0  0  0  0  0  0  0
   -2.5922    3.0554    0.2847 H   0  0  0  0  0  0  0  0  0  0  0  0
   -1.6226    2.2403    1.4701 H   0  0  0  0  0  0  0  0  0  0  0  0
    1.2480    1.3880   -2.1394 H   0  0  0  0  0  0  0  0  0  0  0  0
    2.2793    2.2424   -1.0216 H   0  0  0  0  0  0  0  0  0  0  0  0
    0.0245    4.1850    0.2646 H   0  0  0  0  0  0  0  0  0  0  0  0
    0.6184    3.8059   -1.3687 H   0  0  0  0  0  0  0  0  0  0  0  0
   -1.6898   -0.1798    1.6263 H   0  0  0  0  0  0  0  0  0  0  0  0
   -4.0915    1.8875   -1.2366 H   0  0  0  0  0  0  0  0  0  0  0  0
    3.8335    1.0517    0.3748 H   0  0  0  0  0  0  0  0  0  0  0  0
    1.3760   -1.0320   -2.4295 H   0  0  0  0  0  0  0  0  0  0  0  0
   -0.9238    5.4430   -1.3404 H   0  0  0  0  0  0  0  0  0  0  0  0
   -5.4726   -0.0505   -1.5692 H   0  0  0  0  0  0  0  0  0  0  0  0
    1.2338    0.9462    3.0447 H   0  0  0  0  0  0  0  0  0  0  0  0
    2.8172   -3.0166   -2.2730 H   0  0  0  0  0  0  0  0  0  0  0  0
    4.6057   -3.9196   -1.3498 H   0  0  0  0  0  0  0  0  0  0  0  0
   -0.9878   -2.2576    1.8214 H   0  0  0  0  0  0  0  0  0  0  0  0
   -2.0932   -1.7054    3.1587 H   0  0  0  0  0  0  0  0  0  0  0  0
   -1.8517   -3.4153    2.8250 H   0  0  0  0  0  0  0  0  0  0  0  0
    6.6799    0.0773    2.0728 H   0  0  0  0  0  0  0  0  0  0  0  0
    4.9633    0.4488    2.1649 H   0  0  0  0  0  0  0  0  0  0  0  0
    5.9927    1.0808    0.8023 H   0  0  0  0  0  0  0  0  0  0  0  0
   -6.7521   -3.2650   -1.2863 H   0  0  0  0  0  0  0  0  0  0  0  0
   -5.8698   -2.1109   -2.2783 H   0  0  0  0  0  0  0  0  0  0  0  0
   -6.9738   -1.5541   -0.9425 H   0  0  0  0  0  0  0  0  0  0  0  0
  1 12  1  0  0  0  0
  1 41  1  0  0  0  0
  2 14  1  0  0  0  0
  2 43  1  0  0  0  0
  3 14  2  0  0  0  0
  4 20  1  0  0  0  0
  4 26  1  0  0  0  0
  5 22  1  0  0  0  0
  5 27  1  0  0  0  0
  6 23  1  0  0  0  0
  6 28  1  0  0  0  0
  7 25  1  0  0  0  0
  7 45  1  0  0  0  0
  8  9  1  0  0  0  0
  8 10  1  0  0  0  0
  8 12  1  0  0  0  0
  8 29  1  0  0  0  0
  9 11  1  0  0  0  0
  9 14  1  0  0  0  0
  9 30  1  0  0  0  0
 10 13  1  0  0  0  0
 10 31  1  0  0  0  0
 10 32  1  0  0  0  0
 11 15  1  0  0  0  0
 11 33  1  0  0  0  0
 11 34  1  0  0  0  0
 12 35  1  0  0  0  0
 12 36  1  0  0  0  0
 13 16  2  0  0  0  0
 13 17  1  0  0  0  0
 15 18  2  0  0  0  0
 15 19  1  0  0  0  0
 16 20  1  0  0  0  0
 16 37  1  0  0  0  0
 17 21  2  0  0  0  0
 17 38  1  0  0  0  0
 18 22  1  0  0  0  0
 18 39  1  0  0  0  0
 19 24  2  0  0  0  0
 19 40  1  0  0  0  0
 20 23  2  0  0  0  0
 21 23  1  0  0  0  0
 21 42  1  0  0  0  0
 22 25  2  0  0  0  0
 24 25  1  0  0  0  0
 24 44  1  0  0  0  0
 26 46  1  0  0  0  0
 26 47  1  0  0  0  0
 26 48  1  0  0  0  0
 27 49  1  0  0  0  0
 27 50  1  0  0  0  0
 27 51  1  0  0  0  0
 28 52  1  0  0  0  0
 28 53  1  0  0  0  0
 28 54  1  0  0  0  0
M  END
> <PUBCHEM_COMPOUND_CID>
102397297

> <PUBCHEM_CONFORMER_RMSD>
1

> <PUBCHEM_CONFORMER_DIVERSEORDER>
1
7
63
93
38
6
102
48
121
46
95
82
12
16
64
78
106
32
51
5
119
8
79
87
74
76
89
120
27
56
118
104
49
20
110
103
83
108
17
73
80
33
22
81
11
70
117
65
107
52
115
29
39
19
97
15
66
96
91
77
105
62
114
57
75
55
112
54
123
61
90
26
31
99
68
45
53
18
9
109
44
88
2
13
34
23
41
69
50
28
25
111
85
84
24
47
72
58
60
10
40
100
101
86
30
14
98
21
42
43
94
113
71
59
35
122
4
36
92
67
37
116
3

> <PUBCHEM_MMFF94_PARTIAL_CHARGES>
36
1 -0.68
10 0.14
11 0.14
12 0.28
13 -0.14
14 0.66
15 -0.14
16 -0.15
17 -0.15
18 -0.15
19 -0.15
2 -0.65
20 0.08
21 -0.15
22 0.08
23 0.08
24 -0.15
25 0.08
26 0.28
27 0.28
28 0.28
3 -0.57
37 0.15
38 0.15
39 0.15
4 -0.36
40 0.15
41 0.4
42 0.15
43 0.5
44 0.15
45 0.45
5 -0.36
6 -0.36
7 -0.53
9 0.06

> <PUBCHEM_EFFECTIVE_ROTOR_COUNT>
10

> <PUBCHEM_PHARMACOPHORE_FEATURES>
12
1 1 acceptor
1 1 donor
1 2 acceptor
1 3 acceptor
1 4 acceptor
1 5 acceptor
1 6 acceptor
1 7 donor
3 2 3 14 anion
4 8 9 10 11 hydrophobe
6 13 16 17 20 21 23 rings
6 15 18 19 22 24 25 rings

> <PUBCHEM_HEAVY_ATOM_COUNT>
28

> <PUBCHEM_ATOM_DEF_STEREO_COUNT>
2

> <PUBCHEM_ATOM_UDEF_STEREO_COUNT>
0

> <PUBCHEM_BOND_DEF_STEREO_COUNT>
0

> <PUBCHEM_BOND_UDEF_STEREO_COUNT>
0

> <PUBCHEM_ISOTOPIC_ATOM_COUNT>
0

> <PUBCHEM_COMPONENT_COUNT>
1

> <PUBCHEM_CACTVS_TAUTO_COUNT>
107

> <PUBCHEM_CONFORMER_ID>
061A757100000001

> <PUBCHEM_MMFF94_ENERGY>
101.4054

> <PUBCHEM_FEATURE_SELFOVERLAP>
60.963

> <PUBCHEM_SHAPE_FINGERPRINT>
11828532 37 17751363013655358267
12363563 72 18339376218049658039
12596602 18 15697998552433596298
12633257 1 15625938798374947141
13402501 40 18413668006619607326
13544653 18 18130794421343533160
14251740 79 18117848693838634323
1454969 45 18339927138448874140
14848178 5 18412262817884834070
14950920 106 14835848296618829966
15352361 1 18411704283368731247
19315092 285 17059488698826099675
20775438 99 17764287837174885583
20775530 9 18268172935766796639
21315763 87 17989484147333407342
23559900 14 18118117203010561897
23572383 38 18409727378389021646
255183 313 18051427171337431713
3027735 51 18047200643790599811
4280585 95 18187356640929621736
513532 50 18265316473504229947
613672 6 18334300898014246522
633830 44 11169912831182392850

> <PUBCHEM_SHAPE_MULTIPOLES>
535.14
12.36
4.27
1.83
0.58
2.59
0.63
-11.95
-1.36
-1.23
-0.81
0.4
-0.52
1.63

> <PUBCHEM_SHAPE_SELFOVERLAP>
1118.175

> <PUBCHEM_SHAPE_VOLUME>
304

> <PUBCHEM_COORDINATE_TYPE>
2
5
10

$$$$
