102340761
  -OEChem-03292013293D

 61 64  0     1  0  0  0  0  0999 V2000
   -1.3915   -1.7854   -1.2744 S   0  0  0  0  0  0  0  0  0  0  0  0
   -6.3908    0.3124    1.0650 O   0  0  0  0  0  0  0  0  0  0  0  0
   -1.3841   -3.2282   -1.0569 O   0  0  0  0  0  0  0  0  0  0  0  0
   -1.2626   -1.2885   -2.6402 O   0  0  0  0  0  0  0  0  0  0  0  0
    1.3405   -3.3156    2.1199 O   0  0  0  0  0  0  0  0  0  0  0  0
    1.6776   -3.0910   -0.1186 O   0  0  0  0  0  0  0  0  0  0  0  0
    5.2506    2.2289    0.3712 O   0  0  0  0  0  0  0  0  0  0  0  0
   -0.1520   -1.0698   -0.3020 N   0  0  1  0  0  0  0  0  0  0  0  0
   -7.0936    1.3973    0.4299 C   0  0  0  0  0  0  0  0  0  0  0  0
   -6.1268    2.4650   -0.1077 C   0  0  0  0  0  0  0  0  0  0  0  0
   -5.1304    1.8674   -1.0909 C   0  0  0  0  0  0  0  0  0  0  0  0
   -4.5723    0.5860   -0.5466 C   0  0  0  0  0  0  0  0  0  0  0  0
   -5.2279   -0.1092    0.4763 C   0  0  0  0  0  0  0  0  0  0  0  0
   -7.9688    2.0275    1.5231 C   0  0  0  0  0  0  0  0  0  0  0  0
   -8.0120    0.8254   -0.6607 C   0  0  0  0  0  0  0  0  0  0  0  0
   -3.3933    0.0548   -1.0871 C   0  0  0  0  0  0  0  0  0  0  0  0
   -2.8638   -1.1384   -0.5955 C   0  0  0  0  0  0  0  0  0  0  0  0
   -4.6900   -1.2997    0.9736 C   0  0  0  0  0  0  0  0  0  0  0  0
   -3.5102   -1.8134    0.4374 C   0  0  0  0  0  0  0  0  0  0  0  0
   -0.0629    0.4124   -0.2849 C   0  0  0  0  0  0  0  0  0  0  0  0
    0.0920   -1.6568    1.0400 C   0  0  0  0  0  0  0  0  0  0  0  0
    1.3494    0.8958   -0.1103 C   0  0  0  0  0  0  0  0  0  0  0  0
    1.1137   -2.7446    0.9086 C   0  0  0  0  0  0  0  0  0  0  0  0
    1.6804    1.7071    0.9750 C   0  0  0  0  0  0  0  0  0  0  0  0
    2.3296    0.5326   -1.0340 C   0  0  0  0  0  0  0  0  0  0  0  0
    2.9913    2.1553    1.1367 C   0  0  0  0  0  0  0  0  0  0  0  0
    3.6405    0.9809   -0.8724 C   0  0  0  0  0  0  0  0  0  0  0  0
    3.9713    1.7922    0.2129 C   0  0  0  0  0  0  0  0  0  0  0  0
    6.2712    1.3093    0.1955 C   0  0  0  0  0  0  0  0  0  0  0  0
    6.1738    0.0411    0.7681 C   0  0  0  0  0  0  0  0  0  0  0  0
    7.3968    1.6515   -0.5539 C   0  0  0  0  0  0  0  0  0  0  0  0
    7.2019   -0.8849    0.5914 C   0  0  0  0  0  0  0  0  0  0  0  0
    8.4249    0.7255   -0.7307 C   0  0  0  0  0  0  0  0  0  0  0  0
    8.3274   -0.5426   -0.1580 C   0  0  0  0  0  0  0  0  0  0  0  0
   -5.5612    2.8921    0.7324 H   0  0  0  0  0  0  0  0  0  0  0  0
   -6.6698    3.2911   -0.5818 H   0  0  0  0  0  0  0  0  0  0  0  0
   -4.3246    2.5896   -1.2674 H   0  0  0  0  0  0  0  0  0  0  0  0
   -5.6140    1.6676   -2.0540 H   0  0  0  0  0  0  0  0  0  0  0  0
   -8.6500    1.2855    1.9558 H   0  0  0  0  0  0  0  0  0  0  0  0
   -8.7159    0.1022   -0.2323 H   0  0  0  0  0  0  0  0  0  0  0  0
   -7.4506    0.2789   -1.4253 H   0  0  0  0  0  0  0  0  0  0  0  0
   -8.5868    1.6158   -1.1543 H   0  0  0  0  0  0  0  0  0  0  0  0
   -8.5641    2.8605    1.1350 H   0  0  0  0  0  0  0  0  0  0  0  0
   -7.3524    2.3971    2.3509 H   0  0  0  0  0  0  0  0  0  0  0  0
   -2.8949    0.5910   -1.8910 H   0  0  0  0  0  0  0  0  0  0  0  0
   -5.1900   -1.8360    1.7761 H   0  0  0  0  0  0  0  0  0  0  0  0
   -3.1170   -2.7430    0.8388 H   0  0  0  0  0  0  0  0  0  0  0  0
   -0.7175    0.8084    0.5013 H   0  0  0  0  0  0  0  0  0  0  0  0
   -0.4258    0.8246   -1.2337 H   0  0  0  0  0  0  0  0  0  0  0  0
   -0.8292   -2.0756    1.4524 H   0  0  0  0  0  0  0  0  0  0  0  0
    0.4681   -0.9142    1.7499 H   0  0  0  0  0  0  0  0  0  0  0  0
    0.9277    1.9973    1.7031 H   0  0  0  0  0  0  0  0  0  0  0  0
    2.0830   -0.0923   -1.8884 H   0  0  0  0  0  0  0  0  0  0  0  0
    3.2434    2.7864    1.9845 H   0  0  0  0  0  0  0  0  0  0  0  0
    4.3778    0.7017   -1.6204 H   0  0  0  0  0  0  0  0  0  0  0  0
    2.0072   -4.0332    2.0667 H   0  0  0  0  0  0  0  0  0  0  0  0
    5.3185   -0.2445    1.3748 H   0  0  0  0  0  0  0  0  0  0  0  0
    7.4778    2.6378   -1.0023 H   0  0  0  0  0  0  0  0  0  0  0  0
    7.1285   -1.8707    1.0413 H   0  0  0  0  0  0  0  0  0  0  0  0
    9.3014    0.9920   -1.3140 H   0  0  0  0  0  0  0  0  0  0  0  0
    9.1284   -1.2632   -0.2947 H   0  0  0  0  0  0  0  0  0  0  0  0
  1  3  2  0  0  0  0
  1  4  2  0  0  0  0
  1  8  1  0  0  0  0
  1 17  1  0  0  0  0
  2  9  1  0  0  0  0
  2 13  1  0  0  0  0
  5 23  1  0  0  0  0
  5 56  1  0  0  0  0
  6 23  2  0  0  0  0
  7 28  1  0  0  0  0
  7 29  1  0  0  0  0
  8 20  1  0  0  0  0
  8 21  1  0  0  0  0
  9 10  1  0  0  0  0
  9 14  1  0  0  0  0
  9 15  1  0  0  0  0
 10 11  1  0  0  0  0
 10 35  1  0  0  0  0
 10 36  1  0  0  0  0
 11 12  1  0  0  0  0
 11 37  1  0  0  0  0
 11 38  1  0  0  0  0
 12 13  2  0  0  0  0
 12 16  1  0  0  0  0
 13 18  1  0  0  0  0
 14 39  1  0  0  0  0
 14 43  1  0  0  0  0
 14 44  1  0  0  0  0
 15 40  1  0  0  0  0
 15 41  1  0  0  0  0
 15 42  1  0  0  0  0
 16 17  2  0  0  0  0
 16 45  1  0  0  0  0
 17 19  1  0  0  0  0
 18 19  2  0  0  0  0
 18 46  1  0  0  0  0
 19 47  1  0  0  0  0
 20 22  1  0  0  0  0
 20 48  1  0  0  0  0
 20 49  1  0  0  0  0
 21 23  1  0  0  0  0
 21 50  1  0  0  0  0
 21 51  1  0  0  0  0
 22 24  2  0  0  0  0
 22 25  1  0  0  0  0
 24 26  1  0  0  0  0
 24 52  1  0  0  0  0
 25 27  2  0  0  0  0
 25 53  1  0  0  0  0
 26 28  2  0  0  0  0
 26 54  1  0  0  0  0
 27 28  1  0  0  0  0
 27 55  1  0  0  0  0
 29 30  2  0  0  0  0
 29 31  1  0  0  0  0
 30 32  1  0  0  0  0
 30 57  1  0  0  0  0
 31 33  2  0  0  0  0
 31 58  1  0  0  0  0
 32 34  2  0  0  0  0
 32 59  1  0  0  0  0
 33 34  1  0  0  0  0
 33 60  1  0  0  0  0
 34 61  1  0  0  0  0
M  END
> <PUBCHEM_COMPOUND_CID>
102340761

> <PUBCHEM_CONFORMER_RMSD>
1

> <PUBCHEM_CONFORMER_DIVERSEORDER>
2
168
61
76
208
255
229
126
167
59
203
114
52
124
216
236
161
250
175
16
141
13
237
254
247
253
169
115
206
60
123
222
172
137
183
22
94
95
91
45
9
112
238
228
151
170
24
211
213
19
93
251
155
125
142
71
221
210
105
116
144
10
186
38
17
72
88
147
74
127
86
242
231
66
224
69
132
90
87
73
182
70
173
187
79
232
23
68
110
165
241
134
136
129
21
103
56
49
226
185
159
154
11
82
204
128
27
63
99
225
89
223
194
42
234
227
53
92
199
75
119
162
146
174
109
108
118
62
67
217
150
5
200
201
135
46
15
83
64
181
207
152
190
101
97
40
117
54
218
205
163
58
177
33
239
37
113
219
160
249
12
98
189
243
248
107
179
84
50
198
81
202
85
153
100
138
215
209
35
180
192
158
178
145
191
30
43
120
140
57
171
14
39
6
96
47
156
55
240
25
34
244
230
41
122
176
193
80
131
149
65
51
31
130
184
164
245
166
78
106
28
188
212
195
148
29
121
32
102
36
157
48
7
8
214
143
235
18
3
133
77
196
20
1
111
104
233
220
26
44
139
197
4
246
252

> <PUBCHEM_MMFF94_PARTIAL_CHARGES>
44
1 1.45
11 0.14
12 -0.14
13 0.08
16 -0.15
17 -0.01
18 -0.15
19 -0.15
2 -0.36
20 0.5
21 0.42
22 -0.14
23 0.66
24 -0.15
25 -0.15
26 -0.15
27 -0.15
28 0.08
29 0.08
3 -0.65
30 -0.15
31 -0.15
32 -0.15
33 -0.15
34 -0.15
4 -0.65
45 0.15
46 0.15
47 0.15
5 -0.65
52 0.15
53 0.15
54 0.15
55 0.15
56 0.5
57 0.15
58 0.15
59 0.15
6 -0.57
60 0.15
61 0.15
7 -0.17
8 -0.85
9 0.28

> <PUBCHEM_EFFECTIVE_ROTOR_COUNT>
8.8

> <PUBCHEM_PHARMACOPHORE_FEATURES>
12
1 2 acceptor
1 3 acceptor
1 4 acceptor
1 5 acceptor
1 6 acceptor
1 7 acceptor
3 5 6 23 anion
3 9 14 15 hydrophobe
6 12 13 16 17 18 19 rings
6 2 9 10 11 12 13 rings
6 22 24 25 26 27 28 rings
6 29 30 31 32 33 34 rings

> <PUBCHEM_HEAVY_ATOM_COUNT>
34

> <PUBCHEM_ATOM_DEF_STEREO_COUNT>
0

> <PUBCHEM_ATOM_UDEF_STEREO_COUNT>
0

> <PUBCHEM_BOND_DEF_STEREO_COUNT>
0

> <PUBCHEM_BOND_UDEF_STEREO_COUNT>
0

> <PUBCHEM_ISOTOPIC_ATOM_COUNT>
0

> <PUBCHEM_COMPONENT_COUNT>
1

> <PUBCHEM_CACTVS_TAUTO_COUNT>
2

> <PUBCHEM_CONFORMER_ID>
0619989900000002

> <PUBCHEM_MMFF94_ENERGY>
93.8297

> <PUBCHEM_FEATURE_SELFOVERLAP>
61.005

> <PUBCHEM_SHAPE_FINGERPRINT>
10 15 17967533467532214153
10670039 82 16630530609875629481
10674148 151 18409727383844213944
10930396 42 12679171658576263286
11135926 11 18335132073296960797
11578080 2 16952227851801587111
13914758 101 15770064921469154424
14117953 113 17704080582181665196
14257110 125 18342736330507037949
14849402 71 18333449837280241576
14856354 85 17022904596478795939
15183329 4 17917713517625093972
15289351 153 18341608196499744512
15301273 46 16588017992296773647
15728490 51 11025802007152239960
15849732 13 17894632565356014788
16628084 112 18115580436701969946
18335252 98 11891327652375126040
19311894 1 17986382498108731239
20105231 36 16008749104671169200
21033648 144 18335130965812544823
21033648 29 18199176455199892249
21150785 3 10087641498432643060
21365058 27 15719109171766254904
21756936 100 18341327885928714879
21774942 28 17346329141418793369
22149856 69 13262943088882285644
22889206 1 17896027746595858995
23559900 14 18196645414731226864
24893992 56 18271524286727919129
2747138 104 12973604460506428852
2838139 119 18201716284595489773
3411729 13 18408886204986425063
3633792 109 16128107658792050260
4093350 32 17632016342896023726
4149490 64 10735292378072235821
4169191 19 18337387146113102173
4280585 95 11167944662577074435
437795 51 17748826272483054090
4408954 64 15072317208529809090
4625314 4 8790345330138674898
474113 269 14907911419207816260
5265222 85 18191031312591135332
5381727 24 17989485239098645639
5385378 56 18334014956213292035
57303763 176 17273430369540863696
59755656 520 18410285947586226863
6004065 56 9655570821266540970
6086070 43 17417802993486920379
6371380 46 18272649086685309920
7226269 152 18202566211120083272
9962374 69 8934702385177554337
9982175 41 16009574773801302277

> <PUBCHEM_SHAPE_MULTIPOLES>
663.36
24.64
3.2
1.44
9.85
1.9
0.15
-15.5
-2.01
-0.56
-0.67
-0.85
0.49
-0.82

> <PUBCHEM_SHAPE_SELFOVERLAP>
1417.789

> <PUBCHEM_SHAPE_VOLUME>
367.6

> <PUBCHEM_COORDINATE_TYPE>
2
5
10

$$$$
