102367614
  -OEChem-03292013293D

 78 80  0     1  0  0  0  0  0999 V2000
   -5.8117    1.3285   -1.3405 O   0  0  0  0  0  0  0  0  0  0  0  0
   -2.7274   -1.7906    0.6318 O   0  0  0  0  0  0  0  0  0  0  0  0
   -0.1628   -4.1502   -0.1191 O   0  0  0  0  0  0  0  0  0  0  0  0
   -7.5480    0.5472    0.7598 O   0  0  0  0  0  0  0  0  0  0  0  0
   -3.8035    3.0686   -1.2849 O   0  0  0  0  0  0  0  0  0  0  0  0
    6.4148    1.8594    0.9321 O   0  0  0  0  0  0  0  0  0  0  0  0
    7.9682    1.0777   -1.3612 O   0  0  0  0  0  0  0  0  0  0  0  0
    0.4146   -0.4531   -0.3560 C   0  0  2  0  0  0  0  0  0  0  0  0
    1.7139   -0.3883    0.4905 C   0  0  2  0  0  0  0  0  0  0  0  0
   -0.6175    0.0400    0.6948 C   0  0  1  0  0  0  0  0  0  0  0  0
    1.5891    0.9202    1.2841 C   0  0  0  0  0  0  0  0  0  0  0  0
    0.0890    1.2040    1.4037 C   0  0  0  0  0  0  0  0  0  0  0  0
    3.0296   -0.4802   -0.2715 C   0  0  1  0  0  0  0  0  0  0  0  0
    0.1100   -1.8894   -0.8066 C   0  0  0  0  0  0  0  0  0  0  0  0
   -1.9728    0.3976    0.1785 C   0  0  0  0  0  0  0  0  0  0  0  0
   -4.3226   -0.4380   -0.5966 C   0  0  1  0  0  0  0  0  0  0  0  0
    0.4719    0.4514   -1.6044 C   0  0  0  0  0  0  0  0  0  0  0  0
   -4.7721    1.0306   -0.4093 C   0  0  2  0  0  0  0  0  0  0  0  0
   -2.9953   -0.6943    0.1379 C   0  0  0  0  0  0  0  0  0  0  0  0
    4.2264    0.0579    0.5402 C   0  0  0  0  0  0  0  0  0  0  0  0
   -5.4213   -1.4064   -0.0873 C   0  0  0  0  0  0  0  0  0  0  0  0
   -5.2801    1.3235    1.0213 C   0  0  0  0  0  0  0  0  0  0  0  0
   -2.2724    1.6293   -0.2499 C   0  0  0  0  0  0  0  0  0  0  0  0
    3.2971   -1.9335   -0.6787 C   0  0  0  0  0  0  0  0  0  0  0  0
   -3.6308    1.9928   -0.7145 C   0  0  0  0  0  0  0  0  0  0  0  0
    0.1049   -2.8432    0.3696 C   0  0  0  0  0  0  0  0  0  0  0  0
   -5.8808   -1.1042    1.3404 C   0  0  0  0  0  0  0  0  0  0  0  0
   -6.3474    0.3387    1.4985 C   0  0  2  0  0  0  0  0  0  0  0  0
   -4.0618   -0.7783   -2.0831 C   0  0  0  0  0  0  0  0  0  0  0  0
    5.5710   -0.0907   -0.1889 C   0  0  0  0  0  0  0  0  0  0  0  0
    6.7343    0.4985    0.6247 C   0  0  1  0  0  0  0  0  0  0  0  0
    8.1126    0.4434   -0.0809 C   0  0  0  0  0  0  0  0  0  0  0  0
    8.5898   -0.9847   -0.3593 C   0  0  0  0  0  0  0  0  0  0  0  0
    9.1912    1.2154    0.6849 C   0  0  0  0  0  0  0  0  0  0  0  0
    1.7223   -1.1515    1.2753 H   0  0  0  0  0  0  0  0  0  0  0  0
   -0.7431   -0.6921    1.4993 H   0  0  0  0  0  0  0  0  0  0  0  0
    2.0480    1.7640    0.7556 H   0  0  0  0  0  0  0  0  0  0  0  0
    2.0577    0.8472    2.2717 H   0  0  0  0  0  0  0  0  0  0  0  0
   -0.2098    1.2483    2.4584 H   0  0  0  0  0  0  0  0  0  0  0  0
   -0.0912    2.2007    0.9967 H   0  0  0  0  0  0  0  0  0  0  0  0
    2.9931    0.1249   -1.1829 H   0  0  0  0  0  0  0  0  0  0  0  0
    0.7382   -2.2426   -1.6236 H   0  0  0  0  0  0  0  0  0  0  0  0
   -0.8860   -1.9197   -1.2693 H   0  0  0  0  0  0  0  0  0  0  0  0
    0.7352    1.4854   -1.3609 H   0  0  0  0  0  0  0  0  0  0  0  0
   -0.4872    0.4641   -2.1335 H   0  0  0  0  0  0  0  0  0  0  0  0
    1.2022    0.0837   -2.3331 H   0  0  0  0  0  0  0  0  0  0  0  0
    4.0782    1.1192    0.7596 H   0  0  0  0  0  0  0  0  0  0  0  0
    4.2834   -0.4647    1.5038 H   0  0  0  0  0  0  0  0  0  0  0  0
   -5.0704   -2.4454   -0.1294 H   0  0  0  0  0  0  0  0  0  0  0  0
   -6.2933   -1.3559   -0.7531 H   0  0  0  0  0  0  0  0  0  0  0  0
   -5.7015    2.3372    1.0528 H   0  0  0  0  0  0  0  0  0  0  0  0
   -4.4445    1.3046    1.7321 H   0  0  0  0  0  0  0  0  0  0  0  0
   -1.5544    2.4363   -0.3149 H   0  0  0  0  0  0  0  0  0  0  0  0
    3.3572   -2.5925    0.1935 H   0  0  0  0  0  0  0  0  0  0  0  0
    2.5704   -2.3343   -1.3736 H   0  0  0  0  0  0  0  0  0  0  0  0
    4.2335   -2.0364   -1.2331 H   0  0  0  0  0  0  0  0  0  0  0  0
    1.0801   -2.9305    0.8472 H   0  0  0  0  0  0  0  0  0  0  0  0
   -0.6313   -2.6407    1.1425 H   0  0  0  0  0  0  0  0  0  0  0  0
   -6.6982   -1.7900    1.5934 H   0  0  0  0  0  0  0  0  0  0  0  0
   -5.0634   -1.3037    2.0430 H   0  0  0  0  0  0  0  0  0  0  0  0
   -6.5785    0.5398    2.5506 H   0  0  0  0  0  0  0  0  0  0  0  0
   -4.9729   -0.6941   -2.6853 H   0  0  0  0  0  0  0  0  0  0  0  0
   -3.6911   -1.8050   -2.1893 H   0  0  0  0  0  0  0  0  0  0  0  0
   -3.3059   -0.1216   -2.5274 H   0  0  0  0  0  0  0  0  0  0  0  0
    5.7992   -1.1438   -0.3640 H   0  0  0  0  0  0  0  0  0  0  0  0
    5.4942    0.4114   -1.1605 H   0  0  0  0  0  0  0  0  0  0  0  0
   -6.1378    2.2260   -1.1569 H   0  0  0  0  0  0  0  0  0  0  0  0
    6.8040   -0.0280    1.5842 H   0  0  0  0  0  0  0  0  0  0  0  0
   -0.1470   -4.7529    0.6440 H   0  0  0  0  0  0  0  0  0  0  0  0
   -8.2108   -0.0813    1.0932 H   0  0  0  0  0  0  0  0  0  0  0  0
    6.3748    2.3479    0.0919 H   0  0  0  0  0  0  0  0  0  0  0  0
    9.5770   -0.9832   -0.8365 H   0  0  0  0  0  0  0  0  0  0  0  0
   10.1539    1.1696    0.1624 H   0  0  0  0  0  0  0  0  0  0  0  0
    9.3281    0.8122    1.6934 H   0  0  0  0  0  0  0  0  0  0  0  0
    8.9427    2.2795    0.7635 H   0  0  0  0  0  0  0  0  0  0  0  0
    8.6574   -1.5683    0.5644 H   0  0  0  0  0  0  0  0  0  0  0  0
    7.9232   -1.5038   -1.0558 H   0  0  0  0  0  0  0  0  0  0  0  0
    8.8320    1.0585   -1.8077 H   0  0  0  0  0  0  0  0  0  0  0  0
  1 18  1  0  0  0  0
  1 67  1  0  0  0  0
  2 19  2  0  0  0  0
  3 26  1  0  0  0  0
  3 69  1  0  0  0  0
  4 28  1  0  0  0  0
  4 70  1  0  0  0  0
  5 25  2  0  0  0  0
  6 31  1  0  0  0  0
  6 71  1  0  0  0  0
  7 32  1  0  0  0  0
  7 78  1  0  0  0  0
  8  9  1  0  0  0  0
  8 10  1  0  0  0  0
  8 14  1  0  0  0  0
  8 17  1  0  0  0  0
  9 11  1  0  0  0  0
  9 13  1  0  0  0  0
  9 35  1  0  0  0  0
 10 12  1  0  0  0  0
 10 15  1  0  0  0  0
 10 36  1  0  0  0  0
 11 12  1  0  0  0  0
 11 37  1  0  0  0  0
 11 38  1  0  0  0  0
 12 39  1  0  0  0  0
 12 40  1  0  0  0  0
 13 20  1  0  0  0  0
 13 24  1  0  0  0  0
 13 41  1  0  0  0  0
 14 26  1  0  0  0  0
 14 42  1  0  0  0  0
 14 43  1  0  0  0  0
 15 19  1  0  0  0  0
 15 23  2  0  0  0  0
 16 18  1  0  0  0  0
 16 19  1  0  0  0  0
 16 21  1  0  0  0  0
 16 29  1  0  0  0  0
 17 44  1  0  0  0  0
 17 45  1  0  0  0  0
 17 46  1  0  0  0  0
 18 22  1  0  0  0  0
 18 25  1  0  0  0  0
 20 30  1  0  0  0  0
 20 47  1  0  0  0  0
 20 48  1  0  0  0  0
 21 27  1  0  0  0  0
 21 49  1  0  0  0  0
 21 50  1  0  0  0  0
 22 28  1  0  0  0  0
 22 51  1  0  0  0  0
 22 52  1  0  0  0  0
 23 25  1  0  0  0  0
 23 53  1  0  0  0  0
 24 54  1  0  0  0  0
 24 55  1  0  0  0  0
 24 56  1  0  0  0  0
 26 57  1  0  0  0  0
 26 58  1  0  0  0  0
 27 28  1  0  0  0  0
 27 59  1  0  0  0  0
 27 60  1  0  0  0  0
 28 61  1  0  0  0  0
 29 62  1  0  0  0  0
 29 63  1  0  0  0  0
 29 64  1  0  0  0  0
 30 31  1  0  0  0  0
 30 65  1  0  0  0  0
 30 66  1  0  0  0  0
 31 32  1  0  0  0  0
 31 68  1  0  0  0  0
 32 33  1  0  0  0  0
 32 34  1  0  0  0  0
 33 72  1  0  0  0  0
 33 76  1  0  0  0  0
 33 77  1  0  0  0  0
 34 73  1  0  0  0  0
 34 74  1  0  0  0  0
 34 75  1  0  0  0  0
M  END
> <PUBCHEM_COMPOUND_CID>
102367614

> <PUBCHEM_CONFORMER_RMSD>
1

> <PUBCHEM_CONFORMER_DIVERSEORDER>
1
36
19
101
92
110
62
79
81
59
96
14
45
39
17
100
102
95
20
86
78
84
85
5
109
61
97
91
75
41
112
43
111
88
50
46
27
99
94
73
32
64
22
60
107
16
83
113
114
80
70
35
48
40
69
53
3
103
65
82
49
33
30
76
67
98
58
42
55
52
66
77
108
24
89
15
57
105
56
31
51
54
44
90
7
74
26
47
71
72
29
6
104
63
4
87
23
21
106
18
10
28
34
93
8
25
13
9
37
12
68
38
2
11

> <PUBCHEM_MMFF94_PARTIAL_CHARGES>
24
1 -0.68
10 0.14
15 -0.12
16 0.06
18 0.34
19 0.49
2 -0.57
23 -0.14
25 0.49
26 0.28
28 0.28
3 -0.68
31 0.28
32 0.28
4 -0.68
5 -0.57
53 0.15
6 -0.68
67 0.4
69 0.4
7 -0.68
70 0.4
71 0.4
78 0.4

> <PUBCHEM_EFFECTIVE_ROTOR_COUNT>
9.8

> <PUBCHEM_PHARMACOPHORE_FEATURES>
17
1 1 acceptor
1 1 donor
1 2 acceptor
1 24 hydrophobe
1 3 acceptor
1 3 donor
1 4 acceptor
1 4 donor
1 5 acceptor
1 6 acceptor
1 6 donor
1 7 acceptor
1 7 donor
3 32 33 34 hydrophobe
5 8 9 10 11 12 rings
6 15 16 18 19 23 25 rings
6 16 18 21 22 27 28 rings

> <PUBCHEM_HEAVY_ATOM_COUNT>
34

> <PUBCHEM_ATOM_DEF_STEREO_COUNT>
5

> <PUBCHEM_ATOM_UDEF_STEREO_COUNT>
3

> <PUBCHEM_BOND_DEF_STEREO_COUNT>
0

> <PUBCHEM_BOND_UDEF_STEREO_COUNT>
0

> <PUBCHEM_ISOTOPIC_ATOM_COUNT>
0

> <PUBCHEM_COMPONENT_COUNT>
1

> <PUBCHEM_CACTVS_TAUTO_COUNT>
7

> <PUBCHEM_CONFORMER_ID>
061A017E00000001

> <PUBCHEM_MMFF94_ENERGY>
114.7308

> <PUBCHEM_FEATURE_SELFOVERLAP>
86.36

> <PUBCHEM_SHAPE_FINGERPRINT>
10 15 18260266334755832785
10165383 225 18343023277324558643
10369192 42 18412262826506216047
10411042 1 17903920307691131747
11007060 377 18342167925306983954
11135926 11 17418092088031013550
11315181 36 18059855069702627001
12082328 90 18259984860074488438
12643181 29 10663817472998200628
13726171 33 18264489473494425001
14251764 18 14418137322867776816
14856354 85 18261675973488629919
15021287 119 17095805511735154886
15183329 4 17989201530380218608
15461852 350 13695593260394733186
15849732 13 18113056043545077246
18608769 82 18410858793492808379
18681886 176 18334569183056590472
19611394 137 17896613953479741352
21521721 280 18343586226444718594
21792961 116 18272089353968283448
23559900 14 18130780213939969184
249057 3 18409449219997261004
25019877 29 18341897389865243022
3418910 222 17968674773324036572
4258327 124 17969800734050672924
4340502 62 18410576176175992566
44280117 145 17773310343054207558
5104073 3 18189616034245051667
5265222 85 18338799030648986778
57527295 17 18058432224779429117
5758199 1 18342178860414915242
7226269 152 18202001036325993466
9663363 56 17894914036844574321

> <PUBCHEM_SHAPE_MULTIPOLES>
658.62
23.13
2.53
1.39
43.57
1.52
0.24
-8
-1.68
-1.13
0.23
-1.31
-0.29
1.08

> <PUBCHEM_SHAPE_SELFOVERLAP>
1374.484

> <PUBCHEM_SHAPE_VOLUME>
370.8

> <PUBCHEM_COORDINATE_TYPE>
2
5
10

$$$$
