102366115
  -OEChem-03292013293D

 45 48  0     0  0  0  0  0  0999 V2000
    3.5242    2.3194   -0.0221 O   0  0  0  0  0  0  0  0  0  0  0  0
    4.8714   -0.0753    0.0522 O   0  0  0  0  0  0  0  0  0  0  0  0
    0.8038    2.2741   -0.0538 O   0  0  0  0  0  0  0  0  0  0  0  0
    3.3879   -2.3981    0.0959 O   0  0  0  0  0  0  0  0  0  0  0  0
   -3.9571    4.5583   -0.1523 O   0  0  0  0  0  0  0  0  0  0  0  0
   -1.7601   -3.4425    0.0688 N   0  0  0  0  0  0  0  0  0  0  0  0
   -2.8574   -1.5114    0.0085 N   0  0  0  0  0  0  0  0  0  0  0  0
   -4.1077   -3.5640    0.0481 N   0  0  0  0  0  0  0  0  0  0  0  0
   -0.7968   -0.0603   -0.0077 C   0  0  0  0  0  0  0  0  0  0  0  0
   -0.7919   -2.4711    0.0538 C   0  0  0  0  0  0  0  0  0  0  0  0
    0.6090   -0.0969    0.0074 C   0  0  0  0  0  0  0  0  0  0  0  0
   -1.5015   -1.2761    0.0163 C   0  0  0  0  0  0  0  0  0  0  0  0
    1.2944   -1.3150    0.0458 C   0  0  0  0  0  0  0  0  0  0  0  0
    0.6022   -2.5373    0.0698 C   0  0  0  0  0  0  0  0  0  0  0  0
   -1.6154    1.1329   -0.0453 C   0  0  0  0  0  0  0  0  0  0  0  0
    1.3521    1.1785   -0.0182 C   0  0  0  0  0  0  0  0  0  0  0  0
   -2.9765   -2.8197    0.0406 C   0  0  0  0  0  0  0  0  0  0  0  0
    2.7708   -1.3396    0.0620 C   0  0  0  0  0  0  0  0  0  0  0  0
    2.8341    1.1218   -0.0002 C   0  0  0  0  0  0  0  0  0  0  0  0
    3.4901   -0.0427    0.0366 C   0  0  0  0  0  0  0  0  0  0  0  0
   -1.5195   -4.8686    0.1076 C   0  0  0  0  0  0  0  0  0  0  0  0
   -1.9976    1.6786   -1.2708 C   0  0  0  0  0  0  0  0  0  0  0  0
   -2.0205    1.7380    1.1443 C   0  0  0  0  0  0  0  0  0  0  0  0
   -2.7848    2.8294   -1.3066 C   0  0  0  0  0  0  0  0  0  0  0  0
   -2.8077    2.8890    1.1086 C   0  0  0  0  0  0  0  0  0  0  0  0
   -3.1898    3.4346   -0.1169 C   0  0  0  0  0  0  0  0  0  0  0  0
    3.7587    2.7848    1.2917 C   0  0  0  0  0  0  0  0  0  0  0  0
    5.3853   -0.1209   -1.2639 C   0  0  0  0  0  0  0  0  0  0  0  0
    1.1223   -3.4879    0.0994 H   0  0  0  0  0  0  0  0  0  0  0  0
   -1.9817   -5.2710    1.0129 H   0  0  0  0  0  0  0  0  0  0  0  0
   -1.9639   -5.3169   -0.7850 H   0  0  0  0  0  0  0  0  0  0  0  0
   -0.4497   -5.0810    0.1235 H   0  0  0  0  0  0  0  0  0  0  0  0
   -1.6895    1.2197   -2.2073 H   0  0  0  0  0  0  0  0  0  0  0  0
   -1.7302    1.3260    2.1080 H   0  0  0  0  0  0  0  0  0  0  0  0
   -5.0237   -3.1271    0.0276 H   0  0  0  0  0  0  0  0  0  0  0  0
   -4.1089   -4.5785    0.0739 H   0  0  0  0  0  0  0  0  0  0  0  0
   -3.0790    3.2501   -2.2643 H   0  0  0  0  0  0  0  0  0  0  0  0
   -3.1162    3.3512    2.0424 H   0  0  0  0  0  0  0  0  0  0  0  0
    4.2850    3.7418    1.2248 H   0  0  0  0  0  0  0  0  0  0  0  0
    4.3934    2.0925    1.8557 H   0  0  0  0  0  0  0  0  0  0  0  0
    2.8201    2.9552    1.8306 H   0  0  0  0  0  0  0  0  0  0  0  0
    6.4768   -0.1666   -1.2015 H   0  0  0  0  0  0  0  0  0  0  0  0
    5.0421   -1.0142   -1.7975 H   0  0  0  0  0  0  0  0  0  0  0  0
    5.1197    0.7785   -1.8303 H   0  0  0  0  0  0  0  0  0  0  0  0
   -4.1436    4.8411    0.7595 H   0  0  0  0  0  0  0  0  0  0  0  0
  1 19  1  0  0  0  0
  1 27  1  0  0  0  0
  2 20  1  0  0  0  0
  2 28  1  0  0  0  0
  3 16  2  0  0  0  0
  4 18  2  0  0  0  0
  5 26  1  0  0  0  0
  5 45  1  0  0  0  0
  6 10  1  0  0  0  0
  6 17  1  0  0  0  0
  6 21  1  0  0  0  0
  7 12  1  0  0  0  0
  7 17  2  0  0  0  0
  8 17  1  0  0  0  0
  8 35  1  0  0  0  0
  8 36  1  0  0  0  0
  9 11  2  0  0  0  0
  9 12  1  0  0  0  0
  9 15  1  0  0  0  0
 10 12  2  0  0  0  0
 10 14  1  0  0  0  0
 11 13  1  0  0  0  0
 11 16  1  0  0  0  0
 13 14  2  0  0  0  0
 13 18  1  0  0  0  0
 14 29  1  0  0  0  0
 15 22  2  0  0  0  0
 15 23  1  0  0  0  0
 16 19  1  0  0  0  0
 18 20  1  0  0  0  0
 19 20  2  0  0  0  0
 21 30  1  0  0  0  0
 21 31  1  0  0  0  0
 21 32  1  0  0  0  0
 22 24  1  0  0  0  0
 22 33  1  0  0  0  0
 23 25  2  0  0  0  0
 23 34  1  0  0  0  0
 24 26  2  0  0  0  0
 24 37  1  0  0  0  0
 25 26  1  0  0  0  0
 25 38  1  0  0  0  0
 27 39  1  0  0  0  0
 27 40  1  0  0  0  0
 27 41  1  0  0  0  0
 28 42  1  0  0  0  0
 28 43  1  0  0  0  0
 28 44  1  0  0  0  0
M  END
> <PUBCHEM_COMPOUND_CID>
102366115

> <PUBCHEM_CONFORMER_RMSD>
0.8

> <PUBCHEM_CONFORMER_DIVERSEORDER>
1

> <PUBCHEM_MMFF94_PARTIAL_CHARGES>
34
1 -0.36
10 -0.15
11 0.09
12 0.23
13 0.09
14 -0.15
16 0.47
17 0.27
18 0.47
19 0.09
2 -0.36
20 0.09
21 0.26
22 -0.15
23 -0.15
24 -0.15
25 -0.15
26 0.08
27 0.28
28 0.28
29 0.15
3 -0.57
33 0.15
34 0.15
35 0.4
36 0.4
37 0.15
38 0.15
4 -0.57
45 0.45
5 -0.53
6 0.05
7 -0.57
8 -0.88

> <PUBCHEM_EFFECTIVE_ROTOR_COUNT>
3

> <PUBCHEM_PHARMACOPHORE_FEATURES>
11
1 1 acceptor
1 2 acceptor
1 3 acceptor
1 4 acceptor
1 5 donor
1 8 donor
4 6 7 8 17 cation
5 6 7 10 12 17 rings
6 11 13 16 18 19 20 rings
6 15 22 23 24 25 26 rings
6 9 10 11 12 13 14 rings

> <PUBCHEM_HEAVY_ATOM_COUNT>
28

> <PUBCHEM_ATOM_DEF_STEREO_COUNT>
0

> <PUBCHEM_ATOM_UDEF_STEREO_COUNT>
0

> <PUBCHEM_BOND_DEF_STEREO_COUNT>
0

> <PUBCHEM_BOND_UDEF_STEREO_COUNT>
0

> <PUBCHEM_ISOTOPIC_ATOM_COUNT>
0

> <PUBCHEM_COMPONENT_COUNT>
1

> <PUBCHEM_CACTVS_TAUTO_COUNT>
27

> <PUBCHEM_CONFORMER_ID>
0619FBA300000001

> <PUBCHEM_MMFF94_ENERGY>
93.0196

> <PUBCHEM_FEATURE_SELFOVERLAP>
55.966

> <PUBCHEM_SHAPE_FINGERPRINT>
10165383 225 18191598449252180988
10411042 1 18050007997656249102
10693767 8 17121122574608869071
10967382 1 17689996734897051146
1100329 8 18121777219247558290
11578080 2 17488729215840116707
11582403 64 16663434474352044429
12403259 226 18125722533302885514
12788726 201 18117268357846952530
13004483 165 18266452299070190635
13140716 1 18266452118770825914
13540713 4 18202281442468030360
13583140 156 16299510453268231772
13690498 29 18198362812938232790
138480 1 16680909939990333263
13911987 19 17472725532051259718
14178342 30 18337095865668227656
14223421 5 18340203119639790088
14363568 33 16676712618660055850
14790565 3 17907026080067697828
15230672 131 18118980096696602654
15927050 60 18195810661292388359
16087824 20 18409732898672132559
16728300 4 16018586151447662562
16988056 13 17690256620075375079
17138139 8 17768769210467020149
19591789 44 18265618676072121435
20510252 161 18268707392949400416
20600515 1 17550118394751718545
20642791 178 16891736402880941277
21033648 29 18339636716433482336
21307412 95 17554628201161415950
22907989 373 18263644124623500484
23558518 356 18261110815842377352
23559900 14 18268707397766437984
238 59 16959814370274213445
23845131 108 18192150391916137241
283562 15 18263359346885620778
3091708 16 9271776387316664291
3178227 256 17761507888840924027
350125 39 18410300185524197001
3886686 26 17977346553176150826
4058900 60 17761228621419958816
469060 322 17905897220385031152
474 4 17836641929583516537
5104073 3 18124598840988875338
59554788 170 18196940091709392262
6443956 14 17689717888820127327
7399639 24 17769370857938822312
81228 2 18187931754092859673
8272917 22 17475795356142687333
9777508 108 18411694387579666265
9981440 41 17197367417983424904

> <PUBCHEM_SHAPE_MULTIPOLES>
531.94
8.08
6.08
0.95
7.53
2.45
0.06
-3.55
0.78
-7.71
-0.43
0
-0.69
0.78

> <PUBCHEM_SHAPE_SELFOVERLAP>
1198.986

> <PUBCHEM_SHAPE_VOLUME>
280.3

> <PUBCHEM_COORDINATE_TYPE>
2
5
10

$$$$
