102394760
  -OEChem-03292013293D

 58 59  0     1  0  0  0  0  0999 V2000
    2.3319    0.6840   -0.7123 O   0  0  0  0  0  0  0  0  0  0  0  0
   -1.7012   -4.1957    0.6524 O   0  0  0  0  0  0  0  0  0  0  0  0
   -2.4994   -2.2120   -1.3362 O   0  0  0  0  0  0  0  0  0  0  0  0
    0.7923    2.4336    2.1429 O   0  0  0  0  0  0  0  0  0  0  0  0
   -3.9130    2.8746   -0.0750 O   0  0  0  0  0  0  0  0  0  0  0  0
    4.0588   -0.3587   -1.7453 O   0  0  0  0  0  0  0  0  0  0  0  0
    2.2511    1.1368    0.6751 C   0  0  2  0  0  0  0  0  0  0  0  0
    1.0359   -1.5914    0.0622 C   0  0  2  0  0  0  0  0  0  0  0  0
    2.3266   -0.0314    1.6941 C   0  0  0  0  0  0  0  0  0  0  0  0
    1.2707   -1.1359    1.5155 C   0  0  0  0  0  0  0  0  0  0  0  0
    0.1413   -2.8524   -0.0135 C   0  0  0  0  0  0  0  0  0  0  0  0
   -1.2483   -2.8277    0.6745 C   0  0  1  0  0  0  0  0  0  0  0  0
   -2.3920   -1.9460    0.0654 C   0  0  1  0  0  0  0  0  0  0  0  0
    0.9077    1.9150    0.8187 C   0  0  2  0  0  0  0  0  0  0  0  0
   -2.1213   -0.4395    0.2655 C   0  0  0  0  0  0  0  0  0  0  0  0
    0.7155    3.0595   -0.1967 C   0  0  0  0  0  0  0  0  0  0  0  0
    2.3720   -1.6932   -0.6577 C   0  0  0  0  0  0  0  0  0  0  0  0
    3.4572    2.0635    0.9060 C   0  0  0  0  0  0  0  0  0  0  0  0
   -3.2509    0.5419   -0.0787 C   0  0  0  0  0  0  0  0  0  0  0  0
   -0.7436    3.5462   -0.3290 C   0  0  0  0  0  0  0  0  0  0  0  0
   -2.7857    2.0094    0.0730 C   0  0  1  0  0  0  0  0  0  0  0  0
   -3.7488   -2.3349    0.6799 C   0  0  0  0  0  0  0  0  0  0  0  0
    3.0467   -0.4182   -1.0600 C   0  0  0  0  0  0  0  0  0  0  0  0
   -1.7078    2.5066   -0.8752 C   0  0  0  0  0  0  0  0  0  0  0  0
    3.0028   -2.8282   -0.9956 C   0  0  0  0  0  0  0  0  0  0  0  0
   -1.5987    2.0940   -2.1500 C   0  0  0  0  0  0  0  0  0  0  0  0
    0.4917   -0.8171   -0.4757 H   0  0  0  0  0  0  0  0  0  0  0  0
    2.2562    0.3545    2.7191 H   0  0  0  0  0  0  0  0  0  0  0  0
    3.3174   -0.5023    1.6327 H   0  0  0  0  0  0  0  0  0  0  0  0
    1.5760   -1.9955    2.1269 H   0  0  0  0  0  0  0  0  0  0  0  0
    0.3288   -0.7831    1.9477 H   0  0  0  0  0  0  0  0  0  0  0  0
    0.0016   -3.1336   -1.0664 H   0  0  0  0  0  0  0  0  0  0  0  0
    0.6978   -3.6914    0.4277 H   0  0  0  0  0  0  0  0  0  0  0  0
   -1.1331   -2.5708    1.7337 H   0  0  0  0  0  0  0  0  0  0  0  0
    0.0959    1.2018    0.6844 H   0  0  0  0  0  0  0  0  0  0  0  0
   -1.2976   -0.1684   -0.3892 H   0  0  0  0  0  0  0  0  0  0  0  0
   -1.8200   -0.2590    1.3035 H   0  0  0  0  0  0  0  0  0  0  0  0
    1.0732    2.7593   -1.1877 H   0  0  0  0  0  0  0  0  0  0  0  0
    1.3182    3.9219    0.1146 H   0  0  0  0  0  0  0  0  0  0  0  0
    3.4902    2.8669    0.1624 H   0  0  0  0  0  0  0  0  0  0  0  0
    4.3976    1.5117    0.7922 H   0  0  0  0  0  0  0  0  0  0  0  0
    3.4448    2.5105    1.9051 H   0  0  0  0  0  0  0  0  0  0  0  0
   -3.6473    0.3646   -1.0842 H   0  0  0  0  0  0  0  0  0  0  0  0
   -4.0965    0.3850    0.6021 H   0  0  0  0  0  0  0  0  0  0  0  0
   -0.7573    4.4148   -1.0014 H   0  0  0  0  0  0  0  0  0  0  0  0
   -1.0984    3.9268    0.6359 H   0  0  0  0  0  0  0  0  0  0  0  0
   -2.4274    2.1312    1.1032 H   0  0  0  0  0  0  0  0  0  0  0  0
   -4.5766   -1.7882    0.2156 H   0  0  0  0  0  0  0  0  0  0  0  0
   -3.7658   -2.1473    1.7583 H   0  0  0  0  0  0  0  0  0  0  0  0
   -3.9835   -3.3910    0.5065 H   0  0  0  0  0  0  0  0  0  0  0  0
   -1.0839   -4.7193    1.1914 H   0  0  0  0  0  0  0  0  0  0  0  0
   -3.2538   -1.7118   -1.6895 H   0  0  0  0  0  0  0  0  0  0  0  0
   -0.1104    2.7766    2.2509 H   0  0  0  0  0  0  0  0  0  0  0  0
    2.5948   -3.8031   -0.7548 H   0  0  0  0  0  0  0  0  0  0  0  0
    3.9542   -2.8332   -1.5179 H   0  0  0  0  0  0  0  0  0  0  0  0
   -2.2795    1.3706   -2.5826 H   0  0  0  0  0  0  0  0  0  0  0  0
   -0.8235    2.4848   -2.8012 H   0  0  0  0  0  0  0  0  0  0  0  0
   -4.5671    2.6238    0.5994 H   0  0  0  0  0  0  0  0  0  0  0  0
  1  7  1  0  0  0  0
  1 23  1  0  0  0  0
  2 12  1  0  0  0  0
  2 51  1  0  0  0  0
  3 13  1  0  0  0  0
  3 52  1  0  0  0  0
  4 14  1  0  0  0  0
  4 53  1  0  0  0  0
  5 21  1  0  0  0  0
  5 58  1  0  0  0  0
  6 23  2  0  0  0  0
  7  9  1  0  0  0  0
  7 14  1  0  0  0  0
  7 18  1  0  0  0  0
  8 10  1  0  0  0  0
  8 11  1  0  0  0  0
  8 17  1  0  0  0  0
  8 27  1  0  0  0  0
  9 10  1  0  0  0  0
  9 28  1  0  0  0  0
  9 29  1  0  0  0  0
 10 30  1  0  0  0  0
 10 31  1  0  0  0  0
 11 12  1  0  0  0  0
 11 32  1  0  0  0  0
 11 33  1  0  0  0  0
 12 13  1  0  0  0  0
 12 34  1  0  0  0  0
 13 15  1  0  0  0  0
 13 22  1  0  0  0  0
 14 16  1  0  0  0  0
 14 35  1  0  0  0  0
 15 19  1  0  0  0  0
 15 36  1  0  0  0  0
 15 37  1  0  0  0  0
 16 20  1  0  0  0  0
 16 38  1  0  0  0  0
 16 39  1  0  0  0  0
 17 23  1  0  0  0  0
 17 25  2  0  0  0  0
 18 40  1  0  0  0  0
 18 41  1  0  0  0  0
 18 42  1  0  0  0  0
 19 21  1  0  0  0  0
 19 43  1  0  0  0  0
 19 44  1  0  0  0  0
 20 24  1  0  0  0  0
 20 45  1  0  0  0  0
 20 46  1  0  0  0  0
 21 24  1  0  0  0  0
 21 47  1  0  0  0  0
 22 48  1  0  0  0  0
 22 49  1  0  0  0  0
 22 50  1  0  0  0  0
 24 26  2  0  0  0  0
 25 54  1  0  0  0  0
 25 55  1  0  0  0  0
 26 56  1  0  0  0  0
 26 57  1  0  0  0  0
M  END
> <PUBCHEM_COMPOUND_CID>
102394760

> <PUBCHEM_CONFORMER_RMSD>
0.6

> <PUBCHEM_CONFORMER_DIVERSEORDER>
1
6
3
5
4
2

> <PUBCHEM_MMFF94_PARTIAL_CHARGES>
26
1 -0.43
12 0.28
13 0.28
14 0.28
17 -0.12
2 -0.68
20 0.14
21 0.42
23 0.71
24 -0.28
25 -0.3
26 -0.3
3 -0.68
4 -0.68
5 -0.68
51 0.4
52 0.4
53 0.4
54 0.15
55 0.15
56 0.15
57 0.15
58 0.4
6 -0.57
7 0.28
8 0.14

> <PUBCHEM_EFFECTIVE_ROTOR_COUNT>
2.4

> <PUBCHEM_PHARMACOPHORE_FEATURES>
10
1 2 acceptor
1 2 donor
1 3 acceptor
1 3 donor
1 4 acceptor
1 4 donor
1 5 acceptor
1 5 donor
1 6 acceptor
7 1 7 8 9 10 17 23 rings

> <PUBCHEM_HEAVY_ATOM_COUNT>
26

> <PUBCHEM_ATOM_DEF_STEREO_COUNT>
6

> <PUBCHEM_ATOM_UDEF_STEREO_COUNT>
0

> <PUBCHEM_BOND_DEF_STEREO_COUNT>
0

> <PUBCHEM_BOND_UDEF_STEREO_COUNT>
0

> <PUBCHEM_ISOTOPIC_ATOM_COUNT>
0

> <PUBCHEM_COMPONENT_COUNT>
1

> <PUBCHEM_CACTVS_TAUTO_COUNT>
1

> <PUBCHEM_CONFORMER_ID>
061A6B8800000001

> <PUBCHEM_MMFF94_ENERGY>
93.6569

> <PUBCHEM_FEATURE_SELFOVERLAP>
50.753

> <PUBCHEM_SHAPE_FINGERPRINT>
10165383 225 18118981186683949925
10498660 4 18334572460549076031
10577160 183 17463160976183364238
10675989 125 17329397590201752020
1100329 8 18050285869102215754
11513181 2 17479185609651266814
12035759 4 16680643858193119494
12054548 360 18340216223479541310
12156800 1 16093269748677161741
12422481 6 17475774924967820032
12553582 1 18120095236981393551
12596599 1 17488732360120348869
128993 33 18337950095549383535
13122387 1 18194672683989594005
13140716 1 18337381626584261483
13402501 40 18268425904982078148
13965767 371 17552063422336510224
14114211 80 18054533325844169953
14251740 79 17764889995573061134
14251745 187 18339641273308542448
14251757 5 18193861274647796390
14931854 50 17690847752517457510
17093844 170 18266452286121816185
17357779 13 18196645413797134709
17921350 177 15363601611413553084
19591789 44 18265620875285125185
19930381 70 17401780012605012391
20600515 1 17982146952006915000
20764821 26 18337941286613676895
20775438 99 17839418424430541503
20905425 154 18339924912800862790
21141583 151 17982457001163759494
23419403 2 17632857551581056816
23536364 44 17984171208949068918
238 59 17841111684609976109
3052486 1 18260826025172129856
35225 105 18266172838469559039
3524813 1 18047476625662095767
484985 159 15951802094216917568
5939293 188 17687740962217394777
6287921 2 17405444671811905603
6443956 14 17832422373697391487

> <PUBCHEM_SHAPE_MULTIPOLES>
499.85
6.12
5.26
1.56
0.37
0.86
-0.08
0.2
-1.04
2.72
0.13
-0.83
-0.4
1.64

> <PUBCHEM_SHAPE_SELFOVERLAP>
1013.129

> <PUBCHEM_SHAPE_VOLUME>
287.6

> <PUBCHEM_COORDINATE_TYPE>
2
5
10

$$$$
