102340775
  -OEChem-03292013293D

 50 53  0     1  0  0  0  0  0999 V2000
    1.8524   -2.7378   -2.1773 Cl  0  0  0  0  0  0  0  0  0  0  0  0
    2.3192   -0.8872    2.9278 Cl  0  0  0  0  0  0  0  0  0  0  0  0
   -0.7101   -3.7606   -1.1799 F   0  0  0  0  0  0  0  0  0  0  0  0
    0.4598    0.7826   -0.4824 O   0  0  0  0  0  0  0  0  0  0  0  0
    3.1479   -0.2633   -0.9373 O   0  0  0  0  0  0  0  0  0  0  0  0
   -6.8610    0.9483    0.5263 O   0  0  0  0  0  0  0  0  0  0  0  0
   -4.7331    0.4393   -0.2736 N   0  0  0  0  0  0  0  0  0  0  0  0
    3.6754    3.2058    0.1890 N   0  0  0  0  0  0  0  0  0  0  0  0
   -6.3446   -1.2302    0.1517 N   0  0  0  0  0  0  0  0  0  0  0  0
    5.2327    1.5262   -0.4298 N   0  0  0  0  0  0  0  0  0  0  0  0
   -3.0443    2.1877    0.1468 C   0  0  0  0  0  0  0  0  0  0  0  0
   -1.9800    1.1957   -0.2470 C   0  0  0  0  0  0  0  0  0  0  0  0
   -4.3890    1.8453   -0.4870 C   0  0  0  0  0  0  0  0  0  0  0  0
   -3.7385   -0.5524   -0.7093 C   0  0  0  0  0  0  0  0  0  0  0  0
   -0.5624    1.6196   -0.1644 C   0  0  0  0  0  0  0  0  0  0  0  0
   -2.3275   -0.0430   -0.6428 C   0  0  0  0  0  0  0  0  0  0  0  0
    1.6147    1.4822   -0.2980 C   0  0  0  0  0  0  0  0  0  0  0  0
    1.3313    2.7708    0.1397 C   0  0  0  0  0  0  0  0  0  0  0  0
   -0.0829    2.8495    0.2232 C   0  0  0  0  0  0  0  0  0  0  0  0
    2.8979    1.0017   -0.5088 C   0  0  0  0  0  0  0  0  0  0  0  0
    3.3165   -1.2684    0.0628 C   0  0  1  0  0  0  0  0  0  0  0  0
   -6.0281    0.1139    0.1610 C   0  0  0  0  0  0  0  0  0  0  0  0
    2.4018    3.6330    0.3818 C   0  0  0  0  0  0  0  0  0  0  0  0
    3.8864    1.9362   -0.2397 C   0  0  0  0  0  0  0  0  0  0  0  0
    1.9709   -1.8632    0.4027 C   0  0  0  0  0  0  0  0  0  0  0  0
    4.2993   -2.3216   -0.4364 C   0  0  0  0  0  0  0  0  0  0  0  0
    1.2448   -2.5491   -0.5710 C   0  0  0  0  0  0  0  0  0  0  0  0
    1.4539   -1.7265    1.6910 C   0  0  0  0  0  0  0  0  0  0  0  0
    0.0015   -3.0981   -0.2565 C   0  0  0  0  0  0  0  0  0  0  0  0
    0.2108   -2.2754    2.0057 C   0  0  0  0  0  0  0  0  0  0  0  0
   -0.5155   -2.9610    1.0319 C   0  0  0  0  0  0  0  0  0  0  0  0
   -3.1342    2.1969    1.2402 H   0  0  0  0  0  0  0  0  0  0  0  0
   -2.7847    3.2022   -0.1751 H   0  0  0  0  0  0  0  0  0  0  0  0
   -5.1647    2.5050   -0.0849 H   0  0  0  0  0  0  0  0  0  0  0  0
   -4.3592    2.0079   -1.5720 H   0  0  0  0  0  0  0  0  0  0  0  0
   -3.9853   -0.8341   -1.7386 H   0  0  0  0  0  0  0  0  0  0  0  0
   -3.8084   -1.4448   -0.0803 H   0  0  0  0  0  0  0  0  0  0  0  0
   -1.5625   -0.7519   -0.9437 H   0  0  0  0  0  0  0  0  0  0  0  0
   -0.6584    3.7097    0.5360 H   0  0  0  0  0  0  0  0  0  0  0  0
    3.8060   -0.8148    0.9289 H   0  0  0  0  0  0  0  0  0  0  0  0
    2.2821    4.6535    0.7245 H   0  0  0  0  0  0  0  0  0  0  0  0
    5.3176   -1.9869   -0.1971 H   0  0  0  0  0  0  0  0  0  0  0  0
    4.1676   -3.2922    0.0532 H   0  0  0  0  0  0  0  0  0  0  0  0
    4.3194   -2.4431   -1.5218 H   0  0  0  0  0  0  0  0  0  0  0  0
   -5.7359   -1.9517   -0.2149 H   0  0  0  0  0  0  0  0  0  0  0  0
   -7.2596   -1.5410    0.4619 H   0  0  0  0  0  0  0  0  0  0  0  0
    5.4584    0.5443   -0.3344 H   0  0  0  0  0  0  0  0  0  0  0  0
    5.9529    2.2077   -0.2248 H   0  0  0  0  0  0  0  0  0  0  0  0
   -0.2069   -2.1770    3.0044 H   0  0  0  0  0  0  0  0  0  0  0  0
   -1.4842   -3.3869    1.2759 H   0  0  0  0  0  0  0  0  0  0  0  0
  1 27  1  0  0  0  0
  2 28  1  0  0  0  0
  3 29  1  0  0  0  0
  4 15  1  0  0  0  0
  4 17  1  0  0  0  0
  5 20  1  0  0  0  0
  5 21  1  0  0  0  0
  6 22  2  0  0  0  0
  7 13  1  0  0  0  0
  7 14  1  0  0  0  0
  7 22  1  0  0  0  0
  8 23  1  0  0  0  0
  8 24  2  0  0  0  0
  9 22  1  0  0  0  0
  9 45  1  0  0  0  0
  9 46  1  0  0  0  0
 10 24  1  0  0  0  0
 10 47  1  0  0  0  0
 10 48  1  0  0  0  0
 11 12  1  0  0  0  0
 11 13  1  0  0  0  0
 11 32  1  0  0  0  0
 11 33  1  0  0  0  0
 12 15  1  0  0  0  0
 12 16  2  0  0  0  0
 13 34  1  0  0  0  0
 13 35  1  0  0  0  0
 14 16  1  0  0  0  0
 14 36  1  0  0  0  0
 14 37  1  0  0  0  0
 15 19  2  0  0  0  0
 16 38  1  0  0  0  0
 17 18  1  0  0  0  0
 17 20  2  0  0  0  0
 18 19  1  0  0  0  0
 18 23  2  0  0  0  0
 19 39  1  0  0  0  0
 20 24  1  0  0  0  0
 21 25  1  0  0  0  0
 21 26  1  0  0  0  0
 21 40  1  0  0  0  0
 23 41  1  0  0  0  0
 25 27  1  0  0  0  0
 25 28  2  0  0  0  0
 26 42  1  0  0  0  0
 26 43  1  0  0  0  0
 26 44  1  0  0  0  0
 27 29  2  0  0  0  0
 28 30  1  0  0  0  0
 29 31  1  0  0  0  0
 30 31  2  0  0  0  0
 30 49  1  0  0  0  0
 31 50  1  0  0  0  0
M  END
> <PUBCHEM_COMPOUND_CID>
102340775

> <PUBCHEM_CONFORMER_RMSD>
0.8

> <PUBCHEM_CONFORMER_DIVERSEORDER>
6
35
45
85
51
47
84
31
38
7
55
62
26
83
59
76
71
58
36
74
40
75
18
32
81
12
53
54
24
27
86
14
78
65
23
20
60
48
42
2
13
52
68
69
1
43
70
73
34
61
82
63
37
41
80
39
4
66
28
87
10
46
5
33
21
16
64
79
8
15
56
22
3
29
50
49
57
67
17
9
44
19
11
72
77
30
25

> <PUBCHEM_MMFF94_PARTIAL_CHARGES>
38
1 -0.18
10 -0.9
11 0.14
12 -0.09
13 0.3
14 0.44
15 0.09
16 -0.29
17 0.14
19 -0.15
2 -0.18
20 0.08
21 0.42
22 0.69
23 0.16
24 0.41
25 -0.14
27 0.18
28 0.18
29 0.19
3 -0.19
30 -0.15
31 -0.15
38 0.15
39 0.15
4 -0.28
41 0.15
45 0.37
46 0.37
47 0.4
48 0.4
49 0.15
5 -0.36
50 0.15
6 -0.57
7 -0.66
8 -0.62
9 -0.8

> <PUBCHEM_EFFECTIVE_ROTOR_COUNT>
5.8

> <PUBCHEM_PHARMACOPHORE_FEATURES>
10
1 10 donor
1 4 acceptor
1 5 acceptor
1 6 acceptor
1 9 donor
3 8 10 24 cation
5 4 15 17 18 19 rings
6 25 27 28 29 30 31 rings
6 7 11 12 13 14 16 rings
6 8 17 18 20 23 24 rings

> <PUBCHEM_HEAVY_ATOM_COUNT>
31

> <PUBCHEM_ATOM_DEF_STEREO_COUNT>
1

> <PUBCHEM_ATOM_UDEF_STEREO_COUNT>
0

> <PUBCHEM_BOND_DEF_STEREO_COUNT>
0

> <PUBCHEM_BOND_UDEF_STEREO_COUNT>
0

> <PUBCHEM_ISOTOPIC_ATOM_COUNT>
0

> <PUBCHEM_COMPONENT_COUNT>
1

> <PUBCHEM_CACTVS_TAUTO_COUNT>
8

> <PUBCHEM_CONFORMER_ID>
061998A700000006

> <PUBCHEM_MMFF94_ENERGY>
89.7654

> <PUBCHEM_FEATURE_SELFOVERLAP>
50.857

> <PUBCHEM_SHAPE_FINGERPRINT>
1100329 8 18335975411743012450
11421498 54 17632306635609294393
11513181 2 18129944610424952847
11578080 2 17272836852953640634
12156800 1 17482519256145375674
12553582 1 18049430453345336101
12778500 126 16557911096555176667
131258 38 17240749680113178146
13402501 40 18334019418990040067
13692114 37 18126835225763611498
14178342 30 17763165957203671640
14955137 171 18268145366335008047
15664445 248 18125163732135229127
15721738 202 18340778117694253155
15927050 60 18196934589571267766
15968369 153 17624120999485309699
17492 54 18188791469549690206
18681886 176 18340760438859756370
20028762 73 18271806765862580382
20567600 347 18186801395862309768
20645477 70 18408602530944312877
21197605 99 18194407916689405099
21421861 104 18263926536272632089
22393880 68 18115867408582763309
23558518 356 17685489153819153724
23559900 14 18125153841036504157
238 59 18336273374592582128
239999 70 18410575041803128895
338550 245 18117563044464929261
394071 54 18339653239926082353
4340502 62 18334292106242474276
437795 51 18334590052919444483
463206 1 18410294735727448663
484989 97 18261127278325903154
5265222 85 17687198894944379204
5895379 119 18055893614748497790
59755656 215 18336834172704168941
6287921 2 18130214970083848507
6443956 14 18266743471961704084
653340 110 17334484399079150648
6669772 16 18260266369780521258
6823239 73 18125160437853206031

> <PUBCHEM_SHAPE_MULTIPOLES>
596.9
10.56
4.8
1.53
19.25
0.03
-0.81
2.7
0.53
-3.66
0.23
-1.23
-1.45
0.14

> <PUBCHEM_SHAPE_SELFOVERLAP>
1290.734

> <PUBCHEM_SHAPE_VOLUME>
330.2

> <PUBCHEM_COORDINATE_TYPE>
2
5
10

$$$$
