102301804
  -OEChem-03292013293D

 58 59  0     1  0  0  0  0  0999 V2000
    2.1998    0.6238   -1.7680 O   0  0  0  0  0  0  0  0  0  0  0  0
   -1.2812    0.8924    1.1721 O   0  0  0  0  0  0  0  0  0  0  0  0
   -4.4160    0.5606   -1.2891 O   0  0  0  0  0  0  0  0  0  0  0  0
   -9.0926    0.3986    0.6374 O   0  0  0  0  0  0  0  0  0  0  0  0
   -8.0544    2.0059    1.8609 O   0  0  0  0  0  0  0  0  0  0  0  0
    8.9720    1.5660   -0.5400 O   0  0  0  0  0  0  0  0  0  0  0  0
    9.1078    0.4406    1.4836 O   0  0  0  0  0  0  0  0  0  0  0  0
   -0.3626    0.4324   -0.9087 N   0  0  0  0  0  0  0  0  0  0  0  0
   -3.3355    2.2269   -0.0821 N   0  0  0  0  0  0  0  0  0  0  0  0
    2.8686   -0.4044    0.2327 N   0  0  0  0  0  0  0  0  0  0  0  0
    8.3562    0.8111    0.5101 N   0  3  0  0  0  0  0  0  0  0  0  0
    0.5654   -0.5826   -0.4679 C   0  0  1  0  0  0  0  0  0  0  0  0
    0.2922   -1.9091   -1.1867 C   0  0  0  0  0  0  0  0  0  0  0  0
   -2.0571    2.1468   -0.7509 C   0  0  2  0  0  0  0  0  0  0  0  0
   -0.8924   -2.6599   -0.6297 C   0  0  0  0  0  0  0  0  0  0  0  0
    1.9699   -0.0566   -0.7718 C   0  0  0  0  0  0  0  0  0  0  0  0
   -1.2191    1.0930   -0.0391 C   0  0  0  0  0  0  0  0  0  0  0  0
   -1.3493    3.4928   -0.7544 C   0  0  0  0  0  0  0  0  0  0  0  0
   -0.7127   -3.5781    0.4049 C   0  0  0  0  0  0  0  0  0  0  0  0
   -2.1671   -2.4357   -1.1497 C   0  0  0  0  0  0  0  0  0  0  0  0
   -4.4145    1.4197   -0.4116 C   0  0  0  0  0  0  0  0  0  0  0  0
    4.2477   -0.0981    0.3028 C   0  0  0  0  0  0  0  0  0  0  0  0
   -5.6243    1.7255    0.4532 C   0  0  0  0  0  0  0  0  0  0  0  0
   -1.8079   -4.2722    0.9194 C   0  0  0  0  0  0  0  0  0  0  0  0
   -3.2621   -3.1296   -0.6351 C   0  0  0  0  0  0  0  0  0  0  0  0
   -3.0825   -4.0478    0.3994 C   0  0  0  0  0  0  0  0  0  0  0  0
   -6.8240    0.8491    0.1084 C   0  0  0  0  0  0  0  0  0  0  0  0
    5.0037   -0.5304    1.3926 C   0  0  0  0  0  0  0  0  0  0  0  0
    4.8519    0.6360   -0.7178 C   0  0  0  0  0  0  0  0  0  0  0  0
    6.3636   -0.2284    1.4619 C   0  0  0  0  0  0  0  0  0  0  0  0
    6.2119    0.9380   -0.6486 C   0  0  0  0  0  0  0  0  0  0  0  0
    6.9677    0.5059    0.4411 C   0  0  0  0  0  0  0  0  0  0  0  0
   -8.0230    1.1677    0.9707 C   0  0  0  0  0  0  0  0  0  0  0  0
    0.4604   -0.7146    0.6156 H   0  0  0  0  0  0  0  0  0  0  0  0
    0.1492   -1.7448   -2.2636 H   0  0  0  0  0  0  0  0  0  0  0  0
    1.1764   -2.5572   -1.1152 H   0  0  0  0  0  0  0  0  0  0  0  0
   -0.3478    0.6973   -1.8897 H   0  0  0  0  0  0  0  0  0  0  0  0
   -2.2358    1.8292   -1.7852 H   0  0  0  0  0  0  0  0  0  0  0  0
   -3.4213    2.8618    0.7069 H   0  0  0  0  0  0  0  0  0  0  0  0
   -1.1491    3.8394    0.2660 H   0  0  0  0  0  0  0  0  0  0  0  0
   -0.3883    3.4290   -1.2758 H   0  0  0  0  0  0  0  0  0  0  0  0
   -1.9604    4.2539   -1.2510 H   0  0  0  0  0  0  0  0  0  0  0  0
    2.5156   -0.9567    1.0111 H   0  0  0  0  0  0  0  0  0  0  0  0
    0.2751   -3.7594    0.8200 H   0  0  0  0  0  0  0  0  0  0  0  0
   -2.3206   -1.7232   -1.9557 H   0  0  0  0  0  0  0  0  0  0  0  0
   -5.8817    2.7840    0.3242 H   0  0  0  0  0  0  0  0  0  0  0  0
   -5.3427    1.5806    1.5035 H   0  0  0  0  0  0  0  0  0  0  0  0
   -1.6682   -4.9865    1.7255 H   0  0  0  0  0  0  0  0  0  0  0  0
   -4.2548   -2.9539   -1.0393 H   0  0  0  0  0  0  0  0  0  0  0  0
   -3.9354   -4.5877    0.8003 H   0  0  0  0  0  0  0  0  0  0  0  0
   -6.5689   -0.2069    0.2529 H   0  0  0  0  0  0  0  0  0  0  0  0
   -7.1063    1.0004   -0.9397 H   0  0  0  0  0  0  0  0  0  0  0  0
    4.5450   -1.1033    2.1945 H   0  0  0  0  0  0  0  0  0  0  0  0
    4.3347    1.0016   -1.5936 H   0  0  0  0  0  0  0  0  0  0  0  0
    6.9305   -0.5770    2.3209 H   0  0  0  0  0  0  0  0  0  0  0  0
    6.6583    1.5100   -1.4574 H   0  0  0  0  0  0  0  0  0  0  0  0
   -9.8752    0.6005    1.1934 H   0  0  0  0  0  0  0  0  0  0  0  0
    9.8912    1.6155   -0.2277 H   0  0  0  0  0  0  0  0  0  0  0  0
  1 16  2  0  0  0  0
  2 17  2  0  0  0  0
  3 21  2  0  0  0  0
  4 33  1  0  0  0  0
  4 57  1  0  0  0  0
  5 33  2  0  0  0  0
  6 11  1  0  0  0  0
  6 58  1  0  0  0  0
  7 11  2  0  0  0  0
  8 12  1  0  0  0  0
  8 17  1  0  0  0  0
  8 37  1  0  0  0  0
  9 14  1  0  0  0  0
  9 21  1  0  0  0  0
  9 39  1  0  0  0  0
 10 16  1  0  0  0  0
 10 22  1  0  0  0  0
 10 43  1  0  0  0  0
 11 32  1  0  0  0  0
 12 13  1  0  0  0  0
 12 16  1  0  0  0  0
 12 34  1  0  0  0  0
 13 15  1  0  0  0  0
 13 35  1  0  0  0  0
 13 36  1  0  0  0  0
 14 17  1  0  0  0  0
 14 18  1  0  0  0  0
 14 38  1  0  0  0  0
 15 19  2  0  0  0  0
 15 20  1  0  0  0  0
 18 40  1  0  0  0  0
 18 41  1  0  0  0  0
 18 42  1  0  0  0  0
 19 24  1  0  0  0  0
 19 44  1  0  0  0  0
 20 25  2  0  0  0  0
 20 45  1  0  0  0  0
 21 23  1  0  0  0  0
 22 28  2  0  0  0  0
 22 29  1  0  0  0  0
 23 27  1  0  0  0  0
 23 46  1  0  0  0  0
 23 47  1  0  0  0  0
 24 26  2  0  0  0  0
 24 48  1  0  0  0  0
 25 26  1  0  0  0  0
 25 49  1  0  0  0  0
 26 50  1  0  0  0  0
 27 33  1  0  0  0  0
 27 51  1  0  0  0  0
 27 52  1  0  0  0  0
 28 30  1  0  0  0  0
 28 53  1  0  0  0  0
 29 31  2  0  0  0  0
 29 54  1  0  0  0  0
 30 32  2  0  0  0  0
 30 55  1  0  0  0  0
 31 32  1  0  0  0  0
 31 56  1  0  0  0  0
M  CHG  1  11   1
M  END
> <PUBCHEM_COMPOUND_CID>
102301804

> <PUBCHEM_CONFORMER_RMSD>
1.2

> <PUBCHEM_CONFORMER_DIVERSEORDER>
1
8
15
18
16
29
11
13
24
27
20
22
9
10
14
26
28
19
23
2
5
12
4
17
25
7
6
21
3

> <PUBCHEM_MMFF94_PARTIAL_CHARGES>
46
1 -0.57
10 -0.55
11 0.81
12 0.36
13 0.14
14 0.36
15 -0.14
16 0.57
17 0.57
19 -0.15
2 -0.57
20 -0.15
21 0.57
22 0.12
23 0.06
24 -0.15
25 -0.15
26 -0.15
27 0.06
28 -0.15
29 -0.15
3 -0.57
30 -0.15
31 -0.15
32 -0.03
33 0.66
37 0.37
39 0.37
4 -0.65
43 0.37
44 0.15
45 0.15
48 0.15
49 0.15
5 -0.57
50 0.15
53 0.15
54 0.15
55 0.15
56 0.15
57 0.5
58 0.4
6 -0.54
7 -0.63
8 -0.73
9 -0.73

> <PUBCHEM_EFFECTIVE_ROTOR_COUNT>
14

> <PUBCHEM_PHARMACOPHORE_FEATURES>
14
1 1 acceptor
1 10 donor
1 2 acceptor
1 3 acceptor
1 4 acceptor
1 5 acceptor
1 6 acceptor
1 6 anion
1 7 acceptor
1 8 donor
1 9 donor
3 4 5 33 anion
6 15 19 20 24 25 26 rings
6 22 28 29 30 31 32 rings

> <PUBCHEM_HEAVY_ATOM_COUNT>
33

> <PUBCHEM_ATOM_DEF_STEREO_COUNT>
2

> <PUBCHEM_ATOM_UDEF_STEREO_COUNT>
0

> <PUBCHEM_BOND_DEF_STEREO_COUNT>
0

> <PUBCHEM_BOND_UDEF_STEREO_COUNT>
0

> <PUBCHEM_ISOTOPIC_ATOM_COUNT>
0

> <PUBCHEM_COMPONENT_COUNT>
1

> <PUBCHEM_CACTVS_TAUTO_COUNT>
636

> <PUBCHEM_CONFORMER_ID>
0619006C00000001

> <PUBCHEM_MMFF94_ENERGY>
78.1873

> <PUBCHEM_FEATURE_SELFOVERLAP>
71.156

> <PUBCHEM_SHAPE_FINGERPRINT>
10319688 67 18341602720379447347
1100329 8 18337111271678943253
11136131 41 18188771618586401587
12645989 146 8430017743461386793
12788726 201 18262507213027535682
12838862 33 18411128114344794821
14394314 77 18410855448082309377
15131766 46 14709779577926651214
15264996 74 18131064971126866103
15297060 5 18342170068432406610
15347590 135 18270970034104982377
16728300 4 17315618626345126080
16992610 120 18339375106275646900
21304303 172 18267298927550979135
21792961 116 11959730478077799053
22224240 67 18341614789907539617
24771293 8 18272935995313108325
25147074 1 17822296846747806612
25269216 80 18189916369325791430
3178227 256 18408611344776431993
4073 2 18410008854531543358
4258327 124 18261405480996509244
4340502 62 18342178809107214999
497634 4 17895743111160956414
5171179 24 17557688455046706347
5758199 1 18202004292296345025
7399639 24 17973447603339742781

> <PUBCHEM_SHAPE_MULTIPOLES>
618.12
24.09
4.3
1.35
19.04
5
-0.16
-17.35
-11.23
-7.16
-0.01
0.17
-0.06
-1.37

> <PUBCHEM_SHAPE_SELFOVERLAP>
1283.467

> <PUBCHEM_SHAPE_VOLUME>
348.4

> <PUBCHEM_COORDINATE_TYPE>
2
5
10

$$$$
