102363036
  -OEChem-03292013293D

 55 57  0     1  0  0  0  0  0999 V2000
   -1.8800    4.0038    1.0738 O   0  0  0  0  0  0  0  0  0  0  0  0
   -1.9196    3.5017   -1.7645 O   0  0  0  0  0  0  0  0  0  0  0  0
    0.7498    0.1264   -1.6030 O   0  0  0  0  0  0  0  0  0  0  0  0
    2.4119    1.4924    2.0708 O   0  0  0  0  0  0  0  0  0  0  0  0
   -0.3542   -3.7950    0.2975 O   0  0  0  0  0  0  0  0  0  0  0  0
   -2.9035   -4.8923    0.1480 O   0  0  0  0  0  0  0  0  0  0  0  0
   -1.3625    1.2302   -1.0374 C   0  0  1  0  0  0  0  0  0  0  0  0
   -0.3769    2.1076    1.2523 C   0  0  1  0  0  0  0  0  0  0  0  0
   -2.2269    0.7163    0.1653 C   0  0  2  0  0  0  0  0  0  0  0  0
   -0.8341    3.3196    0.3960 C   0  0  1  0  0  0  0  0  0  0  0  0
   -1.5765    1.1616    1.5129 C   0  0  0  0  0  0  0  0  0  0  0  0
   -1.4193    2.7710   -0.9129 C   0  0  0  0  0  0  0  0  0  0  0  0
    0.6495    1.3025    0.4858 C   0  0  0  0  0  0  0  0  0  0  0  0
    0.0982    0.8011   -0.8162 C   0  0  0  0  0  0  0  0  0  0  0  0
   -1.8886    0.7773   -2.3983 C   0  0  0  0  0  0  0  0  0  0  0  0
   -2.4029   -0.7707    0.1600 C   0  0  0  0  0  0  0  0  0  0  0  0
    0.2942    4.3085    0.1052 C   0  0  0  0  0  0  0  0  0  0  0  0
    1.8998    1.0320    0.8706 C   0  0  0  0  0  0  0  0  0  0  0  0
   -1.2874   -1.6053    0.2300 C   0  0  0  0  0  0  0  0  0  0  0  0
   -3.6824   -1.3214    0.0859 C   0  0  0  0  0  0  0  0  0  0  0  0
    2.8121    0.2387    0.0640 C   0  0  0  0  0  0  0  0  0  0  0  0
   -1.4514   -2.9905    0.2263 C   0  0  0  0  0  0  0  0  0  0  0  0
   -3.8463   -2.7066    0.0818 C   0  0  0  0  0  0  0  0  0  0  0  0
   -2.7308   -3.5412    0.1521 C   0  0  0  0  0  0  0  0  0  0  0  0
    4.0779   -0.0700    0.3900 C   0  0  0  0  0  0  0  0  0  0  0  0
    4.9361   -0.8670   -0.4596 C   0  0  0  0  0  0  0  0  0  0  0  0
    0.9168   -3.1520    0.3706 C   0  0  0  0  0  0  0  0  0  0  0  0
    6.2007   -1.1785   -0.1396 C   0  0  0  0  0  0  0  0  0  0  0  0
    7.0964   -2.0002   -1.0074 C   0  0  0  0  0  0  0  0  0  0  0  0
   -0.0337    2.4681    2.2255 H   0  0  0  0  0  0  0  0  0  0  0  0
   -3.2143    1.1973    0.1055 H   0  0  0  0  0  0  0  0  0  0  0  0
   -2.3354    1.6816    2.1124 H   0  0  0  0  0  0  0  0  0  0  0  0
   -1.2521    0.3165    2.1341 H   0  0  0  0  0  0  0  0  0  0  0  0
   -2.9441    1.0428   -2.5244 H   0  0  0  0  0  0  0  0  0  0  0  0
   -1.7900   -0.3040   -2.5404 H   0  0  0  0  0  0  0  0  0  0  0  0
   -1.3310    1.2567   -3.2117 H   0  0  0  0  0  0  0  0  0  0  0  0
    0.7392    4.6719    1.0381 H   0  0  0  0  0  0  0  0  0  0  0  0
   -0.0858    5.1906   -0.4235 H   0  0  0  0  0  0  0  0  0  0  0  0
    1.0836    3.8713   -0.5142 H   0  0  0  0  0  0  0  0  0  0  0  0
   -2.1330    4.7766    0.5406 H   0  0  0  0  0  0  0  0  0  0  0  0
   -0.3141   -1.1735    0.3731 H   0  0  0  0  0  0  0  0  0  0  0  0
   -4.5615   -0.6850    0.0304 H   0  0  0  0  0  0  0  0  0  0  0  0
    2.5390   -0.1806   -0.8857 H   0  0  0  0  0  0  0  0  0  0  0  0
   -4.8487   -3.1222    0.0236 H   0  0  0  0  0  0  0  0  0  0  0  0
    1.7625    2.0431    2.5307 H   0  0  0  0  0  0  0  0  0  0  0  0
    4.5069    0.2793    1.3258 H   0  0  0  0  0  0  0  0  0  0  0  0
   -3.8542   -5.0899    0.0921 H   0  0  0  0  0  0  0  0  0  0  0  0
    4.5224   -1.2244   -1.3994 H   0  0  0  0  0  0  0  0  0  0  0  0
    1.6740   -3.9424    0.4065 H   0  0  0  0  0  0  0  0  0  0  0  0
    1.0256   -2.5716    1.2932 H   0  0  0  0  0  0  0  0  0  0  0  0
    1.1234   -2.5610   -0.5279 H   0  0  0  0  0  0  0  0  0  0  0  0
    6.6278   -0.8284    0.7972 H   0  0  0  0  0  0  0  0  0  0  0  0
    7.4183   -2.8960   -0.4675 H   0  0  0  0  0  0  0  0  0  0  0  0
    6.6030   -2.3178   -1.9314 H   0  0  0  0  0  0  0  0  0  0  0  0
    7.9859   -1.4227   -1.2769 H   0  0  0  0  0  0  0  0  0  0  0  0
  1 10  1  0  0  0  0
  1 40  1  0  0  0  0
  2 12  2  0  0  0  0
  3 14  2  0  0  0  0
  4 18  1  0  0  0  0
  4 45  1  0  0  0  0
  5 22  1  0  0  0  0
  5 27  1  0  0  0  0
  6 24  1  0  0  0  0
  6 47  1  0  0  0  0
  7  9  1  0  0  0  0
  7 12  1  0  0  0  0
  7 14  1  0  0  0  0
  7 15  1  0  0  0  0
  8 10  1  0  0  0  0
  8 11  1  0  0  0  0
  8 13  1  0  0  0  0
  8 30  1  0  0  0  0
  9 11  1  0  0  0  0
  9 16  1  0  0  0  0
  9 31  1  0  0  0  0
 10 12  1  0  0  0  0
 10 17  1  0  0  0  0
 11 32  1  0  0  0  0
 11 33  1  0  0  0  0
 13 14  1  0  0  0  0
 13 18  2  0  0  0  0
 15 34  1  0  0  0  0
 15 35  1  0  0  0  0
 15 36  1  0  0  0  0
 16 19  2  0  0  0  0
 16 20  1  0  0  0  0
 17 37  1  0  0  0  0
 17 38  1  0  0  0  0
 17 39  1  0  0  0  0
 18 21  1  0  0  0  0
 19 22  1  0  0  0  0
 19 41  1  0  0  0  0
 20 23  2  0  0  0  0
 20 42  1  0  0  0  0
 21 25  2  0  0  0  0
 21 43  1  0  0  0  0
 22 24  2  0  0  0  0
 23 24  1  0  0  0  0
 23 44  1  0  0  0  0
 25 26  1  0  0  0  0
 25 46  1  0  0  0  0
 26 28  2  0  0  0  0
 26 48  1  0  0  0  0
 27 49  1  0  0  0  0
 27 50  1  0  0  0  0
 27 51  1  0  0  0  0
 28 29  1  0  0  0  0
 28 52  1  0  0  0  0
 29 53  1  0  0  0  0
 29 54  1  0  0  0  0
 29 55  1  0  0  0  0
M  END
> <PUBCHEM_COMPOUND_CID>
102363036

> <PUBCHEM_CONFORMER_RMSD>
0.8

> <PUBCHEM_CONFORMER_DIVERSEORDER>
1
10
11
14
16
4
15
12
2
9
7
8
6
5
3
13

> <PUBCHEM_MMFF94_PARTIAL_CHARGES>
36
1 -0.68
10 0.34
12 0.45
13 -0.12
14 0.49
16 -0.14
18 0.08
19 -0.15
2 -0.57
20 -0.15
21 -0.15
22 0.08
23 -0.15
24 0.08
25 -0.15
26 -0.15
27 0.28
28 -0.29
29 0.14
3 -0.57
4 -0.53
40 0.4
41 0.15
42 0.15
43 0.15
44 0.15
45 0.45
46 0.15
47 0.45
48 0.15
5 -0.36
52 0.15
6 -0.53
7 0.12
8 0.14
9 0.14

> <PUBCHEM_EFFECTIVE_ROTOR_COUNT>
4.6

> <PUBCHEM_PHARMACOPHORE_FEATURES>
10
1 1 acceptor
1 1 donor
1 2 acceptor
1 29 hydrophobe
1 3 acceptor
1 4 donor
1 5 acceptor
1 6 donor
6 16 19 20 22 23 24 rings
8 7 8 9 10 11 12 13 14 rings

> <PUBCHEM_HEAVY_ATOM_COUNT>
29

> <PUBCHEM_ATOM_DEF_STEREO_COUNT>
1

> <PUBCHEM_ATOM_UDEF_STEREO_COUNT>
3

> <PUBCHEM_BOND_DEF_STEREO_COUNT>
3

> <PUBCHEM_BOND_UDEF_STEREO_COUNT>
0

> <PUBCHEM_ISOTOPIC_ATOM_COUNT>
0

> <PUBCHEM_COMPONENT_COUNT>
1

> <PUBCHEM_CACTVS_TAUTO_COUNT>
215

> <PUBCHEM_CONFORMER_ID>
0619EF9C00000001

> <PUBCHEM_MMFF94_ENERGY>
104.7589

> <PUBCHEM_FEATURE_SELFOVERLAP>
50.749

> <PUBCHEM_SHAPE_FINGERPRINT>
107951 10 17983300318039944940
10948715 1 11133034631477041969
1100329 8 18339651139301861889
11069576 57 17045969279449351359
11578080 2 16884371723484689685
12293681 25 17979886583253425965
12633257 1 18059313027180582714
12788726 201 18260261932742026010
12969540 37 17618783999564952510
13140716 1 18340772653456290443
13402501 40 18342177795490392142
138480 1 15960900192228198442
14251740 79 18335707113873847394
14790565 3 17259632439626272088
14863182 85 16390150240428875887
14866123 147 18342184314865288323
14955137 171 18118701026368483635
15230672 131 17832436298388677446
15420108 30 17985840233588018667
15422964 175 18126273388291311096
15927050 60 17910113508649161069
16945 1 17898540199405732949
17492 89 17762338424169619547
17980427 26 16972516937589418749
20600515 1 18200328726406112673
20775530 9 18264485259920413170
23419403 2 17773858969544800273
23559900 14 18197211653600578608
4409770 3 18334570201221899927
484985 159 18338800013843323122
497634 4 18333740100582921396
59755656 520 18124600782229332360
70634741 139 18341621400395036126

> <PUBCHEM_SHAPE_MULTIPOLES>
561.59
8.64
6.03
1.44
22.44
1.29
0.39
8.36
1.76
-5.81
-0.6
-0.24
-1.07
1.22

> <PUBCHEM_SHAPE_SELFOVERLAP>
1213.475

> <PUBCHEM_SHAPE_VOLUME>
304.8

> <PUBCHEM_COORDINATE_TYPE>
2
5
10

$$$$
