102414640
  -OEChem-03292013293D

 51 53  0     1  0  0  0  0  0999 V2000
    3.3148    0.9670   -0.4297 O   0  0  0  0  0  0  0  0  0  0  0  0
    0.6833    2.5742   -0.1436 O   0  0  0  0  0  0  0  0  0  0  0  0
    2.0881    3.1666    2.1601 O   0  0  0  0  0  0  0  0  0  0  0  0
   -0.9299   -1.1015    0.6232 O   0  0  0  0  0  0  0  0  0  0  0  0
   -1.2649    2.0573   -1.1712 O   0  0  0  0  0  0  0  0  0  0  0  0
    0.7722   -3.0875   -0.4234 O   0  0  0  0  0  0  0  0  0  0  0  0
   -1.4045    0.4273    2.2775 O   0  0  0  0  0  0  0  0  0  0  0  0
    2.2948   -4.7882   -0.0684 O   0  0  0  0  0  0  0  0  0  0  0  0
    2.0591    2.9873   -0.2919 C   0  0  1  0  0  0  0  0  0  0  0  0
    2.7985    2.7588    1.0125 C   0  0  2  0  0  0  0  0  0  0  0  0
    2.8508    2.0817   -1.2174 C   0  0  2  0  0  0  0  0  0  0  0  0
    3.1142    1.2653    0.9695 C   0  0  1  0  0  0  0  0  0  0  0  0
    2.0416    1.5961   -2.3623 C   0  0  0  0  0  0  0  0  0  0  0  0
    2.0514    0.3530    1.4944 C   0  0  0  0  0  0  0  0  0  0  0  0
    0.7089    1.6656   -2.3772 C   0  0  0  0  0  0  0  0  0  0  0  0
    1.3696   -0.5152    0.7329 C   0  0  0  0  0  0  0  0  0  0  0  0
   -0.0408    2.1279   -1.1996 C   0  0  0  0  0  0  0  0  0  0  0  0
    0.3002   -1.4326    1.2646 C   0  0  2  0  0  0  0  0  0  0  0  0
    0.6350   -2.9053    0.9850 C   0  0  1  0  0  0  0  0  0  0  0  0
   -0.4528   -3.8507    1.4880 C   0  0  0  0  0  0  0  0  0  0  0  0
   -1.6845   -0.1537    1.2405 C   0  0  0  0  0  0  0  0  0  0  0  0
    1.6398   -4.0683   -0.8099 C   0  0  0  0  0  0  0  0  0  0  0  0
   -2.9327    0.0987    0.4771 C   0  0  0  0  0  0  0  0  0  0  0  0
    1.6818   -4.1449   -2.3060 C   0  0  0  0  0  0  0  0  0  0  0  0
   -3.8541    1.0393    0.9374 C   0  0  0  0  0  0  0  0  0  0  0  0
   -3.1829   -0.6039   -0.7015 C   0  0  0  0  0  0  0  0  0  0  0  0
   -5.0260    1.2772    0.2190 C   0  0  0  0  0  0  0  0  0  0  0  0
   -4.3546   -0.3661   -1.4200 C   0  0  0  0  0  0  0  0  0  0  0  0
   -5.2762    0.5745   -0.9596 C   0  0  0  0  0  0  0  0  0  0  0  0
    2.0549    4.0394   -0.5949 H   0  0  0  0  0  0  0  0  0  0  0  0
    3.7412    3.3209    0.9785 H   0  0  0  0  0  0  0  0  0  0  0  0
    3.7412    2.6070   -1.5830 H   0  0  0  0  0  0  0  0  0  0  0  0
    4.0467    1.0512    1.5033 H   0  0  0  0  0  0  0  0  0  0  0  0
    2.5633    1.1887   -3.2231 H   0  0  0  0  0  0  0  0  0  0  0  0
    1.8391    0.4084    2.5590 H   0  0  0  0  0  0  0  0  0  0  0  0
    2.6211    2.9234    2.9361 H   0  0  0  0  0  0  0  0  0  0  0  0
    0.1422    1.3133   -3.2315 H   0  0  0  0  0  0  0  0  0  0  0  0
    1.5599   -0.5915   -0.3328 H   0  0  0  0  0  0  0  0  0  0  0  0
    0.2053   -1.3246    2.3537 H   0  0  0  0  0  0  0  0  0  0  0  0
    1.5774   -3.1373    1.4997 H   0  0  0  0  0  0  0  0  0  0  0  0
   -1.3920   -3.7026    0.9439 H   0  0  0  0  0  0  0  0  0  0  0  0
   -0.1633   -4.8946    1.3278 H   0  0  0  0  0  0  0  0  0  0  0  0
   -0.6384   -3.7068    2.5568 H   0  0  0  0  0  0  0  0  0  0  0  0
    0.6907   -4.3961   -2.6919 H   0  0  0  0  0  0  0  0  0  0  0  0
    2.3833   -4.9271   -2.6098 H   0  0  0  0  0  0  0  0  0  0  0  0
    2.0247   -3.1915   -2.7159 H   0  0  0  0  0  0  0  0  0  0  0  0
   -3.6773    1.5977    1.8527 H   0  0  0  0  0  0  0  0  0  0  0  0
   -2.4930   -1.3439   -1.0970 H   0  0  0  0  0  0  0  0  0  0  0  0
   -5.7434    2.0098    0.5770 H   0  0  0  0  0  0  0  0  0  0  0  0
   -4.5498   -0.9126   -2.3381 H   0  0  0  0  0  0  0  0  0  0  0  0
   -6.1884    0.7599   -1.5191 H   0  0  0  0  0  0  0  0  0  0  0  0
  1 11  1  0  0  0  0
  1 12  1  0  0  0  0
  2  9  1  0  0  0  0
  2 17  1  0  0  0  0
  3 10  1  0  0  0  0
  3 36  1  0  0  0  0
  4 18  1  0  0  0  0
  4 21  1  0  0  0  0
  5 17  2  0  0  0  0
  6 19  1  0  0  0  0
  6 22  1  0  0  0  0
  7 21  2  0  0  0  0
  8 22  2  0  0  0  0
  9 10  1  0  0  0  0
  9 11  1  0  0  0  0
  9 30  1  0  0  0  0
 10 12  1  0  0  0  0
 10 31  1  0  0  0  0
 11 13  1  0  0  0  0
 11 32  1  0  0  0  0
 12 14  1  0  0  0  0
 12 33  1  0  0  0  0
 13 15  2  0  0  0  0
 13 34  1  0  0  0  0
 14 16  2  0  0  0  0
 14 35  1  0  0  0  0
 15 17  1  0  0  0  0
 15 37  1  0  0  0  0
 16 18  1  0  0  0  0
 16 38  1  0  0  0  0
 18 19  1  0  0  0  0
 18 39  1  0  0  0  0
 19 20  1  0  0  0  0
 19 40  1  0  0  0  0
 20 41  1  0  0  0  0
 20 42  1  0  0  0  0
 20 43  1  0  0  0  0
 21 23  1  0  0  0  0
 22 24  1  0  0  0  0
 23 25  2  0  0  0  0
 23 26  1  0  0  0  0
 24 44  1  0  0  0  0
 24 45  1  0  0  0  0
 24 46  1  0  0  0  0
 25 27  1  0  0  0  0
 25 47  1  0  0  0  0
 26 28  2  0  0  0  0
 26 48  1  0  0  0  0
 27 29  2  0  0  0  0
 27 49  1  0  0  0  0
 28 29  1  0  0  0  0
 28 50  1  0  0  0  0
 29 51  1  0  0  0  0
M  END
> <PUBCHEM_COMPOUND_CID>
102414640

> <PUBCHEM_CONFORMER_RMSD>
1

> <PUBCHEM_CONFORMER_DIVERSEORDER>
7
63
8
66
36
11
24
47
64
29
37
40
20
65
41
42
12
30
72
56
71
69
43
55
28
58
57
26
15
45
22
27
60
46
32
53
44
19
52
3
67
25
16
68
13
18
10
35
75
49
61
54
4
48
14
73
50
31
70
51
21
17
23
76
6
2
39
33
74
1
9
5
59
38
62
34

> <PUBCHEM_MMFF94_PARTIAL_CHARGES>
38
1 -0.56
10 0.28
11 0.42
12 0.42
13 -0.29
14 -0.29
15 -0.14
16 -0.29
17 0.71
18 0.42
19 0.28
2 -0.43
21 0.63
22 0.66
23 0.09
24 0.06
25 -0.15
26 -0.15
27 -0.15
28 -0.15
29 -0.15
3 -0.68
34 0.15
35 0.15
36 0.4
37 0.15
38 0.15
4 -0.43
47 0.15
48 0.15
49 0.15
5 -0.57
50 0.15
51 0.15
6 -0.43
7 -0.57
8 -0.57
9 0.28

> <PUBCHEM_EFFECTIVE_ROTOR_COUNT>
8.8

> <PUBCHEM_PHARMACOPHORE_FEATURES>
9
1 1 acceptor
1 3 acceptor
1 3 donor
1 5 acceptor
1 7 acceptor
1 8 acceptor
5 1 9 10 11 12 rings
6 2 9 11 13 15 17 rings
6 23 25 26 27 28 29 rings

> <PUBCHEM_HEAVY_ATOM_COUNT>
29

> <PUBCHEM_ATOM_DEF_STEREO_COUNT>
6

> <PUBCHEM_ATOM_UDEF_STEREO_COUNT>
0

> <PUBCHEM_BOND_DEF_STEREO_COUNT>
1

> <PUBCHEM_BOND_UDEF_STEREO_COUNT>
0

> <PUBCHEM_ISOTOPIC_ATOM_COUNT>
0

> <PUBCHEM_COMPONENT_COUNT>
1

> <PUBCHEM_CACTVS_TAUTO_COUNT>
2

> <PUBCHEM_CONFORMER_ID>
061AB93000000007

> <PUBCHEM_MMFF94_ENERGY>
72.2802

> <PUBCHEM_FEATURE_SELFOVERLAP>
45.917

> <PUBCHEM_SHAPE_FINGERPRINT>
11370993 70 18196642111052095841
11513181 2 18197485247876797461
11582403 64 16771516711811727152
12054548 360 17470447326730853378
12156800 1 15336831028934632006
12160290 23 17616548688225890107
12422481 6 17753572855073439177
12633257 1 15864897863547290185
133893 2 18193862378205971195
14932701 244 17622450442123173966
1813 80 17910113508597108591
21304303 282 17551476240003803718
22907989 373 17541112290834912199
26353 1 17835532513439539159
27425 322 17630891706279271785
35225 105 17688888839450987431
4017518 198 18130783504412873430
474 4 18113611301206952481
5081480 168 17974290924431332389
6287921 2 18336823105090190767

> <PUBCHEM_SHAPE_MULTIPOLES>
549.85
7.1
5.65
2.25
10.7
8
-0.53
-4.42
-0.96
-5.87
-1.09
-0.85
-0.13
0.87

> <PUBCHEM_SHAPE_SELFOVERLAP>
1170.626

> <PUBCHEM_SHAPE_VOLUME>
304.2

> <PUBCHEM_COORDINATE_TYPE>
2
5
10

$$$$
