102465332
  -OEChem-03292013293D

 46 46  0     1  0  0  0  0  0999 V2000
    3.1505   -0.3051   -0.3003 O   0  0  0  0  0  0  0  0  0  0  0  0
   -2.3946   -1.0941   -0.8125 O   0  0  0  0  0  0  0  0  0  0  0  0
    0.7193    2.1379    0.2375 O   0  0  0  0  0  0  0  0  0  0  0  0
    1.0281   -1.3797    1.3413 O   0  0  0  0  0  0  0  0  0  0  0  0
   -4.8117    1.1896    0.7194 O   0  0  0  0  0  0  0  0  0  0  0  0
    3.3137    0.7003    1.7735 O   0  0  0  0  0  0  0  0  0  0  0  0
   -1.4448   -2.3099    0.9100 O   0  0  0  0  0  0  0  0  0  0  0  0
   -0.9914    1.5609   -1.1987 O   0  0  0  0  0  0  0  0  0  0  0  0
    3.1591   -1.6379    0.2660 C   0  0  1  0  0  0  0  0  0  0  0  0
    1.7093   -2.1688    0.3686 C   0  0  2  0  0  0  0  0  0  0  0  0
    1.6869    2.2047   -0.8337 C   0  0  2  0  0  0  0  0  0  0  0  0
   -3.5776   -0.7441   -0.0570 C   0  0  1  0  0  0  0  0  0  0  0  0
    3.0747    2.0507   -0.2083 C   0  0  0  0  0  0  0  0  0  0  0  0
   -3.5306    0.7641    0.2484 C   0  0  2  0  0  0  0  0  0  0  0  0
    4.0702   -2.5009   -0.6013 C   0  0  0  0  0  0  0  0  0  0  0  0
    3.1991    0.7540    0.5556 C   0  0  0  0  0  0  0  0  0  0  0  0
    0.9565   -2.1755   -0.9409 C   0  0  0  0  0  0  0  0  0  0  0  0
    1.5644    3.5484   -1.5433 C   0  0  0  0  0  0  0  0  0  0  0  0
   -4.7694   -1.1189   -0.9362 C   0  0  0  0  0  0  0  0  0  0  0  0
   -2.5220    1.0887    1.3192 C   0  0  0  0  0  0  0  0  0  0  0  0
   -0.3469   -2.0083   -1.2081 C   0  0  0  0  0  0  0  0  0  0  0  0
   -1.2656    1.5399    1.1973 C   0  0  0  0  0  0  0  0  0  0  0  0
   -1.4318   -1.8441   -0.2162 C   0  0  0  0  0  0  0  0  0  0  0  0
   -0.5454    1.7482   -0.0800 C   0  0  0  0  0  0  0  0  0  0  0  0
    3.5972   -1.6072    1.2718 H   0  0  0  0  0  0  0  0  0  0  0  0
    1.7391   -3.1992    0.7430 H   0  0  0  0  0  0  0  0  0  0  0  0
    1.5081    1.3861   -1.5420 H   0  0  0  0  0  0  0  0  0  0  0  0
   -3.6495   -1.3262    0.8705 H   0  0  0  0  0  0  0  0  0  0  0  0
    3.2620    2.8623    0.5060 H   0  0  0  0  0  0  0  0  0  0  0  0
    3.8669    2.0924   -0.9639 H   0  0  0  0  0  0  0  0  0  0  0  0
   -3.3297    1.3263   -0.6684 H   0  0  0  0  0  0  0  0  0  0  0  0
    3.7943   -2.4576   -1.6592 H   0  0  0  0  0  0  0  0  0  0  0  0
    4.0631   -3.5439   -0.2712 H   0  0  0  0  0  0  0  0  0  0  0  0
    5.0992   -2.1284   -0.5431 H   0  0  0  0  0  0  0  0  0  0  0  0
    1.5740   -2.3442   -1.8221 H   0  0  0  0  0  0  0  0  0  0  0  0
    1.6853    4.3768   -0.8366 H   0  0  0  0  0  0  0  0  0  0  0  0
    0.5730    3.6636   -1.9932 H   0  0  0  0  0  0  0  0  0  0  0  0
    2.3144    3.6479   -2.3339 H   0  0  0  0  0  0  0  0  0  0  0  0
   -4.7570   -0.5530   -1.8744 H   0  0  0  0  0  0  0  0  0  0  0  0
   -5.7215   -0.9383   -0.4287 H   0  0  0  0  0  0  0  0  0  0  0  0
   -4.7213   -2.1792   -1.2082 H   0  0  0  0  0  0  0  0  0  0  0  0
   -2.8761    0.9396    2.3397 H   0  0  0  0  0  0  0  0  0  0  0  0
   -0.6599   -2.0136   -2.2502 H   0  0  0  0  0  0  0  0  0  0  0  0
   -0.7004    1.7262    2.1078 H   0  0  0  0  0  0  0  0  0  0  0  0
    1.4959   -1.4841    2.1873 H   0  0  0  0  0  0  0  0  0  0  0  0
   -4.7718    2.1521    0.8548 H   0  0  0  0  0  0  0  0  0  0  0  0
  1  9  1  0  0  0  0
  1 16  1  0  0  0  0
  2 12  1  0  0  0  0
  2 23  1  0  0  0  0
  3 11  1  0  0  0  0
  3 24  1  0  0  0  0
  4 10  1  0  0  0  0
  4 45  1  0  0  0  0
  5 14  1  0  0  0  0
  5 46  1  0  0  0  0
  6 16  2  0  0  0  0
  7 23  2  0  0  0  0
  8 24  2  0  0  0  0
  9 10  1  0  0  0  0
  9 15  1  0  0  0  0
  9 25  1  0  0  0  0
 10 17  1  0  0  0  0
 10 26  1  0  0  0  0
 11 13  1  0  0  0  0
 11 18  1  0  0  0  0
 11 27  1  0  0  0  0
 12 14  1  0  0  0  0
 12 19  1  0  0  0  0
 12 28  1  0  0  0  0
 13 16  1  0  0  0  0
 13 29  1  0  0  0  0
 13 30  1  0  0  0  0
 14 20  1  0  0  0  0
 14 31  1  0  0  0  0
 15 32  1  0  0  0  0
 15 33  1  0  0  0  0
 15 34  1  0  0  0  0
 17 21  2  0  0  0  0
 17 35  1  0  0  0  0
 18 36  1  0  0  0  0
 18 37  1  0  0  0  0
 18 38  1  0  0  0  0
 19 39  1  0  0  0  0
 19 40  1  0  0  0  0
 19 41  1  0  0  0  0
 20 22  2  0  0  0  0
 20 42  1  0  0  0  0
 21 23  1  0  0  0  0
 21 43  1  0  0  0  0
 22 24  1  0  0  0  0
 22 44  1  0  0  0  0
M  END
> <PUBCHEM_COMPOUND_CID>
102465332

> <PUBCHEM_CONFORMER_RMSD>
0.6

> <PUBCHEM_CONFORMER_DIVERSEORDER>
3
2
10
1
9
4
8
6
5
7

> <PUBCHEM_MMFF94_PARTIAL_CHARGES>
27
1 -0.43
10 0.42
11 0.28
12 0.28
13 0.06
14 0.42
16 0.66
17 -0.29
2 -0.43
20 -0.29
21 -0.14
22 -0.14
23 0.71
24 0.71
3 -0.43
35 0.15
4 -0.68
42 0.15
43 0.15
44 0.15
45 0.4
46 0.4
5 -0.68
6 -0.57
7 -0.57
8 -0.57
9 0.28

> <PUBCHEM_EFFECTIVE_ROTOR_COUNT>
1.8

> <PUBCHEM_PHARMACOPHORE_FEATURES>
7
1 4 acceptor
1 4 donor
1 5 acceptor
1 5 donor
1 6 acceptor
1 7 acceptor
1 8 acceptor

> <PUBCHEM_HEAVY_ATOM_COUNT>
24

> <PUBCHEM_ATOM_DEF_STEREO_COUNT>
5

> <PUBCHEM_ATOM_UDEF_STEREO_COUNT>
0

> <PUBCHEM_BOND_DEF_STEREO_COUNT>
2

> <PUBCHEM_BOND_UDEF_STEREO_COUNT>
0

> <PUBCHEM_ISOTOPIC_ATOM_COUNT>
0

> <PUBCHEM_COMPONENT_COUNT>
1

> <PUBCHEM_CACTVS_TAUTO_COUNT>
2

> <PUBCHEM_CONFORMER_ID>
061B7F3400000003

> <PUBCHEM_MMFF94_ENERGY>
50.3799

> <PUBCHEM_FEATURE_SELFOVERLAP>
35.532

> <PUBCHEM_SHAPE_FINGERPRINT>
10062212 137 18202280312733090111
10616163 171 18121224439401699141
10708813 3 18341620291064411097
11244481 83 14635726369708945437
11513181 2 18059863882369202294
12011746 2 18267311919467638638
12156800 1 15587173445515495424
12422481 6 18267560486985001290
12553582 1 18334013891283130492
12592029 89 18263371437782684745
12596599 1 17845106081573095943
12633257 1 17968084348268766442
13140716 1 18048868886397608656
14790565 3 18048323529147924180
15196674 1 18343018878624120843
16752209 62 18057332896843626133
17492 54 18117869649516685580
20645477 70 18041003993909644753
20691752 17 18113618963185911251
20715895 44 18124309403522527133
20905425 154 18054518172988845799
21857420 4 15833610250756089647
23402539 116 18269549438489301463
23559900 14 18201438051743665304
338550 245 18339090289461471121
350125 39 18271525304308237354
4409770 3 16680914333779469686
44154327 71 18410863135313996976
474 4 18334853969437190490
484985 159 15585353341624160682
6287921 2 17916878893652219175
6443956 14 18264494996305291908
7064713 232 17987795185771787161
9925002 15 17343191285789039271

> <PUBCHEM_SHAPE_MULTIPOLES>
446.95
7.62
3.78
1.35
4.4
0.85
-0.09
-1.21
-0.36
-2.52
1.15
-0.1
0.35
-0.89

> <PUBCHEM_SHAPE_SELFOVERLAP>
898.475

> <PUBCHEM_SHAPE_VOLUME>
258.3

> <PUBCHEM_COORDINATE_TYPE>
2
5
10

$$$$
