102458575
  -OEChem-03292013293D

 64 67  0     1  0  0  0  0  0999 V2000
    1.2542    0.9543    2.9962 O   0  0  0  0  0  0  0  0  0  0  0  0
   -0.6347   -0.8330    1.1585 O   0  0  0  0  0  0  0  0  0  0  0  0
    1.0129   -2.0733    2.1221 O   0  0  0  0  0  0  0  0  0  0  0  0
   -4.5197   -0.3189   -0.5779 O   0  0  0  0  0  0  0  0  0  0  0  0
   -2.8772   -1.9218   -0.0234 O   0  0  0  0  0  0  0  0  0  0  0  0
   -5.3273    1.8978   -0.4432 O   0  0  0  0  0  0  0  0  0  0  0  0
   -4.0282   -2.8693   -1.7882 O   0  0  0  0  0  0  0  0  0  0  0  0
   -7.2036    0.6363   -0.9176 O   0  0  0  0  0  0  0  0  0  0  0  0
    1.4626    0.2227    1.7749 C   0  0  1  0  0  0  0  0  0  0  0  0
    0.7849    1.5712    1.7948 C   0  0  1  0  0  0  0  0  0  0  0  0
    2.9001    0.1598    1.3574 C   0  0  0  0  0  0  0  0  0  0  0  0
   -0.6912    1.5690    1.5937 C   0  0  0  0  0  0  0  0  0  0  0  0
   -1.0290    0.4489    0.6113 C   0  0  2  0  0  0  0  0  0  0  0  0
    0.6114   -0.9964    1.6998 C   0  0  0  0  0  0  0  0  0  0  0  0
    3.0239    0.0768   -0.1553 C   0  0  0  0  0  0  0  0  0  0  0  0
    5.1269    1.3952   -0.8989 C   0  0  0  0  0  0  0  0  0  0  0  0
    4.4742    0.0331   -0.5843 C   0  0  0  0  0  0  0  0  0  0  0  0
    6.6712    1.2793   -0.9945 C   0  0  0  0  0  0  0  0  0  0  0  0
   -2.4953    0.3975    0.3387 C   0  0  0  0  0  0  0  0  0  0  0  0
    5.1563   -1.1334   -0.6955 C   0  0  0  0  0  0  0  0  0  0  0  0
    7.1044    0.0793   -1.8201 C   0  0  0  0  0  0  0  0  0  0  0  0
    6.5832   -1.2066   -1.1940 C   0  0  0  0  0  0  0  0  0  0  0  0
    4.8262    2.4318    0.2061 C   0  0  0  0  0  0  0  0  0  0  0  0
    4.5759    1.9336   -2.2380 C   0  0  0  0  0  0  0  0  0  0  0  0
   -3.1124   -0.6247   -0.5502 C   0  0  2  0  0  0  0  0  0  0  0  0
   -3.4376    1.2154    0.8052 C   0  0  0  0  0  0  0  0  0  0  0  0
    4.6022   -2.4855   -0.3201 C   0  0  0  0  0  0  0  0  0  0  0  0
   -4.7640    0.8125    0.2769 C   0  0  2  0  0  0  0  0  0  0  0  0
   -3.3934   -2.9626   -0.7464 C   0  0  0  0  0  0  0  0  0  0  0  0
   -6.5602    1.6742   -0.9939 C   0  0  0  0  0  0  0  0  0  0  0  0
   -3.0696   -4.2627   -0.0746 C   0  0  0  0  0  0  0  0  0  0  0  0
   -7.0270    2.8996   -1.7198 C   0  0  0  0  0  0  0  0  0  0  0  0
    1.2968    2.4439    1.4175 H   0  0  0  0  0  0  0  0  0  0  0  0
    3.3643   -0.7171    1.8259 H   0  0  0  0  0  0  0  0  0  0  0  0
    3.4290    1.0187    1.7743 H   0  0  0  0  0  0  0  0  0  0  0  0
   -0.9944    2.5482    1.2055 H   0  0  0  0  0  0  0  0  0  0  0  0
   -1.1838    1.4152    2.5624 H   0  0  0  0  0  0  0  0  0  0  0  0
   -0.4948    0.5847   -0.3380 H   0  0  0  0  0  0  0  0  0  0  0  0
    2.5075    0.9234   -0.6218 H   0  0  0  0  0  0  0  0  0  0  0  0
    2.4805   -0.7955   -0.5385 H   0  0  0  0  0  0  0  0  0  0  0  0
    7.1041    1.1847    0.0112 H   0  0  0  0  0  0  0  0  0  0  0  0
    7.0989    2.1928   -1.4266 H   0  0  0  0  0  0  0  0  0  0  0  0
    8.1982    0.0406   -1.8803 H   0  0  0  0  0  0  0  0  0  0  0  0
    6.7397    0.1704   -2.8496 H   0  0  0  0  0  0  0  0  0  0  0  0
    7.2267   -1.4780   -0.3471 H   0  0  0  0  0  0  0  0  0  0  0  0
    6.6765   -2.0109   -1.9341 H   0  0  0  0  0  0  0  0  0  0  0  0
    5.0999    2.8476   -2.5409 H   0  0  0  0  0  0  0  0  0  0  0  0
    5.3394    3.3771   -0.0121 H   0  0  0  0  0  0  0  0  0  0  0  0
    3.5117    2.1847   -2.1707 H   0  0  0  0  0  0  0  0  0  0  0  0
    4.6858    1.2035   -3.0472 H   0  0  0  0  0  0  0  0  0  0  0  0
    5.1904    2.0977    1.1836 H   0  0  0  0  0  0  0  0  0  0  0  0
    3.7620    2.6766    0.2799 H   0  0  0  0  0  0  0  0  0  0  0  0
   -2.7118   -0.5460   -1.5680 H   0  0  0  0  0  0  0  0  0  0  0  0
   -3.2993    2.0533    1.4715 H   0  0  0  0  0  0  0  0  0  0  0  0
    5.2837   -2.9873    0.3758 H   0  0  0  0  0  0  0  0  0  0  0  0
    4.5045   -3.1101   -1.2142 H   0  0  0  0  0  0  0  0  0  0  0  0
    3.6270   -2.4531    0.1690 H   0  0  0  0  0  0  0  0  0  0  0  0
   -5.4284    0.5103    1.0951 H   0  0  0  0  0  0  0  0  0  0  0  0
   -1.9856   -4.3837   -0.0059 H   0  0  0  0  0  0  0  0  0  0  0  0
   -3.4756   -5.0881   -0.6663 H   0  0  0  0  0  0  0  0  0  0  0  0
   -3.5238   -4.2887    0.9190 H   0  0  0  0  0  0  0  0  0  0  0  0
   -7.1099    3.7352   -1.0203 H   0  0  0  0  0  0  0  0  0  0  0  0
   -8.0123    2.7102   -2.1552 H   0  0  0  0  0  0  0  0  0  0  0  0
   -6.3299    3.1399   -2.5264 H   0  0  0  0  0  0  0  0  0  0  0  0
  1  9  1  0  0  0  0
  1 10  1  0  0  0  0
  2 13  1  0  0  0  0
  2 14  1  0  0  0  0
  3 14  2  0  0  0  0
  4 25  1  0  0  0  0
  4 28  1  0  0  0  0
  5 25  1  0  0  0  0
  5 29  1  0  0  0  0
  6 28  1  0  0  0  0
  6 30  1  0  0  0  0
  7 29  2  0  0  0  0
  8 30  2  0  0  0  0
  9 10  1  0  0  0  0
  9 11  1  0  0  0  0
  9 14  1  0  0  0  0
 10 12  1  0  0  0  0
 10 33  1  0  0  0  0
 11 15  1  0  0  0  0
 11 34  1  0  0  0  0
 11 35  1  0  0  0  0
 12 13  1  0  0  0  0
 12 36  1  0  0  0  0
 12 37  1  0  0  0  0
 13 19  1  0  0  0  0
 13 38  1  0  0  0  0
 15 17  1  0  0  0  0
 15 39  1  0  0  0  0
 15 40  1  0  0  0  0
 16 17  1  0  0  0  0
 16 18  1  0  0  0  0
 16 23  1  0  0  0  0
 16 24  1  0  0  0  0
 17 20  2  0  0  0  0
 18 21  1  0  0  0  0
 18 41  1  0  0  0  0
 18 42  1  0  0  0  0
 19 25  1  0  0  0  0
 19 26  2  0  0  0  0
 20 22  1  0  0  0  0
 20 27  1  0  0  0  0
 21 22  1  0  0  0  0
 21 43  1  0  0  0  0
 21 44  1  0  0  0  0
 22 45  1  0  0  0  0
 22 46  1  0  0  0  0
 23 48  1  0  0  0  0
 23 51  1  0  0  0  0
 23 52  1  0  0  0  0
 24 47  1  0  0  0  0
 24 49  1  0  0  0  0
 24 50  1  0  0  0  0
 25 53  1  0  0  0  0
 26 28  1  0  0  0  0
 26 54  1  0  0  0  0
 27 55  1  0  0  0  0
 27 56  1  0  0  0  0
 27 57  1  0  0  0  0
 28 58  1  0  0  0  0
 29 31  1  0  0  0  0
 30 32  1  0  0  0  0
 31 59  1  0  0  0  0
 31 60  1  0  0  0  0
 31 61  1  0  0  0  0
 32 62  1  0  0  0  0
 32 63  1  0  0  0  0
 32 64  1  0  0  0  0
M  END
> <PUBCHEM_COMPOUND_CID>
102458575

> <PUBCHEM_CONFORMER_RMSD>
1

> <PUBCHEM_CONFORMER_DIVERSEORDER>
1
169
248
250
275
61
115
58
40
218
50
232
134
212
182
242
67
271
130
54
258
202
41
226
244
125
76
138
44
117
98
74
73
278
116
33
171
240
63
31
15
196
252
6
104
155
273
124
235
26
108
19
9
236
139
128
243
36
16
151
18
80
45
114
35
205
230
101
27
143
4
221
167
268
238
17
89
267
62
23
211
52
53
99
229
47
106
186
69
110
78
59
208
79
272
97
150
149
282
127
191
164
156
253
86
77
24
133
254
32
223
28
13
57
239
276
92
10
199
180
85
173
174
107
20
209
112
215
210
225
43
30
206
95
22
7
260
283
71
154
257
113
213
82
193
126
145
96
188
38
266
214
245
187
158
119
259
46
247
94
198
269
262
2
227
65
75
60
64
25
87
48
289
197
194
181
184
123
288
72
137
264
176
203
12
224
141
5
120
183
66
39
68
152
144
255
129
285
21
241
246
204
81
70
277
90
222
93
42
136
51
103
175
290
279
49
88
111
55
132
192
237
177
287
270
37
100
256
233
29
217
14
34
160
161
56
179
234
190
265
280
162
201
200
8
83
281
286
159
109
163
172
195
105
170
153
231
118
84
249
131
166
165
146
11
147
207
228
178
284
189
121
263
251
216
122
3
135
91
157
220
219
185
168
102
148
274
261
140
142

> <PUBCHEM_MMFF94_PARTIAL_CHARGES>
30
1 -0.3
10 -0.05
11 0.09
12 0.09
13 0.42
14 0.72
15 0.14
16 0.14
17 -0.28
19 -0.28
2 -0.43
20 -0.28
22 0.14
25 0.7
26 -0.29
27 0.14
28 0.7
29 0.66
3 -0.57
30 0.66
31 0.06
32 0.06
33 0.1
4 -0.56
5 -0.43
54 0.15
6 -0.43
7 -0.57
8 -0.57
9 0.05

> <PUBCHEM_EFFECTIVE_ROTOR_COUNT>
10.2

> <PUBCHEM_PHARMACOPHORE_FEATURES>
9
1 1 acceptor
1 3 acceptor
1 4 acceptor
1 7 acceptor
1 8 acceptor
3 16 23 24 hydrophobe
5 4 19 25 26 28 rings
6 16 17 18 20 21 22 rings
7 1 2 9 10 12 13 14 rings

> <PUBCHEM_HEAVY_ATOM_COUNT>
32

> <PUBCHEM_ATOM_DEF_STEREO_COUNT>
3

> <PUBCHEM_ATOM_UDEF_STEREO_COUNT>
2

> <PUBCHEM_BOND_DEF_STEREO_COUNT>
0

> <PUBCHEM_BOND_UDEF_STEREO_COUNT>
0

> <PUBCHEM_ISOTOPIC_ATOM_COUNT>
0

> <PUBCHEM_COMPONENT_COUNT>
1

> <PUBCHEM_CACTVS_TAUTO_COUNT>
4

> <PUBCHEM_CONFORMER_ID>
061B64CF00000001

> <PUBCHEM_MMFF94_ENERGY>
54.3994

> <PUBCHEM_FEATURE_SELFOVERLAP>
45.679

> <PUBCHEM_SHAPE_FINGERPRINT>
10 15 11458430124118768709
10369192 42 15140971646512688375
11991303 11 18410283710789578231
12516196 113 12967128294264184104
12969540 114 16660364818212408810
13540713 4 17772737502212564169
13685833 64 14045737110494918368
13690498 29 18199467847725581087
13782708 43 15051439523413336469
14068700 675 15051731967155974377
14294032 229 14201410403435283643
14931854 50 18059297547902130926
15183329 4 18131355176294639097
15510800 12 16128665158147162540
15530120 55 18192160514784426116
16994733 274 17240202110236994189
18222031 100 15626507185846830768
19304144 158 17982158226407804392
21033648 29 15575008303369994412
21223535 225 17530678793171101604
21307412 95 17703792509502230311
21315764 119 18411703166677156460
21792934 111 8141811634132820917
23559900 14 17774712173567446385
23576562 1 18261668294704387597
27425 322 17821732753484264446
2838139 119 16588295129594113012
3004659 81 18272934891289793602
3383291 50 16630519627459643823
38570 142 17894633630148831201
4058900 60 18193556663208957699
4107672 100 18408604782150494631
439807 62 18199756993044487830
5385378 56 14924223790364918864
57724786 102 15937273229651918116
58902169 19 18186522099140945750
7399639 24 12108060029993408081
86090 222 14117530839481433972
9689198 14 17531536382408181373

> <PUBCHEM_SHAPE_MULTIPOLES>
611.59
19.2
3.45
2.14
2.21
3.04
0.76
-7.69
-15.09
4
-1.1
-0.86
-0.57
0.23

> <PUBCHEM_SHAPE_SELFOVERLAP>
1287.688

> <PUBCHEM_SHAPE_VOLUME>
341.9

> <PUBCHEM_COORDINATE_TYPE>
2
5
10

$$$$
