102468982
  -OEChem-03292013293D

 74 80  0     1  0  0  0  0  0999 V2000
    0.0991   -1.3904   -2.1770 O   0  0  0  0  0  0  0  0  0  0  0  0
    2.1377   -1.6124   -1.0246 O   0  0  0  0  0  0  0  0  0  0  0  0
    0.6208    0.9167    2.6507 O   0  0  0  0  0  0  0  0  0  0  0  0
    0.3535   -2.3852    0.9086 O   0  0  0  0  0  0  0  0  0  0  0  0
   -1.5759    3.1699    0.6166 O   0  0  0  0  0  0  0  0  0  0  0  0
    4.1801    0.3438    0.3197 O   0  0  0  0  0  0  0  0  0  0  0  0
    3.7275    2.4574   -1.8729 O   0  0  0  0  0  0  0  0  0  0  0  0
   -0.6078   -4.3421    0.1448 O   0  0  0  0  0  0  0  0  0  0  0  0
   -2.2170    0.4753   -1.4103 N   0  0  2  0  0  0  0  0  0  0  0  0
   -0.8631    0.7774    0.6746 C   0  0  1  0  0  0  0  0  0  0  0  0
    0.0467   -0.6863   -0.9404 C   0  0  2  0  0  0  0  0  0  0  0  0
    0.6307    1.0461    1.2162 C   0  0  2  0  0  0  0  0  0  0  0  0
   -0.8447    0.5852   -0.8789 C   0  0  1  0  0  0  0  0  0  0  0  0
   -1.3815   -0.6621    1.0608 C   0  0  2  0  0  0  0  0  0  0  0  0
    1.5283   -0.3366   -0.7224 C   0  0  1  0  0  0  0  0  0  0  0  0
    1.7602    0.0837    0.7333 C   0  0  1  0  0  0  0  0  0  0  0  0
   -0.5696   -1.6208    0.1519 C   0  0  2  0  0  0  0  0  0  0  0  0
   -2.8930   -0.7936    0.6800 C   0  0  2  0  0  0  0  0  0  0  0  0
   -1.8255    1.9015    1.2173 C   0  0  2  0  0  0  0  0  0  0  0  0
    1.2132    2.4487    0.8697 C   0  0  0  0  0  0  0  0  0  0  0  0
    3.0342    0.9180    0.9127 C   0  0  2  0  0  0  0  0  0  0  0  0
    2.6018    2.2149    0.2510 C   0  0  1  0  0  0  0  0  0  0  0  0
    2.1392    0.6520   -1.7656 C   0  0  0  0  0  0  0  0  0  0  0  0
   -3.0434   -0.6106   -0.8638 C   0  0  0  0  0  0  0  0  0  0  0  0
    2.4862    2.0652   -1.2752 C   0  0  2  0  0  0  0  0  0  0  0  0
   -3.7130    0.2572    1.4533 C   0  0  0  0  0  0  0  0  0  0  0  0
   -3.3274    1.6722    1.0992 C   0  0  0  0  0  0  0  0  0  0  0  0
   -3.4565   -2.1719    1.0939 C   0  0  0  0  0  0  0  0  0  0  0  0
    1.3226   -2.1400   -2.0885 C   0  0  0  0  0  0  0  0  0  0  0  0
   -2.2802    0.5236   -2.8655 C   0  0  0  0  0  0  0  0  0  0  0  0
   -3.7036    0.7509   -3.3459 C   0  0  0  0  0  0  0  0  0  0  0  0
    0.2236   -3.7449    0.8150 C   0  0  0  0  0  0  0  0  0  0  0  0
   -1.8883    4.2324    1.5042 C   0  0  0  0  0  0  0  0  0  0  0  0
    4.8259   -0.5766    1.1946 C   0  0  0  0  0  0  0  0  0  0  0  0
    1.2594   -4.4187    1.6629 C   0  0  0  0  0  0  0  0  0  0  0  0
   -0.3709    1.4482   -1.3549 H   0  0  0  0  0  0  0  0  0  0  0  0
   -1.2319   -0.8717    2.1261 H   0  0  0  0  0  0  0  0  0  0  0  0
    1.8667   -0.7840    1.3898 H   0  0  0  0  0  0  0  0  0  0  0  0
   -1.2286   -2.3081   -0.3769 H   0  0  0  0  0  0  0  0  0  0  0  0
   -1.6317    1.9682    2.2954 H   0  0  0  0  0  0  0  0  0  0  0  0
    1.3174    3.0637    1.7718 H   0  0  0  0  0  0  0  0  0  0  0  0
    0.6118    3.0143    0.1593 H   0  0  0  0  0  0  0  0  0  0  0  0
    3.2240    1.1153    1.9777 H   0  0  0  0  0  0  0  0  0  0  0  0
    3.2881    3.0347    0.4916 H   0  0  0  0  0  0  0  0  0  0  0  0
    1.4842    0.7446   -2.6422 H   0  0  0  0  0  0  0  0  0  0  0  0
    3.0536    0.2016   -2.1802 H   0  0  0  0  0  0  0  0  0  0  0  0
   -4.1039   -0.4063   -1.0565 H   0  0  0  0  0  0  0  0  0  0  0  0
   -2.8296   -1.5486   -1.3911 H   0  0  0  0  0  0  0  0  0  0  0  0
    1.7449    2.7748   -1.6606 H   0  0  0  0  0  0  0  0  0  0  0  0
   -3.5781    0.1077    2.5331 H   0  0  0  0  0  0  0  0  0  0  0  0
   -4.7851    0.1272    1.2572 H   0  0  0  0  0  0  0  0  0  0  0  0
   -3.6921    1.9439    0.1016 H   0  0  0  0  0  0  0  0  0  0  0  0
   -3.8690    2.3457    1.7746 H   0  0  0  0  0  0  0  0  0  0  0  0
    0.2317    1.7191    3.0350 H   0  0  0  0  0  0  0  0  0  0  0  0
   -2.9983   -3.0012    0.5494 H   0  0  0  0  0  0  0  0  0  0  0  0
   -4.5342   -2.2264    0.8998 H   0  0  0  0  0  0  0  0  0  0  0  0
   -3.3012   -2.3532    2.1635 H   0  0  0  0  0  0  0  0  0  0  0  0
    1.8611   -2.0564   -3.0373 H   0  0  0  0  0  0  0  0  0  0  0  0
    1.1046   -3.1938   -1.8947 H   0  0  0  0  0  0  0  0  0  0  0  0
   -1.6734    1.3607   -3.2318 H   0  0  0  0  0  0  0  0  0  0  0  0
   -1.8849   -0.3871   -3.3274 H   0  0  0  0  0  0  0  0  0  0  0  0
    3.6146    2.4107   -2.8378 H   0  0  0  0  0  0  0  0  0  0  0  0
   -3.6971    0.9831   -4.4166 H   0  0  0  0  0  0  0  0  0  0  0  0
   -4.1736    1.5955   -2.8304 H   0  0  0  0  0  0  0  0  0  0  0  0
   -4.3329   -0.1354   -3.2189 H   0  0  0  0  0  0  0  0  0  0  0  0
   -1.5862    5.1675    1.0233 H   0  0  0  0  0  0  0  0  0  0  0  0
   -1.3291    4.1434    2.4411 H   0  0  0  0  0  0  0  0  0  0  0  0
   -2.9609    4.2964    1.7025 H   0  0  0  0  0  0  0  0  0  0  0  0
    5.6896   -0.9944    0.6703 H   0  0  0  0  0  0  0  0  0  0  0  0
    4.1542   -1.3971    1.4629 H   0  0  0  0  0  0  0  0  0  0  0  0
    5.1814   -0.0661    2.0949 H   0  0  0  0  0  0  0  0  0  0  0  0
    2.2579   -4.1308    1.3243 H   0  0  0  0  0  0  0  0  0  0  0  0
    1.1580   -5.5035    1.5669 H   0  0  0  0  0  0  0  0  0  0  0  0
    1.1143   -4.1449    2.7108 H   0  0  0  0  0  0  0  0  0  0  0  0
  1 11  1  0  0  0  0
  1 29  1  0  0  0  0
  2 15  1  0  0  0  0
  2 29  1  0  0  0  0
  3 12  1  0  0  0  0
  3 54  1  0  0  0  0
  4 17  1  0  0  0  0
  4 32  1  0  0  0  0
  5 19  1  0  0  0  0
  5 33  1  0  0  0  0
  6 21  1  0  0  0  0
  6 34  1  0  0  0  0
  7 25  1  0  0  0  0
  7 62  1  0  0  0  0
  8 32  2  0  0  0  0
  9 13  1  0  0  0  0
  9 24  1  0  0  0  0
  9 30  1  0  0  0  0
 10 12  1  0  0  0  0
 10 13  1  0  0  0  0
 10 14  1  0  0  0  0
 10 19  1  0  0  0  0
 11 13  1  0  0  0  0
 11 15  1  0  0  0  0
 11 17  1  0  0  0  0
 12 16  1  0  0  0  0
 12 20  1  0  0  0  0
 13 36  1  0  0  0  0
 14 17  1  0  0  0  0
 14 18  1  0  0  0  0
 14 37  1  0  0  0  0
 15 16  1  0  0  0  0
 15 23  1  0  0  0  0
 16 21  1  0  0  0  0
 16 38  1  0  0  0  0
 17 39  1  0  0  0  0
 18 24  1  0  0  0  0
 18 26  1  0  0  0  0
 18 28  1  0  0  0  0
 19 27  1  0  0  0  0
 19 40  1  0  0  0  0
 20 22  1  0  0  0  0
 20 41  1  0  0  0  0
 20 42  1  0  0  0  0
 21 22  1  0  0  0  0
 21 43  1  0  0  0  0
 22 25  1  0  0  0  0
 22 44  1  0  0  0  0
 23 25  1  0  0  0  0
 23 45  1  0  0  0  0
 23 46  1  0  0  0  0
 24 47  1  0  0  0  0
 24 48  1  0  0  0  0
 25 49  1  0  0  0  0
 26 27  1  0  0  0  0
 26 50  1  0  0  0  0
 26 51  1  0  0  0  0
 27 52  1  0  0  0  0
 27 53  1  0  0  0  0
 28 55  1  0  0  0  0
 28 56  1  0  0  0  0
 28 57  1  0  0  0  0
 29 58  1  0  0  0  0
 29 59  1  0  0  0  0
 30 31  1  0  0  0  0
 30 60  1  0  0  0  0
 30 61  1  0  0  0  0
 31 63  1  0  0  0  0
 31 64  1  0  0  0  0
 31 65  1  0  0  0  0
 32 35  1  0  0  0  0
 33 66  1  0  0  0  0
 33 67  1  0  0  0  0
 33 68  1  0  0  0  0
 34 69  1  0  0  0  0
 34 70  1  0  0  0  0
 34 71  1  0  0  0  0
 35 72  1  0  0  0  0
 35 73  1  0  0  0  0
 35 74  1  0  0  0  0
M  END
> <PUBCHEM_COMPOUND_CID>
102468982

> <PUBCHEM_CONFORMER_RMSD>
1

> <PUBCHEM_CONFORMER_DIVERSEORDER>
1

> <PUBCHEM_MMFF94_PARTIAL_CHARGES>
26
1 -0.56
11 0.28
12 0.28
13 0.27
15 0.28
17 0.28
19 0.28
2 -0.56
21 0.28
24 0.27
25 0.28
29 0.56
3 -0.68
30 0.27
32 0.66
33 0.28
34 0.28
35 0.06
4 -0.43
5 -0.56
54 0.4
6 -0.56
62 0.4
7 -0.68
8 -0.57
9 -0.81

> <PUBCHEM_EFFECTIVE_ROTOR_COUNT>
7.6

> <PUBCHEM_PHARMACOPHORE_FEATURES>
15
1 1 acceptor
1 2 acceptor
1 3 acceptor
1 3 donor
1 5 acceptor
1 6 acceptor
1 7 acceptor
1 7 donor
1 8 acceptor
1 9 cation
5 1 2 11 15 29 rings
6 10 14 18 19 26 27 rings
8 10 11 12 13 14 15 16 17 rings
8 12 15 16 20 21 22 23 25 rings
8 9 10 11 13 14 17 18 24 rings

> <PUBCHEM_HEAVY_ATOM_COUNT>
35

> <PUBCHEM_ATOM_DEF_STEREO_COUNT>
13

> <PUBCHEM_ATOM_UDEF_STEREO_COUNT>
0

> <PUBCHEM_BOND_DEF_STEREO_COUNT>
0

> <PUBCHEM_BOND_UDEF_STEREO_COUNT>
0

> <PUBCHEM_ISOTOPIC_ATOM_COUNT>
0

> <PUBCHEM_COMPONENT_COUNT>
1

> <PUBCHEM_CACTVS_TAUTO_COUNT>
2

> <PUBCHEM_CONFORMER_ID>
061B8D7600000001

> <PUBCHEM_MMFF94_ENERGY>
188.8314

> <PUBCHEM_FEATURE_SELFOVERLAP>
77.748

> <PUBCHEM_SHAPE_FINGERPRINT>
10165383 225 18118707597203683165
10863032 1 17972326371719056384
11578080 2 17462007565870435309
12035759 4 17202461412631961069
12156800 1 14351441788955775332
12633257 1 18125740112172038099
12788726 201 18197800957642782960
13140716 1 18342182193378518553
13149001 5 17622986303268926901
13224815 77 18060142067421873709
133893 2 18195230140490037359
14223421 5 18200329744249778969
14713325 29 17691451720142148620
15219462 58 18048614633509052475
16945 1 18059582437345978709
18981168 100 18042973073380040541
20691752 17 18197807529121470337
20905425 154 17986690189565907553
21033648 29 18046035367697849548
22121540 332 15511383623471349068
23419403 2 17832689537880222469
23558518 356 18269283361138723153
23559900 14 18127435383361466838
238 59 18200858678115100181
35225 105 17904742715911496387
469060 322 16670490456694428988
57527452 28 17409028852095894154
70251023 43 18058730196251134535

> <PUBCHEM_SHAPE_MULTIPOLES>
668.35
6.02
4.43
2.57
1.52
2.67
1.8
-1.91
0.22
0.31
-2.16
-1.31
-0.4
-0.66

> <PUBCHEM_SHAPE_SELFOVERLAP>
1481.077

> <PUBCHEM_SHAPE_VOLUME>
350.2

> <PUBCHEM_COORDINATE_TYPE>
2
5
10

$$$$
