102468981
  -OEChem-03292013293D

 74 80  0     1  0  0  0  0  0999 V2000
   -0.1171   -1.4683   -2.1611 O   0  0  0  0  0  0  0  0  0  0  0  0
    1.9234   -1.8983   -1.0619 O   0  0  0  0  0  0  0  0  0  0  0  0
    0.8271    0.9605    2.5799 O   0  0  0  0  0  0  0  0  0  0  0  0
    0.0374   -2.4758    0.9079 O   0  0  0  0  0  0  0  0  0  0  0  0
   -1.0748    3.3215    0.5624 O   0  0  0  0  0  0  0  0  0  0  0  0
    4.1675   -0.4320    0.4573 O   0  0  0  0  0  0  0  0  0  0  0  0
    2.9113    2.6637   -2.0115 O   0  0  0  0  0  0  0  0  0  0  0  0
   -1.2460   -4.2533    0.1795 O   0  0  0  0  0  0  0  0  0  0  0  0
   -2.2079    0.6602   -1.3584 N   0  0  2  0  0  0  0  0  0  0  0  0
   -0.7322    0.8628    0.6649 C   0  0  1  0  0  0  0  0  0  0  0  0
   -0.0680   -0.7474   -0.9358 C   0  0  2  0  0  0  0  0  0  0  0  0
    0.7996    0.9618    1.1401 C   0  0  2  0  0  0  0  0  0  0  0  0
   -0.8119    0.6221   -0.8788 C   0  0  1  0  0  0  0  0  0  0  0  0
   -1.4093   -0.4901    1.1147 C   0  0  2  0  0  0  0  0  0  0  0  0
    1.4571   -0.5717   -0.7469 C   0  0  1  0  0  0  0  0  0  0  0  0
    1.7380   -0.1933    0.7154 C   0  0  1  0  0  0  0  0  0  0  0  0
   -0.7799   -1.5718    0.1853 C   0  0  2  0  0  0  0  0  0  0  0  0
   -2.9437   -0.4224    0.8117 C   0  0  2  0  0  0  0  0  0  0  0  0
   -1.5028    2.1214    1.2022 C   0  0  2  0  0  0  0  0  0  0  0  0
    1.5865    2.2116    0.6321 C   0  0  0  0  0  0  0  0  0  0  0  0
    3.1305    0.3921    0.9494 C   0  0  2  0  0  0  0  0  0  0  0  0
    2.9883    1.7069    0.2072 C   0  0  1  0  0  0  0  0  0  0  0  0
    2.1066    0.3801   -1.8154 C   0  0  0  0  0  0  0  0  0  0  0  0
   -3.1485   -0.2761   -0.7292 C   0  0  0  0  0  0  0  0  0  0  0  0
    3.0904    1.4418   -1.2976 C   0  0  1  0  0  0  0  0  0  0  0  0
   -3.5778    0.7627    1.5690 C   0  0  0  0  0  0  0  0  0  0  0  0
   -3.0234    2.0998    1.1348 C   0  0  0  0  0  0  0  0  0  0  0  0
   -3.6629   -1.6957    1.3098 C   0  0  0  0  0  0  0  0  0  0  0  0
    1.0125   -2.3542   -2.0809 C   0  0  0  0  0  0  0  0  0  0  0  0
   -2.3238    0.6497   -2.8111 C   0  0  0  0  0  0  0  0  0  0  0  0
   -3.7224    1.0460   -3.2531 C   0  0  0  0  0  0  0  0  0  0  0  0
   -0.3077   -3.7980    0.8194 C   0  0  0  0  0  0  0  0  0  0  0  0
   -1.1979    4.4397    1.4273 C   0  0  0  0  0  0  0  0  0  0  0  0
    5.4433   -0.0250    0.9422 C   0  0  0  0  0  0  0  0  0  0  0  0
    0.6386   -4.6313    1.6294 C   0  0  0  0  0  0  0  0  0  0  0  0
   -0.2818    1.4235   -1.3951 H   0  0  0  0  0  0  0  0  0  0  0  0
   -1.2428   -0.7048    2.1751 H   0  0  0  0  0  0  0  0  0  0  0  0
    1.6793   -1.0608    1.3769 H   0  0  0  0  0  0  0  0  0  0  0  0
   -1.5542   -2.1491   -0.3168 H   0  0  0  0  0  0  0  0  0  0  0  0
   -1.2575    2.1815    2.2721 H   0  0  0  0  0  0  0  0  0  0  0  0
    1.6929    2.9430    1.4422 H   0  0  0  0  0  0  0  0  0  0  0  0
    1.1066    2.7124   -0.2108 H   0  0  0  0  0  0  0  0  0  0  0  0
    3.2791    0.5650    2.0244 H   0  0  0  0  0  0  0  0  0  0  0  0
    3.7506    2.4405    0.4925 H   0  0  0  0  0  0  0  0  0  0  0  0
    1.3436    0.8680   -2.4302 H   0  0  0  0  0  0  0  0  0  0  0  0
    2.6644   -0.2209   -2.5481 H   0  0  0  0  0  0  0  0  0  0  0  0
   -4.1776    0.0731   -0.8814 H   0  0  0  0  0  0  0  0  0  0  0  0
   -3.1027   -1.2525   -1.2269 H   0  0  0  0  0  0  0  0  0  0  0  0
    4.1111    1.1124   -1.5278 H   0  0  0  0  0  0  0  0  0  0  0  0
   -3.4133    0.6391    2.6480 H   0  0  0  0  0  0  0  0  0  0  0  0
   -4.6657    0.7715    1.4236 H   0  0  0  0  0  0  0  0  0  0  0  0
   -3.3814    2.3773    0.1369 H   0  0  0  0  0  0  0  0  0  0  0  0
   -3.4437    2.8692    1.7939 H   0  0  0  0  0  0  0  0  0  0  0  0
    0.5499    0.0844    2.8940 H   0  0  0  0  0  0  0  0  0  0  0  0
   -3.3369   -2.5987    0.7879 H   0  0  0  0  0  0  0  0  0  0  0  0
   -4.7457   -1.6166    1.1575 H   0  0  0  0  0  0  0  0  0  0  0  0
   -3.4875   -1.8513    2.3803 H   0  0  0  0  0  0  0  0  0  0  0  0
    1.5234   -2.3683   -3.0484 H   0  0  0  0  0  0  0  0  0  0  0  0
    0.6779   -3.3679   -1.8441 H   0  0  0  0  0  0  0  0  0  0  0  0
   -1.6254    1.3777   -3.2416 H   0  0  0  0  0  0  0  0  0  0  0  0
   -2.0743   -0.3276   -3.2378 H   0  0  0  0  0  0  0  0  0  0  0  0
    3.0192    2.4682   -2.9580 H   0  0  0  0  0  0  0  0  0  0  0  0
   -3.7300    1.2211   -4.3347 H   0  0  0  0  0  0  0  0  0  0  0  0
   -4.0512    1.9720   -2.7689 H   0  0  0  0  0  0  0  0  0  0  0  0
   -4.4600    0.2624   -3.0547 H   0  0  0  0  0  0  0  0  0  0  0  0
   -0.7776    5.3080    0.9114 H   0  0  0  0  0  0  0  0  0  0  0  0
   -0.6280    4.2911    2.3500 H   0  0  0  0  0  0  0  0  0  0  0  0
   -2.2427    4.6650    1.6546 H   0  0  0  0  0  0  0  0  0  0  0  0
    6.1957   -0.7000    0.5253 H   0  0  0  0  0  0  0  0  0  0  0  0
    5.4810   -0.0978    2.0334 H   0  0  0  0  0  0  0  0  0  0  0  0
    5.6794    0.9937    0.6219 H   0  0  0  0  0  0  0  0  0  0  0  0
    1.6559   -4.5094    1.2489 H   0  0  0  0  0  0  0  0  0  0  0  0
    0.3584   -5.6850    1.5450 H   0  0  0  0  0  0  0  0  0  0  0  0
    0.5827   -4.3377    2.6806 H   0  0  0  0  0  0  0  0  0  0  0  0
  1 11  1  0  0  0  0
  1 29  1  0  0  0  0
  2 15  1  0  0  0  0
  2 29  1  0  0  0  0
  3 12  1  0  0  0  0
  3 54  1  0  0  0  0
  4 17  1  0  0  0  0
  4 32  1  0  0  0  0
  5 19  1  0  0  0  0
  5 33  1  0  0  0  0
  6 21  1  0  0  0  0
  6 34  1  0  0  0  0
  7 25  1  0  0  0  0
  7 62  1  0  0  0  0
  8 32  2  0  0  0  0
  9 13  1  0  0  0  0
  9 24  1  0  0  0  0
  9 30  1  0  0  0  0
 10 12  1  0  0  0  0
 10 13  1  0  0  0  0
 10 14  1  0  0  0  0
 10 19  1  0  0  0  0
 11 13  1  0  0  0  0
 11 15  1  0  0  0  0
 11 17  1  0  0  0  0
 12 16  1  0  0  0  0
 12 20  1  0  0  0  0
 13 36  1  0  0  0  0
 14 17  1  0  0  0  0
 14 18  1  0  0  0  0
 14 37  1  0  0  0  0
 15 16  1  0  0  0  0
 15 23  1  0  0  0  0
 16 21  1  0  0  0  0
 16 38  1  0  0  0  0
 17 39  1  0  0  0  0
 18 24  1  0  0  0  0
 18 26  1  0  0  0  0
 18 28  1  0  0  0  0
 19 27  1  0  0  0  0
 19 40  1  0  0  0  0
 20 22  1  0  0  0  0
 20 41  1  0  0  0  0
 20 42  1  0  0  0  0
 21 22  1  0  0  0  0
 21 43  1  0  0  0  0
 22 25  1  0  0  0  0
 22 44  1  0  0  0  0
 23 25  1  0  0  0  0
 23 45  1  0  0  0  0
 23 46  1  0  0  0  0
 24 47  1  0  0  0  0
 24 48  1  0  0  0  0
 25 49  1  0  0  0  0
 26 27  1  0  0  0  0
 26 50  1  0  0  0  0
 26 51  1  0  0  0  0
 27 52  1  0  0  0  0
 27 53  1  0  0  0  0
 28 55  1  0  0  0  0
 28 56  1  0  0  0  0
 28 57  1  0  0  0  0
 29 58  1  0  0  0  0
 29 59  1  0  0  0  0
 30 31  1  0  0  0  0
 30 60  1  0  0  0  0
 30 61  1  0  0  0  0
 31 63  1  0  0  0  0
 31 64  1  0  0  0  0
 31 65  1  0  0  0  0
 32 35  1  0  0  0  0
 33 66  1  0  0  0  0
 33 67  1  0  0  0  0
 33 68  1  0  0  0  0
 34 69  1  0  0  0  0
 34 70  1  0  0  0  0
 34 71  1  0  0  0  0
 35 72  1  0  0  0  0
 35 73  1  0  0  0  0
 35 74  1  0  0  0  0
M  END
> <PUBCHEM_COMPOUND_CID>
102468981

> <PUBCHEM_CONFORMER_RMSD>
1

> <PUBCHEM_CONFORMER_DIVERSEORDER>
1

> <PUBCHEM_MMFF94_PARTIAL_CHARGES>
26
1 -0.56
11 0.28
12 0.28
13 0.27
15 0.28
17 0.28
19 0.28
2 -0.56
21 0.28
24 0.27
25 0.28
29 0.56
3 -0.68
30 0.27
32 0.66
33 0.28
34 0.28
35 0.06
4 -0.43
5 -0.56
54 0.4
6 -0.56
62 0.4
7 -0.68
8 -0.57
9 -0.81

> <PUBCHEM_EFFECTIVE_ROTOR_COUNT>
7.6

> <PUBCHEM_PHARMACOPHORE_FEATURES>
15
1 1 acceptor
1 2 acceptor
1 3 acceptor
1 3 donor
1 5 acceptor
1 6 acceptor
1 7 acceptor
1 7 donor
1 8 acceptor
1 9 cation
5 1 2 11 15 29 rings
6 10 14 18 19 26 27 rings
8 10 11 12 13 14 15 16 17 rings
8 12 15 16 20 21 22 23 25 rings
8 9 10 11 13 14 17 18 24 rings

> <PUBCHEM_HEAVY_ATOM_COUNT>
35

> <PUBCHEM_ATOM_DEF_STEREO_COUNT>
13

> <PUBCHEM_ATOM_UDEF_STEREO_COUNT>
0

> <PUBCHEM_BOND_DEF_STEREO_COUNT>
0

> <PUBCHEM_BOND_UDEF_STEREO_COUNT>
0

> <PUBCHEM_ISOTOPIC_ATOM_COUNT>
0

> <PUBCHEM_COMPONENT_COUNT>
1

> <PUBCHEM_CACTVS_TAUTO_COUNT>
2

> <PUBCHEM_CONFORMER_ID>
061B8D7500000001

> <PUBCHEM_MMFF94_ENERGY>
188.5272

> <PUBCHEM_FEATURE_SELFOVERLAP>
77.731

> <PUBCHEM_SHAPE_FINGERPRINT>
10165383 225 17755058269886702703
10863032 1 18046075023283107832
1100329 8 14306674777925130283
11578080 2 17534629196678524877
12035759 4 17273954935703662149
12156800 1 15605767247908471569
12633257 1 18197234743371616867
13140716 1 18056199317698464040
13149001 5 17838595001526274741
13224815 77 18059861657591790677
133893 2 18051113818548154991
14223421 5 18128272107214705361
15219462 58 17903938664427606385
16945 1 18131358530642653949
18981168 100 17898862253222653653
20691752 17 18198369336576739065
20905425 154 17914912932301420609
21033648 29 18118094031235349208
229495 10 17606403412705700756
23419403 2 17113806952439230343
23558518 356 18196945365771021545
23559900 14 18054536636736369878
238 59 18200577168783912893
35225 105 18048296023591589963
392239 28 18268729336475659299
469060 322 16886667615369305492
57527452 28 17479960520404428187
70251023 43 17986391084334211295

> <PUBCHEM_SHAPE_MULTIPOLES>
668.35
6.14
4.49
2.54
3.22
2.8
1.77
-2.04
0.03
-0.61
-2.15
-1.41
-0.42
-0.18

> <PUBCHEM_SHAPE_SELFOVERLAP>
1480.98

> <PUBCHEM_SHAPE_VOLUME>
350.6

> <PUBCHEM_COORDINATE_TYPE>
2
5
10

$$$$
