102478579
  -OEChem-03292013293D

 39 41  0     1  0  0  0  0  0999 V2000
   -2.0348   -0.9280    1.0770 O   0  0  0  0  0  0  0  0  0  0  0  0
   -3.6404    1.0447   -1.4507 O   0  0  0  0  0  0  0  0  0  0  0  0
   -4.8239   -0.9549   -0.0229 O   0  0  0  0  0  0  0  0  0  0  0  0
   -0.8386   -3.4342    0.6828 O   0  0  0  0  0  0  0  0  0  0  0  0
   -1.9242    3.1477    0.4878 O   0  0  0  0  0  0  0  0  0  0  0  0
    2.6417    2.8044    0.1069 O   0  0  0  0  0  0  0  0  0  0  0  0
   -0.9816    1.0204    0.3294 N   0  0  0  0  0  0  0  0  0  0  0  0
    0.3510    2.9582    0.2791 N   0  0  0  0  0  0  0  0  0  0  0  0
   -2.8163    0.0103   -0.9538 C   0  0  2  0  0  0  0  0  0  0  0  0
   -3.5923   -1.2599   -0.6767 C   0  0  1  0  0  0  0  0  0  0  0  0
   -2.2372    0.3304    0.4135 C   0  0  1  0  0  0  0  0  0  0  0  0
   -2.6929   -1.9712    0.3251 C   0  0  1  0  0  0  0  0  0  0  0  0
   -1.6211   -2.8304   -0.3323 C   0  0  0  0  0  0  0  0  0  0  0  0
    0.1623    0.2588    0.1992 C   0  0  0  0  0  0  0  0  0  0  0  0
   -0.9360    2.4194    0.3742 C   0  0  0  0  0  0  0  0  0  0  0  0
    1.3970    0.7758    0.1134 C   0  0  0  0  0  0  0  0  0  0  0  0
    1.5424    2.2589    0.1593 C   0  0  0  0  0  0  0  0  0  0  0  0
    2.5666   -0.1063   -0.0400 C   0  0  0  0  0  0  0  0  0  0  0  0
    2.8525   -1.0614    0.9356 C   0  0  0  0  0  0  0  0  0  0  0  0
    3.3881    0.0133   -1.1608 C   0  0  0  0  0  0  0  0  0  0  0  0
    3.9602   -1.8968    0.7905 C   0  0  0  0  0  0  0  0  0  0  0  0
    4.4957   -0.8220   -1.3061 C   0  0  0  0  0  0  0  0  0  0  0  0
    4.7817   -1.7770   -0.3304 C   0  0  0  0  0  0  0  0  0  0  0  0
   -2.0246   -0.1835   -1.6876 H   0  0  0  0  0  0  0  0  0  0  0  0
   -3.8217   -1.8361   -1.5776 H   0  0  0  0  0  0  0  0  0  0  0  0
   -2.9397    0.9220    1.0132 H   0  0  0  0  0  0  0  0  0  0  0  0
   -3.2592   -2.5695    1.0477 H   0  0  0  0  0  0  0  0  0  0  0  0
   -0.9625   -2.2629   -0.9938 H   0  0  0  0  0  0  0  0  0  0  0  0
   -2.0887   -3.6271   -0.9204 H   0  0  0  0  0  0  0  0  0  0  0  0
   -4.0574    0.7194   -2.2667 H   0  0  0  0  0  0  0  0  0  0  0  0
   -5.2680   -1.7987    0.1685 H   0  0  0  0  0  0  0  0  0  0  0  0
    0.0505   -0.8134    0.1587 H   0  0  0  0  0  0  0  0  0  0  0  0
    0.4202    3.9715    0.3111 H   0  0  0  0  0  0  0  0  0  0  0  0
   -0.1686   -3.9828    0.2403 H   0  0  0  0  0  0  0  0  0  0  0  0
    2.2274   -1.1673    1.8191 H   0  0  0  0  0  0  0  0  0  0  0  0
    3.1777    0.7482   -1.9340 H   0  0  0  0  0  0  0  0  0  0  0  0
    4.1836   -2.6398    1.5505 H   0  0  0  0  0  0  0  0  0  0  0  0
    5.1348   -0.7298   -2.1794 H   0  0  0  0  0  0  0  0  0  0  0  0
    5.6441   -2.4274   -0.4436 H   0  0  0  0  0  0  0  0  0  0  0  0
  1 11  1  0  0  0  0
  1 12  1  0  0  0  0
  2  9  1  0  0  0  0
  2 30  1  0  0  0  0
  3 10  1  0  0  0  0
  3 31  1  0  0  0  0
  4 13  1  0  0  0  0
  4 34  1  0  0  0  0
  5 15  2  0  0  0  0
  6 17  2  0  0  0  0
  7 11  1  0  0  0  0
  7 14  1  0  0  0  0
  7 15  1  0  0  0  0
  8 15  1  0  0  0  0
  8 17  1  0  0  0  0
  8 33  1  0  0  0  0
  9 10  1  0  0  0  0
  9 11  1  0  0  0  0
  9 24  1  0  0  0  0
 10 12  1  0  0  0  0
 10 25  1  0  0  0  0
 11 26  1  0  0  0  0
 12 13  1  0  0  0  0
 12 27  1  0  0  0  0
 13 28  1  0  0  0  0
 13 29  1  0  0  0  0
 14 16  2  0  0  0  0
 14 32  1  0  0  0  0
 16 17  1  0  0  0  0
 16 18  1  0  0  0  0
 18 19  2  0  0  0  0
 18 20  1  0  0  0  0
 19 21  1  0  0  0  0
 19 35  1  0  0  0  0
 20 22  2  0  0  0  0
 20 36  1  0  0  0  0
 21 23  2  0  0  0  0
 21 37  1  0  0  0  0
 22 23  1  0  0  0  0
 22 38  1  0  0  0  0
 23 39  1  0  0  0  0
M  END
> <PUBCHEM_COMPOUND_CID>
102478579

> <PUBCHEM_CONFORMER_RMSD>
0.6

> <PUBCHEM_CONFORMER_DIVERSEORDER>
1
21
37
36
38
29
30
23
19
7
8
26
18
25
5
35
39
33
28
22
12
34
11
17
9
27
4
3
24
14
10
20
31
32
15
2
6
16
13

> <PUBCHEM_MMFF94_PARTIAL_CHARGES>
33
1 -0.56
10 0.28
11 0.58
12 0.28
13 0.28
14 -0.04
15 0.69
16 -0.01
17 0.62
18 0.03
19 -0.15
2 -0.68
20 -0.15
21 -0.15
22 -0.15
23 -0.15
3 -0.68
30 0.4
31 0.4
32 0.15
33 0.37
34 0.4
35 0.15
36 0.15
37 0.15
38 0.15
39 0.15
4 -0.68
5 -0.57
6 -0.57
7 -0.47
8 -0.49
9 0.28

> <PUBCHEM_EFFECTIVE_ROTOR_COUNT>
4

> <PUBCHEM_PHARMACOPHORE_FEATURES>
13
1 1 acceptor
1 2 acceptor
1 2 donor
1 3 acceptor
1 3 donor
1 4 acceptor
1 4 donor
1 5 acceptor
1 6 acceptor
1 8 donor
5 1 9 10 11 12 rings
6 18 19 20 21 22 23 rings
6 7 8 14 15 16 17 rings

> <PUBCHEM_HEAVY_ATOM_COUNT>
23

> <PUBCHEM_ATOM_DEF_STEREO_COUNT>
4

> <PUBCHEM_ATOM_UDEF_STEREO_COUNT>
0

> <PUBCHEM_BOND_DEF_STEREO_COUNT>
0

> <PUBCHEM_BOND_UDEF_STEREO_COUNT>
0

> <PUBCHEM_ISOTOPIC_ATOM_COUNT>
0

> <PUBCHEM_COMPONENT_COUNT>
1

> <PUBCHEM_CACTVS_TAUTO_COUNT>
3

> <PUBCHEM_CONFORMER_ID>
061BB2F300000001

> <PUBCHEM_MMFF94_ENERGY>
69.6538

> <PUBCHEM_FEATURE_SELFOVERLAP>
65.992

> <PUBCHEM_SHAPE_FINGERPRINT>
10616163 171 18267590104832118942
10693767 8 17913463978684105135
1100329 8 18270402664013300993
11578080 2 17677871501798811388
12363563 72 18272091591076558566
12553582 1 18411709772432010818
12633257 1 18342751731748324679
12707595 3 18412828001542892078
12788726 201 18341902848383312968
13140716 1 18340490057593478979
13533116 47 18057606675803347323
14251757 5 18335713757945719742
14790565 3 17691976955481997264
14866123 147 18197503926668358027
16752209 62 18337945671627710090
19862831 5 17967249763198211128
20291156 8 18411703201031587110
20600515 1 18195496299655770408
20645477 70 18269835478947000487
20775438 99 17335578336219633663
20871999 31 18339930303480698196
21634736 98 18336551611654392734
221490 88 18192437578703388322
23114952 82 17970346133834436029
23184049 29 18411981373326380664
23557571 272 18201717302834561210
23559900 14 18412535522986790528
3004659 81 18114179697142358414
3027735 51 18129098910073688127
314173 41 18338523044208067678
3178227 256 18123768456676527737
34934 24 18126000709349288160
4280585 95 18409443692379242564
59755656 215 18267022950295651540
7970288 3 18342174462147709254
9709674 26 18121778593415494727

> <PUBCHEM_SHAPE_MULTIPOLES>
428.15
8.44
3.67
1.05
3.04
0.98
-0.2
-4.71
-2.09
-0.72
0.72
0.2
-0.19
-0.03

> <PUBCHEM_SHAPE_SELFOVERLAP>
927.123

> <PUBCHEM_SHAPE_VOLUME>
233

> <PUBCHEM_COORDINATE_TYPE>
2
5
10

$$$$
