10249185
  -OEChem-03292013303D

 32 33  0     1  0  0  0  0  0999 V2000
    0.9103    0.3872    0.6118 O   0  0  0  0  0  0  0  0  0  0  0  0
    2.4846   -2.1379    0.3648 O   0  0  0  0  0  0  0  0  0  0  0  0
    0.0647   -2.8600   -0.6426 O   0  0  0  0  0  0  0  0  0  0  0  0
    2.9783    0.8498   -2.3374 O   0  0  0  0  0  0  0  0  0  0  0  0
   -2.4426   -1.8747    1.2804 O   0  0  0  0  0  0  0  0  0  0  0  0
   -1.3373   -0.1375    0.2382 N   0  0  0  0  0  0  0  0  0  0  0  0
    3.3704    0.4048    0.3633 N   0  0  0  0  0  0  0  0  0  0  0  0
   -3.7393   -0.2036    0.4570 N   0  0  0  0  0  0  0  0  0  0  0  0
    3.4049    1.2915    1.2327 N   0  3  0  0  0  0  0  0  0  0  0  0
   -5.0623    1.5110   -0.3905 N   0  0  0  0  0  0  0  0  0  0  0  0
    3.4252    2.1074    2.0295 N   0  5  0  0  0  0  0  0  0  0  0  0
    1.9531   -1.3067   -0.6699 C   0  0  2  0  0  0  0  0  0  0  0  0
    2.0555    0.1611   -0.2439 C   0  0  1  0  0  0  0  0  0  0  0  0
    0.4516   -1.5045   -0.7454 C   0  0  2  0  0  0  0  0  0  0  0  0
   -0.0283   -0.6891    0.4437 C   0  0  1  0  0  0  0  0  0  0  0  0
    1.9284    1.1217   -1.4300 C   0  0  0  0  0  0  0  0  0  0  0  0
   -1.4521    1.0749   -0.4240 C   0  0  0  0  0  0  0  0  0  0  0  0
   -2.5094   -0.7949    0.6900 C   0  0  0  0  0  0  0  0  0  0  0  0
   -2.6254    1.6593   -0.6590 C   0  0  0  0  0  0  0  0  0  0  0  0
   -3.8303    0.9404   -0.1689 C   0  0  0  0  0  0  0  0  0  0  0  0
    2.4772   -1.5573   -1.5963 H   0  0  0  0  0  0  0  0  0  0  0  0
    0.0695   -1.1105   -1.6944 H   0  0  0  0  0  0  0  0  0  0  0  0
   -0.0271   -1.2867    1.3633 H   0  0  0  0  0  0  0  0  0  0  0  0
    1.9810    2.1706   -1.1179 H   0  0  0  0  0  0  0  0  0  0  0  0
    0.9963    0.9927   -1.9826 H   0  0  0  0  0  0  0  0  0  0  0  0
    2.2959   -3.0598    0.1189 H   0  0  0  0  0  0  0  0  0  0  0  0
   -0.9069   -2.8854   -0.6157 H   0  0  0  0  0  0  0  0  0  0  0  0
   -0.5595    1.5840   -0.7473 H   0  0  0  0  0  0  0  0  0  0  0  0
    3.8178    0.9893   -1.8669 H   0  0  0  0  0  0  0  0  0  0  0  0
   -2.7223    2.6095   -1.1669 H   0  0  0  0  0  0  0  0  0  0  0  0
   -5.1656    2.3976   -0.8729 H   0  0  0  0  0  0  0  0  0  0  0  0
   -5.9114    1.0557   -0.0733 H   0  0  0  0  0  0  0  0  0  0  0  0
  1 13  1  0  0  0  0
  1 15  1  0  0  0  0
  2 12  1  0  0  0  0
  2 26  1  0  0  0  0
  3 14  1  0  0  0  0
  3 27  1  0  0  0  0
  4 16  1  0  0  0  0
  4 29  1  0  0  0  0
  5 18  2  0  0  0  0
  6 15  1  0  0  0  0
  6 17  1  0  0  0  0
  6 18  1  0  0  0  0
  7  9  2  0  0  0  0
  7 13  1  0  0  0  0
  8 18  1  0  0  0  0
  8 20  2  0  0  0  0
  9 11  2  0  0  0  0
 10 20  1  0  0  0  0
 10 31  1  0  0  0  0
 10 32  1  0  0  0  0
 12 13  1  0  0  0  0
 12 14  1  0  0  0  0
 12 21  1  0  0  0  0
 13 16  1  0  0  0  0
 14 15  1  0  0  0  0
 14 22  1  0  0  0  0
 15 23  1  0  0  0  0
 16 24  1  0  0  0  0
 16 25  1  0  0  0  0
 17 19  2  0  0  0  0
 17 28  1  0  0  0  0
 19 20  1  0  0  0  0
 19 30  1  0  0  0  0
M  CHG  2   9   1  11  -1
M  END
> <PUBCHEM_COMPOUND_CID>
10249185

> <PUBCHEM_CONFORMER_RMSD>
0.6

> <PUBCHEM_CONFORMER_DIVERSEORDER>
2
84
142
170
114
145
95
191
63
110
203
134
206
33
115
80
162
151
143
204
154
94
96
156
74
26
73
15
122
46
182
55
52
152
97
164
137
125
190
146
155
123
56
41
172
194
158
76
113
83
153
126
53
201
128
22
130
98
147
181
169
139
112
70
107
174
176
129
23
51
157
121
100
178
105
72
62
196
17
168
64
120
141
71
159
81
173
99
65
148
186
202
183
185
200
54
177
108
30
49
89
187
149
160
205
103
163
127
167
11
199
32
4
189
60
150
133
180
85
106
179
82
75
138
28
31
8
131
124
136
198
175
1
102
140
104
42
79
93
38
171
59
67
87
48
10
37
197
77
144
34
117
13
20
161
3
101
16
192
21
19
118
135
18
61
58
66
78
6
5
86
90
25
165
166
68
14
57
184
132
45
9
193
44
35
50
24
69
39
29
88
188
12
116
195
36
43
27
111
40
7
109
92
47
91
119

> <PUBCHEM_MMFF94_PARTIAL_CHARGES>
27
1 -0.56
10 -0.85
11 -0.37
12 0.28
13 0.53
14 0.28
15 0.58
16 0.28
17 -0.04
18 0.84
19 -0.14
2 -0.68
20 0.49
26 0.4
27 0.4
28 0.15
29 0.4
3 -0.68
30 0.15
31 0.4
32 0.4
4 -0.68
5 -0.57
6 -0.47
7 -0.56
8 -0.66
9 0.69

> <PUBCHEM_EFFECTIVE_ROTOR_COUNT>
4

> <PUBCHEM_PHARMACOPHORE_FEATURES>
12
1 1 acceptor
1 10 donor
1 2 acceptor
1 2 donor
1 3 acceptor
1 3 donor
1 4 acceptor
1 4 donor
1 5 acceptor
1 8 donor
5 1 12 13 14 15 rings
6 6 8 17 18 19 20 rings

> <PUBCHEM_HEAVY_ATOM_COUNT>
20

> <PUBCHEM_ATOM_DEF_STEREO_COUNT>
1

> <PUBCHEM_ATOM_UDEF_STEREO_COUNT>
3

> <PUBCHEM_BOND_DEF_STEREO_COUNT>
0

> <PUBCHEM_BOND_UDEF_STEREO_COUNT>
1

> <PUBCHEM_ISOTOPIC_ATOM_COUNT>
0

> <PUBCHEM_COMPONENT_COUNT>
1

> <PUBCHEM_CACTVS_TAUTO_COUNT>
3

> <PUBCHEM_CONFORMER_ID>
009C63E100000002

> <PUBCHEM_MMFF94_ENERGY>
58.5235

> <PUBCHEM_FEATURE_SELFOVERLAP>
60.958

> <PUBCHEM_SHAPE_FINGERPRINT>
10608611 8 18338232653037428057
11132069 177 18260546719328068013
11543360 7 16128653072346781901
12251169 10 17676204658543317285
12403259 415 18271530900360545312
12553582 1 17684949272563029507
12633257 1 17095516309832618705
13134695 92 17984696715124285078
14178342 30 17895185636330865034
14289901 80 17967825975973966467
15061688 2 18059280071986138968
15219456 202 18410014299790088195
15375358 24 18410568479504804057
15775835 57 18060412521517466063
16945 1 18191594257305544830
17980427 23 17968648453584513676
18186145 218 17917726715605673696
20645477 70 17917144979813563679
21501502 16 18261403221542719079
21618674 25 18341322328146003633
23402539 116 18187636999504479263
23419403 2 16756858783088969394
23493267 7 17677915567561374322
23557571 272 18263098724412819443
23559900 14 18187931620812074023
23598291 2 14260815878618062932
2748010 2 18410867550493067039
3060560 45 17846780667968185798
495365 180 18200862985930244593
5104073 3 18410293567464735459
5939293 188 17894638070913595772
7097593 13 17386270043906048794
7364860 26 18197213650813547242
81228 2 17551238797180017974
90316 7 17241032267322646909
9709674 26 18262529095901667667

> <PUBCHEM_SHAPE_MULTIPOLES>
352.36
7.29
2.31
1.43
4.86
0.95
-0.06
-3.8
0.83
-0.49
0.12
-1.58
-0.61
1.26

> <PUBCHEM_SHAPE_SELFOVERLAP>
746.833

> <PUBCHEM_SHAPE_VOLUME>
194.5

> <PUBCHEM_COORDINATE_TYPE>
2
5
10

$$$$
