102458574
  -OEChem-03292013293D

 67 70  0     1  0  0  0  0  0999 V2000
   -0.9840   -1.1113    3.1957 O   0  0  0  0  0  0  0  0  0  0  0  0
    0.7087    0.7224    1.2178 O   0  0  0  0  0  0  0  0  0  0  0  0
   -5.1634    0.6344    1.5709 O   0  0  0  0  0  0  0  0  0  0  0  0
   -1.0081    1.8770    2.1669 O   0  0  0  0  0  0  0  0  0  0  0  0
    4.5773    0.4271   -0.6040 O   0  0  0  0  0  0  0  0  0  0  0  0
    2.8263    1.9221   -0.0812 O   0  0  0  0  0  0  0  0  0  0  0  0
    5.5630   -1.7093   -0.3840 O   0  0  0  0  0  0  0  0  0  0  0  0
    3.8528    2.8653   -1.9234 O   0  0  0  0  0  0  0  0  0  0  0  0
    7.3198   -0.3301   -0.9745 O   0  0  0  0  0  0  0  0  0  0  0  0
   -4.3856   -0.6343   -0.3248 C   0  0  2  0  0  0  0  0  0  0  0  0
   -1.2812   -0.4621    1.9465 C   0  0  1  0  0  0  0  0  0  0  0  0
   -4.6250   -1.0959   -1.8084 C   0  0  0  0  0  0  0  0  0  0  0  0
   -0.4973   -1.7502    2.0128 C   0  0  1  0  0  0  0  0  0  0  0  0
   -5.1839    0.6297    0.1293 C   0  0  1  0  0  0  0  0  0  0  0  0
   -2.7291   -0.5341    1.5685 C   0  0  0  0  0  0  0  0  0  0  0  0
   -2.8973   -0.5388    0.0586 C   0  0  0  0  0  0  0  0  0  0  0  0
   -6.1417   -1.0910   -2.1264 C   0  0  0  0  0  0  0  0  0  0  0  0
   -6.6598    0.5284   -0.2882 C   0  0  0  0  0  0  0  0  0  0  0  0
    0.9683   -1.6422    1.7688 C   0  0  0  0  0  0  0  0  0  0  0  0
   -6.8405    0.2139   -1.7647 C   0  0  0  0  0  0  0  0  0  0  0  0
   -0.5324    0.8146    1.7866 C   0  0  0  0  0  0  0  0  0  0  0  0
    1.1904   -0.5510    0.7231 C   0  0  2  0  0  0  0  0  0  0  0  0
   -3.8765   -0.2503   -2.8579 C   0  0  0  0  0  0  0  0  0  0  0  0
   -4.1304   -2.5540   -1.9860 C   0  0  0  0  0  0  0  0  0  0  0  0
   -4.5849    1.9762   -0.2974 C   0  0  0  0  0  0  0  0  0  0  0  0
    2.6406   -0.3983    0.4056 C   0  0  0  0  0  0  0  0  0  0  0  0
    3.1512    0.6221   -0.5502 C   0  0  2  0  0  0  0  0  0  0  0  0
    3.6569   -1.1146    0.8840 C   0  0  0  0  0  0  0  0  0  0  0  0
    4.9330   -0.6362    0.2980 C   0  0  2  0  0  0  0  0  0  0  0  0
    3.2391    2.9618   -0.8693 C   0  0  0  0  0  0  0  0  0  0  0  0
    6.7598   -1.4180   -0.9808 C   0  0  0  0  0  0  0  0  0  0  0  0
    2.8292    4.2651   -0.2531 C   0  0  0  0  0  0  0  0  0  0  0  0
    7.3047   -2.6384   -1.6588 C   0  0  0  0  0  0  0  0  0  0  0  0
   -4.7914   -1.4557    0.2894 H   0  0  0  0  0  0  0  0  0  0  0  0
   -0.9474   -2.6785    1.6936 H   0  0  0  0  0  0  0  0  0  0  0  0
   -3.2038   -1.4184    2.0112 H   0  0  0  0  0  0  0  0  0  0  0  0
   -3.1555    0.3461    2.0442 H   0  0  0  0  0  0  0  0  0  0  0  0
   -2.3457   -1.4003   -0.3316 H   0  0  0  0  0  0  0  0  0  0  0  0
   -2.4210    0.3385   -0.3913 H   0  0  0  0  0  0  0  0  0  0  0  0
   -6.6315   -1.9060   -1.5759 H   0  0  0  0  0  0  0  0  0  0  0  0
   -6.3073   -1.3016   -3.1908 H   0  0  0  0  0  0  0  0  0  0  0  0
   -7.1915    1.4555   -0.0388 H   0  0  0  0  0  0  0  0  0  0  0  0
   -7.1527   -0.2509    0.3095 H   0  0  0  0  0  0  0  0  0  0  0  0
    1.3392   -2.6132    1.4207 H   0  0  0  0  0  0  0  0  0  0  0  0
    1.4713   -1.4005    2.7140 H   0  0  0  0  0  0  0  0  0  0  0  0
   -6.4687    1.0378   -2.3825 H   0  0  0  0  0  0  0  0  0  0  0  0
   -7.9107    0.1205   -1.9841 H   0  0  0  0  0  0  0  0  0  0  0  0
    0.6451   -0.7770   -0.2024 H   0  0  0  0  0  0  0  0  0  0  0  0
   -2.7992   -0.2245   -2.6652 H   0  0  0  0  0  0  0  0  0  0  0  0
   -4.0094   -0.6730   -3.8614 H   0  0  0  0  0  0  0  0  0  0  0  0
   -4.2338    0.7778   -2.9093 H   0  0  0  0  0  0  0  0  0  0  0  0
   -4.5582   -3.2159   -1.2248 H   0  0  0  0  0  0  0  0  0  0  0  0
   -4.4250   -2.9506   -2.9652 H   0  0  0  0  0  0  0  0  0  0  0  0
   -3.0406   -2.6334   -1.9284 H   0  0  0  0  0  0  0  0  0  0  0  0
   -3.5863    2.1304    0.1232 H   0  0  0  0  0  0  0  0  0  0  0  0
   -5.1896    2.8018    0.0987 H   0  0  0  0  0  0  0  0  0  0  0  0
   -4.5351    2.1066   -1.3773 H   0  0  0  0  0  0  0  0  0  0  0  0
   -5.7036    1.3828    1.8776 H   0  0  0  0  0  0  0  0  0  0  0  0
    2.7326    0.4600   -1.5508 H   0  0  0  0  0  0  0  0  0  0  0  0
    3.6030   -1.9254    1.5944 H   0  0  0  0  0  0  0  0  0  0  0  0
    5.5914   -0.2410    1.0805 H   0  0  0  0  0  0  0  0  0  0  0  0
    1.7410    4.3040   -0.1594 H   0  0  0  0  0  0  0  0  0  0  0  0
    3.1533    5.0885   -0.8959 H   0  0  0  0  0  0  0  0  0  0  0  0
    3.3043    4.3775    0.7246 H   0  0  0  0  0  0  0  0  0  0  0  0
    6.6091   -2.9738   -2.4322 H   0  0  0  0  0  0  0  0  0  0  0  0
    7.4716   -3.4280   -0.9219 H   0  0  0  0  0  0  0  0  0  0  0  0
    8.2605   -2.3948   -2.1314 H   0  0  0  0  0  0  0  0  0  0  0  0
  1 11  1  0  0  0  0
  1 13  1  0  0  0  0
  2 21  1  0  0  0  0
  2 22  1  0  0  0  0
  3 14  1  0  0  0  0
  3 58  1  0  0  0  0
  4 21  2  0  0  0  0
  5 27  1  0  0  0  0
  5 29  1  0  0  0  0
  6 27  1  0  0  0  0
  6 30  1  0  0  0  0
  7 29  1  0  0  0  0
  7 31  1  0  0  0  0
  8 30  2  0  0  0  0
  9 31  2  0  0  0  0
 10 12  1  0  0  0  0
 10 14  1  0  0  0  0
 10 16  1  0  0  0  0
 10 34  1  0  0  0  0
 11 13  1  0  0  0  0
 11 15  1  0  0  0  0
 11 21  1  0  0  0  0
 12 17  1  0  0  0  0
 12 23  1  0  0  0  0
 12 24  1  0  0  0  0
 13 19  1  0  0  0  0
 13 35  1  0  0  0  0
 14 18  1  0  0  0  0
 14 25  1  0  0  0  0
 15 16  1  0  0  0  0
 15 36  1  0  0  0  0
 15 37  1  0  0  0  0
 16 38  1  0  0  0  0
 16 39  1  0  0  0  0
 17 20  1  0  0  0  0
 17 40  1  0  0  0  0
 17 41  1  0  0  0  0
 18 20  1  0  0  0  0
 18 42  1  0  0  0  0
 18 43  1  0  0  0  0
 19 22  1  0  0  0  0
 19 44  1  0  0  0  0
 19 45  1  0  0  0  0
 20 46  1  0  0  0  0
 20 47  1  0  0  0  0
 22 26  1  0  0  0  0
 22 48  1  0  0  0  0
 23 49  1  0  0  0  0
 23 50  1  0  0  0  0
 23 51  1  0  0  0  0
 24 52  1  0  0  0  0
 24 53  1  0  0  0  0
 24 54  1  0  0  0  0
 25 55  1  0  0  0  0
 25 56  1  0  0  0  0
 25 57  1  0  0  0  0
 26 27  1  0  0  0  0
 26 28  2  0  0  0  0
 27 59  1  0  0  0  0
 28 29  1  0  0  0  0
 28 60  1  0  0  0  0
 29 61  1  0  0  0  0
 30 32  1  0  0  0  0
 31 33  1  0  0  0  0
 32 62  1  0  0  0  0
 32 63  1  0  0  0  0
 32 64  1  0  0  0  0
 33 65  1  0  0  0  0
 33 66  1  0  0  0  0
 33 67  1  0  0  0  0
M  END
> <PUBCHEM_COMPOUND_CID>
102458574

> <PUBCHEM_CONFORMER_RMSD>
1.4

> <PUBCHEM_CONFORMER_DIVERSEORDER>
1
186
48
104
148
22
88
18
97
160
99
116
52
155
131
45
25
173
59
41
158
98
162
159
81
140
71
57
87
119
136
11
171
47
194
193
181
84
28
80
103
64
39
145
33
156
6
68
100
125
105
138
67
179
196
27
107
117
189
70
172
95
137
121
17
35
91
12
187
134
78
183
141
38
69
164
149
188
191
32
60
113
177
169
89
83
90
8
133
111
53
63
143
101
62
14
5
7
55
139
19
110
174
79
120
108
135
65
37
128
184
106
94
161
192
31
170
115
56
93
176
122
86
82
58
129
154
144
124
76
126
10
46
20
195
30
150
142
9
157
21
3
85
168
112
147
66
182
54
43
61
16
118
96
180
102
166
50
44
15
127
190
24
72
2
123
151
23
26
29
132
167
75
165
152
146
73
163
40
42
4
130
77
92
74
34
51
185
13
175
114
109
178
153
36
49

> <PUBCHEM_MMFF94_PARTIAL_CHARGES>
27
1 -0.3
11 0.05
13 -0.05
14 0.28
15 0.09
19 0.09
2 -0.43
21 0.72
22 0.42
26 -0.28
27 0.7
28 -0.29
29 0.7
3 -0.68
30 0.66
31 0.66
32 0.06
33 0.06
35 0.1
4 -0.57
5 -0.56
58 0.4
6 -0.43
60 0.15
7 -0.43
8 -0.57
9 -0.57

> <PUBCHEM_EFFECTIVE_ROTOR_COUNT>
10.6

> <PUBCHEM_PHARMACOPHORE_FEATURES>
11
1 1 acceptor
1 3 acceptor
1 3 donor
1 4 acceptor
1 5 acceptor
1 8 acceptor
1 9 acceptor
3 12 23 24 hydrophobe
5 5 26 27 28 29 rings
6 10 12 14 17 18 20 rings
7 1 2 11 13 19 21 22 rings

> <PUBCHEM_HEAVY_ATOM_COUNT>
33

> <PUBCHEM_ATOM_DEF_STEREO_COUNT>
3

> <PUBCHEM_ATOM_UDEF_STEREO_COUNT>
4

> <PUBCHEM_BOND_DEF_STEREO_COUNT>
0

> <PUBCHEM_BOND_UDEF_STEREO_COUNT>
0

> <PUBCHEM_ISOTOPIC_ATOM_COUNT>
0

> <PUBCHEM_COMPONENT_COUNT>
1

> <PUBCHEM_CACTVS_TAUTO_COUNT>
4

> <PUBCHEM_CONFORMER_ID>
061B64CE00000001

> <PUBCHEM_MMFF94_ENERGY>
78.9729

> <PUBCHEM_FEATURE_SELFOVERLAP>
55.83

> <PUBCHEM_SHAPE_FINGERPRINT>
10369192 42 16370730305667393939
11135609 99 16773791481775123422
11578080 2 17241618402057580084
11796584 16 15841550782466983491
12166972 35 18059852874715732908
12403259 415 17167866399880863369
13540713 4 17751939140351256648
13761468 95 18051976914271503745
13782708 43 16128656319537379426
14068700 675 18130505241607191008
14341114 328 11891323241232333181
14347329 18 15864064360786894716
14931854 50 17968375641477386172
15183329 4 18187643574709402506
15188451 53 16702301218288193734
15510800 12 14908186377716702021
15530120 55 18125711542402467941
15604295 49 15865218930397478782
1813 80 15123516947056743057
21033648 29 16515400810927388657
21223535 225 18114457851529276421
21756936 100 13767932342178352563
23559900 14 18335710476848512856
23572383 38 13973966523725969357
23576562 1 18115599282591418182
2838139 119 16660630878050593766
3004659 81 18201711855898580034
4015057 19 18337115677940920712
44317340 157 18338799043565621809
58902169 19 18343305850905717652
6009941 240 15195010393208981307
6086070 43 17894911854109644858
613672 6 14333412276572052605
9689198 14 13695879095270209582

> <PUBCHEM_SHAPE_MULTIPOLES>
626.3
18.79
3.04
2.67
6.97
2.81
0.56
-6.64
-13.85
4.29
-1.4
-2.08
-0.76
-1.4

> <PUBCHEM_SHAPE_SELFOVERLAP>
1315.42

> <PUBCHEM_SHAPE_VOLUME>
349.4

> <PUBCHEM_COORDINATE_TYPE>
2
5
10

$$$$
