10245817
  -OEChem-03292013303D

 33 36  0     0  0  0  0  0  0999 V2000
   -1.2975    2.8635   -0.1813 S   0  0  0  0  0  0  0  0  0  0  0  0
    3.1244   -1.3507    0.1301 O   0  0  0  0  0  0  0  0  0  0  0  0
    4.2777    1.0644    0.1752 O   0  0  0  0  0  0  0  0  0  0  0  0
    2.0747   -3.6991    0.0877 O   0  0  0  0  0  0  0  0  0  0  0  0
   -3.6946    0.8101    0.9775 O   0  0  0  0  0  0  0  0  0  0  0  0
   -3.7708    0.7437   -1.3137 O   0  0  0  0  0  0  0  0  0  0  0  0
    0.6014    1.1578   -0.0490 C   0  0  0  0  0  0  0  0  0  0  0  0
   -0.5977    0.3939   -0.1135 C   0  0  0  0  0  0  0  0  0  0  0  0
   -0.5271   -1.0611   -0.0945 C   0  0  0  0  0  0  0  0  0  0  0  0
    1.9056    0.6469    0.0350 C   0  0  0  0  0  0  0  0  0  0  0  0
    0.7577   -1.6616   -0.0111 C   0  0  0  0  0  0  0  0  0  0  0  0
    0.3894    2.5292   -0.0758 C   0  0  0  0  0  0  0  0  0  0  0  0
    2.0177   -0.8332    0.0570 C   0  0  0  0  0  0  0  0  0  0  0  0
   -1.7120    1.1948   -0.1885 C   0  0  0  0  0  0  0  0  0  0  0  0
    2.9958    1.5129    0.0921 C   0  0  0  0  0  0  0  0  0  0  0  0
    1.4759    3.4195   -0.0187 C   0  0  0  0  0  0  0  0  0  0  0  0
   -1.6639   -1.8737   -0.1546 C   0  0  0  0  0  0  0  0  0  0  0  0
    0.8754   -3.0557    0.0096 C   0  0  0  0  0  0  0  0  0  0  0  0
    2.7730    2.8886    0.0652 C   0  0  0  0  0  0  0  0  0  0  0  0
   -1.5313   -3.2636   -0.1325 C   0  0  0  0  0  0  0  0  0  0  0  0
   -0.2689   -3.8510   -0.0509 C   0  0  0  0  0  0  0  0  0  0  0  0
   -3.1084    0.9042   -0.2692 C   0  0  0  0  0  0  0  0  0  0  0  0
   -5.0964    0.5204    1.0240 C   0  0  0  0  0  0  0  0  0  0  0  0
    1.3236    4.4944   -0.0385 H   0  0  0  0  0  0  0  0  0  0  0  0
   -2.6710   -1.4855   -0.2197 H   0  0  0  0  0  0  0  0  0  0  0  0
    3.6164    3.5745    0.1097 H   0  0  0  0  0  0  0  0  0  0  0  0
   -2.4168   -3.8915   -0.1795 H   0  0  0  0  0  0  0  0  0  0  0  0
   -0.1960   -4.9356   -0.0358 H   0  0  0  0  0  0  0  0  0  0  0  0
    4.2891    0.0941    0.1851 H   0  0  0  0  0  0  0  0  0  0  0  0
    1.9303   -4.6607    0.0884 H   0  0  0  0  0  0  0  0  0  0  0  0
   -5.6611    1.3111    0.5217 H   0  0  0  0  0  0  0  0  0  0  0  0
   -5.4011    0.4809    2.0731 H   0  0  0  0  0  0  0  0  0  0  0  0
   -5.2952   -0.4510    0.5620 H   0  0  0  0  0  0  0  0  0  0  0  0
  1 12  1  0  0  0  0
  1 14  1  0  0  0  0
  2 13  2  0  0  0  0
  3 15  1  0  0  0  0
  3 29  1  0  0  0  0
  4 18  1  0  0  0  0
  4 30  1  0  0  0  0
  5 22  1  0  0  0  0
  5 23  1  0  0  0  0
  6 22  2  0  0  0  0
  7  8  1  0  0  0  0
  7 10  1  0  0  0  0
  7 12  2  0  0  0  0
  8  9  1  0  0  0  0
  8 14  2  0  0  0  0
  9 11  2  0  0  0  0
  9 17  1  0  0  0  0
 10 13  1  0  0  0  0
 10 15  2  0  0  0  0
 11 13  1  0  0  0  0
 11 18  1  0  0  0  0
 12 16  1  0  0  0  0
 14 22  1  0  0  0  0
 15 19  1  0  0  0  0
 16 19  2  0  0  0  0
 16 24  1  0  0  0  0
 17 20  2  0  0  0  0
 17 25  1  0  0  0  0
 18 21  2  0  0  0  0
 19 26  1  0  0  0  0
 20 21  1  0  0  0  0
 20 27  1  0  0  0  0
 21 28  1  0  0  0  0
 23 31  1  0  0  0  0
 23 32  1  0  0  0  0
 23 33  1  0  0  0  0
M  END
> <PUBCHEM_COMPOUND_CID>
10245817

> <PUBCHEM_CONFORMER_RMSD>
0.6

> <PUBCHEM_CONFORMER_DIVERSEORDER>
2
1

> <PUBCHEM_MMFF94_PARTIAL_CHARGES>
29
1 -0.08
10 0.09
11 0.09
12 0.04
13 0.4
14 -0.05
15 0.08
16 -0.15
17 -0.15
18 0.08
19 -0.15
2 -0.57
20 -0.15
21 -0.15
22 0.81
23 0.28
24 0.15
25 0.15
26 0.15
27 0.15
28 0.15
29 0.45
3 -0.53
30 0.45
4 -0.53
5 -0.43
6 -0.57
8 -0.05
9 0.05

> <PUBCHEM_EFFECTIVE_ROTOR_COUNT>
2

> <PUBCHEM_PHARMACOPHORE_FEATURES>
8
1 2 acceptor
1 3 donor
1 4 donor
1 6 acceptor
5 1 7 8 12 14 rings
6 7 10 12 15 16 19 rings
6 7 8 9 10 11 13 rings
6 9 11 17 18 20 21 rings

> <PUBCHEM_HEAVY_ATOM_COUNT>
23

> <PUBCHEM_ATOM_DEF_STEREO_COUNT>
0

> <PUBCHEM_ATOM_UDEF_STEREO_COUNT>
0

> <PUBCHEM_BOND_DEF_STEREO_COUNT>
0

> <PUBCHEM_BOND_UDEF_STEREO_COUNT>
0

> <PUBCHEM_ISOTOPIC_ATOM_COUNT>
0

> <PUBCHEM_COMPONENT_COUNT>
1

> <PUBCHEM_CACTVS_TAUTO_COUNT>
19

> <PUBCHEM_CONFORMER_ID>
009C56B900000002

> <PUBCHEM_MMFF94_ENERGY>
78.5732

> <PUBCHEM_FEATURE_SELFOVERLAP>
40.778

> <PUBCHEM_SHAPE_FINGERPRINT>
10319926 262 17910650371668475776
10411042 1 17762338011936921175
104564 63 17762905767504306076
10493431 412 18341054119959494417
10693767 8 18058715906219688447
10967382 1 18410571743458097526
1100329 8 18411419531442645850
11578080 2 12657059615762087449
116883 192 17619354646379427740
12553582 1 17186156462271029447
12788726 201 17328298559487987304
12954195 1 17330019278338670140
13140716 1 18339079401265110736
13583140 156 16806423938235038249
138480 1 17978509732765683477
14178342 30 17835509793221019872
14223421 5 18119812404700377093
14790565 3 18339378365666077468
14866123 147 18267305520182885738
15042514 8 18264766730822916512
15309172 13 18410576210351192625
16728300 4 17462256090201098954
16945 1 18338794511731357724
17138139 8 17483926610029054287
19591789 44 18410580582221217812
19930381 70 18337954472332080707
20028762 73 18201434792449784663
20510252 161 17692813005045611993
20645477 70 18262505989040542229
20739085 24 18192734266312323945
20905425 154 17477482006689311782
21197605 99 18193574478765820843
221490 88 18120377549292156037
23184049 29 17689715689654570492
2334 1 18194116545579887198
23558518 356 17830172768105832568
23559900 14 17760639270302042864
238 59 17757223242641519685
2748010 2 18337959003338026582
283562 15 16680068345386595112
3091708 16 9260244717759402801
335352 9 18411138078088770332
350125 39 18121786298538987297
352729 6 18339359785457420844
5104073 3 18123459751559369504
58807428 26 18338789113295168224
6438718 38 17771913993435748231
6443956 14 17977105661065863637
81228 2 17397256613172892273

> <PUBCHEM_SHAPE_MULTIPOLES>
447.83
6.04
5.1
0.75
2.55
3.77
-0.01
-3.71
1.03
-0.49
-0.1
0.56
-0.2
-0.22

> <PUBCHEM_SHAPE_SELFOVERLAP>
1010.674

> <PUBCHEM_SHAPE_VOLUME>
238

> <PUBCHEM_COORDINATE_TYPE>
2
5
10

$$$$
