102452748
  -OEChem-03292013293D

 47 49  0     1  0  0  0  0  0999 V2000
   -1.8838   -2.0219   -0.1160 S   0  0  0  0  0  0  0  0  0  0  0  0
    3.0932   -4.2984    0.4083 O   0  0  0  0  0  0  0  0  0  0  0  0
   -4.7791   -1.0173    2.0591 O   0  0  0  0  0  0  0  0  0  0  0  0
    4.4725   -3.0159    1.6808 O   0  0  0  0  0  0  0  0  0  0  0  0
   -5.6135   -2.0936    0.2464 O   0  0  0  0  0  0  0  0  0  0  0  0
   -3.5582    2.5123   -0.7906 O   0  0  0  0  0  0  0  0  0  0  0  0
    0.8392    1.1785   -1.2693 N   0  0  0  0  0  0  0  0  0  0  0  0
    1.8438   -2.3027   -0.5783 N   0  0  0  0  0  0  0  0  0  0  0  0
   -3.4190    0.7360    0.7085 N   0  0  0  0  0  0  0  0  0  0  0  0
    1.4125    0.0094   -0.8319 C   0  0  0  0  0  0  0  0  0  0  0  0
    2.4224    0.3514    0.0668 C   0  0  0  0  0  0  0  0  0  0  0  0
    2.4431    1.7792    0.1601 C   0  0  0  0  0  0  0  0  0  0  0  0
    1.1248   -1.3109   -1.1528 C   0  0  0  0  0  0  0  0  0  0  0  0
    1.4449    2.2662   -0.6848 C   0  0  0  0  0  0  0  0  0  0  0  0
    0.0529   -1.7086   -2.1077 C   0  0  0  0  0  0  0  0  0  0  0  0
    3.1659   -0.6806    0.6606 C   0  0  0  0  0  0  0  0  0  0  0  0
   -0.9865   -2.6955   -1.5482 C   0  0  0  0  0  0  0  0  0  0  0  0
    3.2217    2.7038    0.8875 C   0  0  0  0  0  0  0  0  0  0  0  0
    2.8239   -1.9753    0.2938 C   0  0  0  0  0  0  0  0  0  0  0  0
    1.1850    3.6327   -0.8398 C   0  0  0  0  0  0  0  0  0  0  0  0
   -3.0664   -0.9915   -1.0129 C   0  0  0  0  0  0  0  0  0  0  0  0
   -4.0623   -0.2638   -0.1066 C   0  0  1  0  0  0  0  0  0  0  0  0
    2.9734    4.0734    0.7428 C   0  0  0  0  0  0  0  0  0  0  0  0
    1.9698    4.5288   -0.1090 C   0  0  0  0  0  0  0  0  0  0  0  0
    3.5463   -3.0989    0.8667 C   0  0  0  0  0  0  0  0  0  0  0  0
   -4.8953   -1.2246    0.7255 C   0  0  0  0  0  0  0  0  0  0  0  0
   -3.2216    2.0442    0.2939 C   0  0  0  0  0  0  0  0  0  0  0  0
   -2.5496    2.8837    1.3472 C   0  0  0  0  0  0  0  0  0  0  0  0
   -0.4586   -0.8337   -2.5225 H   0  0  0  0  0  0  0  0  0  0  0  0
    0.5437   -2.1892   -2.9644 H   0  0  0  0  0  0  0  0  0  0  0  0
    0.0760    1.2395   -1.9286 H   0  0  0  0  0  0  0  0  0  0  0  0
   -1.6968   -2.9857   -2.3294 H   0  0  0  0  0  0  0  0  0  0  0  0
   -0.4875   -3.6128   -1.2165 H   0  0  0  0  0  0  0  0  0  0  0  0
    3.9610   -0.4653    1.3657 H   0  0  0  0  0  0  0  0  0  0  0  0
    4.0081    2.3641    1.5556 H   0  0  0  0  0  0  0  0  0  0  0  0
    0.4024    3.9879   -1.5020 H   0  0  0  0  0  0  0  0  0  0  0  0
   -2.5170   -0.2567   -1.6103 H   0  0  0  0  0  0  0  0  0  0  0  0
   -3.6205   -1.6380   -1.7027 H   0  0  0  0  0  0  0  0  0  0  0  0
   -4.7801    0.2676   -0.7453 H   0  0  0  0  0  0  0  0  0  0  0  0
    3.5712    4.7883    1.3018 H   0  0  0  0  0  0  0  0  0  0  0  0
    1.7926    5.5967   -0.2070 H   0  0  0  0  0  0  0  0  0  0  0  0
   -3.0839    0.4570    1.6263 H   0  0  0  0  0  0  0  0  0  0  0  0
   -1.6367    2.3909    1.6942 H   0  0  0  0  0  0  0  0  0  0  0  0
   -2.2838    3.8581    0.9282 H   0  0  0  0  0  0  0  0  0  0  0  0
   -3.2304    3.0280    2.1905 H   0  0  0  0  0  0  0  0  0  0  0  0
    3.5873   -5.0494    0.8012 H   0  0  0  0  0  0  0  0  0  0  0  0
   -5.3292   -1.6431    2.5769 H   0  0  0  0  0  0  0  0  0  0  0  0
  1 17  1  0  0  0  0
  1 21  1  0  0  0  0
  2 25  1  0  0  0  0
  2 46  1  0  0  0  0
  3 26  1  0  0  0  0
  3 47  1  0  0  0  0
  4 25  2  0  0  0  0
  5 26  2  0  0  0  0
  6 27  2  0  0  0  0
  7 10  1  0  0  0  0
  7 14  1  0  0  0  0
  7 31  1  0  0  0  0
  8 13  1  0  0  0  0
  8 19  2  0  0  0  0
  9 22  1  0  0  0  0
  9 27  1  0  0  0  0
  9 42  1  0  0  0  0
 10 11  1  0  0  0  0
 10 13  2  0  0  0  0
 11 12  1  0  0  0  0
 11 16  2  0  0  0  0
 12 14  1  0  0  0  0
 12 18  2  0  0  0  0
 13 15  1  0  0  0  0
 14 20  2  0  0  0  0
 15 17  1  0  0  0  0
 15 29  1  0  0  0  0
 15 30  1  0  0  0  0
 16 19  1  0  0  0  0
 16 34  1  0  0  0  0
 17 32  1  0  0  0  0
 17 33  1  0  0  0  0
 18 23  1  0  0  0  0
 18 35  1  0  0  0  0
 19 25  1  0  0  0  0
 20 24  1  0  0  0  0
 20 36  1  0  0  0  0
 21 22  1  0  0  0  0
 21 37  1  0  0  0  0
 21 38  1  0  0  0  0
 22 26  1  0  0  0  0
 22 39  1  0  0  0  0
 23 24  2  0  0  0  0
 23 40  1  0  0  0  0
 24 41  1  0  0  0  0
 27 28  1  0  0  0  0
 28 43  1  0  0  0  0
 28 44  1  0  0  0  0
 28 45  1  0  0  0  0
M  END
> <PUBCHEM_COMPOUND_CID>
102452748

> <PUBCHEM_CONFORMER_RMSD>
1

> <PUBCHEM_CONFORMER_DIVERSEORDER>
1
27
69
19
105
102
5
121
64
58
14
52
49
67
28
6
93
112
94
42
9
71
54
16
26
44
119
10
103
108
43
107
113
55
70
7
62
76
46
65
11
59
22
74
87
63
2
31
92
21
88
111
51
99
61
98
85
57
12
81
35
66
79
33
47
23
15
30
68
38
91
3
25
60
123
122
36
95
114
29
50
83
90
56
48
116
89
115
110
82
101
4
73
84
118
106
39
17
117
40
37
97
18
78
32
109
120
86
100
13
53
72
8
75
34
20
80
41
77
24
96
104
45

> <PUBCHEM_MMFF94_PARTIAL_CHARGES>
35
1 -0.46
10 -0.15
13 0.17
14 -0.15
15 0.14
16 -0.15
17 0.23
18 -0.15
19 0.4
2 -0.65
20 -0.15
21 0.23
22 0.36
23 -0.15
24 -0.15
25 0.63
26 0.66
27 0.57
28 0.06
3 -0.65
31 0.27
34 0.15
35 0.15
36 0.15
4 -0.57
40 0.15
41 0.15
42 0.37
46 0.5
47 0.5
5 -0.57
6 -0.57
7 0.03
8 -0.62
9 -0.73

> <PUBCHEM_EFFECTIVE_ROTOR_COUNT>
9

> <PUBCHEM_PHARMACOPHORE_FEATURES>
15
1 2 acceptor
1 3 acceptor
1 4 acceptor
1 5 acceptor
1 6 acceptor
1 7 cation
1 7 donor
1 8 acceptor
1 9 donor
3 2 4 25 anion
3 3 5 26 anion
4 1 15 17 21 hydrophobe
5 7 10 11 12 14 rings
6 12 14 18 20 23 24 rings
6 8 10 11 13 16 19 rings

> <PUBCHEM_HEAVY_ATOM_COUNT>
28

> <PUBCHEM_ATOM_DEF_STEREO_COUNT>
1

> <PUBCHEM_ATOM_UDEF_STEREO_COUNT>
0

> <PUBCHEM_BOND_DEF_STEREO_COUNT>
0

> <PUBCHEM_BOND_UDEF_STEREO_COUNT>
0

> <PUBCHEM_ISOTOPIC_ATOM_COUNT>
0

> <PUBCHEM_COMPONENT_COUNT>
1

> <PUBCHEM_CACTVS_TAUTO_COUNT>
93

> <PUBCHEM_CONFORMER_ID>
061B4E0C00000001

> <PUBCHEM_MMFF94_ENERGY>
56.8926

> <PUBCHEM_FEATURE_SELFOVERLAP>
76.439

> <PUBCHEM_SHAPE_FINGERPRINT>
10074138 170 17182750205782702978
12107698 1 18410009923339967003
12293681 160 16468366169156457102
12553582 1 17765732229705901005
12633257 1 18122916330441946877
13140716 1 18050286173991672228
13583140 156 18260540122211114727
14784336 7 16757998384342497046
14790565 3 18264203789913753572
15475509 8 18200041771826566684
17492 89 18409166615069611979
19319366 153 17980196705894135141
19611394 137 17833531420517179410
20600515 1 17913210854068589608
20715895 44 18269273457714518669
20764821 26 16248845816306372145
21033648 29 17416104110557348491
2132832 1 18056447678546251799
469060 322 17684912993121330501
57091435 65 18339928215747037289
653340 110 16971953987777882672
7097593 13 18409161112789523662
79837 15 17471283432947539346
9981440 41 17904191886381704067

> <PUBCHEM_SHAPE_MULTIPOLES>
535.79
9.27
6.15
1.5
11.68
1.67
0.06
-1.58
-4.39
-6.89
-0.84
0.35
-0.59
-1.34

> <PUBCHEM_SHAPE_SELFOVERLAP>
1139.866

> <PUBCHEM_SHAPE_VOLUME>
301.4

> <PUBCHEM_COORDINATE_TYPE>
2
5
10

$$$$
