102430460
  -OEChem-03292013293D

 41 44  0     1  0  0  0  0  0999 V2000
   -1.5902   -2.4026    1.0970 O   0  0  0  0  0  0  0  0  0  0  0  0
   -2.9671    3.2149    0.1076 O   0  0  0  0  0  0  0  0  0  0  0  0
    0.3791   -2.1809   -0.7325 O   0  0  0  0  0  0  0  0  0  0  0  0
    1.9828    2.8079   -0.1565 O   0  0  0  0  0  0  0  0  0  0  0  0
    2.6865   -3.1319   -0.1607 O   0  0  0  0  0  0  0  0  0  0  0  0
    4.4127    2.0887    0.2628 O   0  0  0  0  0  0  0  0  0  0  0  0
   -4.5586   -0.7341   -0.3955 C   0  0  2  0  0  0  0  0  0  0  0  0
   -3.7640   -1.7723    0.3851 C   0  0  0  0  0  0  0  0  0  0  0  0
   -2.2670   -1.6747    0.0704 C   0  0  1  0  0  0  0  0  0  0  0  0
   -4.1076    0.6546    0.0609 C   0  0  0  0  0  0  0  0  0  0  0  0
   -1.7090   -0.2616   -0.0059 C   0  0  0  0  0  0  0  0  0  0  0  0
   -2.6074    0.8331    0.0182 C   0  0  0  0  0  0  0  0  0  0  0  0
   -0.3165    0.0087   -0.1169 C   0  0  0  0  0  0  0  0  0  0  0  0
   -6.0595   -0.9140   -0.1810 C   0  0  0  0  0  0  0  0  0  0  0  0
   -2.1184    2.1473    0.0392 C   0  0  0  0  0  0  0  0  0  0  0  0
    0.1470    1.3345   -0.0729 C   0  0  0  0  0  0  0  0  0  0  0  0
   -0.7533    2.3981    0.0093 C   0  0  0  0  0  0  0  0  0  0  0  0
    0.6947   -1.0658   -0.3373 C   0  0  0  0  0  0  0  0  0  0  0  0
    1.5929    1.6483   -0.0955 C   0  0  0  0  0  0  0  0  0  0  0  0
    2.1260   -0.7720   -0.1322 C   0  0  0  0  0  0  0  0  0  0  0  0
    2.5638    0.5451   -0.0234 C   0  0  0  0  0  0  0  0  0  0  0  0
    3.0522   -1.8209   -0.0769 C   0  0  0  0  0  0  0  0  0  0  0  0
    3.9261    0.8210    0.1423 C   0  0  0  0  0  0  0  0  0  0  0  0
    4.4093   -1.5451    0.0928 C   0  0  0  0  0  0  0  0  0  0  0  0
    4.8457   -0.2262    0.2019 C   0  0  0  0  0  0  0  0  0  0  0  0
   -4.3485   -0.8530   -1.4670 H   0  0  0  0  0  0  0  0  0  0  0  0
   -4.1128   -2.7871    0.1541 H   0  0  0  0  0  0  0  0  0  0  0  0
   -3.9316   -1.6447    1.4641 H   0  0  0  0  0  0  0  0  0  0  0  0
   -2.0853   -2.1653   -0.8937 H   0  0  0  0  0  0  0  0  0  0  0  0
   -4.4435    0.8447    1.0887 H   0  0  0  0  0  0  0  0  0  0  0  0
   -4.5904    1.3963   -0.5881 H   0  0  0  0  0  0  0  0  0  0  0  0
   -6.6242   -0.1627   -0.7429 H   0  0  0  0  0  0  0  0  0  0  0  0
   -6.3838   -1.9025   -0.5230 H   0  0  0  0  0  0  0  0  0  0  0  0
   -6.3271   -0.8181    0.8768 H   0  0  0  0  0  0  0  0  0  0  0  0
   -0.3970    3.4248    0.0442 H   0  0  0  0  0  0  0  0  0  0  0  0
   -1.9041   -3.3223    1.0599 H   0  0  0  0  0  0  0  0  0  0  0  0
   -2.4504    4.0387    0.1146 H   0  0  0  0  0  0  0  0  0  0  0  0
    5.1330   -2.3543    0.1428 H   0  0  0  0  0  0  0  0  0  0  0  0
    5.9048   -0.0217    0.3346 H   0  0  0  0  0  0  0  0  0  0  0  0
    1.7213   -3.2161   -0.1175 H   0  0  0  0  0  0  0  0  0  0  0  0
    3.6867    2.7277    0.3256 H   0  0  0  0  0  0  0  0  0  0  0  0
  1  9  1  0  0  0  0
  1 36  1  0  0  0  0
  2 15  1  0  0  0  0
  2 37  1  0  0  0  0
  3 18  2  0  0  0  0
  4 19  2  0  0  0  0
  5 22  1  0  0  0  0
  5 40  1  0  0  0  0
  6 23  1  0  0  0  0
  6 41  1  0  0  0  0
  7  8  1  0  0  0  0
  7 10  1  0  0  0  0
  7 14  1  0  0  0  0
  7 26  1  0  0  0  0
  8  9  1  0  0  0  0
  8 27  1  0  0  0  0
  8 28  1  0  0  0  0
  9 11  1  0  0  0  0
  9 29  1  0  0  0  0
 10 12  1  0  0  0  0
 10 30  1  0  0  0  0
 10 31  1  0  0  0  0
 11 12  1  0  0  0  0
 11 13  2  0  0  0  0
 12 15  2  0  0  0  0
 13 16  1  0  0  0  0
 13 18  1  0  0  0  0
 14 32  1  0  0  0  0
 14 33  1  0  0  0  0
 14 34  1  0  0  0  0
 15 17  1  0  0  0  0
 16 17  2  0  0  0  0
 16 19  1  0  0  0  0
 17 35  1  0  0  0  0
 18 20  1  0  0  0  0
 19 21  1  0  0  0  0
 20 21  1  0  0  0  0
 20 22  2  0  0  0  0
 21 23  2  0  0  0  0
 22 24  1  0  0  0  0
 23 25  1  0  0  0  0
 24 25  2  0  0  0  0
 24 38  1  0  0  0  0
 25 39  1  0  0  0  0
M  END
> <PUBCHEM_COMPOUND_CID>
102430460

> <PUBCHEM_CONFORMER_RMSD>
0.6

> <PUBCHEM_CONFORMER_DIVERSEORDER>
1

> <PUBCHEM_MMFF94_PARTIAL_CHARGES>
29
1 -0.68
10 0.14
11 -0.14
12 -0.14
13 0.09
15 0.08
16 0.09
17 -0.15
18 0.4
19 0.4
2 -0.53
20 0.09
21 0.09
22 0.08
23 0.08
24 -0.15
25 -0.15
3 -0.57
35 0.15
36 0.4
37 0.45
38 0.15
39 0.15
4 -0.57
40 0.45
41 0.45
5 -0.53
6 -0.53
9 0.42

> <PUBCHEM_EFFECTIVE_ROTOR_COUNT>
0.8

> <PUBCHEM_PHARMACOPHORE_FEATURES>
11
1 1 acceptor
1 1 donor
1 2 donor
1 3 acceptor
1 4 acceptor
1 5 donor
1 6 donor
6 11 12 13 15 16 17 rings
6 13 16 18 19 20 21 rings
6 20 21 22 23 24 25 rings
6 7 8 9 10 11 12 rings

> <PUBCHEM_HEAVY_ATOM_COUNT>
25

> <PUBCHEM_ATOM_DEF_STEREO_COUNT>
2

> <PUBCHEM_ATOM_UDEF_STEREO_COUNT>
0

> <PUBCHEM_BOND_DEF_STEREO_COUNT>
0

> <PUBCHEM_BOND_UDEF_STEREO_COUNT>
0

> <PUBCHEM_ISOTOPIC_ATOM_COUNT>
0

> <PUBCHEM_COMPONENT_COUNT>
1

> <PUBCHEM_CACTVS_TAUTO_COUNT>
998

> <PUBCHEM_CONFORMER_ID>
061AF6FC00000001

> <PUBCHEM_MMFF94_ENERGY>
80.4794

> <PUBCHEM_FEATURE_SELFOVERLAP>
55.89

> <PUBCHEM_SHAPE_FINGERPRINT>
10 15 18268978934790434104
10411042 1 18195246607917591102
10616163 171 18411984645901452174
10693767 8 18199727285673684231
10906281 52 18338818787450913149
10967382 1 18411138043501918444
11578080 2 17024572413915672174
12011746 2 18410577301077440902
12107183 9 17690279313595838099
12236239 1 17703792556968546175
12403259 226 18338230458024550140
12403260 363 18410289185933363407
12422481 6 18197521562004568361
12553582 1 18265074533474371827
12633257 1 18120652427325648938
12788726 201 18408599249741961769
13140716 1 17978502367350484184
13224815 77 18413671296553649286
13402501 40 18410011065431807427
13544653 18 18335708264713481791
138480 1 14879752547408919261
14223421 5 18411419501393750876
14341114 176 18409172125042848707
14790565 3 17327466224838727924
15196674 1 18411136909446117837
15352361 1 18410292519054838403
15442244 35 18338517417774289256
15927050 60 14666673782815457868
16945 1 18336839661756684508
17349148 13 18335695052882408965
17492 89 18268146465899812183
1813 80 17313104159111160772
19591789 44 18265895757033609138
200 152 18131348631339109575
20028762 73 18201995542873756279
20261772 1 18060133266938822150
20510252 161 18341895156329046593
20691752 17 17531536364679458680
21236236 1 18341331098543172369
21267235 1 18411987940384136726
21279426 13 18336260138231194229
21421861 104 18187640258963047522
221490 88 18408891745288073328
2334 1 17474669932913371844
23402539 116 18411131425294893143
23558518 356 18335431110516439265
23559900 14 18410569595885019168
2871803 45 18408039615234208466
3004659 81 18186517704977866702
335352 9 18050849918461542812
3380486 145 18046924928887350915
34934 24 18339637970283701334
350125 39 18411983567727816032
4214541 1 18338797806029529840
463206 1 18268707401903734639
5104073 3 18340767044218667432
5283173 99 18187916228298164661
59755656 215 18409451409913461718
9709674 26 18340210682829726822

> <PUBCHEM_SHAPE_MULTIPOLES>
479.27
10.06
3.28
0.68
2.89
0.72
-0.02
-2.31
-0.23
-0.32
-0.1
0.1
-0.14
0.22

> <PUBCHEM_SHAPE_SELFOVERLAP>
1083.708

> <PUBCHEM_SHAPE_VOLUME>
247.4

> <PUBCHEM_COORDINATE_TYPE>
2
5
10

$$$$
