102441147
  -OEChem-03292013293D

 35 38  0     0  0  0  0  0  0999 V2000
   -2.7378   -1.0252   -0.4627 O   0  0  0  0  0  0  0  0  0  0  0  0
    1.8207    0.3015   -0.3736 O   0  0  0  0  0  0  0  0  0  0  0  0
    4.6962   -0.0899    0.4181 O   0  0  0  0  0  0  0  0  0  0  0  0
   -7.3160   -2.1692   -0.4778 O   0  0  0  0  0  0  0  0  0  0  0  0
    7.8093   -1.6748    0.2556 O   0  5  0  0  0  0  0  0  0  0  0  0
    6.1676   -1.8289    1.7048 O   0  0  0  0  0  0  0  0  0  0  0  0
   -3.5258    1.5186    0.6100 N   0  0  0  0  0  0  0  0  0  0  0  0
    6.6556   -1.3298    0.6480 N   0  3  0  0  0  0  0  0  0  0  0  0
   -1.8120   -0.0533   -0.1687 C   0  0  0  0  0  0  0  0  0  0  0  0
   -2.1842    1.1907    0.3543 C   0  0  0  0  0  0  0  0  0  0  0  0
    0.5123    0.5903   -0.1360 C   0  0  0  0  0  0  0  0  0  0  0  0
   -4.0683   -0.7237   -0.2183 C   0  0  0  0  0  0  0  0  0  0  0  0
   -4.4141    0.6124    0.3386 C   0  0  0  0  0  0  0  0  0  0  0  0
   -0.4717   -0.3563   -0.4143 C   0  0  0  0  0  0  0  0  0  0  0  0
   -1.1865    2.1318    0.6291 C   0  0  0  0  0  0  0  0  0  0  0  0
    2.7758    1.3163   -0.0665 C   0  0  0  0  0  0  0  0  0  0  0  0
    0.1556    1.8330    0.3852 C   0  0  0  0  0  0  0  0  0  0  0  0
    4.1469    0.8234   -0.4251 C   0  0  0  0  0  0  0  0  0  0  0  0
   -5.0211   -1.6231   -0.4809 C   0  0  0  0  0  0  0  0  0  0  0  0
   -5.8478    0.8915    0.5841 C   0  0  0  0  0  0  0  0  0  0  0  0
    5.0069    1.1026   -1.4617 C   0  0  0  0  0  0  0  0  0  0  0  0
   -6.4488   -1.3377   -0.2335 C   0  0  0  0  0  0  0  0  0  0  0  0
   -6.7917   -0.0130    0.3187 C   0  0  0  0  0  0  0  0  0  0  0  0
    5.9203   -0.3972   -0.0859 C   0  0  0  0  0  0  0  0  0  0  0  0
    6.1585    0.3098   -1.2416 C   0  0  0  0  0  0  0  0  0  0  0  0
   -0.1951   -1.3257   -0.8208 H   0  0  0  0  0  0  0  0  0  0  0  0
   -1.4500    3.1050    1.0364 H   0  0  0  0  0  0  0  0  0  0  0  0
    2.5824    2.2216   -0.6556 H   0  0  0  0  0  0  0  0  0  0  0  0
    2.7686    1.5449    1.0067 H   0  0  0  0  0  0  0  0  0  0  0  0
    0.8667    2.6153    0.6278 H   0  0  0  0  0  0  0  0  0  0  0  0
   -4.7749   -2.5986   -0.8870 H   0  0  0  0  0  0  0  0  0  0  0  0
   -6.1116    1.8623    0.9900 H   0  0  0  0  0  0  0  0  0  0  0  0
    4.8282    1.7908   -2.2755 H   0  0  0  0  0  0  0  0  0  0  0  0
   -7.8383    0.2020    0.5023 H   0  0  0  0  0  0  0  0  0  0  0  0
    7.0485    0.2649   -1.8533 H   0  0  0  0  0  0  0  0  0  0  0  0
  1  9  1  0  0  0  0
  1 12  1  0  0  0  0
  2 11  1  0  0  0  0
  2 16  1  0  0  0  0
  3 18  1  0  0  0  0
  3 24  1  0  0  0  0
  4 22  2  0  0  0  0
  5  8  1  0  0  0  0
  6  8  2  0  0  0  0
  7 10  1  0  0  0  0
  7 13  2  0  0  0  0
  8 24  1  0  0  0  0
  9 10  2  0  0  0  0
  9 14  1  0  0  0  0
 10 15  1  0  0  0  0
 11 14  2  0  0  0  0
 11 17  1  0  0  0  0
 12 13  1  0  0  0  0
 12 19  2  0  0  0  0
 13 20  1  0  0  0  0
 14 26  1  0  0  0  0
 15 17  2  0  0  0  0
 15 27  1  0  0  0  0
 16 18  1  0  0  0  0
 16 28  1  0  0  0  0
 16 29  1  0  0  0  0
 17 30  1  0  0  0  0
 18 21  2  0  0  0  0
 19 22  1  0  0  0  0
 19 31  1  0  0  0  0
 20 23  2  0  0  0  0
 20 32  1  0  0  0  0
 21 25  1  0  0  0  0
 21 33  1  0  0  0  0
 22 23  1  0  0  0  0
 23 34  1  0  0  0  0
 24 25  2  0  0  0  0
 25 35  1  0  0  0  0
M  CHG  2   5  -1   8   1
M  END
> <PUBCHEM_COMPOUND_CID>
102441147

> <PUBCHEM_CONFORMER_RMSD>
0.8

> <PUBCHEM_CONFORMER_DIVERSEORDER>
1
42
14
25
12
41
10
30
38
45
44
2
28
3
19
32
29
18
5
46
22
47
43
26
9
7
34
11
20
6
23
15
39
24
4
21
27
31
40
33
13
36
16
8
37
17
35

> <PUBCHEM_MMFF94_PARTIAL_CHARGES>
33
1 -0.16
10 0.18
11 0.08
12 0.09
13 0.42
14 -0.15
15 -0.15
16 0.46
17 -0.15
18 -0.04
19 -0.14
2 -0.36
20 -0.14
21 -0.15
22 0.54
23 -0.14
24 0.22
25 -0.15
26 0.15
27 0.15
3 -0.28
30 0.15
31 0.15
32 0.15
33 0.15
34 0.15
35 0.15
4 -0.57
5 -0.52
6 -0.52
7 -0.63
8 0.96
9 0.08

> <PUBCHEM_EFFECTIVE_ROTOR_COUNT>
4

> <PUBCHEM_PHARMACOPHORE_FEATURES>
12
1 1 acceptor
1 2 acceptor
1 3 acceptor
1 4 acceptor
1 5 acceptor
1 5 anion
1 6 acceptor
1 7 acceptor
5 3 18 21 24 25 rings
6 1 7 9 10 12 13 rings
6 12 13 19 20 22 23 rings
6 9 10 11 14 15 17 rings

> <PUBCHEM_HEAVY_ATOM_COUNT>
25

> <PUBCHEM_ATOM_DEF_STEREO_COUNT>
0

> <PUBCHEM_ATOM_UDEF_STEREO_COUNT>
0

> <PUBCHEM_BOND_DEF_STEREO_COUNT>
0

> <PUBCHEM_BOND_UDEF_STEREO_COUNT>
0

> <PUBCHEM_ISOTOPIC_ATOM_COUNT>
0

> <PUBCHEM_COMPONENT_COUNT>
1

> <PUBCHEM_CACTVS_TAUTO_COUNT>
1

> <PUBCHEM_CONFORMER_ID>
061B20BB00000001

> <PUBCHEM_MMFF94_ENERGY>
64.3839

> <PUBCHEM_FEATURE_SELFOVERLAP>
61.066

> <PUBCHEM_SHAPE_FINGERPRINT>
10 15 17132109165555289600
10299344 5 18334860515368029438
11135926 11 18340484474901034583
11315181 36 18060426837318963233
11524674 6 16415482666505661943
11578080 2 17532920616345054575
11646440 116 16200434667554313274
11719270 70 18131354094205721086
11963148 33 18273494589204919487
11991303 11 15502669233585314794
12166972 35 18187087281818582132
12236239 1 18333454248190633533
125118 31 10375882869611241039
12516196 113 17418379098978091937
13288520 33 18272655675645378149
13533116 47 18114181930741195008
13668630 136 17240767293372429834
13862211 1 18413109476371948533
13914758 101 17676485017208579733
14251752 14 18334293145977988061
14251757 52 10231757790594733862
14251764 18 18410857677011853148
14347332 77 18261390005965441540
15119646 104 18334013861323789482
15183329 4 18410580595232713902
15198563 99 15864341407278284654
15348495 7 16415189135170751946
15419008 47 16559031571591206008
15706992 2 15357970129128865671
1577012 14 18336274487126664436
17093844 174 15698002921380239401
17857418 61 18409167697517044602
21267235 1 18270970163106364071
21315759 40 18335425663949177844
21792934 111 18131343107595079201
22061861 79 16660363675719316330
221357 26 16370443350443945292
2215653 11 15502376721117268792
22224240 67 14908180854657966557
22956985 138 17912092647145202350
23035841 295 18413392038223240017
23081809 10 18334303071262397548
23198884 109 16805322202204352797
23522609 53 18121532173777965333
23559900 14 18265893738605059433
23569943 247 17895748483257903762
3004659 81 18341904008615612700
335352 9 18272091617864831173
3383291 50 17988924509258909095
397830 11 15338542968269942878
406291 66 18042395830403621914
4073 2 18044098084550133368
4098825 35 17385997322357634165
4340502 62 14261361257776121420
5104073 3 17988648552966533769
5283156 175 18334576828198305169
559249 180 18413388740015339365
59682541 35 17632570570467010482
59682541 52 14562798929668360488
59755656 215 18273222992710303447
59755656 520 17822010939091098083
6138700 20 18411419514447548803
96874 4 18334287635677443714
999808 66 17896049883500347827

> <PUBCHEM_SHAPE_MULTIPOLES>
469.31
22.12
1.96
0.97
12.69
0.16
-0.02
12.68
-0.66
-0.58
-0.32
1.42
0.11
-2.46

> <PUBCHEM_SHAPE_SELFOVERLAP>
1045.784

> <PUBCHEM_SHAPE_VOLUME>
247.7

> <PUBCHEM_COORDINATE_TYPE>
2
5
10

$$$$
