102434426
  -OEChem-03292013293D

 58 60  0     0  0  0  0  0  0999 V2000
   -3.4045    3.0825    0.2503 O   0  0  0  0  0  0  0  0  0  0  0  0
   -5.8080    0.7648   -0.7661 O   0  0  0  0  0  0  0  0  0  0  0  0
    1.2940   -0.3672    0.1640 O   0  0  0  0  0  0  0  0  0  0  0  0
   -0.5841   -2.6840    0.6704 O   0  0  0  0  0  0  0  0  0  0  0  0
   -3.0430   -3.7776    2.0082 O   0  0  0  0  0  0  0  0  0  0  0  0
    5.7999    0.9573    1.1143 O   0  0  0  0  0  0  0  0  0  0  0  0
    7.9588    1.5828    1.5549 O   0  0  0  0  0  0  0  0  0  0  0  0
   -3.1842   -1.4644    0.2379 N   0  0  0  0  0  0  0  0  0  0  0  0
   -0.8625   -3.1115   -1.5690 N   0  0  0  0  0  0  0  0  0  0  0  0
   -4.3118   -4.6577    0.3089 N   0  0  0  0  0  0  0  0  0  0  0  0
   -4.8029    2.8347    0.0132 C   0  0  0  0  0  0  0  0  0  0  0  0
   -3.4557    0.8601   -0.4713 C   0  0  0  0  0  0  0  0  0  0  0  0
   -4.8148    1.4016   -0.4496 C   0  0  0  0  0  0  0  0  0  0  0  0
   -2.7354    1.9021   -0.0546 C   0  0  0  0  0  0  0  0  0  0  0  0
   -5.5687    3.0019    1.3180 C   0  0  0  0  0  0  0  0  0  0  0  0
   -5.3004    3.7742   -1.0760 C   0  0  0  0  0  0  0  0  0  0  0  0
   -3.1204   -0.5209   -0.8766 C   0  0  0  0  0  0  0  0  0  0  0  0
   -1.3151    1.9497    0.1207 C   0  0  0  0  0  0  0  0  0  0  0  0
   -2.8376   -2.8070   -0.2022 C   0  0  0  0  0  0  0  0  0  0  0  0
   -0.6644    3.2377   -0.3190 C   0  0  0  0  0  0  0  0  0  0  0  0
   -0.6534    0.8922    0.6480 C   0  0  0  0  0  0  0  0  0  0  0  0
    0.8125    0.7449    0.9089 C   0  0  0  0  0  0  0  0  0  0  0  0
   -3.3916   -3.7744    0.8292 C   0  0  0  0  0  0  0  0  0  0  0  0
   -1.3239   -2.8584   -0.2958 C   0  0  0  0  0  0  0  0  0  0  0  0
    2.6199   -0.3510   -0.1811 C   0  0  0  0  0  0  0  0  0  0  0  0
    3.5449    0.2934    0.6373 C   0  0  0  0  0  0  0  0  0  0  0  0
    4.8878    0.2971    0.2658 C   0  0  0  0  0  0  0  0  0  0  0  0
    5.3273   -0.3255   -0.8995 C   0  0  0  0  0  0  0  0  0  0  0  0
    3.0426   -0.9812   -1.3539 C   0  0  0  0  0  0  0  0  0  0  0  0
    4.3934   -0.9695   -1.7141 C   0  0  0  0  0  0  0  0  0  0  0  0
    6.7425   -0.2827   -1.2260 C   0  0  0  0  0  0  0  0  0  0  0  0
    7.5999    0.3447   -0.4172 C   0  0  0  0  0  0  0  0  0  0  0  0
    7.1589    1.0112    0.8222 C   0  0  0  0  0  0  0  0  0  0  0  0
   -5.1896    2.3187    2.0871 H   0  0  0  0  0  0  0  0  0  0  0  0
   -4.7306    3.6388   -2.0028 H   0  0  0  0  0  0  0  0  0  0  0  0
   -6.3577    3.6028   -1.3032 H   0  0  0  0  0  0  0  0  0  0  0  0
   -5.1700    4.8202   -0.7774 H   0  0  0  0  0  0  0  0  0  0  0  0
   -6.6369    2.8004    1.1862 H   0  0  0  0  0  0  0  0  0  0  0  0
   -5.4485    4.0168    1.7128 H   0  0  0  0  0  0  0  0  0  0  0  0
   -2.1245   -0.5225   -1.3347 H   0  0  0  0  0  0  0  0  0  0  0  0
   -3.8116   -0.8309   -1.6713 H   0  0  0  0  0  0  0  0  0  0  0  0
   -4.1430   -1.4652    0.5896 H   0  0  0  0  0  0  0  0  0  0  0  0
   -3.2926   -3.0295   -1.1752 H   0  0  0  0  0  0  0  0  0  0  0  0
   -1.2186    0.0344    0.9982 H   0  0  0  0  0  0  0  0  0  0  0  0
   -0.8528    4.0318    0.4114 H   0  0  0  0  0  0  0  0  0  0  0  0
    0.4167    3.1504   -0.4484 H   0  0  0  0  0  0  0  0  0  0  0  0
   -1.0613    3.5593   -1.2893 H   0  0  0  0  0  0  0  0  0  0  0  0
    1.3460    1.6654    0.6558 H   0  0  0  0  0  0  0  0  0  0  0  0
    0.9551    0.5448    1.9775 H   0  0  0  0  0  0  0  0  0  0  0  0
   -4.5920   -4.6507   -0.6665 H   0  0  0  0  0  0  0  0  0  0  0  0
   -4.7502   -5.3569    0.8992 H   0  0  0  0  0  0  0  0  0  0  0  0
   -1.4825   -3.2485   -2.3605 H   0  0  0  0  0  0  0  0  0  0  0  0
    0.1328   -3.1662   -1.7588 H   0  0  0  0  0  0  0  0  0  0  0  0
    3.2637    0.7719    1.5702 H   0  0  0  0  0  0  0  0  0  0  0  0
    2.3220   -1.4845   -1.9933 H   0  0  0  0  0  0  0  0  0  0  0  0
    4.7015   -1.4658   -2.6309 H   0  0  0  0  0  0  0  0  0  0  0  0
    7.0886   -0.7663   -2.1327 H   0  0  0  0  0  0  0  0  0  0  0  0
    8.6576    0.3809   -0.6542 H   0  0  0  0  0  0  0  0  0  0  0  0
  1 11  1  0  0  0  0
  1 14  1  0  0  0  0
  2 13  2  0  0  0  0
  3 22  1  0  0  0  0
  3 25  1  0  0  0  0
  4 24  2  0  0  0  0
  5 23  2  0  0  0  0
  6 27  1  0  0  0  0
  6 33  1  0  0  0  0
  7 33  2  0  0  0  0
  8 17  1  0  0  0  0
  8 19  1  0  0  0  0
  8 42  1  0  0  0  0
  9 24  1  0  0  0  0
  9 52  1  0  0  0  0
  9 53  1  0  0  0  0
 10 23  1  0  0  0  0
 10 50  1  0  0  0  0
 10 51  1  0  0  0  0
 11 13  1  0  0  0  0
 11 15  1  0  0  0  0
 11 16  1  0  0  0  0
 12 13  1  0  0  0  0
 12 14  2  0  0  0  0
 12 17  1  0  0  0  0
 14 18  1  0  0  0  0
 15 34  1  0  0  0  0
 15 38  1  0  0  0  0
 15 39  1  0  0  0  0
 16 35  1  0  0  0  0
 16 36  1  0  0  0  0
 16 37  1  0  0  0  0
 17 40  1  0  0  0  0
 17 41  1  0  0  0  0
 18 20  1  0  0  0  0
 18 21  2  0  0  0  0
 19 23  1  0  0  0  0
 19 24  1  0  0  0  0
 19 43  1  0  0  0  0
 20 45  1  0  0  0  0
 20 46  1  0  0  0  0
 20 47  1  0  0  0  0
 21 22  1  0  0  0  0
 21 44  1  0  0  0  0
 22 48  1  0  0  0  0
 22 49  1  0  0  0  0
 25 26  2  0  0  0  0
 25 29  1  0  0  0  0
 26 27  1  0  0  0  0
 26 54  1  0  0  0  0
 27 28  2  0  0  0  0
 28 30  1  0  0  0  0
 28 31  1  0  0  0  0
 29 30  2  0  0  0  0
 29 55  1  0  0  0  0
 30 56  1  0  0  0  0
 31 32  2  0  0  0  0
 31 57  1  0  0  0  0
 32 33  1  0  0  0  0
 32 58  1  0  0  0  0
M  END
> <PUBCHEM_COMPOUND_CID>
102434426

> <PUBCHEM_CONFORMER_RMSD>
1

> <PUBCHEM_CONFORMER_DIVERSEORDER>
1
116
158
150
165
82
132
33
126
137
147
113
180
162
173
117
75
40
148
183
62
54
170
139
149
105
140
136
122
168
56
120
153
151
187
130
84
127
129
172
74
179
86
61
102
99
90
167
24
28
182
135
30
9
123
115
44
145
17
96
133
93
186
58
152
119
134
19
181
185
107
89
128
114
36
141
37
175
101
104
87
143
34
95
31
184
12
163
16
111
45
100
76
176
27
146
121
88
103
169
60
156
155
142
164
41
98
157
110
50
32
14
92
79
29
13
39
112
66
144
131
81
85
174
124
51
177
109
42
72
20
138
166
49
80
43
22
15
11
125
178
38
77
59
4
159
91
47
57
52
108
78
106
154
118
67
83
2
71
18
94
64
53
48
46
10
55
6
171
97
21
5
73
69
7
8
70
65
25
63
160
26
161
23
68
35
3

> <PUBCHEM_MMFF94_PARTIAL_CHARGES>
42
1 -0.36
10 -0.8
11 0.34
12 -0.12
13 0.49
14 0.08
17 0.41
18 -0.14
19 0.39
2 -0.57
20 0.14
21 -0.29
22 0.42
23 0.57
24 0.57
25 0.08
26 -0.15
27 0.08
28 0.03
29 -0.15
3 -0.36
30 -0.15
31 -0.18
32 -0.14
33 0.71
4 -0.57
42 0.36
44 0.15
5 -0.57
50 0.37
51 0.37
52 0.37
53 0.37
54 0.15
55 0.15
56 0.15
57 0.15
58 0.15
6 -0.23
7 -0.57
8 -0.9
9 -0.8

> <PUBCHEM_EFFECTIVE_ROTOR_COUNT>
9.4

> <PUBCHEM_PHARMACOPHORE_FEATURES>
16
1 1 acceptor
1 10 donor
1 19 anion
1 2 acceptor
1 20 hydrophobe
1 3 acceptor
1 4 acceptor
1 5 acceptor
1 7 acceptor
1 8 cation
1 8 donor
1 9 donor
3 11 15 16 hydrophobe
5 1 11 12 13 14 rings
6 25 26 27 28 29 30 rings
6 6 27 28 31 32 33 rings

> <PUBCHEM_HEAVY_ATOM_COUNT>
33

> <PUBCHEM_ATOM_DEF_STEREO_COUNT>
0

> <PUBCHEM_ATOM_UDEF_STEREO_COUNT>
0

> <PUBCHEM_BOND_DEF_STEREO_COUNT>
1

> <PUBCHEM_BOND_UDEF_STEREO_COUNT>
0

> <PUBCHEM_ISOTOPIC_ATOM_COUNT>
0

> <PUBCHEM_COMPONENT_COUNT>
1

> <PUBCHEM_CACTVS_TAUTO_COUNT>
5

> <PUBCHEM_CONFORMER_ID>
061B067A00000001

> <PUBCHEM_MMFF94_ENERGY>
92.0292

> <PUBCHEM_FEATURE_SELFOVERLAP>
81.227

> <PUBCHEM_SHAPE_FINGERPRINT>
10411042 1 17977384160052731371
105312 117 18335703793562927783
10675989 125 17620194230802938669
107951 10 18339364050871753151
10835480 77 18131346398114943000
10940486 97 18260550056359889213
11007060 377 18343303626688087017
11135609 187 18192140513718567109
11756154 5 18262240027744076923
12616971 3 16805610274266401348
13402501 40 18130787845505841380
14294032 229 17968091980900723828
14659021 117 18056463165850499199
14790565 3 17979638936030391329
15131766 46 14564822133683910374
15361156 5 17988928855581014308
15439362 3 18048878498545193855
16993438 75 18342458166497042839
18608769 82 18341333370823692423
19958102 18 18264206898620289126
20511986 3 17750222639286240856
21360443 126 18410011031240828924
21424621 283 18198349450694165993
23559900 14 18130498695808370304
3383291 50 18409453613712037763
4015057 19 17417514887487503833
4058900 60 17976547113712331561
4073 2 18412265039158152002
5080951 261 18117533280684413806
5171179 24 17700397354633905744
5283173 99 18413389852269411770

> <PUBCHEM_SHAPE_MULTIPOLES>
623.1
18.63
5.13
1.34
32.41
4.43
-0.04
-10.63
-0.7
-12.23
-0.92
0.75
0.32
2.52

> <PUBCHEM_SHAPE_SELFOVERLAP>
1333.371

> <PUBCHEM_SHAPE_VOLUME>
344.7

> <PUBCHEM_COORDINATE_TYPE>
2
5
10

$$$$
