102449830
  -OEChem-03292013293D

 38 40  0     1  0  0  0  0  0999 V2000
   -0.3857   -2.4562   -0.9188 O   0  0  0  0  0  0  0  0  0  0  0  0
    0.9064    2.6280   -0.8866 O   0  0  0  0  0  0  0  0  0  0  0  0
    4.2225   -2.1563   -0.2425 O   0  0  0  0  0  0  0  0  0  0  0  0
   -6.6817    0.8744   -0.3904 O   0  0  0  0  0  0  0  0  0  0  0  0
   -0.2505    0.7676   -0.1610 N   0  0  0  0  0  0  0  0  0  0  0  0
    1.6387   -1.4670   -0.6085 N   0  0  0  0  0  0  0  0  0  0  0  0
   -6.9792   -1.0686    0.8056 N   0  0  0  0  0  0  0  0  0  0  0  0
   -0.3346   -0.5209    0.5256 C   0  0  1  0  0  0  0  0  0  0  0  0
   -1.8395   -0.7318    0.7827 C   0  0  0  0  0  0  0  0  0  0  0  0
   -2.4583    0.3940    0.0069 C   0  0  0  0  0  0  0  0  0  0  0  0
   -1.5146    1.2079   -0.4748 C   0  0  0  0  0  0  0  0  0  0  0  0
    0.2749   -1.5425   -0.4212 C   0  0  0  0  0  0  0  0  0  0  0  0
    0.8942    1.5033   -0.3856 C   0  0  0  0  0  0  0  0  0  0  0  0
    2.1954    0.8974   -0.0012 C   0  0  0  0  0  0  0  0  0  0  0  0
    2.5285   -0.4527   -0.1969 C   0  0  0  0  0  0  0  0  0  0  0  0
   -3.8710    0.5507   -0.1233 C   0  0  0  0  0  0  0  0  0  0  0  0
    3.8642   -0.8543   -0.0200 C   0  0  0  0  0  0  0  0  0  0  0  0
    3.1862    1.7986    0.4291 C   0  0  0  0  0  0  0  0  0  0  0  0
    4.8379    0.0473    0.4089 C   0  0  0  0  0  0  0  0  0  0  0  0
    4.4957    1.3722    0.6456 C   0  0  0  0  0  0  0  0  0  0  0  0
   -4.7606   -0.3149    0.3916 C   0  0  0  0  0  0  0  0  0  0  0  0
    6.2498   -0.3904    0.6196 C   0  0  0  0  0  0  0  0  0  0  0  0
   -6.2185   -0.0859    0.2151 C   0  0  0  0  0  0  0  0  0  0  0  0
    0.2316   -0.5011    1.4640 H   0  0  0  0  0  0  0  0  0  0  0  0
   -2.0558   -0.6157    1.8516 H   0  0  0  0  0  0  0  0  0  0  0  0
   -2.1960   -1.7151    0.4632 H   0  0  0  0  0  0  0  0  0  0  0  0
   -1.6608    2.1237   -1.0288 H   0  0  0  0  0  0  0  0  0  0  0  0
    2.0694   -2.2870   -1.0294 H   0  0  0  0  0  0  0  0  0  0  0  0
   -4.2118    1.4220   -0.6771 H   0  0  0  0  0  0  0  0  0  0  0  0
    2.9550    2.8501    0.5862 H   0  0  0  0  0  0  0  0  0  0  0  0
    5.2380    2.0929    0.9776 H   0  0  0  0  0  0  0  0  0  0  0  0
   -4.4582   -1.1950    0.9492 H   0  0  0  0  0  0  0  0  0  0  0  0
    6.8785    0.4337    0.9751 H   0  0  0  0  0  0  0  0  0  0  0  0
    6.6889   -0.7461   -0.3184 H   0  0  0  0  0  0  0  0  0  0  0  0
    6.3023   -1.1801    1.3765 H   0  0  0  0  0  0  0  0  0  0  0  0
    5.1742   -2.2930   -0.1210 H   0  0  0  0  0  0  0  0  0  0  0  0
   -6.5760   -1.8565    1.3029 H   0  0  0  0  0  0  0  0  0  0  0  0
   -7.9925   -1.0357    0.7612 H   0  0  0  0  0  0  0  0  0  0  0  0
  1 12  2  0  0  0  0
  2 13  2  0  0  0  0
  3 17  1  0  0  0  0
  3 36  1  0  0  0  0
  4 23  2  0  0  0  0
  5  8  1  0  0  0  0
  5 11  1  0  0  0  0
  5 13  1  0  0  0  0
  6 12  1  0  0  0  0
  6 15  1  0  0  0  0
  6 28  1  0  0  0  0
  7 23  1  0  0  0  0
  7 37  1  0  0  0  0
  7 38  1  0  0  0  0
  8  9  1  0  0  0  0
  8 12  1  0  0  0  0
  8 24  1  0  0  0  0
  9 10  1  0  0  0  0
  9 25  1  0  0  0  0
  9 26  1  0  0  0  0
 10 11  2  0  0  0  0
 10 16  1  0  0  0  0
 11 27  1  0  0  0  0
 13 14  1  0  0  0  0
 14 15  2  0  0  0  0
 14 18  1  0  0  0  0
 15 17  1  0  0  0  0
 16 21  2  0  0  0  0
 16 29  1  0  0  0  0
 17 19  2  0  0  0  0
 18 20  2  0  0  0  0
 18 30  1  0  0  0  0
 19 20  1  0  0  0  0
 19 22  1  0  0  0  0
 20 31  1  0  0  0  0
 21 23  1  0  0  0  0
 21 32  1  0  0  0  0
 22 33  1  0  0  0  0
 22 34  1  0  0  0  0
 22 35  1  0  0  0  0
M  END
> <PUBCHEM_COMPOUND_CID>
102449830

> <PUBCHEM_CONFORMER_RMSD>
0.6

> <PUBCHEM_CONFORMER_DIVERSEORDER>
1
3
2

> <PUBCHEM_MMFF94_PARTIAL_CHARGES>
32
1 -0.57
10 -0.14
11 -0.04
12 0.57
13 0.54
14 0.09
15 0.12
16 -0.15
17 0.08
18 -0.15
19 -0.14
2 -0.57
20 -0.15
21 -0.14
22 0.14
23 0.62
27 0.15
28 0.37
29 0.15
3 -0.53
30 0.15
31 0.15
32 0.15
36 0.45
37 0.37
38 0.37
4 -0.57
5 -0.47
6 -0.55
7 -0.8
8 0.36
9 0.14

> <PUBCHEM_EFFECTIVE_ROTOR_COUNT>
2.4

> <PUBCHEM_PHARMACOPHORE_FEATURES>
9
1 1 acceptor
1 2 acceptor
1 3 donor
1 4 acceptor
1 6 donor
1 7 donor
5 5 8 9 10 11 rings
6 14 15 17 18 19 20 rings
7 5 6 8 12 13 14 15 rings

> <PUBCHEM_HEAVY_ATOM_COUNT>
23

> <PUBCHEM_ATOM_DEF_STEREO_COUNT>
1

> <PUBCHEM_ATOM_UDEF_STEREO_COUNT>
0

> <PUBCHEM_BOND_DEF_STEREO_COUNT>
1

> <PUBCHEM_BOND_UDEF_STEREO_COUNT>
0

> <PUBCHEM_ISOTOPIC_ATOM_COUNT>
0

> <PUBCHEM_COMPONENT_COUNT>
1

> <PUBCHEM_CACTVS_TAUTO_COUNT>
126

> <PUBCHEM_CONFORMER_ID>
061B42A600000001

> <PUBCHEM_MMFF94_ENERGY>
84.1232

> <PUBCHEM_FEATURE_SELFOVERLAP>
45.735

> <PUBCHEM_SHAPE_FINGERPRINT>
10 15 18336536210471667960
10411042 1 18053103918201076558
10688039 33 17967813816811217076
10906281 52 18190202151347239809
11578080 2 17129566106539471106
11646440 116 18202005438456670585
11796584 16 16081094783297507113
11963148 33 18114176453936324147
12011746 2 18411144627960979582
12035758 1 18339628015092679192
12166972 35 18412266159623104793
12236239 1 17418093204975548487
12403259 415 18335973212187156405
13140716 1 18268140032850309216
13533116 47 17060342886148421238
13862211 1 18260828193945868291
14170010 4 18410575102370761193
14251764 18 18408882962502121648
15475509 35 17241026736005663432
19141452 34 18341327885316797935
19489759 90 16732700537426797801
200 152 18202281390648555569
20028762 73 18273212023670336751
21033648 29 18200013101902079240
21197605 99 18269559506262031807
21267235 1 18410296883216371318
21279426 13 18118679924766441901
21315763 129 18260267469508589085
21623969 137 18341620334657720723
21709351 56 18260821631969160869
22224240 67 18060129960410005458
23184049 59 18412265043047002332
23402539 116 18333726940628812055
23557571 272 17386006109992551877
23559900 14 18334013921157503889
3004659 81 17676489449762496004
335352 9 18341894104557749382
34934 24 18336823195411046066
350125 39 18411981355740550316
3545911 37 18412826897678242210
4073 2 18114749342754401555
42630746 31 18202004321654169535
4340502 62 17917993896931327199
465052 167 18113903783667715601
5104073 3 18268990895192912297
59755656 215 18410011005349640767
69090 78 18342170090017720166
7495541 125 17676498284509944453
9999458 23 17095524036536787036

> <PUBCHEM_SHAPE_MULTIPOLES>
434.91
14.42
2.03
0.82
16.81
0.04
0.02
1.22
3.35
-1.42
-0.48
0.02
0.03
0.67

> <PUBCHEM_SHAPE_SELFOVERLAP>
954.325

> <PUBCHEM_SHAPE_VOLUME>
232.7

> <PUBCHEM_COORDINATE_TYPE>
2
5
10

$$$$
