102486005
  -OEChem-03292013293D

 67 68  0     1  0  0  0  0  0999 V2000
    6.7321    0.4552    1.1243 S   0  0  0  0  0  0  0  0  0  0  0  0
    2.5128    1.8137   -0.5177 O   0  0  0  0  0  0  0  0  0  0  0  0
   -6.1607    1.3413    1.9347 O   0  0  0  0  0  0  0  0  0  0  0  0
   -4.4598    3.1805    0.6460 O   0  0  0  0  0  0  0  0  0  0  0  0
    7.5349    1.4003    2.1839 O   0  0  0  0  0  0  0  0  0  0  0  0
    7.6983   -0.2509    0.3032 O   0  0  0  0  0  0  0  0  0  0  0  0
    5.6788   -0.2489    1.8327 O   0  0  0  0  0  0  0  0  0  0  0  0
    4.2489    0.2835   -0.7302 N   0  0  0  0  0  0  0  0  0  0  0  0
   -0.3766   -1.4634   -0.0919 C   0  0  1  0  0  0  0  0  0  0  0  0
   -1.8418   -0.9728   -0.4412 C   0  0  2  0  0  0  0  0  0  0  0  0
   -3.0292   -1.7537    0.2303 C   0  0  2  0  0  0  0  0  0  0  0  0
    0.6197   -0.3352   -0.5943 C   0  0  2  0  0  0  0  0  0  0  0  0
   -0.2620   -1.6337    1.4442 C   0  0  0  0  0  0  0  0  0  0  0  0
   -1.9944   -0.7594   -1.9674 C   0  0  0  0  0  0  0  0  0  0  0  0
   -2.7426   -1.9517    1.7387 C   0  0  0  0  0  0  0  0  0  0  0  0
   -1.3594   -2.5076    2.0434 C   0  0  0  0  0  0  0  0  0  0  0  0
    0.0073   -2.8090   -0.7606 C   0  0  0  0  0  0  0  0  0  0  0  0
   -0.9771    0.2561   -2.4947 C   0  0  0  0  0  0  0  0  0  0  0  0
    0.4327   -0.1017   -2.0940 C   0  0  0  0  0  0  0  0  0  0  0  0
   -3.3684   -3.0985   -0.4339 C   0  0  0  0  0  0  0  0  0  0  0  0
    2.0830   -0.5412   -0.1647 C   0  0  0  0  0  0  0  0  0  0  0  0
   -4.3051   -0.9287    0.1552 C   0  0  0  0  0  0  0  0  0  0  0  0
    1.3942   -0.2035   -3.0266 C   0  0  0  0  0  0  0  0  0  0  0  0
    2.9373    0.6619   -0.4835 C   0  0  0  0  0  0  0  0  0  0  0  0
   -4.4330    0.2982    0.6816 C   0  0  0  0  0  0  0  0  0  0  0  0
   -5.6975    1.1126    0.6054 C   0  0  2  0  0  0  0  0  0  0  0  0
   -5.4537    2.4634   -0.0839 C   0  0  1  0  0  0  0  0  0  0  0  0
    5.2926    1.2255   -1.0640 C   0  0  0  0  0  0  0  0  0  0  0  0
   -6.7171    3.3181   -0.1427 C   0  0  0  0  0  0  0  0  0  0  0  0
    6.0059    1.7495    0.1676 C   0  0  0  0  0  0  0  0  0  0  0  0
   -1.8841    0.0392   -0.0095 H   0  0  0  0  0  0  0  0  0  0  0  0
    0.3001    0.6009   -0.1095 H   0  0  0  0  0  0  0  0  0  0  0  0
   -0.2966   -0.6479    1.9265 H   0  0  0  0  0  0  0  0  0  0  0  0
    0.7025   -2.0799    1.7135 H   0  0  0  0  0  0  0  0  0  0  0  0
   -2.9975   -0.3829   -2.1994 H   0  0  0  0  0  0  0  0  0  0  0  0
   -1.8888   -1.7059   -2.5083 H   0  0  0  0  0  0  0  0  0  0  0  0
   -3.4954   -2.6175    2.1826 H   0  0  0  0  0  0  0  0  0  0  0  0
   -2.8227   -1.0079    2.2927 H   0  0  0  0  0  0  0  0  0  0  0  0
   -1.2758   -3.5395    1.6881 H   0  0  0  0  0  0  0  0  0  0  0  0
   -1.2244   -2.5513    3.1310 H   0  0  0  0  0  0  0  0  0  0  0  0
   -0.0670   -2.7793   -1.8508 H   0  0  0  0  0  0  0  0  0  0  0  0
   -0.6016   -3.6439   -0.4191 H   0  0  0  0  0  0  0  0  0  0  0  0
    1.0387   -3.0874   -0.5190 H   0  0  0  0  0  0  0  0  0  0  0  0
   -1.2130    1.2503   -2.0942 H   0  0  0  0  0  0  0  0  0  0  0  0
   -1.0815    0.3280   -3.5840 H   0  0  0  0  0  0  0  0  0  0  0  0
   -4.2713   -3.5418    0.0069 H   0  0  0  0  0  0  0  0  0  0  0  0
   -2.5853   -3.8448   -0.3073 H   0  0  0  0  0  0  0  0  0  0  0  0
   -3.5600   -2.9913   -1.5070 H   0  0  0  0  0  0  0  0  0  0  0  0
    2.5038   -1.4400   -0.6280 H   0  0  0  0  0  0  0  0  0  0  0  0
    2.1589   -0.6710    0.9200 H   0  0  0  0  0  0  0  0  0  0  0  0
   -5.1598   -1.3508   -0.3698 H   0  0  0  0  0  0  0  0  0  0  0  0
    2.4127   -0.4943   -2.8076 H   0  0  0  0  0  0  0  0  0  0  0  0
    1.1713   -0.0210   -4.0737 H   0  0  0  0  0  0  0  0  0  0  0  0
   -3.6031    0.7550    1.2137 H   0  0  0  0  0  0  0  0  0  0  0  0
   -6.4854    0.5700    0.0696 H   0  0  0  0  0  0  0  0  0  0  0  0
    4.5094   -0.6959   -0.6627 H   0  0  0  0  0  0  0  0  0  0  0  0
   -5.0735    2.2996   -1.0993 H   0  0  0  0  0  0  0  0  0  0  0  0
    4.8567    2.0594   -1.6243 H   0  0  0  0  0  0  0  0  0  0  0  0
    5.9920    0.7031   -1.7250 H   0  0  0  0  0  0  0  0  0  0  0  0
   -6.3459    0.4750    2.3364 H   0  0  0  0  0  0  0  0  0  0  0  0
   -7.0625    3.5918    0.8599 H   0  0  0  0  0  0  0  0  0  0  0  0
   -6.5143    4.2580   -0.6678 H   0  0  0  0  0  0  0  0  0  0  0  0
   -7.5241    2.7969   -0.6663 H   0  0  0  0  0  0  0  0  0  0  0  0
    5.3142    2.2892    0.8229 H   0  0  0  0  0  0  0  0  0  0  0  0
    6.8100    2.4283   -0.1335 H   0  0  0  0  0  0  0  0  0  0  0  0
   -4.2994    4.0178    0.1782 H   0  0  0  0  0  0  0  0  0  0  0  0
    6.9708    1.8887    2.8287 H   0  0  0  0  0  0  0  0  0  0  0  0
  1  5  1  0  0  0  0
  1  6  2  0  0  0  0
  1  7  2  0  0  0  0
  1 30  1  0  0  0  0
  2 24  2  0  0  0  0
  3 26  1  0  0  0  0
  3 60  1  0  0  0  0
  4 27  1  0  0  0  0
  4 66  1  0  0  0  0
  5 67  1  0  0  0  0
  8 24  1  0  0  0  0
  8 28  1  0  0  0  0
  8 56  1  0  0  0  0
  9 10  1  0  0  0  0
  9 12  1  0  0  0  0
  9 13  1  0  0  0  0
  9 17  1  0  0  0  0
 10 11  1  0  0  0  0
 10 14  1  0  0  0  0
 10 31  1  0  0  0  0
 11 15  1  0  0  0  0
 11 20  1  0  0  0  0
 11 22  1  0  0  0  0
 12 19  1  0  0  0  0
 12 21  1  0  0  0  0
 12 32  1  0  0  0  0
 13 16  1  0  0  0  0
 13 33  1  0  0  0  0
 13 34  1  0  0  0  0
 14 18  1  0  0  0  0
 14 35  1  0  0  0  0
 14 36  1  0  0  0  0
 15 16  1  0  0  0  0
 15 37  1  0  0  0  0
 15 38  1  0  0  0  0
 16 39  1  0  0  0  0
 16 40  1  0  0  0  0
 17 41  1  0  0  0  0
 17 42  1  0  0  0  0
 17 43  1  0  0  0  0
 18 19  1  0  0  0  0
 18 44  1  0  0  0  0
 18 45  1  0  0  0  0
 19 23  2  0  0  0  0
 20 46  1  0  0  0  0
 20 47  1  0  0  0  0
 20 48  1  0  0  0  0
 21 24  1  0  0  0  0
 21 49  1  0  0  0  0
 21 50  1  0  0  0  0
 22 25  2  0  0  0  0
 22 51  1  0  0  0  0
 23 52  1  0  0  0  0
 23 53  1  0  0  0  0
 25 26  1  0  0  0  0
 25 54  1  0  0  0  0
 26 27  1  0  0  0  0
 26 55  1  0  0  0  0
 27 29  1  0  0  0  0
 27 57  1  0  0  0  0
 28 30  1  0  0  0  0
 28 58  1  0  0  0  0
 28 59  1  0  0  0  0
 29 61  1  0  0  0  0
 29 62  1  0  0  0  0
 29 63  1  0  0  0  0
 30 64  1  0  0  0  0
 30 65  1  0  0  0  0
M  END
> <PUBCHEM_COMPOUND_CID>
102486005

> <PUBCHEM_CONFORMER_RMSD>
1

> <PUBCHEM_CONFORMER_DIVERSEORDER>
1
68
58
19
22
24
144
174
40
141
59
21
146
86
158
33
113
95
15
48
151
82
26
160
57
121
47
167
156
138
74
118
7
3
44
39
140
12
129
97
154
66
67
60
88
76
123
135
105
36
98
161
13
28
117
165
136
103
147
50
150
38
119
130
27
46
49
81
9
128
110
42
53
89
125
20
85
115
37
171
111
114
91
16
166
101
153
55
31
79
6
126
168
96
18
109
172
100
56
116
4
43
2
102
104
73
11
72
145
152
133
107
14
80
99
148
78
112
143
83
32
52
61
163
5
170
90
122
157
169
155
137
87
34
132
159
17
10
173
149
124
106
84
75
77
70
134
64
41
108
131
30
94
139
35
71
69
23
8
127
54
120
164
63
45
29
93
62
162
92
25
65
142
51

> <PUBCHEM_MMFF94_PARTIAL_CHARGES>
29
1 1.38
11 0.14
12 0.14
18 0.14
19 -0.28
2 -0.57
21 0.06
22 -0.29
23 -0.3
24 0.57
25 -0.29
26 0.42
27 0.28
28 0.3
3 -0.68
30 0.11
4 -0.68
5 -0.68
51 0.15
52 0.15
53 0.15
54 0.15
56 0.37
6 -0.65
60 0.4
66 0.4
67 0.5
7 -0.65
8 -0.73

> <PUBCHEM_EFFECTIVE_ROTOR_COUNT>
10.4

> <PUBCHEM_PHARMACOPHORE_FEATURES>
12
1 2 acceptor
1 3 acceptor
1 3 donor
1 4 acceptor
1 4 donor
1 5 acceptor
1 6 acceptor
1 7 acceptor
1 8 donor
4 1 5 6 7 anion
6 9 10 11 13 15 16 rings
6 9 10 12 14 18 19 rings

> <PUBCHEM_HEAVY_ATOM_COUNT>
30

> <PUBCHEM_ATOM_DEF_STEREO_COUNT>
4

> <PUBCHEM_ATOM_UDEF_STEREO_COUNT>
2

> <PUBCHEM_BOND_DEF_STEREO_COUNT>
1

> <PUBCHEM_BOND_UDEF_STEREO_COUNT>
0

> <PUBCHEM_ISOTOPIC_ATOM_COUNT>
0

> <PUBCHEM_COMPONENT_COUNT>
1

> <PUBCHEM_CACTVS_TAUTO_COUNT>
3

> <PUBCHEM_CONFORMER_ID>
061BCFF500000001

> <PUBCHEM_MMFF94_ENERGY>
75.4644

> <PUBCHEM_FEATURE_SELFOVERLAP>
60.973

> <PUBCHEM_SHAPE_FINGERPRINT>
10554248 39 15195295222772051084
11135609 201 17987531312716053881
11578080 2 18059028210972698679
11720765 8 16907519355727623351
12107183 9 17894352198243326872
12422481 6 17385443189434131230
12633257 1 18040432234898690772
13257819 101 17847063259599736405
13540713 5 16662920168882011959
13583140 156 17703514410064482487
13673619 4 11819000690440161253
13911987 19 15339121225982400063
13947920 24 16988847146704751809
13947930 73 12974187175852283025
14251764 30 13262395583419646888
14466204 15 18411422825361042329
14767858 380 13758353366838705180
14904525 67 18200026400028740824
14955137 171 14996284747029533902
15183329 4 17385717041624658738
15238133 3 18261967309689010476
15510800 12 11242261744869281657
15840311 113 18117279160333182243
17492 54 14189297019940354615
17980427 23 18188217614384245375
19246450 95 17241316976546953181
19304671 126 17342669860070402581
19438510 23 18130795499718194937
20511986 3 16773789334312314214
21033648 29 18272097123158134910
21196832 93 10807635818636211276
21403212 168 17894625942621659719
21756936 100 18341607114605640733
21859007 373 18060418002392160000
22122407 14 18271249447017316672
22393880 68 12606839156318154555
23379529 103 10303222731144617397
23522609 53 17532112616642663812
23559900 14 17987263082484852974
23569943 247 16444164513948251810
2838139 119 18131346419041166149
44802255 64 17632579391749406454
5104073 3 17750516359446632640
6058803 2 16808725327509151591
6697151 62 16699513870428222454
9981440 41 18410022043769552419
999808 66 13767924611416645520

> <PUBCHEM_SHAPE_MULTIPOLES>
581.04
17.69
3.23
2.28
22.12
0.53
-0.77
15.55
10.71
-6.17
0.82
1.02
-0.26
-0.33

> <PUBCHEM_SHAPE_SELFOVERLAP>
1166.353

> <PUBCHEM_SHAPE_VOLUME>
342.4

> <PUBCHEM_COORDINATE_TYPE>
2
5
10

$$$$
