102414641
  -OEChem-03292013293D

 46 48  0     1  0  0  0  0  0999 V2000
    2.9262    0.2416   -1.6224 O   0  0  0  0  0  0  0  0  0  0  0  0
    4.9286   -1.7251    0.6697 O   0  0  0  0  0  0  0  0  0  0  0  0
    3.3276    0.4894    1.3071 O   0  0  0  0  0  0  0  0  0  0  0  0
   -1.5721    2.9222   -1.5151 O   0  0  0  0  0  0  0  0  0  0  0  0
   -2.9893    1.1387    0.1424 O   0  0  0  0  0  0  0  0  0  0  0  0
    6.9577   -1.1960    1.5136 O   0  0  0  0  0  0  0  0  0  0  0  0
   -3.5256    0.3940    2.2535 O   0  0  0  0  0  0  0  0  0  0  0  0
    3.7978   -1.3949   -0.1460 C   0  0  1  0  0  0  0  0  0  0  0  0
    2.7381   -0.5838    0.5813 C   0  0  2  0  0  0  0  0  0  0  0  0
    4.0942   -0.5721   -1.3889 C   0  0  2  0  0  0  0  0  0  0  0  0
    1.9458   -0.0474   -0.6052 C   0  0  1  0  0  0  0  0  0  0  0  0
    5.2831    0.3065   -1.2278 C   0  0  0  0  0  0  0  0  0  0  0  0
    1.1247    1.1647   -0.3315 C   0  0  0  0  0  0  0  0  0  0  0  0
    6.1760    0.1307   -0.2521 C   0  0  0  0  0  0  0  0  0  0  0  0
    6.0558   -0.9723    0.7124 C   0  0  0  0  0  0  0  0  0  0  0  0
   -0.1949    1.2395   -0.5585 C   0  0  0  0  0  0  0  0  0  0  0  0
   -1.0224    2.4665   -0.2805 C   0  0  2  0  0  0  0  0  0  0  0  0
   -2.1655    2.1618    0.6992 C   0  0  1  0  0  0  0  0  0  0  0  0
   -3.0363    3.3860    0.9697 C   0  0  0  0  0  0  0  0  0  0  0  0
   -3.6106    0.3253    1.0372 C   0  0  0  0  0  0  0  0  0  0  0  0
   -4.4328   -0.6917    0.3343 C   0  0  0  0  0  0  0  0  0  0  0  0
   -5.1577   -1.6312    1.0675 C   0  0  0  0  0  0  0  0  0  0  0  0
   -4.4817   -0.7064   -1.0596 C   0  0  0  0  0  0  0  0  0  0  0  0
   -5.9313   -2.5855    0.4068 C   0  0  0  0  0  0  0  0  0  0  0  0
   -5.2553   -1.6606   -1.7203 C   0  0  0  0  0  0  0  0  0  0  0  0
   -5.9801   -2.6003   -0.9870 C   0  0  0  0  0  0  0  0  0  0  0  0
    3.3495   -2.3457   -0.4628 H   0  0  0  0  0  0  0  0  0  0  0  0
    2.1323   -1.1756    1.2740 H   0  0  0  0  0  0  0  0  0  0  0  0
    4.2411   -1.2138   -2.2646 H   0  0  0  0  0  0  0  0  0  0  0  0
    1.3195   -0.8535   -1.0105 H   0  0  0  0  0  0  0  0  0  0  0  0
    5.4325    1.1087   -1.9446 H   0  0  0  0  0  0  0  0  0  0  0  0
    1.6380    2.0398    0.0600 H   0  0  0  0  0  0  0  0  0  0  0  0
    3.8529    0.0975    2.0253 H   0  0  0  0  0  0  0  0  0  0  0  0
    7.0414    0.7788   -0.1703 H   0  0  0  0  0  0  0  0  0  0  0  0
   -0.7083    0.3751   -0.9736 H   0  0  0  0  0  0  0  0  0  0  0  0
   -0.4044    3.2769    0.1242 H   0  0  0  0  0  0  0  0  0  0  0  0
   -1.7153    1.8274    1.6437 H   0  0  0  0  0  0  0  0  0  0  0  0
   -3.5650    3.7068    0.0656 H   0  0  0  0  0  0  0  0  0  0  0  0
   -3.8066    3.1562    1.7136 H   0  0  0  0  0  0  0  0  0  0  0  0
   -2.4377    4.2221    1.3438 H   0  0  0  0  0  0  0  0  0  0  0  0
   -0.8310    3.1488   -2.1029 H   0  0  0  0  0  0  0  0  0  0  0  0
   -5.1333   -1.6365    2.1540 H   0  0  0  0  0  0  0  0  0  0  0  0
   -3.9338    0.0057   -1.6702 H   0  0  0  0  0  0  0  0  0  0  0  0
   -6.4958   -3.3171    0.9775 H   0  0  0  0  0  0  0  0  0  0  0  0
   -5.2937   -1.6727   -2.8057 H   0  0  0  0  0  0  0  0  0  0  0  0
   -6.5824   -3.3433   -1.5015 H   0  0  0  0  0  0  0  0  0  0  0  0
  1 10  1  0  0  0  0
  1 11  1  0  0  0  0
  2  8  1  0  0  0  0
  2 15  1  0  0  0  0
  3  9  1  0  0  0  0
  3 33  1  0  0  0  0
  4 17  1  0  0  0  0
  4 41  1  0  0  0  0
  5 18  1  0  0  0  0
  5 20  1  0  0  0  0
  6 15  2  0  0  0  0
  7 20  2  0  0  0  0
  8  9  1  0  0  0  0
  8 10  1  0  0  0  0
  8 27  1  0  0  0  0
  9 11  1  0  0  0  0
  9 28  1  0  0  0  0
 10 12  1  0  0  0  0
 10 29  1  0  0  0  0
 11 13  1  0  0  0  0
 11 30  1  0  0  0  0
 12 14  2  0  0  0  0
 12 31  1  0  0  0  0
 13 16  2  0  0  0  0
 13 32  1  0  0  0  0
 14 15  1  0  0  0  0
 14 34  1  0  0  0  0
 16 17  1  0  0  0  0
 16 35  1  0  0  0  0
 17 18  1  0  0  0  0
 17 36  1  0  0  0  0
 18 19  1  0  0  0  0
 18 37  1  0  0  0  0
 19 38  1  0  0  0  0
 19 39  1  0  0  0  0
 19 40  1  0  0  0  0
 20 21  1  0  0  0  0
 21 22  2  0  0  0  0
 21 23  1  0  0  0  0
 22 24  1  0  0  0  0
 22 42  1  0  0  0  0
 23 25  2  0  0  0  0
 23 43  1  0  0  0  0
 24 26  2  0  0  0  0
 24 44  1  0  0  0  0
 25 26  1  0  0  0  0
 25 45  1  0  0  0  0
 26 46  1  0  0  0  0
M  END
> <PUBCHEM_COMPOUND_CID>
102414641

> <PUBCHEM_CONFORMER_RMSD>
1

> <PUBCHEM_CONFORMER_DIVERSEORDER>
1
92
81
8
126
35
16
80
62
9
75
123
96
97
57
7
116
39
42
70
22
20
99
54
66
61
25
121
102
4
86
65
44
49
114
26
98
118
15
45
74
83
30
87
73
19
72
50
64
6
76
89
79
51
90
63
38
60
115
84
33
29
24
71
31
69
46
82
106
47
88
127
58
125
41
77
104
120
18
117
37
13
28
95
85
11
113
78
112
21
53
94
124
3
111
119
34
32
2
103
59
27
93
105
109
67
55
122
36
100
40
108
23
14
91
101
17
110
68
43
56
5
10
128
12
52
107
48

> <PUBCHEM_MMFF94_PARTIAL_CHARGES>
36
1 -0.56
10 0.42
11 0.42
12 -0.29
13 -0.29
14 -0.14
15 0.71
16 -0.29
17 0.42
18 0.28
2 -0.43
20 0.63
21 0.09
22 -0.15
23 -0.15
24 -0.15
25 -0.15
26 -0.15
3 -0.68
31 0.15
32 0.15
33 0.4
34 0.15
35 0.15
4 -0.68
41 0.4
42 0.15
43 0.15
44 0.15
45 0.15
46 0.15
5 -0.43
6 -0.57
7 -0.57
8 0.28
9 0.28

> <PUBCHEM_EFFECTIVE_ROTOR_COUNT>
6.8

> <PUBCHEM_PHARMACOPHORE_FEATURES>
10
1 1 acceptor
1 3 acceptor
1 3 donor
1 4 acceptor
1 4 donor
1 6 acceptor
1 7 acceptor
5 1 8 9 10 11 rings
6 2 8 10 12 14 15 rings
6 21 22 23 24 25 26 rings

> <PUBCHEM_HEAVY_ATOM_COUNT>
26

> <PUBCHEM_ATOM_DEF_STEREO_COUNT>
6

> <PUBCHEM_ATOM_UDEF_STEREO_COUNT>
0

> <PUBCHEM_BOND_DEF_STEREO_COUNT>
1

> <PUBCHEM_BOND_UDEF_STEREO_COUNT>
0

> <PUBCHEM_ISOTOPIC_ATOM_COUNT>
0

> <PUBCHEM_COMPONENT_COUNT>
1

> <PUBCHEM_CACTVS_TAUTO_COUNT>
1

> <PUBCHEM_CONFORMER_ID>
061AB93100000001

> <PUBCHEM_MMFF94_ENERGY>
68.5177

> <PUBCHEM_FEATURE_SELFOVERLAP>
50.934

> <PUBCHEM_SHAPE_FINGERPRINT>
10447042 23 17967534579981420030
10571361 74 18187356610981604018
11069576 57 17168687649178646458
11135609 201 16628816583001355536
11552529 35 18200317602409369065
11809386 21 18334857199843161569
12166972 35 17895196670608062183
12616971 3 17241628138379687884
12633257 1 15697721514701057631
12708847 88 17314792017979477644
13583140 156 17131828712306457345
13631057 29 18410008827658731841
13782708 43 18202568341735319318
14068700 675 18341331180247777741
14844126 61 18343303644189274353
14848178 5 18408600388029574887
14950920 106 16702019803250959307
15131766 46 15072900929588794421
15183329 4 14779536890158888215
15188451 53 18410849958290918850
17780758 139 17704078391542576491
17857418 61 18333453127499288932
19377110 9 18412824699151014940
19841028 212 17984417718987932175
20028762 73 18343584066224576366
21054139 6 18040996220382530714
21095123 145 18272646845514384130
21315759 148 16773527585619110790
21756936 100 10735871785907837957
22393880 68 14851892494634184057
2303208 19 17131561544308493164
23198884 109 14923937964665243759
2838139 119 12107781947613592831
312425 54 17346612850184549483
4015057 19 17095537226271168309
4098825 35 16081083763049682771
439807 62 17968099776493277115
4938544 92 17489317334951089721
5104073 3 17488748848647666442
57724786 102 11095890362810905804
5924683 9 18336549313504394201
5937810 71 10591459768928002578
59682541 52 14635133634199673554
6431902 208 18334860523868702595
7495541 125 18342174445705707528
7970288 3 18339081600916957891

> <PUBCHEM_SHAPE_MULTIPOLES>
493.98
18.18
3.06
1.61
9.81
1.86
0.03
-14.67
1.77
-5.24
-0.01
-0.29
-0.07
-1.7

> <PUBCHEM_SHAPE_SELFOVERLAP>
1052.683

> <PUBCHEM_SHAPE_VOLUME>
272.1

> <PUBCHEM_COORDINATE_TYPE>
2
5
10

$$$$
