10246876
  -OEChem-03292013303D

 37 40  0     0  0  0  0  0  0999 V2000
   -0.1369   -0.7220    0.0399 O   0  0  0  0  0  0  0  0  0  0  0  0
   -5.6013   -0.4133   -0.0022 O   0  0  0  0  0  0  0  0  0  0  0  0
   -4.5565   -2.5849    0.0039 O   0  0  0  0  0  0  0  0  0  0  0  0
   -4.1435    2.0284    0.0114 O   0  0  0  0  0  0  0  0  0  0  0  0
    1.0408    2.7701    0.0789 O   0  0  0  0  0  0  0  0  0  0  0  0
   -1.7255    3.0339    0.0414 O   0  0  0  0  0  0  0  0  0  0  0  0
    6.1590   -0.8205    0.1091 O   0  0  0  0  0  0  0  0  0  0  0  0
    4.8335   -0.4940   -2.3120 O   0  0  0  0  0  0  0  0  0  0  0  0
   -2.1086    0.7070    0.0264 C   0  0  0  0  0  0  0  0  0  0  0  0
   -1.4992   -0.5575    0.0290 C   0  0  0  0  0  0  0  0  0  0  0  0
   -4.2425   -0.3328    0.0082 C   0  0  0  0  0  0  0  0  0  0  0  0
   -3.6459   -1.5732    0.0115 C   0  0  0  0  0  0  0  0  0  0  0  0
   -3.5024    0.8323    0.0157 C   0  0  0  0  0  0  0  0  0  0  0  0
   -2.2741   -1.7208    0.0220 C   0  0  0  0  0  0  0  0  0  0  0  0
    0.6673    0.4058    0.0391 C   0  0  0  0  0  0  0  0  0  0  0  0
   -1.2539    1.9045    0.0376 C   0  0  0  0  0  0  0  0  0  0  0  0
    0.2100    1.6710    0.0466 C   0  0  0  0  0  0  0  0  0  0  0  0
    2.1056    0.0850    0.0536 C   0  0  0  0  0  0  0  0  0  0  0  0
   -5.7930   -1.8427   -0.0054 C   0  0  0  0  0  0  0  0  0  0  0  0
    2.8032   -0.0556   -1.1472 C   0  0  0  0  0  0  0  0  0  0  0  0
    2.7727   -0.0797    1.2686 C   0  0  0  0  0  0  0  0  0  0  0  0
    4.1644   -0.3602   -1.1329 C   0  0  0  0  0  0  0  0  0  0  0  0
    4.1336   -0.3843    1.2828 C   0  0  0  0  0  0  0  0  0  0  0  0
    4.8296   -0.5244    0.0822 C   0  0  0  0  0  0  0  0  0  0  0  0
    6.7634   -0.9721    1.3920 C   0  0  0  0  0  0  0  0  0  0  0  0
   -1.8155   -2.7037    0.0246 H   0  0  0  0  0  0  0  0  0  0  0  0
   -6.3611   -2.1185   -0.9013 H   0  0  0  0  0  0  0  0  0  0  0  0
   -6.3756   -2.1206    0.8803 H   0  0  0  0  0  0  0  0  0  0  0  0
    2.2852    0.0717   -2.0956 H   0  0  0  0  0  0  0  0  0  0  0  0
    2.2425    0.0260    2.2122 H   0  0  0  0  0  0  0  0  0  0  0  0
    4.5843   -0.4976    2.2627 H   0  0  0  0  0  0  0  0  0  0  0  0
   -3.5035    2.7565    0.0125 H   0  0  0  0  0  0  0  0  0  0  0  0
    0.4767    3.5626    0.0858 H   0  0  0  0  0  0  0  0  0  0  0  0
    4.2139   -0.3459   -3.0470 H   0  0  0  0  0  0  0  0  0  0  0  0
    6.7309   -0.0399    1.9662 H   0  0  0  0  0  0  0  0  0  0  0  0
    7.8201   -1.2055    1.2249 H   0  0  0  0  0  0  0  0  0  0  0  0
    6.3349   -1.8163    1.9429 H   0  0  0  0  0  0  0  0  0  0  0  0
  1 10  1  0  0  0  0
  1 15  1  0  0  0  0
  2 11  1  0  0  0  0
  2 19  1  0  0  0  0
  3 12  1  0  0  0  0
  3 19  1  0  0  0  0
  4 13  1  0  0  0  0
  4 32  1  0  0  0  0
  5 17  1  0  0  0  0
  5 33  1  0  0  0  0
  6 16  2  0  0  0  0
  7 24  1  0  0  0  0
  7 25  1  0  0  0  0
  8 22  1  0  0  0  0
  8 34  1  0  0  0  0
  9 10  1  0  0  0  0
  9 13  2  0  0  0  0
  9 16  1  0  0  0  0
 10 14  2  0  0  0  0
 11 12  2  0  0  0  0
 11 13  1  0  0  0  0
 12 14  1  0  0  0  0
 14 26  1  0  0  0  0
 15 17  2  0  0  0  0
 15 18  1  0  0  0  0
 16 17  1  0  0  0  0
 18 20  2  0  0  0  0
 18 21  1  0  0  0  0
 19 27  1  0  0  0  0
 19 28  1  0  0  0  0
 20 22  1  0  0  0  0
 20 29  1  0  0  0  0
 21 23  2  0  0  0  0
 21 30  1  0  0  0  0
 22 24  2  0  0  0  0
 23 24  1  0  0  0  0
 23 31  1  0  0  0  0
 25 35  1  0  0  0  0
 25 36  1  0  0  0  0
 25 37  1  0  0  0  0
M  END
> <PUBCHEM_COMPOUND_CID>
10246876

> <PUBCHEM_CONFORMER_RMSD>
0.6

> <PUBCHEM_CONFORMER_DIVERSEORDER>
2
5
4
6
3
1

> <PUBCHEM_MMFF94_PARTIAL_CHARGES>
32
1 -0.16
10 0.08
11 0.08
12 0.08
13 0.08
14 -0.15
15 0.05
16 0.47
17 0.09
18 0.03
19 0.56
2 -0.36
20 -0.15
21 -0.15
22 0.08
23 -0.15
24 0.08
25 0.28
26 0.15
29 0.15
3 -0.36
30 0.15
31 0.15
32 0.45
33 0.45
34 0.45
4 -0.53
5 -0.53
6 -0.57
7 -0.36
8 -0.53
9 0.09

> <PUBCHEM_EFFECTIVE_ROTOR_COUNT>
2.6

> <PUBCHEM_PHARMACOPHORE_FEATURES>
12
1 1 acceptor
1 2 acceptor
1 3 acceptor
1 4 donor
1 5 donor
1 6 acceptor
1 7 acceptor
1 8 donor
5 2 3 11 12 19 rings
6 1 9 10 15 16 17 rings
6 18 20 21 22 23 24 rings
6 9 10 11 12 13 14 rings

> <PUBCHEM_HEAVY_ATOM_COUNT>
25

> <PUBCHEM_ATOM_DEF_STEREO_COUNT>
0

> <PUBCHEM_ATOM_UDEF_STEREO_COUNT>
0

> <PUBCHEM_BOND_DEF_STEREO_COUNT>
0

> <PUBCHEM_BOND_UDEF_STEREO_COUNT>
0

> <PUBCHEM_ISOTOPIC_ATOM_COUNT>
0

> <PUBCHEM_COMPONENT_COUNT>
1

> <PUBCHEM_CACTVS_TAUTO_COUNT>
65

> <PUBCHEM_CONFORMER_ID>
009C5ADC00000002

> <PUBCHEM_MMFF94_ENERGY>
83.7358

> <PUBCHEM_FEATURE_SELFOVERLAP>
61.084

> <PUBCHEM_SHAPE_FINGERPRINT>
10 15 17845920906580407842
10319926 262 18198038345280646208
10411042 1 18337951316032297467
11315181 36 18260546727374449848
12107183 9 17468748594725510794
12166972 35 17675923209964125772
12236239 1 17821729404015902296
12516196 113 18202283627936107232
12553582 1 18409164433125823187
12616971 3 17313393288141468700
12788726 201 18334301945906742912
13140716 1 18412825819926794529
13288520 33 18410008840912872771
13540713 4 18265595754301745729
13782708 43 17775010025502435174
13862211 1 18410290345997000675
14386348 63 17775004566361176230
14910302 57 18195818366584361670
15196674 1 18410855503452770929
17138139 8 17677325163945506394
17492 89 17906731754638618747
17804303 29 18412825802588396665
17844677 252 18413392050823591408
1813 80 18408325505527223876
18222031 100 18271811262766568471
18681886 176 18333448760182167842
19141452 34 17632294626965325463
200 152 16732983094434664684
20028762 73 18059010730604081903
20374829 77 18410856585757902447
21033648 29 17131821045673413323
21033650 10 18045808714110401644
21267235 1 18408326614071780859
21623969 137 17132114633054179126
2297311 6 18341901778967935828
23175994 123 17275107236673993193
23366157 5 17971193870279447828
23402539 116 18408880720117567638
23522609 53 18044969876479866141
23557571 272 18201436944143483928
23559900 14 18266169707750019233
25147074 1 18335155201248073821
29717793 49 17603304839242403030
3004659 81 18040431122423039702
314173 85 18272940431227795907
335352 9 18410008845872550101
3411729 13 18125434461547396888
34797466 226 17917439761306137716
4325135 7 18336827589547978060
465052 167 18339367482144648255
5104073 3 18198632214788014283
559249 180 18260823765992965027
59755656 215 18411698764473458031
67856867 119 18188212100221646124
7237137 82 18113899347230678685
7495541 125 18272366486765005400
7970288 3 18337387239954439291
8863177 126 17680722711575033299
9709674 26 18120656001028706347

> <PUBCHEM_SHAPE_MULTIPOLES>
467.53
14.26
2.32
1.1
7.97
1.24
-0.31
-8.3
1
-3.12
0.12
2.24
-0.21
-0.27

> <PUBCHEM_SHAPE_SELFOVERLAP>
1058.32

> <PUBCHEM_SHAPE_VOLUME>
244.4

> <PUBCHEM_COORDINATE_TYPE>
2
5
10

$$$$
