102412584
  -OEChem-03292013293D

 46 47  0     1  0  0  0  0  0999 V2000
   -1.0603   -0.7103   -0.1959 O   0  0  0  0  0  0  0  0  0  0  0  0
    3.4900   -2.2172    0.2671 O   0  0  0  0  0  0  0  0  0  0  0  0
   -0.1678    2.6253    0.0602 O   0  0  0  0  0  0  0  0  0  0  0  0
    0.9217   -1.3957    0.1812 O   0  0  0  0  0  0  0  0  0  0  0  0
   -4.3012    1.4633    1.4157 O   0  0  0  0  0  0  0  0  0  0  0  0
   -1.6277    0.5544   -2.0416 O   0  0  0  0  0  0  0  0  0  0  0  0
   -2.0995    1.1323    0.9511 N   0  0  0  0  0  0  0  0  0  0  0  0
   -2.3616   -2.7952   -1.2157 N   0  0  0  0  0  0  0  0  0  0  0  0
   -0.8536    0.3733    0.7337 C   0  0  2  0  0  0  0  0  0  0  0  0
    3.2395   -0.8453    0.5135 C   0  0  1  0  0  0  0  0  0  0  0  0
    4.1999   -0.0127   -0.3241 C   0  0  0  0  0  0  0  0  0  0  0  0
    1.4550    0.9166   -0.0824 C   0  0  0  0  0  0  0  0  0  0  0  0
    3.9094    1.4749   -0.1578 C   0  0  0  0  0  0  0  0  0  0  0  0
    0.2057    1.3050    0.2191 C   0  0  0  0  0  0  0  0  0  0  0  0
    2.4993    1.8038   -0.5833 C   0  0  0  0  0  0  0  0  0  0  0  0
    1.7889   -0.5232    0.1866 C   0  0  0  0  0  0  0  0  0  0  0  0
   -4.0480   -1.0577   -0.6219 C   0  0  0  0  0  0  0  0  0  0  0  0
   -2.8592   -1.4539   -1.5156 C   0  0  1  0  0  0  0  0  0  0  0  0
   -3.7203   -0.7832    0.8564 C   0  0  0  0  0  0  0  0  0  0  0  0
   -0.3702   -0.2399    2.0495 C   0  0  0  0  0  0  0  0  0  0  0  0
   -3.3928    0.6822    1.1119 C   0  0  0  0  0  0  0  0  0  0  0  0
   -1.7498   -0.4447   -1.3445 C   0  0  0  0  0  0  0  0  0  0  0  0
    2.2579    2.8230   -1.4248 C   0  0  0  0  0  0  0  0  0  0  0  0
    4.6448   -2.6748    0.9614 C   0  0  0  0  0  0  0  0  0  0  0  0
    3.3613   -0.6259    1.5831 H   0  0  0  0  0  0  0  0  0  0  0  0
    4.1272   -0.3000   -1.3817 H   0  0  0  0  0  0  0  0  0  0  0  0
    5.2391   -0.1974   -0.0320 H   0  0  0  0  0  0  0  0  0  0  0  0
    4.6421    2.0457   -0.7413 H   0  0  0  0  0  0  0  0  0  0  0  0
    4.0459    1.7670    0.8914 H   0  0  0  0  0  0  0  0  0  0  0  0
   -1.9845    2.1076    1.2109 H   0  0  0  0  0  0  0  0  0  0  0  0
   -4.7977   -1.8587   -0.6682 H   0  0  0  0  0  0  0  0  0  0  0  0
   -4.5271   -0.1691   -1.0543 H   0  0  0  0  0  0  0  0  0  0  0  0
   -3.1715   -1.4414   -2.5662 H   0  0  0  0  0  0  0  0  0  0  0  0
   -2.9425   -1.4428    1.2487 H   0  0  0  0  0  0  0  0  0  0  0  0
   -4.6162   -1.0000    1.4535 H   0  0  0  0  0  0  0  0  0  0  0  0
   -0.5815   -1.3144    2.1123 H   0  0  0  0  0  0  0  0  0  0  0  0
   -0.9110    0.2135    2.8924 H   0  0  0  0  0  0  0  0  0  0  0  0
    0.6798   -0.0778    2.3124 H   0  0  0  0  0  0  0  0  0  0  0  0
    3.0710    3.4458   -1.7863 H   0  0  0  0  0  0  0  0  0  0  0  0
    1.2750    3.0576   -1.8165 H   0  0  0  0  0  0  0  0  0  0  0  0
   -1.0785    2.6321   -0.2800 H   0  0  0  0  0  0  0  0  0  0  0  0
   -1.6380   -3.0496   -1.8871 H   0  0  0  0  0  0  0  0  0  0  0  0
   -3.1130   -3.4733   -1.3356 H   0  0  0  0  0  0  0  0  0  0  0  0
    4.6993   -3.7605    0.8391 H   0  0  0  0  0  0  0  0  0  0  0  0
    4.5753   -2.4578    2.0319 H   0  0  0  0  0  0  0  0  0  0  0  0
    5.5595   -2.2486    0.5424 H   0  0  0  0  0  0  0  0  0  0  0  0
  1  9  1  0  0  0  0
  1 22  1  0  0  0  0
  2 10  1  0  0  0  0
  2 24  1  0  0  0  0
  3 14  1  0  0  0  0
  3 41  1  0  0  0  0
  4 16  2  0  0  0  0
  5 21  2  0  0  0  0
  6 22  2  0  0  0  0
  7  9  1  0  0  0  0
  7 21  1  0  0  0  0
  7 30  1  0  0  0  0
  8 18  1  0  0  0  0
  8 42  1  0  0  0  0
  8 43  1  0  0  0  0
  9 14  1  0  0  0  0
  9 20  1  0  0  0  0
 10 11  1  0  0  0  0
 10 16  1  0  0  0  0
 10 25  1  0  0  0  0
 11 13  1  0  0  0  0
 11 26  1  0  0  0  0
 11 27  1  0  0  0  0
 12 14  2  3  0  0  0
 12 15  1  0  0  0  0
 12 16  1  0  0  0  0
 13 15  1  0  0  0  0
 13 28  1  0  0  0  0
 13 29  1  0  0  0  0
 15 23  2  0  0  0  0
 17 18  1  0  0  0  0
 17 19  1  0  0  0  0
 17 31  1  0  0  0  0
 17 32  1  0  0  0  0
 18 22  1  0  0  0  0
 18 33  1  0  0  0  0
 19 21  1  0  0  0  0
 19 34  1  0  0  0  0
 19 35  1  0  0  0  0
 20 36  1  0  0  0  0
 20 37  1  0  0  0  0
 20 38  1  0  0  0  0
 23 39  1  0  0  0  0
 23 40  1  0  0  0  0
 24 44  1  0  0  0  0
 24 45  1  0  0  0  0
 24 46  1  0  0  0  0
M  END
> <PUBCHEM_COMPOUND_CID>
102412584

> <PUBCHEM_CONFORMER_RMSD>
0.6

> <PUBCHEM_CONFORMER_DIVERSEORDER>
8
4
39
12
15
42
9
16
18
21
20
22
1
31
28
25
19
23
38
5
27
40
7
35
2
3
10
37
17
6
29
14

> <PUBCHEM_MMFF94_PARTIAL_CHARGES>
27
1 -0.43
10 0.34
12 0.01
13 0.14
14 -0.06
15 -0.14
16 0.49
18 0.33
19 0.06
2 -0.56
21 0.57
22 0.66
23 -0.3
24 0.28
3 -0.53
30 0.37
39 0.15
4 -0.57
40 0.15
41 0.45
42 0.36
43 0.36
5 -0.57
6 -0.57
7 -0.73
8 -0.99
9 0.72

> <PUBCHEM_EFFECTIVE_ROTOR_COUNT>
3.8

> <PUBCHEM_PHARMACOPHORE_FEATURES>
9
1 2 acceptor
1 3 donor
1 4 acceptor
1 5 acceptor
1 6 acceptor
1 7 donor
1 8 cation
1 8 donor
6 10 11 12 13 15 16 rings

> <PUBCHEM_HEAVY_ATOM_COUNT>
24

> <PUBCHEM_ATOM_DEF_STEREO_COUNT>
1

> <PUBCHEM_ATOM_UDEF_STEREO_COUNT>
2

> <PUBCHEM_BOND_DEF_STEREO_COUNT>
0

> <PUBCHEM_BOND_UDEF_STEREO_COUNT>
1

> <PUBCHEM_ISOTOPIC_ATOM_COUNT>
0

> <PUBCHEM_COMPONENT_COUNT>
1

> <PUBCHEM_CACTVS_TAUTO_COUNT>
21

> <PUBCHEM_CONFORMER_ID>
061AB12800000008

> <PUBCHEM_MMFF94_ENERGY>
99.789

> <PUBCHEM_FEATURE_SELFOVERLAP>
45.69

> <PUBCHEM_SHAPE_FINGERPRINT>
10062212 137 18343302565445607627
11578080 2 17915432017701737577
12236239 1 18202007654606832761
12403814 3 18341050731546679001
12553582 1 18190458260590310162
12670546 56 18059855116435596729
12714826 92 16844740870717416711
12788726 201 17773609384910940331
13009979 54 18201721747250389618
13140716 1 18341613698310633066
13224815 77 18341323470401550088
13538477 17 18060424628940797385
13583140 156 18198076952298915353
14115302 16 17917997139620963019
15375462 189 18272092741953902400
15848702 151 18113903775162254873
16752209 62 17489587904789278271
16945 1 17676758868507394520
17818456 19 18057900047212078048
1813 80 18265060137329948230
18186145 218 17313104150505167842
19422 9 18341614840966982339
200 152 18338232768816818300
20281475 54 18342449365855299570
22112679 90 18131351929315070553
23402539 116 18189612748843295146
23557571 272 15841560703171348771
23559900 14 17967823760366622488
23566358 27 18335434498976318318
23598291 2 18412544292813857294
474 4 18117281569557166836
5104073 3 18342182154380376099
633830 44 17603302652718817097
7064713 232 17774160085058516522
77492 1 18202006563695708529
90525 40 18131074839869111047
9981440 41 17187557789725567105

> <PUBCHEM_SHAPE_MULTIPOLES>
448.73
8.3
2.77
1.56
1.12
0.19
0.1
2.84
-0.66
2.35
0.44
-1.36
0.01
-2.21

> <PUBCHEM_SHAPE_SELFOVERLAP>
947.622

> <PUBCHEM_SHAPE_VOLUME>
246

> <PUBCHEM_COORDINATE_TYPE>
2
5
10

$$$$
