102416
  -OEChem-03292013323D

 42 43  0     1  0  0  0  0  0999 V2000
    1.3203   -1.3488    0.5936 O   0  0  0  0  0  0  0  0  0  0  0  0
    4.6232    0.8897   -0.3660 O   0  0  0  0  0  0  0  0  0  0  0  0
    0.0199    0.5598    0.8908 O   0  0  0  0  0  0  0  0  0  0  0  0
    4.5679   -1.9162   -1.0215 O   0  0  0  0  0  0  0  0  0  0  0  0
    1.1406   -4.0751    0.3306 O   0  0  0  0  0  0  0  0  0  0  0  0
    1.2400    3.2253    1.3715 O   0  0  0  0  0  0  0  0  0  0  0  0
   -5.7020   -1.6337   -0.4410 O   0  5  0  0  0  0  0  0  0  0  0  0
   -6.0337    0.5193   -0.7453 O   0  0  0  0  0  0  0  0  0  0  0  0
    1.9716    2.1127   -0.5376 N   0  0  0  0  0  0  0  0  0  0  0  0
   -5.2929   -0.4482   -0.4480 N   0  3  0  0  0  0  0  0  0  0  0  0
    2.2603    0.8340    0.0782 C   0  0  2  0  0  0  0  0  0  0  0  0
    3.4296    0.1531   -0.6396 C   0  0  2  0  0  0  0  0  0  0  0  0
    3.6185   -1.2889   -0.1635 C   0  0  1  0  0  0  0  0  0  0  0  0
    2.2883   -2.0461   -0.1926 C   0  0  1  0  0  0  0  0  0  0  0  0
    1.0132   -0.0567    0.0725 C   0  0  1  0  0  0  0  0  0  0  0  0
    2.4112   -3.4523    0.3853 C   0  0  0  0  0  0  0  0  0  0  0  0
    1.4851    3.1983    0.1683 C   0  0  0  0  0  0  0  0  0  0  0  0
   -1.2847    0.3123    0.5616 C   0  0  0  0  0  0  0  0  0  0  0  0
    1.2973    4.4077   -0.7077 C   0  0  0  0  0  0  0  0  0  0  0  0
   -1.7616   -0.9948    0.5648 C   0  0  0  0  0  0  0  0  0  0  0  0
   -2.1251    1.3697    0.2275 C   0  0  0  0  0  0  0  0  0  0  0  0
   -3.0921   -1.2471    0.2304 C   0  0  0  0  0  0  0  0  0  0  0  0
   -3.4556    1.1174   -0.1068 C   0  0  0  0  0  0  0  0  0  0  0  0
   -3.9391   -0.1910   -0.1053 C   0  0  0  0  0  0  0  0  0  0  0  0
    2.5470    1.0339    1.1199 H   0  0  0  0  0  0  0  0  0  0  0  0
    3.2900    0.1737   -1.7276 H   0  0  0  0  0  0  0  0  0  0  0  0
    4.0375   -1.2816    0.8508 H   0  0  0  0  0  0  0  0  0  0  0  0
    1.9099   -2.1336   -1.2202 H   0  0  0  0  0  0  0  0  0  0  0  0
    0.6355   -0.1596   -0.9560 H   0  0  0  0  0  0  0  0  0  0  0  0
    2.7295   -3.4301    1.4328 H   0  0  0  0  0  0  0  0  0  0  0  0
    3.1134   -4.0668   -0.1843 H   0  0  0  0  0  0  0  0  0  0  0  0
    2.0817    2.1932   -1.5447 H   0  0  0  0  0  0  0  0  0  0  0  0
    4.7715    0.8789    0.5950 H   0  0  0  0  0  0  0  0  0  0  0  0
    4.8271   -2.7586   -0.6120 H   0  0  0  0  0  0  0  0  0  0  0  0
    0.5278   -3.5385    0.8615 H   0  0  0  0  0  0  0  0  0  0  0  0
    0.8415    5.2158   -0.1289 H   0  0  0  0  0  0  0  0  0  0  0  0
    2.2668    4.7421   -1.0872 H   0  0  0  0  0  0  0  0  0  0  0  0
    0.6407    4.1622   -1.5474 H   0  0  0  0  0  0  0  0  0  0  0  0
   -1.1282   -1.8304    0.8423 H   0  0  0  0  0  0  0  0  0  0  0  0
   -1.7524    2.3902    0.2248 H   0  0  0  0  0  0  0  0  0  0  0  0
   -3.4348   -2.2786    0.2464 H   0  0  0  0  0  0  0  0  0  0  0  0
   -4.0857    1.9651   -0.3635 H   0  0  0  0  0  0  0  0  0  0  0  0
  1 14  1  0  0  0  0
  1 15  1  0  0  0  0
  2 12  1  0  0  0  0
  2 33  1  0  0  0  0
  3 15  1  0  0  0  0
  3 18  1  0  0  0  0
  4 13  1  0  0  0  0
  4 34  1  0  0  0  0
  5 16  1  0  0  0  0
  5 35  1  0  0  0  0
  6 17  2  0  0  0  0
  7 10  1  0  0  0  0
  8 10  2  0  0  0  0
  9 11  1  0  0  0  0
  9 17  1  0  0  0  0
  9 32  1  0  0  0  0
 10 24  1  0  0  0  0
 11 12  1  0  0  0  0
 11 15  1  0  0  0  0
 11 25  1  0  0  0  0
 12 13  1  0  0  0  0
 12 26  1  0  0  0  0
 13 14  1  0  0  0  0
 13 27  1  0  0  0  0
 14 16  1  0  0  0  0
 14 28  1  0  0  0  0
 15 29  1  0  0  0  0
 16 30  1  0  0  0  0
 16 31  1  0  0  0  0
 17 19  1  0  0  0  0
 18 20  2  0  0  0  0
 18 21  1  0  0  0  0
 19 36  1  0  0  0  0
 19 37  1  0  0  0  0
 19 38  1  0  0  0  0
 20 22  1  0  0  0  0
 20 39  1  0  0  0  0
 21 23  2  0  0  0  0
 21 40  1  0  0  0  0
 22 24  2  0  0  0  0
 22 41  1  0  0  0  0
 23 24  1  0  0  0  0
 23 42  1  0  0  0  0
M  CHG  2   7  -1  10   1
M  END
> <PUBCHEM_COMPOUND_CID>
102416

> <PUBCHEM_CONFORMER_RMSD>
0.8

> <PUBCHEM_CONFORMER_DIVERSEORDER>
1
18
72
67
27
75
69
59
80
30
6
68
23
17
11
61
74
44
8
60
33
73
14
37
39
49
26
47
48
21
35
77
58
34
32
16
5
65
55
42
40
43
7
57
51
28
54
70
53
38
64
52
45
76
62
13
50
24
29
12
31
63
4
46
3
41
56
78
19
71
2
79
25
66
15
20
9
10
22
36

> <PUBCHEM_MMFF94_PARTIAL_CHARGES>
32
1 -0.56
10 0.91
11 0.3
12 0.28
13 0.28
14 0.28
15 0.56
16 0.28
17 0.57
18 0.08
19 0.06
2 -0.68
20 -0.15
21 -0.15
22 -0.15
23 -0.15
24 0.13
3 -0.36
32 0.37
33 0.4
34 0.4
35 0.4
39 0.15
4 -0.68
40 0.15
41 0.15
42 0.15
5 -0.68
6 -0.57
7 -0.52
8 -0.52
9 -0.73

> <PUBCHEM_EFFECTIVE_ROTOR_COUNT>
7.2

> <PUBCHEM_PHARMACOPHORE_FEATURES>
15
1 1 acceptor
1 2 acceptor
1 2 donor
1 3 acceptor
1 4 acceptor
1 4 donor
1 5 acceptor
1 5 donor
1 6 acceptor
1 7 acceptor
1 7 anion
1 8 acceptor
1 9 donor
6 1 11 12 13 14 15 rings
6 18 20 21 22 23 24 rings

> <PUBCHEM_HEAVY_ATOM_COUNT>
24

> <PUBCHEM_ATOM_DEF_STEREO_COUNT>
5

> <PUBCHEM_ATOM_UDEF_STEREO_COUNT>
0

> <PUBCHEM_BOND_DEF_STEREO_COUNT>
0

> <PUBCHEM_BOND_UDEF_STEREO_COUNT>
0

> <PUBCHEM_ISOTOPIC_ATOM_COUNT>
0

> <PUBCHEM_COMPONENT_COUNT>
1

> <PUBCHEM_CACTVS_TAUTO_COUNT>
2

> <PUBCHEM_CONFORMER_ID>
0001901000000001

> <PUBCHEM_MMFF94_ENERGY>
71.4919

> <PUBCHEM_FEATURE_SELFOVERLAP>
76.266

> <PUBCHEM_SHAPE_FINGERPRINT>
10693767 8 18201444640878385998
10930396 42 18266433548345309464
116883 192 17762339111347718134
12553582 1 18193569878027171226
12730499 353 18263087763709008459
13083527 12 18117265957762470410
13533116 47 18270964661010820665
138480 1 18410012130547156756
13911987 19 18189641439535659782
13955234 65 18269835470789680393
14576447 43 18339643343509406174
18335252 114 18119798124810370501
18681886 176 18411695517588627250
200 152 18131070437611866107
20645477 70 18336261348984651441
21285901 2 17604145922144205631
221357 26 18336261254653906085
221490 88 18337400455531067395
22149856 69 18121793979043371763
22289505 5 18262511498945434997
2255824 54 18337674225542203168
23558518 356 17687173610471303330
23559900 14 18410005576795906137
238 59 18264499553428376578
283562 15 18266469698694272058
2871803 45 18410578353349956270
3004659 81 18261392178965770002
3060560 45 18410012178091905862
4280585 95 17405720181486010630
46194498 28 17822294612663563013
463206 1 18411983559233080471
495365 180 18267858570125920089
6443956 14 18409171008641866100
7164475 11 17903922150109853354
7364860 26 18340485659457452792
7471813 234 18060697290739874113
9709674 26 18336549425437242723
9981440 41 17545878686542321136

> <PUBCHEM_SHAPE_MULTIPOLES>
436.99
9.95
4.51
0.85
13.15
1.78
-0.06
-3.79
3.22
-4.73
-0.14
-0.13
0.22
0

> <PUBCHEM_SHAPE_SELFOVERLAP>
912.975

> <PUBCHEM_SHAPE_VOLUME>
244.7

> <PUBCHEM_COORDINATE_TYPE>
2
5
10

$$$$
