10246906
  -OEChem-03292013303D

 52 53  0     1  0  0  0  0  0999 V2000
   -3.5812   -0.6102   -1.7414 O   0  0  0  0  0  0  0  0  0  0  0  0
    1.3029    0.4139    1.0013 O   0  0  0  0  0  0  0  0  0  0  0  0
   -0.6163    3.5010   -1.0165 O   0  0  0  0  0  0  0  0  0  0  0  0
    0.5871    3.2136    1.4395 O   0  0  0  0  0  0  0  0  0  0  0  0
   -5.9841   -0.3032    1.3989 O   0  0  0  0  0  0  0  0  0  0  0  0
    5.3319   -2.9950   -1.3133 O   0  0  0  0  0  0  0  0  0  0  0  0
    5.2716   -2.6439    0.9356 O   0  0  0  0  0  0  0  0  0  0  0  0
   -2.2966   -0.5224   -1.1216 C   0  0  2  0  0  0  0  0  0  0  0  0
   -3.5552   -0.3615   -0.3301 C   0  0  2  0  0  0  0  0  0  0  0  0
   -1.4998    0.6701   -1.5329 C   0  0  0  0  0  0  0  0  0  0  0  0
   -0.5652    1.1334   -0.4152 C   0  0  2  0  0  0  0  0  0  0  0  0
   -4.0706   -1.4753    0.4985 C   0  0  2  0  0  0  0  0  0  0  0  0
    0.2398    2.3813   -0.8097 C   0  0  2  0  0  0  0  0  0  0  0  0
    0.3935    0.0063   -0.0196 C   0  0  0  0  0  0  0  0  0  0  0  0
    1.2659    2.7413    0.2696 C   0  0  2  0  0  0  0  0  0  0  0  0
    2.1278    1.5386    0.6688 C   0  0  2  0  0  0  0  0  0  0  0  0
   -5.6154   -1.4794    0.6769 C   0  0  2  0  0  0  0  0  0  0  0  0
   -3.3855   -1.5155    1.8783 C   0  0  0  0  0  0  0  0  0  0  0  0
    3.1747    1.1688   -0.3788 C   0  0  0  0  0  0  0  0  0  0  0  0
   -6.4087   -1.5294   -0.6242 C   0  0  0  0  0  0  0  0  0  0  0  0
    4.0107   -0.0154    0.0444 C   0  0  0  0  0  0  0  0  0  0  0  0
    4.8336    0.2098    1.2886 C   0  0  0  0  0  0  0  0  0  0  0  0
    4.0938   -1.1935   -0.6013 C   0  0  0  0  0  0  0  0  0  0  0  0
    4.9453   -2.3335   -0.1961 C   0  0  0  0  0  0  0  0  0  0  0  0
   -1.7274   -1.4394   -1.0652 H   0  0  0  0  0  0  0  0  0  0  0  0
   -3.8192    0.6251    0.0254 H   0  0  0  0  0  0  0  0  0  0  0  0
   -0.9220    0.4161   -2.4301 H   0  0  0  0  0  0  0  0  0  0  0  0
   -2.1689    1.4922   -1.8170 H   0  0  0  0  0  0  0  0  0  0  0  0
   -1.1831    1.3876    0.4569 H   0  0  0  0  0  0  0  0  0  0  0  0
   -3.8183   -2.4249    0.0045 H   0  0  0  0  0  0  0  0  0  0  0  0
    0.7566    2.1913   -1.7580 H   0  0  0  0  0  0  0  0  0  0  0  0
    0.9473   -0.3777   -0.8829 H   0  0  0  0  0  0  0  0  0  0  0  0
   -0.1570   -0.8395    0.4026 H   0  0  0  0  0  0  0  0  0  0  0  0
    1.8918    3.5742   -0.0690 H   0  0  0  0  0  0  0  0  0  0  0  0
    2.6396    1.8007    1.6032 H   0  0  0  0  0  0  0  0  0  0  0  0
   -5.9025   -2.3387    1.2940 H   0  0  0  0  0  0  0  0  0  0  0  0
   -3.7542   -2.3549    2.4768 H   0  0  0  0  0  0  0  0  0  0  0  0
   -2.3023   -1.6323    1.7646 H   0  0  0  0  0  0  0  0  0  0  0  0
   -3.5567   -0.5889    2.4366 H   0  0  0  0  0  0  0  0  0  0  0  0
    2.7012    0.9435   -1.3411 H   0  0  0  0  0  0  0  0  0  0  0  0
    3.8353    2.0253   -0.5634 H   0  0  0  0  0  0  0  0  0  0  0  0
   -0.0581    4.2535   -1.2767 H   0  0  0  0  0  0  0  0  0  0  0  0
   -6.1304   -2.4011   -1.2237 H   0  0  0  0  0  0  0  0  0  0  0  0
   -7.4812   -1.5842   -0.4074 H   0  0  0  0  0  0  0  0  0  0  0  0
   -6.2633   -0.6239   -1.2222 H   0  0  0  0  0  0  0  0  0  0  0  0
    0.1557    2.4549    1.8671 H   0  0  0  0  0  0  0  0  0  0  0  0
   -5.8968    0.4608    0.8046 H   0  0  0  0  0  0  0  0  0  0  0  0
    5.0517    1.2763    1.4184 H   0  0  0  0  0  0  0  0  0  0  0  0
    4.2911   -0.1328    2.1754 H   0  0  0  0  0  0  0  0  0  0  0  0
    5.8116   -0.2784    1.2493 H   0  0  0  0  0  0  0  0  0  0  0  0
    3.5288   -1.3299   -1.5203 H   0  0  0  0  0  0  0  0  0  0  0  0
    5.9065   -3.7624   -1.1050 H   0  0  0  0  0  0  0  0  0  0  0  0
  1  8  1  0  0  0  0
  1  9  1  0  0  0  0
  2 14  1  0  0  0  0
  2 16  1  0  0  0  0
  3 13  1  0  0  0  0
  3 42  1  0  0  0  0
  4 15  1  0  0  0  0
  4 46  1  0  0  0  0
  5 17  1  0  0  0  0
  5 47  1  0  0  0  0
  6 24  1  0  0  0  0
  6 52  1  0  0  0  0
  7 24  2  0  0  0  0
  8  9  1  0  0  0  0
  8 10  1  0  0  0  0
  8 25  1  0  0  0  0
  9 12  1  0  0  0  0
  9 26  1  0  0  0  0
 10 11  1  0  0  0  0
 10 27  1  0  0  0  0
 10 28  1  0  0  0  0
 11 13  1  0  0  0  0
 11 14  1  0  0  0  0
 11 29  1  0  0  0  0
 12 17  1  0  0  0  0
 12 18  1  0  0  0  0
 12 30  1  0  0  0  0
 13 15  1  0  0  0  0
 13 31  1  0  0  0  0
 14 32  1  0  0  0  0
 14 33  1  0  0  0  0
 15 16  1  0  0  0  0
 15 34  1  0  0  0  0
 16 19  1  0  0  0  0
 16 35  1  0  0  0  0
 17 20  1  0  0  0  0
 17 36  1  0  0  0  0
 18 37  1  0  0  0  0
 18 38  1  0  0  0  0
 18 39  1  0  0  0  0
 19 21  1  0  0  0  0
 19 40  1  0  0  0  0
 19 41  1  0  0  0  0
 20 43  1  0  0  0  0
 20 44  1  0  0  0  0
 20 45  1  0  0  0  0
 21 22  1  0  0  0  0
 21 23  2  0  0  0  0
 22 48  1  0  0  0  0
 22 49  1  0  0  0  0
 22 50  1  0  0  0  0
 23 24  1  0  0  0  0
 23 51  1  0  0  0  0
M  END
> <PUBCHEM_COMPOUND_CID>
10246906

> <PUBCHEM_CONFORMER_RMSD>
1

> <PUBCHEM_CONFORMER_DIVERSEORDER>
1
149
332
324
66
213
74
401
274
405
334
317
212
179
282
392
232
201
71
59
421
277
280
195
373
175
338
301
58
304
247
145
365
255
139
261
384
26
209
86
246
335
146
78
181
410
36
44
21
54
385
362
398
418
377
90
349
390
134
161
306
399
376
162
269
420
252
169
35
268
63
312
164
283
251
152
45
101
138
267
386
132
106
294
157
363
79
210
104
260
417
109
249
311
321
346
233
114
160
69
80
115
171
216
293
55
245
196
272
248
156
82
254
131
285
281
236
41
263
313
325
370
357
120
34
177
191
309
151
124
368
33
118
266
198
190
133
270
159
105
178
402
353
167
42
197
166
182
153
97
287
38
413
208
329
273
121
23
93
215
186
50
194
403
203
81
87
30
214
400
397
84
176
188
381
310
336
89
62
150
155
70
15
205
276
383
107
136
307
422
173
395
24
77
278
378
423
239
211
108
318
199
122
39
64
343
27
18
53
372
302
12
60
333
387
319
330
337
163
424
253
366
75
5
412
340
256
2
279
296
375
327
140
315
328
221
351
238
225
326
364
183
288
52
286
68
262
135
291
396
257
240
219
168
391
142
382
85
331
72
100
217
380
158
113
241
32
341
218
394
406
98
314
374
165
40
189
112
22
345
323
361
204
20
141
299
388
206
65
408
110
57
76
111
379
360
356
31
192
25
47
229
126
128
172
147
144
226
369
29
220
49
16
143
95
342
355
367
7
28
258
14
284
389
339
88
290
354
193
137
185
244
393
103
46
56
411
10
416
99
94
91
129
231
259
200
174
242
409
127
358
125
4
223
415
348
264
297
9
67
73
43
92
228
308
404
305
117
170
116
298
48
202
359
83
8
344
19
3
265
300
184
51
414
407
237
119
322
207
419
11
148
102
130
222
292
350
123
227
295
371
154
235
320
289
275
37
17
6
61
316
347
303
187
271
96
243
180
224
250
230
352
234
13

> <PUBCHEM_MMFF94_PARTIAL_CHARGES>
28
1 -0.3
10 0.09
12 0.09
13 0.28
14 0.28
15 0.28
16 0.28
17 0.28
19 0.14
2 -0.56
21 -0.28
22 0.14
23 -0.14
24 0.71
25 0.1
26 0.1
3 -0.68
4 -0.68
42 0.4
46 0.4
47 0.4
5 -0.68
51 0.15
52 0.5
6 -0.65
7 -0.57
8 -0.05
9 -0.05

> <PUBCHEM_EFFECTIVE_ROTOR_COUNT>
8.8

> <PUBCHEM_PHARMACOPHORE_FEATURES>
14
1 1 acceptor
1 18 hydrophobe
1 2 acceptor
1 22 hydrophobe
1 3 acceptor
1 3 donor
1 4 acceptor
1 4 donor
1 5 acceptor
1 5 donor
1 6 acceptor
1 7 acceptor
3 6 7 24 anion
6 2 11 13 14 15 16 rings

> <PUBCHEM_HEAVY_ATOM_COUNT>
24

> <PUBCHEM_ATOM_DEF_STEREO_COUNT>
8

> <PUBCHEM_ATOM_UDEF_STEREO_COUNT>
0

> <PUBCHEM_BOND_DEF_STEREO_COUNT>
1

> <PUBCHEM_BOND_UDEF_STEREO_COUNT>
0

> <PUBCHEM_ISOTOPIC_ATOM_COUNT>
0

> <PUBCHEM_COMPONENT_COUNT>
1

> <PUBCHEM_CACTVS_TAUTO_COUNT>
1

> <PUBCHEM_CONFORMER_ID>
009C5AFA00000001

> <PUBCHEM_MMFF94_ENERGY>
56.9725

> <PUBCHEM_FEATURE_SELFOVERLAP>
71.119

> <PUBCHEM_SHAPE_FINGERPRINT>
11809386 21 18046623400871988362
11991303 11 17829053113076878717
12107183 9 18200887201462235993
12422481 6 17774449269559539079
12596602 18 16701738370854902970
12623949 98 17536332666629135163
12633257 1 16486974028755124957
12760667 363 18337392643223186050
13402501 40 18113901580424145027
13533116 47 18269556212258706571
13782708 43 18187927326562462731
13911852 28 18412542094002033903
13914758 101 18272369772831484007
13955234 65 18196087974451044320
14251764 30 18334858303127854843
14528608 73 10809338944877504987
14739800 52 16054619784515152457
14866123 147 18192713337273878417
14951699 99 13686004441491860162
15042514 8 18198066871852779160
15475509 84 17632302250168623864
15527383 91 18341612680604090473
15537594 2 18272372014155839574
15728490 83 17976541603022027290
17492 89 18267020545351355654
17909252 39 18262228899210130474
1813 80 18342749523844841804
193927 3 18259704501520294980
21279426 13 18261103042152083797
212916 134 14333131883636970231
2215653 11 17968647333310017191
22950370 63 18335426772092860357
23559900 14 17169263944264823205
314194 84 18341887549931175486
3421961 26 18339641247628545848
345986 75 17846784005158041128
34797466 226 16732986482805107359
437815 12 18410013230300981435
46194498 28 17531528792868297052
5104073 3 18271517590652469408
56633871 153 18131067125828883711
621550 5 18113615694505277317
7918774 8 18187372033949875515
8509985 295 16415207814162721105

> <PUBCHEM_SHAPE_MULTIPOLES>
452.82
14
3.44
1.51
7.83
1.32
-0.13
-14.49
-1.69
-3.95
0.11
0.77
-0.12
1.37

> <PUBCHEM_SHAPE_SELFOVERLAP>
911.916

> <PUBCHEM_SHAPE_VOLUME>
265

> <PUBCHEM_COORDINATE_TYPE>
2
5
10

$$$$
