102421386
  -OEChem-03292013293D

 64 68  0     1  0  0  0  0  0999 V2000
    0.0666    2.1208   -0.0145 O   0  0  0  0  0  0  0  0  0  0  0  0
   -1.8838    3.9334    0.6654 O   0  0  0  0  0  0  0  0  0  0  0  0
   -3.7146   -3.7059    0.4631 O   0  0  0  0  0  0  0  0  0  0  0  0
   -4.6628   -2.3908   -1.6646 O   0  0  0  0  0  0  0  0  0  0  0  0
    5.2423   -1.6520   -0.1080 O   0  0  0  0  0  0  0  0  0  0  0  0
    4.3116    1.9624   -1.9992 O   0  0  0  0  0  0  0  0  0  0  0  0
    5.9987    0.2385   -1.0900 O   0  0  0  0  0  0  0  0  0  0  0  0
   -1.8995   -0.3767    0.2643 C   0  0  1  0  0  0  0  0  0  0  0  0
   -3.2303    0.4535    0.1627 C   0  0  2  0  0  0  0  0  0  0  0  0
   -0.9329    0.3154    1.3305 C   0  0  2  0  0  0  0  0  0  0  0  0
   -0.7278    1.8445    1.1525 C   0  0  2  0  0  0  0  0  0  0  0  0
   -4.3340   -0.1555   -0.7772 C   0  0  0  0  0  0  0  0  0  0  0  0
   -2.9489    1.9357   -0.1281 C   0  0  0  0  0  0  0  0  0  0  0  0
   -2.2354   -1.8221    0.7700 C   0  0  0  0  0  0  0  0  0  0  0  0
   -2.0902    2.5530    0.9688 C   0  0  2  0  0  0  0  0  0  0  0  0
    0.4447   -0.3727    1.4578 C   0  0  0  0  0  0  0  0  0  0  0  0
   -1.2275   -0.5364   -1.1218 C   0  0  0  0  0  0  0  0  0  0  0  0
   -3.6670   -2.2919    0.5179 C   0  0  1  0  0  0  0  0  0  0  0  0
   -4.2391   -1.6868   -0.7483 C   0  0  0  0  0  0  0  0  0  0  0  0
   -0.0397    2.4931    2.3819 C   0  0  0  0  0  0  0  0  0  0  0  0
   -4.2742    0.3413   -2.2350 C   0  0  0  0  0  0  0  0  0  0  0  0
   -5.7340    0.2026   -0.2304 C   0  0  0  0  0  0  0  0  0  0  0  0
    1.5016    0.2204    0.5565 C   0  0  0  0  0  0  0  0  0  0  0  0
    1.2430    1.4232   -0.1213 C   0  0  0  0  0  0  0  0  0  0  0  0
    2.7614   -0.3980    0.3916 C   0  0  0  0  0  0  0  0  0  0  0  0
    2.1888    1.9782   -0.9848 C   0  0  0  0  0  0  0  0  0  0  0  0
    3.7191    0.1920   -0.4533 C   0  0  0  0  0  0  0  0  0  0  0  0
    3.1607   -1.6460    1.1336 C   0  0  0  0  0  0  0  0  0  0  0  0
    3.4280    1.3689   -1.1474 C   0  0  0  0  0  0  0  0  0  0  0  0
    4.0950   -2.4517    0.2427 C   0  0  2  0  0  0  0  0  0  0  0  0
    5.0766   -0.3930   -0.5904 C   0  0  0  0  0  0  0  0  0  0  0  0
    4.6036   -3.6974    0.9549 C   0  0  0  0  0  0  0  0  0  0  0  0
   -3.6546    0.4294    1.1799 H   0  0  0  0  0  0  0  0  0  0  0  0
   -1.4366    0.1815    2.3006 H   0  0  0  0  0  0  0  0  0  0  0  0
   -2.4675    2.0789   -1.1021 H   0  0  0  0  0  0  0  0  0  0  0  0
   -3.8900    2.4966   -0.1841 H   0  0  0  0  0  0  0  0  0  0  0  0
   -2.0697   -1.8977    1.8532 H   0  0  0  0  0  0  0  0  0  0  0  0
   -1.5300   -2.5470    0.3406 H   0  0  0  0  0  0  0  0  0  0  0  0
   -2.6476    2.5137    1.9139 H   0  0  0  0  0  0  0  0  0  0  0  0
    0.3415   -1.4439    1.2656 H   0  0  0  0  0  0  0  0  0  0  0  0
    0.7968   -0.2711    2.4926 H   0  0  0  0  0  0  0  0  0  0  0  0
   -1.0495    0.4203   -1.6172 H   0  0  0  0  0  0  0  0  0  0  0  0
   -1.8326   -1.1469   -1.7981 H   0  0  0  0  0  0  0  0  0  0  0  0
   -0.2715   -1.0638   -1.0547 H   0  0  0  0  0  0  0  0  0  0  0  0
   -4.3183   -1.9829    1.3436 H   0  0  0  0  0  0  0  0  0  0  0  0
    0.1186    3.5659    2.2222 H   0  0  0  0  0  0  0  0  0  0  0  0
    0.9535    2.0798    2.5810 H   0  0  0  0  0  0  0  0  0  0  0  0
   -0.6425    2.3630    3.2870 H   0  0  0  0  0  0  0  0  0  0  0  0
   -4.4621    1.4179   -2.3050 H   0  0  0  0  0  0  0  0  0  0  0  0
   -5.0369   -0.1490   -2.8523 H   0  0  0  0  0  0  0  0  0  0  0  0
   -3.3125    0.1385   -2.7101 H   0  0  0  0  0  0  0  0  0  0  0  0
   -5.9028    1.2845   -0.2321 H   0  0  0  0  0  0  0  0  0  0  0  0
   -5.8705   -0.1565    0.7960 H   0  0  0  0  0  0  0  0  0  0  0  0
   -6.5242   -0.2589   -0.8347 H   0  0  0  0  0  0  0  0  0  0  0  0
   -2.7578    4.3556    0.6061 H   0  0  0  0  0  0  0  0  0  0  0  0
   -3.3872   -4.0442    1.3140 H   0  0  0  0  0  0  0  0  0  0  0  0
    1.9626    2.8986   -1.5186 H   0  0  0  0  0  0  0  0  0  0  0  0
    3.6626   -1.3426    2.0605 H   0  0  0  0  0  0  0  0  0  0  0  0
    2.3002   -2.2670    1.3949 H   0  0  0  0  0  0  0  0  0  0  0  0
    3.5982   -2.7537   -0.6886 H   0  0  0  0  0  0  0  0  0  0  0  0
    5.2937   -4.2507    0.3087 H   0  0  0  0  0  0  0  0  0  0  0  0
    3.7794   -4.3606    1.2341 H   0  0  0  0  0  0  0  0  0  0  0  0
    5.1643   -3.4324    1.8581 H   0  0  0  0  0  0  0  0  0  0  0  0
    5.0630    1.3737   -2.1708 H   0  0  0  0  0  0  0  0  0  0  0  0
  1 11  1  0  0  0  0
  1 24  1  0  0  0  0
  2 15  1  0  0  0  0
  2 55  1  0  0  0  0
  3 18  1  0  0  0  0
  3 56  1  0  0  0  0
  4 19  2  0  0  0  0
  5 30  1  0  0  0  0
  5 31  1  0  0  0  0
  6 29  1  0  0  0  0
  6 64  1  0  0  0  0
  7 31  2  0  0  0  0
  8  9  1  0  0  0  0
  8 10  1  0  0  0  0
  8 14  1  0  0  0  0
  8 17  1  0  0  0  0
  9 12  1  0  0  0  0
  9 13  1  0  0  0  0
  9 33  1  0  0  0  0
 10 11  1  0  0  0  0
 10 16  1  0  0  0  0
 10 34  1  0  0  0  0
 11 15  1  0  0  0  0
 11 20  1  0  0  0  0
 12 19  1  0  0  0  0
 12 21  1  0  0  0  0
 12 22  1  0  0  0  0
 13 15  1  0  0  0  0
 13 35  1  0  0  0  0
 13 36  1  0  0  0  0
 14 18  1  0  0  0  0
 14 37  1  0  0  0  0
 14 38  1  0  0  0  0
 15 39  1  0  0  0  0
 16 23  1  0  0  0  0
 16 40  1  0  0  0  0
 16 41  1  0  0  0  0
 17 42  1  0  0  0  0
 17 43  1  0  0  0  0
 17 44  1  0  0  0  0
 18 19  1  0  0  0  0
 18 45  1  0  0  0  0
 20 46  1  0  0  0  0
 20 47  1  0  0  0  0
 20 48  1  0  0  0  0
 21 49  1  0  0  0  0
 21 50  1  0  0  0  0
 21 51  1  0  0  0  0
 22 52  1  0  0  0  0
 22 53  1  0  0  0  0
 22 54  1  0  0  0  0
 23 24  2  0  0  0  0
 23 25  1  0  0  0  0
 24 26  1  0  0  0  0
 25 27  2  0  0  0  0
 25 28  1  0  0  0  0
 26 29  2  0  0  0  0
 26 57  1  0  0  0  0
 27 29  1  0  0  0  0
 27 31  1  0  0  0  0
 28 30  1  0  0  0  0
 28 58  1  0  0  0  0
 28 59  1  0  0  0  0
 30 32  1  0  0  0  0
 30 60  1  0  0  0  0
 32 61  1  0  0  0  0
 32 62  1  0  0  0  0
 32 63  1  0  0  0  0
M  END
> <PUBCHEM_COMPOUND_CID>
102421386

> <PUBCHEM_CONFORMER_RMSD>
0.8

> <PUBCHEM_CONFORMER_DIVERSEORDER>
1

> <PUBCHEM_MMFF94_PARTIAL_CHARGES>
26
1 -0.36
11 0.28
12 0.06
15 0.28
16 0.14
18 0.34
19 0.45
2 -0.68
23 -0.14
24 0.08
25 -0.14
26 -0.15
27 0.09
28 0.14
29 0.08
3 -0.68
30 0.28
31 0.63
4 -0.57
5 -0.43
55 0.4
56 0.4
57 0.15
6 -0.53
64 0.45
7 -0.57

> <PUBCHEM_EFFECTIVE_ROTOR_COUNT>
2

> <PUBCHEM_PHARMACOPHORE_FEATURES>
14
1 1 acceptor
1 2 acceptor
1 2 donor
1 3 acceptor
1 3 donor
1 4 acceptor
1 6 donor
1 7 acceptor
3 12 21 22 hydrophobe
6 1 10 11 16 23 24 rings
6 23 24 25 26 27 29 rings
6 5 25 27 28 30 31 rings
6 8 9 10 11 13 15 rings
6 8 9 12 14 18 19 rings

> <PUBCHEM_HEAVY_ATOM_COUNT>
32

> <PUBCHEM_ATOM_DEF_STEREO_COUNT>
7

> <PUBCHEM_ATOM_UDEF_STEREO_COUNT>
0

> <PUBCHEM_BOND_DEF_STEREO_COUNT>
0

> <PUBCHEM_BOND_UDEF_STEREO_COUNT>
0

> <PUBCHEM_ISOTOPIC_ATOM_COUNT>
0

> <PUBCHEM_COMPONENT_COUNT>
1

> <PUBCHEM_CACTVS_TAUTO_COUNT>
24

> <PUBCHEM_CONFORMER_ID>
061AD38A00000001

> <PUBCHEM_MMFF94_ENERGY>
132.6797

> <PUBCHEM_FEATURE_SELFOVERLAP>
71.195

> <PUBCHEM_SHAPE_FINGERPRINT>
10622 236 18265038159592495346
10928967 22 18056479684637779847
11135609 187 17970639695650964452
11578080 2 18268687469019068968
11796584 16 18060424628893318519
12035759 4 18260264118579257257
12107183 9 17760087320176598408
12236239 1 18338240353681954216
12422481 6 17701840799296206971
12553582 1 17988650756237107671
12714826 92 17775568623888782273
12788726 201 18271811164240933257
13009979 54 18269838606105074864
13631057 29 18341900718675548560
13726171 33 17701846412513378416
13911987 19 17539994074746485788
14251757 5 18409446990597848691
14347332 77 18411132498714879189
14866123 147 18199185088864320305
15163728 17 12613026133421439245
15183329 4 18260264144375382815
15250474 111 18337669690394699634
15420108 30 17113251144705264056
16752209 62 18272649013270023600
17349148 13 18271244911320250988
17492 89 18408328774235174226
17909252 39 18340770441854445898
19319366 153 18050004691000280614
19958102 18 18189886535554025063
20511986 3 18335974277882130652
20775438 99 17048200141793386335
21703447 108 18271800280984150968
21756936 100 11602825730767493186
22182313 1 17981589770411103009
22393880 68 17967525813494148422
23559900 14 18339071691862507744
24771293 8 18335147463230386292
25147074 1 18339654321503811368
3004659 81 18334571343678289418
312425 83 17603577534762356565
38695281 34 17474109800290633745
4017518 198 17118038427075645790
46194498 28 17315357178932960831
463206 1 18270678808687592631
469060 322 16629658687805687533
5326457 24 18336547101812228798
57527293 21 16199277972884984242
57527295 17 18269554013050724107
6669772 16 17552637367676059080
70251023 43 17835513105363400199

> <PUBCHEM_SHAPE_MULTIPOLES>
617.46
11.89
3.79
1.66
5.15
0.9
0.11
6.89
4.89
-0.36
-1.07
-0.19
-0.61
-2.09

> <PUBCHEM_SHAPE_SELFOVERLAP>
1353.891

> <PUBCHEM_SHAPE_VOLUME>
328.6

> <PUBCHEM_COORDINATE_TYPE>
2
5
10

$$$$
