102514950
  -OEChem-03292013293D

 53 56  0     1  0  0  0  0  0999 V2000
    0.5127   -2.0437   -2.4103 O   0  0  0  0  0  0  0  0  0  0  0  0
    0.0793   -2.4972    0.5660 O   0  0  0  0  0  0  0  0  0  0  0  0
    3.0565    0.7182   -0.1962 O   0  0  0  0  0  0  0  0  0  0  0  0
    2.2345   -1.5895    2.1256 O   0  0  0  0  0  0  0  0  0  0  0  0
   -1.5528    2.0066   -0.4034 O   0  0  0  0  0  0  0  0  0  0  0  0
   -3.8348    0.4911   -0.2984 O   0  0  0  0  0  0  0  0  0  0  0  0
    3.6200    1.4604    1.9176 O   0  0  0  0  0  0  0  0  0  0  0  0
   -1.8748    3.6889    1.1470 O   0  0  0  0  0  0  0  0  0  0  0  0
    0.7793   -0.0862   -0.7845 C   0  0  1  0  0  0  0  0  0  0  0  0
    1.1521   -1.4673   -1.2824 C   0  0  1  0  0  0  0  0  0  0  0  0
   -0.6653   -0.1894   -0.0895 C   0  0  2  0  0  0  0  0  0  0  0  0
    1.3482   -2.2912   -0.0625 C   0  0  1  0  0  0  0  0  0  0  0  0
    1.9022    0.0646    0.3324 C   0  0  1  0  0  0  0  0  0  0  0  0
    1.9159   -1.7657   -2.5548 C   0  0  0  0  0  0  0  0  0  0  0  0
    2.3046   -1.3839    0.7285 C   0  0  1  0  0  0  0  0  0  0  0  0
   -0.6326   -1.3227    0.9907 C   0  0  1  0  0  0  0  0  0  0  0  0
    0.8519    1.0122   -1.8499 C   0  0  0  0  0  0  0  0  0  0  0  0
   -1.7973   -0.5244   -1.1167 C   0  0  0  0  0  0  0  0  0  0  0  0
   -1.0354    1.1594    0.5931 C   0  0  0  0  0  0  0  0  0  0  0  0
   -3.1846   -0.7629   -0.4938 C   0  0  1  0  0  0  0  0  0  0  0  0
   -1.9899   -1.8003    1.4354 C   0  0  0  0  0  0  0  0  0  0  0  0
   -3.1437   -1.5375    0.7989 C   0  0  0  0  0  0  0  0  0  0  0  0
    3.8281    1.3807    0.7145 C   0  0  0  0  0  0  0  0  0  0  0  0
   -4.4571   -2.0411    1.3269 C   0  0  0  0  0  0  0  0  0  0  0  0
   -1.9425    3.2601    0.0031 C   0  0  0  0  0  0  0  0  0  0  0  0
    4.9960    2.0140    0.0210 C   0  0  0  0  0  0  0  0  0  0  0  0
   -2.4705    4.0468   -1.1582 C   0  0  0  0  0  0  0  0  0  0  0  0
    1.7918   -3.2733   -0.2523 H   0  0  0  0  0  0  0  0  0  0  0  0
    1.5327    0.6205    1.1966 H   0  0  0  0  0  0  0  0  0  0  0  0
    2.1915   -0.9707   -3.2323 H   0  0  0  0  0  0  0  0  0  0  0  0
    2.5898   -2.6133   -2.5687 H   0  0  0  0  0  0  0  0  0  0  0  0
    3.3361   -1.5860    0.4121 H   0  0  0  0  0  0  0  0  0  0  0  0
   -0.1431   -0.9402    1.8939 H   0  0  0  0  0  0  0  0  0  0  0  0
    0.1102    0.8667   -2.6404 H   0  0  0  0  0  0  0  0  0  0  0  0
    1.8270    1.0340   -2.3481 H   0  0  0  0  0  0  0  0  0  0  0  0
    0.7130    2.0067   -1.4166 H   0  0  0  0  0  0  0  0  0  0  0  0
   -1.5507   -1.4638   -1.6192 H   0  0  0  0  0  0  0  0  0  0  0  0
   -1.8691    0.2257   -1.9114 H   0  0  0  0  0  0  0  0  0  0  0  0
   -0.1821    1.6407    1.0760 H   0  0  0  0  0  0  0  0  0  0  0  0
   -1.7983    1.0141    1.3668 H   0  0  0  0  0  0  0  0  0  0  0  0
   -3.7897   -1.3215   -1.2189 H   0  0  0  0  0  0  0  0  0  0  0  0
   -2.0087   -2.3915    2.3485 H   0  0  0  0  0  0  0  0  0  0  0  0
    2.8217   -0.9389    2.5468 H   0  0  0  0  0  0  0  0  0  0  0  0
   -5.1291   -1.2031    1.5379 H   0  0  0  0  0  0  0  0  0  0  0  0
   -4.9364   -2.6946    0.5907 H   0  0  0  0  0  0  0  0  0  0  0  0
   -4.3397   -2.6136    2.2530 H   0  0  0  0  0  0  0  0  0  0  0  0
   -3.9009    0.9276   -1.1647 H   0  0  0  0  0  0  0  0  0  0  0  0
    5.6095    1.2422   -0.4505 H   0  0  0  0  0  0  0  0  0  0  0  0
    5.6082    2.5466    0.7543 H   0  0  0  0  0  0  0  0  0  0  0  0
    4.6404    2.7315   -0.7227 H   0  0  0  0  0  0  0  0  0  0  0  0
   -1.6909    4.1536   -1.9165 H   0  0  0  0  0  0  0  0  0  0  0  0
   -2.7660    5.0433   -0.8181 H   0  0  0  0  0  0  0  0  0  0  0  0
   -3.3472    3.5453   -1.5755 H   0  0  0  0  0  0  0  0  0  0  0  0
  1 10  1  0  0  0  0
  1 14  1  0  0  0  0
  2 12  1  0  0  0  0
  2 16  1  0  0  0  0
  3 13  1  0  0  0  0
  3 23  1  0  0  0  0
  4 15  1  0  0  0  0
  4 43  1  0  0  0  0
  5 19  1  0  0  0  0
  5 25  1  0  0  0  0
  6 20  1  0  0  0  0
  6 47  1  0  0  0  0
  7 23  2  0  0  0  0
  8 25  2  0  0  0  0
  9 10  1  0  0  0  0
  9 11  1  0  0  0  0
  9 13  1  0  0  0  0
  9 17  1  0  0  0  0
 10 12  1  0  0  0  0
 10 14  1  0  0  0  0
 11 16  1  0  0  0  0
 11 18  1  0  0  0  0
 11 19  1  0  0  0  0
 12 15  1  0  0  0  0
 12 28  1  0  0  0  0
 13 15  1  0  0  0  0
 13 29  1  0  0  0  0
 14 30  1  0  0  0  0
 14 31  1  0  0  0  0
 15 32  1  0  0  0  0
 16 21  1  0  0  0  0
 16 33  1  0  0  0  0
 17 34  1  0  0  0  0
 17 35  1  0  0  0  0
 17 36  1  0  0  0  0
 18 20  1  0  0  0  0
 18 37  1  0  0  0  0
 18 38  1  0  0  0  0
 19 39  1  0  0  0  0
 19 40  1  0  0  0  0
 20 22  1  0  0  0  0
 20 41  1  0  0  0  0
 21 22  2  0  0  0  0
 21 42  1  0  0  0  0
 22 24  1  0  0  0  0
 23 26  1  0  0  0  0
 24 44  1  0  0  0  0
 24 45  1  0  0  0  0
 24 46  1  0  0  0  0
 25 27  1  0  0  0  0
 26 48  1  0  0  0  0
 26 49  1  0  0  0  0
 26 50  1  0  0  0  0
 27 51  1  0  0  0  0
 27 52  1  0  0  0  0
 27 53  1  0  0  0  0
M  END
> <PUBCHEM_COMPOUND_CID>
102514950

> <PUBCHEM_CONFORMER_RMSD>
0.8

> <PUBCHEM_CONFORMER_DIVERSEORDER>
1
11
16
21
12
7
18
13
5
10
17
15
14
9
4
20
8
6
19
3
2

> <PUBCHEM_MMFF94_PARTIAL_CHARGES>
29
1 -0.3
10 -0.04
12 0.38
13 0.28
14 -0.05
15 0.28
16 0.42
19 0.28
2 -0.56
20 0.42
21 -0.29
22 -0.28
23 0.66
24 0.14
25 0.66
26 0.06
27 0.06
3 -0.43
30 0.1
31 0.1
4 -0.68
42 0.15
43 0.4
47 0.4
5 -0.43
6 -0.68
7 -0.57
8 -0.57
9 0.09

> <PUBCHEM_EFFECTIVE_ROTOR_COUNT>
6.4

> <PUBCHEM_PHARMACOPHORE_FEATURES>
10
1 1 acceptor
1 2 acceptor
1 4 acceptor
1 4 donor
1 6 acceptor
1 6 donor
1 7 acceptor
1 8 acceptor
6 11 16 18 20 21 22 rings
8 2 9 10 11 12 13 15 16 rings

> <PUBCHEM_HEAVY_ATOM_COUNT>
27

> <PUBCHEM_ATOM_DEF_STEREO_COUNT>
4

> <PUBCHEM_ATOM_UDEF_STEREO_COUNT>
4

> <PUBCHEM_BOND_DEF_STEREO_COUNT>
0

> <PUBCHEM_BOND_UDEF_STEREO_COUNT>
0

> <PUBCHEM_ISOTOPIC_ATOM_COUNT>
0

> <PUBCHEM_COMPONENT_COUNT>
1

> <PUBCHEM_CACTVS_TAUTO_COUNT>
4

> <PUBCHEM_CONFORMER_ID>
061C410600000001

> <PUBCHEM_MMFF94_ENERGY>
97.6363

> <PUBCHEM_FEATURE_SELFOVERLAP>
50.761

> <PUBCHEM_SHAPE_FINGERPRINT>
10165383 225 17273715328020342082
10863032 1 18186790383677218346
10906281 52 18337964484138692205
11221954 11 18270112392805852424
11578080 2 17558858150709095337
12633257 1 17756407280586258288
12788726 201 18263377923188764509
12930653 34 18334851697726207504
13140716 1 17901670693513672448
13149001 5 17766858125301393468
14081887 123 18334852839976641617
14178342 30 18041564645865067281
14223421 5 18340492174859212273
14787075 74 17754172299542951914
14955137 171 17840043053891919099
16945 1 18265328581138336682
17492 54 17983829419340100743
17876694 64 17676490591733375149
17980427 23 17478845491301748904
18981168 100 17417254195424274521
20600515 1 17751090312726419287
20905425 154 18410292505995895864
229495 10 17489316234985592399
23419403 2 14939326742324277035
23557571 272 18336280014875843347
23558518 356 18115032904747503673
23559900 14 18113901537843535598
3493558 16 17314207008108036893
350125 39 18337675217937819240
392239 28 18190744326163971561
57527585 21 18201705241849957141
81228 2 18191892083750317609
9981440 41 17771312367233423536

> <PUBCHEM_SHAPE_MULTIPOLES>
508.69
6.67
3.99
1.93
2.01
4.35
-0.66
1.63
2.42
-2.46
-0.03
0.89
-0.8
1.5

> <PUBCHEM_SHAPE_SELFOVERLAP>
1089.273

> <PUBCHEM_SHAPE_VOLUME>
276

> <PUBCHEM_COORDINATE_TYPE>
2
5
10

$$$$
