102515200
  -OEChem-03292013293D

 48 49  0     1  0  0  0  0  0999 V2000
   -1.7257   -0.1971    1.9223 S   0  0  0  0  0  0  0  0  0  0  0  0
   -0.5917   -0.8265   -2.2485 O   0  0  0  0  0  0  0  0  0  0  0  0
   -4.5027    0.9344    0.5302 O   0  5  0  0  0  0  0  0  0  0  0  0
   -4.1789    2.2179   -1.3359 O   0  0  0  0  0  0  0  0  0  0  0  0
    1.1346   -3.2966   -1.3129 O   0  0  0  0  0  0  0  0  0  0  0  0
   -2.2538   -0.4016   -0.6317 N   0  0  0  0  0  0  0  0  0  0  0  0
    0.0240   -2.3616    0.4969 N   0  0  0  0  0  0  0  0  0  0  0  0
   -2.2900   -1.2706    0.5454 C   0  0  1  0  0  0  0  0  0  0  0  0
   -1.5979    1.3326    0.8703 C   0  0  0  0  0  0  0  0  0  0  0  0
   -2.3603    1.0300   -0.4420 C   0  0  2  0  0  0  0  0  0  0  0  0
   -1.2533   -2.1606   -0.1715 C   0  0  1  0  0  0  0  0  0  0  0  0
   -1.2566   -1.0770   -1.2691 C   0  0  0  0  0  0  0  0  0  0  0  0
   -0.1046    1.5813    0.5959 C   0  0  0  0  0  0  0  0  0  0  0  0
   -2.1576    2.5215    1.6599 C   0  0  0  0  0  0  0  0  0  0  0  0
   -3.8261    1.4331   -0.4114 C   0  0  0  0  0  0  0  0  0  0  0  0
    1.1225   -2.9208   -0.1438 C   0  0  0  0  0  0  0  0  0  0  0  0
    2.3245   -3.0162    0.7783 C   0  0  0  0  0  0  0  0  0  0  0  0
    2.7687   -1.6517    1.3000 C   0  0  0  0  0  0  0  0  0  0  0  0
    3.1956   -0.7304    0.1565 C   0  0  0  0  0  0  0  0  0  0  0  0
    3.6719    0.6257    0.6822 C   0  0  0  0  0  0  0  0  0  0  0  0
    4.1340    1.5316   -0.4613 C   0  0  0  0  0  0  0  0  0  0  0  0
    4.6438    2.8944    0.0125 C   0  0  0  0  0  0  0  0  0  0  0  0
    5.0795    3.8083   -1.1224 C   0  0  0  0  0  0  0  0  0  0  0  0
   -3.2683   -1.7353    0.7007 H   0  0  0  0  0  0  0  0  0  0  0  0
   -1.8672    1.5276   -1.2871 H   0  0  0  0  0  0  0  0  0  0  0  0
   -1.6725   -3.1109   -0.5245 H   0  0  0  0  0  0  0  0  0  0  0  0
    0.4540    1.7465    1.5246 H   0  0  0  0  0  0  0  0  0  0  0  0
    0.0277    2.4756   -0.0244 H   0  0  0  0  0  0  0  0  0  0  0  0
    0.3685    0.7493    0.0666 H   0  0  0  0  0  0  0  0  0  0  0  0
   -1.5191    2.7611    2.5194 H   0  0  0  0  0  0  0  0  0  0  0  0
   -3.1622    2.3503    2.0580 H   0  0  0  0  0  0  0  0  0  0  0  0
   -2.1944    3.4185    1.0308 H   0  0  0  0  0  0  0  0  0  0  0  0
    0.1095   -2.1272    1.4826 H   0  0  0  0  0  0  0  0  0  0  0  0
    3.1418   -3.5008    0.2320 H   0  0  0  0  0  0  0  0  0  0  0  0
    2.0618   -3.6692    1.6187 H   0  0  0  0  0  0  0  0  0  0  0  0
    1.9766   -1.1714    1.8849 H   0  0  0  0  0  0  0  0  0  0  0  0
    3.6146   -1.7992    1.9825 H   0  0  0  0  0  0  0  0  0  0  0  0
    2.3641   -0.5712   -0.5393 H   0  0  0  0  0  0  0  0  0  0  0  0
    4.0040   -1.2060   -0.4125 H   0  0  0  0  0  0  0  0  0  0  0  0
    2.8648    1.1154    1.2383 H   0  0  0  0  0  0  0  0  0  0  0  0
    4.5014    0.4764    1.3841 H   0  0  0  0  0  0  0  0  0  0  0  0
    4.9303    1.0290   -1.0243 H   0  0  0  0  0  0  0  0  0  0  0  0
    3.3008    1.6838   -1.1588 H   0  0  0  0  0  0  0  0  0  0  0  0
    5.4897    2.7481    0.6947 H   0  0  0  0  0  0  0  0  0  0  0  0
    3.8558    3.3962    0.5866 H   0  0  0  0  0  0  0  0  0  0  0  0
    4.2465    4.0082   -1.8038 H   0  0  0  0  0  0  0  0  0  0  0  0
    5.4335    4.7650   -0.7261 H   0  0  0  0  0  0  0  0  0  0  0  0
    5.8928    3.3549   -1.6978 H   0  0  0  0  0  0  0  0  0  0  0  0
  1  8  1  0  0  0  0
  1  9  1  0  0  0  0
  2 12  2  0  0  0  0
  3 15  1  0  0  0  0
  4 15  2  0  0  0  0
  5 16  2  0  0  0  0
  6  8  1  0  0  0  0
  6 10  1  0  0  0  0
  6 12  1  0  0  0  0
  7 11  1  0  0  0  0
  7 16  1  0  0  0  0
  7 33  1  0  0  0  0
  8 11  1  0  0  0  0
  8 24  1  0  0  0  0
  9 10  1  0  0  0  0
  9 13  1  0  0  0  0
  9 14  1  0  0  0  0
 10 15  1  0  0  0  0
 10 25  1  0  0  0  0
 11 12  1  0  0  0  0
 11 26  1  0  0  0  0
 13 27  1  0  0  0  0
 13 28  1  0  0  0  0
 13 29  1  0  0  0  0
 14 30  1  0  0  0  0
 14 31  1  0  0  0  0
 14 32  1  0  0  0  0
 16 17  1  0  0  0  0
 17 18  1  0  0  0  0
 17 34  1  0  0  0  0
 17 35  1  0  0  0  0
 18 19  1  0  0  0  0
 18 36  1  0  0  0  0
 18 37  1  0  0  0  0
 19 20  1  0  0  0  0
 19 38  1  0  0  0  0
 19 39  1  0  0  0  0
 20 21  1  0  0  0  0
 20 40  1  0  0  0  0
 20 41  1  0  0  0  0
 21 22  1  0  0  0  0
 21 42  1  0  0  0  0
 21 43  1  0  0  0  0
 22 23  1  0  0  0  0
 22 44  1  0  0  0  0
 22 45  1  0  0  0  0
 23 46  1  0  0  0  0
 23 47  1  0  0  0  0
 23 48  1  0  0  0  0
M  CHG  1   3  -1
M  END
> <PUBCHEM_COMPOUND_CID>
102515200

> <PUBCHEM_CONFORMER_RMSD>
1

> <PUBCHEM_CONFORMER_DIVERSEORDER>
1
37
82
68
55
92
6
12
93
84
13
2
75
32
23
3
78
39
8
87
53
86
38
74
77
69
83
71
52
9
61
21
70
36
54
56
88
57
30
89
51
72
22
7
42
60
85
29
15
27
4
62
19
49
28
79
46
65
11
31
18
80
59
26
90
58
24
35
33
67
66
91
14
25
41
95
44
10
96
5
16
81
48
76
17
45
94
47
43
34
50
64
20
40
73
63

> <PUBCHEM_MMFF94_PARTIAL_CHARGES>
16
1 -0.45
10 0.19
11 0.28
12 0.58
15 0.91
16 0.57
17 0.06
2 -0.57
3 -0.9
33 0.37
4 -0.9
5 -0.57
6 -0.59
7 -0.65
8 0.44
9 0.23

> <PUBCHEM_EFFECTIVE_ROTOR_COUNT>
9.8

> <PUBCHEM_PHARMACOPHORE_FEATURES>
12
1 2 acceptor
1 23 hydrophobe
1 3 acceptor
1 4 acceptor
1 5 acceptor
1 7 donor
3 17 18 19 hydrophobe
3 20 21 22 hydrophobe
3 3 4 15 anion
3 9 13 14 hydrophobe
4 6 8 11 12 rings
7 1 6 8 9 10 11 12 rings

> <PUBCHEM_HEAVY_ATOM_COUNT>
23

> <PUBCHEM_ATOM_DEF_STEREO_COUNT>
3

> <PUBCHEM_ATOM_UDEF_STEREO_COUNT>
0

> <PUBCHEM_BOND_DEF_STEREO_COUNT>
0

> <PUBCHEM_BOND_UDEF_STEREO_COUNT>
0

> <PUBCHEM_ISOTOPIC_ATOM_COUNT>
0

> <PUBCHEM_COMPONENT_COUNT>
1

> <PUBCHEM_CACTVS_TAUTO_COUNT>
3

> <PUBCHEM_CONFORMER_ID>
061C420000000001

> <PUBCHEM_MMFF94_ENERGY>
43.0923

> <PUBCHEM_FEATURE_SELFOVERLAP>
64.886

> <PUBCHEM_SHAPE_FINGERPRINT>
10498660 4 18342458162169588712
10871710 139 18122062267373003286
11135609 187 18338507638598752977
12633257 1 17750785563527998066
12788726 201 17982156022841356358
13583140 156 17752491949739744675
14117953 113 18336816491052136452
14142880 1 17970339532658975838
14251764 38 18047745993047741797
14251764 75 18339655502520084712
14468879 13 18186239541125815584
14787075 74 18411130325994697131
15575132 122 18190748733037832452
20715895 44 17832688090154795557
21475661 188 17898840249952033541
21864079 5 18410291449998482370
23227448 37 18409159987660747855
23559900 14 18050283665953181283
44154327 71 18341607071255196986
469060 322 16809827090300845938
474 4 18266732481114045674
5048184 11 18337673122105074504
6034566 193 18264784305333986104
7288768 16 17750232694062715298
9981440 41 18263354953740713154

> <PUBCHEM_SHAPE_MULTIPOLES>
443.74
8.66
4.5
1.59
7.59
0.58
0.08
-10.04
1.2
3.97
0.54
-0.65
-0.05
-1.26

> <PUBCHEM_SHAPE_SELFOVERLAP>
883.153

> <PUBCHEM_SHAPE_VOLUME>
264.9

> <PUBCHEM_COORDINATE_TYPE>
2
5
10

$$$$
