102572963
  -OEChem-03292013293D

 51 54  0     1  0  0  0  0  0999 V2000
   -2.6683   -0.9166   -1.5995 O   0  0  0  0  0  0  0  0  0  0  0  0
   -0.9813   -2.3799    1.3078 O   0  0  0  0  0  0  0  0  0  0  0  0
    1.6764   -2.7331    0.0745 O   0  0  0  0  0  0  0  0  0  0  0  0
   -1.1997    3.0743   -0.1649 O   0  0  0  0  0  0  0  0  0  0  0  0
    4.1413   -1.8804   -1.4604 O   0  0  0  0  0  0  0  0  0  0  0  0
   -2.6754    1.2963   -2.2454 O   0  0  0  0  0  0  0  0  0  0  0  0
   -0.3242   -0.3736    0.0452 C   0  0  1  0  0  0  0  0  0  0  0  0
   -1.1895    0.7928    0.6635 C   0  0  2  0  0  0  0  0  0  0  0  0
    1.2229   -0.3349    0.3855 C   0  0  2  0  0  0  0  0  0  0  0  0
   -2.6596    0.6825    0.1270 C   0  0  2  0  0  0  0  0  0  0  0  0
   -1.0822   -1.7390    0.0454 C   0  0  2  0  0  0  0  0  0  0  0  0
    1.7393    1.0603   -0.1599 C   0  0  1  0  0  0  0  0  0  0  0  0
   -3.3093   -0.6213    0.5986 C   0  0  2  0  0  0  0  0  0  0  0  0
   -2.5790   -1.5822   -0.3235 C   0  0  1  0  0  0  0  0  0  0  0  0
    2.0097   -1.4306   -0.4136 C   0  0  1  0  0  0  0  0  0  0  0  0
   -0.5389    2.1157    0.2373 C   0  0  0  0  0  0  0  0  0  0  0  0
    0.9653    2.2482    0.4380 C   0  0  0  0  0  0  0  0  0  0  0  0
   -1.2673    0.8286    2.2073 C   0  0  0  0  0  0  0  0  0  0  0  0
    1.5253   -0.5147    1.8931 C   0  0  0  0  0  0  0  0  0  0  0  0
   -2.6820    0.4427   -1.3737 C   0  0  0  0  0  0  0  0  0  0  0  0
    3.2549    1.1999   -0.1135 C   0  0  0  0  0  0  0  0  0  0  0  0
    3.5408   -1.2911   -0.3049 C   0  0  2  0  0  0  0  0  0  0  0  0
   -4.8274   -0.6324    0.3915 C   0  0  0  0  0  0  0  0  0  0  0  0
    4.0449    0.1155   -0.1976 C   0  0  0  0  0  0  0  0  0  0  0  0
    3.8636    2.5731   -0.0578 C   0  0  0  0  0  0  0  0  0  0  0  0
   -0.3041   -0.1414   -1.0334 H   0  0  0  0  0  0  0  0  0  0  0  0
   -3.2735    1.5538    0.3787 H   0  0  0  0  0  0  0  0  0  0  0  0
   -0.6260   -2.3917   -0.7072 H   0  0  0  0  0  0  0  0  0  0  0  0
    1.5064    1.0867   -1.2377 H   0  0  0  0  0  0  0  0  0  0  0  0
   -3.1300   -0.8510    1.6522 H   0  0  0  0  0  0  0  0  0  0  0  0
   -3.0798   -2.5548   -0.3751 H   0  0  0  0  0  0  0  0  0  0  0  0
    1.7074   -1.4026   -1.4689 H   0  0  0  0  0  0  0  0  0  0  0  0
    1.2614    3.1767   -0.0657 H   0  0  0  0  0  0  0  0  0  0  0  0
    1.1777    2.3856    1.5020 H   0  0  0  0  0  0  0  0  0  0  0  0
   -1.2422   -0.1701    2.6505 H   0  0  0  0  0  0  0  0  0  0  0  0
   -2.1972    1.3084    2.5387 H   0  0  0  0  0  0  0  0  0  0  0  0
   -0.4759    1.4229    2.6698 H   0  0  0  0  0  0  0  0  0  0  0  0
    0.9929   -1.3684    2.3186 H   0  0  0  0  0  0  0  0  0  0  0  0
    1.2799    0.3646    2.4858 H   0  0  0  0  0  0  0  0  0  0  0  0
    2.5878   -0.6916    2.0866 H   0  0  0  0  0  0  0  0  0  0  0  0
    3.9080   -1.8621    0.5567 H   0  0  0  0  0  0  0  0  0  0  0  0
   -5.1189   -0.4387   -0.6457 H   0  0  0  0  0  0  0  0  0  0  0  0
   -5.3012    0.1293    1.0197 H   0  0  0  0  0  0  0  0  0  0  0  0
   -5.2404   -1.6064    0.6747 H   0  0  0  0  0  0  0  0  0  0  0  0
    5.1255    0.2393   -0.1790 H   0  0  0  0  0  0  0  0  0  0  0  0
   -1.4523   -3.2283    1.2467 H   0  0  0  0  0  0  0  0  0  0  0  0
    2.1562   -3.3803   -0.4702 H   0  0  0  0  0  0  0  0  0  0  0  0
    4.9572    2.5438   -0.1149 H   0  0  0  0  0  0  0  0  0  0  0  0
    3.6015    3.0737    0.8795 H   0  0  0  0  0  0  0  0  0  0  0  0
    3.5114    3.1808   -0.8975 H   0  0  0  0  0  0  0  0  0  0  0  0
    5.1058   -1.8698   -1.3345 H   0  0  0  0  0  0  0  0  0  0  0  0
  1 14  1  0  0  0  0
  1 20  1  0  0  0  0
  2 11  1  0  0  0  0
  2 46  1  0  0  0  0
  3 15  1  0  0  0  0
  3 47  1  0  0  0  0
  4 16  2  0  0  0  0
  5 22  1  0  0  0  0
  5 51  1  0  0  0  0
  6 20  2  0  0  0  0
  7  8  1  0  0  0  0
  7  9  1  0  0  0  0
  7 11  1  0  0  0  0
  7 26  1  0  0  0  0
  8 10  1  0  0  0  0
  8 16  1  0  0  0  0
  8 18  1  0  0  0  0
  9 12  1  0  0  0  0
  9 15  1  0  0  0  0
  9 19  1  0  0  0  0
 10 13  1  0  0  0  0
 10 20  1  0  0  0  0
 10 27  1  0  0  0  0
 11 14  1  0  0  0  0
 11 28  1  0  0  0  0
 12 17  1  0  0  0  0
 12 21  1  0  0  0  0
 12 29  1  0  0  0  0
 13 14  1  0  0  0  0
 13 23  1  0  0  0  0
 13 30  1  0  0  0  0
 14 31  1  0  0  0  0
 15 22  1  0  0  0  0
 15 32  1  0  0  0  0
 16 17  1  0  0  0  0
 17 33  1  0  0  0  0
 17 34  1  0  0  0  0
 18 35  1  0  0  0  0
 18 36  1  0  0  0  0
 18 37  1  0  0  0  0
 19 38  1  0  0  0  0
 19 39  1  0  0  0  0
 19 40  1  0  0  0  0
 21 24  2  0  0  0  0
 21 25  1  0  0  0  0
 22 24  1  0  0  0  0
 22 41  1  0  0  0  0
 23 42  1  0  0  0  0
 23 43  1  0  0  0  0
 23 44  1  0  0  0  0
 24 45  1  0  0  0  0
 25 48  1  0  0  0  0
 25 49  1  0  0  0  0
 25 50  1  0  0  0  0
M  END
> <PUBCHEM_COMPOUND_CID>
102572963

> <PUBCHEM_CONFORMER_RMSD>
0.6

> <PUBCHEM_CONFORMER_DIVERSEORDER>
1

> <PUBCHEM_MMFF94_PARTIAL_CHARGES>
23
1 -0.43
10 0.06
11 0.28
12 0.14
14 0.28
15 0.28
16 0.45
17 0.06
2 -0.68
20 0.66
21 -0.28
22 0.42
24 -0.29
25 0.14
3 -0.68
4 -0.57
45 0.15
46 0.4
47 0.4
5 -0.68
51 0.4
6 -0.57
8 0.06

> <PUBCHEM_EFFECTIVE_ROTOR_COUNT>
1.2

> <PUBCHEM_PHARMACOPHORE_FEATURES>
11
1 2 acceptor
1 2 donor
1 3 acceptor
1 3 donor
1 4 acceptor
1 5 acceptor
1 5 donor
1 6 acceptor
6 7 8 9 12 16 17 rings
6 9 12 15 21 22 24 rings
8 1 7 8 10 11 13 14 20 rings

> <PUBCHEM_HEAVY_ATOM_COUNT>
25

> <PUBCHEM_ATOM_DEF_STEREO_COUNT>
9

> <PUBCHEM_ATOM_UDEF_STEREO_COUNT>
1

> <PUBCHEM_BOND_DEF_STEREO_COUNT>
0

> <PUBCHEM_BOND_UDEF_STEREO_COUNT>
0

> <PUBCHEM_ISOTOPIC_ATOM_COUNT>
0

> <PUBCHEM_COMPONENT_COUNT>
1

> <PUBCHEM_CACTVS_TAUTO_COUNT>
4

> <PUBCHEM_CONFORMER_ID>
061D23A300000001

> <PUBCHEM_MMFF94_ENERGY>
98.4353

> <PUBCHEM_FEATURE_SELFOVERLAP>
55.845

> <PUBCHEM_SHAPE_FINGERPRINT>
10863032 1 18200881793359860177
10967382 1 18339365283136742720
1100329 8 17328302446396278282
11578080 2 17386827457958251764
11640471 11 13840803497970255389
12403814 3 17822848809805748805
12553582 1 18341887489522110176
13140716 1 18123182678380350160
13224815 77 18060129985805132898
13544592 271 18121499317593525592
13583140 156 16805328838055581800
13965767 371 12976930371479464687
14223421 5 18412546492233018052
14790565 3 18339649923863858745
15196674 1 18412268349939705257
15230672 131 14516352950913716035
16945 1 18200576082120179033
17349148 13 18341040883450108184
17492 54 17828756579806840020
18186145 218 18260265231123375734
19862831 5 18114179705388959910
200 152 17989204849846443886
21267235 1 18341626913993736670
21634736 98 18341897351299914838
21731516 1 16917058979811732816
22182313 1 18261660537275804677
2334 1 18267029551491047722
23557571 272 17603302661266553901
23558518 356 18263088734255884512
23559900 14 18341325609769893642
23566358 2 18410291411064306036
238 59 17687982743311968023
2748010 2 17978787140582795664
3380486 145 17973464370232267803
34934 24 18340486797613093696
350125 39 18270410386247824336
7832392 63 18051981316401440048
9709674 26 18412832391194744846

> <PUBCHEM_SHAPE_MULTIPOLES>
479.27
7.14
2.81
1.46
1.18
0.44
0.07
-0.84
-1.66
1.41
-0.13
-0.77
0.03
0.57

> <PUBCHEM_SHAPE_SELFOVERLAP>
1041.581

> <PUBCHEM_SHAPE_VOLUME>
254.3

> <PUBCHEM_COORDINATE_TYPE>
2
5
10

$$$$
