10251859
  -OEChem-03292013303D

 56 56  0     1  0  0  0  0  0999 V2000
   -0.0422   -1.2177    1.0466 O   0  0  0  0  0  0  0  0  0  0  0  0
   -3.1932   -0.1665   -0.5154 O   0  0  0  0  0  0  0  0  0  0  0  0
   -1.8826    1.8904    0.6494 O   0  0  0  0  0  0  0  0  0  0  0  0
   -0.0332   -1.7102   -1.5868 O   0  0  0  0  0  0  0  0  0  0  0  0
    3.4513    0.3254    1.3234 O   0  0  0  0  0  0  0  0  0  0  0  0
   -1.2728   -2.6647    2.3613 O   0  0  0  0  0  0  0  0  0  0  0  0
   -4.2875   -1.6118    0.9166 O   0  0  0  0  0  0  0  0  0  0  0  0
   -0.7625    3.3580   -0.7393 O   0  0  0  0  0  0  0  0  0  0  0  0
    1.0836   -0.3284   -3.0634 O   0  0  0  0  0  0  0  0  0  0  0  0
    5.3306   -0.8574    0.8640 O   0  0  0  0  0  0  0  0  0  0  0  0
   -1.2007   -0.3996    0.8533 C   0  0  2  0  0  0  0  0  0  0  0  0
   -1.9893   -0.9198   -0.3677 C   0  0  2  0  0  0  0  0  0  0  0  0
   -0.7189    1.0583    0.7165 C   0  0  2  0  0  0  0  0  0  0  0  0
   -1.1966   -0.8942   -1.6885 C   0  0  2  0  0  0  0  0  0  0  0  0
    0.1125    1.5223    1.8787 C   0  0  0  0  0  0  0  0  0  0  0  0
   -2.0297   -1.3974   -2.8636 C   0  0  0  0  0  0  0  0  0  0  0  0
    2.2832    0.9663    0.7650 C   0  0  1  0  0  0  0  0  0  0  0  0
    1.4527    1.4794    1.8959 C   0  0  0  0  0  0  0  0  0  0  0  0
    2.6908    2.0856   -0.1847 C   0  0  0  0  0  0  0  0  0  0  0  0
   -0.2277   -2.3209    1.8258 C   0  0  0  0  0  0  0  0  0  0  0  0
   -4.2677   -0.6295    0.1875 C   0  0  0  0  0  0  0  0  0  0  0  0
   -1.7575    3.0099   -0.1180 C   0  0  0  0  0  0  0  0  0  0  0  0
    1.0391   -1.3083   -2.3320 C   0  0  0  0  0  0  0  0  0  0  0  0
    3.7049    1.5632   -1.1452 C   0  0  0  0  0  0  0  0  0  0  0  0
    1.0615   -3.0768    1.9389 C   0  0  0  0  0  0  0  0  0  0  0  0
   -5.4521    0.2544   -0.0621 C   0  0  0  0  0  0  0  0  0  0  0  0
    4.4634   -0.0684    0.5049 C   0  0  0  0  0  0  0  0  0  0  0  0
    4.5018    0.5353   -0.8394 C   0  0  0  0  0  0  0  0  0  0  0  0
   -3.0442    3.7779   -0.0956 C   0  0  0  0  0  0  0  0  0  0  0  0
    2.1828   -2.2547   -2.1263 C   0  0  0  0  0  0  0  0  0  0  0  0
   -1.8560   -0.4357    1.7356 H   0  0  0  0  0  0  0  0  0  0  0  0
   -2.2222   -1.9789   -0.1867 H   0  0  0  0  0  0  0  0  0  0  0  0
   -0.1450    1.1497   -0.2094 H   0  0  0  0  0  0  0  0  0  0  0  0
   -0.9364    0.1465   -1.9156 H   0  0  0  0  0  0  0  0  0  0  0  0
   -0.4060    1.8965    2.7579 H   0  0  0  0  0  0  0  0  0  0  0  0
   -2.9223   -0.7844   -3.0209 H   0  0  0  0  0  0  0  0  0  0  0  0
   -1.4456   -1.3894   -3.7901 H   0  0  0  0  0  0  0  0  0  0  0  0
   -2.3429   -2.4348   -2.7009 H   0  0  0  0  0  0  0  0  0  0  0  0
    1.7628    0.1824    0.2084 H   0  0  0  0  0  0  0  0  0  0  0  0
    1.9691    1.8513    2.7776 H   0  0  0  0  0  0  0  0  0  0  0  0
    3.1287    2.9355    0.3531 H   0  0  0  0  0  0  0  0  0  0  0  0
    1.8205    2.4551   -0.7365 H   0  0  0  0  0  0  0  0  0  0  0  0
    3.7893    2.0389   -2.1172 H   0  0  0  0  0  0  0  0  0  0  0  0
    1.8487   -2.4162    2.3118 H   0  0  0  0  0  0  0  0  0  0  0  0
    0.9383   -3.9002    2.6482 H   0  0  0  0  0  0  0  0  0  0  0  0
    1.3343   -3.4882    0.9642 H   0  0  0  0  0  0  0  0  0  0  0  0
   -5.6367    0.3354   -1.1364 H   0  0  0  0  0  0  0  0  0  0  0  0
   -6.3373   -0.1851    0.4065 H   0  0  0  0  0  0  0  0  0  0  0  0
   -5.2746    1.2403    0.3738 H   0  0  0  0  0  0  0  0  0  0  0  0
    5.2411    0.1694   -1.5422 H   0  0  0  0  0  0  0  0  0  0  0  0
   -3.8235    3.2068   -0.6056 H   0  0  0  0  0  0  0  0  0  0  0  0
   -2.9067    4.7302   -0.6158 H   0  0  0  0  0  0  0  0  0  0  0  0
   -3.3343    3.9897    0.9368 H   0  0  0  0  0  0  0  0  0  0  0  0
    2.4927   -2.2377   -1.0787 H   0  0  0  0  0  0  0  0  0  0  0  0
    3.0281   -1.9425   -2.7462 H   0  0  0  0  0  0  0  0  0  0  0  0
    1.8873   -3.2637   -2.4242 H   0  0  0  0  0  0  0  0  0  0  0  0
  1 11  1  0  0  0  0
  1 20  1  0  0  0  0
  2 12  1  0  0  0  0
  2 21  1  0  0  0  0
  3 13  1  0  0  0  0
  3 22  1  0  0  0  0
  4 14  1  0  0  0  0
  4 23  1  0  0  0  0
  5 17  1  0  0  0  0
  5 27  1  0  0  0  0
  6 20  2  0  0  0  0
  7 21  2  0  0  0  0
  8 22  2  0  0  0  0
  9 23  2  0  0  0  0
 10 27  2  0  0  0  0
 11 12  1  0  0  0  0
 11 13  1  0  0  0  0
 11 31  1  0  0  0  0
 12 14  1  0  0  0  0
 12 32  1  0  0  0  0
 13 15  1  0  0  0  0
 13 33  1  0  0  0  0
 14 16  1  0  0  0  0
 14 34  1  0  0  0  0
 15 18  2  0  0  0  0
 15 35  1  0  0  0  0
 16 36  1  0  0  0  0
 16 37  1  0  0  0  0
 16 38  1  0  0  0  0
 17 18  1  0  0  0  0
 17 19  1  0  0  0  0
 17 39  1  0  0  0  0
 18 40  1  0  0  0  0
 19 24  1  0  0  0  0
 19 41  1  0  0  0  0
 19 42  1  0  0  0  0
 20 25  1  0  0  0  0
 21 26  1  0  0  0  0
 22 29  1  0  0  0  0
 23 30  1  0  0  0  0
 24 28  2  0  0  0  0
 24 43  1  0  0  0  0
 25 44  1  0  0  0  0
 25 45  1  0  0  0  0
 25 46  1  0  0  0  0
 26 47  1  0  0  0  0
 26 48  1  0  0  0  0
 26 49  1  0  0  0  0
 27 28  1  0  0  0  0
 28 50  1  0  0  0  0
 29 51  1  0  0  0  0
 29 52  1  0  0  0  0
 29 53  1  0  0  0  0
 30 54  1  0  0  0  0
 30 55  1  0  0  0  0
 30 56  1  0  0  0  0
M  END
> <PUBCHEM_COMPOUND_CID>
10251859

> <PUBCHEM_CONFORMER_RMSD>
1.2

> <PUBCHEM_CONFORMER_DIVERSEORDER>
1
38
14
57
17
65
24
9
54
30
50
48
64
12
59
15
69
60
42
27
34
19
29
39
28
46
56
45
33
68
13
26
37
55
3
44
16
52
18
63
23
32
70
11
67
47
31
6
40
35
8
58
21
10
51
7
43
66
61
36
49
53
25
20
4
2
22
41
62
5

> <PUBCHEM_MMFF94_PARTIAL_CHARGES>
33
1 -0.43
10 -0.57
11 0.28
12 0.28
13 0.42
14 0.28
15 -0.29
17 0.42
18 -0.29
19 0.14
2 -0.43
20 0.66
21 0.66
22 0.66
23 0.66
24 -0.29
25 0.06
26 0.06
27 0.71
28 -0.14
29 0.06
3 -0.43
30 0.06
35 0.15
4 -0.43
40 0.15
43 0.15
5 -0.43
50 0.15
6 -0.57
7 -0.57
8 -0.57
9 -0.57

> <PUBCHEM_EFFECTIVE_ROTOR_COUNT>
13.6

> <PUBCHEM_PHARMACOPHORE_FEATURES>
6
1 10 acceptor
1 6 acceptor
1 7 acceptor
1 8 acceptor
1 9 acceptor
6 5 17 19 24 27 28 rings

> <PUBCHEM_HEAVY_ATOM_COUNT>
30

> <PUBCHEM_ATOM_DEF_STEREO_COUNT>
5

> <PUBCHEM_ATOM_UDEF_STEREO_COUNT>
0

> <PUBCHEM_BOND_DEF_STEREO_COUNT>
1

> <PUBCHEM_BOND_UDEF_STEREO_COUNT>
0

> <PUBCHEM_ISOTOPIC_ATOM_COUNT>
0

> <PUBCHEM_COMPONENT_COUNT>
1

> <PUBCHEM_CACTVS_TAUTO_COUNT>
1

> <PUBCHEM_CONFORMER_ID>
009C6E5300000001

> <PUBCHEM_MMFF94_ENERGY>
51.6736

> <PUBCHEM_FEATURE_SELFOVERLAP>
30.45

> <PUBCHEM_SHAPE_FINGERPRINT>
107951 10 18190758457086221242
11578080 2 17170943752923432599
12422481 6 18056786289594181257
12592029 89 17775014530211016879
12788726 201 18337120037285571192
13140716 1 17344620667810151163
14251751 93 18339918212836893688
144659 39 17985533464604642945
20600515 1 17976011883082180777
20691752 17 18118148920753394177
20905425 154 18197773310737351216
21330990 113 17846787325225906041
21857420 4 15616323762326412279
22121540 332 13577598491498278303
22182313 1 17845380950795296621
23419403 2 16341155512975140143
23566358 2 18057324989993424313
35225 105 18114740568125873798
59755656 215 18060140890996551649

> <PUBCHEM_SHAPE_MULTIPOLES>
558.69
8.01
3.69
2.65
1
1.79
-0.8
1.04
-0.03
-1.56
0.27
0.62
-2.13
0.33

> <PUBCHEM_SHAPE_SELFOVERLAP>
1130.253

> <PUBCHEM_SHAPE_VOLUME>
322.4

> <PUBCHEM_COORDINATE_TYPE>
2
5
10

$$$$
