10254661
  -OEChem-03292013303D

 61 63  0     1  0  0  0  0  0999 V2000
    4.3098    0.9095    1.4895 P   0  0  1  0  0  0  0  0  0  0  0  0
    4.8789    0.0931    0.2187 O   0  0  0  0  0  0  0  0  0  0  0  0
    1.1996   -1.3720   -1.3611 O   0  0  0  0  0  0  0  0  0  0  0  0
    5.0405    0.2192    2.7582 O   0  0  0  0  0  0  0  0  0  0  0  0
    4.4306    2.4040    1.4093 O   0  0  0  0  0  0  0  0  0  0  0  0
   -3.6202   -3.6319   -0.3284 O   0  0  0  0  0  0  0  0  0  0  0  0
   -2.5113   -2.8521    1.4928 O   0  0  0  0  0  0  0  0  0  0  0  0
    2.0542    0.8208    0.3668 N   0  0  0  0  0  0  0  0  0  0  0  0
    0.1286   -1.9546    0.6116 N   0  0  0  0  0  0  0  0  0  0  0  0
    0.6664    0.3780    0.2276 C   0  0  1  0  0  0  0  0  0  0  0  0
   -0.0724    1.2799   -0.7718 C   0  0  0  0  0  0  0  0  0  0  0  0
   -1.5737    1.2232   -0.6137 C   0  0  0  0  0  0  0  0  0  0  0  0
    2.6298    0.3121    1.5989 C   0  0  0  0  0  0  0  0  0  0  0  0
    0.7125   -1.0617   -0.2751 C   0  0  0  0  0  0  0  0  0  0  0  0
   -2.3156    0.2833   -1.3290 C   0  0  0  0  0  0  0  0  0  0  0  0
   -2.2180    2.1109    0.2482 C   0  0  0  0  0  0  0  0  0  0  0  0
   -4.3460    1.1183   -0.3208 C   0  0  0  0  0  0  0  0  0  0  0  0
    0.0384   -3.3673    0.3301 C   0  0  0  0  0  0  0  0  0  0  0  0
   -3.7016    0.2308   -1.1826 C   0  0  0  0  0  0  0  0  0  0  0  0
   -3.6043    2.0585    0.3946 C   0  0  0  0  0  0  0  0  0  0  0  0
   -5.7836    1.0638   -0.1692 C   0  0  0  0  0  0  0  0  0  0  0  0
   -1.2492   -3.7242   -0.4011 C   0  0  0  0  0  0  0  0  0  0  0  0
    6.1469    0.1960   -0.2853 C   0  0  0  0  0  0  0  0  0  0  0  0
   -6.6022    1.8259   -1.0027 C   0  0  0  0  0  0  0  0  0  0  0  0
   -6.3515    0.2487    0.8102 C   0  0  0  0  0  0  0  0  0  0  0  0
   -2.4928   -3.3505    0.3762 C   0  0  0  0  0  0  0  0  0  0  0  0
   -7.9884    1.7732   -0.8569 C   0  0  0  0  0  0  0  0  0  0  0  0
   -7.7377    0.1959    0.9559 C   0  0  0  0  0  0  0  0  0  0  0  0
    7.0654    1.0620    0.3079 C   0  0  0  0  0  0  0  0  0  0  0  0
    6.5208   -0.5650   -1.3930 C   0  0  0  0  0  0  0  0  0  0  0  0
   -8.5561    0.9582    0.1223 C   0  0  0  0  0  0  0  0  0  0  0  0
    8.3577    1.1673   -0.2065 C   0  0  0  0  0  0  0  0  0  0  0  0
    7.8131   -0.4598   -1.9073 C   0  0  0  0  0  0  0  0  0  0  0  0
    8.7314    0.4064   -1.3140 C   0  0  0  0  0  0  0  0  0  0  0  0
    0.1578    0.4420    1.1984 H   0  0  0  0  0  0  0  0  0  0  0  0
    0.1946    1.0340   -1.8084 H   0  0  0  0  0  0  0  0  0  0  0  0
    0.2303    2.3281   -0.6388 H   0  0  0  0  0  0  0  0  0  0  0  0
    2.0867    1.8401    0.3914 H   0  0  0  0  0  0  0  0  0  0  0  0
    2.6309   -0.7807    1.6475 H   0  0  0  0  0  0  0  0  0  0  0  0
    2.1360    0.7185    2.4869 H   0  0  0  0  0  0  0  0  0  0  0  0
   -1.8259   -0.4142   -2.0034 H   0  0  0  0  0  0  0  0  0  0  0  0
   -1.6509    2.8459    0.8130 H   0  0  0  0  0  0  0  0  0  0  0  0
   -0.2617   -1.6183    1.4867 H   0  0  0  0  0  0  0  0  0  0  0  0
    0.9038   -3.6750   -0.2666 H   0  0  0  0  0  0  0  0  0  0  0  0
    0.0884   -3.8868    1.2932 H   0  0  0  0  0  0  0  0  0  0  0  0
   -4.2644   -0.5093   -1.7467 H   0  0  0  0  0  0  0  0  0  0  0  0
   -4.0908    2.7572    1.0711 H   0  0  0  0  0  0  0  0  0  0  0  0
   -1.2857   -3.1996   -1.3628 H   0  0  0  0  0  0  0  0  0  0  0  0
   -1.2739   -4.8037   -0.5841 H   0  0  0  0  0  0  0  0  0  0  0  0
    4.5893   -0.5057    3.2411 H   0  0  0  0  0  0  0  0  0  0  0  0
   -6.1761    2.4664   -1.7713 H   0  0  0  0  0  0  0  0  0  0  0  0
   -5.7279   -0.3526    1.4678 H   0  0  0  0  0  0  0  0  0  0  0  0
   -8.6258    2.3667   -1.5060 H   0  0  0  0  0  0  0  0  0  0  0  0
   -8.1800   -0.4388    1.7181 H   0  0  0  0  0  0  0  0  0  0  0  0
    6.8254    1.6620    1.1780 H   0  0  0  0  0  0  0  0  0  0  0  0
    5.8093   -1.2412   -1.8592 H   0  0  0  0  0  0  0  0  0  0  0  0
   -9.6355    0.9171    0.2357 H   0  0  0  0  0  0  0  0  0  0  0  0
    9.0744    1.8391    0.2570 H   0  0  0  0  0  0  0  0  0  0  0  0
    8.1043   -1.0524   -2.7696 H   0  0  0  0  0  0  0  0  0  0  0  0
    9.7379    0.4876   -1.7141 H   0  0  0  0  0  0  0  0  0  0  0  0
   -4.4308   -3.3847    0.1657 H   0  0  0  0  0  0  0  0  0  0  0  0
  1  2  1  0  0  0  0
  1  4  1  0  0  0  0
  1  5  2  0  0  0  0
  1 13  1  0  0  0  0
  2 23  1  0  0  0  0
  3 14  2  0  0  0  0
  4 50  1  0  0  0  0
  6 26  1  0  0  0  0
  6 61  1  0  0  0  0
  7 26  2  0  0  0  0
  8 10  1  0  0  0  0
  8 13  1  0  0  0  0
  8 38  1  0  0  0  0
  9 14  1  0  0  0  0
  9 18  1  0  0  0  0
  9 43  1  0  0  0  0
 10 11  1  0  0  0  0
 10 14  1  0  0  0  0
 10 35  1  0  0  0  0
 11 12  1  0  0  0  0
 11 36  1  0  0  0  0
 11 37  1  0  0  0  0
 12 15  2  0  0  0  0
 12 16  1  0  0  0  0
 13 39  1  0  0  0  0
 13 40  1  0  0  0  0
 15 19  1  0  0  0  0
 15 41  1  0  0  0  0
 16 20  2  0  0  0  0
 16 42  1  0  0  0  0
 17 19  2  0  0  0  0
 17 20  1  0  0  0  0
 17 21  1  0  0  0  0
 18 22  1  0  0  0  0
 18 44  1  0  0  0  0
 18 45  1  0  0  0  0
 19 46  1  0  0  0  0
 20 47  1  0  0  0  0
 21 24  2  0  0  0  0
 21 25  1  0  0  0  0
 22 26  1  0  0  0  0
 22 48  1  0  0  0  0
 22 49  1  0  0  0  0
 23 29  2  0  0  0  0
 23 30  1  0  0  0  0
 24 27  1  0  0  0  0
 24 51  1  0  0  0  0
 25 28  2  0  0  0  0
 25 52  1  0  0  0  0
 27 31  2  0  0  0  0
 27 53  1  0  0  0  0
 28 31  1  0  0  0  0
 28 54  1  0  0  0  0
 29 32  1  0  0  0  0
 29 55  1  0  0  0  0
 30 33  2  0  0  0  0
 30 56  1  0  0  0  0
 31 57  1  0  0  0  0
 32 34  2  0  0  0  0
 32 58  1  0  0  0  0
 33 34  1  0  0  0  0
 33 59  1  0  0  0  0
 34 60  1  0  0  0  0
M  END
> <PUBCHEM_COMPOUND_CID>
10254661

> <PUBCHEM_CONFORMER_RMSD>
1.2

> <PUBCHEM_CONFORMER_DIVERSEORDER>
1
28
14
31
17
21
32
18
22
29
30
6
4
24
27
16
9
15
23
20
26
8
12
5
11
19
2
10
3
25
7
13

> <PUBCHEM_MMFF94_PARTIAL_CHARGES>
50
1 1.24
10 0.33
11 0.14
12 -0.14
13 0.27
14 0.57
15 -0.15
16 -0.15
18 0.3
19 -0.15
2 -0.35
20 -0.15
22 0.06
23 0.08
24 -0.15
25 -0.15
26 0.66
27 -0.15
28 -0.15
29 -0.15
3 -0.57
30 -0.15
31 -0.15
32 -0.15
33 -0.15
34 -0.15
38 0.36
4 -0.77
41 0.15
42 0.15
43 0.37
46 0.15
47 0.15
5 -0.7
50 0.5
51 0.15
52 0.15
53 0.15
54 0.15
55 0.15
56 0.15
57 0.15
58 0.15
59 0.15
6 -0.65
60 0.15
61 0.5
7 -0.57
8 -0.9
9 -0.73

> <PUBCHEM_EFFECTIVE_ROTOR_COUNT>
13

> <PUBCHEM_PHARMACOPHORE_FEATURES>
12
1 3 acceptor
1 4 acceptor
1 5 acceptor
1 6 acceptor
1 7 acceptor
1 8 cation
1 8 donor
1 9 donor
3 6 7 26 anion
6 12 15 16 17 19 20 rings
6 21 24 25 27 28 31 rings
6 23 29 30 32 33 34 rings

> <PUBCHEM_HEAVY_ATOM_COUNT>
34

> <PUBCHEM_ATOM_DEF_STEREO_COUNT>
1

> <PUBCHEM_ATOM_UDEF_STEREO_COUNT>
0

> <PUBCHEM_BOND_DEF_STEREO_COUNT>
0

> <PUBCHEM_BOND_UDEF_STEREO_COUNT>
0

> <PUBCHEM_ISOTOPIC_ATOM_COUNT>
0

> <PUBCHEM_COMPONENT_COUNT>
1

> <PUBCHEM_CACTVS_TAUTO_COUNT>
2

> <PUBCHEM_CONFORMER_ID>
009C794500000001

> <PUBCHEM_MMFF94_ENERGY>
67.6202

> <PUBCHEM_FEATURE_SELFOVERLAP>
60.965

> <PUBCHEM_SHAPE_FINGERPRINT>
10 15 17968094209798436465
10674148 151 17060335206393104592
11136131 41 18042404643323312619
12202916 173 9079112263338393617
12522641 33 18335980875315550007
14028597 1 12607413156547267332
14068700 686 18119523237870120357
14117953 113 18407758132243044517
15183329 4 15410896262685640568
15328829 1 17240207655345241574
15361156 5 18131066091126575228
15849732 13 17967818244948502772
16992610 120 18260559909562810430
20105231 36 18343587334593805479
21033648 29 17988068007286142818
21360443 126 18408887343516508830
21814621 53 15912749700309178506
23559900 14 18271239526117440744
23576562 1 18115031934354414340
249057 3 18335142015814337980
25269216 80 17969237797082639862
3633792 109 15123504831491680858
4073 2 18342452699562135672
4340502 62 18411695466354623729
437795 51 18272654506570339719
5265222 85 18261395597616981501
5486654 2 18410569570315759913
6523845 18 18410007715679362444

> <PUBCHEM_SHAPE_MULTIPOLES>
658.38
26.07
3.34
1.58
15.93
4.81
-0.39
-14.24
5.04
-3.73
-0.35
2.25
-0.11
1.81

> <PUBCHEM_SHAPE_SELFOVERLAP>
1378.89

> <PUBCHEM_SHAPE_VOLUME>
371.1

> <PUBCHEM_COORDINATE_TYPE>
2
5
10

$$$$
