102588
  -OEChem-03292013323D

 60 63  0     1  0  0  0  0  0999 V2000
    5.2797   -0.7670    1.4446 S   0  0  0  0  0  0  0  0  0  0  0  0
    5.4915   -2.2521    0.0412 S   0  0  0  0  0  0  0  0  0  0  0  0
    3.5797    2.0287    1.4803 O   0  0  0  0  0  0  0  0  0  0  0  0
    1.2314   -2.6245   -1.7202 O   0  0  0  0  0  0  0  0  0  0  0  0
    2.4357    1.5975   -0.5284 N   0  0  0  0  0  0  0  0  0  0  0  0
    0.3681   -2.0210    0.3770 N   0  0  0  0  0  0  0  0  0  0  0  0
    5.3602    2.4564   -1.0640 N   0  0  0  0  0  0  0  0  0  0  0  0
    2.8445   -3.8214    0.6864 N   0  0  0  0  0  0  0  0  0  0  0  0
    4.8445    1.2462   -0.4178 C   0  0  1  0  0  0  0  0  0  0  0  0
    2.7355   -2.4591    0.1573 C   0  0  1  0  0  0  0  0  0  0  0  0
   -1.2232    2.0636   -0.8850 C   0  0  0  0  0  0  0  0  0  0  0  0
   -3.2496   -1.3023    0.8940 C   0  0  0  0  0  0  0  0  0  0  0  0
    1.1114    1.9091   -0.2182 C   0  0  0  0  0  0  0  0  0  0  0  0
   -1.0129   -1.8566    0.1140 C   0  0  0  0  0  0  0  0  0  0  0  0
   -1.5537    2.5386    0.4065 C   0  0  0  0  0  0  0  0  0  0  0  0
   -3.7536   -1.5326   -0.4082 C   0  0  0  0  0  0  0  0  0  0  0  0
    5.9044    0.6811    0.5331 C   0  0  0  0  0  0  0  0  0  0  0  0
    3.8949   -2.1888   -0.8070 C   0  0  0  0  0  0  0  0  0  0  0  0
    0.1141    1.7530   -1.1812 C   0  0  0  0  0  0  0  0  0  0  0  0
   -1.8767   -1.4684    1.1385 C   0  0  0  0  0  0  0  0  0  0  0  0
    3.5651    1.6817    0.3022 C   0  0  0  0  0  0  0  0  0  0  0  0
    1.3644   -2.3932   -0.5214 C   0  0  0  0  0  0  0  0  0  0  0  0
    0.7864    2.3764    1.0518 C   0  0  0  0  0  0  0  0  0  0  0  0
   -1.5086   -2.0833   -1.1665 C   0  0  0  0  0  0  0  0  0  0  0  0
   -0.5371    2.6893    1.3636 C   0  0  0  0  0  0  0  0  0  0  0  0
   -2.8697   -1.9227   -1.4275 C   0  0  0  0  0  0  0  0  0  0  0  0
   -2.2397    1.9123   -1.8421 C   0  0  0  0  0  0  0  0  0  0  0  0
   -4.1333   -0.9119    1.9134 C   0  0  0  0  0  0  0  0  0  0  0  0
   -2.8910    2.8491    0.7026 C   0  0  0  0  0  0  0  0  0  0  0  0
   -5.1266   -1.3666   -0.6526 C   0  0  0  0  0  0  0  0  0  0  0  0
   -3.5631    2.2256   -1.5307 C   0  0  0  0  0  0  0  0  0  0  0  0
   -5.4946   -0.7517    1.6527 C   0  0  0  0  0  0  0  0  0  0  0  0
   -3.8880    2.6933   -0.2608 C   0  0  0  0  0  0  0  0  0  0  0  0
   -5.9902   -0.9787    0.3723 C   0  0  0  0  0  0  0  0  0  0  0  0
    4.6229    0.5372   -1.2138 H   0  0  0  0  0  0  0  0  0  0  0  0
    2.7338   -1.7405    0.9825 H   0  0  0  0  0  0  0  0  0  0  0  0
    6.1766    1.4302    1.2864 H   0  0  0  0  0  0  0  0  0  0  0  0
    6.8269    0.4198    0.0021 H   0  0  0  0  0  0  0  0  0  0  0  0
    3.7466   -1.2478   -1.3358 H   0  0  0  0  0  0  0  0  0  0  0  0
    3.9186   -2.9563   -1.5909 H   0  0  0  0  0  0  0  0  0  0  0  0
    0.3763    1.3848   -2.1721 H   0  0  0  0  0  0  0  0  0  0  0  0
   -1.4799   -1.2913    2.1371 H   0  0  0  0  0  0  0  0  0  0  0  0
    2.5911    1.2737   -1.4806 H   0  0  0  0  0  0  0  0  0  0  0  0
    0.6426   -1.8489    1.3416 H   0  0  0  0  0  0  0  0  0  0  0  0
    1.5003    2.5262    1.8492 H   0  0  0  0  0  0  0  0  0  0  0  0
   -0.9054   -2.3870   -2.0101 H   0  0  0  0  0  0  0  0  0  0  0  0
   -0.7696    3.0531    2.3624 H   0  0  0  0  0  0  0  0  0  0  0  0
   -3.2363   -2.1043   -2.4358 H   0  0  0  0  0  0  0  0  0  0  0  0
   -2.0091    1.5462   -2.8405 H   0  0  0  0  0  0  0  0  0  0  0  0
   -3.7677   -0.7276    2.9215 H   0  0  0  0  0  0  0  0  0  0  0  0
   -3.1684    3.2143    1.6892 H   0  0  0  0  0  0  0  0  0  0  0  0
   -5.5357   -1.5373   -1.6462 H   0  0  0  0  0  0  0  0  0  0  0  0
    4.6989    2.7744   -1.7721 H   0  0  0  0  0  0  0  0  0  0  0  0
    6.2229    2.2372   -1.5608 H   0  0  0  0  0  0  0  0  0  0  0  0
    3.7427   -3.9319    1.1556 H   0  0  0  0  0  0  0  0  0  0  0  0
    2.1324   -3.9680    1.4013 H   0  0  0  0  0  0  0  0  0  0  0  0
   -4.3402    2.1017   -2.2792 H   0  0  0  0  0  0  0  0  0  0  0  0
   -6.1672   -0.4485    2.4498 H   0  0  0  0  0  0  0  0  0  0  0  0
   -4.9188    2.9344   -0.0182 H   0  0  0  0  0  0  0  0  0  0  0  0
   -7.0498   -0.8528    0.1697 H   0  0  0  0  0  0  0  0  0  0  0  0
  1  2  1  0  0  0  0
  1 17  1  0  0  0  0
  2 18  1  0  0  0  0
  3 21  2  0  0  0  0
  4 22  2  0  0  0  0
  5 13  1  0  0  0  0
  5 21  1  0  0  0  0
  5 43  1  0  0  0  0
  6 14  1  0  0  0  0
  6 22  1  0  0  0  0
  6 44  1  0  0  0  0
  7  9  1  0  0  0  0
  7 53  1  0  0  0  0
  7 54  1  0  0  0  0
  8 10  1  0  0  0  0
  8 55  1  0  0  0  0
  8 56  1  0  0  0  0
  9 17  1  0  0  0  0
  9 21  1  0  0  0  0
  9 35  1  0  0  0  0
 10 18  1  0  0  0  0
 10 22  1  0  0  0  0
 10 36  1  0  0  0  0
 11 15  1  0  0  0  0
 11 19  1  0  0  0  0
 11 27  2  0  0  0  0
 12 16  1  0  0  0  0
 12 20  1  0  0  0  0
 12 28  2  0  0  0  0
 13 19  2  0  0  0  0
 13 23  1  0  0  0  0
 14 20  2  0  0  0  0
 14 24  1  0  0  0  0
 15 25  1  0  0  0  0
 15 29  2  0  0  0  0
 16 26  1  0  0  0  0
 16 30  2  0  0  0  0
 17 37  1  0  0  0  0
 17 38  1  0  0  0  0
 18 39  1  0  0  0  0
 18 40  1  0  0  0  0
 19 41  1  0  0  0  0
 20 42  1  0  0  0  0
 23 25  2  0  0  0  0
 23 45  1  0  0  0  0
 24 26  2  0  0  0  0
 24 46  1  0  0  0  0
 25 47  1  0  0  0  0
 26 48  1  0  0  0  0
 27 31  1  0  0  0  0
 27 49  1  0  0  0  0
 28 32  1  0  0  0  0
 28 50  1  0  0  0  0
 29 33  1  0  0  0  0
 29 51  1  0  0  0  0
 30 34  1  0  0  0  0
 30 52  1  0  0  0  0
 31 33  2  0  0  0  0
 31 57  1  0  0  0  0
 32 34  2  0  0  0  0
 32 58  1  0  0  0  0
 33 59  1  0  0  0  0
 34 60  1  0  0  0  0
M  END
> <PUBCHEM_COMPOUND_CID>
102588

> <PUBCHEM_CONFORMER_RMSD>
1.6

> <PUBCHEM_CONFORMER_DIVERSEORDER>
1
22
2
86
42
30
18
12
7
77
16
20
41
17
74
10
72
53
57
67
3
8
47
82
50
60
85
84
21
43
19
51
52
28
76
25
29
4
9
36
62
48
66
14
32
26
38
54
49
27
64
83
70
34
81
69
44
75
39
68
5
35
6
23
59
46
78
37
63
71
33
56
79
15
45
55
80
65
31
11
61
24
40
58
73
13

> <PUBCHEM_MMFF94_PARTIAL_CHARGES>
50
1 -0.23
10 0.33
13 0.12
14 0.12
17 0.23
18 0.23
19 -0.15
2 -0.23
20 -0.15
21 0.57
22 0.57
23 -0.15
24 -0.15
25 -0.15
26 -0.15
27 -0.15
28 -0.15
29 -0.15
3 -0.57
30 -0.15
31 -0.15
32 -0.15
33 -0.15
34 -0.15
4 -0.57
41 0.15
42 0.15
43 0.37
44 0.37
45 0.15
46 0.15
47 0.15
48 0.15
49 0.15
5 -0.55
50 0.15
51 0.15
52 0.15
53 0.36
54 0.36
55 0.36
56 0.36
57 0.15
58 0.15
59 0.15
6 -0.55
60 0.15
7 -0.99
8 -0.99
9 0.33

> <PUBCHEM_EFFECTIVE_ROTOR_COUNT>
11

> <PUBCHEM_PHARMACOPHORE_FEATURES>
13
1 3 acceptor
1 4 acceptor
1 5 donor
1 6 donor
1 7 cation
1 7 donor
1 8 cation
1 8 donor
4 1 2 17 18 hydrophobe
6 11 13 15 19 23 25 rings
6 11 15 27 29 31 33 rings
6 12 14 16 20 24 26 rings
6 12 16 28 30 32 34 rings

> <PUBCHEM_HEAVY_ATOM_COUNT>
34

> <PUBCHEM_ATOM_DEF_STEREO_COUNT>
0

> <PUBCHEM_ATOM_UDEF_STEREO_COUNT>
2

> <PUBCHEM_BOND_DEF_STEREO_COUNT>
0

> <PUBCHEM_BOND_UDEF_STEREO_COUNT>
0

> <PUBCHEM_ISOTOPIC_ATOM_COUNT>
0

> <PUBCHEM_COMPONENT_COUNT>
1

> <PUBCHEM_CACTVS_TAUTO_COUNT>
3

> <PUBCHEM_CONFORMER_ID>
000190BC00000001

> <PUBCHEM_MMFF94_ENERGY>
84.3896

> <PUBCHEM_FEATURE_SELFOVERLAP>
66.024

> <PUBCHEM_SHAPE_FINGERPRINT>
10864689 126 17690285910723522878
1100329 8 18051130290048350401
11135609 12 18113341899061784669
11513181 2 18202005382738400335
12107698 1 18409166576378327242
12422481 6 18337686247461490377
12633257 1 17773049759183500593
12788726 201 18269005339516490316
13140716 1 18193563268267395237
13402501 40 18409166623163381747
13811026 1 18334016095429223203
14394314 77 18272092759234440577
14840074 17 18339647857319216982
15001296 14 18266737072813458162
15420108 30 17988652947129735247
15781502 13 15649615759330030531
15968369 153 18201428156165746380
20721686 56 18335704961994907899
20764821 26 18269263595593627990
3027735 51 18410291449428672841
338550 245 18407762530120405908
350125 39 18411420591935525472
373842 8 18338511929038408122
392239 28 18267874886453138690
4112364 45 17414749513386729625
460360 51 18335422314190957724
463206 1 18268989971653863930
469060 322 17096096766289250695
5081480 168 16771849649450458598
508706 21 18114180804610398287
5265222 85 18120381105694785700
56638632 10 17486751229103720128
59755656 215 18410577313761655053

> <PUBCHEM_SHAPE_MULTIPOLES>
675.74
12.9
4.65
1.63
6.89
0.28
0.04
-2.73
2.38
1.02
-0.37
-0.95
0.1
0.6

> <PUBCHEM_SHAPE_SELFOVERLAP>
1434.993

> <PUBCHEM_SHAPE_VOLUME>
377.6

> <PUBCHEM_COORDINATE_TYPE>
2
5
10

$$$$
