10252115
  -OEChem-03292013303D

 61 62  0     0  0  0  0  0  0999 V2000
   -3.0627   -0.3427    0.2560 O   0  0  0  0  0  0  0  0  0  0  0  0
    3.0675   -0.3444    0.2597 O   0  0  0  0  0  0  0  0  0  0  0  0
   -2.9952   -1.2934   -1.8537 O   0  0  0  0  0  0  0  0  0  0  0  0
    2.9908   -1.2779   -1.8574 O   0  0  0  0  0  0  0  0  0  0  0  0
   -0.0042    5.1006    0.2847 O   0  5  0  0  0  0  0  0  0  0  0  0
   -0.0014    4.0525   -1.6491 O   0  0  0  0  0  0  0  0  0  0  0  0
    0.0016   -3.4296    0.6870 N   0  0  0  0  0  0  0  0  0  0  0  0
   -0.0027    4.0463   -0.3948 N   0  3  0  0  0  0  0  0  0  0  0  0
   -0.0005   -0.8887   -0.5625 C   0  0  0  0  0  0  0  0  0  0  0  0
   -1.2768   -1.6832   -0.2685 C   0  0  0  0  0  0  0  0  0  0  0  0
    1.2794   -1.6810   -0.2678 C   0  0  0  0  0  0  0  0  0  0  0  0
   -0.0018    0.3919    0.2226 C   0  0  0  0  0  0  0  0  0  0  0  0
   -1.2269   -2.8814    0.3557 C   0  0  0  0  0  0  0  0  0  0  0  0
    1.2306   -2.8850    0.3468 C   0  0  0  0  0  0  0  0  0  0  0  0
   -2.5416   -1.0972   -0.7414 C   0  0  0  0  0  0  0  0  0  0  0  0
    2.5422   -1.0913   -0.7413 C   0  0  0  0  0  0  0  0  0  0  0  0
   -4.3045    0.2983   -0.0534 C   0  0  0  0  0  0  0  0  0  0  0  0
    4.3072    0.3003   -0.0504 C   0  0  0  0  0  0  0  0  0  0  0  0
   -0.0014    1.6091   -0.4478 C   0  0  0  0  0  0  0  0  0  0  0  0
   -2.4188   -3.7165    0.7383 C   0  0  0  0  0  0  0  0  0  0  0  0
    2.4215   -3.7259    0.7194 C   0  0  0  0  0  0  0  0  0  0  0  0
   -0.0023    0.3456    1.6115 C   0  0  0  0  0  0  0  0  0  0  0  0
   -5.3364   -0.7771   -0.3900 C   0  0  0  0  0  0  0  0  0  0  0  0
   -4.7347    1.0882    1.1808 C   0  0  0  0  0  0  0  0  0  0  0  0
   -4.0860    1.2345   -1.2412 C   0  0  0  0  0  0  0  0  0  0  0  0
    4.0857    1.2339   -1.2395 C   0  0  0  0  0  0  0  0  0  0  0  0
    4.7346    1.0931    1.1830 C   0  0  0  0  0  0  0  0  0  0  0  0
    5.3429   -0.7721   -0.3852 C   0  0  0  0  0  0  0  0  0  0  0  0
   -0.0016    2.7980    0.2816 C   0  0  0  0  0  0  0  0  0  0  0  0
   -0.0025    1.5344    2.3410 C   0  0  0  0  0  0  0  0  0  0  0  0
   -0.0022    2.7607    1.6760 C   0  0  0  0  0  0  0  0  0  0  0  0
   -0.0002   -0.6769   -1.6415 H   0  0  0  0  0  0  0  0  0  0  0  0
    0.0021   -4.3295    1.1540 H   0  0  0  0  0  0  0  0  0  0  0  0
   -0.0010    1.6145   -1.5350 H   0  0  0  0  0  0  0  0  0  0  0  0
   -2.3629   -4.6983    0.2560 H   0  0  0  0  0  0  0  0  0  0  0  0
   -3.3697   -3.2625    0.4479 H   0  0  0  0  0  0  0  0  0  0  0  0
   -2.4423   -3.8655    1.8231 H   0  0  0  0  0  0  0  0  0  0  0  0
    2.3613   -4.7042    0.2304 H   0  0  0  0  0  0  0  0  0  0  0  0
    2.4489   -3.8827    1.8030 H   0  0  0  0  0  0  0  0  0  0  0  0
    3.3723   -3.2717    0.4283 H   0  0  0  0  0  0  0  0  0  0  0  0
   -0.0022   -0.5956    2.1534 H   0  0  0  0  0  0  0  0  0  0  0  0
   -5.3130   -1.5873    0.3478 H   0  0  0  0  0  0  0  0  0  0  0  0
   -6.3468   -0.3511   -0.3865 H   0  0  0  0  0  0  0  0  0  0  0  0
   -5.2118   -1.2344   -1.3746 H   0  0  0  0  0  0  0  0  0  0  0  0
   -3.9720    1.8271    1.4533 H   0  0  0  0  0  0  0  0  0  0  0  0
   -4.8460    0.4254    2.0465 H   0  0  0  0  0  0  0  0  0  0  0  0
   -5.6828    1.6116    1.0205 H   0  0  0  0  0  0  0  0  0  0  0  0
   -3.9817    0.7284   -2.2041 H   0  0  0  0  0  0  0  0  0  0  0  0
   -4.9373    1.9164   -1.3527 H   0  0  0  0  0  0  0  0  0  0  0  0
   -3.1857    1.8432   -1.0993 H   0  0  0  0  0  0  0  0  0  0  0  0
    3.1760    1.8304   -1.1062 H   0  0  0  0  0  0  0  0  0  0  0  0
    4.9285    1.9279   -1.3428 H   0  0  0  0  0  0  0  0  0  0  0  0
    3.9998    0.7274   -2.2040 H   0  0  0  0  0  0  0  0  0  0  0  0
    4.8466    0.4320    2.0500 H   0  0  0  0  0  0  0  0  0  0  0  0
    3.9701    1.8307    1.4535 H   0  0  0  0  0  0  0  0  0  0  0  0
    5.6817    1.6181    1.0226 H   0  0  0  0  0  0  0  0  0  0  0  0
    5.2108   -1.2414   -1.3631 H   0  0  0  0  0  0  0  0  0  0  0  0
    6.3508   -0.3406   -0.3946 H   0  0  0  0  0  0  0  0  0  0  0  0
    5.3294   -1.5750    0.3609 H   0  0  0  0  0  0  0  0  0  0  0  0
   -0.0028    1.5050    3.4267 H   0  0  0  0  0  0  0  0  0  0  0  0
   -0.0026    3.6661    2.2774 H   0  0  0  0  0  0  0  0  0  0  0  0
  1 15  1  0  0  0  0
  1 17  1  0  0  0  0
  2 16  1  0  0  0  0
  2 18  1  0  0  0  0
  3 15  2  0  0  0  0
  4 16  2  0  0  0  0
  5  8  1  0  0  0  0
  6  8  2  0  0  0  0
  7 13  1  0  0  0  0
  7 14  1  0  0  0  0
  7 33  1  0  0  0  0
  8 29  1  0  0  0  0
  9 10  1  0  0  0  0
  9 11  1  0  0  0  0
  9 12  1  0  0  0  0
  9 32  1  0  0  0  0
 10 13  2  0  0  0  0
 10 15  1  0  0  0  0
 11 14  2  0  0  0  0
 11 16  1  0  0  0  0
 12 19  2  0  0  0  0
 12 22  1  0  0  0  0
 13 20  1  0  0  0  0
 14 21  1  0  0  0  0
 17 23  1  0  0  0  0
 17 24  1  0  0  0  0
 17 25  1  0  0  0  0
 18 26  1  0  0  0  0
 18 27  1  0  0  0  0
 18 28  1  0  0  0  0
 19 29  1  0  0  0  0
 19 34  1  0  0  0  0
 20 35  1  0  0  0  0
 20 36  1  0  0  0  0
 20 37  1  0  0  0  0
 21 38  1  0  0  0  0
 21 39  1  0  0  0  0
 21 40  1  0  0  0  0
 22 30  2  0  0  0  0
 22 41  1  0  0  0  0
 23 42  1  0  0  0  0
 23 43  1  0  0  0  0
 23 44  1  0  0  0  0
 24 45  1  0  0  0  0
 24 46  1  0  0  0  0
 24 47  1  0  0  0  0
 25 48  1  0  0  0  0
 25 49  1  0  0  0  0
 25 50  1  0  0  0  0
 26 51  1  0  0  0  0
 26 52  1  0  0  0  0
 26 53  1  0  0  0  0
 27 54  1  0  0  0  0
 27 55  1  0  0  0  0
 27 56  1  0  0  0  0
 28 57  1  0  0  0  0
 28 58  1  0  0  0  0
 28 59  1  0  0  0  0
 29 31  2  0  0  0  0
 30 31  1  0  0  0  0
 30 60  1  0  0  0  0
 31 61  1  0  0  0  0
M  CHG  2   5  -1   8   1
M  END
> <PUBCHEM_COMPOUND_CID>
10252115

> <PUBCHEM_CONFORMER_RMSD>
1

> <PUBCHEM_CONFORMER_DIVERSEORDER>
1
19
20
17
15
7
14
6
10
13
5
8
16
12
18
9
11
4
3
2

> <PUBCHEM_MMFF94_PARTIAL_CHARGES>
30
1 -0.43
10 -0.12
11 -0.12
12 -0.14
13 -0.04
14 -0.04
15 0.71
16 0.71
17 0.28
18 0.28
19 -0.15
2 -0.43
20 0.14
21 0.14
22 -0.15
29 0.13
3 -0.57
30 -0.15
31 -0.15
33 0.4
34 0.15
4 -0.57
41 0.15
5 -0.52
6 -0.52
60 0.15
61 0.15
7 -0.6
8 0.91
9 0.42

> <PUBCHEM_EFFECTIVE_ROTOR_COUNT>
8.4

> <PUBCHEM_PHARMACOPHORE_FEATURES>
11
1 3 acceptor
1 4 acceptor
1 5 acceptor
1 5 anion
1 6 acceptor
1 7 cation
1 7 donor
4 17 23 24 25 hydrophobe
4 18 26 27 28 hydrophobe
6 12 19 22 29 30 31 rings
6 7 9 10 11 13 14 rings

> <PUBCHEM_HEAVY_ATOM_COUNT>
31

> <PUBCHEM_ATOM_DEF_STEREO_COUNT>
0

> <PUBCHEM_ATOM_UDEF_STEREO_COUNT>
0

> <PUBCHEM_BOND_DEF_STEREO_COUNT>
0

> <PUBCHEM_BOND_UDEF_STEREO_COUNT>
0

> <PUBCHEM_ISOTOPIC_ATOM_COUNT>
0

> <PUBCHEM_COMPONENT_COUNT>
1

> <PUBCHEM_CACTVS_TAUTO_COUNT>
2

> <PUBCHEM_CONFORMER_ID>
009C6F5300000001

> <PUBCHEM_MMFF94_ENERGY>
99.4016

> <PUBCHEM_FEATURE_SELFOVERLAP>
55.9

> <PUBCHEM_SHAPE_FINGERPRINT>
10006869 2 18124590882287387341
10675989 125 17975965476192538653
10930396 42 18123437666963705608
1100329 8 18338242668573939369
11112241 14 16556198289018936192
11578080 2 14131070268382983540
11582403 64 15656066159736969373
12035758 1 18338792437436195267
12788726 201 18268427941197464336
13132413 78 18343304764595470101
13140716 1 18409729608078194602
13911987 19 18189073004350059564
14466204 15 18336539538011109858
14713325 29 17109318745642475336
14787075 74 18272930531138274437
14790565 3 18410582764281616105
14955137 171 18337405919072268473
15210252 30 18408042931054794004
15324884 4 17628091284829214606
1601671 61 18273213101410779897
18769570 83 18341324556859419010
18785283 64 18048047547248943561
20600515 1 18340494464504400036
20642791 178 18118409681092650612
20642791 239 17973745841415761916
20691752 17 18268122353910669043
20715895 44 18261666000336977524
21304303 64 18335709376656967565
21330990 113 18411127022410648040
23558518 356 17983877591772497622
23559900 14 18412833482475589214
3178227 256 18337405924042651155
350125 39 18122347865887700042
469060 322 18262531285749432929
59755656 215 18341055112856803094
70251023 43 17986968344559941678
7226269 152 18412541003338445986
81228 2 18199772296323498016

> <PUBCHEM_SHAPE_MULTIPOLES>
592.79
8.56
5.27
1.55
0.03
2.63
0.2
-0.78
-1.48
0
0.61
0
0.68
0

> <PUBCHEM_SHAPE_SELFOVERLAP>
1252.879

> <PUBCHEM_SHAPE_VOLUME>
335.8

> <PUBCHEM_COORDINATE_TYPE>
2
5
10

$$$$
