102587076
  -OEChem-03292013293D

 63 65  0     1  0  0  0  0  0999 V2000
   -3.1806   -1.4876    0.2564 O   0  0  0  0  0  0  0  0  0  0  0  0
   -6.9197    1.6444   -2.2810 O   0  0  0  0  0  0  0  0  0  0  0  0
    2.7905   -0.8413    1.1351 O   0  0  0  0  0  0  0  0  0  0  0  0
   -4.9228   -1.5774   -1.7050 O   0  0  0  0  0  0  0  0  0  0  0  0
    0.8026   -2.6912    0.8715 O   0  0  0  0  0  0  0  0  0  0  0  0
    2.0848    1.7984    1.1141 O   0  0  0  0  0  0  0  0  0  0  0  0
    2.1628   -0.4361   -1.0433 O   0  0  0  0  0  0  0  0  0  0  0  0
   -7.4569    0.9025   -1.1866 C   0  0  2  0  0  0  0  0  0  0  0  0
   -6.9917    1.5006    0.1338 C   0  0  0  0  0  0  0  0  0  0  0  0
   -5.5548    1.1733    0.4928 C   0  0  0  0  0  0  0  0  0  0  0  0
   -7.0304   -0.5446   -1.3159 C   0  0  0  0  0  0  0  0  0  0  0  0
   -4.8501    0.1790   -0.0925 C   0  0  0  0  0  0  0  0  0  0  0  0
    1.4773   -0.4903    1.5842 C   0  0  2  0  0  0  0  0  0  0  0  0
   -5.5419   -0.7005   -1.1000 C   0  0  0  0  0  0  0  0  0  0  0  0
   -3.4662   -0.1228    0.2002 C   0  0  0  0  0  0  0  0  0  0  0  0
   -1.1606    0.4118    0.6896 C   0  0  0  0  0  0  0  0  0  0  0  0
   -0.8735   -1.0140    0.7445 C   0  0  0  0  0  0  0  0  0  0  0  0
    0.4956   -1.5128    1.0380 C   0  0  0  0  0  0  0  0  0  0  0  0
   -2.5302    0.8239    0.4000 C   0  0  0  0  0  0  0  0  0  0  0  0
    1.1991    0.9466    1.1701 C   0  0  0  0  0  0  0  0  0  0  0  0
   -5.0232    2.0795    1.5797 C   0  0  0  0  0  0  0  0  0  0  0  0
   -0.2036    1.3356    0.8709 C   0  0  0  0  0  0  0  0  0  0  0  0
    1.4745   -0.5717    3.1104 C   0  0  0  0  0  0  0  0  0  0  0  0
   -1.8786   -1.8760    0.5298 C   0  0  0  0  0  0  0  0  0  0  0  0
    7.1463    0.4541   -2.1719 C   0  0  0  0  0  0  0  0  0  0  0  0
    7.3870    1.0376   -0.7764 C   0  0  0  0  0  0  0  0  0  0  0  0
    6.3263   -0.8376   -2.1564 C   0  0  0  0  0  0  0  0  0  0  0  0
    2.9928   -0.7689   -0.2091 C   0  0  0  0  0  0  0  0  0  0  0  0
    4.3979   -1.1677   -0.5213 C   0  0  0  0  0  0  0  0  0  0  0  0
    8.2699    2.2864   -0.7847 C   0  0  0  0  0  0  0  0  0  0  0  0
    4.9453   -0.5957   -1.6099 C   0  0  0  0  0  0  0  0  0  0  0  0
    5.0928   -2.1211    0.4053 C   0  0  0  0  0  0  0  0  0  0  0  0
    8.5396    2.7837    0.6274 C   0  0  0  0  0  0  0  0  0  0  0  0
   -8.5479    0.9715   -1.2618 H   0  0  0  0  0  0  0  0  0  0  0  0
   -7.6340    1.1354    0.9452 H   0  0  0  0  0  0  0  0  0  0  0  0
   -7.1055    2.5911    0.0861 H   0  0  0  0  0  0  0  0  0  0  0  0
   -7.2608   -0.9077   -2.3243 H   0  0  0  0  0  0  0  0  0  0  0  0
   -7.5473   -1.1777   -0.5866 H   0  0  0  0  0  0  0  0  0  0  0  0
   -2.7333    1.8851    0.3069 H   0  0  0  0  0  0  0  0  0  0  0  0
   -4.6641    3.0213    1.1534 H   0  0  0  0  0  0  0  0  0  0  0  0
   -4.2366    1.6212    2.1843 H   0  0  0  0  0  0  0  0  0  0  0  0
   -5.8233    2.3207    2.2900 H   0  0  0  0  0  0  0  0  0  0  0  0
   -0.4049    2.3999    0.7970 H   0  0  0  0  0  0  0  0  0  0  0  0
    2.2192    0.1080    3.5407 H   0  0  0  0  0  0  0  0  0  0  0  0
    1.7364   -1.5808    3.4497 H   0  0  0  0  0  0  0  0  0  0  0  0
    0.4965   -0.3148    3.5317 H   0  0  0  0  0  0  0  0  0  0  0  0
   -1.8019   -2.9540    0.5454 H   0  0  0  0  0  0  0  0  0  0  0  0
   -7.2300    2.5618   -2.1942 H   0  0  0  0  0  0  0  0  0  0  0  0
    6.6482    1.2048   -2.7987 H   0  0  0  0  0  0  0  0  0  0  0  0
    8.1135    0.2444   -2.6454 H   0  0  0  0  0  0  0  0  0  0  0  0
    6.4299    1.2921   -0.3059 H   0  0  0  0  0  0  0  0  0  0  0  0
    7.8555    0.2705   -0.1469 H   0  0  0  0  0  0  0  0  0  0  0  0
    6.2267   -1.2080   -3.1837 H   0  0  0  0  0  0  0  0  0  0  0  0
    6.8761   -1.6039   -1.6047 H   0  0  0  0  0  0  0  0  0  0  0  0
    7.7843    3.0798   -1.3643 H   0  0  0  0  0  0  0  0  0  0  0  0
    9.2245    2.0631   -1.2748 H   0  0  0  0  0  0  0  0  0  0  0  0
    4.3508    0.1011   -2.1996 H   0  0  0  0  0  0  0  0  0  0  0  0
    9.0559    2.0218    1.2201 H   0  0  0  0  0  0  0  0  0  0  0  0
    7.6059    3.0419    1.1372 H   0  0  0  0  0  0  0  0  0  0  0  0
    9.1703    3.6777    0.5999 H   0  0  0  0  0  0  0  0  0  0  0  0
    5.4184   -1.6005    1.3117 H   0  0  0  0  0  0  0  0  0  0  0  0
    4.4125   -2.9290    0.6976 H   0  0  0  0  0  0  0  0  0  0  0  0
    5.9643   -2.6039   -0.0412 H   0  0  0  0  0  0  0  0  0  0  0  0
  1 15  1  0  0  0  0
  1 24  1  0  0  0  0
  2  8  1  0  0  0  0
  2 48  1  0  0  0  0
  3 13  1  0  0  0  0
  3 28  1  0  0  0  0
  4 14  2  0  0  0  0
  5 18  2  0  0  0  0
  6 20  2  0  0  0  0
  7 28  2  0  0  0  0
  8  9  1  0  0  0  0
  8 11  1  0  0  0  0
  8 34  1  0  0  0  0
  9 10  1  0  0  0  0
  9 35  1  0  0  0  0
  9 36  1  0  0  0  0
 10 12  2  0  0  0  0
 10 21  1  0  0  0  0
 11 14  1  0  0  0  0
 11 37  1  0  0  0  0
 11 38  1  0  0  0  0
 12 14  1  0  0  0  0
 12 15  1  0  0  0  0
 13 18  1  0  0  0  0
 13 20  1  0  0  0  0
 13 23  1  0  0  0  0
 15 19  2  0  0  0  0
 16 17  1  0  0  0  0
 16 19  1  0  0  0  0
 16 22  2  0  0  0  0
 17 18  1  0  0  0  0
 17 24  2  0  0  0  0
 19 39  1  0  0  0  0
 20 22  1  0  0  0  0
 21 40  1  0  0  0  0
 21 41  1  0  0  0  0
 21 42  1  0  0  0  0
 22 43  1  0  0  0  0
 23 44  1  0  0  0  0
 23 45  1  0  0  0  0
 23 46  1  0  0  0  0
 24 47  1  0  0  0  0
 25 26  1  0  0  0  0
 25 27  1  0  0  0  0
 25 49  1  0  0  0  0
 25 50  1  0  0  0  0
 26 30  1  0  0  0  0
 26 51  1  0  0  0  0
 26 52  1  0  0  0  0
 27 31  1  0  0  0  0
 27 53  1  0  0  0  0
 27 54  1  0  0  0  0
 28 29  1  0  0  0  0
 29 31  2  0  0  0  0
 29 32  1  0  0  0  0
 30 33  1  0  0  0  0
 30 55  1  0  0  0  0
 30 56  1  0  0  0  0
 31 57  1  0  0  0  0
 32 61  1  0  0  0  0
 32 62  1  0  0  0  0
 32 63  1  0  0  0  0
 33 58  1  0  0  0  0
 33 59  1  0  0  0  0
 33 60  1  0  0  0  0
M  END
> <PUBCHEM_COMPOUND_CID>
102587076

> <PUBCHEM_CONFORMER_RMSD>
1

> <PUBCHEM_CONFORMER_DIVERSEORDER>
1
168
145
177
13
113
180
69
112
150
110
80
28
91
124
153
83
138
33
151
158
15
143
146
157
159
109
67
114
142
178
60
175
58
97
135
100
50
38
72
154
167
71
117
106
147
68
89
140
56
134
176
51
182
166
25
155
152
118
59
148
82
165
18
172
12
133
131
54
115
128
87
163
173
120
84
122
76
116
170
86
119
75
121
95
164
99
127
57
90
123
132
77
55
73
101
93
63
129
46
64
136
125
171
102
137
39
94
144
41
161
37
66
160
78
65
139
62
103
81
141
30
169
85
111
40
26
47
16
61
70
20
49
181
43
9
98
44
34
48
92
107
52
149
23
130
105
3
17
31
126
74
14
36
45
88
21
11
96
174
53
35
4
42
5
19
22
29
32
104
10
24
162
6
156
8
108
7
2
179
27
79

> <PUBCHEM_MMFF94_PARTIAL_CHARGES>
32
1 -0.15
10 -0.28
11 0.06
12 0.01
13 0.4
14 0.49
15 0.08
17 0.01
18 0.49
19 -0.15
2 -0.68
20 0.49
21 0.14
22 -0.14
24 -0.07
27 0.14
28 0.71
29 -0.12
3 -0.43
31 -0.29
32 0.14
39 0.15
4 -0.57
43 0.15
47 0.15
48 0.4
5 -0.57
57 0.15
6 -0.57
7 -0.57
8 0.28
9 0.14

> <PUBCHEM_EFFECTIVE_ROTOR_COUNT>
9

> <PUBCHEM_PHARMACOPHORE_FEATURES>
13
1 1 acceptor
1 2 acceptor
1 2 donor
1 32 hydrophobe
1 33 hydrophobe
1 4 acceptor
1 5 acceptor
1 6 acceptor
1 7 acceptor
5 25 26 27 30 31 hydrophobe
6 1 15 16 17 19 24 rings
6 13 16 17 18 20 22 rings
6 8 9 10 11 12 14 rings

> <PUBCHEM_HEAVY_ATOM_COUNT>
33

> <PUBCHEM_ATOM_DEF_STEREO_COUNT>
1

> <PUBCHEM_ATOM_UDEF_STEREO_COUNT>
1

> <PUBCHEM_BOND_DEF_STEREO_COUNT>
1

> <PUBCHEM_BOND_UDEF_STEREO_COUNT>
0

> <PUBCHEM_ISOTOPIC_ATOM_COUNT>
0

> <PUBCHEM_COMPONENT_COUNT>
1

> <PUBCHEM_CACTVS_TAUTO_COUNT>
20

> <PUBCHEM_CONFORMER_ID>
061D5AC400000001

> <PUBCHEM_MMFF94_ENERGY>
71.2846

> <PUBCHEM_FEATURE_SELFOVERLAP>
66.01

> <PUBCHEM_SHAPE_FINGERPRINT>
10 15 13984673567835919654
10533779 47 11747209126619447676
10670039 82 18269837532696034201
10692045 39 13118273798949465368
10835480 77 18411989087546333244
11007060 377 18340781380845966112
11387372 6 10519990335995613012
11408170 132 17060622170396568456
11456790 92 13479126913615086980
11823591 26 17095524010951807818
131258 43 16845293886148219888
13668630 136 14979949255910749079
13673619 4 13110966392852324034
13782708 43 15554150533425687671
14040221 8 15984830290488350377
150020 25 18059583525006757684
15064981 113 16988275366816099629
15183329 4 18201722816897537143
15276724 80 18336829688980176564
15510800 12 12751240336832707597
15538507 75 17749935762618110704
15979999 66 17346878966416486056
16728433 281 17843123594270890001
16991971 28 14333133000877326628
16994733 274 17603588516978030844
20105231 36 18202569484687587767
2026 5 15554445159523674991
20511986 3 18259703424364971910
20554085 129 17603864533842606088
20737093 193 13034070054926616386
21033648 29 14418145005973672586
21130935 74 11674888826964956452
21267235 1 11527952249007160654
21304304 249 11167940251625017064
21792965 106 17605260797050341357
23522609 53 18125176951865400657
23559900 14 17774708853773718601
23576562 1 18128816519899536029
2838139 119 15719395087517778382
3004659 81 17989486311896022184
3918712 181 18042415789259058356
4093350 32 15936402322185352360
437815 12 16271925991381394411
445580 126 16370440064593288876
44880568 143 17702960136398712024
4616759 239 14418140595871065245
5104073 3 10881666989275337613
5265222 85 18060423529429234886
5470011 282 17489315187535695164

> <PUBCHEM_SHAPE_MULTIPOLES>
638.04
24.18
2.39
2.11
12.51
0.49
0.05
13.78
-16.47
2.32
0.41
0.77
-0.14
-0.32

> <PUBCHEM_SHAPE_SELFOVERLAP>
1354.234

> <PUBCHEM_SHAPE_VOLUME>
352.6

> <PUBCHEM_COORDINATE_TYPE>
2
5
10

$$$$
