102515111
  -OEChem-03292013293D

 67 70  0     1  0  0  0  0  0999 V2000
    2.0110    2.0171    2.3350 O   0  0  0  0  0  0  0  0  0  0  0  0
    1.7669    2.4668   -0.6634 O   0  0  0  0  0  0  0  0  0  0  0  0
    4.0166   -1.2553    0.2684 O   0  0  0  0  0  0  0  0  0  0  0  0
    3.7429    1.1060   -2.1278 O   0  0  0  0  0  0  0  0  0  0  0  0
   -0.7615   -1.5936    0.3411 O   0  0  0  0  0  0  0  0  0  0  0  0
   -2.6900    0.3427    0.1252 O   0  0  0  0  0  0  0  0  0  0  0  0
    4.4835   -2.1521   -1.8087 O   0  0  0  0  0  0  0  0  0  0  0  0
   -1.3666   -3.2195   -1.1847 O   0  0  0  0  0  0  0  0  0  0  0  0
   -4.2152    1.3004    1.5661 O   0  0  0  0  0  0  0  0  0  0  0  0
    1.9296    0.0022    0.7601 C   0  0  1  0  0  0  0  0  0  0  0  0
    2.5559    1.2944    1.2422 C   0  0  1  0  0  0  0  0  0  0  0  0
    0.5564    0.3723    0.0132 C   0  0  2  0  0  0  0  0  0  0  0  0
    2.9495    2.0293    0.0132 C   0  0  1  0  0  0  0  0  0  0  0  0
    3.0327   -0.3995   -0.3136 C   0  0  1  0  0  0  0  0  0  0  0  0
    3.3253    1.4691    2.5340 C   0  0  0  0  0  0  0  0  0  0  0  0
    3.7284    0.9285   -0.7251 C   0  0  1  0  0  0  0  0  0  0  0  0
    0.8475    1.4466   -1.0884 C   0  0  1  0  0  0  0  0  0  0  0  0
    1.7489   -1.0593    1.8498 C   0  0  0  0  0  0  0  0  0  0  0  0
   -0.5162    0.9538    0.9931 C   0  0  0  0  0  0  0  0  0  0  0  0
   -0.0553   -0.8938   -0.6540 C   0  0  0  0  0  0  0  0  0  0  0  0
   -1.8083    1.4469    0.3174 C   0  0  1  0  0  0  0  0  0  0  0  0
   -0.3728    2.1727   -1.5899 C   0  0  0  0  0  0  0  0  0  0  0  0
   -1.5745    2.1624   -0.9888 C   0  0  0  0  0  0  0  0  0  0  0  0
    4.6671   -2.0828   -0.6010 C   0  0  0  0  0  0  0  0  0  0  0  0
   -2.7442    2.9031   -1.5726 C   0  0  0  0  0  0  0  0  0  0  0  0
   -1.3815   -2.7549   -0.0529 C   0  0  0  0  0  0  0  0  0  0  0  0
    5.6633   -2.9170    0.1458 C   0  0  0  0  0  0  0  0  0  0  0  0
   -3.8703    0.3977    0.8160 C   0  0  0  0  0  0  0  0  0  0  0  0
   -2.0909   -3.3888    1.1052 C   0  0  0  0  0  0  0  0  0  0  0  0
   -4.6703   -0.8568    0.5366 C   0  0  0  0  0  0  0  0  0  0  0  0
   -6.0726   -0.5673   -0.0210 C   0  0  0  0  0  0  0  0  0  0  0  0
   -6.0014    0.2062   -1.3401 C   0  0  0  0  0  0  0  0  0  0  0  0
   -6.8340   -1.8776   -0.2304 C   0  0  0  0  0  0  0  0  0  0  0  0
    3.5746    2.9081    0.1980 H   0  0  0  0  0  0  0  0  0  0  0  0
    2.5857   -0.8939   -1.1785 H   0  0  0  0  0  0  0  0  0  0  0  0
    3.4158    0.6539    3.2371 H   0  0  0  0  0  0  0  0  0  0  0  0
    4.1544    2.1655    2.5540 H   0  0  0  0  0  0  0  0  0  0  0  0
    4.7695    0.9296   -0.3771 H   0  0  0  0  0  0  0  0  0  0  0  0
    1.2776    0.9498   -1.9659 H   0  0  0  0  0  0  0  0  0  0  0  0
    1.0272   -0.7476    2.6102 H   0  0  0  0  0  0  0  0  0  0  0  0
    2.6842   -1.2610    2.3826 H   0  0  0  0  0  0  0  0  0  0  0  0
    1.4275   -2.0176    1.4324 H   0  0  0  0  0  0  0  0  0  0  0  0
   -0.0995    1.8360    1.4869 H   0  0  0  0  0  0  0  0  0  0  0  0
   -0.7655    0.2541    1.7981 H   0  0  0  0  0  0  0  0  0  0  0  0
    0.6985   -1.5484   -1.0971 H   0  0  0  0  0  0  0  0  0  0  0  0
   -0.7505   -0.6204   -1.4564 H   0  0  0  0  0  0  0  0  0  0  0  0
   -2.2373    2.1860    1.0065 H   0  0  0  0  0  0  0  0  0  0  0  0
   -0.2457    2.7303   -2.5155 H   0  0  0  0  0  0  0  0  0  0  0  0
    4.2005    0.3402   -2.5147 H   0  0  0  0  0  0  0  0  0  0  0  0
   -3.5281    2.2004   -1.8677 H   0  0  0  0  0  0  0  0  0  0  0  0
   -2.4660    3.4806   -2.4606 H   0  0  0  0  0  0  0  0  0  0  0  0
   -3.1577    3.6033   -0.8398 H   0  0  0  0  0  0  0  0  0  0  0  0
    6.4042   -2.2703    0.6226 H   0  0  0  0  0  0  0  0  0  0  0  0
    6.1786   -3.5805   -0.5546 H   0  0  0  0  0  0  0  0  0  0  0  0
    5.1491   -3.5289    0.8911 H   0  0  0  0  0  0  0  0  0  0  0  0
   -2.4579   -2.6224    1.7933 H   0  0  0  0  0  0  0  0  0  0  0  0
   -1.4056   -4.0588    1.6291 H   0  0  0  0  0  0  0  0  0  0  0  0
   -2.9542   -3.9499    0.7374 H   0  0  0  0  0  0  0  0  0  0  0  0
   -4.1207   -1.4887   -0.1716 H   0  0  0  0  0  0  0  0  0  0  0  0
   -4.7333   -1.4173    1.4765 H   0  0  0  0  0  0  0  0  0  0  0  0
   -6.6265    0.0435    0.7029 H   0  0  0  0  0  0  0  0  0  0  0  0
   -5.3903   -0.3216   -2.0801 H   0  0  0  0  0  0  0  0  0  0  0  0
   -7.0021    0.3440   -1.7636 H   0  0  0  0  0  0  0  0  0  0  0  0
   -5.5739    1.2016   -1.1893 H   0  0  0  0  0  0  0  0  0  0  0  0
   -6.3285   -2.5204   -0.9593 H   0  0  0  0  0  0  0  0  0  0  0  0
   -6.9174   -2.4321    0.7103 H   0  0  0  0  0  0  0  0  0  0  0  0
   -7.8485   -1.6844   -0.5948 H   0  0  0  0  0  0  0  0  0  0  0  0
  1 11  1  0  0  0  0
  1 15  1  0  0  0  0
  2 13  1  0  0  0  0
  2 17  1  0  0  0  0
  3 14  1  0  0  0  0
  3 24  1  0  0  0  0
  4 16  1  0  0  0  0
  4 49  1  0  0  0  0
  5 20  1  0  0  0  0
  5 26  1  0  0  0  0
  6 21  1  0  0  0  0
  6 28  1  0  0  0  0
  7 24  2  0  0  0  0
  8 26  2  0  0  0  0
  9 28  2  0  0  0  0
 10 11  1  0  0  0  0
 10 12  1  0  0  0  0
 10 14  1  0  0  0  0
 10 18  1  0  0  0  0
 11 13  1  0  0  0  0
 11 15  1  0  0  0  0
 12 17  1  0  0  0  0
 12 19  1  0  0  0  0
 12 20  1  0  0  0  0
 13 16  1  0  0  0  0
 13 34  1  0  0  0  0
 14 16  1  0  0  0  0
 14 35  1  0  0  0  0
 15 36  1  0  0  0  0
 15 37  1  0  0  0  0
 16 38  1  0  0  0  0
 17 22  1  0  0  0  0
 17 39  1  0  0  0  0
 18 40  1  0  0  0  0
 18 41  1  0  0  0  0
 18 42  1  0  0  0  0
 19 21  1  0  0  0  0
 19 43  1  0  0  0  0
 19 44  1  0  0  0  0
 20 45  1  0  0  0  0
 20 46  1  0  0  0  0
 21 23  1  0  0  0  0
 21 47  1  0  0  0  0
 22 23  2  0  0  0  0
 22 48  1  0  0  0  0
 23 25  1  0  0  0  0
 24 27  1  0  0  0  0
 25 50  1  0  0  0  0
 25 51  1  0  0  0  0
 25 52  1  0  0  0  0
 26 29  1  0  0  0  0
 27 53  1  0  0  0  0
 27 54  1  0  0  0  0
 27 55  1  0  0  0  0
 28 30  1  0  0  0  0
 29 56  1  0  0  0  0
 29 57  1  0  0  0  0
 29 58  1  0  0  0  0
 30 31  1  0  0  0  0
 30 59  1  0  0  0  0
 30 60  1  0  0  0  0
 31 32  1  0  0  0  0
 31 33  1  0  0  0  0
 31 61  1  0  0  0  0
 32 62  1  0  0  0  0
 32 63  1  0  0  0  0
 32 64  1  0  0  0  0
 33 65  1  0  0  0  0
 33 66  1  0  0  0  0
 33 67  1  0  0  0  0
M  END
> <PUBCHEM_COMPOUND_CID>
102515111

> <PUBCHEM_CONFORMER_RMSD>
1

> <PUBCHEM_CONFORMER_DIVERSEORDER>
1
31
17
23
47
50
68
13
39
16
12
58
65
45
21
25
5
33
55
26
53
22
28
20
27
63
41
51
56
60
29
37
52
19
40
57
10
64
15
4
43
36
6
35
42
3
30
66
46
49
32
69
67
24
11
48
2
54
62
14
44
8
18
59
34
38
61
9
7

> <PUBCHEM_MMFF94_PARTIAL_CHARGES>
31
1 -0.3
10 0.09
11 -0.04
13 0.38
14 0.28
15 -0.05
16 0.28
17 0.42
2 -0.56
20 0.28
21 0.42
22 -0.29
23 -0.28
24 0.66
25 0.14
26 0.66
27 0.06
28 0.66
29 0.06
3 -0.43
30 0.06
36 0.1
37 0.1
4 -0.68
48 0.15
49 0.4
5 -0.43
6 -0.43
7 -0.57
8 -0.57
9 -0.57

> <PUBCHEM_EFFECTIVE_ROTOR_COUNT>
10.4

> <PUBCHEM_PHARMACOPHORE_FEATURES>
10
1 1 acceptor
1 2 acceptor
1 4 acceptor
1 4 donor
1 7 acceptor
1 8 acceptor
1 9 acceptor
3 31 32 33 hydrophobe
6 12 17 19 21 22 23 rings
8 2 10 11 12 13 14 16 17 rings

> <PUBCHEM_HEAVY_ATOM_COUNT>
33

> <PUBCHEM_ATOM_DEF_STEREO_COUNT>
4

> <PUBCHEM_ATOM_UDEF_STEREO_COUNT>
4

> <PUBCHEM_BOND_DEF_STEREO_COUNT>
0

> <PUBCHEM_BOND_UDEF_STEREO_COUNT>
0

> <PUBCHEM_ISOTOPIC_ATOM_COUNT>
0

> <PUBCHEM_COMPONENT_COUNT>
1

> <PUBCHEM_CACTVS_TAUTO_COUNT>
8

> <PUBCHEM_CONFORMER_ID>
061C41A700000001

> <PUBCHEM_MMFF94_ENERGY>
105.317

> <PUBCHEM_FEATURE_SELFOVERLAP>
50.76

> <PUBCHEM_SHAPE_FINGERPRINT>
11135609 12 18188479264182073234
11578080 2 17415833854203273056
12788726 201 17821726160989351865
13140716 1 17901374912022316153
13533116 47 18131350843010046171
13583140 156 17201926053126111610
13782708 43 18342740676333537463
14117953 113 18336824192276066943
15664445 248 17972605660631630508
16945 1 18261379096479568608
17349148 13 18341337786017982457
18222031 100 18260265274447777001
19591789 44 18262802856663005390
20028762 73 18273495650478364711
21033648 29 18339906152637707929
22182313 1 18263060172285418740
22393880 68 18188765051211146677
23559900 14 18410295847480517122
3286 77 18131634456527243912
350125 39 18339081484445574761
437815 12 18059304149821038414
484989 97 18335139756587414487
5104073 3 17418380190442949065
563151 74 17059474362272784658
9981440 41 16623148600122554392

> <PUBCHEM_SHAPE_MULTIPOLES>
626.3
12.03
3.67
1.84
11.67
1.72
0.49
6.54
-1.57
-0.65
-0.77
-1.3
-0.74
1.28

> <PUBCHEM_SHAPE_SELFOVERLAP>
1320.959

> <PUBCHEM_SHAPE_VOLUME>
346.5

> <PUBCHEM_COORDINATE_TYPE>
2
5
10

$$$$
