10253806
  -OEChem-03292013303D

 71 72  0     1  0  0  0  0  0999 V2000
    6.2494   -0.4304    0.5869 O   0  0  0  0  0  0  0  0  0  0  0  0
    9.8184    0.3909    0.6152 O   0  0  0  0  0  0  0  0  0  0  0  0
    8.5525    2.9272    0.0490 O   0  0  0  0  0  0  0  0  0  0  0  0
    6.1129    2.5274   -1.5537 O   0  0  0  0  0  0  0  0  0  0  0  0
    4.4002    0.5892   -0.4054 O   0  0  0  0  0  0  0  0  0  0  0  0
    7.2299   -2.8553    1.4321 O   0  0  0  0  0  0  0  0  0  0  0  0
    4.0602   -1.4804   -1.3704 O   0  0  0  0  0  0  0  0  0  0  0  0
   -8.7207   -0.3541   -0.3878 C   0  0  0  0  0  0  0  0  0  0  0  0
  -10.0062    0.4291   -0.0043 C   0  0  0  0  0  0  0  0  0  0  0  0
   -9.7779    1.9297    0.0245 C   0  0  0  0  0  0  0  0  0  0  0  0
   -7.4797    0.1878    0.3599 C   0  0  0  0  0  0  0  0  0  0  0  0
   -8.7102    2.2747    1.0517 C   0  0  0  0  0  0  0  0  0  0  0  0
   -7.4965    1.3676    1.0300 C   0  0  0  0  0  0  0  0  0  0  0  0
   -9.0065   -1.8367   -0.0448 C   0  0  0  0  0  0  0  0  0  0  0  0
   -8.4969   -0.2369   -1.9130 C   0  0  0  0  0  0  0  0  0  0  0  0
    8.4200    0.6381    0.7354 C   0  0  1  0  0  0  0  0  0  0  0  0
    7.9957    1.6634   -0.3161 C   0  0  1  0  0  0  0  0  0  0  0  0
    7.6565   -0.6757    0.5522 C   0  0  1  0  0  0  0  0  0  0  0  0
    6.4733    1.7807   -0.3919 C   0  0  2  0  0  0  0  0  0  0  0  0
    5.8133    0.4049   -0.4830 C   0  0  1  0  0  0  0  0  0  0  0  0
   -6.2854   -0.6369    0.2763 C   0  0  0  0  0  0  0  0  0  0  0  0
   -6.3512    1.9451    1.8293 C   0  0  0  0  0  0  0  0  0  0  0  0
    7.9767   -1.6741    1.6601 C   0  0  0  0  0  0  0  0  0  0  0  0
   -5.0538   -0.1311    0.1016 C   0  0  0  0  0  0  0  0  0  0  0  0
   -3.8092   -0.8949    0.0084 C   0  0  0  0  0  0  0  0  0  0  0  0
    3.6489   -0.4383   -0.8879 C   0  0  0  0  0  0  0  0  0  0  0  0
   -3.9071   -2.3994    0.1177 C   0  0  0  0  0  0  0  0  0  0  0  0
   -2.5901   -0.3405   -0.1680 C   0  0  0  0  0  0  0  0  0  0  0  0
    2.2253   -0.0483   -0.7450 C   0  0  0  0  0  0  0  0  0  0  0  0
    1.1926   -0.8976   -0.5717 C   0  0  0  0  0  0  0  0  0  0  0  0
   -1.3023   -1.0030   -0.2728 C   0  0  0  0  0  0  0  0  0  0  0  0
   -0.1535   -0.3267   -0.4490 C   0  0  0  0  0  0  0  0  0  0  0  0
    1.3215   -2.3956   -0.4657 C   0  0  0  0  0  0  0  0  0  0  0  0
  -10.3570    0.1114    0.9877 H   0  0  0  0  0  0  0  0  0  0  0  0
  -10.8193    0.1983   -0.7043 H   0  0  0  0  0  0  0  0  0  0  0  0
  -10.7109    2.4464    0.2778 H   0  0  0  0  0  0  0  0  0  0  0  0
   -9.4795    2.2928   -0.9656 H   0  0  0  0  0  0  0  0  0  0  0  0
   -9.1505    2.2338    2.0564 H   0  0  0  0  0  0  0  0  0  0  0  0
   -8.3987    3.3131    0.8826 H   0  0  0  0  0  0  0  0  0  0  0  0
   -9.0349   -1.9970    1.0393 H   0  0  0  0  0  0  0  0  0  0  0  0
   -8.2586   -2.5142   -0.4707 H   0  0  0  0  0  0  0  0  0  0  0  0
   -9.9753   -2.1516   -0.4515 H   0  0  0  0  0  0  0  0  0  0  0  0
   -7.6706   -0.8753   -2.2472 H   0  0  0  0  0  0  0  0  0  0  0  0
   -8.2559    0.7888   -2.2126 H   0  0  0  0  0  0  0  0  0  0  0  0
   -9.3894   -0.5469   -2.4686 H   0  0  0  0  0  0  0  0  0  0  0  0
    8.2450    1.0452    1.7388 H   0  0  0  0  0  0  0  0  0  0  0  0
    8.4189    1.4155   -1.2966 H   0  0  0  0  0  0  0  0  0  0  0  0
    7.9047   -1.1454   -0.4093 H   0  0  0  0  0  0  0  0  0  0  0  0
    6.0873    2.3346    0.4721 H   0  0  0  0  0  0  0  0  0  0  0  0
    6.0650   -0.0613   -1.4462 H   0  0  0  0  0  0  0  0  0  0  0  0
   -6.4231   -1.7042    0.4039 H   0  0  0  0  0  0  0  0  0  0  0  0
   -6.7395    2.4662    2.7130 H   0  0  0  0  0  0  0  0  0  0  0  0
   -5.6690    1.1893    2.2263 H   0  0  0  0  0  0  0  0  0  0  0  0
   -5.7951    2.6766    1.2349 H   0  0  0  0  0  0  0  0  0  0  0  0
    9.0407   -1.9288    1.6763 H   0  0  0  0  0  0  0  0  0  0  0  0
    7.6840   -1.2785    2.6384 H   0  0  0  0  0  0  0  0  0  0  0  0
    9.9826    0.0164   -0.2672 H   0  0  0  0  0  0  0  0  0  0  0  0
    8.1814    3.1837    0.9105 H   0  0  0  0  0  0  0  0  0  0  0  0
   -4.9207    0.9362   -0.0599 H   0  0  0  0  0  0  0  0  0  0  0  0
    6.4477    2.0526   -2.3335 H   0  0  0  0  0  0  0  0  0  0  0  0
    7.4456   -3.4745    2.1502 H   0  0  0  0  0  0  0  0  0  0  0  0
   -2.9782   -2.9599    0.0258 H   0  0  0  0  0  0  0  0  0  0  0  0
   -4.3305   -2.6763    1.0907 H   0  0  0  0  0  0  0  0  0  0  0  0
   -4.5669   -2.7890   -0.6670 H   0  0  0  0  0  0  0  0  0  0  0  0
   -2.5449    0.7467   -0.2432 H   0  0  0  0  0  0  0  0  0  0  0  0
    2.0473    1.0257   -0.7718 H   0  0  0  0  0  0  0  0  0  0  0  0
   -1.2645   -2.0814   -0.2140 H   0  0  0  0  0  0  0  0  0  0  0  0
   -0.2062    0.7605   -0.5119 H   0  0  0  0  0  0  0  0  0  0  0  0
    2.3529   -2.7475   -0.4120 H   0  0  0  0  0  0  0  0  0  0  0  0
    0.8518   -2.8823   -1.3273 H   0  0  0  0  0  0  0  0  0  0  0  0
    0.8422   -2.7614    0.4496 H   0  0  0  0  0  0  0  0  0  0  0  0
  1 18  1  0  0  0  0
  1 20  1  0  0  0  0
  2 16  1  0  0  0  0
  2 57  1  0  0  0  0
  3 17  1  0  0  0  0
  3 58  1  0  0  0  0
  4 19  1  0  0  0  0
  4 60  1  0  0  0  0
  5 20  1  0  0  0  0
  5 26  1  0  0  0  0
  6 23  1  0  0  0  0
  6 61  1  0  0  0  0
  7 26  2  0  0  0  0
  8  9  1  0  0  0  0
  8 11  1  0  0  0  0
  8 14  1  0  0  0  0
  8 15  1  0  0  0  0
  9 10  1  0  0  0  0
  9 34  1  0  0  0  0
  9 35  1  0  0  0  0
 10 12  1  0  0  0  0
 10 36  1  0  0  0  0
 10 37  1  0  0  0  0
 11 13  2  0  0  0  0
 11 21  1  0  0  0  0
 12 13  1  0  0  0  0
 12 38  1  0  0  0  0
 12 39  1  0  0  0  0
 13 22  1  0  0  0  0
 14 40  1  0  0  0  0
 14 41  1  0  0  0  0
 14 42  1  0  0  0  0
 15 43  1  0  0  0  0
 15 44  1  0  0  0  0
 15 45  1  0  0  0  0
 16 17  1  0  0  0  0
 16 18  1  0  0  0  0
 16 46  1  0  0  0  0
 17 19  1  0  0  0  0
 17 47  1  0  0  0  0
 18 23  1  0  0  0  0
 18 48  1  0  0  0  0
 19 20  1  0  0  0  0
 19 49  1  0  0  0  0
 20 50  1  0  0  0  0
 21 24  2  0  0  0  0
 21 51  1  0  0  0  0
 22 52  1  0  0  0  0
 22 53  1  0  0  0  0
 22 54  1  0  0  0  0
 23 55  1  0  0  0  0
 23 56  1  0  0  0  0
 24 25  1  0  0  0  0
 24 59  1  0  0  0  0
 25 27  1  0  0  0  0
 25 28  2  0  0  0  0
 26 29  1  0  0  0  0
 27 62  1  0  0  0  0
 27 63  1  0  0  0  0
 27 64  1  0  0  0  0
 28 31  1  0  0  0  0
 28 65  1  0  0  0  0
 29 30  2  0  0  0  0
 29 66  1  0  0  0  0
 30 32  1  0  0  0  0
 30 33  1  0  0  0  0
 31 32  2  0  0  0  0
 31 67  1  0  0  0  0
 32 68  1  0  0  0  0
 33 69  1  0  0  0  0
 33 70  1  0  0  0  0
 33 71  1  0  0  0  0
M  END
> <PUBCHEM_COMPOUND_CID>
10253806

> <PUBCHEM_CONFORMER_RMSD>
1.2

> <PUBCHEM_CONFORMER_DIVERSEORDER>
1
85
97
118
11
70
25
107
42
75
64
37
21
32
82
31
108
68
110
98
40
80
111
38
41
73
105
60
65
104
120
102
77
92
30
36
47
116
52
101
46
103
112
24
72
23
59
14
127
95
54
58
22
13
74
39
123
81
51
17
83
49
7
84
115
56
126
90
44
76
94
55
34
19
63
69
61
48
121
99
4
27
93
113
122
86
16
20
5
50
6
10
128
66
100
91
71
129
18
109
124
43
45
29
96
53
2
87
78
15
62
28
8
79
67
35
106
89
57
33
114
26
88
12
3
9
117
119
125

> <PUBCHEM_MMFF94_PARTIAL_CHARGES>
39
1 -0.56
11 -0.14
12 0.14
13 -0.28
16 0.28
17 0.28
18 0.28
19 0.28
2 -0.68
20 0.56
21 -0.15
22 0.14
23 0.28
24 -0.15
25 -0.14
26 0.71
27 0.14
28 -0.15
29 -0.14
3 -0.68
30 -0.14
31 -0.15
32 -0.15
33 0.14
4 -0.68
5 -0.43
51 0.15
57 0.4
58 0.4
59 0.15
6 -0.68
60 0.4
61 0.4
65 0.15
66 0.15
67 0.15
68 0.15
7 -0.57
8 0.14

> <PUBCHEM_EFFECTIVE_ROTOR_COUNT>
10

> <PUBCHEM_PHARMACOPHORE_FEATURES>
15
1 1 acceptor
1 2 acceptor
1 2 donor
1 27 hydrophobe
1 3 acceptor
1 3 donor
1 33 hydrophobe
1 4 acceptor
1 4 donor
1 6 acceptor
1 6 donor
1 7 acceptor
3 8 14 15 hydrophobe
6 1 16 17 18 19 20 rings
6 8 9 10 11 12 13 rings

> <PUBCHEM_HEAVY_ATOM_COUNT>
33

> <PUBCHEM_ATOM_DEF_STEREO_COUNT>
5

> <PUBCHEM_ATOM_UDEF_STEREO_COUNT>
0

> <PUBCHEM_BOND_DEF_STEREO_COUNT>
4

> <PUBCHEM_BOND_UDEF_STEREO_COUNT>
0

> <PUBCHEM_ISOTOPIC_ATOM_COUNT>
0

> <PUBCHEM_COMPONENT_COUNT>
1

> <PUBCHEM_CACTVS_TAUTO_COUNT>
1

> <PUBCHEM_CONFORMER_ID>
009C75EE00000001

> <PUBCHEM_MMFF94_ENERGY>
89.5498

> <PUBCHEM_FEATURE_SELFOVERLAP>
76.137

> <PUBCHEM_SHAPE_FINGERPRINT>
10076449 9 15626225719813268451
10533779 47 16950285065978124016
11315181 36 18272656737034796945
12013929 2 18343305851939880638
12089408 11 18410572890430922667
12522641 24 18261106366805034882
12539745 222 12540688220618544271
12559415 141 8214144100887304105
12758862 56 14057006048386615405
13553643 46 18040714766786426181
14040222 383 18271805769910176667
14118638 360 15913059676599142810
14251764 46 18411418419251967895
150020 25 14189571957470600903
15064986 266 11600009864884389959
15461852 350 17203328940496750055
15554971 5 18335703866672505687
15840311 113 18335704923519569846
17324776 126 13844256154178362265
1754911 235 13039188100357897587
19315958 150 18412831261429098215
20812841 46 18114178628011590650
21267235 1 8430316827397789959
21362267 2 16916488338084199408
21362267 313 18269273469607527122
21591340 7 18412542132809668271
21792934 111 17603583032557839700
23576562 1 14763766633889869985
24771293 8 18413113849339967117
249057 3 15267057073418563061
306946 40 16271918338519702850
395649 100 18342735269914464591
397638 26 16226054409489031643
4073 2 18409457998979596455
44802255 64 16487255449089634997
45377200 153 11527649896495813693
54039377 194 9151170953219930467
5937810 71 16916517948274117593
6126387 218 18113899343632043373
636775 72 18342462513636845065
67123 10 18273215313904610335
9937071 3 14707204405909376720

> <PUBCHEM_SHAPE_MULTIPOLES>
638.04
43.95
2.59
1.27
2.32
0.42
-0.07
16.7
-7.03
-1.5
-0.39
-0.32
0.05
-3.8

> <PUBCHEM_SHAPE_SELFOVERLAP>
1301.051

> <PUBCHEM_SHAPE_VOLUME>
366.5

> <PUBCHEM_COORDINATE_TYPE>
2
5
10

$$$$
