102516030
  -OEChem-03292013293D

 21 22  0     1  0  0  0  0  0999 V2000
   -2.8552    0.5449    0.2200 O   0  0  0  0  0  0  0  0  0  0  0  0
   -1.7789    2.3816   -0.8219 O   0  0  0  0  0  0  0  0  0  0  0  0
    1.2014    2.1529    0.2311 O   0  0  0  0  0  0  0  0  0  0  0  0
    2.1198   -2.5477   -0.2122 O   0  0  0  0  0  0  0  0  0  0  0  0
   -3.1725   -1.7390    0.0254 O   0  0  0  0  0  0  0  0  0  0  0  0
    3.5802    1.2245    0.0717 O   0  0  0  0  0  0  0  0  0  0  0  0
   -0.5743    0.5706    0.1416 C   0  0  0  0  0  0  0  0  0  0  0  0
   -1.0041   -0.7375    0.0438 C   0  0  0  0  0  0  0  0  0  0  0  0
   -1.7408    1.4707    0.2620 C   0  0  2  0  0  0  0  0  0  0  0  0
    0.7775    0.8654    0.1269 C   0  0  0  0  0  0  0  0  0  0  0  0
   -0.1324   -1.8042   -0.0764 C   0  0  0  0  0  0  0  0  0  0  0  0
    1.6856   -0.1911    0.0064 C   0  0  0  0  0  0  0  0  0  0  0  0
   -2.4571   -0.7594    0.0893 C   0  0  0  0  0  0  0  0  0  0  0  0
    1.2330   -1.5176   -0.0950 C   0  0  0  0  0  0  0  0  0  0  0  0
    3.1179    0.0861   -0.0127 C   0  0  0  0  0  0  0  0  0  0  0  0
   -1.7507    2.0020    1.2196 H   0  0  0  0  0  0  0  0  0  0  0  0
   -0.5004   -2.8217   -0.1525 H   0  0  0  0  0  0  0  0  0  0  0  0
   -2.3367    3.1292   -0.5478 H   0  0  0  0  0  0  0  0  0  0  0  0
    3.8013   -0.7734   -0.1076 H   0  0  0  0  0  0  0  0  0  0  0  0
    2.1671    2.2085    0.2700 H   0  0  0  0  0  0  0  0  0  0  0  0
    1.6284   -3.3850   -0.2697 H   0  0  0  0  0  0  0  0  0  0  0  0
  1  9  1  0  0  0  0
  1 13  1  0  0  0  0
  2  9  1  0  0  0  0
  2 18  1  0  0  0  0
  3 10  1  0  0  0  0
  3 20  1  0  0  0  0
  4 14  1  0  0  0  0
  4 21  1  0  0  0  0
  5 13  2  0  0  0  0
  6 15  2  0  0  0  0
  7  8  1  0  0  0  0
  7  9  1  0  0  0  0
  7 10  2  0  0  0  0
  8 11  2  0  0  0  0
  8 13  1  0  0  0  0
  9 16  1  0  0  0  0
 10 12  1  0  0  0  0
 11 14  1  0  0  0  0
 11 17  1  0  0  0  0
 12 14  2  0  0  0  0
 12 15  1  0  0  0  0
 15 19  1  0  0  0  0
M  END
> <PUBCHEM_COMPOUND_CID>
102516030

> <PUBCHEM_CONFORMER_RMSD>
0.6

> <PUBCHEM_CONFORMER_DIVERSEORDER>
1

> <PUBCHEM_MMFF94_PARTIAL_CHARGES>
20
1 -0.43
10 0.08
11 -0.15
12 0.09
13 0.63
14 0.08
15 0.42
17 0.15
18 0.4
19 0.06
2 -0.68
20 0.45
21 0.45
3 -0.53
4 -0.53
5 -0.57
6 -0.57
7 -0.14
8 0.09
9 0.7

> <PUBCHEM_EFFECTIVE_ROTOR_COUNT>
1.4

> <PUBCHEM_PHARMACOPHORE_FEATURES>
8
1 2 acceptor
1 2 donor
1 3 donor
1 4 donor
1 5 acceptor
1 6 acceptor
5 1 7 8 9 13 rings
6 7 8 10 11 12 14 rings

> <PUBCHEM_HEAVY_ATOM_COUNT>
15

> <PUBCHEM_ATOM_DEF_STEREO_COUNT>
0

> <PUBCHEM_ATOM_UDEF_STEREO_COUNT>
1

> <PUBCHEM_BOND_DEF_STEREO_COUNT>
0

> <PUBCHEM_BOND_UDEF_STEREO_COUNT>
0

> <PUBCHEM_ISOTOPIC_ATOM_COUNT>
0

> <PUBCHEM_COMPONENT_COUNT>
1

> <PUBCHEM_CACTVS_TAUTO_COUNT>
13

> <PUBCHEM_CONFORMER_ID>
061C453E00000001

> <PUBCHEM_MMFF94_ENERGY>
36.8225

> <PUBCHEM_FEATURE_SELFOVERLAP>
40.687

> <PUBCHEM_SHAPE_FINGERPRINT>
10608611 8 18337952277350799124
10967382 1 18411419509598492155
11132069 177 18412823616149148400
11206711 2 18410575101916931461
12423570 1 18041856012167635733
13140716 1 17979354488487730786
13380535 21 18340216175992262265
13380535 76 18409728503939329106
13897977 150 18339358535532351420
14325111 11 18411702088671974248
14614273 12 18335134267745758621
15042514 8 18050283966964707018
15775835 57 18341058457786474097
16945 1 18411136978060008571
193761 8 18338798884008071515
19973954 147 18339081475729124075
20510252 161 18272654601254909488
20588541 1 18338521957423086291
21501502 16 18339359665108652835
22344851 341 18189894214865989938
2334 1 18339643343435325754
23402539 116 18197488730520521062
23402655 69 18270104727038244365
23463225 33 18336261271865235210
23552423 10 18263085430982720635
23559900 14 17837491852673752406
25 1 16892292180202490477
2748010 2 18268149764497388430
43471831 8 18408318908716095394
5084963 1 18130791216970772536
5255222 1 18342731957380835681
528886 8 18411978095896847915
53812653 166 18344143696178106160
63268167 104 18341053999531221824
7364860 26 18270964523229170766

> <PUBCHEM_SHAPE_MULTIPOLES>
273.48
4.63
2.49
0.63
0.8
0.07
0.02
-0.1
-0.04
-0.01
0.24
-0.07
-0.09
0.27

> <PUBCHEM_SHAPE_SELFOVERLAP>
608.048

> <PUBCHEM_SHAPE_VOLUME>
146

> <PUBCHEM_COORDINATE_TYPE>
2
5
10

$$$$
