102595861
  -OEChem-03292013293D

 73 75  0     1  0  0  0  0  0999 V2000
   -1.5095   -1.5964    0.2226 O   0  0  0  0  0  0  0  0  0  0  0  0
   -3.7744    2.4126   -2.0445 O   0  0  0  0  0  0  0  0  0  0  0  0
   -1.5196   -3.8882   -1.4057 O   0  0  0  0  0  0  0  0  0  0  0  0
    1.1650    2.1587   -1.2287 O   0  0  0  0  0  0  0  0  0  0  0  0
    3.0592   -1.9999    0.0040 O   0  0  0  0  0  0  0  0  0  0  0  0
    3.8274    1.1364   -1.9372 O   0  0  0  0  0  0  0  0  0  0  0  0
   -2.4582    1.3333   -0.2829 C   0  0  2  0  0  0  0  0  0  0  0  0
   -3.8508    1.5649   -0.8987 C   0  0  1  0  0  0  0  0  0  0  0  0
   -2.1376    2.6984    0.3621 C   0  0  1  0  0  0  0  0  0  0  0  0
   -4.5690    2.3345    0.2114 C   0  0  0  0  0  0  0  0  0  0  0  0
   -3.4998    3.2429    0.8281 C   0  0  0  0  0  0  0  0  0  0  0  0
   -1.3942    0.8890   -1.2641 C   0  0  0  0  0  0  0  0  0  0  0  0
    0.8253   -1.5560    0.8018 C   0  0  1  0  0  0  0  0  0  0  0  0
   -0.2170    0.2707   -0.5581 C   0  0  0  0  0  0  0  0  0  0  0  0
   -0.3339   -0.8632    0.1552 C   0  0  0  0  0  0  0  0  0  0  0  0
    0.3792   -2.9921    0.6059 C   0  0  0  0  0  0  0  0  0  0  0  0
   -1.1370   -2.8864    0.7420 C   0  0  2  0  0  0  0  0  0  0  0  0
   -4.5839    0.2848   -1.2791 C   0  0  0  0  0  0  0  0  0  0  0  0
   -1.1377    2.6217    1.4707 C   0  0  0  0  0  0  0  0  0  0  0  0
    2.1160   -1.2131    0.0654 C   0  0  0  0  0  0  0  0  0  0  0  0
   -1.8744   -3.9721   -0.0219 C   0  0  0  0  0  0  0  0  0  0  0  0
    1.1097    0.8637   -0.7409 C   0  0  0  0  0  0  0  0  0  0  0  0
    0.9744   -1.1811    2.2797 C   0  0  0  0  0  0  0  0  0  0  0  0
    2.2450    0.1716   -0.5041 C   0  0  0  0  0  0  0  0  0  0  0  0
   -1.4961    1.7329    2.6246 C   0  0  0  0  0  0  0  0  0  0  0  0
    0.0138    3.3087    1.4359 C   0  0  0  0  0  0  0  0  0  0  0  0
   -1.4922   -5.3650    0.4870 C   0  0  0  0  0  0  0  0  0  0  0  0
   -3.3892   -3.7725    0.0698 C   0  0  0  0  0  0  0  0  0  0  0  0
    3.5566    0.7640   -0.7932 C   0  0  0  0  0  0  0  0  0  0  0  0
    4.5307    0.9219    0.3740 C   0  0  1  0  0  0  0  0  0  0  0  0
    5.9938    0.8213   -0.0834 C   0  0  0  0  0  0  0  0  0  0  0  0
    4.2685    2.2703    1.0426 C   0  0  0  0  0  0  0  0  0  0  0  0
    6.3102   -0.5164   -0.7402 C   0  0  0  0  0  0  0  0  0  0  0  0
   -2.6080    0.5791    0.4968 H   0  0  0  0  0  0  0  0  0  0  0  0
   -1.7688    3.3803   -0.4182 H   0  0  0  0  0  0  0  0  0  0  0  0
   -4.9379    1.6482    0.9836 H   0  0  0  0  0  0  0  0  0  0  0  0
   -5.4161    2.9241   -0.1547 H   0  0  0  0  0  0  0  0  0  0  0  0
   -3.6237    4.2634    0.4427 H   0  0  0  0  0  0  0  0  0  0  0  0
   -3.6335    3.3155    1.9108 H   0  0  0  0  0  0  0  0  0  0  0  0
   -1.1015    1.7143   -1.9231 H   0  0  0  0  0  0  0  0  0  0  0  0
   -1.8017    0.1276   -1.9422 H   0  0  0  0  0  0  0  0  0  0  0  0
    0.8099   -3.6810    1.3410 H   0  0  0  0  0  0  0  0  0  0  0  0
    0.6806   -3.3526   -0.3863 H   0  0  0  0  0  0  0  0  0  0  0  0
   -1.4243   -2.9061    1.8018 H   0  0  0  0  0  0  0  0  0  0  0  0
   -4.6512   -0.4100   -0.4360 H   0  0  0  0  0  0  0  0  0  0  0  0
   -4.0862   -0.2247   -2.1106 H   0  0  0  0  0  0  0  0  0  0  0  0
   -5.6014    0.5086   -1.6196 H   0  0  0  0  0  0  0  0  0  0  0  0
   -4.6802    2.5787   -2.3567 H   0  0  0  0  0  0  0  0  0  0  0  0
    1.7682   -1.7728    2.7502 H   0  0  0  0  0  0  0  0  0  0  0  0
    0.0529   -1.3475    2.8478 H   0  0  0  0  0  0  0  0  0  0  0  0
    1.2472   -0.1258    2.3994 H   0  0  0  0  0  0  0  0  0  0  0  0
   -2.4345    2.0287    3.0996 H   0  0  0  0  0  0  0  0  0  0  0  0
   -1.5728    0.6841    2.3329 H   0  0  0  0  0  0  0  0  0  0  0  0
   -0.7289    1.7774    3.4070 H   0  0  0  0  0  0  0  0  0  0  0  0
    0.7341    3.2430    2.2446 H   0  0  0  0  0  0  0  0  0  0  0  0
    0.2603    3.9621    0.6060 H   0  0  0  0  0  0  0  0  0  0  0  0
   -3.7339   -3.7801    1.1090 H   0  0  0  0  0  0  0  0  0  0  0  0
   -1.6926   -5.4708    1.5582 H   0  0  0  0  0  0  0  0  0  0  0  0
   -0.4353   -5.5860    0.3030 H   0  0  0  0  0  0  0  0  0  0  0  0
   -2.0560   -6.1406   -0.0445 H   0  0  0  0  0  0  0  0  0  0  0  0
   -3.6975   -2.8295   -0.3945 H   0  0  0  0  0  0  0  0  0  0  0  0
   -3.9207   -4.5630   -0.4729 H   0  0  0  0  0  0  0  0  0  0  0  0
   -1.9885   -4.5957   -1.8805 H   0  0  0  0  0  0  0  0  0  0  0  0
    2.0867    2.4559   -1.2887 H   0  0  0  0  0  0  0  0  0  0  0  0
    4.3461    0.1268    1.1059 H   0  0  0  0  0  0  0  0  0  0  0  0
    6.6549    0.9536    0.7816 H   0  0  0  0  0  0  0  0  0  0  0  0
    6.2299    1.6261   -0.7905 H   0  0  0  0  0  0  0  0  0  0  0  0
    4.4117    3.0981    0.3392 H   0  0  0  0  0  0  0  0  0  0  0  0
    3.2402    2.3298    1.4149 H   0  0  0  0  0  0  0  0  0  0  0  0
    4.9418    2.4225    1.8924 H   0  0  0  0  0  0  0  0  0  0  0  0
    6.0795   -1.3469   -0.0653 H   0  0  0  0  0  0  0  0  0  0  0  0
    5.7511   -0.6618   -1.6687 H   0  0  0  0  0  0  0  0  0  0  0  0
    7.3760   -0.5686   -0.9853 H   0  0  0  0  0  0  0  0  0  0  0  0
  1 15  1  0  0  0  0
  1 17  1  0  0  0  0
  2  8  1  0  0  0  0
  2 48  1  0  0  0  0
  3 21  1  0  0  0  0
  3 63  1  0  0  0  0
  4 22  1  0  0  0  0
  4 64  1  0  0  0  0
  5 20  2  0  0  0  0
  6 29  2  0  0  0  0
  7  8  1  0  0  0  0
  7  9  1  0  0  0  0
  7 12  1  0  0  0  0
  7 34  1  0  0  0  0
  8 10  1  0  0  0  0
  8 18  1  0  0  0  0
  9 11  1  0  0  0  0
  9 19  1  0  0  0  0
  9 35  1  0  0  0  0
 10 11  1  0  0  0  0
 10 36  1  0  0  0  0
 10 37  1  0  0  0  0
 11 38  1  0  0  0  0
 11 39  1  0  0  0  0
 12 14  1  0  0  0  0
 12 40  1  0  0  0  0
 12 41  1  0  0  0  0
 13 15  1  0  0  0  0
 13 16  1  0  0  0  0
 13 20  1  0  0  0  0
 13 23  1  0  0  0  0
 14 15  2  0  0  0  0
 14 22  1  0  0  0  0
 16 17  1  0  0  0  0
 16 42  1  0  0  0  0
 16 43  1  0  0  0  0
 17 21  1  0  0  0  0
 17 44  1  0  0  0  0
 18 45  1  0  0  0  0
 18 46  1  0  0  0  0
 18 47  1  0  0  0  0
 19 25  1  0  0  0  0
 19 26  2  0  0  0  0
 20 24  1  0  0  0  0
 21 27  1  0  0  0  0
 21 28  1  0  0  0  0
 22 24  2  0  0  0  0
 23 49  1  0  0  0  0
 23 50  1  0  0  0  0
 23 51  1  0  0  0  0
 24 29  1  0  0  0  0
 25 52  1  0  0  0  0
 25 53  1  0  0  0  0
 25 54  1  0  0  0  0
 26 55  1  0  0  0  0
 26 56  1  0  0  0  0
 27 58  1  0  0  0  0
 27 59  1  0  0  0  0
 27 60  1  0  0  0  0
 28 57  1  0  0  0  0
 28 61  1  0  0  0  0
 28 62  1  0  0  0  0
 29 30  1  0  0  0  0
 30 31  1  0  0  0  0
 30 32  1  0  0  0  0
 30 65  1  0  0  0  0
 31 33  1  0  0  0  0
 31 66  1  0  0  0  0
 31 67  1  0  0  0  0
 32 68  1  0  0  0  0
 32 69  1  0  0  0  0
 32 70  1  0  0  0  0
 33 71  1  0  0  0  0
 33 72  1  0  0  0  0
 33 73  1  0  0  0  0
M  END
> <PUBCHEM_COMPOUND_CID>
102595861

> <PUBCHEM_CONFORMER_RMSD>
1

> <PUBCHEM_CONFORMER_DIVERSEORDER>
1
102
54
79
36
52
114
99
100
91
47
104
15
32
115
58
103
88
98
43
116
50
82
11
117
109
90
19
14
105
33
55
53
18
92
77
6
44
112
62
95
10
56
94
7
111
106
23
80
37
22
113
13
68
63
71
108
57
46
75
86
31
83
12
16
21
42
110
66
69
76
67
78
41
49
81
17
97
64
9
2
29
93
39
65
51
59
35
27
48
84
74
30
89
28
61
101
60
34
5
40
107
3
73
8
20
70
24
45
85
26
4
38
96
87
72
25

> <PUBCHEM_MMFF94_PARTIAL_CHARGES>
27
1 -0.36
12 0.14
13 0.2
14 -0.14
15 -0.06
17 0.28
19 -0.28
2 -0.68
20 0.49
21 0.28
22 0.08
24 0.03
25 0.14
26 -0.3
29 0.49
3 -0.68
30 0.06
4 -0.53
48 0.4
5 -0.57
55 0.15
56 0.15
6 -0.57
63 0.4
64 0.45
8 0.28
9 0.14

> <PUBCHEM_EFFECTIVE_ROTOR_COUNT>
8.6

> <PUBCHEM_PHARMACOPHORE_FEATURES>
15
1 1 acceptor
1 2 acceptor
1 2 donor
1 24 anion
1 3 acceptor
1 3 donor
1 32 hydrophobe
1 33 hydrophobe
1 4 donor
1 5 acceptor
1 6 acceptor
3 21 27 28 hydrophobe
5 1 13 15 16 17 rings
5 7 8 9 10 11 rings
6 13 14 15 20 22 24 rings

> <PUBCHEM_HEAVY_ATOM_COUNT>
33

> <PUBCHEM_ATOM_DEF_STEREO_COUNT>
4

> <PUBCHEM_ATOM_UDEF_STEREO_COUNT>
2

> <PUBCHEM_BOND_DEF_STEREO_COUNT>
0

> <PUBCHEM_BOND_UDEF_STEREO_COUNT>
0

> <PUBCHEM_ISOTOPIC_ATOM_COUNT>
0

> <PUBCHEM_COMPONENT_COUNT>
1

> <PUBCHEM_CACTVS_TAUTO_COUNT>
7

> <PUBCHEM_CONFORMER_ID>
061D7D1500000001

> <PUBCHEM_MMFF94_ENERGY>
95.4317

> <PUBCHEM_FEATURE_SELFOVERLAP>
76.222

> <PUBCHEM_SHAPE_FINGERPRINT>
1100329 8 18337955713556984861
11115154 58 17697008690796237199
11421498 54 17984418538814482689
11578080 2 17773031088590971594
121448 382 18272376330234247505
12156800 1 17976225201075009665
12160290 23 18046380605721639170
12293681 160 18130217151938090153
12403259 226 17763744686381686978
12788726 201 17902523906252743222
13134695 92 10086766265991909481
13140716 1 17905050600789426571
14787075 74 18272638065662630309
14790565 3 18192430766911461860
15297060 5 18201162035823479729
15664445 248 17263009047982677726
17138139 8 18054474081355557199
19319366 153 18197771099588731917
20642791 105 18262226845655982170
20739085 24 17471850299410358010
20775438 99 17048193527644055543
21033648 144 17896603882150937133
21033650 10 17272592542250125656
21796203 349 17184778795792977139
23419403 2 17343500304242793329
23557571 272 18270121335323401662
23558518 356 17898295158567568052
23559900 14 18342455968001021616
23929065 36 18195789985477256114
283562 15 18118400885395124474
3493558 16 17464813867316051940
35225 105 17831345818074129153
38695281 34 18190459359368117492
3886686 26 18121470537630131754
392239 28 18343033185202863289
394222 165 17822847555121456440
4066623 53 17761188305142012407
4258327 124 17750530623017614844
4409770 3 18337111263041691467
469060 322 17896621646235744657
484989 97 18191300679986823951
5171179 24 17697589253666038201
56638632 10 16119637334418047824
57527585 103 17985855771962498256
59755656 520 18409449150697347636
6287921 2 17692802693066712539
70251023 43 17411596388014315311
9981440 41 18264778657678501473

> <PUBCHEM_SHAPE_MULTIPOLES>
643.91
9.39
5.83
1.71
11.49
7.06
-0.41
-5.04
3.03
-6.64
-1.37
-0.43
-0.91
-0.01

> <PUBCHEM_SHAPE_SELFOVERLAP>
1359.861

> <PUBCHEM_SHAPE_VOLUME>
364.5

> <PUBCHEM_COORDINATE_TYPE>
2
5
10

$$$$
