102515056
  -OEChem-03292013293D

 56 58  0     1  0  0  0  0  0999 V2000
   -3.1358    0.9993    0.7453 O   0  0  0  0  0  0  0  0  0  0  0  0
   -3.5381    0.9008   -1.5959 O   0  0  0  0  0  0  0  0  0  0  0  0
   -5.2719   -2.0734   -2.0709 O   0  0  0  0  0  0  0  0  0  0  0  0
    3.8074    2.0839   -0.1473 O   0  0  0  0  0  0  0  0  0  0  0  0
    5.0746   -2.0588    0.2161 O   0  0  0  0  0  0  0  0  0  0  0  0
    6.5068    2.2810   -0.9317 O   0  0  0  0  0  0  0  0  0  0  0  0
    7.5292    0.1597   -0.8511 N   0  0  0  0  0  0  0  0  0  0  0  0
   -2.5280   -1.0116   -0.5268 C   0  0  2  0  0  0  0  0  0  0  0  0
   -2.9039   -0.4146    0.8485 C   0  0  1  0  0  0  0  0  0  0  0  0
   -3.4825   -0.5190   -1.6280 C   0  0  1  0  0  0  0  0  0  0  0  0
   -4.0189    1.3665   -0.3253 C   0  0  1  0  0  0  0  0  0  0  0  0
   -1.8068   -0.6027    1.8924 C   0  0  2  0  0  0  0  0  0  0  0  0
   -5.4322    0.8505   -0.0799 C   0  0  0  0  0  0  0  0  0  0  0  0
   -2.4207   -2.5352   -0.5026 C   0  0  0  0  0  0  0  0  0  0  0  0
   -4.9109   -1.0337   -1.5238 C   0  0  0  0  0  0  0  0  0  0  0  0
   -3.9681    2.8938   -0.4231 C   0  0  0  0  0  0  0  0  0  0  0  0
   -5.8680   -0.2640   -0.6901 C   0  0  0  0  0  0  0  0  0  0  0  0
   -2.2259    0.0184    3.2271 C   0  0  0  0  0  0  0  0  0  0  0  0
   -0.5195    0.0316    1.4138 C   0  0  0  0  0  0  0  0  0  0  0  0
   -6.3090    1.5794    0.8975 C   0  0  0  0  0  0  0  0  0  0  0  0
    0.6760   -0.5521    1.1819 C   0  0  0  0  0  0  0  0  0  0  0  0
    0.9464   -2.0235    1.3581 C   0  0  0  0  0  0  0  0  0  0  0  0
    1.7872    0.2908    0.7257 C   0  0  0  0  0  0  0  0  0  0  0  0
    3.0393   -0.1135    0.4468 C   0  0  0  0  0  0  0  0  0  0  0  0
    4.1202    0.7462   -0.0029 C   0  0  0  0  0  0  0  0  0  0  0  0
    5.3489    0.2777   -0.2641 C   0  0  0  0  0  0  0  0  0  0  0  0
    5.7797   -1.1304   -0.1406 C   0  0  0  0  0  0  0  0  0  0  0  0
    7.2302   -1.2293   -0.5275 C   0  0  0  0  0  0  0  0  0  0  0  0
    6.4942    1.0823   -0.7219 C   0  0  0  0  0  0  0  0  0  0  0  0
   -1.5496   -0.6129   -0.8240 H   0  0  0  0  0  0  0  0  0  0  0  0
   -3.8187   -0.8888    1.2260 H   0  0  0  0  0  0  0  0  0  0  0  0
   -3.1028   -0.7992   -2.6174 H   0  0  0  0  0  0  0  0  0  0  0  0
   -1.6824   -1.6723    2.0746 H   0  0  0  0  0  0  0  0  0  0  0  0
   -3.3402   -2.9949   -0.1258 H   0  0  0  0  0  0  0  0  0  0  0  0
   -1.5970   -2.8731    0.1296 H   0  0  0  0  0  0  0  0  0  0  0  0
   -2.2353   -2.9258   -1.5090 H   0  0  0  0  0  0  0  0  0  0  0  0
   -2.9549    3.2224   -0.6858 H   0  0  0  0  0  0  0  0  0  0  0  0
   -4.2153    3.3752    0.5292 H   0  0  0  0  0  0  0  0  0  0  0  0
   -4.6383    3.2705   -1.2038 H   0  0  0  0  0  0  0  0  0  0  0  0
   -6.8614   -0.6699   -0.5431 H   0  0  0  0  0  0  0  0  0  0  0  0
   -2.3384    1.1067    3.1670 H   0  0  0  0  0  0  0  0  0  0  0  0
   -3.1781   -0.4013    3.5696 H   0  0  0  0  0  0  0  0  0  0  0  0
   -1.4766   -0.1904    3.9995 H   0  0  0  0  0  0  0  0  0  0  0  0
   -0.5928    1.1094    1.2572 H   0  0  0  0  0  0  0  0  0  0  0  0
   -5.7927    1.6990    1.8556 H   0  0  0  0  0  0  0  0  0  0  0  0
   -7.2415    1.0392    1.0941 H   0  0  0  0  0  0  0  0  0  0  0  0
   -6.5776    2.5689    0.5153 H   0  0  0  0  0  0  0  0  0  0  0  0
    1.2008   -2.4851    0.3977 H   0  0  0  0  0  0  0  0  0  0  0  0
    0.1026   -2.5814    1.7664 H   0  0  0  0  0  0  0  0  0  0  0  0
    1.7751   -2.1823    2.0576 H   0  0  0  0  0  0  0  0  0  0  0  0
    1.5473    1.3472    0.6112 H   0  0  0  0  0  0  0  0  0  0  0  0
    3.2233   -1.1661    0.5729 H   0  0  0  0  0  0  0  0  0  0  0  0
    7.8527   -1.5432    0.3116 H   0  0  0  0  0  0  0  0  0  0  0  0
    7.3708   -1.8425   -1.4187 H   0  0  0  0  0  0  0  0  0  0  0  0
    8.4546    0.4431   -1.1576 H   0  0  0  0  0  0  0  0  0  0  0  0
    4.5928    2.5682   -0.4500 H   0  0  0  0  0  0  0  0  0  0  0  0
  1  9  1  0  0  0  0
  1 11  1  0  0  0  0
  2 10  1  0  0  0  0
  2 11  1  0  0  0  0
  3 15  2  0  0  0  0
  4 25  1  0  0  0  0
  4 56  1  0  0  0  0
  5 27  2  0  0  0  0
  6 29  2  0  0  0  0
  7 28  1  0  0  0  0
  7 29  1  0  0  0  0
  7 55  1  0  0  0  0
  8  9  1  0  0  0  0
  8 10  1  0  0  0  0
  8 14  1  0  0  0  0
  8 30  1  0  0  0  0
  9 12  1  0  0  0  0
  9 31  1  0  0  0  0
 10 15  1  0  0  0  0
 10 32  1  0  0  0  0
 11 13  1  0  0  0  0
 11 16  1  0  0  0  0
 12 18  1  0  0  0  0
 12 19  1  0  0  0  0
 12 33  1  0  0  0  0
 13 17  2  0  0  0  0
 13 20  1  0  0  0  0
 14 34  1  0  0  0  0
 14 35  1  0  0  0  0
 14 36  1  0  0  0  0
 15 17  1  0  0  0  0
 16 37  1  0  0  0  0
 16 38  1  0  0  0  0
 16 39  1  0  0  0  0
 17 40  1  0  0  0  0
 18 41  1  0  0  0  0
 18 42  1  0  0  0  0
 18 43  1  0  0  0  0
 19 21  2  0  0  0  0
 19 44  1  0  0  0  0
 20 45  1  0  0  0  0
 20 46  1  0  0  0  0
 20 47  1  0  0  0  0
 21 22  1  0  0  0  0
 21 23  1  0  0  0  0
 22 48  1  0  0  0  0
 22 49  1  0  0  0  0
 22 50  1  0  0  0  0
 23 24  2  0  0  0  0
 23 51  1  0  0  0  0
 24 25  1  0  0  0  0
 24 52  1  0  0  0  0
 25 26  2  0  0  0  0
 26 27  1  0  0  0  0
 26 29  1  0  0  0  0
 27 28  1  0  0  0  0
 28 53  1  0  0  0  0
 28 54  1  0  0  0  0
M  END
> <PUBCHEM_COMPOUND_CID>
102515056

> <PUBCHEM_CONFORMER_RMSD>
0.8

> <PUBCHEM_CONFORMER_DIVERSEORDER>
1
13
27
7
37
35
11
5
22
25
31
3
32
23
15
18
12
33
29
30
2
21
20
9
4
10
24
28
34
16
17
19
8
36
6
26
14

> <PUBCHEM_MMFF94_PARTIAL_CHARGES>
31
1 -0.56
10 0.34
11 0.7
12 0.14
13 -0.28
15 0.49
17 -0.14
19 -0.29
2 -0.56
20 0.14
21 -0.14
22 0.14
23 -0.15
24 -0.15
25 0.08
26 0.03
27 0.49
28 0.36
29 0.62
3 -0.57
4 -0.53
40 0.15
44 0.15
5 -0.57
51 0.15
52 0.15
55 0.37
56 0.45
6 -0.57
7 -0.73
9 0.28

> <PUBCHEM_EFFECTIVE_ROTOR_COUNT>
5.2

> <PUBCHEM_PHARMACOPHORE_FEATURES>
13
1 1 acceptor
1 18 hydrophobe
1 2 acceptor
1 22 hydrophobe
1 26 anion
1 3 acceptor
1 4 donor
1 5 acceptor
1 6 acceptor
1 7 donor
5 7 26 27 28 29 rings
6 1 2 8 9 10 11 rings
6 2 10 11 13 15 17 rings

> <PUBCHEM_HEAVY_ATOM_COUNT>
29

> <PUBCHEM_ATOM_DEF_STEREO_COUNT>
3

> <PUBCHEM_ATOM_UDEF_STEREO_COUNT>
2

> <PUBCHEM_BOND_DEF_STEREO_COUNT>
3

> <PUBCHEM_BOND_UDEF_STEREO_COUNT>
0

> <PUBCHEM_ISOTOPIC_ATOM_COUNT>
0

> <PUBCHEM_COMPONENT_COUNT>
1

> <PUBCHEM_CACTVS_TAUTO_COUNT>
78

> <PUBCHEM_CONFORMER_ID>
061C417000000001

> <PUBCHEM_MMFF94_ENERGY>
72.9316

> <PUBCHEM_FEATURE_SELFOVERLAP>
67.471

> <PUBCHEM_SHAPE_FINGERPRINT>
10 15 13623534562845595766
10554248 39 18335996298669788718
10613725 11 18342174453830976490
10670039 82 17894907387191188892
10674148 151 15841554037989046819
12166972 35 18060134388104874696
13668630 136 17274826857172321318
13690498 29 17988350585964324215
13761468 95 18195245503984499437
13782708 43 14117513242651767938
14251752 14 17775565321369960059
15183329 4 18409726249313431862
15513586 35 12036035489238508222
17780758 139 9439402432555771029
20281389 69 15646771189399375064
21033648 29 17749673008406121936
21756936 100 17895196571955663505
23198884 109 18409165515373029863
23559900 14 16558170700967423371
2838139 119 18113616764020282812
3004659 81 17918269861981942330
4098825 35 18342739589791058231
484985 159 16486977336740182335
5085150 59 17203603766432330230
5265222 85 17988638657235217879
531348 171 18270962332331236382
59682541 35 16153719708984140673
59755656 520 17385726893725806731

> <PUBCHEM_SHAPE_MULTIPOLES>
556.61
20.04
2.3
1.89
28.95
0.32
0.94
3.98
-8.53
-0.57
-0.56
-2.53
-0.48
-1.72

> <PUBCHEM_SHAPE_SELFOVERLAP>
1179.939

> <PUBCHEM_SHAPE_VOLUME>
309.4

> <PUBCHEM_COORDINATE_TYPE>
2
5
10

$$$$
