102571782
  -OEChem-03292013293D

 57 56  0     1  0  0  0  0  0999 V2000
    4.3256    1.0648   -0.1742 O   0  0  0  0  0  0  0  0  0  0  0  0
    3.6638   -2.3101   -1.4291 O   0  0  0  0  0  0  0  0  0  0  0  0
   11.7267    0.2622    1.8181 O   0  0  0  0  0  0  0  0  0  0  0  0
   -5.7301    3.0351    2.1805 O   0  0  0  0  0  0  0  0  0  0  0  0
   -9.1100   -3.2364    0.5202 O   0  5  0  0  0  0  0  0  0  0  0  0
   -6.9294   -2.9713   -0.1086 O   0  0  0  0  0  0  0  0  0  0  0  0
    5.7911   -0.8517    0.0077 C   0  0  0  0  0  0  0  0  0  0  0  0
    7.0523    0.0175    0.0987 C   0  0  0  0  0  0  0  0  0  0  0  0
    4.6566   -0.1815   -0.7872 C   0  0  1  0  0  0  0  0  0  0  0  0
    8.1635   -0.7018    0.8682 C   0  0  0  0  0  0  0  0  0  0  0  0
    3.3808   -1.0459   -0.8374 C   0  0  1  0  0  0  0  0  0  0  0  0
    9.4612    0.1086    0.9584 C   0  0  0  0  0  0  0  0  0  0  0  0
   10.5608   -0.5481    1.7863 C   0  0  0  0  0  0  0  0  0  0  0  0
    2.2752   -0.3459   -1.5971 C   0  0  0  0  0  0  0  0  0  0  0  0
   -6.7888    0.9908    1.5059 C   0  0  0  0  0  0  0  0  0  0  0  0
   -6.7170   -0.4272    0.9242 C   0  0  0  0  0  0  0  0  0  0  0  0
   -5.4868    1.8043    1.4956 C   0  0  1  0  0  0  0  0  0  0  0  0
    1.0677   -0.0100   -1.1157 C   0  0  0  0  0  0  0  0  0  0  0  0
   -8.0265   -1.2063    1.0293 C   0  0  0  0  0  0  0  0  0  0  0  0
   -4.9754    2.0684    0.1007 C   0  0  0  0  0  0  0  0  0  0  0  0
    0.0639    0.6671   -1.9079 C   0  0  0  0  0  0  0  0  0  0  0  0
   -3.7675    1.7323   -0.3801 C   0  0  0  0  0  0  0  0  0  0  0  0
   -8.0147   -2.6125    0.4267 C   0  0  0  0  0  0  0  0  0  0  0  0
   -1.1429    1.0027   -1.4269 C   0  0  0  0  0  0  0  0  0  0  0  0
   -3.3535    2.0152   -1.7375 C   0  0  0  0  0  0  0  0  0  0  0  0
   -2.1468    1.6798   -2.2189 C   0  0  0  0  0  0  0  0  0  0  0  0
    5.4433   -1.0620    1.0272 H   0  0  0  0  0  0  0  0  0  0  0  0
    6.0466   -1.8125   -0.4545 H   0  0  0  0  0  0  0  0  0  0  0  0
    6.8218    0.9657    0.5980 H   0  0  0  0  0  0  0  0  0  0  0  0
    7.4036    0.2589   -0.9116 H   0  0  0  0  0  0  0  0  0  0  0  0
    5.0123    0.0248   -1.8040 H   0  0  0  0  0  0  0  0  0  0  0  0
    8.3790   -1.6637    0.3869 H   0  0  0  0  0  0  0  0  0  0  0  0
    7.8112   -0.9262    1.8826 H   0  0  0  0  0  0  0  0  0  0  0  0
    3.0425   -1.2368    0.1892 H   0  0  0  0  0  0  0  0  0  0  0  0
    9.8439    0.3030   -0.0516 H   0  0  0  0  0  0  0  0  0  0  0  0
    9.2473    1.0979    1.3832 H   0  0  0  0  0  0  0  0  0  0  0  0
   10.8287   -1.5198    1.3588 H   0  0  0  0  0  0  0  0  0  0  0  0
   10.2210   -0.7024    2.8156 H   0  0  0  0  0  0  0  0  0  0  0  0
    2.5091   -0.1097   -2.6348 H   0  0  0  0  0  0  0  0  0  0  0  0
    4.0366    0.8822    0.7363 H   0  0  0  0  0  0  0  0  0  0  0  0
   -7.5702    1.5557    0.9787 H   0  0  0  0  0  0  0  0  0  0  0  0
   -7.1444    0.9223    2.5431 H   0  0  0  0  0  0  0  0  0  0  0  0
   -6.4201   -0.3686   -0.1300 H   0  0  0  0  0  0  0  0  0  0  0  0
   -5.9242   -0.9823    1.4413 H   0  0  0  0  0  0  0  0  0  0  0  0
   -4.7251    1.2659    2.0726 H   0  0  0  0  0  0  0  0  0  0  0  0
    2.8366   -2.8215   -1.4441 H   0  0  0  0  0  0  0  0  0  0  0  0
    0.8227   -0.2457   -0.0834 H   0  0  0  0  0  0  0  0  0  0  0  0
   -8.8234   -0.6405    0.5307 H   0  0  0  0  0  0  0  0  0  0  0  0
   -8.3076   -1.2994    2.0856 H   0  0  0  0  0  0  0  0  0  0  0  0
   -5.6724    2.5894   -0.5549 H   0  0  0  0  0  0  0  0  0  0  0  0
   12.3863   -0.2072    2.3567 H   0  0  0  0  0  0  0  0  0  0  0  0
    0.3226    0.9038   -2.9376 H   0  0  0  0  0  0  0  0  0  0  0  0
   -5.9887    2.8185    3.0926 H   0  0  0  0  0  0  0  0  0  0  0  0
   -3.1082    1.2209    0.3093 H   0  0  0  0  0  0  0  0  0  0  0  0
   -1.3443    0.7419   -0.3951 H   0  0  0  0  0  0  0  0  0  0  0  0
   -4.0573    2.5232   -2.3913 H   0  0  0  0  0  0  0  0  0  0  0  0
   -1.9051    1.9246   -3.2497 H   0  0  0  0  0  0  0  0  0  0  0  0
  1  9  1  0  0  0  0
  1 40  1  0  0  0  0
  2 11  1  0  0  0  0
  2 46  1  0  0  0  0
  3 13  1  0  0  0  0
  3 51  1  0  0  0  0
  4 17  1  0  0  0  0
  4 53  1  0  0  0  0
  5 23  1  0  0  0  0
  6 23  2  0  0  0  0
  7  8  1  0  0  0  0
  7  9  1  0  0  0  0
  7 27  1  0  0  0  0
  7 28  1  0  0  0  0
  8 10  1  0  0  0  0
  8 29  1  0  0  0  0
  8 30  1  0  0  0  0
  9 11  1  0  0  0  0
  9 31  1  0  0  0  0
 10 12  1  0  0  0  0
 10 32  1  0  0  0  0
 10 33  1  0  0  0  0
 11 14  1  0  0  0  0
 11 34  1  0  0  0  0
 12 13  1  0  0  0  0
 12 35  1  0  0  0  0
 12 36  1  0  0  0  0
 13 37  1  0  0  0  0
 13 38  1  0  0  0  0
 14 18  2  0  0  0  0
 14 39  1  0  0  0  0
 15 16  1  0  0  0  0
 15 17  1  0  0  0  0
 15 41  1  0  0  0  0
 15 42  1  0  0  0  0
 16 19  1  0  0  0  0
 16 43  1  0  0  0  0
 16 44  1  0  0  0  0
 17 20  1  0  0  0  0
 17 45  1  0  0  0  0
 18 21  1  0  0  0  0
 18 47  1  0  0  0  0
 19 23  1  0  0  0  0
 19 48  1  0  0  0  0
 19 49  1  0  0  0  0
 20 22  2  0  0  0  0
 20 50  1  0  0  0  0
 21 24  2  0  0  0  0
 21 52  1  0  0  0  0
 22 25  1  0  0  0  0
 22 54  1  0  0  0  0
 24 26  1  0  0  0  0
 24 55  1  0  0  0  0
 25 26  2  0  0  0  0
 25 56  1  0  0  0  0
 26 57  1  0  0  0  0
M  CHG  1   5  -1
M  END
> <PUBCHEM_COMPOUND_CID>
102571782

> <PUBCHEM_CONFORMER_RMSD>
1.2

> <PUBCHEM_CONFORMER_DIVERSEORDER>
1
184
125
175
71
120
83
181
171
122
117
154
150
169
23
132
69
50
10
87
91
149
51
185
93
101
129
111
85
180
127
108
134
68
56
67
70
167
118
140
81
58
153
62
103
24
158
151
173
112
49
100
46
42
160
109
141
146
157
135
63
20
102
4
89
178
163
86
99
106
72
183
161
174
148
119
92
79
64
176
90
166
162
177
61
152
116
155
126
136
107
179
17
30
105
53
31
170
121
21
29
36
115
60
43
57
9
139
48
35
84
128
34
95
75
27
159
96
52
14
138
133
98
6
113
110
11
73
156
168
37
66
164
137
187
40
38
97
19
16
182
41
33
144
124
65
12
104
47
88
25
7
82
130
131
76
123
165
8
13
26
59
32
28
147
45
114
172
186
142
77
78
80
55
145
39
54
18
143
94
22
3
74
44
5
15
2

> <PUBCHEM_MMFF94_PARTIAL_CHARGES>
32
1 -0.68
11 0.42
13 0.28
14 -0.29
17 0.42
18 -0.15
19 -0.11
2 -0.68
20 -0.29
21 -0.15
22 -0.15
23 0.91
24 -0.15
25 -0.15
26 -0.15
3 -0.68
39 0.15
4 -0.68
40 0.4
46 0.4
47 0.15
5 -0.9
50 0.15
51 0.4
52 0.15
53 0.4
54 0.15
55 0.15
56 0.15
57 0.15
6 -0.9
9 0.28

> <PUBCHEM_EFFECTIVE_ROTOR_COUNT>
15

> <PUBCHEM_PHARMACOPHORE_FEATURES>
12
1 1 acceptor
1 1 donor
1 2 acceptor
1 2 donor
1 3 acceptor
1 3 donor
1 4 acceptor
1 4 donor
1 5 acceptor
1 6 acceptor
3 5 6 23 anion
4 7 8 10 12 hydrophobe

> <PUBCHEM_HEAVY_ATOM_COUNT>
26

> <PUBCHEM_ATOM_DEF_STEREO_COUNT>
3

> <PUBCHEM_ATOM_UDEF_STEREO_COUNT>
0

> <PUBCHEM_BOND_DEF_STEREO_COUNT>
4

> <PUBCHEM_BOND_UDEF_STEREO_COUNT>
0

> <PUBCHEM_ISOTOPIC_ATOM_COUNT>
0

> <PUBCHEM_COMPONENT_COUNT>
1

> <PUBCHEM_CACTVS_TAUTO_COUNT>
2

> <PUBCHEM_CONFORMER_ID>
061D1F0600000001

> <PUBCHEM_MMFF94_ENERGY>
32.0986

> <PUBCHEM_FEATURE_SELFOVERLAP>
60.955

> <PUBCHEM_SHAPE_FINGERPRINT>
10 15 17060342877822204869
10049733 244 13758070831806867949
12838863 1 18115591582290497675
14918687 75 17531247275727831130
15519825 34 18410296934661221803
1768 4 15626225714922195241
21095123 145 18113340791513785764
21360443 89 18260826038104705971
23389318 12 17313679242420929774
3711267 37 15698284412703740584
38570 142 10519719856614579053
397830 11 18201729422868624733
4339292 15 16805316695860996636
54076057 127 17846221004351132974
57634706 229 12463573989683883101
5937810 71 13542457674692919474
59682541 35 18060418010717999696
9511036 111 17894914074560874475
9953998 17 18201446844612832705

> <PUBCHEM_SHAPE_MULTIPOLES>
499.85
39.09
2.91
2.14
62.1
1.41
-0.25
21.88
-30.22
-11.08
0.11
0.12
-1.04
-1

> <PUBCHEM_SHAPE_SELFOVERLAP>
955.805

> <PUBCHEM_SHAPE_VOLUME>
303.7

> <PUBCHEM_COORDINATE_TYPE>
2
5
10

$$$$
