102515211
  -OEChem-03292013293D

 42 45  0     1  0  0  0  0  0999 V2000
   -2.7898   -1.2144   -1.4887 O   0  0  0  0  0  0  0  0  0  0  0  0
   -0.3724    1.4914   -1.1478 O   0  0  0  0  0  0  0  0  0  0  0  0
   -3.4183   -0.2269    1.5879 O   0  0  0  0  0  0  0  0  0  0  0  0
   -2.3333    2.7098    0.4193 O   0  0  0  0  0  0  0  0  0  0  0  0
    1.3423   -2.4443    0.1233 O   0  0  0  0  0  0  0  0  0  0  0  0
    2.1002    0.0939    2.0604 O   0  0  0  0  0  0  0  0  0  0  0  0
    3.6609   -1.2917   -0.3560 O   0  0  0  0  0  0  0  0  0  0  0  0
   -1.2510   -0.7260    0.4307 C   0  0  1  0  0  0  0  0  0  0  0  0
   -1.6302   -0.5066   -1.0229 C   0  0  2  0  0  0  0  0  0  0  0  0
    0.2854   -0.2544    0.5464 C   0  0  2  0  0  0  0  0  0  0  0  0
   -1.7051    0.9716   -1.1877 C   0  0  1  0  0  0  0  0  0  0  0  0
   -2.1961    0.3474    1.1271 C   0  0  1  0  0  0  0  0  0  0  0  0
   -1.5534   -1.4962   -2.1597 C   0  0  0  0  0  0  0  0  0  0  0  0
   -2.5612    1.3717    0.0226 C   0  0  1  0  0  0  0  0  0  0  0  0
    0.3826    1.2331    0.0499 C   0  0  1  0  0  0  0  0  0  0  0  0
   -1.5260   -2.1492    0.9325 C   0  0  0  0  0  0  0  0  0  0  0  0
    1.2551   -1.1040   -0.3329 C   0  0  1  0  0  0  0  0  0  0  0  0
    0.7631   -0.3411    2.0246 C   0  0  0  0  0  0  0  0  0  0  0  0
    1.7801    1.7060   -0.2390 C   0  0  0  0  0  0  0  0  0  0  0  0
    2.6773   -0.5520   -0.3455 C   0  0  0  0  0  0  0  0  0  0  0  0
    2.8563    0.9254   -0.4020 C   0  0  0  0  0  0  0  0  0  0  0  0
    4.2335    1.4566   -0.6425 C   0  0  0  0  0  0  0  0  0  0  0  0
   -2.1634    1.2916   -2.1286 H   0  0  0  0  0  0  0  0  0  0  0  0
   -1.7328    0.8200    1.9955 H   0  0  0  0  0  0  0  0  0  0  0  0
   -1.4306   -1.1136   -3.1649 H   0  0  0  0  0  0  0  0  0  0  0  0
   -1.1039   -2.4650   -1.9889 H   0  0  0  0  0  0  0  0  0  0  0  0
   -3.6225    1.2800   -0.2418 H   0  0  0  0  0  0  0  0  0  0  0  0
    0.0038    1.8983    0.8348 H   0  0  0  0  0  0  0  0  0  0  0  0
   -0.9603   -2.9045    0.3835 H   0  0  0  0  0  0  0  0  0  0  0  0
   -2.5789   -2.4259    0.8045 H   0  0  0  0  0  0  0  0  0  0  0  0
   -1.2978   -2.2509    1.9974 H   0  0  0  0  0  0  0  0  0  0  0  0
    0.9323   -1.1243   -1.3780 H   0  0  0  0  0  0  0  0  0  0  0  0
    0.7255   -1.3643    2.4087 H   0  0  0  0  0  0  0  0  0  0  0  0
    0.1804    0.2992    2.6907 H   0  0  0  0  0  0  0  0  0  0  0  0
    1.9048    2.7854   -0.3031 H   0  0  0  0  0  0  0  0  0  0  0  0
   -3.9481    0.4892    1.9782 H   0  0  0  0  0  0  0  0  0  0  0  0
   -2.8526    2.8669    1.2262 H   0  0  0  0  0  0  0  0  0  0  0  0
    1.8427   -2.9500   -0.5398 H   0  0  0  0  0  0  0  0  0  0  0  0
    2.3998    0.0374    2.9836 H   0  0  0  0  0  0  0  0  0  0  0  0
    4.2483    2.5506   -0.6882 H   0  0  0  0  0  0  0  0  0  0  0  0
    4.6284    1.0795   -1.5916 H   0  0  0  0  0  0  0  0  0  0  0  0
    4.9083    1.1486    0.1628 H   0  0  0  0  0  0  0  0  0  0  0  0
  1  9  1  0  0  0  0
  1 13  1  0  0  0  0
  2 11  1  0  0  0  0
  2 15  1  0  0  0  0
  3 12  1  0  0  0  0
  3 36  1  0  0  0  0
  4 14  1  0  0  0  0
  4 37  1  0  0  0  0
  5 17  1  0  0  0  0
  5 38  1  0  0  0  0
  6 18  1  0  0  0  0
  6 39  1  0  0  0  0
  7 20  2  0  0  0  0
  8  9  1  0  0  0  0
  8 10  1  0  0  0  0
  8 12  1  0  0  0  0
  8 16  1  0  0  0  0
  9 11  1  0  0  0  0
  9 13  1  0  0  0  0
 10 15  1  0  0  0  0
 10 17  1  0  0  0  0
 10 18  1  0  0  0  0
 11 14  1  0  0  0  0
 11 23  1  0  0  0  0
 12 14  1  0  0  0  0
 12 24  1  0  0  0  0
 13 25  1  0  0  0  0
 13 26  1  0  0  0  0
 14 27  1  0  0  0  0
 15 19  1  0  0  0  0
 15 28  1  0  0  0  0
 16 29  1  0  0  0  0
 16 30  1  0  0  0  0
 16 31  1  0  0  0  0
 17 20  1  0  0  0  0
 17 32  1  0  0  0  0
 18 33  1  0  0  0  0
 18 34  1  0  0  0  0
 19 21  2  0  0  0  0
 19 35  1  0  0  0  0
 20 21  1  0  0  0  0
 21 22  1  0  0  0  0
 22 40  1  0  0  0  0
 22 41  1  0  0  0  0
 22 42  1  0  0  0  0
M  END
> <PUBCHEM_COMPOUND_CID>
102515211

> <PUBCHEM_CONFORMER_RMSD>
0.6

> <PUBCHEM_CONFORMER_DIVERSEORDER>
1
3
2

> <PUBCHEM_MMFF94_PARTIAL_CHARGES>
27
1 -0.3
11 0.38
12 0.28
13 -0.05
14 0.28
15 0.42
17 0.34
18 0.28
19 -0.29
2 -0.56
20 0.49
21 -0.12
22 0.14
25 0.1
26 0.1
3 -0.68
35 0.15
36 0.4
37 0.4
38 0.4
39 0.4
4 -0.68
5 -0.68
6 -0.68
7 -0.57
8 0.09
9 -0.04

> <PUBCHEM_EFFECTIVE_ROTOR_COUNT>
2.2

> <PUBCHEM_PHARMACOPHORE_FEATURES>
13
1 1 acceptor
1 2 acceptor
1 3 acceptor
1 3 donor
1 4 acceptor
1 4 donor
1 5 acceptor
1 5 donor
1 6 acceptor
1 6 donor
1 7 acceptor
6 10 15 17 19 20 21 rings
8 2 8 9 10 11 12 14 15 rings

> <PUBCHEM_HEAVY_ATOM_COUNT>
22

> <PUBCHEM_ATOM_DEF_STEREO_COUNT>
5

> <PUBCHEM_ATOM_UDEF_STEREO_COUNT>
3

> <PUBCHEM_BOND_DEF_STEREO_COUNT>
0

> <PUBCHEM_BOND_UDEF_STEREO_COUNT>
0

> <PUBCHEM_ISOTOPIC_ATOM_COUNT>
0

> <PUBCHEM_COMPONENT_COUNT>
1

> <PUBCHEM_CACTVS_TAUTO_COUNT>
1

> <PUBCHEM_CONFORMER_ID>
061C420B00000001

> <PUBCHEM_MMFF94_ENERGY>
92.2985

> <PUBCHEM_FEATURE_SELFOVERLAP>
65.999

> <PUBCHEM_SHAPE_FINGERPRINT>
10062212 137 18336537219271815770
10863032 1 18116730520720232793
10948715 1 18267030448907383213
11578080 2 17631711829741182776
121448 382 18056743541811044510
12173636 292 18334869328245314398
12403814 3 18341902908692060217
12423570 1 17841431436351007215
12491281 212 18342461426118198604
12808571 1 18341615867348251525
13024252 1 11747205892624319173
13140716 1 18335419011614561664
13299463 15 18129088082091623110
14115302 16 17775002324161355366
144361 1 18340189865059543423
14614273 12 16226041236455198923
14787075 74 17171823658051012209
16752209 62 17417231196481144295
16945 1 18336550503004236657
18186145 218 17240485793306241214
18981168 100 18334849506971250040
20525323 117 18408600379117867476
21501502 16 18410569574552393212
2334 1 18335983151152559148
23419403 2 16818827782426918871
23559900 14 18337957776016902430
2748010 2 17184751832124915828
528886 8 18410581720719899786
5845 1 18196910327580827493
7832392 63 18339360756167775500
90525 40 18058733489936558167

> <PUBCHEM_SHAPE_MULTIPOLES>
411.66
5.29
2.23
1.7
3.35
0.12
0.15
0.89
-0.44
-0.32
-0.16
-0.79
-0.44
-0.45

> <PUBCHEM_SHAPE_SELFOVERLAP>
904.368

> <PUBCHEM_SHAPE_VOLUME>
215.3

> <PUBCHEM_COORDINATE_TYPE>
2
5
10

$$$$
