102515385
  -OEChem-03292013293D

 58 61  0     1  0  0  0  0  0999 V2000
    6.1303   -1.2761   -0.0198 O   0  0  0  0  0  0  0  0  0  0  0  0
    3.4869   -1.8029   -0.5732 O   0  0  0  0  0  0  0  0  0  0  0  0
    2.7327   -0.2238    1.0364 O   0  0  0  0  0  0  0  0  0  0  0  0
    4.9709    1.3478    2.1348 O   0  0  0  0  0  0  0  0  0  0  0  0
    5.2856    0.0013   -2.9576 O   0  0  0  0  0  0  0  0  0  0  0  0
   -4.1070   -1.9551    0.4939 O   0  0  0  0  0  0  0  0  0  0  0  0
   -5.7974    1.9398   -0.4403 O   0  0  0  0  0  0  0  0  0  0  0  0
   -6.8417   -2.5988    0.2762 O   0  0  0  0  0  0  0  0  0  0  0  0
   -8.0886   -0.6671   -0.2392 N   0  0  0  0  0  0  0  0  0  0  0  0
    5.1254   -0.5369    0.6938 C   0  0  1  0  0  0  0  0  0  0  0  0
    5.6611   -0.0693   -0.6393 C   0  0  2  0  0  0  0  0  0  0  0  0
    3.7513   -1.1767    0.6942 C   0  0  2  0  0  0  0  0  0  0  0  0
    3.4488   -0.8537   -1.6332 C   0  0  1  0  0  0  0  0  0  0  0  0
    2.3700    0.2031   -1.3420 C   0  0  1  0  0  0  0  0  0  0  0  0
    4.8466   -0.2929   -1.8521 C   0  0  0  0  0  0  0  0  0  0  0  0
    2.5613    0.8142    0.0615 C   0  0  1  0  0  0  0  0  0  0  0  0
    5.6322    0.1072    1.9462 C   0  0  0  0  0  0  0  0  0  0  0  0
    3.6656   -2.2954    1.7329 C   0  0  0  0  0  0  0  0  0  0  0  0
    1.3644    1.6453    0.5137 C   0  0  2  0  0  0  0  0  0  0  0  0
    2.2848    1.2570   -2.4447 C   0  0  0  0  0  0  0  0  0  0  0  0
    1.6018    2.2065    1.9179 C   0  0  0  0  0  0  0  0  0  0  0  0
    0.1105    0.7988    0.5055 C   0  0  0  0  0  0  0  0  0  0  0  0
   -1.1651    1.1785    0.2768 C   0  0  0  0  0  0  0  0  0  0  0  0
   -1.5826    2.5908   -0.0405 C   0  0  0  0  0  0  0  0  0  0  0  0
   -2.2180    0.1581    0.3352 C   0  0  0  0  0  0  0  0  0  0  0  0
   -3.5341    0.3505    0.1362 C   0  0  0  0  0  0  0  0  0  0  0  0
   -4.5544   -0.6813    0.2016 C   0  0  0  0  0  0  0  0  0  0  0  0
   -5.8529   -0.4213   -0.0077 C   0  0  0  0  0  0  0  0  0  0  0  0
   -6.4275    0.9024   -0.3252 C   0  0  0  0  0  0  0  0  0  0  0  0
   -6.9441   -1.4092    0.0411 C   0  0  0  0  0  0  0  0  0  0  0  0
   -7.9168    0.7592   -0.4832 C   0  0  0  0  0  0  0  0  0  0  0  0
    6.3299    0.7828   -0.6533 H   0  0  0  0  0  0  0  0  0  0  0  0
    3.1854   -1.4104   -2.5405 H   0  0  0  0  0  0  0  0  0  0  0  0
    1.4291   -0.3626   -1.3512 H   0  0  0  0  0  0  0  0  0  0  0  0
    3.4459    1.4611    0.0646 H   0  0  0  0  0  0  0  0  0  0  0  0
    6.7074    0.3079    1.8784 H   0  0  0  0  0  0  0  0  0  0  0  0
    5.4689   -0.5203    2.8261 H   0  0  0  0  0  0  0  0  0  0  0  0
    2.7042   -2.8167    1.6506 H   0  0  0  0  0  0  0  0  0  0  0  0
    3.7285   -1.9140    2.7568 H   0  0  0  0  0  0  0  0  0  0  0  0
    4.4522   -3.0427    1.5825 H   0  0  0  0  0  0  0  0  0  0  0  0
    1.2525    2.4932   -0.1697 H   0  0  0  0  0  0  0  0  0  0  0  0
    1.3774    1.8610   -2.3479 H   0  0  0  0  0  0  0  0  0  0  0  0
    2.2527    0.7841   -3.4322 H   0  0  0  0  0  0  0  0  0  0  0  0
    3.1442    1.9349   -2.4203 H   0  0  0  0  0  0  0  0  0  0  0  0
    5.3218    1.7385    2.9531 H   0  0  0  0  0  0  0  0  0  0  0  0
    1.6845    1.4190    2.6751 H   0  0  0  0  0  0  0  0  0  0  0  0
    2.5189    2.8043    1.9467 H   0  0  0  0  0  0  0  0  0  0  0  0
    0.7760    2.8619    2.2179 H   0  0  0  0  0  0  0  0  0  0  0  0
    0.2693   -0.2485    0.7675 H   0  0  0  0  0  0  0  0  0  0  0  0
   -2.3022    2.9585    0.6994 H   0  0  0  0  0  0  0  0  0  0  0  0
   -2.0348    2.6468   -1.0367 H   0  0  0  0  0  0  0  0  0  0  0  0
   -0.7456    3.2937   -0.0310 H   0  0  0  0  0  0  0  0  0  0  0  0
   -1.8723   -0.8490    0.5652 H   0  0  0  0  0  0  0  0  0  0  0  0
   -3.8235    1.3621   -0.0893 H   0  0  0  0  0  0  0  0  0  0  0  0
   -8.4607    1.3205    0.2778 H   0  0  0  0  0  0  0  0  0  0  0  0
   -8.2404    0.9899   -1.4992 H   0  0  0  0  0  0  0  0  0  0  0  0
   -4.8618   -2.5657    0.5137 H   0  0  0  0  0  0  0  0  0  0  0  0
   -9.0054   -1.1018   -0.2718 H   0  0  0  0  0  0  0  0  0  0  0  0
  1 10  1  0  0  0  0
  1 11  1  0  0  0  0
  2 12  1  0  0  0  0
  2 13  1  0  0  0  0
  3 12  1  0  0  0  0
  3 16  1  0  0  0  0
  4 17  1  0  0  0  0
  4 45  1  0  0  0  0
  5 15  2  0  0  0  0
  6 27  1  0  0  0  0
  6 57  1  0  0  0  0
  7 29  2  0  0  0  0
  8 30  2  0  0  0  0
  9 30  1  0  0  0  0
  9 31  1  0  0  0  0
  9 58  1  0  0  0  0
 10 11  1  0  0  0  0
 10 12  1  0  0  0  0
 10 17  1  0  0  0  0
 11 15  1  0  0  0  0
 11 32  1  0  0  0  0
 12 18  1  0  0  0  0
 13 14  1  0  0  0  0
 13 15  1  0  0  0  0
 13 33  1  0  0  0  0
 14 16  1  0  0  0  0
 14 20  1  0  0  0  0
 14 34  1  0  0  0  0
 16 19  1  0  0  0  0
 16 35  1  0  0  0  0
 17 36  1  0  0  0  0
 17 37  1  0  0  0  0
 18 38  1  0  0  0  0
 18 39  1  0  0  0  0
 18 40  1  0  0  0  0
 19 21  1  0  0  0  0
 19 22  1  0  0  0  0
 19 41  1  0  0  0  0
 20 42  1  0  0  0  0
 20 43  1  0  0  0  0
 20 44  1  0  0  0  0
 21 46  1  0  0  0  0
 21 47  1  0  0  0  0
 21 48  1  0  0  0  0
 22 23  2  0  0  0  0
 22 49  1  0  0  0  0
 23 24  1  0  0  0  0
 23 25  1  0  0  0  0
 24 50  1  0  0  0  0
 24 51  1  0  0  0  0
 24 52  1  0  0  0  0
 25 26  2  0  0  0  0
 25 53  1  0  0  0  0
 26 27  1  0  0  0  0
 26 54  1  0  0  0  0
 27 28  2  0  0  0  0
 28 29  1  0  0  0  0
 28 30  1  0  0  0  0
 29 31  1  0  0  0  0
 31 55  1  0  0  0  0
 31 56  1  0  0  0  0
M  END
> <PUBCHEM_COMPOUND_CID>
102515385

> <PUBCHEM_CONFORMER_RMSD>
0.8

> <PUBCHEM_CONFORMER_DIVERSEORDER>
1
97
73
76
80
89
114
66
119
100
35
108
59
51
111
19
87
60
43
68
54
28
47
75
79
120
10
91
31
42
64
45
107
70
40
98
33
90
6
27
83
39
95
86
116
65
37
96
34
124
92
84
17
104
32
25
30
72
74
5
18
106
93
57
99
67
63
71
41
20
113
2
46
52
82
122
94
9
69
12
38
61
13
118
49
121
24
88
22
101
85
16
44
103
48
4
56
58
117
3
53
105
62
102
50
29
81
110
15
115
26
36
8
11
109
7
21
123
55
77
14
112
78
23

> <PUBCHEM_MMFF94_PARTIAL_CHARGES>
34
1 -0.3
10 -0.04
11 0.05
12 0.65
13 0.34
15 0.51
16 0.28
17 0.38
19 0.14
2 -0.56
22 -0.29
23 -0.14
24 0.14
25 -0.15
26 -0.15
27 0.08
28 0.03
29 0.49
3 -0.56
30 0.62
31 0.36
32 0.1
4 -0.68
45 0.4
49 0.15
5 -0.57
53 0.15
54 0.15
57 0.45
58 0.37
6 -0.53
7 -0.57
8 -0.57
9 -0.73

> <PUBCHEM_EFFECTIVE_ROTOR_COUNT>
6.4

> <PUBCHEM_PHARMACOPHORE_FEATURES>
16
1 1 acceptor
1 2 acceptor
1 21 hydrophobe
1 24 hydrophobe
1 28 anion
1 3 acceptor
1 4 acceptor
1 4 donor
1 5 acceptor
1 6 donor
1 7 acceptor
1 8 acceptor
1 9 donor
5 9 28 29 30 31 rings
6 2 3 12 13 14 16 rings
7 1 2 10 11 12 13 15 rings

> <PUBCHEM_HEAVY_ATOM_COUNT>
31

> <PUBCHEM_ATOM_DEF_STEREO_COUNT>
4

> <PUBCHEM_ATOM_UDEF_STEREO_COUNT>
3

> <PUBCHEM_BOND_DEF_STEREO_COUNT>
3

> <PUBCHEM_BOND_UDEF_STEREO_COUNT>
0

> <PUBCHEM_ISOTOPIC_ATOM_COUNT>
0

> <PUBCHEM_COMPONENT_COUNT>
1

> <PUBCHEM_CACTVS_TAUTO_COUNT>
26

> <PUBCHEM_CONFORMER_ID>
061C42B900000001

> <PUBCHEM_MMFF94_ENERGY>
77.9656

> <PUBCHEM_FEATURE_SELFOVERLAP>
81.963

> <PUBCHEM_SHAPE_FINGERPRINT>
10299344 5 17894351073420701255
10638233 991 15574712491570839117
11135609 127 17676775386983615124
11135609 99 18266448816511518970
11796584 16 18411141342026479607
12516196 113 18060418014991855145
12623949 98 15410071560414365300
13617811 41 17822005406972604541
13685833 64 18272088310101423961
13782708 43 18130504254155076647
14068700 675 18114181925887760565
14294032 229 17679300767909639565
14347332 77 17821722806841115333
14681490 219 16008748004848435277
15119646 104 17603584097419695107
15183329 4 17313387816405783725
15352257 5 18335417963837778531
15419008 42 18055064360164764469
15419008 91 18200012007271260377
17857418 61 18335701624694100843
21623969 137 17632576046017361437
23198884 109 16081371852344769853
23522609 53 17970936404386375253
23559900 14 18340200895095203153
239999 70 18131632292707414152
25222932 49 18201145616411764390
3004659 81 18186240645100922893
3383291 50 18131071567711400879
3411729 13 17987226919329972136
394071 54 16702016517305578904
4066623 53 14851877059033269926
4073 2 18115025328884045451
4098825 35 17240481386516945205
439807 62 18187082841359870139
59682541 52 16081082679852936362
6086070 43 15140971672588947425
86090 222 16844472486458491623

> <PUBCHEM_SHAPE_MULTIPOLES>
586.03
21.69
2.2
1.91
38
0.17
-0.63
7.45
-1.96
1.33
0.63
-4.8
-0.41
0.3

> <PUBCHEM_SHAPE_SELFOVERLAP>
1253.86

> <PUBCHEM_SHAPE_VOLUME>
321.7

> <PUBCHEM_COORDINATE_TYPE>
2
5
10

$$$$
