102579638
  -OEChem-03292013293D

 45 48  0     1  0  0  0  0  0999 V2000
   -2.7416   -0.4703   -0.3594 O   0  0  0  0  0  0  0  0  0  0  0  0
   -1.7928    1.5514   -1.0342 O   0  0  0  0  0  0  0  0  0  0  0  0
   -6.4794    1.2132   -0.1040 O   0  0  0  0  0  0  0  0  0  0  0  0
   -4.0782    2.9181   -0.0891 O   0  0  0  0  0  0  0  0  0  0  0  0
   -5.9182   -1.2932    1.2558 O   0  0  0  0  0  0  0  0  0  0  0  0
   -4.2255   -3.3715    0.9472 O   0  0  0  0  0  0  0  0  0  0  0  0
   -2.7428   -2.9948   -0.7428 O   0  0  0  0  0  0  0  0  0  0  0  0
    2.1723    1.1156    1.5760 O   0  0  0  0  0  0  0  0  0  0  0  0
    4.0136    0.9582    2.9111 O   0  0  0  0  0  0  0  0  0  0  0  0
    7.6066   -1.1560    0.0989 O   0  0  0  0  0  0  0  0  0  0  0  0
   -5.1925    0.8311    0.3843 C   0  0  2  0  0  0  0  0  0  0  0  0
   -4.1074    1.5331   -0.4328 C   0  0  2  0  0  0  0  0  0  0  0  0
   -5.0776   -0.6895    0.2739 C   0  0  1  0  0  0  0  0  0  0  0  0
   -2.7280    0.9390   -0.1471 C   0  0  1  0  0  0  0  0  0  0  0  0
   -3.6427   -1.1413    0.5138 C   0  0  1  0  0  0  0  0  0  0  0  0
   -3.4668   -2.5801    0.1501 C   0  0  0  0  0  0  0  0  0  0  0  0
   -0.4950    1.1569   -0.9348 C   0  0  0  0  0  0  0  0  0  0  0  0
    2.2112    0.3335   -0.7381 C   0  0  0  0  0  0  0  0  0  0  0  0
    0.1977    1.3251    0.2573 C   0  0  0  0  0  0  0  0  0  0  0  0
    1.5308    0.9134    0.3352 C   0  0  0  0  0  0  0  0  0  0  0  0
    0.1480    0.5828   -2.0278 C   0  0  0  0  0  0  0  0  0  0  0  0
    3.6122   -0.0643   -0.5530 C   0  0  0  0  0  0  0  0  0  0  0  0
    1.4852    0.1760   -1.9301 C   0  0  0  0  0  0  0  0  0  0  0  0
    4.2307    0.1472    0.6919 C   0  0  0  0  0  0  0  0  0  0  0  0
    4.3880   -0.6562   -1.5676 C   0  0  0  0  0  0  0  0  0  0  0  0
    3.4930    0.7644    1.8202 C   0  0  0  0  0  0  0  0  0  0  0  0
    5.5688   -0.2189    0.9094 C   0  0  0  0  0  0  0  0  0  0  0  0
    5.7204   -1.0207   -1.3510 C   0  0  0  0  0  0  0  0  0  0  0  0
    6.3104   -0.8021   -0.1131 C   0  0  0  0  0  0  0  0  0  0  0  0
   -5.1580    1.1501    1.4327 H   0  0  0  0  0  0  0  0  0  0  0  0
   -4.3357    1.4771   -1.5037 H   0  0  0  0  0  0  0  0  0  0  0  0
   -5.4351   -1.0242   -0.7077 H   0  0  0  0  0  0  0  0  0  0  0  0
   -2.4406    1.1569    0.8900 H   0  0  0  0  0  0  0  0  0  0  0  0
   -3.3167   -1.0099    1.5531 H   0  0  0  0  0  0  0  0  0  0  0  0
   -6.5335    0.9624   -1.0419 H   0  0  0  0  0  0  0  0  0  0  0  0
   -3.8739    2.9895    0.8589 H   0  0  0  0  0  0  0  0  0  0  0  0
   -5.6082   -1.0108    2.1331 H   0  0  0  0  0  0  0  0  0  0  0  0
   -0.2740    1.7852    1.1207 H   0  0  0  0  0  0  0  0  0  0  0  0
   -0.3845    0.4457   -2.9654 H   0  0  0  0  0  0  0  0  0  0  0  0
    1.9344   -0.2657   -2.8152 H   0  0  0  0  0  0  0  0  0  0  0  0
   -4.1252   -4.3211    0.7229 H   0  0  0  0  0  0  0  0  0  0  0  0
    3.9777   -0.8502   -2.5548 H   0  0  0  0  0  0  0  0  0  0  0  0
    6.0378   -0.0508    1.8761 H   0  0  0  0  0  0  0  0  0  0  0  0
    6.2890   -1.4755   -2.1578 H   0  0  0  0  0  0  0  0  0  0  0  0
    7.8504   -0.9316    1.0134 H   0  0  0  0  0  0  0  0  0  0  0  0
  1 14  1  0  0  0  0
  1 15  1  0  0  0  0
  2 14  1  0  0  0  0
  2 17  1  0  0  0  0
  3 11  1  0  0  0  0
  3 35  1  0  0  0  0
  4 12  1  0  0  0  0
  4 36  1  0  0  0  0
  5 13  1  0  0  0  0
  5 37  1  0  0  0  0
  6 16  1  0  0  0  0
  6 41  1  0  0  0  0
  7 16  2  0  0  0  0
  8 20  1  0  0  0  0
  8 26  1  0  0  0  0
  9 26  2  0  0  0  0
 10 29  1  0  0  0  0
 10 45  1  0  0  0  0
 11 12  1  0  0  0  0
 11 13  1  0  0  0  0
 11 30  1  0  0  0  0
 12 14  1  0  0  0  0
 12 31  1  0  0  0  0
 13 15  1  0  0  0  0
 13 32  1  0  0  0  0
 14 33  1  0  0  0  0
 15 16  1  0  0  0  0
 15 34  1  0  0  0  0
 17 19  2  0  0  0  0
 17 21  1  0  0  0  0
 18 20  2  0  0  0  0
 18 22  1  0  0  0  0
 18 23  1  0  0  0  0
 19 20  1  0  0  0  0
 19 38  1  0  0  0  0
 21 23  2  0  0  0  0
 21 39  1  0  0  0  0
 22 24  2  0  0  0  0
 22 25  1  0  0  0  0
 23 40  1  0  0  0  0
 24 26  1  0  0  0  0
 24 27  1  0  0  0  0
 25 28  2  0  0  0  0
 25 42  1  0  0  0  0
 27 29  2  0  0  0  0
 27 43  1  0  0  0  0
 28 29  1  0  0  0  0
 28 44  1  0  0  0  0
M  END
> <PUBCHEM_COMPOUND_CID>
102579638

> <PUBCHEM_CONFORMER_RMSD>
0.8

> <PUBCHEM_CONFORMER_DIVERSEORDER>
1
4
65
29
55
5
15
38
16
58
40
54
12
64
10
36
21
7
8
19
39
47
62
33
20
42
48
60
31
35
30
67
51
3
52
24
46
66
50
9
27
11
17
6
34
57
63
28
23
49
43
22
61
41
59
45
32
26
18
14
37
44
2
56
25
53
13

> <PUBCHEM_MMFF94_PARTIAL_CHARGES>
38
1 -0.56
10 -0.53
11 0.28
12 0.28
13 0.28
14 0.56
15 0.34
16 0.66
17 0.08
19 -0.15
2 -0.36
20 0.08
21 -0.15
23 -0.15
24 0.09
25 -0.15
26 0.63
27 -0.15
28 -0.15
29 0.08
3 -0.68
35 0.4
36 0.4
37 0.4
38 0.15
39 0.15
4 -0.68
40 0.15
41 0.5
42 0.15
43 0.15
44 0.15
45 0.45
5 -0.68
6 -0.65
7 -0.57
8 -0.23
9 -0.57

> <PUBCHEM_EFFECTIVE_ROTOR_COUNT>
4.2

> <PUBCHEM_PHARMACOPHORE_FEATURES>
17
1 1 acceptor
1 10 donor
1 2 acceptor
1 3 acceptor
1 3 donor
1 4 acceptor
1 4 donor
1 5 acceptor
1 5 donor
1 6 acceptor
1 7 acceptor
1 9 acceptor
3 6 7 16 anion
6 1 11 12 13 14 15 rings
6 17 18 19 20 21 23 rings
6 22 24 25 27 28 29 rings
6 8 18 20 22 24 26 rings

> <PUBCHEM_HEAVY_ATOM_COUNT>
29

> <PUBCHEM_ATOM_DEF_STEREO_COUNT>
5

> <PUBCHEM_ATOM_UDEF_STEREO_COUNT>
0

> <PUBCHEM_BOND_DEF_STEREO_COUNT>
0

> <PUBCHEM_BOND_UDEF_STEREO_COUNT>
0

> <PUBCHEM_ISOTOPIC_ATOM_COUNT>
0

> <PUBCHEM_COMPONENT_COUNT>
1

> <PUBCHEM_CACTVS_TAUTO_COUNT>
5

> <PUBCHEM_CONFORMER_ID>
061D3DB600000001

> <PUBCHEM_MMFF94_ENERGY>
99.566

> <PUBCHEM_FEATURE_SELFOVERLAP>
86.457

> <PUBCHEM_SHAPE_FINGERPRINT>
10 15 17917985075970464240
10042902 136 18115307920088457438
10319926 262 18413668019646752321
10693767 8 16081922626335121938
11045977 3 18131630088692878324
11370993 144 17704357683990267075
11524674 6 17989203733482515063
11545043 162 18343019999605154576
11796584 16 18410857616866746526
12128747 34 18058172721742114190
12236239 1 17385448717057125653
12788726 201 17386000607475508685
13402501 40 18272094872263306942
13583140 156 17846775213243720430
13782708 43 18060420252422221447
14251751 18 18410859884440602294
14294032 229 17896596177761136117
14341114 176 18272370897005601208
14767858 380 15574722383159869118
14840074 17 16443068287532755422
14950920 106 17131276890428872387
15183329 4 14707205530599827626
15348495 7 18060134383761966914
15352257 5 18410012096683284090
15361156 5 18272929465960459956
15484559 13 13633593753872717407
15537594 2 17458340823266864811
15799311 1 18260836942963250514
16993438 75 16126983875877233153
17492 89 17974014143854187451
17844677 252 18410579487269035608
1813 80 17022618671773217407
21033648 29 17774426205490675369
21133410 52 15537540575973157526
21623969 137 17632580435927709758
21781055 127 18126028013322110741
21792961 116 17631740362347828148
23516275 137 17680164988158786394
23522609 53 17242763921154271484
23559900 14 18411138077777832493
3004659 81 17749111114492227437
3178227 256 17561082489255938678
3383291 50 18337673113958674155
3459 110 17274254088285682751
351380 3 17313103063889095010
394071 54 15841834439619188644
397830 11 18270391810846656592
4015057 19 17417229027507341889
4073 2 18342454855171371338
497634 4 13984662521507003957
508706 21 18412541046230668551
5265222 85 18337966678977523486
559249 180 18040720260296509919
59755656 215 18411700945968411719
602551 16 18408323302145366006
7495541 125 18412828006339253180
8863177 126 18272930557573125754

> <PUBCHEM_SHAPE_MULTIPOLES>
538.11
16.89
2.37
1.74
4.75
1.54
-0.37
5.18
-3.13
-4.57
-0.21
2.23
-0.31
1.82

> <PUBCHEM_SHAPE_SELFOVERLAP>
1189.808

> <PUBCHEM_SHAPE_VOLUME>
284.2

> <PUBCHEM_COORDINATE_TYPE>
2
5
10

$$$$
