10250176
  -OEChem-03292013303D

 34 37  0     1  0  0  0  0  0999 V2000
   -4.5150    2.8488   -0.2870 Cl  0  0  0  0  0  0  0  0  0  0  0  0
   -6.3071    0.5168    1.0318 Cl  0  0  0  0  0  0  0  0  0  0  0  0
    5.8687    1.3390   -0.5753 S   0  0  0  0  0  0  0  0  0  0  0  0
    4.6383    0.5517    0.7022 P   0  0  1  0  0  0  0  0  0  0  0  0
    1.3357   -1.1837   -1.3593 O   0  0  0  0  0  0  0  0  0  0  0  0
    3.1201    1.1506    0.6990 O   0  0  0  0  0  0  0  0  0  0  0  0
    4.4229   -1.0604    0.6212 O   0  0  0  0  0  0  0  0  0  0  0  0
    1.2544    2.0035   -1.1570 O   0  0  0  0  0  0  0  0  0  0  0  0
    5.0504    0.7387    2.2611 O   0  0  0  0  0  0  0  0  0  0  0  0
   -0.8777   -0.8614   -0.5454 N   0  0  0  0  0  0  0  0  0  0  0  0
   -2.1088   -2.4746    0.3649 N   0  0  0  0  0  0  0  0  0  0  0  0
    2.0844    0.2782    0.3003 C   0  0  2  0  0  0  0  0  0  0  0  0
    2.5354   -0.6107   -0.8382 C   0  0  1  0  0  0  0  0  0  0  0  0
    0.8619    0.9328   -0.3018 C   0  0  2  0  0  0  0  0  0  0  0  0
    0.2813   -0.2079   -1.1546 C   0  0  1  0  0  0  0  0  0  0  0  0
    3.5494   -1.6305   -0.3545 C   0  0  0  0  0  0  0  0  0  0  0  0
   -2.0924   -0.2858   -0.2689 C   0  0  0  0  0  0  0  0  0  0  0  0
   -0.9382   -2.1693   -0.1484 C   0  0  0  0  0  0  0  0  0  0  0  0
   -2.8422   -1.3124    0.2982 C   0  0  0  0  0  0  0  0  0  0  0  0
   -2.5834    1.0060   -0.4610 C   0  0  0  0  0  0  0  0  0  0  0  0
   -4.1623   -1.0529    0.7037 C   0  0  0  0  0  0  0  0  0  0  0  0
   -3.8992    1.2467   -0.0517 C   0  0  0  0  0  0  0  0  0  0  0  0
   -4.6763    0.2369    0.5206 C   0  0  0  0  0  0  0  0  0  0  0  0
    1.7772   -0.3259    1.1642 H   0  0  0  0  0  0  0  0  0  0  0  0
    3.0063   -0.0216   -1.6356 H   0  0  0  0  0  0  0  0  0  0  0  0
    0.1928    1.3476    0.4558 H   0  0  0  0  0  0  0  0  0  0  0  0
   -0.0485    0.1342   -2.1430 H   0  0  0  0  0  0  0  0  0  0  0  0
    3.0485   -2.4899    0.1036 H   0  0  0  0  0  0  0  0  0  0  0  0
    4.1455   -2.0153   -1.1883 H   0  0  0  0  0  0  0  0  0  0  0  0
    1.7253    1.6433   -1.9262 H   0  0  0  0  0  0  0  0  0  0  0  0
   -0.1116   -2.8594   -0.2482 H   0  0  0  0  0  0  0  0  0  0  0  0
   -1.9727    1.7811   -0.9116 H   0  0  0  0  0  0  0  0  0  0  0  0
    4.4612    0.3668    2.9516 H   0  0  0  0  0  0  0  0  0  0  0  0
   -4.7598   -1.8437    1.1477 H   0  0  0  0  0  0  0  0  0  0  0  0
  1 22  1  0  0  0  0
  2 23  1  0  0  0  0
  3  4  2  0  0  0  0
  4  6  1  0  0  0  0
  4  7  1  0  0  0  0
  4  9  1  0  0  0  0
  5 13  1  0  0  0  0
  5 15  1  0  0  0  0
  6 12  1  0  0  0  0
  7 16  1  0  0  0  0
  8 14  1  0  0  0  0
  8 30  1  0  0  0  0
  9 33  1  0  0  0  0
 10 15  1  0  0  0  0
 10 17  1  0  0  0  0
 10 18  1  0  0  0  0
 11 18  2  0  0  0  0
 11 19  1  0  0  0  0
 12 13  1  0  0  0  0
 12 14  1  0  0  0  0
 12 24  1  0  0  0  0
 13 16  1  0  0  0  0
 13 25  1  0  0  0  0
 14 15  1  0  0  0  0
 14 26  1  0  0  0  0
 15 27  1  0  0  0  0
 16 28  1  0  0  0  0
 16 29  1  0  0  0  0
 17 19  1  0  0  0  0
 17 20  2  0  0  0  0
 18 31  1  0  0  0  0
 19 21  2  0  0  0  0
 20 22  1  0  0  0  0
 20 32  1  0  0  0  0
 21 23  1  0  0  0  0
 21 34  1  0  0  0  0
 22 23  2  0  0  0  0
M  END
> <PUBCHEM_COMPOUND_CID>
10250176

> <PUBCHEM_CONFORMER_RMSD>
0.6

> <PUBCHEM_CONFORMER_DIVERSEORDER>
2
10
7
5
3
6
9
1
8
4

> <PUBCHEM_MMFF94_PARTIAL_CHARGES>
28
1 -0.18
10 0.05
11 -0.57
12 0.28
13 0.28
14 0.28
15 0.54
16 0.28
17 -0.15
18 0.04
19 0.23
2 -0.18
20 -0.15
21 -0.15
22 0.18
23 0.18
3 -0.68
30 0.4
31 0.15
32 0.15
33 0.5
34 0.15
4 1.49
5 -0.56
6 -0.55
7 -0.55
8 -0.68
9 -0.77

> <PUBCHEM_EFFECTIVE_ROTOR_COUNT>
2.2

> <PUBCHEM_PHARMACOPHORE_FEATURES>
9
1 5 acceptor
1 8 acceptor
1 8 donor
1 9 acceptor
3 10 11 18 cation
5 10 11 17 18 19 rings
5 5 12 13 14 15 rings
6 17 19 20 21 22 23 rings
6 4 6 7 12 13 16 rings

> <PUBCHEM_HEAVY_ATOM_COUNT>
23

> <PUBCHEM_ATOM_DEF_STEREO_COUNT>
4

> <PUBCHEM_ATOM_UDEF_STEREO_COUNT>
0

> <PUBCHEM_BOND_DEF_STEREO_COUNT>
0

> <PUBCHEM_BOND_UDEF_STEREO_COUNT>
0

> <PUBCHEM_ISOTOPIC_ATOM_COUNT>
0

> <PUBCHEM_COMPONENT_COUNT>
1

> <PUBCHEM_CACTVS_TAUTO_COUNT>
2

> <PUBCHEM_CONFORMER_ID>
009C67C000000002

> <PUBCHEM_MMFF94_ENERGY>
41.4168

> <PUBCHEM_FEATURE_SELFOVERLAP>
45.878

> <PUBCHEM_SHAPE_FINGERPRINT>
10 15 18261115192092539017
10319926 262 18410003317796401378
10498660 4 10879994636047107107
11089746 13 16845566531193811042
12107183 9 18045492011437266178
12236239 1 16950285109275988317
12251169 10 18334576888290898311
12403259 415 18340213977433217629
12403260 363 18408042918818225541
12507560 40 18412546496147963054
12596602 18 17385442133009638393
12633257 1 18334295417667268029
12670546 177 9367352552215777410
12892183 10 18334013895303758603
13140716 1 18189626119255620931
13402501 40 18271804601610435321
13533116 47 17988648437060529142
13583140 156 17631723997246284090
13675066 3 18412827975514696895
14178342 30 18335978791492299822
14251751 18 8790887372128450508
14251764 18 18334862753162093579
14341114 176 18335708234179342312
14341114 328 17967525814222103288
14420673 8 18116714019673043146
14466204 15 18261674758002120945
14790565 3 18120940766225302636
15142383 8 16226036778205260629
15196674 1 18410294679217712111
15209289 33 17095239237202492825
15256400 18 18409451345351769533
15375358 24 18343863303343223878
1601671 61 18412829118698905148
17980427 23 18340205305788947469
1813 80 16443066080214886982
193927 3 12973880360863203288
19784866 170 18412263952336195542
20645477 56 18342460356934832563
21033648 29 18130496487830754640
21065199 12 18411702101267063659
21279426 13 18051698741401334127
212916 134 18411128126280234867
21421861 104 17750784464348393986
21637258 2 14634869781937767929
21859007 373 17604413108356164045
23402539 116 18412820305378164351
23559900 14 18341061709641382598
23622692 88 18187646933405138877
25147074 1 17897736585127604583
2838139 119 17060050407096272385
2916195 48 18201997699368571489
350125 39 18408610279476589613
351380 180 18413108355833734287
3545911 37 18272375277850754000
465052 167 14273748347516689091
474 4 14764351565179800798
495365 180 17632572721802721870
5104073 3 18336547114290787083
57724786 102 16916510384050693232
5924683 9 18199741608830323183
59755656 520 15195290841446005997
7495541 125 11674886601907607582

> <PUBCHEM_SHAPE_MULTIPOLES>
445.46
13.35
2.31
1.18
1.54
0.13
0.31
5.35
4.61
-1.42
-0.28
1.08
0.16
0.62

> <PUBCHEM_SHAPE_SELFOVERLAP>
934.319

> <PUBCHEM_SHAPE_VOLUME>
257.8

> <PUBCHEM_COORDINATE_TYPE>
2
5
10

$$$$
