102569
  -OEChem-03292013323D

 41 42  0     1  0  0  0  0  0999 V2000
   -1.3102   -0.6819    0.1273 O   0  0  0  0  0  0  0  0  0  0  0  0
    3.0626   -0.7001   -0.1249 O   0  0  0  0  0  0  0  0  0  0  0  0
   -2.3818   -2.7242   -0.2068 O   0  0  0  0  0  0  0  0  0  0  0  0
    2.7151   -2.7586   -1.0823 O   0  0  0  0  0  0  0  0  0  0  0  0
   -6.9641    1.8847    1.0414 O   0  5  0  0  0  0  0  0  0  0  0  0
   -6.7742    2.1355   -1.1312 O   0  0  0  0  0  0  0  0  0  0  0  0
    1.0583   -1.6855    0.1378 N   0  0  0  0  0  0  0  0  0  0  0  0
   -6.3221    1.7452   -0.0276 N   0  3  0  0  0  0  0  0  0  0  0  0
    0.0261   -2.6821    0.0134 C   0  0  1  0  0  0  0  0  0  0  0  0
    0.1162   -3.6816    1.1559 C   0  0  0  0  0  0  0  0  0  0  0  0
   -1.3635   -2.0609   -0.0357 C   0  0  0  0  0  0  0  0  0  0  0  0
    4.3973   -0.6906   -0.6438 C   0  0  0  0  0  0  0  0  0  0  0  0
    5.0738    0.5839   -0.2321 C   0  0  0  0  0  0  0  0  0  0  0  0
   -2.5672   -0.0731    0.0882 C   0  0  0  0  0  0  0  0  0  0  0  0
    2.3165   -1.8063   -0.4199 C   0  0  0  0  0  0  0  0  0  0  0  0
    4.9882    1.7043   -1.0510 C   0  0  0  0  0  0  0  0  0  0  0  0
    5.7798    0.6333    0.9648 C   0  0  0  0  0  0  0  0  0  0  0  0
   -3.2654    0.0776    1.2658 C   0  0  0  0  0  0  0  0  0  0  0  0
   -3.0589    0.3531   -1.1256 C   0  0  0  0  0  0  0  0  0  0  0  0
   -5.0443    1.1271    0.0128 C   0  0  0  0  0  0  0  0  0  0  0  0
   -4.5203    0.6854    1.2275 C   0  0  0  0  0  0  0  0  0  0  0  0
   -4.3137    0.9610   -1.1638 C   0  0  0  0  0  0  0  0  0  0  0  0
    5.6168    2.8892   -0.6684 C   0  0  0  0  0  0  0  0  0  0  0  0
    6.4083    1.8183    1.3475 C   0  0  0  0  0  0  0  0  0  0  0  0
    6.3268    2.9463    0.5307 C   0  0  0  0  0  0  0  0  0  0  0  0
    0.1745   -3.1997   -0.9418 H   0  0  0  0  0  0  0  0  0  0  0  0
   -0.0386   -3.1899    2.1233 H   0  0  0  0  0  0  0  0  0  0  0  0
    1.0987   -4.1650    1.1816 H   0  0  0  0  0  0  0  0  0  0  0  0
   -0.6440   -4.4637    1.0575 H   0  0  0  0  0  0  0  0  0  0  0  0
    0.8596   -0.8481    0.6774 H   0  0  0  0  0  0  0  0  0  0  0  0
    4.3696   -0.7690   -1.7378 H   0  0  0  0  0  0  0  0  0  0  0  0
    4.9506   -1.5557   -0.2572 H   0  0  0  0  0  0  0  0  0  0  0  0
    4.4358    1.6717   -1.9861 H   0  0  0  0  0  0  0  0  0  0  0  0
    5.8479   -0.2386    1.6095 H   0  0  0  0  0  0  0  0  0  0  0  0
   -2.8565   -0.2658    2.2110 H   0  0  0  0  0  0  0  0  0  0  0  0
   -2.4894    0.2241   -2.0406 H   0  0  0  0  0  0  0  0  0  0  0  0
   -5.0610    0.7981    2.1637 H   0  0  0  0  0  0  0  0  0  0  0  0
   -4.6901    1.2926   -2.1282 H   0  0  0  0  0  0  0  0  0  0  0  0
    5.5528    3.7678   -1.3038 H   0  0  0  0  0  0  0  0  0  0  0  0
    6.9607    1.8631    2.2815 H   0  0  0  0  0  0  0  0  0  0  0  0
    6.8159    3.8690    0.8288 H   0  0  0  0  0  0  0  0  0  0  0  0
  1 11  1  0  0  0  0
  1 14  1  0  0  0  0
  2 12  1  0  0  0  0
  2 15  1  0  0  0  0
  3 11  2  0  0  0  0
  4 15  2  0  0  0  0
  5  8  1  0  0  0  0
  6  8  2  0  0  0  0
  7  9  1  0  0  0  0
  7 15  1  0  0  0  0
  7 30  1  0  0  0  0
  8 20  1  0  0  0  0
  9 10  1  0  0  0  0
  9 11  1  0  0  0  0
  9 26  1  0  0  0  0
 10 27  1  0  0  0  0
 10 28  1  0  0  0  0
 10 29  1  0  0  0  0
 12 13  1  0  0  0  0
 12 31  1  0  0  0  0
 12 32  1  0  0  0  0
 13 16  2  0  0  0  0
 13 17  1  0  0  0  0
 14 18  2  0  0  0  0
 14 19  1  0  0  0  0
 16 23  1  0  0  0  0
 16 33  1  0  0  0  0
 17 24  2  0  0  0  0
 17 34  1  0  0  0  0
 18 21  1  0  0  0  0
 18 35  1  0  0  0  0
 19 22  2  0  0  0  0
 19 36  1  0  0  0  0
 20 21  2  0  0  0  0
 20 22  1  0  0  0  0
 21 37  1  0  0  0  0
 22 38  1  0  0  0  0
 23 25  2  0  0  0  0
 23 39  1  0  0  0  0
 24 25  1  0  0  0  0
 24 40  1  0  0  0  0
 25 41  1  0  0  0  0
M  CHG  2   5  -1   8   1
M  END
> <PUBCHEM_COMPOUND_CID>
102569

> <PUBCHEM_CONFORMER_RMSD>
1

> <PUBCHEM_CONFORMER_DIVERSEORDER>
1
235
23
282
202
195
68
39
50
66
318
8
383
331
127
365
268
154
366
313
38
149
316
136
15
326
182
341
85
218
387
261
325
400
315
12
221
350
117
364
80
332
95
166
104
231
14
386
362
281
258
150
393
109
4
344
294
92
118
271
70
312
139
327
309
152
224
7
108
76
289
346
355
72
374
213
45
73
55
283
125
148
197
132
301
54
208
329
62
106
141
58
310
130
93
399
217
84
20
358
390
129
349
323
43
124
184
65
41
203
140
248
9
371
16
28
162
319
347
133
245
165
52
21
214
121
30
13
172
156
287
32
26
82
320
81
324
280
126
335
87
178
288
5
279
392
201
361
79
389
270
137
328
168
220
34
110
51
259
321
381
56
179
375
337
406
401
200
196
31
336
212
225
113
222
285
266
251
262
205
180
10
354
115
134
343
250
372
111
71
291
194
114
215
169
382
211
96
405
276
53
128
37
243
60
352
295
48
290
6
227
78
173
377
253
353
100
369
269
239
234
204
36
2
302
273
18
142
151
94
177
101
303
120
277
257
67
42
47
209
297
384
88
185
191
57
112
256
275
98
33
379
311
403
232
391
46
11
263
187
385
174
40
44
342
99
86
322
242
338
230
189
240
119
64
181
77
74
210
170
176
249
135
378
274
155
267
363
306
246
394
296
395
370
103
272
107
255
340
159
244
161
206
175
356
260
330
367
252
61
97
314
186
105
3
265
163
236
348
207
24
19
292
398
146
17
198
188
138
241
199
305
157
304
334
131
102
308
160
83
396
360
373
293
339
351
238
59
90
190
284
123
91
264
144
317
164
404
228
69
219
254
397
229
27
388
359
35
380
49
237
143
300
25
298
183
402
116
286
158
307
89
193
357
223
216
376
192
29
75
278
147
122
22
63
167
247
226
145
171
233
368
345
153
299
333

> <PUBCHEM_MMFF94_PARTIAL_CHARGES>
34
1 -0.23
11 0.66
12 0.42
13 -0.14
14 0.08
15 0.78
16 -0.15
17 -0.15
18 -0.15
19 -0.15
2 -0.43
20 0.13
21 -0.15
22 -0.15
23 -0.15
24 -0.15
25 -0.15
3 -0.57
30 0.37
33 0.15
34 0.15
35 0.15
36 0.15
37 0.15
38 0.15
39 0.15
4 -0.57
40 0.15
41 0.15
5 -0.52
6 -0.52
7 -0.73
8 0.91
9 0.36

> <PUBCHEM_EFFECTIVE_ROTOR_COUNT>
9

> <PUBCHEM_PHARMACOPHORE_FEATURES>
8
1 3 acceptor
1 4 acceptor
1 5 acceptor
1 5 anion
1 6 acceptor
1 7 donor
6 13 16 17 23 24 25 rings
6 14 18 19 20 21 22 rings

> <PUBCHEM_HEAVY_ATOM_COUNT>
25

> <PUBCHEM_ATOM_DEF_STEREO_COUNT>
0

> <PUBCHEM_ATOM_UDEF_STEREO_COUNT>
1

> <PUBCHEM_BOND_DEF_STEREO_COUNT>
0

> <PUBCHEM_BOND_UDEF_STEREO_COUNT>
0

> <PUBCHEM_ISOTOPIC_ATOM_COUNT>
0

> <PUBCHEM_COMPONENT_COUNT>
1

> <PUBCHEM_CACTVS_TAUTO_COUNT>
2

> <PUBCHEM_CONFORMER_ID>
000190A900000001

> <PUBCHEM_MMFF94_ENERGY>
66.9283

> <PUBCHEM_FEATURE_SELFOVERLAP>
40.679

> <PUBCHEM_SHAPE_FINGERPRINT>
10074138 170 17386296518122125547
10319926 262 15574992810779230271
10928967 22 8141820356795336776
10981352 41 11891335365582430680
11200772 71 17988346162058306535
11273773 42 17703799106572360841
12107183 9 18261095350398803242
12422481 6 17676201390648244668
13540713 4 18267606713566182870
13885169 86 18410016550073720705
13911852 28 8934998161730215439
13955234 65 17971755467402729731
14117953 113 18410295792448211676
14123256 34 8790887397476202600
14168556 18 18336552724557760171
14251764 30 8935004771896133884
14251764 75 18412266116572574619
14429114 114 18268710515644585633
14565420 104 18260267404435311515
14848178 96 18342742927429007594
14950920 106 15068904213168701468
15183329 4 15841554063336824456
15519825 34 16081942571551158889
18393751 57 18187650176680583571
19301679 30 10665228112520713119
20691028 202 18411985749565973297
20715895 44 18411699903040282728
21033648 29 18187089468452216270
21298829 104 18342741805789182177
21401589 2 18336552710802491906
21585481 104 15841008675441685169
21585483 132 10738154445247103801
22849339 104 15123494944023539133
229767 8 10954830683617150776
23522609 53 17131002949821155969
23559900 14 18272095959871591262
23569914 2 16954182787934842813
270888 7 18411698811807112664
2748736 6 18411694400628163184
283562 15 18191300688060651291
2838139 119 18337666421481105654
3014063 24 11025804214617594009
3246875 12 18409171043312905771
3472631 163 18341896285699827670
44317340 157 18131641062313656334
465052 167 7853572418352962120
474113 269 11963395180861931057
5104073 3 18186516635869173002
5219985 13 18410575106391688486
543368 44 18202843245448704233
56633871 153 10881407547138360481
59682541 52 16702030734085003124
6712543 237 15574713595271998241
6898599 12 18059291079750189095
9981440 41 18336828718776873890

> <PUBCHEM_SHAPE_MULTIPOLES>
469.31
19.43
3.95
1.24
0.96
2.22
-0.13
-23.64
-1.79
1.45
-0.13
-0.11
-0.27
0.86

> <PUBCHEM_SHAPE_SELFOVERLAP>
992.699

> <PUBCHEM_SHAPE_VOLUME>
261.2

> <PUBCHEM_COORDINATE_TYPE>
2
5
10

$$$$
