102596857
  -OEChem-03292013293D

 51 53  0     0  0  0  0  0  0999 V2000
   -4.7134    2.1738    0.5104 S   0  0  0  0  0  0  0  0  0  0  0  0
    0.0199   -3.1443    0.7193 S   0  0  0  0  0  0  0  0  0  0  0  0
    6.8873    2.1914   -1.4469 O   0  0  0  0  0  0  0  0  0  0  0  0
    7.7720    1.3943    0.5436 O   0  0  0  0  0  0  0  0  0  0  0  0
    0.6327   -0.4982    0.2862 N   0  0  0  0  0  0  0  0  0  0  0  0
    2.3875   -2.0985    0.3184 N   0  0  0  0  0  0  0  0  0  0  0  0
    6.8073    1.3335   -0.3025 N   0  3  0  0  0  0  0  0  0  0  0  0
   -4.1482   -0.7043   -0.9893 C   0  0  0  0  0  0  0  0  0  0  0  0
   -5.5084    0.0512   -1.0047 C   0  0  0  0  0  0  0  0  0  0  0  0
   -5.9240    0.8306    0.2511 C   0  0  0  0  0  0  0  0  0  0  0  0
   -3.0099    0.0471   -0.2866 C   0  0  0  0  0  0  0  0  0  0  0  0
   -3.7715   -0.9235   -2.4816 C   0  0  0  0  0  0  0  0  0  0  0  0
   -4.3341   -2.1075   -0.3608 C   0  0  0  0  0  0  0  0  0  0  0  0
   -3.1704    1.2845    0.3668 C   0  0  0  0  0  0  0  0  0  0  0  0
   -6.0406   -0.0105    1.5258 C   0  0  0  0  0  0  0  0  0  0  0  0
   -7.2859    1.5016   -0.0114 C   0  0  0  0  0  0  0  0  0  0  0  0
   -1.7162   -0.5257   -0.2873 C   0  0  0  0  0  0  0  0  0  0  0  0
   -2.0598    1.9145    0.9628 C   0  0  0  0  0  0  0  0  0  0  0  0
   -0.6258    0.1031    0.3146 C   0  0  0  0  0  0  0  0  0  0  0  0
   -0.7974    1.3282    0.9378 C   0  0  0  0  0  0  0  0  0  0  0  0
    1.0277   -1.8354    0.3853 C   0  0  0  0  0  0  0  0  0  0  0  0
    3.5002   -1.2345    0.1620 C   0  0  0  0  0  0  0  0  0  0  0  0
    4.5127   -1.2208    1.1214 C   0  0  0  0  0  0  0  0  0  0  0  0
    3.5828   -0.3981   -0.9512 C   0  0  0  0  0  0  0  0  0  0  0  0
    5.6077   -0.3705    0.9676 C   0  0  0  0  0  0  0  0  0  0  0  0
    4.6777    0.4522   -1.1050 C   0  0  0  0  0  0  0  0  0  0  0  0
    5.6901    0.4660   -0.1456 C   0  0  0  0  0  0  0  0  0  0  0  0
   -5.5015    0.7605   -1.8479 H   0  0  0  0  0  0  0  0  0  0  0  0
   -6.3059   -0.6621   -1.2593 H   0  0  0  0  0  0  0  0  0  0  0  0
   -4.5978   -1.3931   -3.0287 H   0  0  0  0  0  0  0  0  0  0  0  0
   -3.4734   -2.7581   -0.5547 H   0  0  0  0  0  0  0  0  0  0  0  0
   -3.5411    0.0282   -2.9756 H   0  0  0  0  0  0  0  0  0  0  0  0
   -2.8996   -1.5743   -2.6071 H   0  0  0  0  0  0  0  0  0  0  0  0
   -4.4528   -2.0691    0.7244 H   0  0  0  0  0  0  0  0  0  0  0  0
   -5.2105   -2.6168   -0.7778 H   0  0  0  0  0  0  0  0  0  0  0  0
   -6.4901    0.5651    2.3444 H   0  0  0  0  0  0  0  0  0  0  0  0
   -7.6096    2.1179    0.8360 H   0  0  0  0  0  0  0  0  0  0  0  0
   -8.0625    0.7449   -0.1755 H   0  0  0  0  0  0  0  0  0  0  0  0
   -7.2641    2.1404   -0.9026 H   0  0  0  0  0  0  0  0  0  0  0  0
   -5.0751   -0.3712    1.8916 H   0  0  0  0  0  0  0  0  0  0  0  0
   -6.6832   -0.8820    1.3561 H   0  0  0  0  0  0  0  0  0  0  0  0
   -1.5670   -1.4497   -0.8367 H   0  0  0  0  0  0  0  0  0  0  0  0
   -2.1675    2.8750    1.4644 H   0  0  0  0  0  0  0  0  0  0  0  0
    0.0371    1.8381    1.4117 H   0  0  0  0  0  0  0  0  0  0  0  0
    1.3901    0.1614    0.4478 H   0  0  0  0  0  0  0  0  0  0  0  0
    2.6322   -3.0054    0.7117 H   0  0  0  0  0  0  0  0  0  0  0  0
    4.4581   -1.8678    1.9932 H   0  0  0  0  0  0  0  0  0  0  0  0
    2.8061   -0.4035   -1.7117 H   0  0  0  0  0  0  0  0  0  0  0  0
    6.3829   -0.3785    1.7290 H   0  0  0  0  0  0  0  0  0  0  0  0
    4.7173    1.0917   -1.9823 H   0  0  0  0  0  0  0  0  0  0  0  0
    7.7293    2.6494   -1.2855 H   0  0  0  0  0  0  0  0  0  0  0  0
  1 10  1  0  0  0  0
  1 14  1  0  0  0  0
  2 21  2  0  0  0  0
  3  7  1  0  0  0  0
  3 51  1  0  0  0  0
  4  7  2  0  0  0  0
  5 19  1  0  0  0  0
  5 21  1  0  0  0  0
  5 45  1  0  0  0  0
  6 21  1  0  0  0  0
  6 22  1  0  0  0  0
  6 46  1  0  0  0  0
  7 27  1  0  0  0  0
  8  9  1  0  0  0  0
  8 11  1  0  0  0  0
  8 12  1  0  0  0  0
  8 13  1  0  0  0  0
  9 10  1  0  0  0  0
  9 28  1  0  0  0  0
  9 29  1  0  0  0  0
 10 15  1  0  0  0  0
 10 16  1  0  0  0  0
 11 14  2  0  0  0  0
 11 17  1  0  0  0  0
 12 30  1  0  0  0  0
 12 32  1  0  0  0  0
 12 33  1  0  0  0  0
 13 31  1  0  0  0  0
 13 34  1  0  0  0  0
 13 35  1  0  0  0  0
 14 18  1  0  0  0  0
 15 36  1  0  0  0  0
 15 40  1  0  0  0  0
 15 41  1  0  0  0  0
 16 37  1  0  0  0  0
 16 38  1  0  0  0  0
 16 39  1  0  0  0  0
 17 19  2  0  0  0  0
 17 42  1  0  0  0  0
 18 20  2  0  0  0  0
 18 43  1  0  0  0  0
 19 20  1  0  0  0  0
 20 44  1  0  0  0  0
 22 23  2  0  0  0  0
 22 24  1  0  0  0  0
 23 25  1  0  0  0  0
 23 47  1  0  0  0  0
 24 26  2  0  0  0  0
 24 48  1  0  0  0  0
 25 27  2  0  0  0  0
 25 49  1  0  0  0  0
 26 27  1  0  0  0  0
 26 50  1  0  0  0  0
M  CHG  1   7   1
M  END
> <PUBCHEM_COMPOUND_CID>
102596857

> <PUBCHEM_CONFORMER_RMSD>
0.8

> <PUBCHEM_CONFORMER_DIVERSEORDER>
1
47
21
35
10
40
15
38
48
46
22
41
6
34
26
23
28
29
5
32
11
19
30
17
42
33
27
37
39
2
43
25
18
14
20
16
12
45
8
3
13
44
7
36
4
24
9
31

> <PUBCHEM_MMFF94_PARTIAL_CHARGES>
32
1 -0.33
10 0.23
11 -0.14
14 0.1
17 -0.15
18 -0.15
19 0.12
2 -0.38
20 -0.15
21 0.5
22 0.12
23 -0.15
24 -0.15
25 -0.15
26 -0.15
27 -0.03
3 -0.54
4 -0.63
42 0.15
43 0.15
44 0.15
45 0.37
46 0.37
47 0.15
48 0.15
49 0.15
5 -0.55
50 0.15
51 0.4
6 -0.55
7 0.81
8 0.14

> <PUBCHEM_EFFECTIVE_ROTOR_COUNT>
5.8

> <PUBCHEM_PHARMACOPHORE_FEATURES>
11
1 2 acceptor
1 3 acceptor
1 3 anion
1 4 acceptor
1 5 donor
1 6 donor
3 10 15 16 hydrophobe
3 8 12 13 hydrophobe
6 1 8 9 10 11 14 rings
6 11 14 17 18 19 20 rings
6 22 23 24 25 26 27 rings

> <PUBCHEM_HEAVY_ATOM_COUNT>
27

> <PUBCHEM_ATOM_DEF_STEREO_COUNT>
0

> <PUBCHEM_ATOM_UDEF_STEREO_COUNT>
0

> <PUBCHEM_BOND_DEF_STEREO_COUNT>
0

> <PUBCHEM_BOND_UDEF_STEREO_COUNT>
0

> <PUBCHEM_ISOTOPIC_ATOM_COUNT>
0

> <PUBCHEM_COMPONENT_COUNT>
1

> <PUBCHEM_CACTVS_TAUTO_COUNT>
11

> <PUBCHEM_CONFORMER_ID>
061D80F900000001

> <PUBCHEM_MMFF94_ENERGY>
119.4666

> <PUBCHEM_FEATURE_SELFOVERLAP>
55.915

> <PUBCHEM_SHAPE_FINGERPRINT>
10 15 18186242818565332563
10076449 9 18202279226623309445
10090160 65 18188205407781572299
10595046 47 18412259510786493570
10906281 52 18130795499939643095
11135609 187 18335136488175298337
12236239 1 18411979131047432119
12760667 363 11024114252445131246
12788726 201 17773594915340096595
12821665 9 18339924917312315805
13583140 156 16588309414375784362
13631057 29 18336823212649755923
14341114 328 18341892956963009755
14394314 77 18410014334045104441
14765038 42 18059587849864836227
14767858 380 18340758329724872078
14840074 17 18202281377705462719
14856354 85 18340208591856017031
15183329 4 18273494576482962233
15537594 2 18201715120738415203
15575132 122 18200592489169731829
15685185 35 18189906499005797604
1577012 14 18410569592122834254
19319366 153 18336821984099341787
19377110 9 18336823096041535155
20511986 3 18334846187019461525
20567600 75 14045741504662797481
21033648 29 15791727469157488998
21049683 271 18412544332276516377
21304303 64 18040718077973511277
21365058 113 14692565550377005594
23081809 10 18343290466512646454
23559900 14 18131058368622376729
335352 9 18060411406008033189
3472631 163 18411143558820227484
34797466 226 17131833166303483824
4073 2 18260833708695043370
4258327 124 17386866074230372718
4325135 7 18271805705247711884
4340502 62 16588024593640824810
437815 12 14405181772609213699
53794403 172 18195806491348863304
543368 44 18411136922847841557
5486654 2 18343581845625730963
6328613 192 18272933783162234585

> <PUBCHEM_SHAPE_MULTIPOLES>
536.66
20.01
2.52
1.38
18.52
0.78
0.51
-10.84
1.59
0.24
-0.37
-0.51
0.15
-2.15

> <PUBCHEM_SHAPE_SELFOVERLAP>
1112.104

> <PUBCHEM_SHAPE_VOLUME>
309.2

> <PUBCHEM_COORDINATE_TYPE>
2
5
10

$$$$
