10250769
  -OEChem-03292013303D

 50 52  0     1  0  0  0  0  0999 V2000
    0.5743    0.4865    0.8229 S   0  0  0  0  0  0  0  0  0  0  0  0
   -0.6166   -3.1021   -1.4389 O   0  0  0  0  0  0  0  0  0  0  0  0
   -3.8431   -0.2005   -1.1959 O   0  0  0  0  0  0  0  0  0  0  0  0
   -3.6317   -1.2928    0.8292 O   0  0  0  0  0  0  0  0  0  0  0  0
    3.4844   -1.5772    1.5609 O   0  0  0  0  0  0  0  0  0  0  0  0
   -5.9273    0.2338   -0.0815 O   0  0  0  0  0  0  0  0  0  0  0  0
   -5.1308    2.2993   -0.7434 O   0  0  0  0  0  0  0  0  0  0  0  0
   -0.9730   -1.5229    0.2785 N   0  0  0  0  0  0  0  0  0  0  0  0
    2.1301   -1.9279   -0.2907 N   0  0  0  0  0  0  0  0  0  0  0  0
    0.1429   -1.2536    1.1902 C   0  0  1  0  0  0  0  0  0  0  0  0
   -1.1976    0.8773    0.4017 C   0  0  0  0  0  0  0  0  0  0  0  0
   -1.6987   -0.4069   -0.2935 C   0  0  2  0  0  0  0  0  0  0  0  0
    0.9324   -2.3348    0.4396 C   0  0  1  0  0  0  0  0  0  0  0  0
   -0.3273   -2.4905   -0.4355 C   0  0  0  0  0  0  0  0  0  0  0  0
   -1.2302    2.0752   -0.5491 C   0  0  0  0  0  0  0  0  0  0  0  0
   -1.9282    1.2216    1.7067 C   0  0  0  0  0  0  0  0  0  0  0  0
   -3.1564   -0.6966   -0.1277 C   0  0  0  0  0  0  0  0  0  0  0  0
    3.3243   -1.5779    0.3430 C   0  0  0  0  0  0  0  0  0  0  0  0
    4.4061   -1.1946   -0.6477 C   0  0  0  0  0  0  0  0  0  0  0  0
   -5.2657   -0.4038   -1.1864 C   0  0  0  0  0  0  0  0  0  0  0  0
    4.9074    0.2140   -0.4678 C   0  0  0  0  0  0  0  0  0  0  0  0
    4.2954    1.2648   -1.1514 C   0  0  0  0  0  0  0  0  0  0  0  0
    5.9833    0.4682    0.3827 C   0  0  0  0  0  0  0  0  0  0  0  0
    4.7595    2.5695   -0.9847 C   0  0  0  0  0  0  0  0  0  0  0  0
    6.4474    1.7732    0.5495 C   0  0  0  0  0  0  0  0  0  0  0  0
   -5.7729    1.5849    0.0145 C   0  0  0  0  0  0  0  0  0  0  0  0
    5.8354    2.8237   -0.1344 C   0  0  0  0  0  0  0  0  0  0  0  0
   -6.5232    2.0902    1.2092 C   0  0  0  0  0  0  0  0  0  0  0  0
   -0.0988   -1.4739    2.2340 H   0  0  0  0  0  0  0  0  0  0  0  0
   -1.4607   -0.3974   -1.3662 H   0  0  0  0  0  0  0  0  0  0  0  0
    1.1223   -3.2339    1.0390 H   0  0  0  0  0  0  0  0  0  0  0  0
   -0.8102    2.9735   -0.0819 H   0  0  0  0  0  0  0  0  0  0  0  0
   -0.6672    1.8813   -1.4695 H   0  0  0  0  0  0  0  0  0  0  0  0
   -2.2597    2.3099   -0.8409 H   0  0  0  0  0  0  0  0  0  0  0  0
   -1.4617    2.0751    2.2132 H   0  0  0  0  0  0  0  0  0  0  0  0
   -2.9693    1.5022    1.5111 H   0  0  0  0  0  0  0  0  0  0  0  0
   -1.9417    0.3827    2.4113 H   0  0  0  0  0  0  0  0  0  0  0  0
    2.1010   -1.8931   -1.3069 H   0  0  0  0  0  0  0  0  0  0  0  0
    4.0675   -1.3296   -1.6820 H   0  0  0  0  0  0  0  0  0  0  0  0
    5.2319   -1.9062   -0.5198 H   0  0  0  0  0  0  0  0  0  0  0  0
   -5.6772   -0.0177   -2.1253 H   0  0  0  0  0  0  0  0  0  0  0  0
   -5.4799   -1.4776   -1.1469 H   0  0  0  0  0  0  0  0  0  0  0  0
    3.4547    1.0793   -1.8146 H   0  0  0  0  0  0  0  0  0  0  0  0
    6.4674   -0.3414    0.9223 H   0  0  0  0  0  0  0  0  0  0  0  0
    4.2825    3.3876   -1.5163 H   0  0  0  0  0  0  0  0  0  0  0  0
    7.2847    1.9713    1.2122 H   0  0  0  0  0  0  0  0  0  0  0  0
    6.1963    3.8397   -0.0042 H   0  0  0  0  0  0  0  0  0  0  0  0
   -7.5882    1.8721    1.0983 H   0  0  0  0  0  0  0  0  0  0  0  0
   -6.3952    3.1737    1.2858 H   0  0  0  0  0  0  0  0  0  0  0  0
   -6.1272    1.6285    2.1173 H   0  0  0  0  0  0  0  0  0  0  0  0
  1 10  1  0  0  0  0
  1 11  1  0  0  0  0
  2 14  2  0  0  0  0
  3 17  1  0  0  0  0
  3 20  1  0  0  0  0
  4 17  2  0  0  0  0
  5 18  2  0  0  0  0
  6 20  1  0  0  0  0
  6 26  1  0  0  0  0
  7 26  2  0  0  0  0
  8 10  1  0  0  0  0
  8 12  1  0  0  0  0
  8 14  1  0  0  0  0
  9 13  1  0  0  0  0
  9 18  1  0  0  0  0
  9 38  1  0  0  0  0
 10 13  1  0  0  0  0
 10 29  1  0  0  0  0
 11 12  1  0  0  0  0
 11 15  1  0  0  0  0
 11 16  1  0  0  0  0
 12 17  1  0  0  0  0
 12 30  1  0  0  0  0
 13 14  1  0  0  0  0
 13 31  1  0  0  0  0
 15 32  1  0  0  0  0
 15 33  1  0  0  0  0
 15 34  1  0  0  0  0
 16 35  1  0  0  0  0
 16 36  1  0  0  0  0
 16 37  1  0  0  0  0
 18 19  1  0  0  0  0
 19 21  1  0  0  0  0
 19 39  1  0  0  0  0
 19 40  1  0  0  0  0
 20 41  1  0  0  0  0
 20 42  1  0  0  0  0
 21 22  2  0  0  0  0
 21 23  1  0  0  0  0
 22 24  1  0  0  0  0
 22 43  1  0  0  0  0
 23 25  2  0  0  0  0
 23 44  1  0  0  0  0
 24 27  2  0  0  0  0
 24 45  1  0  0  0  0
 25 27  1  0  0  0  0
 25 46  1  0  0  0  0
 26 28  1  0  0  0  0
 27 47  1  0  0  0  0
 28 48  1  0  0  0  0
 28 49  1  0  0  0  0
 28 50  1  0  0  0  0
M  END
> <PUBCHEM_COMPOUND_CID>
10250769

> <PUBCHEM_CONFORMER_RMSD>
1

> <PUBCHEM_CONFORMER_DIVERSEORDER>
1
35
130
112
116
91
21
68
19
61
94
36
133
24
88
105
23
74
110
54
109
132
72
85
41
92
114
63
49
60
102
67
98
121
37
64
95
17
77
113
101
12
97
73
43
8
80
125
115
25
50
53
82
93
46
86
10
6
127
79
90
42
126
62
28
75
103
26
104
117
20
39
40
38
78
129
119
99
31
83
111
66
30
22
131
59
9
15
48
108
65
70
123
71
57
100
58
120
34
47
81
5
52
7
84
11
69
55
106
33
14
13
122
51
32
128
96
4
44
124
45
89
87
2
3
76
27
107
18
29
16
118
56

> <PUBCHEM_MMFF94_PARTIAL_CHARGES>
32
1 -0.45
10 0.44
11 0.23
12 0.36
13 0.28
14 0.58
17 0.66
18 0.57
19 0.2
2 -0.57
20 0.56
21 -0.14
22 -0.15
23 -0.15
24 -0.15
25 -0.15
26 0.66
27 -0.15
28 0.06
3 -0.43
38 0.37
4 -0.57
43 0.15
44 0.15
45 0.15
46 0.15
47 0.15
5 -0.57
6 -0.43
7 -0.57
8 -0.59
9 -0.65

> <PUBCHEM_EFFECTIVE_ROTOR_COUNT>
9.8

> <PUBCHEM_PHARMACOPHORE_FEATURES>
8
1 2 acceptor
1 4 acceptor
1 5 acceptor
1 7 acceptor
1 9 donor
3 11 15 16 hydrophobe
6 21 22 23 24 25 27 rings
7 1 8 10 11 12 13 14 rings

> <PUBCHEM_HEAVY_ATOM_COUNT>
28

> <PUBCHEM_ATOM_DEF_STEREO_COUNT>
3

> <PUBCHEM_ATOM_UDEF_STEREO_COUNT>
0

> <PUBCHEM_BOND_DEF_STEREO_COUNT>
0

> <PUBCHEM_BOND_UDEF_STEREO_COUNT>
0

> <PUBCHEM_ISOTOPIC_ATOM_COUNT>
0

> <PUBCHEM_COMPONENT_COUNT>
1

> <PUBCHEM_CACTVS_TAUTO_COUNT>
2

> <PUBCHEM_CONFORMER_ID>
009C6A1100000001

> <PUBCHEM_MMFF94_ENERGY>
68.1532

> <PUBCHEM_FEATURE_SELFOVERLAP>
40.597

> <PUBCHEM_SHAPE_FINGERPRINT>
10673678 19 18340491067100573935
10692045 39 14201667620669009688
10906281 52 18201447926628106411
11135609 187 18342175596150508968
117089 54 8213052277847022064
11796584 16 13901609827975468727
12422481 6 17458064846043745149
12788726 201 17704078369329404920
13533116 47 17096082464211783162
13617811 41 18340194288961027441
13690498 29 17702370944469231367
13782708 43 11743835859304474017
14117953 113 18407761456816646748
14251764 30 8790893968929088204
14394314 77 18411702105583851000
14790565 3 18412266099556398017
14931854 50 18059026081138658112
15183329 4 18335419084191552229
15840311 113 18337398115607568517
1813 80 13183020714003703922
20511986 3 18340757235188472308
20567600 75 12607403274043627721
20715895 44 18409448107463353980
21298829 104 18409731789900956220
21304253 335 18259708916989366454
21304303 64 18333452041147350597
23227448 37 18264208187580203310
23559900 14 17843395439481867552
2748736 6 18410005572332348044
2838139 119 18334288747535467870
3472631 163 18341051899967518846
34797466 226 18201444657678004895
3680242 22 18113893845604191520
4340502 62 16732703839565812546
474 4 18041844034447852522
5104073 3 17821729433527299459
56633871 153 11097846415498105408
6328613 192 18271526404036545913

> <PUBCHEM_SHAPE_MULTIPOLES>
534.9
16.29
3.26
1.27
0.91
0.17
0.14
-13.26
-0.94
-1.31
-0.38
0.39
-0.01
-1.21

> <PUBCHEM_SHAPE_SELFOVERLAP>
1112.874

> <PUBCHEM_SHAPE_VOLUME>
305.7

> <PUBCHEM_COORDINATE_TYPE>
2
5
10

$$$$
