102515221
  -OEChem-03292013293D

 62 65  0     1  0  0  0  0  0999 V2000
    2.8692    0.8850    2.3511 O   0  0  0  0  0  0  0  0  0  0  0  0
    2.5933    1.9099   -0.4995 O   0  0  0  0  0  0  0  0  0  0  0  0
    4.1732   -2.2464   -0.3867 O   0  0  0  0  0  0  0  0  0  0  0  0
    4.2347    0.5247   -2.3127 O   0  0  0  0  0  0  0  0  0  0  0  0
   -0.5814   -1.7773   -0.0373 O   0  0  0  0  0  0  0  0  0  0  0  0
   -2.1382    0.4642    0.2216 O   0  0  0  0  0  0  0  0  0  0  0  0
   -1.5273   -2.9705   -1.7749 O   0  0  0  0  0  0  0  0  0  0  0  0
   -3.4097    1.3869    1.9103 O   0  0  0  0  0  0  0  0  0  0  0  0
    2.3664   -0.7646    0.4610 C   0  0  1  0  0  0  0  0  0  0  0  0
    3.2327    0.2925    1.1141 C   0  0  1  0  0  0  0  0  0  0  0  0
    1.0539   -0.0370   -0.1120 C   0  0  2  0  0  0  0  0  0  0  0  0
    3.7036    1.1621    0.0062 C   0  0  1  0  0  0  0  0  0  0  0  0
    3.3370   -1.1445   -0.7410 C   0  0  1  0  0  0  0  0  0  0  0  0
    4.0706    0.0952    2.3592 C   0  0  0  0  0  0  0  0  0  0  0  0
    4.2432    0.0989   -0.9645 C   0  0  1  0  0  0  0  0  0  0  0  0
    1.4900    1.1554   -1.0288 C   0  0  1  0  0  0  0  0  0  0  0  0
    2.0408   -1.9611    1.3606 C   0  0  0  0  0  0  0  0  0  0  0  0
    0.1420    0.5289    1.0268 C   0  0  0  0  0  0  0  0  0  0  0  0
    0.1996   -1.0375   -0.9434 C   0  0  0  0  0  0  0  0  0  0  0  0
   -1.0660    1.3489    0.5394 C   0  0  1  0  0  0  0  0  0  0  0  0
    0.4012    2.1571   -1.3098 C   0  0  0  0  0  0  0  0  0  0  0  0
   -0.7585    2.2410   -0.6365 C   0  0  0  0  0  0  0  0  0  0  0  0
   -1.7982    3.2632   -0.9994 C   0  0  0  0  0  0  0  0  0  0  0  0
   -1.4146   -2.7249   -0.5816 C   0  0  0  0  0  0  0  0  0  0  0  0
   -3.2617    0.5913    0.9929 C   0  0  0  0  0  0  0  0  0  0  0  0
   -2.1807   -3.4301    0.4964 C   0  0  0  0  0  0  0  0  0  0  0  0
   -4.2840   -0.4370    0.5576 C   0  0  0  0  0  0  0  0  0  0  0  0
   -5.6323    0.1830    0.1588 C   0  0  0  0  0  0  0  0  0  0  0  0
   -6.6240   -0.9186   -0.2200 C   0  0  0  0  0  0  0  0  0  0  0  0
   -5.4748    1.1611   -1.0082 C   0  0  0  0  0  0  0  0  0  0  0  0
    4.4829    1.8735    0.2958 H   0  0  0  0  0  0  0  0  0  0  0  0
    2.8109   -1.4331   -1.6524 H   0  0  0  0  0  0  0  0  0  0  0  0
    4.0405   -0.8380    2.9027 H   0  0  0  0  0  0  0  0  0  0  0  0
    5.0112    0.6255    2.4411 H   0  0  0  0  0  0  0  0  0  0  0  0
    5.2802   -0.1407   -0.6962 H   0  0  0  0  0  0  0  0  0  0  0  0
    1.7899    0.7607   -2.0066 H   0  0  0  0  0  0  0  0  0  0  0  0
    1.4169   -1.6756    2.2123 H   0  0  0  0  0  0  0  0  0  0  0  0
    2.9446   -2.4124    1.7834 H   0  0  0  0  0  0  0  0  0  0  0  0
    1.5363   -2.7584    0.8076 H   0  0  0  0  0  0  0  0  0  0  0  0
    0.7291    1.2224    1.6353 H   0  0  0  0  0  0  0  0  0  0  0  0
   -0.1973   -0.2535    1.7142 H   0  0  0  0  0  0  0  0  0  0  0  0
    0.8094   -1.7164   -1.5440 H   0  0  0  0  0  0  0  0  0  0  0  0
   -0.4656   -0.5087   -1.6362 H   0  0  0  0  0  0  0  0  0  0  0  0
   -1.3283    2.0115    1.3745 H   0  0  0  0  0  0  0  0  0  0  0  0
    0.5901    2.8447   -2.1315 H   0  0  0  0  0  0  0  0  0  0  0  0
    4.7681   -2.4128   -1.1378 H   0  0  0  0  0  0  0  0  0  0  0  0
    4.5323   -0.2239   -2.8573 H   0  0  0  0  0  0  0  0  0  0  0  0
   -2.7063    2.7695   -1.3557 H   0  0  0  0  0  0  0  0  0  0  0  0
   -1.4557    3.9376   -1.7914 H   0  0  0  0  0  0  0  0  0  0  0  0
   -2.0506    3.8775   -0.1292 H   0  0  0  0  0  0  0  0  0  0  0  0
   -3.1443   -3.7600    0.0987 H   0  0  0  0  0  0  0  0  0  0  0  0
   -2.3771   -2.7515    1.3308 H   0  0  0  0  0  0  0  0  0  0  0  0
   -1.6069   -4.2910    0.8468 H   0  0  0  0  0  0  0  0  0  0  0  0
   -3.8847   -1.0127   -0.2861 H   0  0  0  0  0  0  0  0  0  0  0  0
   -4.4100   -1.1409    1.3885 H   0  0  0  0  0  0  0  0  0  0  0  0
   -6.0390    0.7361    1.0146 H   0  0  0  0  0  0  0  0  0  0  0  0
   -4.9976    0.6816   -1.8696 H   0  0  0  0  0  0  0  0  0  0  0  0
   -6.4503    1.5416   -1.3299 H   0  0  0  0  0  0  0  0  0  0  0  0
   -4.8701    2.0251   -0.7179 H   0  0  0  0  0  0  0  0  0  0  0  0
   -6.2707   -1.4935   -1.0829 H   0  0  0  0  0  0  0  0  0  0  0  0
   -6.7689   -1.6133    0.6141 H   0  0  0  0  0  0  0  0  0  0  0  0
   -7.6007   -0.4929   -0.4731 H   0  0  0  0  0  0  0  0  0  0  0  0
  1 10  1  0  0  0  0
  1 14  1  0  0  0  0
  2 12  1  0  0  0  0
  2 16  1  0  0  0  0
  3 13  1  0  0  0  0
  3 46  1  0  0  0  0
  4 15  1  0  0  0  0
  4 47  1  0  0  0  0
  5 19  1  0  0  0  0
  5 24  1  0  0  0  0
  6 20  1  0  0  0  0
  6 25  1  0  0  0  0
  7 24  2  0  0  0  0
  8 25  2  0  0  0  0
  9 10  1  0  0  0  0
  9 11  1  0  0  0  0
  9 13  1  0  0  0  0
  9 17  1  0  0  0  0
 10 12  1  0  0  0  0
 10 14  1  0  0  0  0
 11 16  1  0  0  0  0
 11 18  1  0  0  0  0
 11 19  1  0  0  0  0
 12 15  1  0  0  0  0
 12 31  1  0  0  0  0
 13 15  1  0  0  0  0
 13 32  1  0  0  0  0
 14 33  1  0  0  0  0
 14 34  1  0  0  0  0
 15 35  1  0  0  0  0
 16 21  1  0  0  0  0
 16 36  1  0  0  0  0
 17 37  1  0  0  0  0
 17 38  1  0  0  0  0
 17 39  1  0  0  0  0
 18 20  1  0  0  0  0
 18 40  1  0  0  0  0
 18 41  1  0  0  0  0
 19 42  1  0  0  0  0
 19 43  1  0  0  0  0
 20 22  1  0  0  0  0
 20 44  1  0  0  0  0
 21 22  2  0  0  0  0
 21 45  1  0  0  0  0
 22 23  1  0  0  0  0
 23 48  1  0  0  0  0
 23 49  1  0  0  0  0
 23 50  1  0  0  0  0
 24 26  1  0  0  0  0
 25 27  1  0  0  0  0
 26 51  1  0  0  0  0
 26 52  1  0  0  0  0
 26 53  1  0  0  0  0
 27 28  1  0  0  0  0
 27 54  1  0  0  0  0
 27 55  1  0  0  0  0
 28 29  1  0  0  0  0
 28 30  1  0  0  0  0
 28 56  1  0  0  0  0
 29 60  1  0  0  0  0
 29 61  1  0  0  0  0
 29 62  1  0  0  0  0
 30 57  1  0  0  0  0
 30 58  1  0  0  0  0
 30 59  1  0  0  0  0
M  END
> <PUBCHEM_COMPOUND_CID>
102515221

> <PUBCHEM_CONFORMER_RMSD>
1

> <PUBCHEM_CONFORMER_DIVERSEORDER>
1
61
29
17
59
22
69
66
23
36
41
33
20
3
16
37
46
18
25
39
50
55
45
56
4
63
57
42
47
8
49
11
26
52
60
38
54
48
21
28
71
32
34
40
12
31
2
53
19
72
62
24
14
13
43
70
5
10
65
9
35
44
58
6
64
27
15
51
30
7
67
68

> <PUBCHEM_MMFF94_PARTIAL_CHARGES>
29
1 -0.3
10 -0.04
12 0.38
13 0.28
14 -0.05
15 0.28
16 0.42
19 0.28
2 -0.56
20 0.42
21 -0.29
22 -0.28
23 0.14
24 0.66
25 0.66
26 0.06
27 0.06
3 -0.68
33 0.1
34 0.1
4 -0.68
45 0.15
46 0.4
47 0.4
5 -0.43
6 -0.43
7 -0.57
8 -0.57
9 0.09

> <PUBCHEM_EFFECTIVE_ROTOR_COUNT>
8.4

> <PUBCHEM_PHARMACOPHORE_FEATURES>
11
1 1 acceptor
1 2 acceptor
1 3 acceptor
1 3 donor
1 4 acceptor
1 4 donor
1 7 acceptor
1 8 acceptor
3 28 29 30 hydrophobe
6 11 16 18 20 21 22 rings
8 2 9 10 11 12 13 15 16 rings

> <PUBCHEM_HEAVY_ATOM_COUNT>
30

> <PUBCHEM_ATOM_DEF_STEREO_COUNT>
4

> <PUBCHEM_ATOM_UDEF_STEREO_COUNT>
4

> <PUBCHEM_BOND_DEF_STEREO_COUNT>
0

> <PUBCHEM_BOND_UDEF_STEREO_COUNT>
0

> <PUBCHEM_ISOTOPIC_ATOM_COUNT>
0

> <PUBCHEM_COMPONENT_COUNT>
1

> <PUBCHEM_CACTVS_TAUTO_COUNT>
4

> <PUBCHEM_CONFORMER_ID>
061C421500000001

> <PUBCHEM_MMFF94_ENERGY>
101.9138

> <PUBCHEM_FEATURE_SELFOVERLAP>
55.835

> <PUBCHEM_SHAPE_FINGERPRINT>
11135609 12 18260819381301068642
11488393 25 17699294265726082191
11578080 2 17130133437111568746
12553582 1 18335133232510791349
12788726 201 18041001721624051392
13140716 1 18192422185419267312
13224815 77 18335136436619996401
13583140 156 17386864961580830201
14787075 74 17131823292437181177
14840074 17 18410864239853860637
15183329 4 18040712546846911445
16752209 62 18262518087272500388
16945 1 18336536166904698932
17349148 13 18343308067747041517
17980427 23 18050545620688211832
18222031 100 18408887339037022409
19591789 44 18193280685031269614
20028762 73 18130505237038411039
20261772 1 18409448098176989691
21033648 29 18199733791694387273
23419403 2 17118550133721302756
23559900 14 17988087802273717984
3052486 1 18263931101485055954
34934 24 18187368791207316820
350125 39 18268430135831008194
4340502 62 17846206787111992977
58260988 647 16342602577123897430
81228 2 18340192107164574434

> <PUBCHEM_SHAPE_MULTIPOLES>
570.43
10.65
3.16
1.76
11.76
1.08
0.44
0.53
0.3
1.45
-1.05
-1.51
-0.12
-0.33

> <PUBCHEM_SHAPE_SELFOVERLAP>
1207.006

> <PUBCHEM_SHAPE_VOLUME>
314.5

> <PUBCHEM_COORDINATE_TYPE>
2
5
10

$$$$
