102575880
  -OEChem-03292013293D

 59 66  0     1  0  0  0  0  0999 V2000
   -0.4074    2.5729   -1.2068 O   0  0  0  0  0  0  0  0  0  0  0  0
   -3.5680    3.2910   -0.0811 O   0  0  0  0  0  0  0  0  0  0  0  0
   -2.0380   -4.1406    0.2824 O   0  0  0  0  0  0  0  0  0  0  0  0
    0.1133   -4.7479    0.0118 O   0  0  0  0  0  0  0  0  0  0  0  0
    4.3335   -2.9161    0.0623 O   0  0  0  0  0  0  0  0  0  0  0  0
   -4.6762   -3.8208    0.3949 O   0  0  0  0  0  0  0  0  0  0  0  0
   -1.3116    0.5570   -0.3444 N   0  0  0  0  0  0  0  0  0  0  0  0
    1.4172    1.7261   -0.1089 N   0  0  0  0  0  0  0  0  0  0  0  0
   -1.4243    5.0714    0.1298 N   0  0  0  0  0  0  0  0  0  0  0  0
    2.3731   -4.1798    0.0706 N   0  0  0  0  0  0  0  0  0  0  0  0
   -1.6084    1.9328   -0.7809 C   0  0  1  0  0  0  0  0  0  0  0  0
   -2.3200    2.7487    0.3510 C   0  0  1  0  0  0  0  0  0  0  0  0
    0.5369    2.8564   -0.1965 C   0  0  2  0  0  0  0  0  0  0  0  0
   -1.4534    3.8625    0.9595 C   0  0  1  0  0  0  0  0  0  0  0  0
   -0.0501    3.3000    1.1450 C   0  0  0  0  0  0  0  0  0  0  0  0
   -0.1482   -0.1679   -0.2219 C   0  0  0  0  0  0  0  0  0  0  0  0
    1.1623    0.3885   -0.1490 C   0  0  0  0  0  0  0  0  0  0  0  0
   -0.1916   -1.6161   -0.1062 C   0  0  0  0  0  0  0  0  0  0  0  0
    2.2541   -0.5612   -0.0618 C   0  0  0  0  0  0  0  0  0  0  0  0
   -2.2734   -0.4492   -0.1298 C   0  0  0  0  0  0  0  0  0  0  0  0
   -2.4197    1.9007   -2.0961 C   0  0  0  0  0  0  0  0  0  0  0  0
    2.8039    1.7619    0.0073 C   0  0  0  0  0  0  0  0  0  0  0  0
   -1.6487   -1.7314   -0.0398 C   0  0  0  0  0  0  0  0  0  0  0  0
    3.3307    0.4346    0.0190 C   0  0  0  0  0  0  0  0  0  0  0  0
    0.8901   -2.4910   -0.0563 C   0  0  0  0  0  0  0  0  0  0  0  0
    2.1573   -1.9459   -0.0471 C   0  0  0  0  0  0  0  0  0  0  0  0
   -3.6781   -0.3381   -0.0199 C   0  0  0  0  0  0  0  0  0  0  0  0
   -2.4918   -2.8607    0.1291 C   0  0  0  0  0  0  0  0  0  0  0  0
    3.6546    2.8820    0.1072 C   0  0  0  0  0  0  0  0  0  0  0  0
    1.0200   -3.9399    0.0152 C   0  0  0  0  0  0  0  0  0  0  0  0
    3.1245   -3.0293    0.0355 C   0  0  0  0  0  0  0  0  0  0  0  0
    4.7379    0.2964    0.1256 C   0  0  0  0  0  0  0  0  0  0  0  0
   -4.4609    3.4506    1.0081 C   0  0  0  0  0  0  0  0  0  0  0  0
   -4.4633   -1.4780    0.1504 C   0  0  0  0  0  0  0  0  0  0  0  0
   -3.8785   -2.7283    0.2180 C   0  0  0  0  0  0  0  0  0  0  0  0
    5.0325    2.6924    0.2085 C   0  0  0  0  0  0  0  0  0  0  0  0
    5.5696    1.4161    0.2154 C   0  0  0  0  0  0  0  0  0  0  0  0
   -2.5295    2.0458    1.1703 H   0  0  0  0  0  0  0  0  0  0  0  0
    1.1241    3.6883   -0.5997 H   0  0  0  0  0  0  0  0  0  0  0  0
   -1.8522    4.1501    1.9389 H   0  0  0  0  0  0  0  0  0  0  0  0
    0.6167    4.0309    1.6200 H   0  0  0  0  0  0  0  0  0  0  0  0
   -0.0961    2.4537    1.8441 H   0  0  0  0  0  0  0  0  0  0  0  0
   -1.9046    1.2963   -2.8537 H   0  0  0  0  0  0  0  0  0  0  0  0
   -2.5062    2.9090   -2.5200 H   0  0  0  0  0  0  0  0  0  0  0  0
   -3.4294    1.5000   -1.9862 H   0  0  0  0  0  0  0  0  0  0  0  0
   -0.8707    5.7906    0.5932 H   0  0  0  0  0  0  0  0  0  0  0  0
   -2.3683    5.4442    0.0392 H   0  0  0  0  0  0  0  0  0  0  0  0
   -4.1725    0.6254   -0.0684 H   0  0  0  0  0  0  0  0  0  0  0  0
    3.2552    3.8920    0.1086 H   0  0  0  0  0  0  0  0  0  0  0  0
    5.2006   -0.6841    0.1425 H   0  0  0  0  0  0  0  0  0  0  0  0
    2.7749   -5.1092    0.1249 H   0  0  0  0  0  0  0  0  0  0  0  0
   -4.6592    2.4956    1.5045 H   0  0  0  0  0  0  0  0  0  0  0  0
   -4.0889    4.1823    1.7301 H   0  0  0  0  0  0  0  0  0  0  0  0
   -5.4093    3.8257    0.6126 H   0  0  0  0  0  0  0  0  0  0  0  0
   -5.5416   -1.3631    0.2288 H   0  0  0  0  0  0  0  0  0  0  0  0
    5.6885    3.5553    0.2838 H   0  0  0  0  0  0  0  0  0  0  0  0
    6.6448    1.2813    0.2960 H   0  0  0  0  0  0  0  0  0  0  0  0
   -1.2777   -4.0897    0.8845 H   0  0  0  0  0  0  0  0  0  0  0  0
   -5.6048   -3.5350    0.4383 H   0  0  0  0  0  0  0  0  0  0  0  0
  1 11  1  0  0  0  0
  1 13  1  0  0  0  0
  2 12  1  0  0  0  0
  2 33  1  0  0  0  0
  3 28  1  0  0  0  0
  3 58  1  0  0  0  0
  4 30  2  0  0  0  0
  5 31  2  0  0  0  0
  6 35  1  0  0  0  0
  6 59  1  0  0  0  0
  7 11  1  0  0  0  0
  7 16  1  0  0  0  0
  7 20  1  0  0  0  0
  8 13  1  0  0  0  0
  8 17  1  0  0  0  0
  8 22  1  0  0  0  0
  9 14  1  0  0  0  0
  9 46  1  0  0  0  0
  9 47  1  0  0  0  0
 10 30  1  0  0  0  0
 10 31  1  0  0  0  0
 10 51  1  0  0  0  0
 11 12  1  0  0  0  0
 11 21  1  0  0  0  0
 12 14  1  0  0  0  0
 12 38  1  0  0  0  0
 13 15  1  0  0  0  0
 13 39  1  0  0  0  0
 14 15  1  0  0  0  0
 14 40  1  0  0  0  0
 15 41  1  0  0  0  0
 15 42  1  0  0  0  0
 16 17  2  0  0  0  0
 16 18  1  0  0  0  0
 17 19  1  0  0  0  0
 18 23  1  0  0  0  0
 18 25  2  0  0  0  0
 19 24  1  0  0  0  0
 19 26  2  0  0  0  0
 20 23  2  0  0  0  0
 20 27  1  0  0  0  0
 21 43  1  0  0  0  0
 21 44  1  0  0  0  0
 21 45  1  0  0  0  0
 22 24  1  0  0  0  0
 22 29  2  0  0  0  0
 23 28  1  0  0  0  0
 24 32  2  0  0  0  0
 25 26  1  0  0  0  0
 25 30  1  0  0  0  0
 26 31  1  0  0  0  0
 27 34  2  0  0  0  0
 27 48  1  0  0  0  0
 28 35  2  0  0  0  0
 29 36  1  0  0  0  0
 29 49  1  0  0  0  0
 32 37  1  0  0  0  0
 32 50  1  0  0  0  0
 33 52  1  0  0  0  0
 33 53  1  0  0  0  0
 33 54  1  0  0  0  0
 34 35  1  0  0  0  0
 34 55  1  0  0  0  0
 36 37  2  0  0  0  0
 36 56  1  0  0  0  0
 37 57  1  0  0  0  0
M  END
> <PUBCHEM_COMPOUND_CID>
102575880

> <PUBCHEM_CONFORMER_RMSD>
0.8

> <PUBCHEM_CONFORMER_DIVERSEORDER>
1

> <PUBCHEM_MMFF94_PARTIAL_CHARGES>
44
1 -0.56
10 -0.49
11 0.54
12 0.28
13 0.54
14 0.27
16 -0.05
17 -0.05
18 -0.01
19 -0.01
2 -0.56
20 -0.15
22 -0.15
25 0.09
26 0.09
27 -0.15
28 0.08
29 -0.15
3 -0.53
30 0.54
31 0.54
32 -0.15
33 0.28
34 -0.15
35 0.08
36 -0.15
37 -0.15
4 -0.57
46 0.36
47 0.36
48 0.15
49 0.15
5 -0.57
50 0.15
51 0.37
55 0.15
56 0.15
57 0.15
58 0.45
59 0.45
6 -0.53
7 -0.04
8 -0.04
9 -0.99

> <PUBCHEM_EFFECTIVE_ROTOR_COUNT>
2

> <PUBCHEM_PHARMACOPHORE_FEATURES>
19
1 1 acceptor
1 10 donor
1 2 acceptor
1 3 donor
1 4 acceptor
1 5 acceptor
1 6 donor
1 7 cation
1 8 cation
1 9 cation
1 9 donor
5 10 25 26 30 31 rings
5 7 16 18 20 23 rings
5 8 17 19 22 24 rings
6 1 11 12 13 14 15 rings
6 16 17 18 19 25 26 rings
6 20 23 27 28 34 35 rings
6 22 24 29 32 36 37 rings
7 1 7 8 11 13 16 17 rings

> <PUBCHEM_HEAVY_ATOM_COUNT>
37

> <PUBCHEM_ATOM_DEF_STEREO_COUNT>
4

> <PUBCHEM_ATOM_UDEF_STEREO_COUNT>
0

> <PUBCHEM_BOND_DEF_STEREO_COUNT>
0

> <PUBCHEM_BOND_UDEF_STEREO_COUNT>
0

> <PUBCHEM_ISOTOPIC_ATOM_COUNT>
0

> <PUBCHEM_COMPONENT_COUNT>
1

> <PUBCHEM_CACTVS_TAUTO_COUNT>
101

> <PUBCHEM_CONFORMER_ID>
061D2F0800000001

> <PUBCHEM_MMFF94_ENERGY>
168.3158

> <PUBCHEM_FEATURE_SELFOVERLAP>
97.421

> <PUBCHEM_SHAPE_FINGERPRINT>
10006869 2 18412537708972325783
10190108 129 18120970336230382961
10290309 65 18193543696439602624
10675989 125 18192135011495403381
1100329 8 18050848814744475274
11513181 2 18130786720219635935
11578080 2 17344032257322534427
12788726 201 18118400881384844600
13140716 1 18339080363364158478
13402501 40 18192991749442924190
138480 1 17186158665705745016
13911987 19 18119520187751867220
140371 6 18188779486343033735
14415360 78 17685763632542728812
14790565 3 18193844957824178916
14955137 171 17903927999296472795
15131766 46 14690034630400313112
15320467 1 18194965372772369849
15351339 4 18264470838131629489
15439362 3 17977373950720335572
15815584 197 18120395369027993583
15927050 60 18341053999895452429
16112460 7 17840599101690815889
16728300 4 17680952384855721770
18681886 176 17765147667508772778
19311894 1 17258210770955401463
19591789 44 17905606953662544582
19611394 137 17537446497525428386
20028762 73 17624137504459534111
20764821 26 18265892462730383098
20775438 99 17760598743623914559
21796203 349 17467386698712656235
23559900 14 18195798584223568762
283562 15 18337950215650218682
3178227 256 17903931293984899067
3380486 145 18335714857704637361
350125 39 18121788218241792405
3886686 26 17758641531427466266
392239 28 18339928228763704336
463206 1 17832707146602778486
469060 322 18339091495835598648
6004065 56 17908414011433744767
653340 110 18412259566927049856
9896288 288 18343590659014907360
9961470 85 18196639719093227536

> <PUBCHEM_SHAPE_MULTIPOLES>
706.3
8.83
7.38
0.88
4.14
1.14
0.23
-0.26
-1.08
-3.12
-1.12
-0.5
-0.7
0.16

> <PUBCHEM_SHAPE_SELFOVERLAP>
1646.691

> <PUBCHEM_SHAPE_VOLUME>
353.8

> <PUBCHEM_COORDINATE_TYPE>
2
5
10

$$$$
