102599660
  -OEChem-03292013293D

 76 80  0     1  0  0  0  0  0999 V2000
    2.5674    0.6680    0.8167 O   0  0  0  0  0  0  0  0  0  0  0  0
   -6.7501   -0.0540    0.8665 O   0  0  0  0  0  0  0  0  0  0  0  0
   -5.2229    2.6139    0.6801 O   0  0  0  0  0  0  0  0  0  0  0  0
   -0.9652   -0.3117   -1.8942 O   0  0  0  0  0  0  0  0  0  0  0  0
    1.5935    0.3653   -2.5009 O   0  0  0  0  0  0  0  0  0  0  0  0
    0.7453    1.4747    1.9241 O   0  0  0  0  0  0  0  0  0  0  0  0
   -3.1727    0.0998   -0.1676 C   0  0  1  0  0  0  0  0  0  0  0  0
   -1.7743   -0.3925    0.3867 C   0  0  1  0  0  0  0  0  0  0  0  0
   -4.3680   -0.3994    0.6821 C   0  0  1  0  0  0  0  0  0  0  0  0
   -1.8278   -1.9832    0.3445 C   0  0  2  0  0  0  0  0  0  0  0  0
   -3.2812    1.6283   -0.3885 C   0  0  0  0  0  0  0  0  0  0  0  0
   -5.6970   -0.2022   -0.0891 C   0  0  2  0  0  0  0  0  0  0  0  0
   -5.6597    0.9990   -1.0707 C   0  0  2  0  0  0  0  0  0  0  0  0
   -4.7316    2.1172   -0.5651 C   0  0  1  0  0  0  0  0  0  0  0  0
   -0.6305    0.0257   -0.5787 C   0  0  0  0  0  0  0  0  0  0  0  0
   -4.2080   -1.8311    1.1396 C   0  0  0  0  0  0  0  0  0  0  0  0
    3.0015    0.2687   -0.5203 C   0  0  2  0  0  0  0  0  0  0  0  0
   -1.6274    0.0769    1.8563 C   0  0  0  0  0  0  0  0  0  0  0  0
   -3.0749   -2.5362    1.0037 C   0  0  0  0  0  0  0  0  0  0  0  0
    3.6138   -1.1677   -0.4679 C   0  0  2  0  0  0  0  0  0  0  0  0
   -0.5228   -2.6893    0.8375 C   0  0  0  0  0  0  0  0  0  0  0  0
    0.6000    0.5059   -0.3035 C   0  0  0  0  0  0  0  0  0  0  0  0
    4.0088    1.3238   -0.9960 C   0  0  0  0  0  0  0  0  0  0  0  0
    1.7071    0.3813   -1.2872 C   0  0  0  0  0  0  0  0  0  0  0  0
   -7.0576    1.5326   -1.3962 C   0  0  0  0  0  0  0  0  0  0  0  0
    5.2757    1.3835   -0.1118 C   0  0  2  0  0  0  0  0  0  0  0  0
    2.6942   -2.2165    0.2743 C   0  0  0  0  0  0  0  0  0  0  0  0
    4.9454   -1.0854    0.2841 C   0  0  0  0  0  0  0  0  0  0  0  0
    5.6857    0.0290    0.4438 C   0  0  0  0  0  0  0  0  0  0  0  0
    0.3409   -3.1250   -0.3192 C   0  0  0  0  0  0  0  0  0  0  0  0
    1.2362    0.9267    0.9581 C   0  0  0  0  0  0  0  0  0  0  0  0
    4.0007   -1.6809   -1.8782 C   0  0  0  0  0  0  0  0  0  0  0  0
    1.6459   -2.9175   -0.5559 C   0  0  0  0  0  0  0  0  0  0  0  0
    5.1190    2.4244    1.0063 C   0  0  0  0  0  0  0  0  0  0  0  0
    7.0151   -0.0368    1.1471 C   0  0  0  0  0  0  0  0  0  0  0  0
    4.7753    3.7849    0.4395 C   0  0  0  0  0  0  0  0  0  0  0  0
   -3.2964   -0.3590   -1.1617 H   0  0  0  0  0  0  0  0  0  0  0  0
   -4.4267    0.1992    1.6022 H   0  0  0  0  0  0  0  0  0  0  0  0
   -1.9657   -2.2810   -0.7074 H   0  0  0  0  0  0  0  0  0  0  0  0
   -2.8074    2.1788    0.4298 H   0  0  0  0  0  0  0  0  0  0  0  0
   -2.7217    1.8763   -1.2993 H   0  0  0  0  0  0  0  0  0  0  0  0
   -5.9379   -1.0974   -0.6776 H   0  0  0  0  0  0  0  0  0  0  0  0
   -5.2321    0.6369   -2.0165 H   0  0  0  0  0  0  0  0  0  0  0  0
   -4.7415    2.9597   -1.2668 H   0  0  0  0  0  0  0  0  0  0  0  0
   -5.0552   -2.3067    1.6264 H   0  0  0  0  0  0  0  0  0  0  0  0
   -2.4440   -0.2615    2.5001 H   0  0  0  0  0  0  0  0  0  0  0  0
   -1.6190    1.1675    1.9309 H   0  0  0  0  0  0  0  0  0  0  0  0
   -0.7273   -0.3140    2.3341 H   0  0  0  0  0  0  0  0  0  0  0  0
   -3.0673   -3.5697    1.3392 H   0  0  0  0  0  0  0  0  0  0  0  0
   -0.7762   -3.6008    1.3935 H   0  0  0  0  0  0  0  0  0  0  0  0
    0.0457   -2.0676    1.5308 H   0  0  0  0  0  0  0  0  0  0  0  0
    3.5142    2.2931   -1.0941 H   0  0  0  0  0  0  0  0  0  0  0  0
    4.3191    1.0836   -2.0218 H   0  0  0  0  0  0  0  0  0  0  0  0
   -7.5436    1.9759   -0.5211 H   0  0  0  0  0  0  0  0  0  0  0  0
   -7.6991    0.7289   -1.7729 H   0  0  0  0  0  0  0  0  0  0  0  0
   -7.0018    2.3047   -2.1711 H   0  0  0  0  0  0  0  0  0  0  0  0
    6.0927    1.7253   -0.7638 H   0  0  0  0  0  0  0  0  0  0  0  0
    2.2522   -1.7725    1.1718 H   0  0  0  0  0  0  0  0  0  0  0  0
    3.3319   -3.0288    0.6526 H   0  0  0  0  0  0  0  0  0  0  0  0
    5.3407   -2.0242    0.6691 H   0  0  0  0  0  0  0  0  0  0  0  0
   -6.8024   -0.8748    1.3842 H   0  0  0  0  0  0  0  0  0  0  0  0
   -0.1820   -3.7274   -1.0631 H   0  0  0  0  0  0  0  0  0  0  0  0
    4.3978   -2.7028   -1.8292 H   0  0  0  0  0  0  0  0  0  0  0  0
    4.7785   -1.0678   -2.3473 H   0  0  0  0  0  0  0  0  0  0  0  0
    3.1478   -1.6923   -2.5632 H   0  0  0  0  0  0  0  0  0  0  0  0
   -4.6524    3.3548    0.9465 H   0  0  0  0  0  0  0  0  0  0  0  0
    2.0254   -3.3969   -1.4576 H   0  0  0  0  0  0  0  0  0  0  0  0
   -0.2889    0.0312   -2.4997 H   0  0  0  0  0  0  0  0  0  0  0  0
    6.0672    2.5240    1.5484 H   0  0  0  0  0  0  0  0  0  0  0  0
    4.3711    2.1271    1.7486 H   0  0  0  0  0  0  0  0  0  0  0  0
    7.7965    0.4170    0.5289 H   0  0  0  0  0  0  0  0  0  0  0  0
    7.3222   -1.0679    1.3534 H   0  0  0  0  0  0  0  0  0  0  0  0
    6.9744    0.4898    2.1053 H   0  0  0  0  0  0  0  0  0  0  0  0
    5.3722    4.0273   -0.4455 H   0  0  0  0  0  0  0  0  0  0  0  0
    4.9791    4.5551    1.1921 H   0  0  0  0  0  0  0  0  0  0  0  0
    3.7135    3.8774    0.1944 H   0  0  0  0  0  0  0  0  0  0  0  0
  1 17  1  0  0  0  0
  1 31  1  0  0  0  0
  2 12  1  0  0  0  0
  2 61  1  0  0  0  0
  3 14  1  0  0  0  0
  3 66  1  0  0  0  0
  4 15  1  0  0  0  0
  4 68  1  0  0  0  0
  5 24  2  0  0  0  0
  6 31  2  0  0  0  0
  7  8  1  0  0  0  0
  7  9  1  0  0  0  0
  7 11  1  0  0  0  0
  7 37  1  0  0  0  0
  8 10  1  0  0  0  0
  8 15  1  0  0  0  0
  8 18  1  0  0  0  0
  9 12  1  0  0  0  0
  9 16  1  0  0  0  0
  9 38  1  0  0  0  0
 10 19  1  0  0  0  0
 10 21  1  0  0  0  0
 10 39  1  0  0  0  0
 11 14  1  0  0  0  0
 11 40  1  0  0  0  0
 11 41  1  0  0  0  0
 12 13  1  0  0  0  0
 12 42  1  0  0  0  0
 13 14  1  0  0  0  0
 13 25  1  0  0  0  0
 13 43  1  0  0  0  0
 14 44  1  0  0  0  0
 15 22  2  3  0  0  0
 16 19  2  0  0  0  0
 16 45  1  0  0  0  0
 17 20  1  0  0  0  0
 17 23  1  0  0  0  0
 17 24  1  0  0  0  0
 18 46  1  0  0  0  0
 18 47  1  0  0  0  0
 18 48  1  0  0  0  0
 19 49  1  0  0  0  0
 20 27  1  0  0  0  0
 20 28  1  0  0  0  0
 20 32  1  0  0  0  0
 21 30  1  0  0  0  0
 21 50  1  0  0  0  0
 21 51  1  0  0  0  0
 22 24  1  0  0  0  0
 22 31  1  0  0  0  0
 23 26  1  0  0  0  0
 23 52  1  0  0  0  0
 23 53  1  0  0  0  0
 25 54  1  0  0  0  0
 25 55  1  0  0  0  0
 25 56  1  0  0  0  0
 26 29  1  0  0  0  0
 26 34  1  0  0  0  0
 26 57  1  0  0  0  0
 27 33  1  0  0  0  0
 27 58  1  0  0  0  0
 27 59  1  0  0  0  0
 28 29  2  0  0  0  0
 28 60  1  0  0  0  0
 29 35  1  0  0  0  0
 30 33  2  0  0  0  0
 30 62  1  0  0  0  0
 32 63  1  0  0  0  0
 32 64  1  0  0  0  0
 32 65  1  0  0  0  0
 33 67  1  0  0  0  0
 34 36  1  0  0  0  0
 34 69  1  0  0  0  0
 34 70  1  0  0  0  0
 35 71  1  0  0  0  0
 35 72  1  0  0  0  0
 35 73  1  0  0  0  0
 36 74  1  0  0  0  0
 36 75  1  0  0  0  0
 36 76  1  0  0  0  0
M  END
> <PUBCHEM_COMPOUND_CID>
102599660

> <PUBCHEM_CONFORMER_RMSD>
0.8

> <PUBCHEM_CONFORMER_DIVERSEORDER>
1
2

> <PUBCHEM_MMFF94_PARTIAL_CHARGES>
35
1 -0.43
10 0.14
12 0.28
14 0.28
15 -0.06
16 -0.29
17 0.34
19 -0.29
2 -0.68
20 0.14
21 0.14
22 0.03
24 0.49
26 0.14
27 0.14
28 -0.29
29 -0.28
3 -0.68
30 -0.29
31 0.71
33 -0.29
35 0.14
4 -0.53
45 0.15
49 0.15
5 -0.57
6 -0.57
60 0.15
61 0.4
62 0.15
66 0.4
67 0.15
68 0.45
8 0.14
9 0.14

> <PUBCHEM_EFFECTIVE_ROTOR_COUNT>
2.8

> <PUBCHEM_PHARMACOPHORE_FEATURES>
13
1 2 acceptor
1 2 donor
1 22 anion
1 3 acceptor
1 3 donor
1 36 hydrophobe
1 4 donor
1 5 acceptor
1 6 acceptor
5 1 17 22 24 31 rings
6 17 20 23 26 28 29 rings
6 7 8 9 10 16 19 rings
6 7 9 11 12 13 14 rings

> <PUBCHEM_HEAVY_ATOM_COUNT>
36

> <PUBCHEM_ATOM_DEF_STEREO_COUNT>
9

> <PUBCHEM_ATOM_UDEF_STEREO_COUNT>
1

> <PUBCHEM_BOND_DEF_STEREO_COUNT>
1

> <PUBCHEM_BOND_UDEF_STEREO_COUNT>
1

> <PUBCHEM_ISOTOPIC_ATOM_COUNT>
0

> <PUBCHEM_COMPONENT_COUNT>
1

> <PUBCHEM_CACTVS_TAUTO_COUNT>
4

> <PUBCHEM_CONFORMER_ID>
061D8BEC00000001

> <PUBCHEM_MMFF94_ENERGY>
134.1907

> <PUBCHEM_FEATURE_SELFOVERLAP>
66.001

> <PUBCHEM_SHAPE_FINGERPRINT>
10675989 125 18267305331072430089
10835480 77 18411133666846413016
11370993 70 18408326587853713894
11578080 2 18336827610347763108
12236239 1 14045748110159169813
12422481 6 17749387070457139718
12633257 1 15864073208235154502
12788726 201 17846216592606901600
13402501 40 18408886217918552791
13583140 156 18272651281318671983
13811026 1 18410854347921880511
13911987 19 17274829103013423117
14295345 954 18188206627847663949
15021287 119 16588029017414662173
15183329 4 18261114028372497429
17349148 13 15697999622238882911
18608769 82 18336549413090502211
19319366 153 18131062732388277166
20511986 3 18338789109011048954
20715895 44 18409728444025714002
21033648 29 18269544091418256312
21859007 373 17750219353388379261
23559900 14 18409172107889502845
23569914 2 17687693502893565525
23569943 247 16372113422395890608
27425 322 17531806995438864048
2838139 119 18410004455398128079
34797466 226 18059862735971480223
3633792 109 18270398282839923937
4073 2 17967818292636085826
4340502 62 18411980265372303558
5104073 3 18333171665090943776
5265222 85 18193007130627978078
59755656 215 18261956245926978807
9981440 41 18186526514394115715

> <PUBCHEM_SHAPE_MULTIPOLES>
705.65
15.91
3.3
1.57
6.55
0.22
-0.32
-8.51
0.74
-1.05
0.39
-0.17
-0.1
2.09

> <PUBCHEM_SHAPE_SELFOVERLAP>
1512.996

> <PUBCHEM_SHAPE_VOLUME>
383.4

> <PUBCHEM_COORDINATE_TYPE>
2
5
10

$$$$
