102515299
  -OEChem-03292013293D

 82 85  0     1  0  0  0  0  0999 V2000
   -2.7239   -2.5897    0.4188 O   0  0  0  0  0  0  0  0  0  0  0  0
   -6.1399    2.7988   -1.0583 O   0  0  0  0  0  0  0  0  0  0  0  0
    4.3349    2.6584   -0.4462 O   0  0  0  0  0  0  0  0  0  0  0  0
   -5.9350    0.3443   -2.2925 O   0  0  0  0  0  0  0  0  0  0  0  0
   -4.7748   -2.9227    1.2859 O   0  0  0  0  0  0  0  0  0  0  0  0
    6.7804    1.6130   -0.4354 O   0  0  0  0  0  0  0  0  0  0  0  0
    0.6357    0.2619    0.4290 C   0  0  1  0  0  0  0  0  0  0  0  0
   -0.2339    0.0374   -0.8249 C   0  0  2  0  0  0  0  0  0  0  0  0
   -1.6590   -0.4776   -0.5412 C   0  0  2  0  0  0  0  0  0  0  0  0
   -2.2552    0.1777    0.7396 C   0  0  2  0  0  0  0  0  0  0  0  0
    1.9421    0.7432   -0.2588 C   0  0  2  0  0  0  0  0  0  0  0  0
   -3.8358    0.2902    0.6747 C   0  0  2  0  0  0  0  0  0  0  0  0
   -0.0223    1.3324    1.3279 C   0  0  0  0  0  0  0  0  0  0  0  0
    0.6750   -0.6983   -1.8093 C   0  0  0  0  0  0  0  0  0  0  0  0
   -1.5349    1.5047    1.0798 C   0  0  0  0  0  0  0  0  0  0  0  0
    2.0878   -0.1824   -1.4851 C   0  0  0  0  0  0  0  0  0  0  0  0
    3.1938    0.7793    0.6067 C   0  0  1  0  0  0  0  0  0  0  0  0
   -4.4523   -0.9473   -0.0613 C   0  0  2  0  0  0  0  0  0  0  0  0
    0.8775   -1.0229    1.2532 C   0  0  0  0  0  0  0  0  0  0  0  0
   -1.8208   -2.0135   -0.5611 C   0  0  0  0  0  0  0  0  0  0  0  0
   -4.2960    1.5653   -0.0892 C   0  0  0  0  0  0  0  0  0  0  0  0
   -4.3493    0.3775    2.1394 C   0  0  0  0  0  0  0  0  0  0  0  0
   -5.9872   -0.8643   -0.2031 C   0  0  0  0  0  0  0  0  0  0  0  0
   -5.8186    1.6528   -0.2725 C   0  0  2  0  0  0  0  0  0  0  0  0
    4.4258    1.2461   -0.2124 C   0  0  2  0  0  0  0  0  0  0  0  0
   -6.4022    0.4094   -0.9432 C   0  0  1  0  0  0  0  0  0  0  0  0
   -4.0227   -2.2414    0.5950 C   0  0  0  0  0  0  0  0  0  0  0  0
    2.9372    1.6485    1.8461 C   0  0  0  0  0  0  0  0  0  0  0  0
    5.8176    0.9664    0.4031 C   0  0  1  0  0  0  0  0  0  0  0  0
    6.1820   -0.5326    0.5996 C   0  0  1  0  0  0  0  0  0  0  0  0
    5.9102   -1.3782   -0.6865 C   0  0  0  0  0  0  0  0  0  0  0  0
    7.6028   -0.7238    1.1479 C   0  0  0  0  0  0  0  0  0  0  0  0
    6.6836   -0.9436   -1.9343 C   0  0  0  0  0  0  0  0  0  0  0  0
    6.1776   -2.8690   -0.4315 C   0  0  0  0  0  0  0  0  0  0  0  0
   -0.3850    1.0300   -1.2854 H   0  0  0  0  0  0  0  0  0  0  0  0
   -2.2322   -0.1097   -1.4035 H   0  0  0  0  0  0  0  0  0  0  0  0
   -2.0241   -0.4893    1.5812 H   0  0  0  0  0  0  0  0  0  0  0  0
    1.7576    1.7560   -0.6471 H   0  0  0  0  0  0  0  0  0  0  0  0
    0.4274    2.3190    1.1755 H   0  0  0  0  0  0  0  0  0  0  0  0
    0.1116    1.0855    2.3878 H   0  0  0  0  0  0  0  0  0  0  0  0
    0.3984   -0.4795   -2.8461 H   0  0  0  0  0  0  0  0  0  0  0  0
    0.6507   -1.7847   -1.6896 H   0  0  0  0  0  0  0  0  0  0  0  0
   -1.9743    1.9740    1.9665 H   0  0  0  0  0  0  0  0  0  0  0  0
   -1.6682    2.2178    0.2567 H   0  0  0  0  0  0  0  0  0  0  0  0
    2.7326   -1.0413   -1.2796 H   0  0  0  0  0  0  0  0  0  0  0  0
    2.5050    0.3557   -2.3430 H   0  0  0  0  0  0  0  0  0  0  0  0
    3.4063   -0.2384    0.9511 H   0  0  0  0  0  0  0  0  0  0  0  0
   -4.1014   -0.9967   -1.0981 H   0  0  0  0  0  0  0  0  0  0  0  0
    1.3540   -1.8112    0.6616 H   0  0  0  0  0  0  0  0  0  0  0  0
   -0.0536   -1.4373    1.6478 H   0  0  0  0  0  0  0  0  0  0  0  0
    1.5165   -0.8447    2.1228 H   0  0  0  0  0  0  0  0  0  0  0  0
   -2.1359   -2.3558   -1.5540 H   0  0  0  0  0  0  0  0  0  0  0  0
   -0.8665   -2.5055   -0.3602 H   0  0  0  0  0  0  0  0  0  0  0  0
   -3.8132    1.6120   -1.0741 H   0  0  0  0  0  0  0  0  0  0  0  0
   -3.9682    2.4715    0.4356 H   0  0  0  0  0  0  0  0  0  0  0  0
   -3.9970   -0.4698    2.7380 H   0  0  0  0  0  0  0  0  0  0  0  0
   -5.4398    0.3835    2.2096 H   0  0  0  0  0  0  0  0  0  0  0  0
   -3.9991    1.2914    2.6303 H   0  0  0  0  0  0  0  0  0  0  0  0
   -6.3359   -1.7419   -0.7632 H   0  0  0  0  0  0  0  0  0  0  0  0
   -6.4788   -0.9085    0.7749 H   0  0  0  0  0  0  0  0  0  0  0  0
   -6.3025    1.7939    0.7001 H   0  0  0  0  0  0  0  0  0  0  0  0
    4.4190    0.8087   -1.2130 H   0  0  0  0  0  0  0  0  0  0  0  0
   -7.4939    0.4894   -0.9912 H   0  0  0  0  0  0  0  0  0  0  0  0
    2.5664    2.6436    1.5828 H   0  0  0  0  0  0  0  0  0  0  0  0
    3.8723    1.8001    2.3967 H   0  0  0  0  0  0  0  0  0  0  0  0
    2.2628    1.1816    2.5634 H   0  0  0  0  0  0  0  0  0  0  0  0
    5.8831    1.4787    1.3703 H   0  0  0  0  0  0  0  0  0  0  0  0
   -5.7755    3.5774   -0.6038 H   0  0  0  0  0  0  0  0  0  0  0  0
    5.5070   -0.9174    1.3763 H   0  0  0  0  0  0  0  0  0  0  0  0
    3.5681    2.8179   -1.0211 H   0  0  0  0  0  0  0  0  0  0  0  0
   -6.3286   -0.4457   -2.7006 H   0  0  0  0  0  0  0  0  0  0  0  0
    4.8455   -1.3140   -0.9211 H   0  0  0  0  0  0  0  0  0  0  0  0
    7.6253    1.6360    0.0443 H   0  0  0  0  0  0  0  0  0  0  0  0
    8.3692   -0.4827    0.4060 H   0  0  0  0  0  0  0  0  0  0  0  0
    7.7664   -1.7523    1.4836 H   0  0  0  0  0  0  0  0  0  0  0  0
    7.7644   -0.0763    2.0169 H   0  0  0  0  0  0  0  0  0  0  0  0
    7.2464   -3.0813   -0.3274 H   0  0  0  0  0  0  0  0  0  0  0  0
    5.8048   -3.4723   -1.2669 H   0  0  0  0  0  0  0  0  0  0  0  0
    5.6651   -3.2101    0.4741 H   0  0  0  0  0  0  0  0  0  0  0  0
    7.7636   -0.9296   -1.7607 H   0  0  0  0  0  0  0  0  0  0  0  0
    6.4945   -1.6372   -2.7618 H   0  0  0  0  0  0  0  0  0  0  0  0
    6.3759    0.0443   -2.2848 H   0  0  0  0  0  0  0  0  0  0  0  0
  1 20  1  0  0  0  0
  1 27  1  0  0  0  0
  2 24  1  0  0  0  0
  2 68  1  0  0  0  0
  3 25  1  0  0  0  0
  3 70  1  0  0  0  0
  4 26  1  0  0  0  0
  4 71  1  0  0  0  0
  5 27  2  0  0  0  0
  6 29  1  0  0  0  0
  6 73  1  0  0  0  0
  7  8  1  0  0  0  0
  7 11  1  0  0  0  0
  7 13  1  0  0  0  0
  7 19  1  0  0  0  0
  8  9  1  0  0  0  0
  8 14  1  0  0  0  0
  8 35  1  0  0  0  0
  9 10  1  0  0  0  0
  9 20  1  0  0  0  0
  9 36  1  0  0  0  0
 10 12  1  0  0  0  0
 10 15  1  0  0  0  0
 10 37  1  0  0  0  0
 11 16  1  0  0  0  0
 11 17  1  0  0  0  0
 11 38  1  0  0  0  0
 12 18  1  0  0  0  0
 12 21  1  0  0  0  0
 12 22  1  0  0  0  0
 13 15  1  0  0  0  0
 13 39  1  0  0  0  0
 13 40  1  0  0  0  0
 14 16  1  0  0  0  0
 14 41  1  0  0  0  0
 14 42  1  0  0  0  0
 15 43  1  0  0  0  0
 15 44  1  0  0  0  0
 16 45  1  0  0  0  0
 16 46  1  0  0  0  0
 17 25  1  0  0  0  0
 17 28  1  0  0  0  0
 17 47  1  0  0  0  0
 18 23  1  0  0  0  0
 18 27  1  0  0  0  0
 18 48  1  0  0  0  0
 19 49  1  0  0  0  0
 19 50  1  0  0  0  0
 19 51  1  0  0  0  0
 20 52  1  0  0  0  0
 20 53  1  0  0  0  0
 21 24  1  0  0  0  0
 21 54  1  0  0  0  0
 21 55  1  0  0  0  0
 22 56  1  0  0  0  0
 22 57  1  0  0  0  0
 22 58  1  0  0  0  0
 23 26  1  0  0  0  0
 23 59  1  0  0  0  0
 23 60  1  0  0  0  0
 24 26  1  0  0  0  0
 24 61  1  0  0  0  0
 25 29  1  0  0  0  0
 25 62  1  0  0  0  0
 26 63  1  0  0  0  0
 28 64  1  0  0  0  0
 28 65  1  0  0  0  0
 28 66  1  0  0  0  0
 29 30  1  0  0  0  0
 29 67  1  0  0  0  0
 30 31  1  0  0  0  0
 30 32  1  0  0  0  0
 30 69  1  0  0  0  0
 31 33  1  0  0  0  0
 31 34  1  0  0  0  0
 31 72  1  0  0  0  0
 32 74  1  0  0  0  0
 32 75  1  0  0  0  0
 32 76  1  0  0  0  0
 33 80  1  0  0  0  0
 33 81  1  0  0  0  0
 33 82  1  0  0  0  0
 34 77  1  0  0  0  0
 34 78  1  0  0  0  0
 34 79  1  0  0  0  0
M  END
> <PUBCHEM_COMPOUND_CID>
102515299

> <PUBCHEM_CONFORMER_RMSD>
1

> <PUBCHEM_CONFORMER_DIVERSEORDER>
1
78
104
35
88
44
90
68
14
84
89
41
85
67
42
23
97
60
27
10
86
79
57
100
30
31
59
96
52
25
38
47
34
82
56
32
37
74
33
75
13
73
61
12
80
102
81
53
39
87
26
24
106
105
20
70
17
18
101
109
29
54
55
98
36
66
2
92
64
58
71
6
19
62
63
107
28
94
3
72
83
50
46
69
8
9
108
91
15
65
11
22
77
93
49
76
103
21
16
4
51
7
43
99
95
48
5
40
45

> <PUBCHEM_MMFF94_PARTIAL_CHARGES>
17
1 -0.43
18 0.06
2 -0.68
20 0.28
24 0.28
25 0.28
26 0.28
27 0.66
29 0.28
3 -0.68
4 -0.68
5 -0.57
6 -0.68
68 0.4
70 0.4
71 0.4
73 0.4

> <PUBCHEM_EFFECTIVE_ROTOR_COUNT>
7.2

> <PUBCHEM_PHARMACOPHORE_FEATURES>
16
1 2 acceptor
1 2 donor
1 28 hydrophobe
1 3 acceptor
1 3 donor
1 32 hydrophobe
1 4 acceptor
1 4 donor
1 5 acceptor
1 6 acceptor
1 6 donor
3 31 33 34 hydrophobe
5 7 8 11 14 16 rings
6 12 18 21 23 24 26 rings
6 7 8 9 10 13 15 rings
7 1 9 10 12 18 20 27 rings

> <PUBCHEM_HEAVY_ATOM_COUNT>
34

> <PUBCHEM_ATOM_DEF_STEREO_COUNT>
10

> <PUBCHEM_ATOM_UDEF_STEREO_COUNT>
3

> <PUBCHEM_BOND_DEF_STEREO_COUNT>
0

> <PUBCHEM_BOND_UDEF_STEREO_COUNT>
0

> <PUBCHEM_ISOTOPIC_ATOM_COUNT>
0

> <PUBCHEM_COMPONENT_COUNT>
1

> <PUBCHEM_CACTVS_TAUTO_COUNT>
2

> <PUBCHEM_CONFORMER_ID>
061C426300000001

> <PUBCHEM_MMFF94_ENERGY>
146.4272

> <PUBCHEM_FEATURE_SELFOVERLAP>
81.314

> <PUBCHEM_SHAPE_FINGERPRINT>
10 15 17703502281999368408
10319926 262 18410569617206868650
10554248 39 18272933825900911444
11135926 11 17489587819317271877
11315181 36 17703790340633565969
11719270 70 17560801000814266606
11796584 16 18408602578616208298
12128747 34 18341051830931803638
12236239 1 17968374645071223680
13533116 47 18273217487474449810
13782708 43 17846501460449584854
13811026 1 18201717340603121294
13914758 101 18336826398908340941
14840074 17 16008744723345863674
14849402 71 12103266262070130010
14856354 85 14634874150035779923
14904525 67 15140958478464512374
15142383 8 18410851045920068580
15183329 4 18412549791031320698
15439362 3 18045776785682141151
15461852 350 14201400500285034691
1577012 14 17846790593796401480
15799311 1 17385438817679904250
19377110 9 13614526238024606326
19958102 18 18409445873426317150
21130935 74 16200156456858535038
21279426 13 18413394228609315554
21521721 280 11169921571810196444
21792938 703 14979671147729898628
21859007 373 18188205373437619844
23081809 10 16988571195029635776
23522609 53 17023202491373942884
23559900 14 18412822508000184945
23569917 315 17275389802330357030
23569943 247 14691197664129757612
25269216 80 17241627154705739058
2838139 119 18409725162697833829
3004659 81 18341900697533001964
3383291 50 17846498140604058014
3633792 109 18339355259004866311
4015057 19 17489302044703849153
4073 2 18041001790955133290
4144715 1 18188778386483402401
5104073 3 17917723396070929098
5109719 28 9511162072213213110
59755656 215 18409728422424491342
59755656 520 18336255804398533751
6009941 240 18260829301942208466
6086070 43 16988269971386895178
77296 10 18337115652392363728
9831232 110 18336552638605959022

> <PUBCHEM_SHAPE_MULTIPOLES>
664.49
20.05
2.59
1.66
13.7
0.67
0.12
1.25
3.13
-0.22
-0.24
-0.51
-0.01
1.6

> <PUBCHEM_SHAPE_SELFOVERLAP>
1379.546

> <PUBCHEM_SHAPE_VOLUME>
374.8

> <PUBCHEM_COORDINATE_TYPE>
2
5
10

$$$$
