10254449
  -OEChem-03292013303D

 60 62  0     1  0  0  0  0  0999 V2000
   -4.0726    0.2993   -1.8318 S   0  0  0  0  0  0  0  0  0  0  0  0
   -3.6909   -1.7053    0.6947 O   0  0  0  0  0  0  0  0  0  0  0  0
    5.1567   -1.1916    1.8638 O   0  0  0  0  0  0  0  0  0  0  0  0
    3.6085   -3.2882   -0.3917 O   0  0  0  0  0  0  0  0  0  0  0  0
    5.9108    3.1647    0.0860 O   0  0  0  0  0  0  0  0  0  0  0  0
   -1.7687   -0.5705    1.2931 O   0  0  0  0  0  0  0  0  0  0  0  0
   -0.5709   -4.0156   -0.7273 O   0  0  0  0  0  0  0  0  0  0  0  0
   -3.3718    3.3503   -1.6503 O   0  0  0  0  0  0  0  0  0  0  0  0
   -0.5934   -1.7015   -0.9073 N   0  0  0  0  0  0  0  0  0  0  0  0
    2.1137   -1.6212   -0.6918 N   0  0  0  0  0  0  0  0  0  0  0  0
   -2.1593    2.7629    0.2497 N   0  0  0  0  0  0  0  0  0  0  0  0
    4.5969   -0.3078    0.8857 C   0  0  1  0  0  0  0  0  0  0  0  0
    5.4817    0.9461    0.8634 C   0  0  0  0  0  0  0  0  0  0  0  0
    4.5504   -1.0387   -0.4629 C   0  0  0  0  0  0  0  0  0  0  0  0
   -2.0342   -1.4843   -0.9491 C   0  0  2  0  0  0  0  0  0  0  0  0
    4.9394    2.1165    0.0294 C   0  0  1  0  0  0  0  0  0  0  0  0
   -4.4701   -1.1251    1.7641 C   0  0  1  0  0  0  0  0  0  0  0  0
   -5.3618   -0.0278    1.1558 C   0  0  0  0  0  0  0  0  0  0  0  0
   -2.3461   -0.3036   -1.8794 C   0  0  0  0  0  0  0  0  0  0  0  0
    3.3771   -1.9479   -0.5281 C   0  0  0  0  0  0  0  0  0  0  0  0
   -2.4305   -1.2171    0.4918 C   0  0  0  0  0  0  0  0  0  0  0  0
   -4.5609    1.1749    0.7208 C   0  0  0  0  0  0  0  0  0  0  0  0
   -5.3167   -2.2455    2.3544 C   0  0  0  0  0  0  0  0  0  0  0  0
   -3.9843    1.3797   -0.4770 C   0  0  0  0  0  0  0  0  0  0  0  0
    3.6366    2.6531    0.5551 C   0  0  0  0  0  0  0  0  0  0  0  0
    1.4525   -2.8276   -0.6513 C   0  0  0  0  0  0  0  0  0  0  0  0
    0.0133   -2.9377   -0.7672 C   0  0  0  0  0  0  0  0  0  0  0  0
    2.3651   -3.8422   -0.4744 C   0  0  0  0  0  0  0  0  0  0  0  0
   -3.1685    2.6129   -0.6899 C   0  0  0  0  0  0  0  0  0  0  0  0
    2.4947    2.6690   -0.1502 C   0  0  0  0  0  0  0  0  0  0  0  0
   -1.1657    3.8192    0.1919 C   0  0  0  0  0  0  0  0  0  0  0  0
    1.2551    3.2053    0.3676 C   0  0  0  0  0  0  0  0  0  0  0  0
    0.1139    3.2453   -0.3376 C   0  0  0  0  0  0  0  0  0  0  0  0
    3.5923   -0.0427    1.2349 H   0  0  0  0  0  0  0  0  0  0  0  0
    5.6543    1.2845    1.8955 H   0  0  0  0  0  0  0  0  0  0  0  0
    6.4853    0.6752    0.5065 H   0  0  0  0  0  0  0  0  0  0  0  0
    4.4562   -0.3308   -1.2921 H   0  0  0  0  0  0  0  0  0  0  0  0
    5.4718   -1.6116   -0.6206 H   0  0  0  0  0  0  0  0  0  0  0  0
   -2.5130   -2.4067   -1.2974 H   0  0  0  0  0  0  0  0  0  0  0  0
    4.8457    1.8310   -1.0233 H   0  0  0  0  0  0  0  0  0  0  0  0
   -3.8235   -0.7181    2.5510 H   0  0  0  0  0  0  0  0  0  0  0  0
   -5.9337   -0.4282    0.3102 H   0  0  0  0  0  0  0  0  0  0  0  0
   -6.0985    0.3088    1.8956 H   0  0  0  0  0  0  0  0  0  0  0  0
   -1.6679    0.5350   -1.6843 H   0  0  0  0  0  0  0  0  0  0  0  0
   -2.1434   -0.6117   -2.9121 H   0  0  0  0  0  0  0  0  0  0  0  0
   -0.0058   -0.8719   -0.8848 H   0  0  0  0  0  0  0  0  0  0  0  0
   -4.4317    1.9250    1.5002 H   0  0  0  0  0  0  0  0  0  0  0  0
   -4.6740   -3.0424    2.7438 H   0  0  0  0  0  0  0  0  0  0  0  0
   -5.9496   -1.8791    3.1682 H   0  0  0  0  0  0  0  0  0  0  0  0
   -5.9553   -2.7019    1.5899 H   0  0  0  0  0  0  0  0  0  0  0  0
    3.6501    3.0540    1.5669 H   0  0  0  0  0  0  0  0  0  0  0  0
    4.5714   -1.9650    1.9319 H   0  0  0  0  0  0  0  0  0  0  0  0
    2.3122   -4.9170   -0.3845 H   0  0  0  0  0  0  0  0  0  0  0  0
    6.7319    2.8258   -0.3099 H   0  0  0  0  0  0  0  0  0  0  0  0
    2.4831    2.2700   -1.1613 H   0  0  0  0  0  0  0  0  0  0  0  0
   -2.0576    2.0747    0.9906 H   0  0  0  0  0  0  0  0  0  0  0  0
   -1.0527    4.2146    1.2063 H   0  0  0  0  0  0  0  0  0  0  0  0
   -1.5113    4.6267   -0.4609 H   0  0  0  0  0  0  0  0  0  0  0  0
    1.2691    3.5975    1.3816 H   0  0  0  0  0  0  0  0  0  0  0  0
    0.0936    2.8623   -1.3561 H   0  0  0  0  0  0  0  0  0  0  0  0
  1 19  1  0  0  0  0
  1 24  1  0  0  0  0
  2 17  1  0  0  0  0
  2 21  1  0  0  0  0
  3 12  1  0  0  0  0
  3 52  1  0  0  0  0
  4 20  1  0  0  0  0
  4 28  1  0  0  0  0
  5 16  1  0  0  0  0
  5 54  1  0  0  0  0
  6 21  2  0  0  0  0
  7 27  2  0  0  0  0
  8 29  2  0  0  0  0
  9 15  1  0  0  0  0
  9 27  1  0  0  0  0
  9 46  1  0  0  0  0
 10 20  2  0  0  0  0
 10 26  1  0  0  0  0
 11 29  1  0  0  0  0
 11 31  1  0  0  0  0
 11 56  1  0  0  0  0
 12 13  1  0  0  0  0
 12 14  1  0  0  0  0
 12 34  1  0  0  0  0
 13 16  1  0  0  0  0
 13 35  1  0  0  0  0
 13 36  1  0  0  0  0
 14 20  1  0  0  0  0
 14 37  1  0  0  0  0
 14 38  1  0  0  0  0
 15 19  1  0  0  0  0
 15 21  1  0  0  0  0
 15 39  1  0  0  0  0
 16 25  1  0  0  0  0
 16 40  1  0  0  0  0
 17 18  1  0  0  0  0
 17 23  1  0  0  0  0
 17 41  1  0  0  0  0
 18 22  1  0  0  0  0
 18 42  1  0  0  0  0
 18 43  1  0  0  0  0
 19 44  1  0  0  0  0
 19 45  1  0  0  0  0
 22 24  2  0  0  0  0
 22 47  1  0  0  0  0
 23 48  1  0  0  0  0
 23 49  1  0  0  0  0
 23 50  1  0  0  0  0
 24 29  1  0  0  0  0
 25 30  2  0  0  0  0
 25 51  1  0  0  0  0
 26 27  1  0  0  0  0
 26 28  2  0  0  0  0
 28 53  1  0  0  0  0
 30 32  1  0  0  0  0
 30 55  1  0  0  0  0
 31 33  1  0  0  0  0
 31 57  1  0  0  0  0
 31 58  1  0  0  0  0
 32 33  2  0  0  0  0
 32 59  1  0  0  0  0
 33 60  1  0  0  0  0
M  END
> <PUBCHEM_COMPOUND_CID>
10254449

> <PUBCHEM_CONFORMER_RMSD>
0.8

> <PUBCHEM_CONFORMER_DIVERSEORDER>
1

> <PUBCHEM_MMFF94_PARTIAL_CHARGES>
41
1 -0.33
10 -0.57
11 -0.73
12 0.28
14 0.18
15 0.36
16 0.42
17 0.28
18 0.14
19 0.23
2 -0.43
20 0.3
21 0.66
22 -0.29
24 0.12
25 -0.29
26 0.14
27 0.72
28 -0.01
29 0.62
3 -0.68
30 -0.15
31 0.44
32 -0.15
33 -0.29
4 -0.28
46 0.37
47 0.15
5 -0.68
51 0.15
52 0.4
53 0.15
54 0.4
55 0.15
56 0.37
59 0.15
6 -0.57
60 0.15
7 -0.57
8 -0.57
9 -0.73

> <PUBCHEM_EFFECTIVE_ROTOR_COUNT>
2.4

> <PUBCHEM_PHARMACOPHORE_FEATURES>
10
1 11 donor
1 3 acceptor
1 3 donor
1 5 acceptor
1 5 donor
1 6 acceptor
1 7 acceptor
1 8 acceptor
1 9 donor
5 4 10 20 26 28 rings

> <PUBCHEM_HEAVY_ATOM_COUNT>
33

> <PUBCHEM_ATOM_DEF_STEREO_COUNT>
4

> <PUBCHEM_ATOM_UDEF_STEREO_COUNT>
0

> <PUBCHEM_BOND_DEF_STEREO_COUNT>
3

> <PUBCHEM_BOND_UDEF_STEREO_COUNT>
0

> <PUBCHEM_ISOTOPIC_ATOM_COUNT>
0

> <PUBCHEM_COMPONENT_COUNT>
1

> <PUBCHEM_CACTVS_TAUTO_COUNT>
4

> <PUBCHEM_CONFORMER_ID>
009C787100000001

> <PUBCHEM_MMFF94_ENERGY>
55.8427

> <PUBCHEM_FEATURE_SELFOVERLAP>
50.75

> <PUBCHEM_SHAPE_FINGERPRINT>
10939801 23 18120939662350389064
11513181 2 18060130991223295526
12422481 6 18342189838446451553
12925494 130 18051413972665164257
12978246 48 18412259554152768208
13561361 72 18336546010906392472
14747282 125 18128840675286505446
14840074 17 18131355236397593069
14904385 31 18339912801758447144
14950920 106 17677036989310157874
15001296 14 18122906701399582576
150020 26 18337957908132370681
15320467 1 18268422611259575252
15406563 190 18189882275121593384
15444296 8 16009850875130009397
16067690 210 18114730543466412176
16760501 71 18341057418404862803
17852330 53 17551284831504817379
20721686 56 18410853243972568397
20764821 26 18339632451540714500
325973 47 18052256198450149652
338550 245 18409168840063423764
373842 8 18410572842801193208
4112364 45 17270914679180229601
42626532 9 17973466315858578890
437795 96 18408321064747025049
5081480 168 17129891347385837582
508706 21 18188204278474186005
5265222 85 18121790679749495364
56638632 10 18127691741032060369

> <PUBCHEM_SHAPE_MULTIPOLES>
626.95
12.98
5.82
1.62
6.02
0.66
0.27
2.06
5.11
2.94
-0.95
-2.15
-0.6
2.39

> <PUBCHEM_SHAPE_SELFOVERLAP>
1290.222

> <PUBCHEM_SHAPE_VOLUME>
357.5

> <PUBCHEM_COORDINATE_TYPE>
2
5
10

$$$$
