10266777
  -OEChem-03292013303D

 34 36  0     1  0  0  0  0  0999 V2000
    3.7493   -2.8187   -0.6957 Cl  0  0  0  0  0  0  0  0  0  0  0  0
   -2.1343    0.5501   -1.3932 O   0  0  0  0  0  0  0  0  0  0  0  0
   -2.5289   -2.2410   -0.0282 O   0  0  0  0  0  0  0  0  0  0  0  0
   -4.3254   -0.6139    1.2165 O   0  0  0  0  0  0  0  0  0  0  0  0
   -0.0454    0.4441   -0.2881 N   0  0  0  0  0  0  0  0  0  0  0  0
    1.1865    2.1769    0.3871 N   0  0  0  0  0  0  0  0  0  0  0  0
    1.6947   -1.2342   -0.5266 N   0  0  0  0  0  0  0  0  0  0  0  0
    3.8868   -0.3276    0.0468 N   0  0  0  0  0  0  0  0  0  0  0  0
    4.1969    1.9389    0.7475 N   0  0  0  0  0  0  0  0  0  0  0  0
   -2.0338   -0.9827    0.4544 C   0  0  1  0  0  0  0  0  0  0  0  0
   -1.2263   -0.3235   -0.6794 C   0  0  1  0  0  0  0  0  0  0  0  0
   -3.1871   -0.0054    0.6403 C   0  0  1  0  0  0  0  0  0  0  0  0
   -3.4338    0.4732   -0.7821 C   0  0  1  0  0  0  0  0  0  0  0  0
   -1.2883   -1.2948    1.7447 C   0  0  0  0  0  0  0  0  0  0  0  0
   -4.1142    1.8291   -0.8584 C   0  0  0  0  0  0  0  0  0  0  0  0
    1.2444   -0.0047   -0.2348 C   0  0  0  0  0  0  0  0  0  0  0  0
   -0.0277    1.7603    0.0940 C   0  0  0  0  0  0  0  0  0  0  0  0
    1.9915    1.0838    0.1860 C   0  0  0  0  0  0  0  0  0  0  0  0
    3.3621    0.8901    0.3248 C   0  0  0  0  0  0  0  0  0  0  0  0
    3.0330   -1.2998   -0.3558 C   0  0  0  0  0  0  0  0  0  0  0  0
   -0.8836   -1.0689   -1.4074 H   0  0  0  0  0  0  0  0  0  0  0  0
   -2.8783    0.8364    1.2728 H   0  0  0  0  0  0  0  0  0  0  0  0
   -4.0316   -0.2558   -1.3432 H   0  0  0  0  0  0  0  0  0  0  0  0
   -0.4520   -1.9770    1.5555 H   0  0  0  0  0  0  0  0  0  0  0  0
   -0.9012   -0.3925    2.2279 H   0  0  0  0  0  0  0  0  0  0  0  0
   -1.9413   -1.8043    2.4627 H   0  0  0  0  0  0  0  0  0  0  0  0
   -4.2284    2.1383   -1.9027 H   0  0  0  0  0  0  0  0  0  0  0  0
   -5.1022    1.8042   -0.3895 H   0  0  0  0  0  0  0  0  0  0  0  0
   -3.5110    2.6010   -0.3684 H   0  0  0  0  0  0  0  0  0  0  0  0
   -3.1791   -2.5707    0.6156 H   0  0  0  0  0  0  0  0  0  0  0  0
   -4.0811   -0.9115    2.1090 H   0  0  0  0  0  0  0  0  0  0  0  0
   -0.9219    2.3660    0.1466 H   0  0  0  0  0  0  0  0  0  0  0  0
    3.8082    2.8485    0.9566 H   0  0  0  0  0  0  0  0  0  0  0  0
    5.1896    1.7726    0.8412 H   0  0  0  0  0  0  0  0  0  0  0  0
  1 20  1  0  0  0  0
  2 11  1  0  0  0  0
  2 13  1  0  0  0  0
  3 10  1  0  0  0  0
  3 30  1  0  0  0  0
  4 12  1  0  0  0  0
  4 31  1  0  0  0  0
  5 11  1  0  0  0  0
  5 16  1  0  0  0  0
  5 17  1  0  0  0  0
  6 17  2  0  0  0  0
  6 18  1  0  0  0  0
  7 16  2  0  0  0  0
  7 20  1  0  0  0  0
  8 19  1  0  0  0  0
  8 20  2  0  0  0  0
  9 19  1  0  0  0  0
  9 33  1  0  0  0  0
  9 34  1  0  0  0  0
 10 11  1  0  0  0  0
 10 12  1  0  0  0  0
 10 14  1  0  0  0  0
 11 21  1  0  0  0  0
 12 13  1  0  0  0  0
 12 22  1  0  0  0  0
 13 15  1  0  0  0  0
 13 23  1  0  0  0  0
 14 24  1  0  0  0  0
 14 25  1  0  0  0  0
 14 26  1  0  0  0  0
 15 27  1  0  0  0  0
 15 28  1  0  0  0  0
 15 29  1  0  0  0  0
 16 18  1  0  0  0  0
 17 32  1  0  0  0  0
 18 19  2  0  0  0  0
M  END
> <PUBCHEM_COMPOUND_CID>
10266777

> <PUBCHEM_CONFORMER_RMSD>
0.6

> <PUBCHEM_CONFORMER_DIVERSEORDER>
1
6
7
4
3
2
5

> <PUBCHEM_MMFF94_PARTIAL_CHARGES>
23
1 -0.18
10 0.28
11 0.54
12 0.28
13 0.28
16 0.11
17 0.04
18 0.23
19 0.41
2 -0.56
20 0.8
3 -0.68
30 0.4
31 0.4
32 0.15
33 0.4
34 0.4
4 -0.68
5 0.05
6 -0.57
7 -0.57
8 -0.62
9 -0.9

> <PUBCHEM_EFFECTIVE_ROTOR_COUNT>
2

> <PUBCHEM_PHARMACOPHORE_FEATURES>
13
1 2 acceptor
1 3 acceptor
1 3 donor
1 4 acceptor
1 4 donor
1 9 cation
1 9 donor
3 5 6 17 cation
3 5 7 16 cation
3 7 8 20 cation
5 2 10 11 12 13 rings
5 5 6 16 17 18 rings
6 7 8 16 18 19 20 rings

> <PUBCHEM_HEAVY_ATOM_COUNT>
20

> <PUBCHEM_ATOM_DEF_STEREO_COUNT>
4

> <PUBCHEM_ATOM_UDEF_STEREO_COUNT>
0

> <PUBCHEM_BOND_DEF_STEREO_COUNT>
0

> <PUBCHEM_BOND_UDEF_STEREO_COUNT>
0

> <PUBCHEM_ISOTOPIC_ATOM_COUNT>
0

> <PUBCHEM_COMPONENT_COUNT>
1

> <PUBCHEM_CACTVS_TAUTO_COUNT>
3

> <PUBCHEM_CONFORMER_ID>
009CA89900000001

> <PUBCHEM_MMFF94_ENERGY>
49.7445

> <PUBCHEM_FEATURE_SELFOVERLAP>
66.588

> <PUBCHEM_SHAPE_FINGERPRINT>
10608611 8 18408599292459746445
10922523 26 18261112980321219661
1100329 8 16534538545432762995
11471102 20 18342731919074491060
12236239 1 16917348138548064271
12507560 40 18409451384217484741
12553582 1 18127985100653057094
13134695 92 17988634173342380888
13296908 3 18408041805715008742
13464514 151 17831574280849838781
13544592 145 18189897521906229774
13581323 91 16298380292500526576
13583140 156 17845362418148440529
13675066 3 18261115175097000129
14115302 16 17969234355922006694
14866123 147 17332531172506754114
15219456 202 18408882949184599076
15375358 24 18409160030678843216
15653759 3 18113617915029313633
16945 1 18341611542168608341
18186145 218 17968091958850477637
19049666 15 18334294232308898913
19784866 170 18339077202875247480
200 152 17632004261078913341
20279233 1 18408318908383253212
20645477 56 18333446560626487117
20645477 70 18271797982854329166
20832881 197 18048315544249248138
21065199 12 18409733988559500379
21069387 34 17775280534936742735
21521239 73 18198599092179562725
23175994 123 18267591216837752111
23184049 59 18131357375286077327
23526113 38 18338220601216829249
23557571 272 17821733844727568524
23559900 14 18335137545396467126
2748010 2 18409453600278262734
296302 2 18272086136405029168
34934 24 18341039779232199068
495365 180 18058428981082010720
5104073 3 18409448059638485313
633830 44 18261382296488303645
69090 78 18411697721091453151
77492 1 16917347038978440263
81228 2 18265054622360169088
8809292 202 18333169453367447458
9709674 26 18409446998639163719

> <PUBCHEM_SHAPE_MULTIPOLES>
370.95
8.18
2.44
1.11
0.14
0.37
-0.18
0.35
0.23
1.7
-0.02
-0.74
0.21
1.76

> <PUBCHEM_SHAPE_SELFOVERLAP>
797.212

> <PUBCHEM_SHAPE_VOLUME>
208.9

> <PUBCHEM_COORDINATE_TYPE>
2
5
10

$$$$
