10264058
  -OEChem-03292013303D

 27 27  0     0  0  0  0  0  0999 V2000
   -3.6012   -0.4261    0.0801 S   0  0  0  0  0  0  0  0  0  0  0  0
   -4.1353   -1.0806    1.4753 O   0  0  0  0  0  0  0  0  0  0  0  0
    0.2896    3.1281   -0.8674 O   0  0  0  0  0  0  0  0  0  0  0  0
   -3.8561   -1.3596   -1.0014 O   0  0  0  0  0  0  0  0  0  0  0  0
   -4.0448    0.9542    0.0126 O   0  0  0  0  0  0  0  0  0  0  0  0
    3.1586   -2.4875   -0.3628 O   0  0  0  0  0  0  0  0  0  0  0  0
    4.3356   -0.1338    0.6503 O   0  0  0  0  0  0  0  0  0  0  0  0
    0.3994   -0.0466   -0.3523 N   0  0  0  0  0  0  0  0  0  0  0  0
   -1.0166   -0.0525   -0.7241 C   0  0  0  0  0  0  0  0  0  0  0  0
   -1.8771   -0.4502    0.4616 C   0  0  0  0  0  0  0  0  0  0  0  0
    1.0289    1.1053    0.1563 C   0  0  0  0  0  0  0  0  0  0  0  0
    1.1596   -1.2013   -0.4995 C   0  0  0  0  0  0  0  0  0  0  0  0
    2.3322    1.1180    0.5005 C   0  0  0  0  0  0  0  0  0  0  0  0
    0.2191    2.3655    0.3201 C   0  0  0  0  0  0  0  0  0  0  0  0
    2.4598   -1.3171   -0.1946 C   0  0  0  0  0  0  0  0  0  0  0  0
    3.1486   -0.1160    0.3453 C   0  0  0  0  0  0  0  0  0  0  0  0
   -1.1799   -0.7632   -1.5459 H   0  0  0  0  0  0  0  0  0  0  0  0
   -1.3402    0.9078   -1.1392 H   0  0  0  0  0  0  0  0  0  0  0  0
   -1.7234    0.2118    1.3193 H   0  0  0  0  0  0  0  0  0  0  0  0
   -1.6316   -1.4709    0.7760 H   0  0  0  0  0  0  0  0  0  0  0  0
    0.6007   -2.0437   -0.8939 H   0  0  0  0  0  0  0  0  0  0  0  0
    2.8259    2.0007    0.8906 H   0  0  0  0  0  0  0  0  0  0  0  0
    0.6327    2.9833    1.1261 H   0  0  0  0  0  0  0  0  0  0  0  0
   -0.8255    2.1970    0.5905 H   0  0  0  0  0  0  0  0  0  0  0  0
   -3.9481   -2.0416    1.5924 H   0  0  0  0  0  0  0  0  0  0  0  0
   -0.0332    2.5821   -1.6036 H   0  0  0  0  0  0  0  0  0  0  0  0
    2.5505   -3.1565   -0.7220 H   0  0  0  0  0  0  0  0  0  0  0  0
  1  2  1  0  0  0  0
  1  4  2  0  0  0  0
  1  5  2  0  0  0  0
  1 10  1  0  0  0  0
  2 25  1  0  0  0  0
  3 14  1  0  0  0  0
  3 26  1  0  0  0  0
  6 15  1  0  0  0  0
  6 27  1  0  0  0  0
  7 16  2  0  0  0  0
  8  9  1  0  0  0  0
  8 11  1  0  0  0  0
  8 12  1  0  0  0  0
  9 10  1  0  0  0  0
  9 17  1  0  0  0  0
  9 18  1  0  0  0  0
 10 19  1  0  0  0  0
 10 20  1  0  0  0  0
 11 13  2  0  0  0  0
 11 14  1  0  0  0  0
 12 15  2  0  0  0  0
 12 21  1  0  0  0  0
 13 16  1  0  0  0  0
 13 22  1  0  0  0  0
 14 23  1  0  0  0  0
 14 24  1  0  0  0  0
 15 16  1  0  0  0  0
M  END
> <PUBCHEM_COMPOUND_CID>
10264058

> <PUBCHEM_CONFORMER_RMSD>
0.6

> <PUBCHEM_CONFORMER_DIVERSEORDER>
2
7
6
9
3
8
1
4
5

> <PUBCHEM_MMFF94_PARTIAL_CHARGES>
21
1 1.38
10 0.11
11 -0.04
12 -0.05
13 -0.14
14 0.42
15 0.09
16 0.54
2 -0.68
21 0.15
22 0.15
25 0.5
26 0.4
27 0.45
3 -0.68
4 -0.65
5 -0.65
6 -0.53
7 -0.57
8 -0.57
9 0.37

> <PUBCHEM_EFFECTIVE_ROTOR_COUNT>
4

> <PUBCHEM_PHARMACOPHORE_FEATURES>
10
1 2 acceptor
1 3 acceptor
1 3 donor
1 4 acceptor
1 5 acceptor
1 6 donor
1 7 acceptor
1 8 cation
4 1 2 4 5 anion
6 8 11 12 13 15 16 rings

> <PUBCHEM_HEAVY_ATOM_COUNT>
16

> <PUBCHEM_ATOM_DEF_STEREO_COUNT>
0

> <PUBCHEM_ATOM_UDEF_STEREO_COUNT>
0

> <PUBCHEM_BOND_DEF_STEREO_COUNT>
0

> <PUBCHEM_BOND_UDEF_STEREO_COUNT>
0

> <PUBCHEM_ISOTOPIC_ATOM_COUNT>
0

> <PUBCHEM_COMPONENT_COUNT>
1

> <PUBCHEM_CACTVS_TAUTO_COUNT>
2

> <PUBCHEM_CONFORMER_ID>
009C9DFA00000002

> <PUBCHEM_MMFF94_ENERGY>
27.8183

> <PUBCHEM_FEATURE_SELFOVERLAP>
50.8

> <PUBCHEM_SHAPE_FINGERPRINT>
10219947 1 18341328980680917432
10618630 7 18339923714737050364
10980938 120 18342737472245385724
116883 192 18265614290626026612
12251169 10 18271809059733331519
124424 183 18260259755314392861
14251717 144 18341043107615881119
14252887 29 18412829079579897930
14790565 3 18051412065873985424
15375462 478 17846779598542628825
15442244 35 18270965648336256209
15501101 241 18273209815914013192
15848700 24 18411411813133278892
200 152 17988913501499581839
20339313 130 18334299794149408181
20645477 70 18271800169019472271
20671657 1 18124316266152084253
20871998 22 18341054021338412942
21421861 104 17898566467277496826
21524375 3 17338158949817506357
22182313 1 17985535664450831246
2255824 54 18194685005892252228
23402539 116 18410562981693334058
2748010 2 17912349949912951564
4990 188 12107785168733355554
81228 2 18048614624149237904

> <PUBCHEM_SHAPE_MULTIPOLES>
292.93
7.54
2.4
0.92
4.93
1.31
-0.08
-3.32
-1.47
-1.11
0.49
0.52
-0.05
0.33

> <PUBCHEM_SHAPE_SELFOVERLAP>
585.387

> <PUBCHEM_SHAPE_VOLUME>
173.5

> <PUBCHEM_COORDINATE_TYPE>
2
5
10

$$$$
