10273661
  -OEChem-03292013303D

 57 60  0     1  0  0  0  0  0999 V2000
   -7.0568    0.4660   -0.1905 S   0  0  0  0  0  0  0  0  0  0  0  0
    4.3411    2.3022    0.0991 O   0  0  0  0  0  0  0  0  0  0  0  0
    5.2731   -2.2513    0.4473 O   0  0  0  0  0  0  0  0  0  0  0  0
   -5.9035   -0.6946   -0.0700 O   0  0  0  0  0  0  0  0  0  0  0  0
   -6.9975    1.0315   -1.5262 O   0  0  0  0  0  0  0  0  0  0  0  0
   -6.9709    1.3181    0.9817 O   0  0  0  0  0  0  0  0  0  0  0  0
    4.8235    0.0223    0.1948 N   0  0  0  0  0  0  0  0  0  0  0  0
   -8.5208   -0.4216   -0.0737 N   0  0  0  0  0  0  0  0  0  0  0  0
    2.0815   -0.4833    0.0461 C   0  0  1  0  0  0  0  0  0  0  0  0
    0.5716   -0.7745    0.2778 C   0  0  1  0  0  0  0  0  0  0  0  0
    2.5283    0.8364    0.7183 C   0  0  2  0  0  0  0  0  0  0  0  0
   -0.3001    0.3956   -0.2608 C   0  0  2  0  0  0  0  0  0  0  0  0
    1.6121    1.9865    0.2465 C   0  0  0  0  0  0  0  0  0  0  0  0
    0.1229    1.7032    0.4328 C   0  0  0  0  0  0  0  0  0  0  0  0
    0.0982   -2.0792   -0.3789 C   0  0  0  0  0  0  0  0  0  0  0  0
    2.9856   -1.6223    0.5122 C   0  0  0  0  0  0  0  0  0  0  0  0
   -1.7962    0.1019   -0.1785 C   0  0  0  0  0  0  0  0  0  0  0  0
    3.9681    1.1406    0.2829 C   0  0  0  0  0  0  0  0  0  0  0  0
    2.5337    0.7869    2.2619 C   0  0  0  0  0  0  0  0  0  0  0  0
   -1.3316   -2.3949    0.0485 C   0  0  0  0  0  0  0  0  0  0  0  0
   -2.2676   -1.2216   -0.0655 C   0  0  0  0  0  0  0  0  0  0  0  0
    4.4617   -1.3242    0.3721 C   0  0  0  0  0  0  0  0  0  0  0  0
   -2.7452    1.1326   -0.3074 C   0  0  0  0  0  0  0  0  0  0  0  0
    6.2363    0.2775   -0.0700 C   0  0  0  0  0  0  0  0  0  0  0  0
   -3.6499   -1.4744   -0.0149 C   0  0  0  0  0  0  0  0  0  0  0  0
   -4.1161    0.8687   -0.2674 C   0  0  0  0  0  0  0  0  0  0  0  0
   -4.5691   -0.4345   -0.1138 C   0  0  0  0  0  0  0  0  0  0  0  0
    6.5562    0.2813   -1.5601 C   0  0  0  0  0  0  0  0  0  0  0  0
    8.0315    0.5249   -1.8444 C   0  0  0  0  0  0  0  0  0  0  0  0
    2.2335   -0.3772   -1.0395 H   0  0  0  0  0  0  0  0  0  0  0  0
    0.4010   -0.8765    1.3588 H   0  0  0  0  0  0  0  0  0  0  0  0
   -0.0868    0.5065   -1.3348 H   0  0  0  0  0  0  0  0  0  0  0  0
    1.7954    2.1861   -0.8187 H   0  0  0  0  0  0  0  0  0  0  0  0
    1.8629    2.9181    0.7706 H   0  0  0  0  0  0  0  0  0  0  0  0
   -0.1287    1.6650    1.4997 H   0  0  0  0  0  0  0  0  0  0  0  0
   -0.4184    2.5612    0.0204 H   0  0  0  0  0  0  0  0  0  0  0  0
    0.7223   -2.9303   -0.0915 H   0  0  0  0  0  0  0  0  0  0  0  0
    0.1567   -1.9911   -1.4713 H   0  0  0  0  0  0  0  0  0  0  0  0
    2.8053   -2.5140   -0.0984 H   0  0  0  0  0  0  0  0  0  0  0  0
    2.7879   -1.8936    1.5549 H   0  0  0  0  0  0  0  0  0  0  0  0
    3.2735    0.0815    2.6543 H   0  0  0  0  0  0  0  0  0  0  0  0
    2.7996    1.7667    2.6775 H   0  0  0  0  0  0  0  0  0  0  0  0
    1.5594    0.5115    2.6748 H   0  0  0  0  0  0  0  0  0  0  0  0
   -1.3313   -2.7290    1.0939 H   0  0  0  0  0  0  0  0  0  0  0  0
   -1.7016   -3.2271   -0.5627 H   0  0  0  0  0  0  0  0  0  0  0  0
   -2.4371    2.1638   -0.4530 H   0  0  0  0  0  0  0  0  0  0  0  0
    6.8505   -0.4763    0.4362 H   0  0  0  0  0  0  0  0  0  0  0  0
    6.5144    1.2454    0.3643 H   0  0  0  0  0  0  0  0  0  0  0  0
   -4.0094   -2.4954    0.0972 H   0  0  0  0  0  0  0  0  0  0  0  0
   -4.7717    1.7260   -0.3667 H   0  0  0  0  0  0  0  0  0  0  0  0
    6.2620   -0.6773   -2.0044 H   0  0  0  0  0  0  0  0  0  0  0  0
    5.9621    1.0524   -2.0653 H   0  0  0  0  0  0  0  0  0  0  0  0
    8.6509   -0.2541   -1.3890 H   0  0  0  0  0  0  0  0  0  0  0  0
    8.2160    0.5201   -2.9231 H   0  0  0  0  0  0  0  0  0  0  0  0
    8.3504    1.4942   -1.4481 H   0  0  0  0  0  0  0  0  0  0  0  0
   -8.7265   -0.8510    0.8375 H   0  0  0  0  0  0  0  0  0  0  0  0
   -8.7443   -1.0449   -0.8602 H   0  0  0  0  0  0  0  0  0  0  0  0
  1  4  1  0  0  0  0
  1  5  2  0  0  0  0
  1  6  2  0  0  0  0
  1  8  1  0  0  0  0
  2 18  2  0  0  0  0
  3 22  2  0  0  0  0
  4 27  1  0  0  0  0
  7 18  1  0  0  0  0
  7 22  1  0  0  0  0
  7 24  1  0  0  0  0
  8 56  1  0  0  0  0
  8 57  1  0  0  0  0
  9 10  1  0  0  0  0
  9 11  1  0  0  0  0
  9 16  1  0  0  0  0
  9 30  1  0  0  0  0
 10 12  1  0  0  0  0
 10 15  1  0  0  0  0
 10 31  1  0  0  0  0
 11 13  1  0  0  0  0
 11 18  1  0  0  0  0
 11 19  1  0  0  0  0
 12 14  1  0  0  0  0
 12 17  1  0  0  0  0
 12 32  1  0  0  0  0
 13 14  1  0  0  0  0
 13 33  1  0  0  0  0
 13 34  1  0  0  0  0
 14 35  1  0  0  0  0
 14 36  1  0  0  0  0
 15 20  1  0  0  0  0
 15 37  1  0  0  0  0
 15 38  1  0  0  0  0
 16 22  1  0  0  0  0
 16 39  1  0  0  0  0
 16 40  1  0  0  0  0
 17 21  2  0  0  0  0
 17 23  1  0  0  0  0
 19 41  1  0  0  0  0
 19 42  1  0  0  0  0
 19 43  1  0  0  0  0
 20 21  1  0  0  0  0
 20 44  1  0  0  0  0
 20 45  1  0  0  0  0
 21 25  1  0  0  0  0
 23 26  2  0  0  0  0
 23 46  1  0  0  0  0
 24 28  1  0  0  0  0
 24 47  1  0  0  0  0
 24 48  1  0  0  0  0
 25 27  2  0  0  0  0
 25 49  1  0  0  0  0
 26 27  1  0  0  0  0
 26 50  1  0  0  0  0
 28 29  1  0  0  0  0
 28 51  1  0  0  0  0
 28 52  1  0  0  0  0
 29 53  1  0  0  0  0
 29 54  1  0  0  0  0
 29 55  1  0  0  0  0
M  END
> <PUBCHEM_COMPOUND_CID>
10273661

> <PUBCHEM_CONFORMER_RMSD>
0.8

> <PUBCHEM_CONFORMER_DIVERSEORDER>
3
19
13
12
21
18
16
1
22
23
17
4
9
14
15
8
5
20
6
10
7
2
11

> <PUBCHEM_MMFF94_PARTIAL_CHARGES>
26
1 1.62
11 0.06
12 0.14
16 0.06
17 -0.14
18 0.57
2 -0.57
20 0.14
21 -0.14
22 0.57
23 -0.15
24 0.3
25 -0.15
26 -0.15
27 0.08
3 -0.57
4 -0.27
46 0.15
49 0.15
5 -0.65
50 0.15
56 0.42
57 0.42
6 -0.65
7 -0.42
8 -0.98

> <PUBCHEM_EFFECTIVE_ROTOR_COUNT>
5.2

> <PUBCHEM_PHARMACOPHORE_FEATURES>
10
1 2 acceptor
1 29 hydrophobe
1 3 acceptor
1 5 acceptor
1 6 acceptor
1 8 donor
6 10 12 15 17 20 21 rings
6 17 21 23 25 26 27 rings
6 7 9 11 16 18 22 rings
6 9 10 11 12 13 14 rings

> <PUBCHEM_HEAVY_ATOM_COUNT>
29

> <PUBCHEM_ATOM_DEF_STEREO_COUNT>
4

> <PUBCHEM_ATOM_UDEF_STEREO_COUNT>
0

> <PUBCHEM_BOND_DEF_STEREO_COUNT>
0

> <PUBCHEM_BOND_UDEF_STEREO_COUNT>
0

> <PUBCHEM_ISOTOPIC_ATOM_COUNT>
0

> <PUBCHEM_COMPONENT_COUNT>
1

> <PUBCHEM_CACTVS_TAUTO_COUNT>
1

> <PUBCHEM_CONFORMER_ID>
009CC37D00000003

> <PUBCHEM_MMFF94_ENERGY>
74.8551

> <PUBCHEM_FEATURE_SELFOVERLAP>
50.817

> <PUBCHEM_SHAPE_FINGERPRINT>
10 15 17749108894510892065
10299344 5 18411702075829211889
106641 1 14923950072061655705
10816530 90 18188488086161905284
10906281 52 18340502092445445211
11089746 13 17275378812057008961
11578080 2 17057783377454922618
12011746 2 18343585152882118822
12107698 1 16272208600493430289
12166972 35 18060414738290816633
12236239 1 17385438821536682915
12403259 415 18339065039264146969
12788726 201 17917436380327982784
12838862 33 18340750612248701224
13402501 40 18410288104060553749
13533116 47 17917426493186776619
13782708 43 15194710368110536559
13914758 101 15267353894176331003
14251764 18 18412263926392370235
14341114 176 18335420171229175857
14617045 38 18409451388586389486
15183329 4 18272374156795659713
15196674 1 18411132576072049067
15198563 99 17417269654030665912
15361156 5 18114467854919097287
15439362 3 17901676183316262396
15849732 13 17894349982240493871
16087824 20 18411139096001774585
19611394 137 18042698376610322595
2026 5 16700912475442283542
21033648 29 18129648832979617322
21267235 1 18411982421029369002
21792934 111 18339908334585816440
221357 26 18202281394669385240
22224240 67 13479134609663802160
23522609 53 18266484060079447112
23559900 14 18341888636230905609
23569943 247 15839887122527192950
23576562 1 18197777906531804061
249057 3 18411139173120846820
255183 451 17771634447443575830
3004659 81 18411138052482405552
335352 9 18411981382079644439
350125 39 18410854339569225313
3545911 37 18411416220065078017
4073 2 18041844037714432019
4325135 7 18041001743715358476
4340502 62 15863788387552702562
5104073 3 18338227267032505707
58260988 393 15068610566164945198
59682541 35 8358252619320703534
59755656 215 18272089379215990807
6086070 43 17560517425667119779
6328613 192 18410298042209000080

> <PUBCHEM_SHAPE_MULTIPOLES>
561.35
20.38
2.11
1.16
14.77
0.5
0.02
-3.41
-6.86
-0.77
0.23
-1.49
-0.32
-0.2

> <PUBCHEM_SHAPE_SELFOVERLAP>
1189.688

> <PUBCHEM_SHAPE_VOLUME>
316

> <PUBCHEM_COORDINATE_TYPE>
2
5
10

$$$$
