10275789
  -OEChem-03292013303D

 41 43  0     1  0  0  0  0  0999 V2000
   -5.3930    3.7179   -0.6757 Br  0  0  0  0  0  0  0  0  0  0  0  0
    1.5154   -0.8820    1.0621 S   0  0  0  0  0  0  0  0  0  0  0  0
    2.1024   -2.1715    1.3757 O   0  0  0  0  0  0  0  0  0  0  0  0
    0.7115   -0.1836    2.0472 O   0  0  0  0  0  0  0  0  0  0  0  0
    7.2275    0.5433   -1.1103 O   0  5  0  0  0  0  0  0  0  0  0  0
    6.3362   -1.4499   -0.8834 O   0  0  0  0  0  0  0  0  0  0  0  0
    0.6235   -0.9930   -0.4162 N   0  0  2  0  0  0  0  0  0  0  0  0
   -4.1052   -0.1597   -0.1950 N   0  0  0  0  0  0  0  0  0  0  0  0
   -0.7098   -1.5851   -0.2271 N   0  0  0  0  0  0  0  0  0  0  0  0
   -4.9772   -2.1867    0.1692 N   0  0  0  0  0  0  0  0  0  0  0  0
    6.2731   -0.2011   -0.7797 N   0  3  0  0  0  0  0  0  0  0  0  0
    2.8570    0.1703    0.5967 C   0  0  0  0  0  0  0  0  0  0  0  0
    2.7514    1.5462    0.7258 C   0  0  0  0  0  0  0  0  0  0  0  0
    4.0105   -0.4191    0.1023 C   0  0  0  0  0  0  0  0  0  0  0  0
    3.8257    2.3534    0.3514 C   0  0  0  0  0  0  0  0  0  0  0  0
   -3.0490   -1.0330   -0.1414 C   0  0  0  0  0  0  0  0  0  0  0  0
    5.0849    0.3880   -0.2720 C   0  0  0  0  0  0  0  0  0  0  0  0
   -5.2598   -0.9113   -0.0005 C   0  0  0  0  0  0  0  0  0  0  0  0
    1.5165    2.1981    1.2562 C   0  0  0  0  0  0  0  0  0  0  0  0
    4.9923    1.7743   -0.1475 C   0  0  0  0  0  0  0  0  0  0  0  0
    1.3361   -1.5614   -1.5887 C   0  0  0  0  0  0  0  0  0  0  0  0
   -1.6678   -0.6987   -0.2897 C   0  0  0  0  0  0  0  0  0  0  0  0
   -3.6105   -2.2678    0.0832 C   0  0  0  0  0  0  0  0  0  0  0  0
   -4.1054    1.2176   -0.3994 C   0  0  0  0  0  0  0  0  0  0  0  0
   -6.4988   -0.2083   -0.0162 C   0  0  0  0  0  0  0  0  0  0  0  0
   -5.2770    1.8784   -0.4136 C   0  0  0  0  0  0  0  0  0  0  0  0
   -6.5103    1.1246   -0.2132 C   0  0  0  0  0  0  0  0  0  0  0  0
    4.0705   -1.4990    0.0018 H   0  0  0  0  0  0  0  0  0  0  0  0
    3.7716    3.4351    0.4432 H   0  0  0  0  0  0  0  0  0  0  0  0
    0.6163    1.8610    0.7332 H   0  0  0  0  0  0  0  0  0  0  0  0
    1.5520    3.2817    1.0859 H   0  0  0  0  0  0  0  0  0  0  0  0
    1.4321    2.0682    2.3391 H   0  0  0  0  0  0  0  0  0  0  0  0
    5.8091    2.4340   -0.4287 H   0  0  0  0  0  0  0  0  0  0  0  0
    0.6244   -1.7347   -2.4028 H   0  0  0  0  0  0  0  0  0  0  0  0
    2.0843   -0.8576   -1.9597 H   0  0  0  0  0  0  0  0  0  0  0  0
    1.8030   -2.5176   -1.3378 H   0  0  0  0  0  0  0  0  0  0  0  0
   -1.4035    0.3581   -0.4676 H   0  0  0  0  0  0  0  0  0  0  0  0
   -3.1048   -3.2173    0.1887 H   0  0  0  0  0  0  0  0  0  0  0  0
   -3.1538    1.7152   -0.5407 H   0  0  0  0  0  0  0  0  0  0  0  0
   -7.4228   -0.7563    0.1314 H   0  0  0  0  0  0  0  0  0  0  0  0
   -7.4565    1.6568   -0.2244 H   0  0  0  0  0  0  0  0  0  0  0  0
  1 26  1  0  0  0  0
  2  3  2  0  0  0  0
  2  4  2  0  0  0  0
  2  7  1  0  0  0  0
  2 12  1  0  0  0  0
  5 11  1  0  0  0  0
  6 11  2  0  0  0  0
  7  9  1  0  0  0  0
  7 21  1  0  0  0  0
  8 16  1  0  0  0  0
  8 18  1  0  0  0  0
  8 24  1  0  0  0  0
  9 22  2  0  0  0  0
 10 18  2  0  0  0  0
 10 23  1  0  0  0  0
 11 17  1  0  0  0  0
 12 13  2  0  0  0  0
 12 14  1  0  0  0  0
 13 15  1  0  0  0  0
 13 19  1  0  0  0  0
 14 17  2  0  0  0  0
 14 28  1  0  0  0  0
 15 20  2  0  0  0  0
 15 29  1  0  0  0  0
 16 22  1  0  0  0  0
 16 23  2  0  0  0  0
 17 20  1  0  0  0  0
 18 25  1  0  0  0  0
 19 30  1  0  0  0  0
 19 31  1  0  0  0  0
 19 32  1  0  0  0  0
 20 33  1  0  0  0  0
 21 34  1  0  0  0  0
 21 35  1  0  0  0  0
 21 36  1  0  0  0  0
 22 37  1  0  0  0  0
 23 38  1  0  0  0  0
 24 26  2  0  0  0  0
 24 39  1  0  0  0  0
 25 27  2  0  0  0  0
 25 40  1  0  0  0  0
 26 27  1  0  0  0  0
 27 41  1  0  0  0  0
M  CHG  2   5  -1  11   1
M  END
> <PUBCHEM_COMPOUND_CID>
10275789

> <PUBCHEM_CONFORMER_RMSD>
0.8

> <PUBCHEM_CONFORMER_DIVERSEORDER>
1
50
20
115
100
30
21
72
55
112
35
84
89
64
9
52
96
123
120
90
129
86
58
51
101
16
95
83
111
108
47
46
56
121
66
113
65
19
80
29
76
122
17
114
26
102
18
4
68
116
60
110
105
14
87
74
27
78
127
12
15
93
59
75
28
82
42
73
41
22
94
43
106
107
125
81
33
91
109
131
88
7
119
70
31
62
45
85
54
49
92
40
34
128
103
117
11
48
126
36
44
8
67
24
124
69
63
6
77
57
130
79
39
118
97
99
104
71
38
25
32
61
13
37
5
10
2
53
3
98
23

> <PUBCHEM_MMFF94_PARTIAL_CHARGES>
35
1 -0.11
10 -0.57
11 0.91
12 -0.01
13 -0.14
14 -0.15
15 -0.15
16 -0.24
17 0.13
18 0.14
19 0.14
2 1.45
20 -0.15
21 0.36
22 0.47
23 0.08
24 -0.18
25 -0.11
26 0.11
27 -0.15
28 0.15
29 0.15
3 -0.65
33 0.15
37 0.06
38 0.15
39 0.15
4 -0.65
40 0.15
41 0.15
5 -0.52
6 -0.52
7 -0.51
8 0.33
9 -0.43

> <PUBCHEM_EFFECTIVE_ROTOR_COUNT>
5

> <PUBCHEM_PHARMACOPHORE_FEATURES>
11
1 1 hydrophobe
1 3 acceptor
1 4 acceptor
1 5 acceptor
1 5 anion
1 6 acceptor
1 9 acceptor
3 8 10 18 cation
5 8 10 16 18 23 rings
6 12 13 14 15 17 20 rings
6 8 18 24 25 26 27 rings

> <PUBCHEM_HEAVY_ATOM_COUNT>
27

> <PUBCHEM_ATOM_DEF_STEREO_COUNT>
0

> <PUBCHEM_ATOM_UDEF_STEREO_COUNT>
0

> <PUBCHEM_BOND_DEF_STEREO_COUNT>
1

> <PUBCHEM_BOND_UDEF_STEREO_COUNT>
0

> <PUBCHEM_ISOTOPIC_ATOM_COUNT>
0

> <PUBCHEM_COMPONENT_COUNT>
1

> <PUBCHEM_CACTVS_TAUTO_COUNT>
1

> <PUBCHEM_CONFORMER_ID>
009CCBCD00000001

> <PUBCHEM_MMFF94_ENERGY>
59.6868

> <PUBCHEM_FEATURE_SELFOVERLAP>
56.037

> <PUBCHEM_SHAPE_FINGERPRINT>
10670039 82 18335697230795383685
10763959 59 18412546539414478292
11595378 159 16878490255731209757
11991303 11 17346030190536511247
12107183 9 17829594081735163195
12596602 18 17313097545779208401
12788726 201 17845087373160240289
13402501 40 18413668015636978781
14251751 18 9439399151380260845
14251752 14 18411699872521649072
14341114 176 18337955687860585969
14347329 18 18342449306195282497
14840074 17 15502372352708553351
14933364 13 18409451401054423623
15183329 4 18202008720106752040
15238133 3 18335967706476381226
15961568 22 18408040698130898829
17844677 252 18338240465419188297
17857418 61 8862941689200978257
19611394 137 18042979860071680635
21033648 29 18270952565554571672
21279426 13 18342739598428627980
21709351 56 17917424367394054815
21859007 373 18200296776350373320
221357 26 18342174492264486992
22224240 67 15068342340967085322
22289505 5 18273214188443707092
22393880 68 18412538838258158809
23559900 14 18129096728388784695
23569914 2 17552022551392129873
2747138 104 17897171436720912899
2838139 119 18342170072890696397
3004659 81 18411981377885105200
4073 2 17968100862603129778
4144715 1 18336836316225529091
4340502 62 11025794315150213786
504579 68 18336814377854289599
5104073 3 17895470337518760835
59682541 35 10881404270821540654
59755656 215 18342178838871227790
6328613 192 18261112945782282741
7808743 9 18409722981075259387

> <PUBCHEM_SHAPE_MULTIPOLES>
517.06
18.68
3.07
1.15
0.17
1.86
0.18
5.91
-5.02
-3.37
-0.1
1.11
-0.12
1.23

> <PUBCHEM_SHAPE_SELFOVERLAP>
1088.557

> <PUBCHEM_SHAPE_VOLUME>
298.3

> <PUBCHEM_COORDINATE_TYPE>
2
5
10

$$$$
