102764
  -OEChem-03292013323D

 26 26  0     1  0  0  0  0  0999 V2000
    2.2393    1.7752   -1.1386 O   0  0  0  0  0  0  0  0  0  0  0  0
    4.2206    0.5080    0.3076 O   0  0  0  0  0  0  0  0  0  0  0  0
    3.1509   -2.1120    0.1280 O   0  0  0  0  0  0  0  0  0  0  0  0
   -4.2481   -0.9846   -0.4871 O   0  5  0  0  0  0  0  0  0  0  0  0
   -4.1828    0.5585    1.0789 O   0  0  0  0  0  0  0  0  0  0  0  0
   -3.6226   -0.1478    0.2069 N   0  3  0  0  0  0  0  0  0  0  0  0
    1.9834    0.4641   -0.6293 C   0  0  1  0  0  0  0  0  0  0  0  0
    2.8555    0.2182    0.6160 C   0  0  1  0  0  0  0  0  0  0  0  0
    0.4948    0.3020   -0.4080 C   0  0  0  0  0  0  0  0  0  0  0  0
    2.7548   -1.2067    1.1539 C   0  0  0  0  0  0  0  0  0  0  0  0
   -0.2047   -0.6178   -1.1689 C   0  0  0  0  0  0  0  0  0  0  0  0
   -0.1332    1.0772    0.5511 C   0  0  0  0  0  0  0  0  0  0  0  0
   -1.5764   -0.7673   -0.9645 C   0  0  0  0  0  0  0  0  0  0  0  0
   -1.5049    0.9277    0.7558 C   0  0  0  0  0  0  0  0  0  0  0  0
   -2.2265    0.0052   -0.0020 C   0  0  0  0  0  0  0  0  0  0  0  0
    2.3107   -0.2129   -1.4285 H   0  0  0  0  0  0  0  0  0  0  0  0
    2.5831    0.9191    1.4125 H   0  0  0  0  0  0  0  0  0  0  0  0
    1.7384   -1.4536    1.4741 H   0  0  0  0  0  0  0  0  0  0  0  0
    3.4398   -1.3438    1.9968 H   0  0  0  0  0  0  0  0  0  0  0  0
    0.2906   -1.2258   -1.9202 H   0  0  0  0  0  0  0  0  0  0  0  0
    0.4135    1.8058    1.1422 H   0  0  0  0  0  0  0  0  0  0  0  0
   -2.1057   -1.4960   -1.5731 H   0  0  0  0  0  0  0  0  0  0  0  0
   -1.9777    1.5481    1.5129 H   0  0  0  0  0  0  0  0  0  0  0  0
    3.1993    1.8541   -1.2733 H   0  0  0  0  0  0  0  0  0  0  0  0
    4.5057   -0.1182   -0.3797 H   0  0  0  0  0  0  0  0  0  0  0  0
    3.0823   -3.0085    0.4982 H   0  0  0  0  0  0  0  0  0  0  0  0
  1  7  1  0  0  0  0
  1 24  1  0  0  0  0
  2  8  1  0  0  0  0
  2 25  1  0  0  0  0
  3 10  1  0  0  0  0
  3 26  1  0  0  0  0
  4  6  1  0  0  0  0
  5  6  2  0  0  0  0
  6 15  1  0  0  0  0
  7  8  1  0  0  0  0
  7  9  1  0  0  0  0
  7 16  1  0  0  0  0
  8 10  1  0  0  0  0
  8 17  1  0  0  0  0
  9 11  2  0  0  0  0
  9 12  1  0  0  0  0
 10 18  1  0  0  0  0
 10 19  1  0  0  0  0
 11 13  1  0  0  0  0
 11 20  1  0  0  0  0
 12 14  2  0  0  0  0
 12 21  1  0  0  0  0
 13 15  2  0  0  0  0
 13 22  1  0  0  0  0
 14 15  1  0  0  0  0
 14 23  1  0  0  0  0
M  CHG  2   4  -1   6   1
M  END
> <PUBCHEM_COMPOUND_CID>
102764

> <PUBCHEM_CONFORMER_RMSD>
0.6

> <PUBCHEM_CONFORMER_DIVERSEORDER>
1
15
22
19
5
21
3
4
16
17
14
12
20
8
18
13
23
2
9
11
10
6
7

> <PUBCHEM_MMFF94_PARTIAL_CHARGES>
22
1 -0.68
10 0.28
11 -0.15
12 -0.15
13 -0.15
14 -0.15
15 0.13
2 -0.68
20 0.15
21 0.15
22 0.15
23 0.15
24 0.4
25 0.4
26 0.4
3 -0.68
4 -0.52
5 -0.52
6 0.91
7 0.42
8 0.28
9 -0.14

> <PUBCHEM_EFFECTIVE_ROTOR_COUNT>
4

> <PUBCHEM_PHARMACOPHORE_FEATURES>
10
1 1 acceptor
1 1 donor
1 2 acceptor
1 2 donor
1 3 acceptor
1 3 donor
1 4 acceptor
1 4 anion
1 5 acceptor
6 9 11 12 13 14 15 rings

> <PUBCHEM_HEAVY_ATOM_COUNT>
15

> <PUBCHEM_ATOM_DEF_STEREO_COUNT>
0

> <PUBCHEM_ATOM_UDEF_STEREO_COUNT>
2

> <PUBCHEM_BOND_DEF_STEREO_COUNT>
0

> <PUBCHEM_BOND_UDEF_STEREO_COUNT>
0

> <PUBCHEM_ISOTOPIC_ATOM_COUNT>
0

> <PUBCHEM_COMPONENT_COUNT>
1

> <PUBCHEM_CACTVS_TAUTO_COUNT>
1

> <PUBCHEM_CONFORMER_ID>
0001916C00000001

> <PUBCHEM_MMFF94_ENERGY>
41.7202

> <PUBCHEM_FEATURE_SELFOVERLAP>
50.843

> <PUBCHEM_SHAPE_FINGERPRINT>
10130415 120 18342458161990370473
11132069 177 16415474956849395481
12119455 92 14548737291933804540
12251169 10 18413106177720916812
13296908 3 17968928687478763830
13538477 17 18270682103032178910
13581323 91 18059849558657985138
13675066 3 18410290294235438001
13760787 19 18335710497922545479
14251717 144 17894908533741449226
14252887 29 17967249780657635970
15375462 189 18343292695695118546
15775835 57 17918272060778390066
16945 1 18335986444970430101
17846911 113 16988841657604385969
18186145 218 16008746905531972341
19026448 4 17095522924604409669
19026448 5 18261115205488922749
19422 9 18410294726794687675
20201158 50 16370440042917992432
20279233 1 16153426142935551992
20559304 39 18413390942948771580
20645476 183 18267876153563475775
20645477 70 17894623773225598103
20871998 22 18114739309926860934
22445834 79 18341324514157717698
2255824 54 18189340237442323076
23402539 116 16702014271064153701
23463225 33 18342739602480612327
23557571 272 14907902717155505453
23559900 14 16845304821256040404
2748010 2 17415018871580150277
4072396 5 17917425364200773075
42 15 18271806791753150922
474 4 18120370119395165512
4990 188 15140675882554012123
57812782 119 17240198837481872797
77492 1 18412824719834437125

> <PUBCHEM_SHAPE_MULTIPOLES>
274.37
7.21
1.43
1.14
2.57
0.26
-0.06
1.07
1.68
-0.86
-0.03
-0.19
-0.02
-1.02

> <PUBCHEM_SHAPE_SELFOVERLAP>
567.068

> <PUBCHEM_SHAPE_VOLUME>
157.5

> <PUBCHEM_COORDINATE_TYPE>
2
5
10

$$$$
