102826
  -OEChem-03292013323D

 40 40  0     1  0  0  0  0  0999 V2000
    3.8391    0.8374    0.5044 O   0  0  0  0  0  0  0  0  0  0  0  0
   -0.3880   -0.2798    0.1862 O   0  0  0  0  0  0  0  0  0  0  0  0
    4.1116   -0.8972   -0.9760 O   0  0  0  0  0  0  0  0  0  0  0  0
   -0.8493   -2.3465   -0.7870 O   0  0  0  0  0  0  0  0  0  0  0  0
   -6.5669    0.4793    0.9778 O   0  5  0  0  0  0  0  0  0  0  0  0
   -6.3243    1.3621   -1.0174 O   0  0  0  0  0  0  0  0  0  0  0  0
    2.1605   -0.6365    0.2517 N   0  0  0  0  0  0  0  0  0  0  0  0
   -5.8495    0.8030    0.0007 N   0  3  0  0  0  0  0  0  0  0  0  0
    5.1467    1.3128    0.1828 C   0  0  0  0  0  0  0  0  0  0  0  0
    5.1936    1.6340   -1.3103 C   0  0  0  0  0  0  0  0  0  0  0  0
    5.3953    2.5714    1.0113 C   0  0  0  0  0  0  0  0  0  0  0  0
    6.1606    0.2263    0.5385 C   0  0  0  0  0  0  0  0  0  0  0  0
    1.4412   -1.7831   -0.2537 C   0  0  1  0  0  0  0  0  0  0  0  0
    3.4331   -0.2921   -0.1526 C   0  0  0  0  0  0  0  0  0  0  0  0
    1.7292   -3.0066    0.6021 C   0  0  0  0  0  0  0  0  0  0  0  0
   -0.0588   -1.5297   -0.3242 C   0  0  0  0  0  0  0  0  0  0  0  0
   -1.7580   -0.0086    0.1394 C   0  0  0  0  0  0  0  0  0  0  0  0
   -2.5395   -0.3640    1.2161 C   0  0  0  0  0  0  0  0  0  0  0  0
   -2.2727    0.6048   -0.9809 C   0  0  0  0  0  0  0  0  0  0  0  0
   -4.4571    0.5283    0.0484 C   0  0  0  0  0  0  0  0  0  0  0  0
   -3.9069   -0.0921    1.1700 C   0  0  0  0  0  0  0  0  0  0  0  0
   -3.6399    0.8769   -1.0270 C   0  0  0  0  0  0  0  0  0  0  0  0
    4.2977    2.1834   -1.6224 H   0  0  0  0  0  0  0  0  0  0  0  0
    6.0659    2.2580   -1.5395 H   0  0  0  0  0  0  0  0  0  0  0  0
    5.2799    0.7605   -1.9615 H   0  0  0  0  0  0  0  0  0  0  0  0
    5.3138    2.3537    2.0825 H   0  0  0  0  0  0  0  0  0  0  0  0
    4.6407    3.3356    0.7926 H   0  0  0  0  0  0  0  0  0  0  0  0
    6.3853    2.9975    0.8191 H   0  0  0  0  0  0  0  0  0  0  0  0
    6.2007   -0.6076   -0.1666 H   0  0  0  0  0  0  0  0  0  0  0  0
    7.1748    0.6427    0.5618 H   0  0  0  0  0  0  0  0  0  0  0  0
    5.9494   -0.1979    1.5271 H   0  0  0  0  0  0  0  0  0  0  0  0
    1.7803   -1.9628   -1.2809 H   0  0  0  0  0  0  0  0  0  0  0  0
    1.7125   -0.0554    0.9541 H   0  0  0  0  0  0  0  0  0  0  0  0
    1.2150   -3.8914    0.2122 H   0  0  0  0  0  0  0  0  0  0  0  0
    2.8024   -3.2237    0.6324 H   0  0  0  0  0  0  0  0  0  0  0  0
    1.3907   -2.8550    1.6335 H   0  0  0  0  0  0  0  0  0  0  0  0
   -2.1104   -0.8460    2.0889 H   0  0  0  0  0  0  0  0  0  0  0  0
   -1.6360    0.8766   -1.8170 H   0  0  0  0  0  0  0  0  0  0  0  0
   -4.5126   -0.3780    2.0262 H   0  0  0  0  0  0  0  0  0  0  0  0
   -4.0336    1.3612   -1.9170 H   0  0  0  0  0  0  0  0  0  0  0  0
  1  9  1  0  0  0  0
  1 14  1  0  0  0  0
  2 16  1  0  0  0  0
  2 17  1  0  0  0  0
  3 14  2  0  0  0  0
  4 16  2  0  0  0  0
  5  8  1  0  0  0  0
  6  8  2  0  0  0  0
  7 13  1  0  0  0  0
  7 14  1  0  0  0  0
  7 33  1  0  0  0  0
  8 20  1  0  0  0  0
  9 10  1  0  0  0  0
  9 11  1  0  0  0  0
  9 12  1  0  0  0  0
 10 23  1  0  0  0  0
 10 24  1  0  0  0  0
 10 25  1  0  0  0  0
 11 26  1  0  0  0  0
 11 27  1  0  0  0  0
 11 28  1  0  0  0  0
 12 29  1  0  0  0  0
 12 30  1  0  0  0  0
 12 31  1  0  0  0  0
 13 15  1  0  0  0  0
 13 16  1  0  0  0  0
 13 32  1  0  0  0  0
 15 34  1  0  0  0  0
 15 35  1  0  0  0  0
 15 36  1  0  0  0  0
 17 18  2  0  0  0  0
 17 19  1  0  0  0  0
 18 21  1  0  0  0  0
 18 37  1  0  0  0  0
 19 22  2  0  0  0  0
 19 38  1  0  0  0  0
 20 21  2  0  0  0  0
 20 22  1  0  0  0  0
 21 39  1  0  0  0  0
 22 40  1  0  0  0  0
M  CHG  2   5  -1   8   1
M  END
> <PUBCHEM_COMPOUND_CID>
102826

> <PUBCHEM_CONFORMER_RMSD>
0.8

> <PUBCHEM_CONFORMER_DIVERSEORDER>
1
292
63
352
320
204
205
274
338
208
216
77
95
331
91
86
22
145
236
242
346
192
52
206
153
248
348
263
196
180
105
275
157
319
264
267
227
159
48
131
123
211
249
278
306
137
228
175
332
40
186
3
170
289
113
215
336
290
75
333
310
288
187
354
42
164
178
360
116
358
32
125
308
134
363
70
107
74
17
198
171
163
13
265
102
229
149
197
133
230
111
103
210
184
203
136
318
207
167
56
349
340
350
307
9
214
31
281
72
217
311
199
189
271
276
355
73
93
326
45
356
118
266
150
177
191
172
282
251
339
260
12
59
161
256
190
168
16
303
152
64
69
173
316
4
112
71
33
334
218
327
46
341
202
294
94
83
343
57
213
104
193
337
5
144
7
11
15
330
287
120
8
158
261
115
322
82
272
342
279
114
259
255
315
37
283
321
53
174
302
139
154
108
296
317
295
165
126
298
58
347
270
35
117
2
301
65
21
325
235
247
142
29
176
200
188
27
19
80
97
90
344
328
61
50
232
359
81
362
254
312
88
238
106
23
25
78
285
20
323
250
219
240
277
26
87
212
47
293
67
119
286
222
291
143
244
351
147
305
41
100
335
185
273
28
280
122
162
146
309
110
353
129
55
84
54
269
132
166
245
6
62
96
151
169
76
128
30
155
135
262
130
252
225
66
43
182
364
24
124
357
226
297
239
183
268
345
51
68
92
44
284
127
365
221
34
140
237
220
223
138
231
10
38
156
246
109
18
60
179
121
258
304
79
224
201
160
99
314
313
361
101
233
257
241
98
299
36
243
49
195
148
14
300
39
253
89
85
194
209
141
234
324
329
181

> <PUBCHEM_MMFF94_PARTIAL_CHARGES>
23
1 -0.43
13 0.36
14 0.78
16 0.66
17 0.08
18 -0.15
19 -0.15
2 -0.23
20 0.13
21 -0.15
22 -0.15
3 -0.57
33 0.37
37 0.15
38 0.15
39 0.15
4 -0.57
40 0.15
5 -0.52
6 -0.52
7 -0.73
8 0.91
9 0.28

> <PUBCHEM_EFFECTIVE_ROTOR_COUNT>
8

> <PUBCHEM_PHARMACOPHORE_FEATURES>
8
1 3 acceptor
1 4 acceptor
1 5 acceptor
1 5 anion
1 6 acceptor
1 7 donor
4 9 10 11 12 hydrophobe
6 17 18 19 20 21 22 rings

> <PUBCHEM_HEAVY_ATOM_COUNT>
22

> <PUBCHEM_ATOM_DEF_STEREO_COUNT>
0

> <PUBCHEM_ATOM_UDEF_STEREO_COUNT>
1

> <PUBCHEM_BOND_DEF_STEREO_COUNT>
0

> <PUBCHEM_BOND_UDEF_STEREO_COUNT>
0

> <PUBCHEM_ISOTOPIC_ATOM_COUNT>
0

> <PUBCHEM_COMPONENT_COUNT>
1

> <PUBCHEM_CACTVS_TAUTO_COUNT>
2

> <PUBCHEM_CONFORMER_ID>
000191AA00000001

> <PUBCHEM_MMFF94_ENERGY>
65.3343

> <PUBCHEM_FEATURE_SELFOVERLAP>
40.678

> <PUBCHEM_SHAPE_FINGERPRINT>
10 15 17822296815744330313
10498660 4 18343303703944172392
10753850 27 10015590484585078796
11128504 68 17203608176919883628
12236239 1 17346598543753435609
12403259 118 17822576130531611836
12616971 3 18200580415573655230
12633257 1 16008754627656135390
12730499 353 18408892806187706754
13631057 29 18127964407780388327
13685833 64 9079113366891027484
13955234 65 18263925436676887818
14123256 34 9151175389003658584
1420 369 8286208249255126576
14461889 52 17968386718731085395
14528608 73 18273494567939967821
15183329 4 13686306763690588080
15475509 35 16154542061824216106
15575132 122 17632582600523135857
16079462 125 17895468147011573421
17834072 32 18339641273820264756
17980427 23 17241053213983605791
1813 80 10881676854725883682
193927 3 9079124379709218988
19784866 140 10303818661623792823
19784866 240 9367348158332494459
204376 136 18411702097135723998
20645477 56 18410012161054611014
21033650 10 14907084646192395954
21049683 118 18190439719037009914
21150785 3 17846770820257210717
21315764 119 15051744074685079693
22224240 67 18407762543385109451
22849339 104 14548729672667415413
23198884 109 15985108509072176061
23227448 37 18339080513783115694
23557571 272 17023752195363262967
23559900 14 17314523534218293275
25147074 1 18271224071997467622
270888 7 18339921649406965872
2767999 5 18413387648619191352
2838139 119 18341603824386671068
3004659 81 13830144862706061348
3014063 24 12107783029692345505
312425 54 15213298664324108392
3472631 163 18202001083787061044
34797466 226 17988929938196901405
351380 3 8070032159953416392
4340502 62 17530967964433748787
445580 126 18342168947572289672
5104073 3 17823984433661072425
543368 44 17775000215443507833
56633871 153 12035718825752782656
59682541 52 16988296291711409228
621550 34 18187644639924569695
960060 61 15123515817801934412

> <PUBCHEM_SHAPE_MULTIPOLES>
407.57
16.35
2.33
1.15
3.21
1.14
-0.02
-11.85
1.25
-2.57
0.01
0.19
-0.25
0.81

> <PUBCHEM_SHAPE_SELFOVERLAP>
840.99

> <PUBCHEM_SHAPE_VOLUME>
233.1

> <PUBCHEM_COORDINATE_TYPE>
2
5
10

$$$$
