10286593
  -OEChem-03292013303D

 38 40  0     1  0  0  0  0  0999 V2000
   -6.6019   -0.2535    0.9900 Cl  0  0  0  0  0  0  0  0  0  0  0  0
    1.4818   -0.6153    0.2473 O   0  0  0  0  0  0  0  0  0  0  0  0
    0.1076    1.2044   -0.2467 O   0  0  0  0  0  0  0  0  0  0  0  0
    4.7615    1.8163    0.6918 O   0  0  0  0  0  0  0  0  0  0  0  0
    5.1200   -1.0286    0.3259 O   0  0  0  0  0  0  0  0  0  0  0  0
    2.4051    2.7599   -0.8041 O   0  0  0  0  0  0  0  0  0  0  0  0
    1.5919   -3.3615    0.1983 O   0  0  0  0  0  0  0  0  0  0  0  0
   -2.2115   -0.9764   -1.7292 N   0  0  0  0  0  0  0  0  0  0  0  0
    3.8486    0.9879   -0.0299 C   0  0  1  0  0  0  0  0  0  0  0  0
    3.8700   -0.4031    0.6040 C   0  0  1  0  0  0  0  0  0  0  0  0
    2.4496    1.6012    0.0284 C   0  0  2  0  0  0  0  0  0  0  0  0
    2.7364   -1.2697    0.0503 C   0  0  1  0  0  0  0  0  0  0  0  0
    1.3896    0.6163   -0.4649 C   0  0  1  0  0  0  0  0  0  0  0  0
    2.6649   -2.6221    0.7522 C   0  0  0  0  0  0  0  0  0  0  0  0
   -0.9784    0.4626   -0.6227 C   0  0  0  0  0  0  0  0  0  0  0  0
   -2.2602    0.4844   -0.0436 C   0  0  0  0  0  0  0  0  0  0  0  0
   -3.0275   -0.4361   -0.7609 C   0  0  0  0  0  0  0  0  0  0  0  0
   -0.9584   -0.4306   -1.6492 C   0  0  0  0  0  0  0  0  0  0  0  0
   -2.8624    1.1879    1.0183 C   0  0  0  0  0  0  0  0  0  0  0  0
   -4.3722   -0.6892   -0.4679 C   0  0  0  0  0  0  0  0  0  0  0  0
   -4.2067    0.9448    1.3228 C   0  0  0  0  0  0  0  0  0  0  0  0
   -4.9481    0.0204    0.5898 C   0  0  0  0  0  0  0  0  0  0  0  0
    4.2124    0.9543   -1.0642 H   0  0  0  0  0  0  0  0  0  0  0  0
    3.7859   -0.3084    1.6936 H   0  0  0  0  0  0  0  0  0  0  0  0
    2.2231    1.9345    1.0482 H   0  0  0  0  0  0  0  0  0  0  0  0
    2.8685   -1.4525   -1.0249 H   0  0  0  0  0  0  0  0  0  0  0  0
    1.5317    0.4483   -1.5413 H   0  0  0  0  0  0  0  0  0  0  0  0
    2.4732   -2.5076    1.8242 H   0  0  0  0  0  0  0  0  0  0  0  0
    3.5854   -3.1974    0.6180 H   0  0  0  0  0  0  0  0  0  0  0  0
    5.6361    1.3932    0.6472 H   0  0  0  0  0  0  0  0  0  0  0  0
    5.2003   -1.1237   -0.6385 H   0  0  0  0  0  0  0  0  0  0  0  0
    2.6095    2.4859   -1.7144 H   0  0  0  0  0  0  0  0  0  0  0  0
   -0.1939   -0.7443   -2.3458 H   0  0  0  0  0  0  0  0  0  0  0  0
    0.7814   -2.8367    0.3149 H   0  0  0  0  0  0  0  0  0  0  0  0
   -2.4974   -1.6740   -2.4021 H   0  0  0  0  0  0  0  0  0  0  0  0
   -2.2962    1.9114    1.5981 H   0  0  0  0  0  0  0  0  0  0  0  0
   -4.9399   -1.4117   -1.0461 H   0  0  0  0  0  0  0  0  0  0  0  0
   -4.6630    1.4927    2.1443 H   0  0  0  0  0  0  0  0  0  0  0  0
  1 22  1  0  0  0  0
  2 12  1  0  0  0  0
  2 13  1  0  0  0  0
  3 13  1  0  0  0  0
  3 15  1  0  0  0  0
  4  9  1  0  0  0  0
  4 30  1  0  0  0  0
  5 10  1  0  0  0  0
  5 31  1  0  0  0  0
  6 11  1  0  0  0  0
  6 32  1  0  0  0  0
  7 14  1  0  0  0  0
  7 34  1  0  0  0  0
  8 17  1  0  0  0  0
  8 18  1  0  0  0  0
  8 35  1  0  0  0  0
  9 10  1  0  0  0  0
  9 11  1  0  0  0  0
  9 23  1  0  0  0  0
 10 12  1  0  0  0  0
 10 24  1  0  0  0  0
 11 13  1  0  0  0  0
 11 25  1  0  0  0  0
 12 14  1  0  0  0  0
 12 26  1  0  0  0  0
 13 27  1  0  0  0  0
 14 28  1  0  0  0  0
 14 29  1  0  0  0  0
 15 16  1  0  0  0  0
 15 18  2  0  0  0  0
 16 17  2  0  0  0  0
 16 19  1  0  0  0  0
 17 20  1  0  0  0  0
 18 33  1  0  0  0  0
 19 21  2  0  0  0  0
 19 36  1  0  0  0  0
 20 22  2  0  0  0  0
 20 37  1  0  0  0  0
 21 22  1  0  0  0  0
 21 38  1  0  0  0  0
M  END
> <PUBCHEM_COMPOUND_CID>
10286593

> <PUBCHEM_CONFORMER_RMSD>
0.8

> <PUBCHEM_CONFORMER_DIVERSEORDER>
1
46
52
4
69
77
66
18
44
38
29
81
55
17
57
74
49
50
15
62
3
19
59
64
8
37
39
35
56
43
76
9
78
60
6
40
65
71
54
12
5
67
41
27
72
73
2
75
53
51
42
24
58
63
33
48
20
68
47
25
28
7
80
70
21
10
36
79
23
26
45
61
32
14
11
34
13
16
31
30
22

> <PUBCHEM_MMFF94_PARTIAL_CHARGES>
30
1 -0.18
10 0.28
11 0.28
12 0.28
13 0.56
14 0.28
15 0.06
17 -0.15
18 -0.3
19 -0.15
2 -0.56
20 -0.15
21 -0.15
22 0.18
3 -0.34
30 0.4
31 0.4
32 0.4
33 0.15
34 0.4
35 0.27
36 0.15
37 0.15
38 0.15
4 -0.68
5 -0.68
6 -0.68
7 -0.68
8 0.03
9 0.28

> <PUBCHEM_EFFECTIVE_ROTOR_COUNT>
4.2

> <PUBCHEM_PHARMACOPHORE_FEATURES>
15
1 2 acceptor
1 3 acceptor
1 4 acceptor
1 4 donor
1 5 acceptor
1 5 donor
1 6 acceptor
1 6 donor
1 7 acceptor
1 7 donor
1 8 cation
1 8 donor
5 8 15 16 17 18 rings
6 16 17 19 20 21 22 rings
6 2 9 10 11 12 13 rings

> <PUBCHEM_HEAVY_ATOM_COUNT>
22

> <PUBCHEM_ATOM_DEF_STEREO_COUNT>
5

> <PUBCHEM_ATOM_UDEF_STEREO_COUNT>
0

> <PUBCHEM_BOND_DEF_STEREO_COUNT>
0

> <PUBCHEM_BOND_UDEF_STEREO_COUNT>
0

> <PUBCHEM_ISOTOPIC_ATOM_COUNT>
0

> <PUBCHEM_COMPONENT_COUNT>
1

> <PUBCHEM_CACTVS_TAUTO_COUNT>
1

> <PUBCHEM_CONFORMER_ID>
009CF60100000001

> <PUBCHEM_MMFF94_ENERGY>
55.2124

> <PUBCHEM_FEATURE_SELFOVERLAP>
76.276

> <PUBCHEM_SHAPE_FINGERPRINT>
10366900 7 17968389982299210880
114674 6 17895197640743702858
12107183 9 17693101764740472945
12236239 1 18202001049363830389
12251169 10 18272088284046718565
12363563 72 15791736291035957365
12507560 40 18334293133188012245
12553582 1 18337099060970875942
12596602 18 18131072662405211683
12633257 1 18187359922131700994
12670546 56 18131344220043979013
12892183 10 18410301281115319441
13533116 47 18410015421040329251
13583140 156 18408036295889224765
13965767 371 17555764034720731593
14252887 29 17967253078712503656
14341114 176 18411986857820016201
14341114 328 18273216413020631691
14386348 63 16877663452782562643
14849402 71 18200303451246704720
15375462 189 18343576322334386872
1813 80 17822583711006575460
19050596 39 18272367594080408437
20645477 70 18113612382884479167
20715895 44 17625268507589299817
20739085 24 18334579027786342604
21065198 48 18272091569802299025
21197605 99 18117852211913547683
21267235 1 18411423873892069302
2255824 54 18335703875272989652
23557571 272 16081363003910423879
23558518 356 17479729863559670781
23559900 14 18114748239000638009
33824 294 18333447638652618554
341906 21 16558750075134123585
345986 75 18198332966429628257
3633792 109 18336253567231846703
38570 142 18123211231719099140
4340502 62 18336271227504559915
474 4 18337106890575047488
5104073 3 18130499850700496098
5758199 1 18341330106717210584
633830 44 18271527623585588764
7097593 13 18270679749395557079
8272917 22 18410298003501280743

> <PUBCHEM_SHAPE_MULTIPOLES>
414.42
12.05
2.32
1.21
7.93
0.95
-0.25
-0.05
4.49
-3.37
0.24
0.97
0.08
-1.05

> <PUBCHEM_SHAPE_SELFOVERLAP>
886.301

> <PUBCHEM_SHAPE_VOLUME>
231.1

> <PUBCHEM_COORDINATE_TYPE>
2
5
10

$$$$
