102831
  -OEChem-03292013323D

 29 30  0     1  0  0  0  0  0999 V2000
    4.8001   -0.3157   -0.0611 S   0  0  0  0  0  0  0  0  0  0  0  0
   -1.2977    2.5700    0.0999 O   0  0  0  0  0  0  0  0  0  0  0  0
    5.2897    0.3416    1.3535 O   0  0  0  0  0  0  0  0  0  0  0  0
   -5.3474   -0.5451   -0.8122 O   0  0  0  0  0  0  0  0  0  0  0  0
    5.1251   -1.7335   -0.0052 O   0  0  0  0  0  0  0  0  0  0  0  0
    5.3007    0.5178   -1.1433 O   0  0  0  0  0  0  0  0  0  0  0  0
   -4.4290   -2.3644    0.2255 O   0  0  0  0  0  0  0  0  0  0  0  0
   -1.1077    0.2110   -0.0644 N   0  0  0  0  0  0  0  0  0  0  0  0
   -1.9640   -0.8684   -0.1404 N   0  0  0  0  0  0  0  0  0  0  0  0
   -3.8507    1.4736    1.2427 N   0  0  0  0  0  0  0  0  0  0  0  0
   -3.2393    1.0980   -0.0173 C   0  0  1  0  0  0  0  0  0  0  0  0
   -1.7734    1.4500    0.0119 C   0  0  0  0  0  0  0  0  0  0  0  0
    0.2726    0.0880   -0.0634 C   0  0  0  0  0  0  0  0  0  0  0  0
   -3.1606   -0.3832   -0.1157 C   0  0  0  0  0  0  0  0  0  0  0  0
    1.0736    1.1043   -0.5972 C   0  0  0  0  0  0  0  0  0  0  0  0
    0.8806   -1.0539    0.4715 C   0  0  0  0  0  0  0  0  0  0  0  0
    3.0612   -0.1604   -0.0616 C   0  0  0  0  0  0  0  0  0  0  0  0
    2.4630    0.9806   -0.5965 C   0  0  0  0  0  0  0  0  0  0  0  0
    2.2699   -1.1775    0.4725 C   0  0  0  0  0  0  0  0  0  0  0  0
   -4.3669   -1.2327   -0.1996 C   0  0  0  0  0  0  0  0  0  0  0  0
   -3.7218    1.5444   -0.8896 H   0  0  0  0  0  0  0  0  0  0  0  0
    0.6547    1.9894   -1.0654 H   0  0  0  0  0  0  0  0  0  0  0  0
    0.2856   -1.8564    0.9008 H   0  0  0  0  0  0  0  0  0  0  0  0
    3.0586    1.7844   -1.0200 H   0  0  0  0  0  0  0  0  0  0  0  0
    2.7145   -2.0709    0.9020 H   0  0  0  0  0  0  0  0  0  0  0  0
   -3.3900    1.0023    2.0205 H   0  0  0  0  0  0  0  0  0  0  0  0
   -4.8243    1.1730    1.2606 H   0  0  0  0  0  0  0  0  0  0  0  0
    4.9538   -0.1051    2.1659 H   0  0  0  0  0  0  0  0  0  0  0  0
   -6.1728   -1.0691   -0.8918 H   0  0  0  0  0  0  0  0  0  0  0  0
  1  3  1  0  0  0  0
  1  5  2  0  0  0  0
  1  6  2  0  0  0  0
  1 17  1  0  0  0  0
  2 12  2  0  0  0  0
  3 28  1  0  0  0  0
  4 20  1  0  0  0  0
  4 29  1  0  0  0  0
  7 20  2  0  0  0  0
  8  9  1  0  0  0  0
  8 12  1  0  0  0  0
  8 13  1  0  0  0  0
  9 14  2  0  0  0  0
 10 11  1  0  0  0  0
 10 26  1  0  0  0  0
 10 27  1  0  0  0  0
 11 12  1  0  0  0  0
 11 14  1  0  0  0  0
 11 21  1  0  0  0  0
 13 15  2  0  0  0  0
 13 16  1  0  0  0  0
 14 20  1  0  0  0  0
 15 18  1  0  0  0  0
 15 22  1  0  0  0  0
 16 19  2  0  0  0  0
 16 23  1  0  0  0  0
 17 18  2  0  0  0  0
 17 19  1  0  0  0  0
 18 24  1  0  0  0  0
 19 25  1  0  0  0  0
M  END
> <PUBCHEM_COMPOUND_CID>
102831

> <PUBCHEM_CONFORMER_RMSD>
0.6

> <PUBCHEM_CONFORMER_DIVERSEORDER>
1
5
4
3
6
2

> <PUBCHEM_MMFF94_PARTIAL_CHARGES>
28
1 1.49
10 -0.99
11 0.39
12 0.57
13 0.12
14 0.39
15 -0.15
16 -0.15
17 -0.01
18 -0.15
19 -0.15
2 -0.57
20 0.72
22 0.15
23 0.15
24 0.15
25 0.15
26 0.36
27 0.36
28 0.5
29 0.5
3 -0.68
4 -0.65
5 -0.65
6 -0.65
7 -0.57
8 -0.11
9 -0.51

> <PUBCHEM_EFFECTIVE_ROTOR_COUNT>
3.4

> <PUBCHEM_PHARMACOPHORE_FEATURES>
13
1 10 cation
1 10 donor
1 2 acceptor
1 3 acceptor
1 4 acceptor
1 5 acceptor
1 6 acceptor
1 7 acceptor
1 9 acceptor
3 4 7 20 anion
4 1 3 5 6 anion
5 8 9 11 12 14 rings
6 13 15 16 17 18 19 rings

> <PUBCHEM_HEAVY_ATOM_COUNT>
20

> <PUBCHEM_ATOM_DEF_STEREO_COUNT>
0

> <PUBCHEM_ATOM_UDEF_STEREO_COUNT>
1

> <PUBCHEM_BOND_DEF_STEREO_COUNT>
0

> <PUBCHEM_BOND_UDEF_STEREO_COUNT>
0

> <PUBCHEM_ISOTOPIC_ATOM_COUNT>
0

> <PUBCHEM_COMPONENT_COUNT>
1

> <PUBCHEM_CACTVS_TAUTO_COUNT>
5

> <PUBCHEM_CONFORMER_ID>
000191AF00000001

> <PUBCHEM_MMFF94_ENERGY>
50.4294

> <PUBCHEM_FEATURE_SELFOVERLAP>
66.087

> <PUBCHEM_SHAPE_FINGERPRINT>
10616163 171 18411984650392078983
10912923 1 18259706696702309376
11045515 52 17894909646502255573
11046707 91 18411982468527002413
11315181 36 18409450301606144800
11806522 49 18334012800450646782
12107183 9 17616813232515210562
12236239 1 18333733511517318327
13167823 11 18411136922626542302
13288520 33 18412546504917193767
13675066 3 18059853957052629902
13760787 5 17530974570425473148
13862211 1 18335415794283312018
14576447 43 18333447668437924974
15196674 1 18409167692932043860
15375358 24 11097854081940654680
17349148 13 17748831795789364434
17834072 33 18334296487335463084
17844677 252 17203331108991225192
17862501 102 18333447638578518512
200 152 18333729135072270199
20281475 54 18260827047616900470
20300324 65 18410858750162872361
21033648 29 16773501201350188298
21267235 1 18409175428289703567
221490 88 17972043797104390203
22646028 1 18259985963860030036
2297311 6 18131081428269899796
23402539 116 18409727348503170013
23557571 272 18060145322901439709
23559900 14 18337663226368432401
26918003 58 18114176462847004395
2871803 45 18187078455602135894
34797466 226 17560528408178161116
4214541 1 18411700950273616653
5104073 3 18343018857238988442
67856867 119 18189616214697585444
7495541 125 17703784847396508200
77779 3 18341051831000011438
9709674 26 18410019805637922966

> <PUBCHEM_SHAPE_MULTIPOLES>
365.28
11.97
1.9
0.87
4.49
0.11
0.1
-3.57
-0.23
-1.54
0.14
0.34
0.15
-0.68

> <PUBCHEM_SHAPE_SELFOVERLAP>
776.279

> <PUBCHEM_SHAPE_VOLUME>
204.6

> <PUBCHEM_COORDINATE_TYPE>
2
5
10

$$$$
