102818
  -OEChem-03292013323D

 47 48  0     1  0  0  0  0  0999 V2000
    0.1505   -0.9211   -1.4998 O   0  0  0  0  0  0  0  0  0  0  0  0
    3.8487    0.5333    1.3731 O   0  0  0  0  0  0  0  0  0  0  0  0
    8.2076   -1.9662    0.7721 O   0  0  0  0  0  0  0  0  0  0  0  0
    6.9095   -2.7160   -0.9342 O   0  0  0  0  0  0  0  0  0  0  0  0
   -6.8664   -2.1441    1.0348 O   0  5  0  0  0  0  0  0  0  0  0  0
   -6.3019   -3.1642   -0.8253 O   0  0  0  0  0  0  0  0  0  0  0  0
    2.5079   -0.1834   -0.3846 N   0  0  0  0  0  0  0  0  0  0  0  0
   -0.9317   -0.0446    0.3889 N   0  0  0  0  0  0  0  0  0  0  0  0
   -6.0323   -2.3996    0.1326 N   0  3  0  0  0  0  0  0  0  0  0  0
    1.3441    0.6146   -0.0733 C   0  0  1  0  0  0  0  0  0  0  0  0
    1.4082    1.9636   -0.7994 C   0  0  0  0  0  0  0  0  0  0  0  0
    0.2477    2.8734   -0.4795 C   0  0  0  0  0  0  0  0  0  0  0  0
    0.1231   -0.2001   -0.5058 C   0  0  0  0  0  0  0  0  0  0  0  0
    3.6704   -0.1552    0.3719 C   0  0  0  0  0  0  0  0  0  0  0  0
    4.7247   -1.0917   -0.1906 C   0  0  0  0  0  0  0  0  0  0  0  0
   -0.9104    2.8256   -1.2557 C   0  0  0  0  0  0  0  0  0  0  0  0
    0.3326    3.7619    0.5925 C   0  0  0  0  0  0  0  0  0  0  0  0
   -2.2147   -0.6367    0.3242 C   0  0  0  0  0  0  0  0  0  0  0  0
    6.0128   -1.0772    0.6260 C   0  0  0  0  0  0  0  0  0  0  0  0
   -1.9835    3.6663   -0.9599 C   0  0  0  0  0  0  0  0  0  0  0  0
   -0.7405    4.6025    0.8882 C   0  0  0  0  0  0  0  0  0  0  0  0
   -1.8986    4.5546    0.1119 C   0  0  0  0  0  0  0  0  0  0  0  0
   -3.1578   -0.3675    1.3160 C   0  0  0  0  0  0  0  0  0  0  0  0
   -2.5366   -1.4900   -0.7313 C   0  0  0  0  0  0  0  0  0  0  0  0
   -4.4228   -0.9516    1.2526 C   0  0  0  0  0  0  0  0  0  0  0  0
   -3.8017   -2.0743   -0.7947 C   0  0  0  0  0  0  0  0  0  0  0  0
   -4.7447   -1.8051    0.1974 C   0  0  0  0  0  0  0  0  0  0  0  0
    7.0560   -2.0072    0.0520 C   0  0  0  0  0  0  0  0  0  0  0  0
    1.3225    0.7736    1.0118 H   0  0  0  0  0  0  0  0  0  0  0  0
    1.4484    1.8061   -1.8863 H   0  0  0  0  0  0  0  0  0  0  0  0
    2.3466    2.4780   -0.5519 H   0  0  0  0  0  0  0  0  0  0  0  0
    2.4776   -0.7726   -1.2124 H   0  0  0  0  0  0  0  0  0  0  0  0
    4.3069   -2.1057   -0.2165 H   0  0  0  0  0  0  0  0  0  0  0  0
    4.9324   -0.7946   -1.2260 H   0  0  0  0  0  0  0  0  0  0  0  0
   -0.7881    0.5728    1.1849 H   0  0  0  0  0  0  0  0  0  0  0  0
   -0.9895    2.1411   -2.0961 H   0  0  0  0  0  0  0  0  0  0  0  0
    1.2286    3.8062    1.2059 H   0  0  0  0  0  0  0  0  0  0  0  0
    6.4304   -0.0640    0.6442 H   0  0  0  0  0  0  0  0  0  0  0  0
    5.8057   -1.3888    1.6560 H   0  0  0  0  0  0  0  0  0  0  0  0
   -2.8851    3.6290   -1.5643 H   0  0  0  0  0  0  0  0  0  0  0  0
   -0.6749    5.2937    1.7233 H   0  0  0  0  0  0  0  0  0  0  0  0
   -2.7342    5.2089    0.3424 H   0  0  0  0  0  0  0  0  0  0  0  0
   -2.9195    0.2964    2.1432 H   0  0  0  0  0  0  0  0  0  0  0  0
   -1.8625   -1.7430   -1.5374 H   0  0  0  0  0  0  0  0  0  0  0  0
   -5.1321   -0.7189    2.0427 H   0  0  0  0  0  0  0  0  0  0  0  0
   -4.0191   -2.7335   -1.6315 H   0  0  0  0  0  0  0  0  0  0  0  0
    8.8900   -2.5673    0.4043 H   0  0  0  0  0  0  0  0  0  0  0  0
  1 13  2  0  0  0  0
  2 14  2  0  0  0  0
  3 28  1  0  0  0  0
  3 47  1  0  0  0  0
  4 28  2  0  0  0  0
  5  9  1  0  0  0  0
  6  9  2  0  0  0  0
  7 10  1  0  0  0  0
  7 14  1  0  0  0  0
  7 32  1  0  0  0  0
  8 13  1  0  0  0  0
  8 18  1  0  0  0  0
  8 35  1  0  0  0  0
  9 27  1  0  0  0  0
 10 11  1  0  0  0  0
 10 13  1  0  0  0  0
 10 29  1  0  0  0  0
 11 12  1  0  0  0  0
 11 30  1  0  0  0  0
 11 31  1  0  0  0  0
 12 16  2  0  0  0  0
 12 17  1  0  0  0  0
 14 15  1  0  0  0  0
 15 19  1  0  0  0  0
 15 33  1  0  0  0  0
 15 34  1  0  0  0  0
 16 20  1  0  0  0  0
 16 36  1  0  0  0  0
 17 21  2  0  0  0  0
 17 37  1  0  0  0  0
 18 23  2  0  0  0  0
 18 24  1  0  0  0  0
 19 28  1  0  0  0  0
 19 38  1  0  0  0  0
 19 39  1  0  0  0  0
 20 22  2  0  0  0  0
 20 40  1  0  0  0  0
 21 22  1  0  0  0  0
 21 41  1  0  0  0  0
 22 42  1  0  0  0  0
 23 25  1  0  0  0  0
 23 43  1  0  0  0  0
 24 26  2  0  0  0  0
 24 44  1  0  0  0  0
 25 27  2  0  0  0  0
 25 45  1  0  0  0  0
 26 27  1  0  0  0  0
 26 46  1  0  0  0  0
M  CHG  2   5  -1   9   1
M  END
> <PUBCHEM_COMPOUND_CID>
102818

> <PUBCHEM_CONFORMER_RMSD>
1

> <PUBCHEM_CONFORMER_DIVERSEORDER>
1
126
65
121
127
80
92
124
53
9
45
8
115
28
27
57
61
107
71
44
89
82
3
87
69
36
77
117
94
110
108
2
48
76
55
42
66
29
35
62
58
25
128
85
68
37
78
54
74
46
50
130
120
39
114
14
18
13
7
16
91
97
6
22
105
113
26
30
102
99
5
90
56
41
93
112
52
101
129
88
81
109
49
73
17
123
23
83
40
111
122
4
63
103
100
96
21
98
106
34
43
19
10
20
95
59
79
70
125
104
24
31
38
72
33
116
32
75
47
51
67
86
15
119
84
60
118
11
64
12

> <PUBCHEM_MMFF94_PARTIAL_CHARGES>
40
1 -0.57
10 0.36
11 0.14
12 -0.14
13 0.57
14 0.57
15 0.06
16 -0.15
17 -0.15
18 0.12
19 0.06
2 -0.57
20 -0.15
21 -0.15
22 -0.15
23 -0.15
24 -0.15
25 -0.15
26 -0.15
27 0.13
28 0.66
3 -0.65
32 0.37
35 0.37
36 0.15
37 0.15
4 -0.57
40 0.15
41 0.15
42 0.15
43 0.15
44 0.15
45 0.15
46 0.15
47 0.5
5 -0.52
6 -0.52
7 -0.73
8 -0.55
9 0.91

> <PUBCHEM_EFFECTIVE_ROTOR_COUNT>
11

> <PUBCHEM_PHARMACOPHORE_FEATURES>
12
1 1 acceptor
1 2 acceptor
1 3 acceptor
1 4 acceptor
1 5 acceptor
1 5 anion
1 6 acceptor
1 7 donor
1 8 donor
3 3 4 28 anion
6 12 16 17 20 21 22 rings
6 18 23 24 25 26 27 rings

> <PUBCHEM_HEAVY_ATOM_COUNT>
28

> <PUBCHEM_ATOM_DEF_STEREO_COUNT>
0

> <PUBCHEM_ATOM_UDEF_STEREO_COUNT>
1

> <PUBCHEM_BOND_DEF_STEREO_COUNT>
0

> <PUBCHEM_BOND_UDEF_STEREO_COUNT>
0

> <PUBCHEM_ISOTOPIC_ATOM_COUNT>
0

> <PUBCHEM_COMPONENT_COUNT>
1

> <PUBCHEM_CACTVS_TAUTO_COUNT>
4

> <PUBCHEM_CONFORMER_ID>
000191A200000001

> <PUBCHEM_MMFF94_ENERGY>
73.0937

> <PUBCHEM_FEATURE_SELFOVERLAP>
61.039

> <PUBCHEM_SHAPE_FINGERPRINT>
10411042 1 18410011065500288221
11991303 11 17754732732587736828
12516196 113 18337389443525018722
12539745 222 18131070377788591618
12645989 146 18338796827389312799
12760667 363 18260269637844522890
12788726 201 18335717039368669028
13134695 92 18192434293243558069
13540713 5 18115890550326127084
13631057 29 18260546680852457290
13673619 4 18272370867700167058
14068700 675 18260548922556392948
14347332 77 18409453553560844404
14713325 29 18197213651161466596
14955137 171 18336832008114803491
15042514 8 18411137991741245628
15420108 30 17339555316763255172
15927050 60 17831578678194645307
16992752 21 18410304601494083974
1813 80 18341907328081519861
19301679 30 18338521833175580854
20554085 129 7853299666317693054
21304303 172 18412829054047568297
21424621 283 8790895085436338830
23559900 14 18120090847894556859
23845131 108 17692816982302217361
283562 15 18260828155470653890
345986 75 18041821961640189290
4073 2 18124873466209724526
437815 12 18334572469059772455
4409770 3 18264485084048105205
474 4 17546450441843089869
513202 73 18338238167860001042
5912855 24 18045213843934072194
5969126 39 18409444765620010734
59755656 520 17906165157994102428
77188 2 18338797922010114244

> <PUBCHEM_SHAPE_MULTIPOLES>
526.07
16.25
5.7
1.19
22.29
7.9
0.02
-26.81
2.97
-5.1
-0.24
-0.43
0.08
0.25

> <PUBCHEM_SHAPE_SELFOVERLAP>
1105.848

> <PUBCHEM_SHAPE_VOLUME>
293.2

> <PUBCHEM_COORDINATE_TYPE>
2
5
10

$$$$
