102960
  -OEChem-03292013323D

 30 30  0     1  0  0  0  0  0999 V2000
   -2.7063   -1.9201   -0.8282 O   0  0  0  0  0  0  0  0  0  0  0  0
   -1.1229    1.1906    1.5958 O   0  0  0  0  0  0  0  0  0  0  0  0
   -1.6340   -3.4558    0.4374 O   0  0  0  0  0  0  0  0  0  0  0  0
   -0.9756   -0.0102   -0.3839 N   0  0  0  0  0  0  0  0  0  0  0  0
    2.5827   -0.2829   -1.1035 N   0  0  0  0  0  0  0  0  0  0  0  0
   -2.5063    3.1691    0.2625 N   0  0  0  0  0  0  0  0  0  0  0  0
    3.3708    0.5995    0.7759 N   0  0  0  0  0  0  0  0  0  0  0  0
   -0.6086   -1.2771    0.2054 C   0  0  2  0  0  0  0  0  0  0  0  0
    0.7393   -1.7720   -0.3370 C   0  0  0  0  0  0  0  0  0  0  0  0
    1.8591   -0.7880   -0.0888 C   0  0  0  0  0  0  0  0  0  0  0  0
   -1.5902    2.3232   -0.4983 C   0  0  2  0  0  0  0  0  0  0  0  0
   -1.2051    1.1325    0.3706 C   0  0  0  0  0  0  0  0  0  0  0  0
   -1.6840   -2.3260   -0.0377 C   0  0  0  0  0  0  0  0  0  0  0  0
    2.3342   -0.2555    1.0547 C   0  0  0  0  0  0  0  0  0  0  0  0
   -0.3483    3.1128   -0.8929 C   0  0  0  0  0  0  0  0  0  0  0  0
    3.4951    0.5599   -0.5321 C   0  0  0  0  0  0  0  0  0  0  0  0
   -0.5507   -1.1511    1.2934 H   0  0  0  0  0  0  0  0  0  0  0  0
    0.6540   -1.9733   -1.4136 H   0  0  0  0  0  0  0  0  0  0  0  0
    1.0064   -2.7267    0.1341 H   0  0  0  0  0  0  0  0  0  0  0  0
   -1.0968    0.0248   -1.3920 H   0  0  0  0  0  0  0  0  0  0  0  0
   -2.1098    1.9731   -1.3969 H   0  0  0  0  0  0  0  0  0  0  0  0
    2.4827   -0.4768   -2.0915 H   0  0  0  0  0  0  0  0  0  0  0  0
    2.0050   -0.4237    2.0696 H   0  0  0  0  0  0  0  0  0  0  0  0
    0.3380    2.4867   -1.4740 H   0  0  0  0  0  0  0  0  0  0  0  0
    0.2023    3.4655   -0.0130 H   0  0  0  0  0  0  0  0  0  0  0  0
   -0.6095    3.9825   -1.5052 H   0  0  0  0  0  0  0  0  0  0  0  0
   -2.7800    3.9706   -0.3052 H   0  0  0  0  0  0  0  0  0  0  0  0
   -2.0260    3.5568    1.0744 H   0  0  0  0  0  0  0  0  0  0  0  0
    4.2152    1.1107   -1.1203 H   0  0  0  0  0  0  0  0  0  0  0  0
   -3.3724   -2.6283   -0.9591 H   0  0  0  0  0  0  0  0  0  0  0  0
  1 13  1  0  0  0  0
  1 30  1  0  0  0  0
  2 12  2  0  0  0  0
  3 13  2  0  0  0  0
  4  8  1  0  0  0  0
  4 12  1  0  0  0  0
  4 20  1  0  0  0  0
  5 10  1  0  0  0  0
  5 16  1  0  0  0  0
  5 22  1  0  0  0  0
  6 11  1  0  0  0  0
  6 27  1  0  0  0  0
  6 28  1  0  0  0  0
  7 14  1  0  0  0  0
  7 16  2  0  0  0  0
  8  9  1  0  0  0  0
  8 13  1  0  0  0  0
  8 17  1  0  0  0  0
  9 10  1  0  0  0  0
  9 18  1  0  0  0  0
  9 19  1  0  0  0  0
 10 14  2  0  0  0  0
 11 12  1  0  0  0  0
 11 15  1  0  0  0  0
 11 21  1  0  0  0  0
 14 23  1  0  0  0  0
 15 24  1  0  0  0  0
 15 25  1  0  0  0  0
 15 26  1  0  0  0  0
 16 29  1  0  0  0  0
M  END
> <PUBCHEM_COMPOUND_CID>
102960

> <PUBCHEM_CONFORMER_RMSD>
0.8

> <PUBCHEM_CONFORMER_DIVERSEORDER>
11
107
37
97
95
20
55
105
67
13
82
77
74
30
5
50
80
110
63
84
58
25
76
48
27
86
32
98
36
81
14
92
75
99
78
106
8
73
7
68
83
10
93
57
17
66
52
89
15
18
23
9
35
6
100
62
104
72
94
4
2
96
31
42
41
70
49
88
90
24
109
39
26
3
28
102
69
54
45
103
101
64
46
53
51
40
16
61
12
47
34
79
91
71
85
29
1
56
43
59
60
65
44
87
38
21
19
22
33
108

> <PUBCHEM_MMFF94_PARTIAL_CHARGES>
22
1 -0.65
10 -0.33
11 0.33
12 0.57
13 0.66
14 0.08
16 0.04
2 -0.57
20 0.37
22 0.27
23 0.15
27 0.36
28 0.36
29 0.15
3 -0.57
30 0.5
4 -0.73
5 0.03
6 -0.99
7 -0.57
8 0.36
9 0.18

> <PUBCHEM_EFFECTIVE_ROTOR_COUNT>
6

> <PUBCHEM_PHARMACOPHORE_FEATURES>
10
1 1 acceptor
1 2 acceptor
1 3 acceptor
1 4 donor
1 5 donor
1 6 cation
1 6 donor
3 1 3 13 anion
3 5 7 16 cation
5 5 7 10 14 16 rings

> <PUBCHEM_HEAVY_ATOM_COUNT>
16

> <PUBCHEM_ATOM_DEF_STEREO_COUNT>
0

> <PUBCHEM_ATOM_UDEF_STEREO_COUNT>
2

> <PUBCHEM_BOND_DEF_STEREO_COUNT>
0

> <PUBCHEM_BOND_UDEF_STEREO_COUNT>
0

> <PUBCHEM_ISOTOPIC_ATOM_COUNT>
0

> <PUBCHEM_COMPONENT_COUNT>
1

> <PUBCHEM_CACTVS_TAUTO_COUNT>
4

> <PUBCHEM_CONFORMER_ID>
000192300000000B

> <PUBCHEM_MMFF94_ENERGY>
16.9288

> <PUBCHEM_FEATURE_SELFOVERLAP>
50.806

> <PUBCHEM_SHAPE_FINGERPRINT>
1 1 17617657657287008439
14614273 12 18342738503032521874
14817 1 13022839890991714970
15490181 7 18050573941233037039
15775835 57 18124876750931453540
16945 1 18409447020119424171
17134986 127 17977388235232143444
17357779 13 17986378091435245575
20711985 344 18411410739312496035
21041028 32 17977678824731070267
21524375 3 18052818044312080847
22802520 49 18059310781213308526
23402539 116 18126274479698261854
23419403 2 17625787798645619025
23557571 272 18343023337106148788
23558518 356 18263358101334938635
2748010 2 18049177578608317741
3060560 45 17474947627912764903
31174 14 16970011168307188793
350125 39 18194972837494576227
5902787 121 17757826006689216114
7364860 26 17041756492194014685
81228 2 18411986887826999003

> <PUBCHEM_SHAPE_MULTIPOLES>
291.74
4.54
3.93
1.05
3.23
0.86
-0.17
-1.91
0.05
-4.06
0.44
0.16
-0.26
-0.16

> <PUBCHEM_SHAPE_SELFOVERLAP>
593.5

> <PUBCHEM_SHAPE_VOLUME>
171.2

> <PUBCHEM_COORDINATE_TYPE>
2
5
10

$$$$
