102929
  -OEChem-03292013323D

 42 41  0     1  0  0  0  0  0999 V2000
   -2.0230    1.7479    0.8174 S   0  0  0  0  0  0  0  0  0  0  0  0
    1.6713    0.5299   -2.0840 O   0  0  0  0  0  0  0  0  0  0  0  0
   -1.3653   -1.9592    0.6224 O   0  0  0  0  0  0  0  0  0  0  0  0
    4.8934   -1.0616    2.0547 O   0  0  0  0  0  0  0  0  0  0  0  0
    6.1976   -1.7577    0.3353 O   0  0  0  0  0  0  0  0  0  0  0  0
   -2.9790    3.7035   -0.6856 O   0  0  0  0  0  0  0  0  0  0  0  0
   -4.7352   -0.7314    0.6887 O   0  0  0  0  0  0  0  0  0  0  0  0
   -5.7881   -2.7405    0.7384 O   0  0  0  0  0  0  0  0  0  0  0  0
    0.4031   -0.1313   -0.2538 N   0  0  0  0  0  0  0  0  0  0  0  0
   -2.9113   -1.4597   -1.0336 N   0  0  0  0  0  0  0  0  0  0  0  0
    6.4988    0.8681   -0.4472 N   0  0  0  0  0  0  0  0  0  0  0  0
   -0.8796   -0.1481   -0.9181 C   0  0  2  0  0  0  0  0  0  0  0  0
    4.0865    0.5065   -0.6613 C   0  0  0  0  0  0  0  0  0  0  0  0
    2.7756    0.1334    0.0340 C   0  0  0  0  0  0  0  0  0  0  0  0
    5.2874    0.5030    0.2912 C   0  0  1  0  0  0  0  0  0  0  0  0
    1.5812    0.2102   -0.9018 C   0  0  0  0  0  0  0  0  0  0  0  0
   -1.5724    1.2160   -0.8667 C   0  0  0  0  0  0  0  0  0  0  0  0
   -1.7241   -1.2807   -0.3380 C   0  0  0  0  0  0  0  0  0  0  0  0
    5.5299   -0.8801    0.8681 C   0  0  0  0  0  0  0  0  0  0  0  0
   -3.8680   -2.4859   -0.6909 C   0  0  0  0  0  0  0  0  0  0  0  0
   -2.8381    3.2642    0.4492 C   0  0  0  0  0  0  0  0  0  0  0  0
   -4.8943   -2.0208    0.3099 C   0  0  0  0  0  0  0  0  0  0  0  0
   -3.3465    3.9743    1.6716 C   0  0  0  0  0  0  0  0  0  0  0  0
   -0.7000   -0.3962   -1.9728 H   0  0  0  0  0  0  0  0  0  0  0  0
    4.2590   -0.1956   -1.4886 H   0  0  0  0  0  0  0  0  0  0  0  0
    3.9833    1.5016   -1.1143 H   0  0  0  0  0  0  0  0  0  0  0  0
    2.8218   -0.8914    0.4188 H   0  0  0  0  0  0  0  0  0  0  0  0
    2.5938    0.8087    0.8783 H   0  0  0  0  0  0  0  0  0  0  0  0
    5.1451    1.2191    1.1081 H   0  0  0  0  0  0  0  0  0  0  0  0
    0.4331   -0.3602    0.7360 H   0  0  0  0  0  0  0  0  0  0  0  0
   -0.9120    1.9787   -1.2954 H   0  0  0  0  0  0  0  0  0  0  0  0
   -2.4852    1.1981   -1.4711 H   0  0  0  0  0  0  0  0  0  0  0  0
   -3.1232   -0.8659   -1.8294 H   0  0  0  0  0  0  0  0  0  0  0  0
    6.3807    1.7922   -0.8608 H   0  0  0  0  0  0  0  0  0  0  0  0
    7.2826    0.9463    0.2002 H   0  0  0  0  0  0  0  0  0  0  0  0
   -3.3396   -3.3482   -0.2736 H   0  0  0  0  0  0  0  0  0  0  0  0
   -4.3833   -2.7692   -1.6129 H   0  0  0  0  0  0  0  0  0  0  0  0
    5.0428   -1.9615    2.4155 H   0  0  0  0  0  0  0  0  0  0  0  0
   -4.0755    3.3513    2.1970 H   0  0  0  0  0  0  0  0  0  0  0  0
   -3.8418    4.9022    1.3696 H   0  0  0  0  0  0  0  0  0  0  0  0
   -2.5159    4.2286    2.3359 H   0  0  0  0  0  0  0  0  0  0  0  0
   -5.4146   -0.4528    1.3391 H   0  0  0  0  0  0  0  0  0  0  0  0
  1 17  1  0  0  0  0
  1 21  1  0  0  0  0
  2 16  2  0  0  0  0
  3 18  2  0  0  0  0
  4 19  1  0  0  0  0
  4 38  1  0  0  0  0
  5 19  2  0  0  0  0
  6 21  2  0  0  0  0
  7 22  1  0  0  0  0
  7 42  1  0  0  0  0
  8 22  2  0  0  0  0
  9 12  1  0  0  0  0
  9 16  1  0  0  0  0
  9 30  1  0  0  0  0
 10 18  1  0  0  0  0
 10 20  1  0  0  0  0
 10 33  1  0  0  0  0
 11 15  1  0  0  0  0
 11 34  1  0  0  0  0
 11 35  1  0  0  0  0
 12 17  1  0  0  0  0
 12 18  1  0  0  0  0
 12 24  1  0  0  0  0
 13 14  1  0  0  0  0
 13 15  1  0  0  0  0
 13 25  1  0  0  0  0
 13 26  1  0  0  0  0
 14 16  1  0  0  0  0
 14 27  1  0  0  0  0
 14 28  1  0  0  0  0
 15 19  1  0  0  0  0
 15 29  1  0  0  0  0
 17 31  1  0  0  0  0
 17 32  1  0  0  0  0
 20 22  1  0  0  0  0
 20 36  1  0  0  0  0
 20 37  1  0  0  0  0
 21 23  1  0  0  0  0
 23 39  1  0  0  0  0
 23 40  1  0  0  0  0
 23 41  1  0  0  0  0
M  END
> <PUBCHEM_COMPOUND_CID>
102929

> <PUBCHEM_CONFORMER_RMSD>
1

> <PUBCHEM_CONFORMER_DIVERSEORDER>
1
89
156
123
150
79
198
191
91
136
53
141
165
189
171
93
59
26
62
51
36
99
149
78
131
177
86
27
95
105
32
65
104
155
73
178
183
45
157
33
52
154
195
24
82
139
176
116
98
8
81
122
60
102
80
92
18
143
97
75
153
180
22
166
40
107
192
168
144
109
169
117
66
67
162
129
71
179
146
137
188
57
76
25
42
13
160
77
196
28
112
47
48
31
158
20
96
128
200
90
4
184
133
172
23
15
186
174
190
17
94
194
106
44
72
142
101
54
50
111
19
29
74
14
187
84
16
100
161
164
61
130
113
163
43
103
151
11
132
10
125
199
182
55
126
38
2
21
110
118
127
119
175
30
114
49
152
34
37
147
193
3
185
167
135
64
5
39
68
88
115
173
58
108
170
63
87
6
159
148
120
85
56
134
12
140
35
7
181
70
145
124
83
138
197
46
121
69
41
9

> <PUBCHEM_MMFF94_PARTIAL_CHARGES>
28
1 -0.37
10 -0.73
11 -0.99
12 0.36
14 0.06
15 0.33
16 0.57
17 0.23
18 0.57
19 0.66
2 -0.57
20 0.36
21 0.65
22 0.66
23 0.06
3 -0.57
30 0.37
33 0.37
34 0.36
35 0.36
38 0.5
4 -0.65
42 0.5
5 -0.57
6 -0.57
7 -0.65
8 -0.57
9 -0.73

> <PUBCHEM_EFFECTIVE_ROTOR_COUNT>
13

> <PUBCHEM_PHARMACOPHORE_FEATURES>
12
1 10 donor
1 11 cation
1 11 donor
1 2 acceptor
1 3 acceptor
1 4 acceptor
1 5 acceptor
1 7 acceptor
1 8 acceptor
1 9 donor
3 4 5 19 anion
3 7 8 22 anion

> <PUBCHEM_HEAVY_ATOM_COUNT>
23

> <PUBCHEM_ATOM_DEF_STEREO_COUNT>
0

> <PUBCHEM_ATOM_UDEF_STEREO_COUNT>
2

> <PUBCHEM_BOND_DEF_STEREO_COUNT>
0

> <PUBCHEM_BOND_UDEF_STEREO_COUNT>
0

> <PUBCHEM_ISOTOPIC_ATOM_COUNT>
0

> <PUBCHEM_COMPONENT_COUNT>
1

> <PUBCHEM_CACTVS_TAUTO_COUNT>
4

> <PUBCHEM_CONFORMER_ID>
0001921100000001

> <PUBCHEM_MMFF94_ENERGY>
30.0328

> <PUBCHEM_FEATURE_SELFOVERLAP>
61.017

> <PUBCHEM_SHAPE_FINGERPRINT>
12107183 9 18049719612661832178
12596602 18 18260827111909521984
12788726 201 18266757924589620685
12930653 34 18271527494203761439
13004483 165 18269275832261292629
13073987 5 18411412913509868528
13533116 47 18114744962045702974
13540713 4 17701839703441289054
13583140 156 17489009484558932566
14178342 30 18338803312319866286
15842332 3 17896342327232669388
17844677 252 18413110576558952540
19784866 240 17603585257076936342
21401589 2 17773322231803485129
22182313 1 17346050973703726036
23402539 116 18340484564620607191
23557571 272 17917445210902133724
25147074 1 18114761407249198292
283562 15 18410011040110558891
312423 11 18114468924487228172
4409770 3 18411129222377681605
497634 4 18187079559872825340
5104073 3 18338222792467587888
633830 44 12967129450032425564
7226269 152 18410292536609305999
9981440 41 17416675848092361477

> <PUBCHEM_SHAPE_MULTIPOLES>
421.15
14.63
3.93
1.39
19.53
3.62
0.08
-6.09
4.56
-9.07
1.16
0.49
0.25
-1.32

> <PUBCHEM_SHAPE_SELFOVERLAP>
812.182

> <PUBCHEM_SHAPE_VOLUME>
254.6

> <PUBCHEM_COORDINATE_TYPE>
2
5
10

$$$$
