10295883
  -OEChem-03292013303D

 54 55  0     0  0  0  0  0  0999 V2000
   -2.5697   -3.2635   -0.5828 S   0  0  0  0  0  0  0  0  0  0  0  0
    1.1520    4.0194   -1.9567 S   0  0  0  0  0  0  0  0  0  0  0  0
   -3.3264   -0.7601    2.3670 F   0  0  0  0  0  0  0  0  0  0  0  0
   -3.2283   -4.5426   -0.7713 O   0  0  0  0  0  0  0  0  0  0  0  0
   -1.7476   -2.6960   -1.6330 O   0  0  0  0  0  0  0  0  0  0  0  0
    0.5301    3.2012    0.5703 N   0  0  0  0  0  0  0  0  0  0  0  0
   -1.2436    3.6975   -0.8975 N   0  0  0  0  0  0  0  0  0  0  0  0
   -3.7393   -2.1249   -0.0334 N   0  0  0  0  0  0  0  0  0  0  0  0
    3.9885   -2.2037   -0.1664 C   0  0  0  0  0  0  0  0  0  0  0  0
    3.4297   -0.8065    0.1491 C   0  0  0  0  0  0  0  0  0  0  0  0
    3.0773   -2.9075   -1.1952 C   0  0  0  0  0  0  0  0  0  0  0  0
    4.0404   -3.0467    1.1263 C   0  0  0  0  0  0  0  0  0  0  0  0
    5.4164   -2.1871   -0.7576 C   0  0  0  0  0  0  0  0  0  0  0  0
    2.1673   -0.7147    0.6794 C   0  0  0  0  0  0  0  0  0  0  0  0
    4.2188    0.2849   -0.1138 C   0  0  0  0  0  0  0  0  0  0  0  0
    2.4326    1.6863    0.7125 C   0  0  0  0  0  0  0  0  0  0  0  0
    1.6603    0.5528    0.9658 C   0  0  0  0  0  0  0  0  0  0  0  0
    3.7119    1.5524    0.1728 C   0  0  0  0  0  0  0  0  0  0  0  0
    1.8905    3.0415    1.0181 C   0  0  0  0  0  0  0  0  0  0  0  0
   -2.2858    3.3950    0.0640 C   0  0  0  0  0  0  0  0  0  0  0  0
   -2.6692    1.9436    0.0390 C   0  0  0  0  0  0  0  0  0  0  0  0
    0.1204    3.6164   -0.6915 C   0  0  0  0  0  0  0  0  0  0  0  0
   -3.3762   -0.7444   -0.0070 C   0  0  0  0  0  0  0  0  0  0  0  0
   -2.8235    1.2528    1.2352 C   0  0  0  0  0  0  0  0  0  0  0  0
   -2.8646    1.3048   -1.1799 C   0  0  0  0  0  0  0  0  0  0  0  0
   -3.1783   -0.0960    1.2121 C   0  0  0  0  0  0  0  0  0  0  0  0
   -3.2193   -0.0439   -1.2030 C   0  0  0  0  0  0  0  0  0  0  0  0
   -1.5647   -3.4110    0.8776 C   0  0  0  0  0  0  0  0  0  0  0  0
    3.4777   -3.8907   -1.4693 H   0  0  0  0  0  0  0  0  0  0  0  0
    2.0641   -3.0729   -0.8126 H   0  0  0  0  0  0  0  0  0  0  0  0
    2.9894   -2.3161   -2.1143 H   0  0  0  0  0  0  0  0  0  0  0  0
    3.0466   -3.2164    1.5550 H   0  0  0  0  0  0  0  0  0  0  0  0
    4.4767   -4.0343    0.9358 H   0  0  0  0  0  0  0  0  0  0  0  0
    4.6508   -2.5557    1.8936 H   0  0  0  0  0  0  0  0  0  0  0  0
    5.7640   -3.2075   -0.9627 H   0  0  0  0  0  0  0  0  0  0  0  0
    5.4603   -1.6455   -1.7098 H   0  0  0  0  0  0  0  0  0  0  0  0
    6.1421   -1.7435   -0.0658 H   0  0  0  0  0  0  0  0  0  0  0  0
    1.5495   -1.5819    0.8860 H   0  0  0  0  0  0  0  0  0  0  0  0
    5.2165    0.2395   -0.5310 H   0  0  0  0  0  0  0  0  0  0  0  0
    0.6652    0.6332    1.3951 H   0  0  0  0  0  0  0  0  0  0  0  0
    4.3249    2.4270   -0.0284 H   0  0  0  0  0  0  0  0  0  0  0  0
    2.5141    3.8347    0.5930 H   0  0  0  0  0  0  0  0  0  0  0  0
    1.8912    3.1859    2.1049 H   0  0  0  0  0  0  0  0  0  0  0  0
   -0.1783    2.9394    1.2450 H   0  0  0  0  0  0  0  0  0  0  0  0
   -1.9861    3.7307    1.0616 H   0  0  0  0  0  0  0  0  0  0  0  0
   -3.1615    3.9913   -0.2187 H   0  0  0  0  0  0  0  0  0  0  0  0
   -1.5456    3.9976   -1.8197 H   0  0  0  0  0  0  0  0  0  0  0  0
   -2.6714    1.7461    2.1909 H   0  0  0  0  0  0  0  0  0  0  0  0
   -2.7606    1.8361   -2.1218 H   0  0  0  0  0  0  0  0  0  0  0  0
   -3.3847   -0.5309   -2.1605 H   0  0  0  0  0  0  0  0  0  0  0  0
   -4.2880   -2.4245    0.7839 H   0  0  0  0  0  0  0  0  0  0  0  0
   -0.8007   -4.1675    0.6841 H   0  0  0  0  0  0  0  0  0  0  0  0
   -2.1932   -3.7264    1.7124 H   0  0  0  0  0  0  0  0  0  0  0  0
   -1.0855   -2.4528    1.0847 H   0  0  0  0  0  0  0  0  0  0  0  0
  1  4  2  0  0  0  0
  1  5  2  0  0  0  0
  1  8  1  0  0  0  0
  1 28  1  0  0  0  0
  2 22  2  0  0  0  0
  3 26  1  0  0  0  0
  6 19  1  0  0  0  0
  6 22  1  0  0  0  0
  6 44  1  0  0  0  0
  7 20  1  0  0  0  0
  7 22  1  0  0  0  0
  7 47  1  0  0  0  0
  8 23  1  0  0  0  0
  8 51  1  0  0  0  0
  9 10  1  0  0  0  0
  9 11  1  0  0  0  0
  9 12  1  0  0  0  0
  9 13  1  0  0  0  0
 10 14  2  0  0  0  0
 10 15  1  0  0  0  0
 11 29  1  0  0  0  0
 11 30  1  0  0  0  0
 11 31  1  0  0  0  0
 12 32  1  0  0  0  0
 12 33  1  0  0  0  0
 12 34  1  0  0  0  0
 13 35  1  0  0  0  0
 13 36  1  0  0  0  0
 13 37  1  0  0  0  0
 14 17  1  0  0  0  0
 14 38  1  0  0  0  0
 15 18  2  0  0  0  0
 15 39  1  0  0  0  0
 16 17  2  0  0  0  0
 16 18  1  0  0  0  0
 16 19  1  0  0  0  0
 17 40  1  0  0  0  0
 18 41  1  0  0  0  0
 19 42  1  0  0  0  0
 19 43  1  0  0  0  0
 20 21  1  0  0  0  0
 20 45  1  0  0  0  0
 20 46  1  0  0  0  0
 21 24  2  0  0  0  0
 21 25  1  0  0  0  0
 23 26  2  0  0  0  0
 23 27  1  0  0  0  0
 24 26  1  0  0  0  0
 24 48  1  0  0  0  0
 25 27  2  0  0  0  0
 25 49  1  0  0  0  0
 27 50  1  0  0  0  0
 28 52  1  0  0  0  0
 28 53  1  0  0  0  0
 28 54  1  0  0  0  0
M  END
> <PUBCHEM_COMPOUND_CID>
10295883

> <PUBCHEM_CONFORMER_RMSD>
1.2

> <PUBCHEM_CONFORMER_DIVERSEORDER>
3
79
42
107
48
106
56
74
38
15
102
19
70
111
11
92
100
71
12
30
65
31
101
34
98
87
24
40
83
88
63
33
66
16
105
37
13
91
51
113
85
68
120
64
21
45
76
54
62
47
46
49
4
99
5
121
82
118
94
81
44
78
72
23
114
116
32
18
69
7
28
108
58
50
75
22
2
25
59
122
73
112
60
104
20
86
110
115
96
93
52
39
9
17
41
10
84
61
80
95
36
6
77
27
119
55
35
57
14
103
43
109
97
1
89
90
117
29
67
53
26
8

> <PUBCHEM_MMFF94_PARTIAL_CHARGES>
35
1 1.33
10 -0.14
14 -0.15
15 -0.15
16 -0.14
17 -0.15
18 -0.15
19 0.44
2 -0.38
20 0.44
21 -0.14
22 0.5
23 0.2
24 -0.15
25 -0.15
26 0.19
27 -0.15
28 0.11
3 -0.19
38 0.15
39 0.15
4 -0.65
40 0.15
41 0.15
44 0.37
47 0.37
48 0.15
49 0.15
5 -0.65
50 0.15
51 0.42
6 -0.73
7 -0.73
8 -0.76
9 0.14

> <PUBCHEM_EFFECTIVE_ROTOR_COUNT>
9

> <PUBCHEM_PHARMACOPHORE_FEATURES>
9
1 2 acceptor
1 4 acceptor
1 5 acceptor
1 6 donor
1 7 donor
1 8 donor
4 9 11 12 13 hydrophobe
6 10 14 15 16 17 18 rings
6 21 23 24 25 26 27 rings

> <PUBCHEM_HEAVY_ATOM_COUNT>
28

> <PUBCHEM_ATOM_DEF_STEREO_COUNT>
0

> <PUBCHEM_ATOM_UDEF_STEREO_COUNT>
0

> <PUBCHEM_BOND_DEF_STEREO_COUNT>
0

> <PUBCHEM_BOND_UDEF_STEREO_COUNT>
0

> <PUBCHEM_ISOTOPIC_ATOM_COUNT>
0

> <PUBCHEM_COMPONENT_COUNT>
1

> <PUBCHEM_CACTVS_TAUTO_COUNT>
3

> <PUBCHEM_CONFORMER_ID>
009D1A4B00000003

> <PUBCHEM_MMFF94_ENERGY>
77.4796

> <PUBCHEM_FEATURE_SELFOVERLAP>
45.728

> <PUBCHEM_SHAPE_FINGERPRINT>
107951 10 17462295625401788993
10928967 22 18337967709353059626
11014199 57 18339922735384812798
11552529 35 18059014011541396155
11756154 67 18411707586367867463
12633257 1 18130797702592980963
12712778 12 17902205855477400394
13122387 1 18411698746950177550
13383661 66 16321225133585960478
13402501 40 17981887436744599933
1361 2 17114933951684205143
14251757 5 18195535792270381862
14279260 333 17463417110362450458
14659021 117 18266437855226685928
14725015 67 18050831239912321261
14863182 85 17832984227854871256
17809404 112 18192688228415304149
19930381 70 17834105729809817011
20764821 26 17331396467806145878
20775438 99 17550054503240042055
20775530 9 18412822507910364288
21315764 371 17264416925583145785
23379529 103 18270125596036188174
3027735 51 17619616995840837045
325973 47 17042608609347900374
3298306 158 17256241549549832669
3737641 26 18411147956460952664
463206 1 18412268307301242864
508706 21 18198342844881334631
5265222 85 17905335031110468716
5309563 4 18051690246145763999
56633871 153 18340777043572509883
6287921 2 18122350339266252752

> <PUBCHEM_SHAPE_MULTIPOLES>
549.97
9.3
6.61
1.54
6.79
0.04
-0.02
-6.72
-0.02
-2.09
-2.06
-0.59
0.14
0.09

> <PUBCHEM_SHAPE_SELFOVERLAP>
1123.595

> <PUBCHEM_SHAPE_VOLUME>
324.7

> <PUBCHEM_COORDINATE_TYPE>
2
5
10

$$$$
