10293154
  -OEChem-03292013303D

 43 46  0     0  0  0  0  0  0999 V2000
   -4.2292    1.0765    1.7449 S   0  0  0  0  0  0  0  0  0  0  0  0
    1.5890    2.9076   -0.7787 O   0  0  0  0  0  0  0  0  0  0  0  0
   -1.0231   -3.2567    0.7525 O   0  0  0  0  0  0  0  0  0  0  0  0
   -2.5908   -1.9615   -1.4479 O   0  0  0  0  0  0  0  0  0  0  0  0
    1.9220   -0.2295   -1.0432 N   0  0  0  0  0  0  0  0  0  0  0  0
    1.8900    3.9364    0.1055 N   0  0  0  0  0  0  0  0  0  0  0  0
   -2.6631   -0.7081    0.5621 N   0  0  0  0  0  0  0  0  0  0  0  0
   -5.6432    1.6266    1.0662 N   0  0  0  0  0  0  0  0  0  0  0  0
    2.6349   -1.2015   -0.3780 C   0  0  0  0  0  0  0  0  0  0  0  0
    1.7072   -2.0989    0.1553 C   0  0  0  0  0  0  0  0  0  0  0  0
    0.4146   -1.6314   -0.2129 C   0  0  0  0  0  0  0  0  0  0  0  0
    2.4930    0.9006   -1.7439 C   0  0  0  0  0  0  0  0  0  0  0  0
    0.5795   -0.4807   -0.9489 C   0  0  0  0  0  0  0  0  0  0  0  0
    4.0158   -1.3535   -0.2096 C   0  0  0  0  0  0  0  0  0  0  0  0
    2.1784   -3.2028    0.8934 C   0  0  0  0  0  0  0  0  0  0  0  0
    2.6456    2.0815   -0.8257 C   0  0  0  0  0  0  0  0  0  0  0  0
   -0.8601   -2.2128    0.0987 C   0  0  0  0  0  0  0  0  0  0  0  0
    4.4598   -2.4559    0.5262 C   0  0  0  0  0  0  0  0  0  0  0  0
    3.5571   -3.3675    1.0701 C   0  0  0  0  0  0  0  0  0  0  0  0
    3.6454    2.4913   -0.0244 C   0  0  0  0  0  0  0  0  0  0  0  0
   -2.1663   -1.6017   -0.3627 C   0  0  0  0  0  0  0  0  0  0  0  0
    3.1230    3.6662    0.5432 C   0  0  0  0  0  0  0  0  0  0  0  0
    3.7701    4.5654    1.5123 C   0  0  0  0  0  0  0  0  0  0  0  0
   -3.8568    0.0430    0.4611 C   0  0  0  0  0  0  0  0  0  0  0  0
   -4.7927    0.0941   -0.5033 C   0  0  0  0  0  0  0  0  0  0  0  0
   -5.8001    1.0201   -0.1081 C   0  0  0  0  0  0  0  0  0  0  0  0
   -7.0000    1.3534   -0.9040 C   0  0  0  0  0  0  0  0  0  0  0  0
    1.8323    1.1480   -2.5832 H   0  0  0  0  0  0  0  0  0  0  0  0
    3.4576    0.6062   -2.1697 H   0  0  0  0  0  0  0  0  0  0  0  0
   -0.1407    0.1813   -1.4122 H   0  0  0  0  0  0  0  0  0  0  0  0
    4.7281   -0.6505   -0.6272 H   0  0  0  0  0  0  0  0  0  0  0  0
    1.4935   -3.9257    1.3263 H   0  0  0  0  0  0  0  0  0  0  0  0
    5.5263   -2.6032    0.6760 H   0  0  0  0  0  0  0  0  0  0  0  0
    3.9264   -4.2170    1.6386 H   0  0  0  0  0  0  0  0  0  0  0  0
    4.6078    2.0297    0.1382 H   0  0  0  0  0  0  0  0  0  0  0  0
   -2.1393   -0.5473    1.4188 H   0  0  0  0  0  0  0  0  0  0  0  0
    3.8680    5.5745    1.0989 H   0  0  0  0  0  0  0  0  0  0  0  0
    3.1840    4.6267    2.4351 H   0  0  0  0  0  0  0  0  0  0  0  0
    4.7727    4.2125    1.7753 H   0  0  0  0  0  0  0  0  0  0  0  0
   -4.7913   -0.4681   -1.4272 H   0  0  0  0  0  0  0  0  0  0  0  0
   -7.0235    0.7970   -1.8467 H   0  0  0  0  0  0  0  0  0  0  0  0
   -7.9119    1.1091   -0.3490 H   0  0  0  0  0  0  0  0  0  0  0  0
   -7.0189    2.4213   -1.1458 H   0  0  0  0  0  0  0  0  0  0  0  0
  1  8  1  0  0  0  0
  1 24  1  0  0  0  0
  2  6  1  0  0  0  0
  2 16  1  0  0  0  0
  3 17  2  0  0  0  0
  4 21  2  0  0  0  0
  5  9  1  0  0  0  0
  5 12  1  0  0  0  0
  5 13  1  0  0  0  0
  6 22  2  0  0  0  0
  7 21  1  0  0  0  0
  7 24  1  0  0  0  0
  7 36  1  0  0  0  0
  8 26  2  0  0  0  0
  9 10  1  0  0  0  0
  9 14  2  0  0  0  0
 10 11  1  0  0  0  0
 10 15  2  0  0  0  0
 11 13  2  0  0  0  0
 11 17  1  0  0  0  0
 12 16  1  0  0  0  0
 12 28  1  0  0  0  0
 12 29  1  0  0  0  0
 13 30  1  0  0  0  0
 14 18  1  0  0  0  0
 14 31  1  0  0  0  0
 15 19  1  0  0  0  0
 15 32  1  0  0  0  0
 16 20  2  0  0  0  0
 17 21  1  0  0  0  0
 18 19  2  0  0  0  0
 18 33  1  0  0  0  0
 19 34  1  0  0  0  0
 20 22  1  0  0  0  0
 20 35  1  0  0  0  0
 22 23  1  0  0  0  0
 23 37  1  0  0  0  0
 23 38  1  0  0  0  0
 23 39  1  0  0  0  0
 24 25  2  0  0  0  0
 25 26  1  0  0  0  0
 25 40  1  0  0  0  0
 26 27  1  0  0  0  0
 27 41  1  0  0  0  0
 27 42  1  0  0  0  0
 27 43  1  0  0  0  0
M  END
> <PUBCHEM_COMPOUND_CID>
10293154

> <PUBCHEM_CONFORMER_RMSD>
0.8

> <PUBCHEM_CONFORMER_DIVERSEORDER>
1
369
426
348
25
442
277
300
107
252
268
109
387
242
267
205
445
275
201
292
240
448
37
231
381
364
184
178
446
179
376
124
115
439
172
138
312
425
130
327
375
373
189
239
273
385
185
432
62
320
8
204
151
61
450
313
233
243
165
324
270
427
398
315
19
217
274
255
314
59
122
343
206
456
211
200
220
451
256
449
196
219
393
133
346
87
429
85
249
258
321
27
120
68
180
431
392
70
362
149
50
95
357
347
304
372
250
306
349
295
297
405
215
466
224
443
326
264
386
123
190
419
58
311
340
54
7
335
114
259
403
81
394
435
137
468
294
47
296
415
281
401
460
465
342
359
65
453
52
414
462
79
73
410
366
203
57
395
424
86
160
135
360
367
253
396
148
440
458
261
338
436
271
168
74
147
455
238
39
407
91
433
341
389
193
382
30
423
136
247
402
452
197
48
336
176
333
406
90
444
40
141
363
430
75
42
94
41
104
257
132
289
15
241
288
351
199
171
31
390
319
127
380
108
88
280
384
212
420
51
463
117
322
291
163
308
177
254
67
248
345
36
428
329
105
96
379
159
55
26
397
235
167
316
83
469
391
45
22
236
344
156
89
98
421
216
82
309
276
331
208
56
303
251
210
302
263
121
227
173
44
305
285
154
356
339
23
21
353
218
29
350
237
202
186
318
28
354
284
198
92
110
279
434
192
43
195
20
287
371
207
447
221
169
119
49
99
416
310
158
467
317
214
226
66
361
118
232
145
383
399
139
13
142
262
246
111
299
266
301
269
187
332
72
409
412
183
12
459
6
78
234
290
71
93
84
181
370
260
170
411
374
188
153
228
422
126
2
278
125
157
272
408
106
144
225
334
413
14
368
283
4
286
140
355
400
337
307
457
113
358
24
46
222
155
388
101
53
461
418
209
161
298
97
174
191
16
112
60
5
330
417
143
164
464
162
325
245
365
244
282
230
63
100
166
69
213
441
146
175
223
323
129
438
404
128
76
378
131
293
265
229
328
116
3
437
35
150
9
182
352
134
64
18
17
152
454
194
80
11
10
103
377
102
77
38
34
33
32

> <PUBCHEM_MMFF94_PARTIAL_CHARGES>
34
1 0.18
11 -0.09
12 0.44
13 -0.3
14 -0.15
15 -0.15
16 -0.04
17 0.66
18 -0.15
19 -0.15
2 -0.02
20 -0.15
21 0.63
22 0.11
23 0.18
24 0.1
25 -0.15
26 0.11
27 0.18
3 -0.57
30 0.15
31 0.15
32 0.15
33 0.15
34 0.15
35 0.15
36 0.37
4 -0.57
40 0.15
5 0.05
6 -0.41
7 -0.49
8 -0.51
9 -0.15

> <PUBCHEM_EFFECTIVE_ROTOR_COUNT>
6

> <PUBCHEM_PHARMACOPHORE_FEATURES>
10
1 3 acceptor
1 4 acceptor
1 5 cation
1 6 acceptor
1 7 donor
1 8 acceptor
5 1 8 24 25 26 rings
5 2 6 16 20 22 rings
5 5 9 10 11 13 rings
6 9 10 14 15 18 19 rings

> <PUBCHEM_HEAVY_ATOM_COUNT>
27

> <PUBCHEM_ATOM_DEF_STEREO_COUNT>
0

> <PUBCHEM_ATOM_UDEF_STEREO_COUNT>
0

> <PUBCHEM_BOND_DEF_STEREO_COUNT>
0

> <PUBCHEM_BOND_UDEF_STEREO_COUNT>
0

> <PUBCHEM_ISOTOPIC_ATOM_COUNT>
0

> <PUBCHEM_COMPONENT_COUNT>
1

> <PUBCHEM_CACTVS_TAUTO_COUNT>
4

> <PUBCHEM_CONFORMER_ID>
009D0FA200000001

> <PUBCHEM_MMFF94_ENERGY>
37.584

> <PUBCHEM_FEATURE_SELFOVERLAP>
50.84

> <PUBCHEM_SHAPE_FINGERPRINT>
10439779 11 18123749751745098585
1100329 8 18409732850388236346
11331351 85 18125153828204875958
11456790 92 17752773429391152833
12166972 35 18199463282069389307
12788726 201 17975422317781291734
12925494 130 18336263556645334139
13140716 1 18188771781335787130
13583140 156 18187942668095824227
13590594 115 18264210197297596608
13878862 14 18188192240002323341
13965767 371 17969488476310128548
14178342 30 17827083114514519102
14466204 15 18046907078564989547
14674994 50 14107460227493116948
14739800 52 18129934718956396801
14848178 96 18340494477226057149
14955137 171 18192158105007961850
15420108 30 18198891695316797038
15475509 8 17984442758140521614
15475509 84 18045497509201223736
15848702 68 18411142424284106060
17868525 174 18261673679643225412
17980427 23 18201139002157022678
17980427 26 18268136742799963590
18335252 114 18191859029961212591
21033648 144 18333444361824745743
21033648 29 17022616452040101007
21049683 118 17749097929422742435
21304253 13 18339636747025013714
21304303 172 17980484460503552522
21344244 78 17900522507064242834
21591340 35 18342465854187523712
21860390 5 18271818873343174559
22122407 14 18266754480854498897
23559900 14 18059307495188988806
345986 75 17462554019129455282
376196 1 17842564230176446468
5104073 3 18334023796005041363
5252454 2 18188503487185784645
57124632 79 18337390551489697520
5895379 119 17559413373831507248
6371009 1 18198901419006723601
67856867 119 18411415112211578415
79837 15 17686056506646992090
84936 182 18196094563151824754
9849439 229 18046915058493634197
9981440 41 17977097182378259795

> <PUBCHEM_SHAPE_MULTIPOLES>
521.96
12.58
5.56
1.35
23.67
4.52
-0.07
5.64
-1.08
-9.36
-2.13
0.18
0.41
-0.54

> <PUBCHEM_SHAPE_SELFOVERLAP>
1137.739

> <PUBCHEM_SHAPE_VOLUME>
288.5

> <PUBCHEM_COORDINATE_TYPE>
2
5
10

$$$$
