10309899
  -OEChem-03292013303D

 48 51  0     0  0  0  0  0  0999 V2000
   -2.7809   -2.5859   -0.3581 S   0  0  0  0  0  0  0  0  0  0  0  0
   -3.0103   -3.5497    0.6966 O   0  0  0  0  0  0  0  0  0  0  0  0
   -3.2086   -2.8488   -1.7153 O   0  0  0  0  0  0  0  0  0  0  0  0
    6.7986    2.3401   -0.4436 O   0  0  0  0  0  0  0  0  0  0  0  0
    8.8559    0.9463    0.5855 O   0  0  0  0  0  0  0  0  0  0  0  0
   -1.1224   -2.1570   -0.3717 N   0  0  0  0  0  0  0  0  0  0  0  0
    1.4201   -0.9187   -0.1578 N   0  0  0  0  0  0  0  0  0  0  0  0
    3.5492   -0.8340    0.8584 N   0  0  0  0  0  0  0  0  0  0  0  0
    3.0427    0.5444   -1.0523 N   0  0  0  0  0  0  0  0  0  0  0  0
    7.5605    0.4097    0.5596 N   0  0  0  0  0  0  0  0  0  0  0  0
   -0.7565   -1.0477   -1.2973 C   0  0  0  0  0  0  0  0  0  0  0  0
   -0.5019   -1.9606    0.9687 C   0  0  0  0  0  0  0  0  0  0  0  0
    0.7592   -1.0072   -1.4678 C   0  0  0  0  0  0  0  0  0  0  0  0
    1.0179   -1.9271    0.8295 C   0  0  0  0  0  0  0  0  0  0  0  0
   -3.4913   -1.0513    0.1485 C   0  0  0  0  0  0  0  0  0  0  0  0
    2.7133   -0.3852   -0.1159 C   0  0  0  0  0  0  0  0  0  0  0  0
   -3.8605   -0.1247   -0.8132 C   0  0  0  0  0  0  0  0  0  0  0  0
   -3.6668   -0.7999    1.4962 C   0  0  0  0  0  0  0  0  0  0  0  0
   -4.4262    1.1011   -0.4264 C   0  0  0  0  0  0  0  0  0  0  0  0
   -4.6129    1.3738    0.9497 C   0  0  0  0  0  0  0  0  0  0  0  0
   -4.2278    0.4126    1.8985 C   0  0  0  0  0  0  0  0  0  0  0  0
   -4.8117    2.0620   -1.3753 C   0  0  0  0  0  0  0  0  0  0  0  0
   -5.1787    2.5997    1.3363 C   0  0  0  0  0  0  0  0  0  0  0  0
    4.7875   -0.2988    0.8694 C   0  0  0  0  0  0  0  0  0  0  0  0
    4.2968    1.0372   -0.9826 C   0  0  0  0  0  0  0  0  0  0  0  0
    5.2214    0.6492   -0.0347 C   0  0  0  0  0  0  0  0  0  0  0  0
   -5.3722    3.2747   -0.9734 C   0  0  0  0  0  0  0  0  0  0  0  0
   -5.5552    3.5430    0.3798 C   0  0  0  0  0  0  0  0  0  0  0  0
    6.5611    1.2027    0.0087 C   0  0  0  0  0  0  0  0  0  0  0  0
   -1.2159   -1.2011   -2.2789 H   0  0  0  0  0  0  0  0  0  0  0  0
   -1.0909   -0.0867   -0.8923 H   0  0  0  0  0  0  0  0  0  0  0  0
   -0.8459   -1.0187    1.4093 H   0  0  0  0  0  0  0  0  0  0  0  0
   -0.7703   -2.7814    1.6410 H   0  0  0  0  0  0  0  0  0  0  0  0
    1.1076   -1.9104   -1.9846 H   0  0  0  0  0  0  0  0  0  0  0  0
    0.9933   -0.1494   -2.1086 H   0  0  0  0  0  0  0  0  0  0  0  0
    1.4348   -1.7057    1.8193 H   0  0  0  0  0  0  0  0  0  0  0  0
    1.3937   -2.9096    0.5179 H   0  0  0  0  0  0  0  0  0  0  0  0
   -3.7159   -0.3340   -1.8706 H   0  0  0  0  0  0  0  0  0  0  0  0
   -3.3772   -1.5189    2.2563 H   0  0  0  0  0  0  0  0  0  0  0  0
   -4.3609    0.6013    2.9617 H   0  0  0  0  0  0  0  0  0  0  0  0
   -4.6778    1.8739   -2.4386 H   0  0  0  0  0  0  0  0  0  0  0  0
   -5.3312    2.8307    2.3885 H   0  0  0  0  0  0  0  0  0  0  0  0
    4.5328    1.7744   -1.7437 H   0  0  0  0  0  0  0  0  0  0  0  0
    5.4140   -0.6703    1.6735 H   0  0  0  0  0  0  0  0  0  0  0  0
   -5.6657    4.0095   -1.7174 H   0  0  0  0  0  0  0  0  0  0  0  0
   -5.9916    4.4873    0.6922 H   0  0  0  0  0  0  0  0  0  0  0  0
    7.4478   -0.5047    0.9814 H   0  0  0  0  0  0  0  0  0  0  0  0
    9.2341    0.5172   -0.2006 H   0  0  0  0  0  0  0  0  0  0  0  0
  1  2  2  0  0  0  0
  1  3  2  0  0  0  0
  1  6  1  0  0  0  0
  1 15  1  0  0  0  0
  4 29  2  0  0  0  0
  5 10  1  0  0  0  0
  5 48  1  0  0  0  0
  6 11  1  0  0  0  0
  6 12  1  0  0  0  0
  7 13  1  0  0  0  0
  7 14  1  0  0  0  0
  7 16  1  0  0  0  0
  8 16  2  0  0  0  0
  8 24  1  0  0  0  0
  9 16  1  0  0  0  0
  9 25  2  0  0  0  0
 10 29  1  0  0  0  0
 10 47  1  0  0  0  0
 11 13  1  0  0  0  0
 11 30  1  0  0  0  0
 11 31  1  0  0  0  0
 12 14  1  0  0  0  0
 12 32  1  0  0  0  0
 12 33  1  0  0  0  0
 13 34  1  0  0  0  0
 13 35  1  0  0  0  0
 14 36  1  0  0  0  0
 14 37  1  0  0  0  0
 15 17  2  0  0  0  0
 15 18  1  0  0  0  0
 17 19  1  0  0  0  0
 17 38  1  0  0  0  0
 18 21  2  0  0  0  0
 18 39  1  0  0  0  0
 19 20  1  0  0  0  0
 19 22  2  0  0  0  0
 20 21  1  0  0  0  0
 20 23  2  0  0  0  0
 21 40  1  0  0  0  0
 22 27  1  0  0  0  0
 22 41  1  0  0  0  0
 23 28  1  0  0  0  0
 23 42  1  0  0  0  0
 24 26  2  0  0  0  0
 24 44  1  0  0  0  0
 25 26  1  0  0  0  0
 25 43  1  0  0  0  0
 26 29  1  0  0  0  0
 27 28  2  0  0  0  0
 27 45  1  0  0  0  0
 28 46  1  0  0  0  0
M  END
> <PUBCHEM_COMPOUND_CID>
10309899

> <PUBCHEM_CONFORMER_RMSD>
0.8

> <PUBCHEM_CONFORMER_DIVERSEORDER>
1
68
15
41
88
16
86
45
52
22
42
74
73
67
37
70
10
35
84
2
83
82
79
87
20
69
44
13
7
60
31
75
77
53
21
27
47
59
55
34
66
29
58
32
51
38
46
14
63
49
85
71
12
19
81
8
89
5
30
24
39
62
36
61
25
6
18
90
72
48
17
80
64
4
26
50
23
33
57
78
65
3
76
56
28
54
11
43
9
40

> <PUBCHEM_MMFF94_PARTIAL_CHARGES>
38
1 1.45
10 -0.39
11 0.36
12 0.36
13 0.37
14 0.37
15 -0.01
16 0.72
17 -0.15
18 -0.15
2 -0.65
21 -0.15
22 -0.15
23 -0.15
24 0.16
25 0.16
26 0.09
27 -0.15
28 -0.15
29 0.54
3 -0.65
38 0.15
39 0.15
4 -0.57
40 0.15
41 0.15
42 0.15
43 0.15
44 0.15
45 0.15
46 0.15
47 0.37
48 0.4
5 -0.44
6 -0.85
7 -0.84
8 -0.62
9 -0.62

> <PUBCHEM_EFFECTIVE_ROTOR_COUNT>
6.2

> <PUBCHEM_PHARMACOPHORE_FEATURES>
10
1 10 donor
1 2 acceptor
1 3 acceptor
1 4 acceptor
1 9 acceptor
4 7 8 9 16 cation
6 15 17 18 19 20 21 rings
6 19 20 22 23 27 28 rings
6 6 7 11 12 13 14 rings
6 8 9 16 24 25 26 rings

> <PUBCHEM_HEAVY_ATOM_COUNT>
29

> <PUBCHEM_ATOM_DEF_STEREO_COUNT>
0

> <PUBCHEM_ATOM_UDEF_STEREO_COUNT>
0

> <PUBCHEM_BOND_DEF_STEREO_COUNT>
0

> <PUBCHEM_BOND_UDEF_STEREO_COUNT>
0

> <PUBCHEM_ISOTOPIC_ATOM_COUNT>
0

> <PUBCHEM_COMPONENT_COUNT>
1

> <PUBCHEM_CACTVS_TAUTO_COUNT>
3

> <PUBCHEM_CONFORMER_ID>
009D510B00000001

> <PUBCHEM_MMFF94_ENERGY>
80.2373

> <PUBCHEM_FEATURE_SELFOVERLAP>
50.792

> <PUBCHEM_SHAPE_FINGERPRINT>
10369192 42 17774454815295845411
10391435 84 9367064411655467054
105312 117 17917715695015245031
10554248 39 16128388077856068036
10580692 12 18410009919619934346
10928967 22 10954042389334469945
11135609 201 18199757956013565209
11475781 23 18202007612575162028
11607047 191 13047318907837444863
11720765 8 17193210967667470103
12107183 9 18117265970183389138
12422481 6 17240765025698250095
12895837 130 18410577297035901821
12975358 362 18047494243909555533
13103583 49 12613332897735301261
14068700 675 18122054567140642623
14202776 33 18057042630095014150
14211702 104 8286211569386757248
14251764 75 18196379109315463177
14294032 229 18202283615874553735
14950920 106 16009328594417370837
14951699 99 18187937153025253308
15021287 119 16805322232147668732
15163728 17 18129667375123677327
15183329 4 13686299059015553836
15484559 13 14320261885122412242
15510800 12 11169911671625918473
15513586 35 17901127496447830149
15803439 3 16486964051994601013
16120349 189 18336260125283274709
16992828 155 18334287648436037965
17780758 139 12901543525326517439
18927931 339 11458419146224538955
19438510 23 18335988550032082193
19958102 18 12895063024998827340
20775438 99 9506326329922424493
20982279 24 14852428941806029288
21033648 29 18264221231384857493
21054139 6 11167944663015190860
21130935 74 18261104228238843194
21302155 148 18334584529090874749
21307412 95 10663234694194104353
21401589 2 18338806611587907505
21756936 100 18412261744528196759
22288116 15 10592046877829110072
22393880 68 13182733685502338923
2260408 40 17095245783450407474
23379529 103 10950892275773003245
23522609 53 17459207299524485076
23569914 2 17341486978563471784
249057 25 17896323691395783302
270888 7 18268148665566282153
2748736 6 18339919299564106321
2838139 119 18272929453471073044
328310 18 17775568645706432105
392239 28 15574716915001862840
393628 194 18272093747394098665
4015057 19 12894784909066635842
4144715 1 18336557100581003194
44802255 64 17489308650569168606
484985 159 8718828687569463605
5104073 3 17749388144067309746
5372103 7 17824525393809849853
54039377 194 11023820713100575765
57724786 102 18122627146188694835
6034566 193 18200315395534462193
6086070 43 17060044957167875978
6327066 14 18339357458107535565
636775 72 18267018552539602688
6431902 208 9079115552971807177
7226269 152 18343303660720615368
7808743 9 18411981343403755059
7970288 3 9078528414353541777
999808 66 12973598929073782928

> <PUBCHEM_SHAPE_MULTIPOLES>
552.27
19.36
3.73
1.5
37.74
0.06
0.02
19.16
2.94
-6.44
-0.3
-1.54
-0.09
-0.47

> <PUBCHEM_SHAPE_SELFOVERLAP>
1188.984

> <PUBCHEM_SHAPE_VOLUME>
303.4

> <PUBCHEM_COORDINATE_TYPE>
2
5
10

$$$$
