10309114
  -OEChem-03292013303D

 48 50  0     0  0  0  0  0  0999 V2000
    5.3172   -0.3895   -1.0236 S   0  0  0  0  0  0  0  0  0  0  0  0
    5.8936    0.8509   -1.5042 O   0  0  0  0  0  0  0  0  0  0  0  0
    4.9701   -1.4530   -1.9467 O   0  0  0  0  0  0  0  0  0  0  0  0
   -1.0905    1.2105    0.6741 N   0  0  0  0  0  0  0  0  0  0  0  0
   -2.7903    1.9907   -0.5245 N   0  0  0  0  0  0  0  0  0  0  0  0
    3.9575   -0.0590   -0.0499 N   0  0  0  0  0  0  0  0  0  0  0  0
   -3.5773   -1.6089   -0.9150 N   0  0  0  0  0  0  0  0  0  0  0  0
   -4.8117    0.2149   -1.8397 N   0  0  0  0  0  0  0  0  0  0  0  0
    0.1028    1.2662    1.4887 C   0  0  0  0  0  0  0  0  0  0  0  0
   -1.7771    0.1004    0.2491 C   0  0  0  0  0  0  0  0  0  0  0  0
    1.3767    1.2407    0.6446 C   0  0  0  0  0  0  0  0  0  0  0  0
   -1.7339    2.3137    0.1867 C   0  0  0  0  0  0  0  0  0  0  0  0
    2.6254    1.2892    1.5293 C   0  0  0  0  0  0  0  0  0  0  0  0
   -2.8312    0.6168   -0.4957 C   0  0  0  0  0  0  0  0  0  0  0  0
   -1.5923   -1.2812    0.4335 C   0  0  0  0  0  0  0  0  0  0  0  0
   -1.2613    3.6882    0.4537 C   0  0  0  0  0  0  0  0  0  0  0  0
    3.9177    1.2003    0.7246 C   0  0  0  0  0  0  0  0  0  0  0  0
   -2.5522   -2.1032   -0.1907 C   0  0  0  0  0  0  0  0  0  0  0  0
   -3.7330   -0.2695   -1.0776 C   0  0  0  0  0  0  0  0  0  0  0  0
   -0.5265   -1.8105    1.1875 C   0  0  0  0  0  0  0  0  0  0  0  0
   -2.1472    4.7555   -0.1981 C   0  0  0  0  0  0  0  0  0  0  0  0
   -2.4020   -3.4769   -0.0299 C   0  0  0  0  0  0  0  0  0  0  0  0
   -0.4120   -3.1890    1.3234 C   0  0  0  0  0  0  0  0  0  0  0  0
   -1.3487   -4.0209    0.7158 C   0  0  0  0  0  0  0  0  0  0  0  0
    6.4264   -1.0764    0.1847 C   0  0  0  0  0  0  0  0  0  0  0  0
    0.0808    2.2071    2.0511 H   0  0  0  0  0  0  0  0  0  0  0  0
    0.0557    0.5193    2.2794 H   0  0  0  0  0  0  0  0  0  0  0  0
    1.3814    0.3347    0.0278 H   0  0  0  0  0  0  0  0  0  0  0  0
    1.3910    2.0873   -0.0522 H   0  0  0  0  0  0  0  0  0  0  0  0
    2.6290    2.2192    2.1100 H   0  0  0  0  0  0  0  0  0  0  0  0
    2.5899    0.4615    2.2490 H   0  0  0  0  0  0  0  0  0  0  0  0
   -1.2534    3.8797    1.5327 H   0  0  0  0  0  0  0  0  0  0  0  0
   -0.2393    3.8179    0.0820 H   0  0  0  0  0  0  0  0  0  0  0  0
    3.9932    2.0527    0.0415 H   0  0  0  0  0  0  0  0  0  0  0  0
    4.7670    1.2264    1.4148 H   0  0  0  0  0  0  0  0  0  0  0  0
    0.2594   -1.2332    1.6421 H   0  0  0  0  0  0  0  0  0  0  0  0
    3.5488   -0.8666    0.4391 H   0  0  0  0  0  0  0  0  0  0  0  0
   -2.1696    4.6391   -1.2870 H   0  0  0  0  0  0  0  0  0  0  0  0
   -1.7615    5.7545    0.0291 H   0  0  0  0  0  0  0  0  0  0  0  0
   -3.1763    4.6957    0.1723 H   0  0  0  0  0  0  0  0  0  0  0  0
   -3.1160   -4.1564   -0.4921 H   0  0  0  0  0  0  0  0  0  0  0  0
    0.4091   -3.6170    1.8905 H   0  0  0  0  0  0  0  0  0  0  0  0
   -1.2616   -5.0990    0.8175 H   0  0  0  0  0  0  0  0  0  0  0  0
   -5.4565   -0.4432   -2.2554 H   0  0  0  0  0  0  0  0  0  0  0  0
   -4.9395    1.2094   -1.9695 H   0  0  0  0  0  0  0  0  0  0  0  0
    5.9587   -1.9520    0.6388 H   0  0  0  0  0  0  0  0  0  0  0  0
    7.3430   -1.3723   -0.3303 H   0  0  0  0  0  0  0  0  0  0  0  0
    6.6543   -0.3183    0.9357 H   0  0  0  0  0  0  0  0  0  0  0  0
  1  2  2  0  0  0  0
  1  3  2  0  0  0  0
  1  6  1  0  0  0  0
  1 25  1  0  0  0  0
  4  9  1  0  0  0  0
  4 10  1  0  0  0  0
  4 12  1  0  0  0  0
  5 12  2  0  0  0  0
  5 14  1  0  0  0  0
  6 17  1  0  0  0  0
  6 37  1  0  0  0  0
  7 18  1  0  0  0  0
  7 19  2  0  0  0  0
  8 19  1  0  0  0  0
  8 44  1  0  0  0  0
  8 45  1  0  0  0  0
  9 11  1  0  0  0  0
  9 26  1  0  0  0  0
  9 27  1  0  0  0  0
 10 14  2  0  0  0  0
 10 15  1  0  0  0  0
 11 13  1  0  0  0  0
 11 28  1  0  0  0  0
 11 29  1  0  0  0  0
 12 16  1  0  0  0  0
 13 17  1  0  0  0  0
 13 30  1  0  0  0  0
 13 31  1  0  0  0  0
 14 19  1  0  0  0  0
 15 18  1  0  0  0  0
 15 20  2  0  0  0  0
 16 21  1  0  0  0  0
 16 32  1  0  0  0  0
 16 33  1  0  0  0  0
 17 34  1  0  0  0  0
 17 35  1  0  0  0  0
 18 22  2  0  0  0  0
 20 23  1  0  0  0  0
 20 36  1  0  0  0  0
 21 38  1  0  0  0  0
 21 39  1  0  0  0  0
 21 40  1  0  0  0  0
 22 24  1  0  0  0  0
 22 41  1  0  0  0  0
 23 24  2  0  0  0  0
 23 42  1  0  0  0  0
 24 43  1  0  0  0  0
 25 46  1  0  0  0  0
 25 47  1  0  0  0  0
 25 48  1  0  0  0  0
M  END
> <PUBCHEM_COMPOUND_CID>
10309114

> <PUBCHEM_CONFORMER_RMSD>
0.8

> <PUBCHEM_CONFORMER_DIVERSEORDER>
1
24
108
15
93
144
110
5
25
94
129
126
30
74
142
86
131
117
61
107
104
45
133
23
97
80
81
66
141
11
136
49
122
127
53
105
38
125
58
54
124
33
34
109
88
113
98
99
39
7
83
51
31
28
135
111
52
75
77
56
69
106
12
20
35
146
91
147
43
14
65
67
36
96
140
4
89
13
73
102
64
132
84
42
50
63
68
76
55
41
57
46
60
22
3
32
72
21
123
71
139
47
100
128
37
114
92
40
48
90
137
118
6
79
115
119
87
70
17
27
2
134
19
101
8
10
26
116
121
120
16
9
44
138
59
18
130
29
78
82
62
95
112
85
103
145
143

> <PUBCHEM_MMFF94_PARTIAL_CHARGES>
28
1 1.33
10 -0.15
12 0.01
14 0.23
16 0.18
17 0.36
18 0.31
19 0.41
2 -0.65
20 -0.15
22 -0.15
23 -0.15
24 -0.15
25 0.11
3 -0.65
36 0.15
37 0.42
4 0.05
41 0.15
42 0.15
43 0.15
44 0.4
45 0.4
5 -0.57
6 -0.91
7 -0.62
8 -0.9
9 0.26

> <PUBCHEM_EFFECTIVE_ROTOR_COUNT>
7

> <PUBCHEM_PHARMACOPHORE_FEATURES>
10
1 2 acceptor
1 21 hydrophobe
1 3 acceptor
1 6 donor
1 8 donor
3 4 5 12 cation
3 7 8 19 cation
5 4 5 10 12 14 rings
6 15 18 20 22 23 24 rings
6 7 10 14 15 18 19 rings

> <PUBCHEM_HEAVY_ATOM_COUNT>
25

> <PUBCHEM_ATOM_DEF_STEREO_COUNT>
0

> <PUBCHEM_ATOM_UDEF_STEREO_COUNT>
0

> <PUBCHEM_BOND_DEF_STEREO_COUNT>
0

> <PUBCHEM_BOND_UDEF_STEREO_COUNT>
0

> <PUBCHEM_ISOTOPIC_ATOM_COUNT>
0

> <PUBCHEM_COMPONENT_COUNT>
1

> <PUBCHEM_CACTVS_TAUTO_COUNT>
4

> <PUBCHEM_CONFORMER_ID>
009D4DFA00000001

> <PUBCHEM_MMFF94_ENERGY>
47.9894

> <PUBCHEM_FEATURE_SELFOVERLAP>
50.898

> <PUBCHEM_SHAPE_FINGERPRINT>
10190108 129 18339090298705638033
10319926 262 9727097338519615964
10693767 8 17841960499667052863
10730089 88 18342176695550827434
107951 10 18268998574510047597
11578080 2 15513557800615243773
12788726 201 18409722937402945664
13140716 1 18120062084709682587
13941206 138 18040713641209276866
14251740 79 18412827954203228544
14251757 5 18334863852583894660
14363568 33 17038690504167791130
14790565 3 18409439298676236977
14910302 57 18337379501145330708
14931854 50 18339073788012302782
14950920 106 12966861078932331348
14955137 171 18190470535732787001
15163728 17 17242998074048796093
15463212 79 18113902628796442272
15475509 8 18270676580427019959
17627616 140 18049166562434857450
18785283 64 17041766387999969617
19591789 44 18265313132615545051
19958102 18 18335127662418113524
20642791 178 17759512279441859251
20693207 138 18131349726572205240
21781051 124 18113335341000288587
22122407 14 15285643136064571668
22849339 104 18335143149786008590
22907989 373 18116453572786868428
23559900 14 18268982258367432240
23572383 38 18059294241790377078
4280585 95 18335132142491593792
474144 1 17824241732135518642
508706 21 18270695185977771158
574716 61 17168997836469990750
9709674 26 18269831085596409360
9862886 166 18412544345324136322

> <PUBCHEM_SHAPE_MULTIPOLES>
481.69
10.8
5.1
1.47
22.84
1.21
-0.27
-1.78
-6.54
-5.61
1.12
0.73
-0.22
0.87

> <PUBCHEM_SHAPE_SELFOVERLAP>
1013.239

> <PUBCHEM_SHAPE_VOLUME>
274.9

> <PUBCHEM_COORDINATE_TYPE>
2
5
10

$$$$
