10314546
  -OEChem-03292013303D

 45 46  0     1  0  0  0  0  0999 V2000
    1.5956   -0.8430   -0.3355 O   0  0  0  0  0  0  0  0  0  0  0  0
   -0.0112   -0.0312    1.1424 O   0  0  0  0  0  0  0  0  0  0  0  0
    2.8971    2.4316   -0.8429 O   0  0  0  0  0  0  0  0  0  0  0  0
    4.4545   -0.5976    0.4159 O   0  0  0  0  0  0  0  0  0  0  0  0
    1.4979    2.3109    1.5261 O   0  0  0  0  0  0  0  0  0  0  0  0
   -3.9012   -0.0072   -1.3447 O   0  0  0  0  0  0  0  0  0  0  0  0
   -3.2806    3.2108    0.9689 O   0  0  0  0  0  0  0  0  0  0  0  0
   -3.3064   -2.1185   -0.6473 O   0  0  0  0  0  0  0  0  0  0  0  0
    3.2816    1.4597    0.1265 C   0  0  2  0  0  0  0  0  0  0  0  0
    3.8066    0.2062   -0.5742 C   0  0  2  0  0  0  0  0  0  0  0  0
    2.0780    1.1172    1.0078 C   0  0  2  0  0  0  0  0  0  0  0  0
    2.6932   -0.6298   -1.2301 C   0  0  2  0  0  0  0  0  0  0  0  0
    1.0228    0.3357    0.2271 C   0  0  1  0  0  0  0  0  0  0  0  0
    2.2047   -0.0775   -2.5672 C   0  0  0  0  0  0  0  0  0  0  0  0
   -2.3463    1.2981   -0.1263 C   0  0  1  0  0  0  0  0  0  0  0  0
   -2.0492   -0.1546   -0.0203 C   0  0  0  0  0  0  0  0  0  0  0  0
   -0.9890   -0.7454    0.5345 C   0  0  0  0  0  0  0  0  0  0  0  0
   -3.2775    1.2869   -1.3244 C   0  0  0  0  0  0  0  0  0  0  0  0
   -3.0363    1.8239    1.1301 C   0  0  0  0  0  0  0  0  0  0  0  0
   -3.1241   -0.9155   -0.6863 C   0  0  0  0  0  0  0  0  0  0  0  0
   -0.8085   -2.1841    0.5270 C   0  0  0  0  0  0  0  0  0  0  0  0
    0.2294   -2.8448    1.0638 C   0  0  0  0  0  0  0  0  0  0  0  0
    0.3689   -4.3320    1.0292 C   0  0  0  0  0  0  0  0  0  0  0  0
    4.0646    1.9179    0.7422 H   0  0  0  0  0  0  0  0  0  0  0  0
    4.5575    0.4680   -1.3286 H   0  0  0  0  0  0  0  0  0  0  0  0
    2.4081    0.5160    1.8643 H   0  0  0  0  0  0  0  0  0  0  0  0
    3.0965   -1.6312   -1.4262 H   0  0  0  0  0  0  0  0  0  0  0  0
    0.5908    0.9658   -0.5592 H   0  0  0  0  0  0  0  0  0  0  0  0
    1.4444   -0.7433   -2.9904 H   0  0  0  0  0  0  0  0  0  0  0  0
    1.7340    0.9041   -2.4755 H   0  0  0  0  0  0  0  0  0  0  0  0
    3.0297    0.0029   -3.2817 H   0  0  0  0  0  0  0  0  0  0  0  0
   -1.4725    1.9158   -0.3559 H   0  0  0  0  0  0  0  0  0  0  0  0
    2.5355    3.1961   -0.3630 H   0  0  0  0  0  0  0  0  0  0  0  0
    5.1960   -0.0805    0.7746 H   0  0  0  0  0  0  0  0  0  0  0  0
    2.1900    2.7807    2.0221 H   0  0  0  0  0  0  0  0  0  0  0  0
   -4.0544    2.0563   -1.2802 H   0  0  0  0  0  0  0  0  0  0  0  0
   -2.7303    1.4088   -2.2669 H   0  0  0  0  0  0  0  0  0  0  0  0
   -2.4099    1.6879    2.0184 H   0  0  0  0  0  0  0  0  0  0  0  0
   -3.9951    1.3269    1.3138 H   0  0  0  0  0  0  0  0  0  0  0  0
   -1.4974   -2.8327    0.0122 H   0  0  0  0  0  0  0  0  0  0  0  0
    1.0051   -2.3216    1.6162 H   0  0  0  0  0  0  0  0  0  0  0  0
   -2.4209    3.6516    0.8588 H   0  0  0  0  0  0  0  0  0  0  0  0
   -0.4562   -4.8202    0.5013 H   0  0  0  0  0  0  0  0  0  0  0  0
    1.3022   -4.6046    0.5269 H   0  0  0  0  0  0  0  0  0  0  0  0
    0.4003   -4.7264    2.0496 H   0  0  0  0  0  0  0  0  0  0  0  0
  1 12  1  0  0  0  0
  1 13  1  0  0  0  0
  2 13  1  0  0  0  0
  2 17  1  0  0  0  0
  3  9  1  0  0  0  0
  3 33  1  0  0  0  0
  4 10  1  0  0  0  0
  4 34  1  0  0  0  0
  5 11  1  0  0  0  0
  5 35  1  0  0  0  0
  6 18  1  0  0  0  0
  6 20  1  0  0  0  0
  7 19  1  0  0  0  0
  7 42  1  0  0  0  0
  8 20  2  0  0  0  0
  9 10  1  0  0  0  0
  9 11  1  0  0  0  0
  9 24  1  0  0  0  0
 10 12  1  0  0  0  0
 10 25  1  0  0  0  0
 11 13  1  0  0  0  0
 11 26  1  0  0  0  0
 12 14  1  0  0  0  0
 12 27  1  0  0  0  0
 13 28  1  0  0  0  0
 14 29  1  0  0  0  0
 14 30  1  0  0  0  0
 14 31  1  0  0  0  0
 15 16  1  0  0  0  0
 15 18  1  0  0  0  0
 15 19  1  0  0  0  0
 15 32  1  0  0  0  0
 16 17  2  0  0  0  0
 16 20  1  0  0  0  0
 17 21  1  0  0  0  0
 18 36  1  0  0  0  0
 18 37  1  0  0  0  0
 19 38  1  0  0  0  0
 19 39  1  0  0  0  0
 21 22  2  0  0  0  0
 21 40  1  0  0  0  0
 22 23  1  0  0  0  0
 22 41  1  0  0  0  0
 23 43  1  0  0  0  0
 23 44  1  0  0  0  0
 23 45  1  0  0  0  0
M  END
> <PUBCHEM_COMPOUND_CID>
10314546

> <PUBCHEM_CONFORMER_RMSD>
0.8

> <PUBCHEM_CONFORMER_DIVERSEORDER>
1
9
22
10
17
13
19
21
20
14
12
11
2
8
15
16
6
7
4
3
5
18

> <PUBCHEM_MMFF94_PARTIAL_CHARGES>
28
1 -0.56
10 0.28
11 0.28
12 0.28
13 0.56
15 0.14
16 -0.12
17 0.08
18 0.28
19 0.28
2 -0.36
20 0.71
21 -0.15
22 -0.29
23 0.14
3 -0.68
33 0.4
34 0.4
35 0.4
4 -0.68
40 0.15
41 0.15
42 0.4
5 -0.68
6 -0.43
7 -0.68
8 -0.57
9 0.28

> <PUBCHEM_EFFECTIVE_ROTOR_COUNT>
5.8

> <PUBCHEM_PHARMACOPHORE_FEATURES>
14
1 1 acceptor
1 2 acceptor
1 23 hydrophobe
1 3 acceptor
1 3 donor
1 4 acceptor
1 4 donor
1 5 acceptor
1 5 donor
1 7 acceptor
1 7 donor
1 8 acceptor
5 6 15 16 18 20 rings
6 1 9 10 11 12 13 rings

> <PUBCHEM_HEAVY_ATOM_COUNT>
23

> <PUBCHEM_ATOM_DEF_STEREO_COUNT>
5

> <PUBCHEM_ATOM_UDEF_STEREO_COUNT>
1

> <PUBCHEM_BOND_DEF_STEREO_COUNT>
2

> <PUBCHEM_BOND_UDEF_STEREO_COUNT>
0

> <PUBCHEM_ISOTOPIC_ATOM_COUNT>
0

> <PUBCHEM_COMPONENT_COUNT>
1

> <PUBCHEM_CACTVS_TAUTO_COUNT>
1

> <PUBCHEM_CONFORMER_ID>
009D633200000001

> <PUBCHEM_MMFF94_ENERGY>
70.4586

> <PUBCHEM_FEATURE_SELFOVERLAP>
71.11

> <PUBCHEM_SHAPE_FINGERPRINT>
10165383 225 17899166873624712845
10366900 7 18055922244973684148
10498660 4 18187071867576231829
11370993 70 18334006229193323798
11582403 64 16982316150487819024
11640471 11 16879340323862980444
121448 382 18336820991634296531
12173636 292 18263666063643241841
12403260 363 18410284843985392126
12500047 106 18188208822987233310
12788726 201 17391911844290505354
13140716 1 18411140203591192792
133893 2 17460296773128348779
13464514 151 18268997479398797354
13583140 156 17022903496898681248
13681431 1 17610610917356328435
14181834 199 17825942633251936698
14955137 171 17402625047763502371
18186145 218 18410299090222958620
18981168 100 15142096567367571308
20465049 17 17840329739038661953
20510252 161 18191868036038406339
20600515 1 17613970290709535681
20671657 1 18121779426849770155
21524375 3 18040716952460022747
21756936 100 15142682586138557070
22907989 373 17902254503986295550
23419403 2 16980963914337032659
23557571 272 17831592233401334950
23558518 356 18342459287404008897
23559900 14 18342177735851012138
238 59 17630882905416450460
25 1 18339651022810249946
2748010 2 17192347245216648272
474 4 18334296418579387609
5262128 65 17846500343926990149
6442390 28 18191052108332425779
81228 2 17757281748486130363
84936 182 18338510837773888506
9709674 26 18269560610015314246
9925002 15 16825872860221749106

> <PUBCHEM_SHAPE_MULTIPOLES>
426.37
7.05
3.62
1.61
0.26
2.96
0.64
-3.41
1.88
-0.93
-1.78
0.27
-0.3
-0.53

> <PUBCHEM_SHAPE_SELFOVERLAP>
887.072

> <PUBCHEM_SHAPE_VOLUME>
241.4

> <PUBCHEM_COORDINATE_TYPE>
2
5
10

$$$$
