10317061
  -OEChem-03292013303D

 41 44  0     1  0  0  0  0  0999 V2000
   -0.8748    0.8244   -0.9945 O   0  0  0  0  0  0  0  0  0  0  0  0
    0.7830   -0.4083    3.1198 O   0  0  0  0  0  0  0  0  0  0  0  0
    0.5024   -2.4858   -0.9048 O   0  0  0  0  0  0  0  0  0  0  0  0
   -1.9270   -1.3514    2.7251 O   0  0  0  0  0  0  0  0  0  0  0  0
    0.2646   -0.9603   -2.6231 O   0  0  0  0  0  0  0  0  0  0  0  0
   -6.2456    0.7549    0.1050 O   0  0  0  0  0  0  0  0  0  0  0  0
    5.2909   -0.8167   -0.3872 O   0  0  0  0  0  0  0  0  0  0  0  0
    5.7105    1.9303   -0.3208 O   0  0  0  0  0  0  0  0  0  0  0  0
   -0.4424   -0.4046   -0.3834 C   0  0  2  0  0  0  0  0  0  0  0  0
   -1.6337   -1.0834    0.3342 C   0  0  2  0  0  0  0  0  0  0  0  0
    0.5870   -0.1721    0.7021 C   0  0  0  0  0  0  0  0  0  0  0  0
   -2.7291   -0.1584   -0.0268 C   0  0  0  0  0  0  0  0  0  0  0  0
   -1.2269   -1.0252    1.7785 C   0  0  0  0  0  0  0  0  0  0  0  0
   -2.2257    0.8922   -0.7763 C   0  0  0  0  0  0  0  0  0  0  0  0
    0.1465   -0.5140    1.9228 C   0  0  0  0  0  0  0  0  0  0  0  0
    0.1426   -1.2895   -1.4510 C   0  0  0  0  0  0  0  0  0  0  0  0
    1.9288    0.3747    0.4340 C   0  0  0  0  0  0  0  0  0  0  0  0
   -4.0767   -0.2265    0.2810 C   0  0  0  0  0  0  0  0  0  0  0  0
   -3.0346    1.9113   -1.2420 C   0  0  0  0  0  0  0  0  0  0  0  0
   -4.9140    0.7917   -0.1815 C   0  0  0  0  0  0  0  0  0  0  0  0
   -4.3957    1.8547   -0.9384 C   0  0  0  0  0  0  0  0  0  0  0  0
    2.9940   -0.4837    0.1457 C   0  0  0  0  0  0  0  0  0  0  0  0
    2.1454    1.7555    0.4664 C   0  0  0  0  0  0  0  0  0  0  0  0
    4.2641    0.0340   -0.1079 C   0  0  0  0  0  0  0  0  0  0  0  0
    3.4154    2.2733    0.2127 C   0  0  0  0  0  0  0  0  0  0  0  0
    4.4748    1.4124   -0.0745 C   0  0  0  0  0  0  0  0  0  0  0  0
    1.0762   -3.4296   -1.8149 C   0  0  0  0  0  0  0  0  0  0  0  0
   -1.8218   -2.1147    0.0222 H   0  0  0  0  0  0  0  0  0  0  0  0
   -4.4664   -1.0521    0.8678 H   0  0  0  0  0  0  0  0  0  0  0  0
   -2.6307    2.7313   -1.8253 H   0  0  0  0  0  0  0  0  0  0  0  0
   -5.0561    2.6423   -1.2923 H   0  0  0  0  0  0  0  0  0  0  0  0
    2.8479   -1.5610    0.1278 H   0  0  0  0  0  0  0  0  0  0  0  0
    1.3297    2.4396    0.6884 H   0  0  0  0  0  0  0  0  0  0  0  0
    1.6683   -0.0376    2.9661 H   0  0  0  0  0  0  0  0  0  0  0  0
    3.5656    3.3491    0.2419 H   0  0  0  0  0  0  0  0  0  0  0  0
    1.3284   -4.3330   -1.2532 H   0  0  0  0  0  0  0  0  0  0  0  0
    1.9916   -3.0230   -2.2554 H   0  0  0  0  0  0  0  0  0  0  0  0
    0.3540   -3.6900   -2.5944 H   0  0  0  0  0  0  0  0  0  0  0  0
   -6.4321   -0.0409    0.6322 H   0  0  0  0  0  0  0  0  0  0  0  0
    6.0941   -0.2881   -0.5359 H   0  0  0  0  0  0  0  0  0  0  0  0
    5.6666    2.8996   -0.2544 H   0  0  0  0  0  0  0  0  0  0  0  0
  1  9  1  0  0  0  0
  1 14  1  0  0  0  0
  2 15  1  0  0  0  0
  2 34  1  0  0  0  0
  3 16  1  0  0  0  0
  3 27  1  0  0  0  0
  4 13  2  0  0  0  0
  5 16  2  0  0  0  0
  6 20  1  0  0  0  0
  6 39  1  0  0  0  0
  7 24  1  0  0  0  0
  7 40  1  0  0  0  0
  8 26  1  0  0  0  0
  8 41  1  0  0  0  0
  9 10  1  0  0  0  0
  9 11  1  0  0  0  0
  9 16  1  0  0  0  0
 10 12  1  0  0  0  0
 10 13  1  0  0  0  0
 10 28  1  0  0  0  0
 11 15  2  0  0  0  0
 11 17  1  0  0  0  0
 12 14  2  0  0  0  0
 12 18  1  0  0  0  0
 13 15  1  0  0  0  0
 14 19  1  0  0  0  0
 17 22  2  0  0  0  0
 17 23  1  0  0  0  0
 18 20  2  0  0  0  0
 18 29  1  0  0  0  0
 19 21  2  0  0  0  0
 19 30  1  0  0  0  0
 20 21  1  0  0  0  0
 21 31  1  0  0  0  0
 22 24  1  0  0  0  0
 22 32  1  0  0  0  0
 23 25  2  0  0  0  0
 23 33  1  0  0  0  0
 24 26  2  0  0  0  0
 25 26  1  0  0  0  0
 25 35  1  0  0  0  0
 27 36  1  0  0  0  0
 27 37  1  0  0  0  0
 27 38  1  0  0  0  0
M  END
> <PUBCHEM_COMPOUND_CID>
10317061

> <PUBCHEM_CONFORMER_RMSD>
0.8

> <PUBCHEM_CONFORMER_DIVERSEORDER>
1
3
2
4

> <PUBCHEM_MMFF94_PARTIAL_CHARGES>
37
1 -0.36
10 0.2
11 -0.17
12 -0.14
13 0.49
14 0.08
15 0.09
16 0.66
17 0.03
18 -0.15
19 -0.15
2 -0.53
20 0.08
21 -0.15
22 -0.15
23 -0.15
24 0.08
25 -0.15
26 0.08
27 0.28
29 0.15
3 -0.43
30 0.15
31 0.15
32 0.15
33 0.15
34 0.45
35 0.15
39 0.45
4 -0.57
40 0.45
41 0.45
5 -0.57
6 -0.53
7 -0.53
8 -0.53
9 0.48

> <PUBCHEM_EFFECTIVE_ROTOR_COUNT>
3.2

> <PUBCHEM_PHARMACOPHORE_FEATURES>
11
1 1 acceptor
1 2 donor
1 4 acceptor
1 5 acceptor
1 6 donor
1 7 donor
1 8 donor
5 1 9 10 12 14 rings
5 9 10 11 13 15 rings
6 12 14 18 19 20 21 rings
6 17 22 23 24 25 26 rings

> <PUBCHEM_HEAVY_ATOM_COUNT>
27

> <PUBCHEM_ATOM_DEF_STEREO_COUNT>
2

> <PUBCHEM_ATOM_UDEF_STEREO_COUNT>
0

> <PUBCHEM_BOND_DEF_STEREO_COUNT>
0

> <PUBCHEM_BOND_UDEF_STEREO_COUNT>
0

> <PUBCHEM_ISOTOPIC_ATOM_COUNT>
0

> <PUBCHEM_COMPONENT_COUNT>
1

> <PUBCHEM_CACTVS_TAUTO_COUNT>
345

> <PUBCHEM_CONFORMER_ID>
009D6D0500000001

> <PUBCHEM_MMFF94_ENERGY>
74.4433

> <PUBCHEM_FEATURE_SELFOVERLAP>
56.389

> <PUBCHEM_SHAPE_FINGERPRINT>
10165383 225 18060421335254645789
10948715 1 18334289855637114379
11421498 54 17131556046644781067
11578080 2 17834722315303664189
12035759 4 15051735257565120323
12236239 1 16415481523569502485
12516196 113 10953458526673230420
12592029 89 18272651212425433862
12633257 1 16588020268861925948
12895836 83 18199743803468596168
12895837 130 18048596216742911844
12969540 114 18201426017293209988
13149001 5 16485833908285353474
133893 2 17630066874573355438
13583140 156 18266467683858946162
13911987 19 18059585731913247620
14787075 74 17967810583228032017
14863182 85 16226336898067825251
15163728 17 18340226127468781076
15209294 21 17458057149625672313
16945 1 16009014133859562603
17349148 13 16415487051656701164
17980427 23 17749676319345619351
1813 80 16698374720004147167
18915476 22 18200327528115693615
19784866 140 15339122325462327173
19862831 5 15913320299862773317
20600515 1 17168156645202008845
20723712 36 15575003822985596279
21033648 29 18270673290050061608
21756936 100 17968645138191546624
22079108 93 17603863420707565057
229495 10 17764323029603054944
23227448 37 17895194479694881356
23419403 2 17977984252202365915
23557571 272 17896621607586651427
23559900 14 17677349211963170798
2838139 119 18337941359475861412
347723 3 16415477138497615985
3633792 109 17632583713035261400
3729539 64 18058188145687398430
392239 28 17531257188138369713
427121 178 17385725738395278497
4340502 62 17385720283670820056
44802255 64 18198632210577631476
5104073 3 16951682481677277041
59755656 520 17240757419828029576
6442390 28 17313101947308251560
8272917 22 18200878374545112102

> <PUBCHEM_SHAPE_MULTIPOLES>
508.69
9.89
2.44
2.01
0.02
1
1.09
-6.59
-1.46
-1.28
-1.27
0.47
1.13
1.24

> <PUBCHEM_SHAPE_SELFOVERLAP>
1150.748

> <PUBCHEM_SHAPE_VOLUME>
267.4

> <PUBCHEM_COORDINATE_TYPE>
2
5
10

$$$$
