10317178
  -OEChem-03292013303D

 58 58  0     1  0  0  0  0  0999 V2000
    4.7388    0.4903   -1.1175 O   0  0  0  0  0  0  0  0  0  0  0  0
    3.0647   -1.1834    1.3248 O   0  0  0  0  0  0  0  0  0  0  0  0
    3.1400   -2.7571   -1.5816 O   0  0  0  0  0  0  0  0  0  0  0  0
   -0.0456   -0.8553   -1.1228 O   0  0  0  0  0  0  0  0  0  0  0  0
   -0.8851   -3.2555    0.7159 O   0  0  0  0  0  0  0  0  0  0  0  0
   -3.0254    1.3721    0.2363 O   0  0  0  0  0  0  0  0  0  0  0  0
    0.7961    0.2420    0.7407 N   0  0  0  0  0  0  0  0  0  0  0  0
   -2.5176   -0.8886    0.0812 N   0  0  0  0  0  0  0  0  0  0  0  0
    3.9879   -0.6842   -0.7836 C   0  0  1  0  0  0  0  0  0  0  0  0
    5.4611   -0.5895   -0.5117 C   0  0  0  0  0  0  0  0  0  0  0  0
    2.0332    0.6714    0.1435 C   0  0  2  0  0  0  0  0  0  0  0  0
    3.0131   -0.4735    0.3270 C   0  0  0  0  0  0  0  0  0  0  0  0
    3.5303   -1.4479   -1.9749 C   0  0  0  0  0  0  0  0  0  0  0  0
    2.5901    1.9418    0.7917 C   0  0  0  0  0  0  0  0  0  0  0  0
    1.6494    3.1622    0.7316 C   0  0  0  0  0  0  0  0  0  0  0  0
   -0.1561   -0.4972    0.0479 C   0  0  0  0  0  0  0  0  0  0  0  0
   -1.3488   -0.8709    0.9233 C   0  0  2  0  0  0  0  0  0  0  0  0
    2.2925    4.3462    1.4592 C   0  0  0  0  0  0  0  0  0  0  0  0
    1.3075    3.5643   -0.7037 C   0  0  0  0  0  0  0  0  0  0  0  0
   -1.1197   -2.2036    1.6510 C   0  0  1  0  0  0  0  0  0  0  0  0
   -2.3123   -2.6030    2.5116 C   0  0  0  0  0  0  0  0  0  0  0  0
   -3.2673    0.2481   -0.1953 C   0  0  0  0  0  0  0  0  0  0  0  0
   -4.4231   -0.0543   -1.1369 C   0  0  0  0  0  0  0  0  0  0  0  0
   -5.6114    0.9074   -0.9868 C   0  0  0  0  0  0  0  0  0  0  0  0
   -6.1904    0.8616    0.4297 C   0  0  0  0  0  0  0  0  0  0  0  0
   -6.7020    0.5566   -2.0010 C   0  0  0  0  0  0  0  0  0  0  0  0
    6.1494   -1.1443   -1.1366 H   0  0  0  0  0  0  0  0  0  0  0  0
    5.7974   -0.4532    0.5086 H   0  0  0  0  0  0  0  0  0  0  0  0
    1.8708    0.8207   -0.9289 H   0  0  0  0  0  0  0  0  0  0  0  0
    4.3178   -1.5395   -2.7310 H   0  0  0  0  0  0  0  0  0  0  0  0
    2.6698   -0.9573   -2.4413 H   0  0  0  0  0  0  0  0  0  0  0  0
    3.5470    2.2070    0.3264 H   0  0  0  0  0  0  0  0  0  0  0  0
    2.8210    1.7329    1.8458 H   0  0  0  0  0  0  0  0  0  0  0  0
    0.7144    2.9220    1.2528 H   0  0  0  0  0  0  0  0  0  0  0  0
    0.6577    0.4193    1.7317 H   0  0  0  0  0  0  0  0  0  0  0  0
   -1.4931   -0.0804    1.6711 H   0  0  0  0  0  0  0  0  0  0  0  0
    1.6212    5.2116    1.4635 H   0  0  0  0  0  0  0  0  0  0  0  0
    2.5113    4.0901    2.5013 H   0  0  0  0  0  0  0  0  0  0  0  0
    3.2300    4.6470    0.9792 H   0  0  0  0  0  0  0  0  0  0  0  0
    2.2135    3.7479   -1.2910 H   0  0  0  0  0  0  0  0  0  0  0  0
    0.7047    4.4788   -0.7177 H   0  0  0  0  0  0  0  0  0  0  0  0
    0.7251    2.7868   -1.2073 H   0  0  0  0  0  0  0  0  0  0  0  0
    2.8353   -3.2168   -2.3824 H   0  0  0  0  0  0  0  0  0  0  0  0
   -0.2246   -2.1234    2.2790 H   0  0  0  0  0  0  0  0  0  0  0  0
   -2.7473   -1.7585   -0.3909 H   0  0  0  0  0  0  0  0  0  0  0  0
   -3.1963   -2.8184    1.9017 H   0  0  0  0  0  0  0  0  0  0  0  0
   -2.5615   -1.8194    3.2334 H   0  0  0  0  0  0  0  0  0  0  0  0
   -2.0894   -3.5219    3.0652 H   0  0  0  0  0  0  0  0  0  0  0  0
   -4.0259   -0.0018   -2.1580 H   0  0  0  0  0  0  0  0  0  0  0  0
   -4.7637   -1.0846   -0.9735 H   0  0  0  0  0  0  0  0  0  0  0  0
   -5.2723    1.9319   -1.1847 H   0  0  0  0  0  0  0  0  0  0  0  0
   -0.7070   -4.0660    1.2229 H   0  0  0  0  0  0  0  0  0  0  0  0
   -6.5102   -0.1522    0.6942 H   0  0  0  0  0  0  0  0  0  0  0  0
   -7.0619    1.5204    0.5111 H   0  0  0  0  0  0  0  0  0  0  0  0
   -5.4641    1.1924    1.1778 H   0  0  0  0  0  0  0  0  0  0  0  0
   -7.0875   -0.4558   -1.8385 H   0  0  0  0  0  0  0  0  0  0  0  0
   -7.5421    1.2552   -1.9261 H   0  0  0  0  0  0  0  0  0  0  0  0
   -6.3128    0.6114   -3.0232 H   0  0  0  0  0  0  0  0  0  0  0  0
  1  9  1  0  0  0  0
  1 10  1  0  0  0  0
  2 12  2  0  0  0  0
  3 13  1  0  0  0  0
  3 43  1  0  0  0  0
  4 16  2  0  0  0  0
  5 20  1  0  0  0  0
  5 52  1  0  0  0  0
  6 22  2  0  0  0  0
  7 11  1  0  0  0  0
  7 16  1  0  0  0  0
  7 35  1  0  0  0  0
  8 17  1  0  0  0  0
  8 22  1  0  0  0  0
  8 45  1  0  0  0  0
  9 10  1  0  0  0  0
  9 12  1  0  0  0  0
  9 13  1  0  0  0  0
 10 27  1  0  0  0  0
 10 28  1  0  0  0  0
 11 12  1  0  0  0  0
 11 14  1  0  0  0  0
 11 29  1  0  0  0  0
 13 30  1  0  0  0  0
 13 31  1  0  0  0  0
 14 15  1  0  0  0  0
 14 32  1  0  0  0  0
 14 33  1  0  0  0  0
 15 18  1  0  0  0  0
 15 19  1  0  0  0  0
 15 34  1  0  0  0  0
 16 17  1  0  0  0  0
 17 20  1  0  0  0  0
 17 36  1  0  0  0  0
 18 37  1  0  0  0  0
 18 38  1  0  0  0  0
 18 39  1  0  0  0  0
 19 40  1  0  0  0  0
 19 41  1  0  0  0  0
 19 42  1  0  0  0  0
 20 21  1  0  0  0  0
 20 44  1  0  0  0  0
 21 46  1  0  0  0  0
 21 47  1  0  0  0  0
 21 48  1  0  0  0  0
 22 23  1  0  0  0  0
 23 24  1  0  0  0  0
 23 49  1  0  0  0  0
 23 50  1  0  0  0  0
 24 25  1  0  0  0  0
 24 26  1  0  0  0  0
 24 51  1  0  0  0  0
 25 53  1  0  0  0  0
 25 54  1  0  0  0  0
 25 55  1  0  0  0  0
 26 56  1  0  0  0  0
 26 57  1  0  0  0  0
 26 58  1  0  0  0  0
M  END
> <PUBCHEM_COMPOUND_CID>
10317178

> <PUBCHEM_CONFORMER_RMSD>
1.2

> <PUBCHEM_CONFORMER_DIVERSEORDER>
1
11
43
58
110
114
55
108
12
99
59
73
70
107
113
48
26
54
69
37
118
75
94
91
93
87
64
39
117
46
67
101
90
103
7
120
95
115
62
38
45
105
32
106
72
66
20
88
97
41
31
53
77
14
36
121
17
116
76
16
111
78
109
6
27
81
85
21
57
4
92
34
63
60
79
89
83
22
86
98
18
30
40
112
102
56
23
119
42
50
74
65
3
13
80
104
29
51
96
33
71
24
84
8
28
100
122
68
52
47
25
35
82
10
49
2
5
61
44
15
9
19

> <PUBCHEM_MMFF94_PARTIAL_CHARGES>
24
1 -0.3
10 -0.05
11 0.36
12 0.51
13 0.38
16 0.57
17 0.36
2 -0.57
20 0.28
22 0.57
23 0.06
27 0.1
28 0.1
3 -0.68
35 0.37
4 -0.57
43 0.4
45 0.37
5 -0.68
52 0.4
6 -0.57
7 -0.73
8 -0.73
9 0.05

> <PUBCHEM_EFFECTIVE_ROTOR_COUNT>
13.6

> <PUBCHEM_PHARMACOPHORE_FEATURES>
12
1 1 acceptor
1 2 acceptor
1 3 acceptor
1 3 donor
1 4 acceptor
1 5 acceptor
1 5 donor
1 6 acceptor
1 7 donor
1 8 donor
3 15 18 19 hydrophobe
3 24 25 26 hydrophobe

> <PUBCHEM_HEAVY_ATOM_COUNT>
26

> <PUBCHEM_ATOM_DEF_STEREO_COUNT>
1

> <PUBCHEM_ATOM_UDEF_STEREO_COUNT>
3

> <PUBCHEM_BOND_DEF_STEREO_COUNT>
0

> <PUBCHEM_BOND_UDEF_STEREO_COUNT>
0

> <PUBCHEM_ISOTOPIC_ATOM_COUNT>
0

> <PUBCHEM_COMPONENT_COUNT>
1

> <PUBCHEM_CACTVS_TAUTO_COUNT>
8

> <PUBCHEM_CONFORMER_ID>
009D6D7A00000001

> <PUBCHEM_MMFF94_ENERGY>
41.0486

> <PUBCHEM_FEATURE_SELFOVERLAP>
60.902

> <PUBCHEM_SHAPE_FINGERPRINT>
11135609 99 15410883081583711668
11578080 2 17969794170586465396
12107698 1 18130783426549619805
12166972 35 17203607086241134681
12403259 415 18114461249591562585
12549972 3 18189057666837229616
12596602 18 13840269165537349709
12788726 201 18193561069486817576
13540713 4 18191590971602660409
1361 2 18131628971880290103
15183329 4 17274819104867089149
15238133 3 18040985242335261472
15806764 133 18192172548813504490
17349148 13 15698006227513702847
21033648 29 17749656459770841725
21285901 2 18128258891816620444
221357 26 18341325609348452893
22224240 67 7853561401366345324
23559900 14 18343015639981331601
3004659 81 15913322481685061151
46194498 28 18124892388833596686
465052 167 12607396706859290532
495365 180 18058720437684127728
53794403 172 18043251438895712517
6049 1 18045515350147082218
633830 44 18339062879211627685
7399639 24 17474961294583090338
81228 2 18124894369462191608
9658208 31 17894909672393021219
9709674 26 18193836174404555483
9981440 41 17480839240796040889

> <PUBCHEM_SHAPE_MULTIPOLES>
489.89
12.49
3.95
1.88
15.6
3.1
-0.11
1.83
6.79
-3.25
-1.87
0.57
-0.93
3

> <PUBCHEM_SHAPE_SELFOVERLAP>
962.646

> <PUBCHEM_SHAPE_VOLUME>
294.3

> <PUBCHEM_COORDINATE_TYPE>
2
5
10

$$$$
