10314119
  -OEChem-03292013303D

 48 48  0     1  0  0  0  0  0999 V2000
   -0.8540    0.4158    1.6019 O   0  0  0  0  0  0  0  0  0  0  0  0
    2.9964    2.1494   -1.2228 O   0  0  0  0  0  0  0  0  0  0  0  0
   -6.9073    0.9749    0.0404 O   0  0  0  0  0  0  0  0  0  0  0  0
   -4.5424   -2.9788    0.1318 O   0  0  0  0  0  0  0  0  0  0  0  0
    1.7527   -0.3715    0.9372 O   0  0  0  0  0  0  0  0  0  0  0  0
   -5.6943   -0.9831    0.1101 N   0  0  0  0  0  0  0  0  0  0  0  0
   -3.3262    0.4322    0.0729 C   0  0  0  0  0  0  0  0  0  0  0  0
   -2.0631    1.1782   -0.3473 C   0  0  0  0  0  0  0  0  0  0  0  0
   -0.7888    0.5070    0.1787 C   0  0  1  0  0  0  0  0  0  0  0  0
   -4.5727    1.1206   -0.4745 C   0  0  0  0  0  0  0  0  0  0  0  0
   -3.2991   -1.0091   -0.4262 C   0  0  0  0  0  0  0  0  0  0  0  0
    0.4573    1.3061   -0.2154 C   0  0  0  0  0  0  0  0  0  0  0  0
   -5.8303    0.3892   -0.0684 C   0  0  0  0  0  0  0  0  0  0  0  0
   -4.5464   -1.7575   -0.0190 C   0  0  0  0  0  0  0  0  0  0  0  0
    1.7503    0.6960    0.3202 C   0  0  0  0  0  0  0  0  0  0  0  0
    3.0635    1.4394    0.0029 C   0  0  2  0  0  0  0  0  0  0  0  0
    3.3212    2.4551    1.1220 C   0  0  0  0  0  0  0  0  0  0  0  0
    4.1951    0.4354   -0.0819 C   0  0  0  0  0  0  0  0  0  0  0  0
    4.3279   -0.6175   -0.9195 C   0  0  0  0  0  0  0  0  0  0  0  0
    3.3323   -0.9647   -1.9961 C   0  0  0  0  0  0  0  0  0  0  0  0
    5.5142   -1.4673   -0.7950 C   0  0  0  0  0  0  0  0  0  0  0  0
    6.1024   -1.8658    0.3444 C   0  0  0  0  0  0  0  0  0  0  0  0
    5.6114   -1.4840    1.7035 C   0  0  0  0  0  0  0  0  0  0  0  0
   -3.3972    0.4236    1.1694 H   0  0  0  0  0  0  0  0  0  0  0  0
   -2.0114    1.2535   -1.4408 H   0  0  0  0  0  0  0  0  0  0  0  0
   -2.1215    2.2027    0.0430 H   0  0  0  0  0  0  0  0  0  0  0  0
   -0.6780   -0.5075   -0.2146 H   0  0  0  0  0  0  0  0  0  0  0  0
   -4.6348    2.1446   -0.0884 H   0  0  0  0  0  0  0  0  0  0  0  0
   -4.5517    1.1711   -1.5695 H   0  0  0  0  0  0  0  0  0  0  0  0
   -3.2164   -1.0546   -1.5182 H   0  0  0  0  0  0  0  0  0  0  0  0
   -2.4622   -1.5650    0.0069 H   0  0  0  0  0  0  0  0  0  0  0  0
    0.5251    1.3611   -1.3069 H   0  0  0  0  0  0  0  0  0  0  0  0
    0.3903    2.3213    0.1920 H   0  0  0  0  0  0  0  0  0  0  0  0
   -6.5408   -1.4834    0.3673 H   0  0  0  0  0  0  0  0  0  0  0  0
   -0.9290    1.3187    1.9553 H   0  0  0  0  0  0  0  0  0  0  0  0
    2.5068    3.1864    1.1851 H   0  0  0  0  0  0  0  0  0  0  0  0
    4.2376    3.0270    0.9338 H   0  0  0  0  0  0  0  0  0  0  0  0
    3.4068    1.9693    2.1007 H   0  0  0  0  0  0  0  0  0  0  0  0
    5.0169    0.6750    0.5897 H   0  0  0  0  0  0  0  0  0  0  0  0
    2.4096    2.9158   -1.1070 H   0  0  0  0  0  0  0  0  0  0  0  0
    2.5289   -0.2341   -2.1068 H   0  0  0  0  0  0  0  0  0  0  0  0
    2.8719   -1.9352   -1.7814 H   0  0  0  0  0  0  0  0  0  0  0  0
    3.8351   -1.0323   -2.9673 H   0  0  0  0  0  0  0  0  0  0  0  0
    5.9358   -1.8140   -1.7364 H   0  0  0  0  0  0  0  0  0  0  0  0
    6.9883   -2.4923    0.2882 H   0  0  0  0  0  0  0  0  0  0  0  0
    6.1342   -0.5987    2.0768 H   0  0  0  0  0  0  0  0  0  0  0  0
    5.8445   -2.3034    2.3943 H   0  0  0  0  0  0  0  0  0  0  0  0
    4.5287   -1.3512    1.7696 H   0  0  0  0  0  0  0  0  0  0  0  0
  1  9  1  0  0  0  0
  1 35  1  0  0  0  0
  2 16  1  0  0  0  0
  2 40  1  0  0  0  0
  3 13  2  0  0  0  0
  4 14  2  0  0  0  0
  5 15  2  0  0  0  0
  6 13  1  0  0  0  0
  6 14  1  0  0  0  0
  6 34  1  0  0  0  0
  7  8  1  0  0  0  0
  7 10  1  0  0  0  0
  7 11  1  0  0  0  0
  7 24  1  0  0  0  0
  8  9  1  0  0  0  0
  8 25  1  0  0  0  0
  8 26  1  0  0  0  0
  9 12  1  0  0  0  0
  9 27  1  0  0  0  0
 10 13  1  0  0  0  0
 10 28  1  0  0  0  0
 10 29  1  0  0  0  0
 11 14  1  0  0  0  0
 11 30  1  0  0  0  0
 11 31  1  0  0  0  0
 12 15  1  0  0  0  0
 12 32  1  0  0  0  0
 12 33  1  0  0  0  0
 15 16  1  0  0  0  0
 16 17  1  0  0  0  0
 16 18  1  0  0  0  0
 17 36  1  0  0  0  0
 17 37  1  0  0  0  0
 17 38  1  0  0  0  0
 18 19  2  0  0  0  0
 18 39  1  0  0  0  0
 19 20  1  0  0  0  0
 19 21  1  0  0  0  0
 20 41  1  0  0  0  0
 20 42  1  0  0  0  0
 20 43  1  0  0  0  0
 21 22  2  0  0  0  0
 21 44  1  0  0  0  0
 22 23  1  0  0  0  0
 22 45  1  0  0  0  0
 23 46  1  0  0  0  0
 23 47  1  0  0  0  0
 23 48  1  0  0  0  0
M  END
> <PUBCHEM_COMPOUND_CID>
10314119

> <PUBCHEM_CONFORMER_RMSD>
1.2

> <PUBCHEM_CONFORMER_DIVERSEORDER>
4
64
103
24
126
133
109
78
35
66
39
46
2
40
70
180
71
104
61
121
93
83
125
8
57
18
219
220
172
23
217
101
169
27
193
170
140
183
26
132
163
95
167
28
10
48
146
12
214
11
139
173
119
148
222
22
181
106
97
117
60
165
100
203
49
229
130
208
37
226
164
223
102
213
168
182
58
129
205
150
73
227
86
161
191
34
62
185
218
204
141
209
230
189
145
75
131
187
197
116
196
63
89
69
113
30
212
110
152
3
29
202
123
201
228
105
54
21
15
20
45
194
96
52
171
195
80
200
68
134
122
221
111
158
175
53
114
225
1
136
82
155
157
153
108
36
91
19
184
128
7
94
216
211
72
176
210
207
31
137
154
92
143
162
149
76
16
138
13
14
147
124
159
42
17
85
177
188
38
98
224
67
107
115
192
25
77
118
47
41
190
186
179
32
127
84
144
51
79
50
198
33
5
6
160
174
65
178
151
81
44
156
74
56
59
9
87
166
90
88
135
112
99
43
215
120
199
142
55
206

> <PUBCHEM_MMFF94_PARTIAL_CHARGES>
26
1 -0.68
10 0.06
11 0.06
12 0.06
13 0.57
14 0.57
15 0.45
16 0.48
18 -0.29
19 -0.14
2 -0.68
20 0.14
21 -0.15
22 -0.29
23 0.14
3 -0.57
34 0.37
35 0.4
39 0.15
4 -0.57
40 0.4
44 0.15
45 0.15
5 -0.57
6 -0.49
9 0.28

> <PUBCHEM_EFFECTIVE_ROTOR_COUNT>
7.8

> <PUBCHEM_PHARMACOPHORE_FEATURES>
11
1 1 acceptor
1 1 donor
1 2 acceptor
1 2 donor
1 20 hydrophobe
1 23 hydrophobe
1 3 acceptor
1 4 acceptor
1 5 acceptor
1 6 donor
6 6 7 10 11 13 14 rings

> <PUBCHEM_HEAVY_ATOM_COUNT>
23

> <PUBCHEM_ATOM_DEF_STEREO_COUNT>
0

> <PUBCHEM_ATOM_UDEF_STEREO_COUNT>
2

> <PUBCHEM_BOND_DEF_STEREO_COUNT>
2

> <PUBCHEM_BOND_UDEF_STEREO_COUNT>
0

> <PUBCHEM_ISOTOPIC_ATOM_COUNT>
0

> <PUBCHEM_COMPONENT_COUNT>
1

> <PUBCHEM_CACTVS_TAUTO_COUNT>
4

> <PUBCHEM_CONFORMER_ID>
009D618700000004

> <PUBCHEM_MMFF94_ENERGY>
50.3778

> <PUBCHEM_FEATURE_SELFOVERLAP>
55.827

> <PUBCHEM_SHAPE_FINGERPRINT>
10591671 39 8358248272312925227
10670039 82 14346069777132415134
11405975 8 18342460339586398889
11524674 6 17704349966535826463
11796584 16 18343022189885890855
12596602 18 13398626147674456767
12616971 3 17988636419594011157
13167823 11 18410291449629054815
13533116 47 18201719561576266064
14251751 18 18413669110679442454
14251752 14 17822569409039623535
14347332 77 17968088668984877420
15183329 4 18336268959350292739
15419008 42 17912641302724139389
17844677 252 18411143541266305265
17857418 61 18410575071931411218
19784866 240 18201728314566465340
1979834 28 16988567883810181126
20374829 77 18409449167586916725
20645477 70 18343588456012799324
21623969 137 17489872635045484678
22393880 68 18333443244769036843
23035841 295 18334858299423237643
23522609 53 17971222281614913220
23559900 14 18341607157439730449
239999 70 18341896316170494396
3004659 81 18412267233475009740
338550 245 18411702131506057958
4073 2 18115873069280899344
465052 167 18343304752085147366
5104073 3 18272937162873852209
542803 24 14851604380028391045
559249 180 18411135823552608575
59755656 215 18337108960796497447
59755656 520 16443350858358818203
7495541 125 18412546518213617236
960060 61 17676214571992364470

> <PUBCHEM_SHAPE_MULTIPOLES>
439
17.22
2.38
1.25
10.34
0.39
-0.03
7.48
0.54
-0.66
0.19
-1.93
0.15
0.21

> <PUBCHEM_SHAPE_SELFOVERLAP>
883.831

> <PUBCHEM_SHAPE_VOLUME>
254.8

> <PUBCHEM_COORDINATE_TYPE>
2
5
10

$$$$
