10315183
  -OEChem-03292013303D

 33 34  0     1  0  0  0  0  0999 V2000
    4.0874    1.7038    0.4256 S   0  0  0  0  0  0  0  0  0  0  0  0
    3.9146   -3.5036   -0.3596 S   0  0  0  0  0  0  0  0  0  0  0  0
   -3.5571   -1.5489    0.1397 P   0  0  0  0  0  0  0  0  0  0  0  0
   -0.3647    1.2131    1.0178 O   0  0  0  0  0  0  0  0  0  0  0  0
   -0.7594    4.0517   -0.0587 O   0  0  0  0  0  0  0  0  0  0  0  0
   -2.7233   -0.2455    0.6141 O   0  0  0  0  0  0  0  0  0  0  0  0
   -2.5749   -2.2663   -0.9259 O   0  0  0  0  0  0  0  0  0  0  0  0
   -4.7171   -0.9150   -0.7917 O   0  0  0  0  0  0  0  0  0  0  0  0
   -4.0476   -2.4278    1.2530 O   0  0  0  0  0  0  0  0  0  0  0  0
    1.6617    0.3923    0.1841 N   0  0  0  0  0  0  0  0  0  0  0  0
    3.6841   -0.8766    0.0299 N   0  0  0  0  0  0  0  0  0  0  0  0
   -0.8961    2.7770   -0.6830 C   0  0  2  0  0  0  0  0  0  0  0  0
   -1.4819    1.7769    0.3039 C   0  0  1  0  0  0  0  0  0  0  0  0
    0.4713    2.2054   -0.9785 C   0  0  0  0  0  0  0  0  0  0  0  0
    0.8532    1.5651    0.3461 C   0  0  1  0  0  0  0  0  0  0  0  0
   -2.2251    0.6361   -0.3790 C   0  0  0  0  0  0  0  0  0  0  0  0
    3.0836    0.3723    0.2066 C   0  0  0  0  0  0  0  0  0  0  0  0
    0.9833   -0.8166   -0.0069 C   0  0  0  0  0  0  0  0  0  0  0  0
    1.5668   -2.0057   -0.1748 C   0  0  0  0  0  0  0  0  0  0  0  0
    3.0414   -2.0877   -0.1626 C   0  0  0  0  0  0  0  0  0  0  0  0
   -1.5122    2.9123   -1.5770 H   0  0  0  0  0  0  0  0  0  0  0  0
   -2.1276    2.2559    1.0483 H   0  0  0  0  0  0  0  0  0  0  0  0
    0.3928    1.4535   -1.7731 H   0  0  0  0  0  0  0  0  0  0  0  0
    1.2075    2.9513   -1.2939 H   0  0  0  0  0  0  0  0  0  0  0  0
    1.3573    2.2958    0.9867 H   0  0  0  0  0  0  0  0  0  0  0  0
   -1.5988    0.0917   -1.0888 H   0  0  0  0  0  0  0  0  0  0  0  0
   -3.0730    1.0482   -0.9369 H   0  0  0  0  0  0  0  0  0  0  0  0
   -0.3300    4.6445   -0.6990 H   0  0  0  0  0  0  0  0  0  0  0  0
   -0.0928   -0.8064   -0.0098 H   0  0  0  0  0  0  0  0  0  0  0  0
    4.7000   -0.8973    0.0446 H   0  0  0  0  0  0  0  0  0  0  0  0
    0.9779   -2.9053   -0.3137 H   0  0  0  0  0  0  0  0  0  0  0  0
   -2.8389   -3.1302   -1.3081 H   0  0  0  0  0  0  0  0  0  0  0  0
   -5.4235   -1.5023   -1.1356 H   0  0  0  0  0  0  0  0  0  0  0  0
  1 17  2  0  0  0  0
  2 20  2  0  0  0  0
  3  6  1  0  0  0  0
  3  7  1  0  0  0  0
  3  8  1  0  0  0  0
  3  9  2  0  0  0  0
  4 13  1  0  0  0  0
  4 15  1  0  0  0  0
  5 12  1  0  0  0  0
  5 28  1  0  0  0  0
  6 16  1  0  0  0  0
  7 32  1  0  0  0  0
  8 33  1  0  0  0  0
 10 15  1  0  0  0  0
 10 17  1  0  0  0  0
 10 18  1  0  0  0  0
 11 17  1  0  0  0  0
 11 20  1  0  0  0  0
 11 30  1  0  0  0  0
 12 13  1  0  0  0  0
 12 14  1  0  0  0  0
 12 21  1  0  0  0  0
 13 16  1  0  0  0  0
 13 22  1  0  0  0  0
 14 15  1  0  0  0  0
 14 23  1  0  0  0  0
 14 24  1  0  0  0  0
 15 25  1  0  0  0  0
 16 26  1  0  0  0  0
 16 27  1  0  0  0  0
 18 19  2  0  0  0  0
 18 29  1  0  0  0  0
 19 20  1  0  0  0  0
 19 31  1  0  0  0  0
M  END
> <PUBCHEM_COMPOUND_CID>
10315183

> <PUBCHEM_CONFORMER_RMSD>
0.8

> <PUBCHEM_CONFORMER_DIVERSEORDER>
1
20
17
11
24
10
8
14
18
6
22
5
7
23
25
13
19
16
12
3
21
4
15
2
9

> <PUBCHEM_MMFF94_PARTIAL_CHARGES>
25
1 -0.38
10 -0.47
11 -0.49
12 0.28
13 0.28
15 0.58
16 0.28
17 0.5
18 -0.04
19 -0.14
2 -0.38
20 0.43
28 0.4
29 0.15
3 1.51
30 0.37
31 0.15
32 0.5
33 0.5
4 -0.56
5 -0.68
6 -0.55
7 -0.77
8 -0.77
9 -0.7

> <PUBCHEM_EFFECTIVE_ROTOR_COUNT>
5

> <PUBCHEM_PHARMACOPHORE_FEATURES>
12
1 1 acceptor
1 11 donor
1 2 acceptor
1 4 acceptor
1 5 acceptor
1 5 donor
1 7 acceptor
1 8 acceptor
1 9 acceptor
4 3 7 8 9 anion
5 4 12 13 14 15 rings
6 10 11 17 18 19 20 rings

> <PUBCHEM_HEAVY_ATOM_COUNT>
20

> <PUBCHEM_ATOM_DEF_STEREO_COUNT>
3

> <PUBCHEM_ATOM_UDEF_STEREO_COUNT>
0

> <PUBCHEM_BOND_DEF_STEREO_COUNT>
0

> <PUBCHEM_BOND_UDEF_STEREO_COUNT>
0

> <PUBCHEM_ISOTOPIC_ATOM_COUNT>
0

> <PUBCHEM_COMPONENT_COUNT>
1

> <PUBCHEM_CACTVS_TAUTO_COUNT>
3

> <PUBCHEM_CONFORMER_ID>
009D65AF00000001

> <PUBCHEM_MMFF94_ENERGY>
18.1908

> <PUBCHEM_FEATURE_SELFOVERLAP>
60.937

> <PUBCHEM_SHAPE_FINGERPRINT>
10616163 171 18340207397242665614
116883 192 18336825295011769749
12500047 106 17687464559971743596
12506688 2 18342175574400871880
12553582 1 18337404832371520275
12633257 1 17843412781994779891
12839892 36 18268408266400720154
13004483 165 18339069402908429359
13140716 1 18340212868952016035
138480 1 14879469973072762669
14223421 5 18340763746100319756
14251705 54 18336831982376297235
14790565 3 17834115629799267620
14863182 85 18192160510463077428
15422964 175 18409444821206789093
17357779 13 18337656569089697439
17859628 97 16894833142651653363
19141452 34 18268998574932151065
19591789 44 17111859716929395332
20291156 8 18411703192394465583
20645477 70 17901936775955373975
20681677 274 18337669703226561610
21665056 4 17688027513993285221
221490 88 18339645530122370562
23466295 7 18048898311129467467
23557571 272 18261099751801180128
23558518 356 18188497852653175200
23559900 14 18267574707489985232
2871803 45 18408599249441313238
350125 39 18341044208076879896
46194498 28 17604702413105104413
474229 33 18266455585189365168
81228 2 18187369766144041121
8809292 202 18050289167763452714
9709674 26 18267859480658739796

> <PUBCHEM_SHAPE_MULTIPOLES>
377.96
7.9
4.42
0.89
0.87
0.55
-0.01
-6.81
-0.23
-0.31
0.43
0.42
-0.04
0.91

> <PUBCHEM_SHAPE_SELFOVERLAP>
746.302

> <PUBCHEM_SHAPE_VOLUME>
228.8

> <PUBCHEM_COORDINATE_TYPE>
2
5
10

$$$$
