10316935
  -OEChem-03292013303D

 43 47  0     1  0  0  0  0  0999 V2000
   -4.3752    0.5785    0.2796 O   0  0  0  0  0  0  0  0  0  0  0  0
    1.2787   -1.2033    0.0882 O   0  0  0  0  0  0  0  0  0  0  0  0
   -5.1130   -2.2188   -0.0706 O   0  0  0  0  0  0  0  0  0  0  0  0
   -0.4539   -3.2215   -0.3559 O   0  0  0  0  0  0  0  0  0  0  0  0
    1.8573    2.8220   -0.2690 O   0  0  0  0  0  0  0  0  0  0  0  0
    4.4545    2.4510   -0.1613 O   0  0  0  0  0  0  0  0  0  0  0  0
    5.9483   -2.0358    0.2538 O   0  0  0  0  0  0  0  0  0  0  0  0
   -2.0871    1.3704    0.5124 C   0  0  1  0  0  0  0  0  0  0  0  0
   -3.5320    1.7799    0.1297 C   0  0  0  0  0  0  0  0  0  0  0  0
   -2.1869   -0.0764    0.2127 C   0  0  0  0  0  0  0  0  0  0  0  0
   -0.8681    1.9632   -0.1993 C   0  0  0  0  0  0  0  0  0  0  0  0
   -3.5039   -0.4735    0.1586 C   0  0  0  0  0  0  0  0  0  0  0  0
   -1.1154   -0.9320    0.0255 C   0  0  0  0  0  0  0  0  0  0  0  0
    0.3304    1.0259   -0.1031 C   0  0  0  0  0  0  0  0  0  0  0  0
   -4.1466    2.8901    0.9928 C   0  0  0  0  0  0  0  0  0  0  0  0
   -3.6044    2.1995   -1.3411 C   0  0  0  0  0  0  0  0  0  0  0  0
    0.2234   -0.3180    0.0116 C   0  0  0  0  0  0  0  0  0  0  0  0
   -3.8248   -1.7992   -0.0241 C   0  0  0  0  0  0  0  0  0  0  0  0
   -1.4212   -2.2808   -0.1617 C   0  0  0  0  0  0  0  0  0  0  0  0
    1.6922    1.6155   -0.1464 C   0  0  0  0  0  0  0  0  0  0  0  0
   -2.7676   -2.7083   -0.1777 C   0  0  0  0  0  0  0  0  0  0  0  0
    2.8175    0.6705   -0.0413 C   0  0  0  0  0  0  0  0  0  0  0  0
    2.5510   -0.6930    0.0709 C   0  0  0  0  0  0  0  0  0  0  0  0
    4.1369    1.1305   -0.0552 C   0  0  0  0  0  0  0  0  0  0  0  0
    3.6026   -1.6049    0.1695 C   0  0  0  0  0  0  0  0  0  0  0  0
    5.1870    0.2167    0.0448 C   0  0  0  0  0  0  0  0  0  0  0  0
    4.9205   -1.1483    0.1566 C   0  0  0  0  0  0  0  0  0  0  0  0
   -1.9549    1.4687    1.5996 H   0  0  0  0  0  0  0  0  0  0  0  0
   -0.6461    2.9373    0.2512 H   0  0  0  0  0  0  0  0  0  0  0  0
   -1.0442    2.1370   -1.2662 H   0  0  0  0  0  0  0  0  0  0  0  0
   -4.1777    2.5829    2.0440 H   0  0  0  0  0  0  0  0  0  0  0  0
   -3.5703    3.8176    0.9191 H   0  0  0  0  0  0  0  0  0  0  0  0
   -5.1822    3.0910    0.6966 H   0  0  0  0  0  0  0  0  0  0  0  0
   -4.6495    2.3372   -1.6448 H   0  0  0  0  0  0  0  0  0  0  0  0
   -3.0799    3.1429   -1.5248 H   0  0  0  0  0  0  0  0  0  0  0  0
   -3.2021    1.4345   -2.0149 H   0  0  0  0  0  0  0  0  0  0  0  0
   -2.9896   -3.7630   -0.3294 H   0  0  0  0  0  0  0  0  0  0  0  0
   -5.6913   -1.4455    0.0500 H   0  0  0  0  0  0  0  0  0  0  0  0
    0.4205   -2.8014   -0.3579 H   0  0  0  0  0  0  0  0  0  0  0  0
    3.3971   -2.6689    0.2564 H   0  0  0  0  0  0  0  0  0  0  0  0
    6.2171    0.5655    0.0356 H   0  0  0  0  0  0  0  0  0  0  0  0
    5.4213    2.5545   -0.1513 H   0  0  0  0  0  0  0  0  0  0  0  0
    6.7897   -1.5486    0.2288 H   0  0  0  0  0  0  0  0  0  0  0  0
  1  9  1  0  0  0  0
  1 12  1  0  0  0  0
  2 17  1  0  0  0  0
  2 23  1  0  0  0  0
  3 18  1  0  0  0  0
  3 38  1  0  0  0  0
  4 19  1  0  0  0  0
  4 39  1  0  0  0  0
  5 20  2  0  0  0  0
  6 24  1  0  0  0  0
  6 42  1  0  0  0  0
  7 27  1  0  0  0  0
  7 43  1  0  0  0  0
  8  9  1  0  0  0  0
  8 10  1  0  0  0  0
  8 11  1  0  0  0  0
  8 28  1  0  0  0  0
  9 15  1  0  0  0  0
  9 16  1  0  0  0  0
 10 12  1  0  0  0  0
 10 13  2  0  0  0  0
 11 14  1  0  0  0  0
 11 29  1  0  0  0  0
 11 30  1  0  0  0  0
 12 18  2  0  0  0  0
 13 17  1  0  0  0  0
 13 19  1  0  0  0  0
 14 17  2  0  0  0  0
 14 20  1  0  0  0  0
 15 31  1  0  0  0  0
 15 32  1  0  0  0  0
 15 33  1  0  0  0  0
 16 34  1  0  0  0  0
 16 35  1  0  0  0  0
 16 36  1  0  0  0  0
 18 21  1  0  0  0  0
 19 21  2  0  0  0  0
 20 22  1  0  0  0  0
 21 37  1  0  0  0  0
 22 23  1  0  0  0  0
 22 24  2  0  0  0  0
 23 25  2  0  0  0  0
 24 26  1  0  0  0  0
 25 27  1  0  0  0  0
 25 40  1  0  0  0  0
 26 27  2  0  0  0  0
 26 41  1  0  0  0  0
M  END
> <PUBCHEM_COMPOUND_CID>
10316935

> <PUBCHEM_CONFORMER_RMSD>
0.6

> <PUBCHEM_CONFORMER_DIVERSEORDER>
1

> <PUBCHEM_MMFF94_PARTIAL_CHARGES>
32
1 -0.36
10 -0.14
11 0.14
12 0.08
13 0.03
14 -0.12
17 0.05
18 0.08
19 0.08
2 -0.16
20 0.47
21 -0.15
22 0.09
23 0.08
24 0.08
25 -0.15
26 -0.15
27 0.08
3 -0.53
37 0.15
38 0.45
39 0.45
4 -0.53
40 0.15
41 0.15
42 0.45
43 0.45
5 -0.57
6 -0.53
7 -0.53
8 0.14
9 0.28

> <PUBCHEM_EFFECTIVE_ROTOR_COUNT>
0.6

> <PUBCHEM_PHARMACOPHORE_FEATURES>
13
1 1 acceptor
1 2 acceptor
1 3 donor
1 4 donor
1 5 acceptor
1 6 donor
1 7 donor
3 9 15 16 hydrophobe
5 1 8 9 10 12 rings
6 10 12 13 18 19 21 rings
6 2 14 17 20 22 23 rings
6 22 23 24 25 26 27 rings
6 8 10 11 13 14 17 rings

> <PUBCHEM_HEAVY_ATOM_COUNT>
27

> <PUBCHEM_ATOM_DEF_STEREO_COUNT>
0

> <PUBCHEM_ATOM_UDEF_STEREO_COUNT>
1

> <PUBCHEM_BOND_DEF_STEREO_COUNT>
0

> <PUBCHEM_BOND_UDEF_STEREO_COUNT>
0

> <PUBCHEM_ISOTOPIC_ATOM_COUNT>
0

> <PUBCHEM_COMPONENT_COUNT>
1

> <PUBCHEM_CACTVS_TAUTO_COUNT>
372

> <PUBCHEM_CONFORMER_ID>
009D6C8700000001

> <PUBCHEM_MMFF94_ENERGY>
93.3152

> <PUBCHEM_FEATURE_SELFOVERLAP>
66.24

> <PUBCHEM_SHAPE_FINGERPRINT>
10319926 262 18270664408521514794
10411042 1 17979916343731672951
10616163 171 18267870651784358590
10675989 125 16678366769675500437
10967382 1 18122627158836018151
1100329 8 18339362963738644360
11405975 8 18410856534318534984
11578080 2 13253698364507316225
12107183 9 18194120703445866362
12403259 226 18340200916395881521
12403260 363 18412261770202853631
12422481 6 18267612185606953203
12633257 1 18339364050407509512
13140716 1 18411142407262823737
13167823 11 18409165524010638618
138480 1 17042328238419994603
14341114 176 18337115652028366851
14347332 77 18340482365581605103
14420673 8 18266463101256052154
14790565 3 18051983523651250569
15042514 8 18409452501109318427
15196674 1 18410293618608735688
15256400 18 18411982464005207762
15442244 35 18410293635746302890
17349148 13 18131914845061734356
17492 89 18337391659681151426
17844677 252 18411144653541002530
1813 80 17240480334260578604
19141452 34 18338237068095094220
19591789 44 18410011048088219466
20691752 17 17385722500295924632
20775438 99 16473976908716685415
21033648 144 18411127022621865636
21065198 57 18411981364794409848
21236236 1 18412261727379800591
21267235 1 18337962275955809274
21421861 104 17824818950239023530
21792934 111 18341044216534868027
21859007 373 17752463392544703284
23227448 37 18411698777009544255
23402539 116 18342168926065830326
23558518 356 18261682578836769787
23559900 14 18200031725497231766
3004659 81 18333450937672733390
335352 9 18338235951440378012
338550 245 18334299777396527862
350125 39 18411421739282754241
4073 2 18114187471196305226
4214541 1 18410573972271830512
4409770 3 17681540451430087380
5104073 3 18410573989863339120
559249 180 18336541617160448234
9709674 26 18335707207851041682

> <PUBCHEM_SHAPE_MULTIPOLES>
514.56
11.18
3.55
0.74
8.41
0.34
0.05
0.67
-0.64
-2.21
0.18
-0.45
-0.27
-0.53

> <PUBCHEM_SHAPE_SELFOVERLAP>
1182.927

> <PUBCHEM_SHAPE_VOLUME>
266.9

> <PUBCHEM_COORDINATE_TYPE>
2
5
10

$$$$
