10322586
  -OEChem-03292013303D

 56 59  0     1  0  0  0  0  0999 V2000
    1.5398   -2.8452    1.2818 S   0  0  0  0  0  0  0  0  0  0  0  0
   -5.0953    2.7165   -0.6082 S   0  0  0  0  0  0  0  0  0  0  0  0
   -2.6202   -2.5257    0.0705 O   0  0  0  0  0  0  0  0  0  0  0  0
    2.1355   -4.1761    1.2406 O   0  0  0  0  0  0  0  0  0  0  0  0
    1.0691   -2.3337    2.5643 O   0  0  0  0  0  0  0  0  0  0  0  0
    4.4084    4.1271    0.7255 O   0  0  0  0  0  0  0  0  0  0  0  0
   -2.1471   -0.8189   -1.4772 N   0  0  0  0  0  0  0  0  0  0  0  0
    0.2377   -2.7822    0.1445 N   0  0  1  0  0  0  0  0  0  0  0  0
   -6.9975    0.4428    2.1571 N   0  0  0  0  0  0  0  0  0  0  0  0
   -6.9243    2.7062    1.6723 N   0  0  0  0  0  0  0  0  0  0  0  0
   -0.4260   -1.4890   -0.0567 C   0  0  1  0  0  0  0  0  0  0  0  0
    0.1599   -0.7520   -1.2563 C   0  0  0  0  0  0  0  0  0  0  0  0
   -1.0209    0.0214   -1.8096 C   0  0  0  0  0  0  0  0  0  0  0  0
   -1.8636   -1.7197   -0.4509 C   0  0  0  0  0  0  0  0  0  0  0  0
   -3.4453   -0.6209   -2.0845 C   0  0  0  0  0  0  0  0  0  0  0  0
    0.4036   -3.5259   -1.1302 C   0  0  0  0  0  0  0  0  0  0  0  0
    2.6979   -1.7093    0.6344 C   0  0  0  0  0  0  0  0  0  0  0  0
   -4.1876    0.4379   -1.3440 C   0  0  0  0  0  0  0  0  0  0  0  0
    2.6460   -0.3678    1.0141 C   0  0  0  0  0  0  0  0  0  0  0  0
    3.6721   -2.1431   -0.2598 C   0  0  0  0  0  0  0  0  0  0  0  0
   -5.0392    0.1749   -0.2386 C   0  0  0  0  0  0  0  0  0  0  0  0
   -4.1232    1.7732   -1.6556 C   0  0  0  0  0  0  0  0  0  0  0  0
    3.5699    0.5580    0.5028 C   0  0  0  0  0  0  0  0  0  0  0  0
    4.5605    0.1168   -0.4067 C   0  0  0  0  0  0  0  0  0  0  0  0
    4.5980   -1.2372   -0.7778 C   0  0  0  0  0  0  0  0  0  0  0  0
   -5.6001    1.3299    0.2603 C   0  0  0  0  0  0  0  0  0  0  0  0
    3.5324    1.9119    0.8739 C   0  0  0  0  0  0  0  0  0  0  0  0
    5.4845    1.0426   -0.9180 C   0  0  0  0  0  0  0  0  0  0  0  0
    4.4584    2.8179    0.3559 C   0  0  0  0  0  0  0  0  0  0  0  0
    5.4325    2.3840   -0.5382 C   0  0  0  0  0  0  0  0  0  0  0  0
   -6.5008    1.4863    1.3563 C   0  0  0  0  0  0  0  0  0  0  0  0
    5.3845    4.9994    0.1581 C   0  0  0  0  0  0  0  0  0  0  0  0
   -0.4303   -0.8721    0.8477 H   0  0  0  0  0  0  0  0  0  0  0  0
    0.9546   -0.0556   -0.9844 H   0  0  0  0  0  0  0  0  0  0  0  0
    0.5603   -1.3691   -2.0628 H   0  0  0  0  0  0  0  0  0  0  0  0
   -1.1415    0.9878   -1.3095 H   0  0  0  0  0  0  0  0  0  0  0  0
   -0.9498    0.1661   -2.8915 H   0  0  0  0  0  0  0  0  0  0  0  0
   -3.3124   -0.3658   -3.1415 H   0  0  0  0  0  0  0  0  0  0  0  0
   -3.9995   -1.5656   -2.0355 H   0  0  0  0  0  0  0  0  0  0  0  0
    0.4388   -4.5961   -0.8975 H   0  0  0  0  0  0  0  0  0  0  0  0
   -0.4388   -3.3983   -1.8159 H   0  0  0  0  0  0  0  0  0  0  0  0
    1.3352   -3.2693   -1.6401 H   0  0  0  0  0  0  0  0  0  0  0  0
    1.8829   -0.0269    1.7109 H   0  0  0  0  0  0  0  0  0  0  0  0
    3.7288   -3.1820   -0.5725 H   0  0  0  0  0  0  0  0  0  0  0  0
   -5.2287   -0.8106    0.1685 H   0  0  0  0  0  0  0  0  0  0  0  0
   -3.5556    2.2483   -2.4439 H   0  0  0  0  0  0  0  0  0  0  0  0
    5.3502   -1.5981   -1.4763 H   0  0  0  0  0  0  0  0  0  0  0  0
    2.7767    2.2677    1.5719 H   0  0  0  0  0  0  0  0  0  0  0  0
    6.2542    0.7245   -1.6184 H   0  0  0  0  0  0  0  0  0  0  0  0
    6.1815    3.0335   -0.9783 H   0  0  0  0  0  0  0  0  0  0  0  0
   -6.7323   -0.5226    1.9937 H   0  0  0  0  0  0  0  0  0  0  0  0
   -7.6373    0.6258    2.9224 H   0  0  0  0  0  0  0  0  0  0  0  0
   -7.5578    2.6284    2.4756 H   0  0  0  0  0  0  0  0  0  0  0  0
    5.1967    6.0000    0.5610 H   0  0  0  0  0  0  0  0  0  0  0  0
    6.3993    4.7187    0.4601 H   0  0  0  0  0  0  0  0  0  0  0  0
    5.2790    5.0681   -0.9300 H   0  0  0  0  0  0  0  0  0  0  0  0
  1  4  2  0  0  0  0
  1  5  2  0  0  0  0
  1  8  1  0  0  0  0
  1 17  1  0  0  0  0
  2 22  1  0  0  0  0
  2 26  1  0  0  0  0
  3 14  2  0  0  0  0
  6 29  1  0  0  0  0
  6 32  1  0  0  0  0
  7 13  1  0  0  0  0
  7 14  1  0  0  0  0
  7 15  1  0  0  0  0
  8 11  1  0  0  0  0
  8 16  1  0  0  0  0
  9 31  1  0  0  0  0
  9 51  1  0  0  0  0
  9 52  1  0  0  0  0
 10 31  2  0  0  0  0
 10 53  1  0  0  0  0
 11 12  1  0  0  0  0
 11 14  1  0  0  0  0
 11 33  1  0  0  0  0
 12 13  1  0  0  0  0
 12 34  1  0  0  0  0
 12 35  1  0  0  0  0
 13 36  1  0  0  0  0
 13 37  1  0  0  0  0
 15 18  1  0  0  0  0
 15 38  1  0  0  0  0
 15 39  1  0  0  0  0
 16 40  1  0  0  0  0
 16 41  1  0  0  0  0
 16 42  1  0  0  0  0
 17 19  2  0  0  0  0
 17 20  1  0  0  0  0
 18 21  1  0  0  0  0
 18 22  2  0  0  0  0
 19 23  1  0  0  0  0
 19 43  1  0  0  0  0
 20 25  2  0  0  0  0
 20 44  1  0  0  0  0
 21 26  2  0  0  0  0
 21 45  1  0  0  0  0
 22 46  1  0  0  0  0
 23 24  2  0  0  0  0
 23 27  1  0  0  0  0
 24 25  1  0  0  0  0
 24 28  1  0  0  0  0
 25 47  1  0  0  0  0
 26 31  1  0  0  0  0
 27 29  2  0  0  0  0
 27 48  1  0  0  0  0
 28 30  2  0  0  0  0
 28 49  1  0  0  0  0
 29 30  1  0  0  0  0
 30 50  1  0  0  0  0
 32 54  1  0  0  0  0
 32 55  1  0  0  0  0
 32 56  1  0  0  0  0
M  END
> <PUBCHEM_COMPOUND_CID>
10322586

> <PUBCHEM_CONFORMER_RMSD>
1

> <PUBCHEM_CONFORMER_DIVERSEORDER>
2
262
82
90
205
312
5
73
223
191
270
258
39
187
155
224
76
163
50
188
238
317
93
284
180
242
283
41
268
272
222
198
136
288
251
273
96
260
322
60
134
79
319
237
215
305
207
249
62
16
52
71
192
292
256
135
130
265
301
214
32
119
314
81
234
210
34
33
269
113
143
302
252
111
230
21
243
320
218
91
202
208
118
142
201
244
316
166
281
204
116
294
185
200
25
83
108
162
58
304
80
27
125
170
59
61
140
72
107
275
158
254
227
137
315
186
321
37
154
133
182
236
174
277
290
78
203
225
105
240
10
323
246
253
172
64
145
282
213
24
241
257
178
286
177
35
49
295
109
44
112
138
193
255
229
248
263
89
57
233
261
245
65
19
220
306
156
128
68
297
144
117
147
110
120
199
86
209
289
299
28
122
195
307
124
250
66
69
26
189
267
94
102
98
176
285
115
23
31
196
20
247
46
77
99
97
169
92
151
212
175
318
296
298
300
53
259
279
190
56
266
194
3
104
146
15
219
235
22
311
183
171
63
159
217
274
167
55
264
206
291
101
100
280
239
232
95
45
54
165
75
303
38
123
11
221
313
211
106
7
226
13
132
4
48
231
271
160
43
168
139
30
126
278
8
150
141
9
29
173
216
47
157
153
88
228
309
12
1
179
103
36
276
84
85
51
121
293
67
42
131
197
161
310
184
152
6
114
181
127
18
87
14
40
148
129
287
74
149
308
164
17
70

> <PUBCHEM_MMFF94_PARTIAL_CHARGES>
40
1 1.45
10 -0.85
11 0.42
13 0.3
14 0.57
15 0.48
16 0.36
17 -0.01
18 -0.18
19 -0.15
2 -0.08
20 -0.15
21 -0.15
22 -0.11
25 -0.15
26 -0.05
27 -0.15
28 -0.15
29 0.08
3 -0.57
30 -0.15
31 0.58
32 0.28
4 -0.65
43 0.15
44 0.15
45 0.15
46 0.15
47 0.15
48 0.15
49 0.15
5 -0.65
50 0.15
51 0.4
52 0.4
53 0.4
6 -0.36
7 -0.66
8 -0.85
9 -0.85

> <PUBCHEM_EFFECTIVE_ROTOR_COUNT>
7.8

> <PUBCHEM_PHARMACOPHORE_FEATURES>
11
1 10 donor
1 3 acceptor
1 4 acceptor
1 5 acceptor
1 6 acceptor
1 9 donor
3 9 10 31 cation
5 2 18 21 22 26 rings
5 7 11 12 13 14 rings
6 17 19 20 23 24 25 rings
6 23 24 27 28 29 30 rings

> <PUBCHEM_HEAVY_ATOM_COUNT>
32

> <PUBCHEM_ATOM_DEF_STEREO_COUNT>
1

> <PUBCHEM_ATOM_UDEF_STEREO_COUNT>
0

> <PUBCHEM_BOND_DEF_STEREO_COUNT>
0

> <PUBCHEM_BOND_UDEF_STEREO_COUNT>
0

> <PUBCHEM_ISOTOPIC_ATOM_COUNT>
0

> <PUBCHEM_COMPONENT_COUNT>
1

> <PUBCHEM_CACTVS_TAUTO_COUNT>
2

> <PUBCHEM_CONFORMER_ID>
009D829A00000002

> <PUBCHEM_MMFF94_ENERGY>
84.5902

> <PUBCHEM_FEATURE_SELFOVERLAP>
55.914

> <PUBCHEM_SHAPE_FINGERPRINT>
10674148 151 18131356293988261300
10675989 125 18413107260686211024
11070050 100 17240480269630405954
11135609 201 18262512731453297560
11456790 92 18041553630197165250
11479125 193 18339928215694725953
11720765 8 18201721692528911174
12390115 104 18262797505223503558
13944108 23 18050845524995231916
14251764 75 18411981398726990680
146900 427 18334575694495809031
14747281 78 18198366051311990468
14790565 3 18412258428554760773
14840074 17 18130510739276404889
14848178 5 9079110077241413157
14849402 71 18335129861742315650
15183329 4 13758071853819225111
15274700 21 18124320669174136179
15297060 5 17895489106757914070
16728433 281 17686065294620832180
16992779 147 18409733945615537824
17492 89 8646506119449891732
1768 85 18408602539560367949
17899979 129 18271813453964956124
19309040 13 18129945714542485308
19438510 23 18199179767057358200
20465049 17 18265902358999795086
20691028 202 18272369750824540969
21120745 212 17985251123005297559
21458453 9 17459490990235269865
22122407 14 18268722619125585785
23569914 152 9365964844752221209
23572383 38 10519691302553825709
249057 25 18057579037604512287
25222932 49 13334746721435026206
3178227 256 18189052006693169394
376196 1 18339072817840368790
38570 142 18272661133810099365
4258327 124 18130497537048012725
437795 139 13552060861528735537
437795 51 18261403234100385041
437795 70 13973974177468389595
4756326 101 16055176099931245824
5104073 3 18114451366581924338
5223283 242 17914356605757412758
56638632 10 18124599944837473049
57527585 21 17621583343959595982
57724786 102 18272088279609553957
5951187 136 18201730535233447700
59682541 52 9438819649081479259
6201320 215 16752683392617098508
633830 44 18340755018621715150
7288768 16 17896871252497063930

> <PUBCHEM_SHAPE_MULTIPOLES>
622.84
16.7
5.3
1.84
17.75
2.24
-0.3
19.34
-3.88
-7.14
-1.43
2.24
-0.4
-1.14

> <PUBCHEM_SHAPE_SELFOVERLAP>
1325.809

> <PUBCHEM_SHAPE_VOLUME>
349.4

> <PUBCHEM_COORDINATE_TYPE>
2
5
10

$$$$
