10322821
  -OEChem-03292013303D

 61 65  0     1  0  0  0  0  0999 V2000
   -0.3874    0.9849    1.1007 O   0  0  0  0  0  0  0  0  0  0  0  0
   -0.5800    1.1369   -2.1605 O   0  0  0  0  0  0  0  0  0  0  0  0
   -1.7376   -1.7030   -2.4761 O   0  0  0  0  0  0  0  0  0  0  0  0
   -2.0517   -3.8503   -0.4280 O   0  0  0  0  0  0  0  0  0  0  0  0
   -3.6752    0.1024   -2.1467 O   0  0  0  0  0  0  0  0  0  0  0  0
   -2.3397   -2.0950    0.9975 O   0  0  0  0  0  0  0  0  0  0  0  0
   -5.0064    1.9184    2.0550 O   0  0  0  0  0  0  0  0  0  0  0  0
    5.2360    2.7402   -1.0837 O   0  0  0  0  0  0  0  0  0  0  0  0
    0.2617    0.2208    0.0248 C   0  0  2  0  0  0  0  0  0  0  0  0
   -0.7702    0.1491   -1.1611 C   0  0  2  0  0  0  0  0  0  0  0  0
    0.3783   -1.2800    0.5472 C   0  0  1  0  0  0  0  0  0  0  0  0
   -0.6387   -1.2818   -1.6892 C   0  0  1  0  0  0  0  0  0  0  0  0
   -0.4065   -2.1653   -0.4629 C   0  0  2  0  0  0  0  0  0  0  0  0
   -2.0255    0.5273   -0.4539 C   0  0  0  0  0  0  0  0  0  0  0  0
    1.6034    0.9009   -0.2744 C   0  0  0  0  0  0  0  0  0  0  0  0
   -1.7213    1.0156    0.8040 C   0  0  0  0  0  0  0  0  0  0  0  0
    1.7848   -1.7686    0.8605 C   0  0  0  0  0  0  0  0  0  0  0  0
   -1.6964   -2.6674    0.1303 C   0  0  0  0  0  0  0  0  0  0  0  0
   -3.3394    0.5096   -0.8958 C   0  0  0  0  0  0  0  0  0  0  0  0
    2.1633    0.8102   -1.5489 C   0  0  0  0  0  0  0  0  0  0  0  0
    2.2653    1.6099    0.7286 C   0  0  0  0  0  0  0  0  0  0  0  0
   -2.6919    1.4905    1.6664 C   0  0  0  0  0  0  0  0  0  0  0  0
    2.3444   -1.5109    2.1086 C   0  0  0  0  0  0  0  0  0  0  0  0
    2.5037   -2.4701   -0.1030 C   0  0  0  0  0  0  0  0  0  0  0  0
   -4.3406    0.9749   -0.0388 C   0  0  0  0  0  0  0  0  0  0  0  0
   -4.0181    1.4629    1.2360 C   0  0  0  0  0  0  0  0  0  0  0  0
    3.3841    1.4281   -1.8205 C   0  0  0  0  0  0  0  0  0  0  0  0
    3.4860    2.2278    0.4570 C   0  0  0  0  0  0  0  0  0  0  0  0
    3.6341   -1.9584    2.3956 C   0  0  0  0  0  0  0  0  0  0  0  0
    3.7933   -2.9177    0.1840 C   0  0  0  0  0  0  0  0  0  0  0  0
    4.0454    2.1368   -0.8175 C   0  0  0  0  0  0  0  0  0  0  0  0
    4.3584   -2.6619    1.4333 C   0  0  0  0  0  0  0  0  0  0  0  0
   -5.0612    0.1267   -2.4911 C   0  0  0  0  0  0  0  0  0  0  0  0
   -4.6130    2.4081    3.3355 C   0  0  0  0  0  0  0  0  0  0  0  0
    5.8586    3.4485   -0.0130 C   0  0  0  0  0  0  0  0  0  0  0  0
   -0.1391   -1.3396    1.5157 H   0  0  0  0  0  0  0  0  0  0  0  0
    0.2386   -1.3493   -2.3416 H   0  0  0  0  0  0  0  0  0  0  0  0
    0.1327   -3.0741   -0.7482 H   0  0  0  0  0  0  0  0  0  0  0  0
   -0.5646    0.7008   -3.0290 H   0  0  0  0  0  0  0  0  0  0  0  0
   -1.5782   -2.6276   -2.7315 H   0  0  0  0  0  0  0  0  0  0  0  0
    1.7071    0.2425   -2.3503 H   0  0  0  0  0  0  0  0  0  0  0  0
    1.8595    1.6887    1.7332 H   0  0  0  0  0  0  0  0  0  0  0  0
   -2.3683    1.8556    2.6334 H   0  0  0  0  0  0  0  0  0  0  0  0
    1.7911   -0.9629    2.8663 H   0  0  0  0  0  0  0  0  0  0  0  0
    2.1233   -2.6500   -1.1028 H   0  0  0  0  0  0  0  0  0  0  0  0
   -5.3933    0.9971   -0.3020 H   0  0  0  0  0  0  0  0  0  0  0  0
    3.8191    1.3474   -2.8129 H   0  0  0  0  0  0  0  0  0  0  0  0
    3.9472    2.7596    1.2822 H   0  0  0  0  0  0  0  0  0  0  0  0
   -2.8909   -4.1941   -0.0542 H   0  0  0  0  0  0  0  0  0  0  0  0
    4.0747   -1.7578    3.3678 H   0  0  0  0  0  0  0  0  0  0  0  0
    4.3622   -3.4554   -0.5690 H   0  0  0  0  0  0  0  0  0  0  0  0
    5.3636   -3.0076    1.6557 H   0  0  0  0  0  0  0  0  0  0  0  0
   -5.6467   -0.5473   -1.8565 H   0  0  0  0  0  0  0  0  0  0  0  0
   -5.1434   -0.2507   -3.5157 H   0  0  0  0  0  0  0  0  0  0  0  0
   -5.4572    1.1479   -2.4960 H   0  0  0  0  0  0  0  0  0  0  0  0
   -4.1593    1.6198    3.9459 H   0  0  0  0  0  0  0  0  0  0  0  0
   -5.5232    2.7289    3.8528 H   0  0  0  0  0  0  0  0  0  0  0  0
   -3.9673    3.2887    3.2488 H   0  0  0  0  0  0  0  0  0  0  0  0
    5.2466    4.2937    0.3199 H   0  0  0  0  0  0  0  0  0  0  0  0
    6.1247    2.7784    0.8116 H   0  0  0  0  0  0  0  0  0  0  0  0
    6.7941    3.8645   -0.4014 H   0  0  0  0  0  0  0  0  0  0  0  0
  1  9  1  0  0  0  0
  1 16  1  0  0  0  0
  2 10  1  0  0  0  0
  2 39  1  0  0  0  0
  3 12  1  0  0  0  0
  3 40  1  0  0  0  0
  4 18  1  0  0  0  0
  4 49  1  0  0  0  0
  5 19  1  0  0  0  0
  5 33  1  0  0  0  0
  6 18  2  0  0  0  0
  7 26  1  0  0  0  0
  7 34  1  0  0  0  0
  8 31  1  0  0  0  0
  8 35  1  0  0  0  0
  9 10  1  0  0  0  0
  9 11  1  0  0  0  0
  9 15  1  0  0  0  0
 10 12  1  0  0  0  0
 10 14  1  0  0  0  0
 11 13  1  0  0  0  0
 11 17  1  0  0  0  0
 11 36  1  0  0  0  0
 12 13  1  0  0  0  0
 12 37  1  0  0  0  0
 13 18  1  0  0  0  0
 13 38  1  0  0  0  0
 14 16  2  0  0  0  0
 14 19  1  0  0  0  0
 15 20  2  0  0  0  0
 15 21  1  0  0  0  0
 16 22  1  0  0  0  0
 17 23  2  0  0  0  0
 17 24  1  0  0  0  0
 19 25  2  0  0  0  0
 20 27  1  0  0  0  0
 20 41  1  0  0  0  0
 21 28  2  0  0  0  0
 21 42  1  0  0  0  0
 22 26  2  0  0  0  0
 22 43  1  0  0  0  0
 23 29  1  0  0  0  0
 23 44  1  0  0  0  0
 24 30  2  0  0  0  0
 24 45  1  0  0  0  0
 25 26  1  0  0  0  0
 25 46  1  0  0  0  0
 27 31  2  0  0  0  0
 27 47  1  0  0  0  0
 28 31  1  0  0  0  0
 28 48  1  0  0  0  0
 29 32  2  0  0  0  0
 29 50  1  0  0  0  0
 30 32  1  0  0  0  0
 30 51  1  0  0  0  0
 32 52  1  0  0  0  0
 33 53  1  0  0  0  0
 33 54  1  0  0  0  0
 33 55  1  0  0  0  0
 34 56  1  0  0  0  0
 34 57  1  0  0  0  0
 34 58  1  0  0  0  0
 35 59  1  0  0  0  0
 35 60  1  0  0  0  0
 35 61  1  0  0  0  0
M  END
> <PUBCHEM_COMPOUND_CID>
10322821

> <PUBCHEM_CONFORMER_RMSD>
1

> <PUBCHEM_CONFORMER_DIVERSEORDER>
1
5
4
2
3

> <PUBCHEM_MMFF94_PARTIAL_CHARGES>
49
1 -0.36
10 0.42
11 0.14
12 0.28
13 0.06
14 -0.14
15 -0.14
16 0.08
17 -0.14
18 0.66
19 0.08
2 -0.68
20 -0.15
21 -0.15
22 -0.15
23 -0.15
24 -0.15
25 -0.15
26 0.08
27 -0.15
28 -0.15
29 -0.15
3 -0.68
30 -0.15
31 0.08
32 -0.15
33 0.28
34 0.28
35 0.28
39 0.4
4 -0.65
40 0.4
41 0.15
42 0.15
43 0.15
44 0.15
45 0.15
46 0.15
47 0.15
48 0.15
49 0.5
5 -0.36
50 0.15
51 0.15
52 0.15
6 -0.57
7 -0.36
8 -0.36
9 0.42

> <PUBCHEM_EFFECTIVE_ROTOR_COUNT>
6.8

> <PUBCHEM_PHARMACOPHORE_FEATURES>
16
1 1 acceptor
1 2 acceptor
1 2 donor
1 3 acceptor
1 3 donor
1 4 acceptor
1 5 acceptor
1 6 acceptor
1 7 acceptor
1 8 acceptor
3 4 6 18 anion
5 1 9 10 14 16 rings
5 9 10 11 12 13 rings
6 14 16 19 22 25 26 rings
6 15 20 21 27 28 31 rings
6 17 23 24 29 30 32 rings

> <PUBCHEM_HEAVY_ATOM_COUNT>
35

> <PUBCHEM_ATOM_DEF_STEREO_COUNT>
5

> <PUBCHEM_ATOM_UDEF_STEREO_COUNT>
0

> <PUBCHEM_BOND_DEF_STEREO_COUNT>
0

> <PUBCHEM_BOND_UDEF_STEREO_COUNT>
0

> <PUBCHEM_ISOTOPIC_ATOM_COUNT>
0

> <PUBCHEM_COMPONENT_COUNT>
1

> <PUBCHEM_CACTVS_TAUTO_COUNT>
1

> <PUBCHEM_CONFORMER_ID>
009D838500000001

> <PUBCHEM_MMFF94_ENERGY>
158.4359

> <PUBCHEM_FEATURE_SELFOVERLAP>
81.892

> <PUBCHEM_SHAPE_FINGERPRINT>
10190108 129 17754482331820894563
10863032 1 18408604798528581751
11049842 53 17273988938590193958
11421498 54 17830181555530403475
11578080 2 17603581932687697431
12156800 1 16668019690836817250
12608794 3 18192143811509151523
12633257 1 18264213508859865603
12788726 201 17703218633415764759
13140716 1 18260831479395890099
133893 2 17823396319525983290
13540713 5 18411409639954069794
13583140 156 18263077876261886573
14955137 171 17979088080504194658
15131766 46 18335990869426094437
16090146 7 18270384015476213679
17349148 13 18200018565242572591
17980427 23 18058155151432098858
1813 80 18120924015625721770
21033648 29 16950567649520918909
21033650 10 17132121246728568441
21756936 100 18129957770093645897
21796203 349 17972895656981790410
22182313 1 16877949308488992317
23419403 2 17168429238038560343
23559900 14 18341881975296428690
244849 19 16805600322273457177
25147074 1 18342449352806692119
283562 15 17832427870802239426
3380486 145 17604147120778074477
3633792 109 18265310864493108909
4112364 45 18125172545809697241
460360 51 18260260858794304095
5895379 119 17632291250967568744
59755656 520 18337405932068180356

> <PUBCHEM_SHAPE_MULTIPOLES>
673.33
10.26
4.01
2.57
0.01
1.14
0.5
-6.97
1.87
-4.65
0.76
2.63
-0.57
-4.04

> <PUBCHEM_SHAPE_SELFOVERLAP>
1501.404

> <PUBCHEM_SHAPE_VOLUME>
356.9

> <PUBCHEM_COORDINATE_TYPE>
2
5
10

$$$$
