10323516
  -OEChem-03292013303D

 61 64  0     0  0  0  0  0  0999 V2000
    2.7070    3.4303    0.6366 S   0  0  0  0  0  0  0  0  0  0  0  0
    1.2275    0.2871   -4.1283 F   0  0  0  0  0  0  0  0  0  0  0  0
    4.0567    3.0588    1.0161 O   0  0  0  0  0  0  0  0  0  0  0  0
    2.3854    4.8145    0.3466 O   0  0  0  0  0  0  0  0  0  0  0  0
    4.4355   -5.0713   -0.8383 O   0  0  0  0  0  0  0  0  0  0  0  0
    2.8522   -6.0460    0.4664 O   0  0  0  0  0  0  0  0  0  0  0  0
   -0.9107    1.3700    1.5230 N   0  0  0  0  0  0  0  0  0  0  0  0
    1.6126    2.8431    1.7967 N   0  0  0  0  0  0  0  0  0  0  0  0
   -6.0973   -0.0230   -0.3861 N   0  0  0  0  0  0  0  0  0  0  0  0
   -1.6654    0.1235   -0.1513 C   0  0  0  0  0  0  0  0  0  0  0  0
   -0.1948    0.1950    1.5732 C   0  0  0  0  0  0  0  0  0  0  0  0
   -0.6518   -0.6094    0.5271 C   0  0  0  0  0  0  0  0  0  0  0  0
   -1.8017    1.3362    0.4842 C   0  0  0  0  0  0  0  0  0  0  0  0
   -0.7421    2.4816    2.4366 C   0  0  0  0  0  0  0  0  0  0  0  0
   -2.4349   -0.3342   -1.3273 C   0  0  0  0  0  0  0  0  0  0  0  0
   -0.0774   -1.8840    0.3511 C   0  0  0  0  0  0  0  0  0  0  0  0
    0.8117   -0.2130    2.4556 C   0  0  0  0  0  0  0  0  0  0  0  0
    0.9303   -2.3055    1.2262 C   0  0  0  0  0  0  0  0  0  0  0  0
    0.2943    3.4947    1.9642 C   0  0  0  0  0  0  0  0  0  0  0  0
   -2.7064    2.4683    0.1902 C   0  0  0  0  0  0  0  0  0  0  0  0
    1.3665   -1.4813    2.2615 C   0  0  0  0  0  0  0  0  0  0  0  0
    1.5436   -3.6546    1.0460 C   0  0  0  0  0  0  0  0  0  0  0  0
   -3.8221   -0.7014   -0.8424 C   0  0  0  0  0  0  0  0  0  0  0  0
    2.7663   -3.6566    0.1219 C   0  0  0  0  0  0  0  0  0  0  0  0
   -4.1139   -1.9926   -0.4165 C   0  0  0  0  0  0  0  0  0  0  0  0
   -4.8397    0.2383   -0.8079 C   0  0  0  0  0  0  0  0  0  0  0  0
    2.2634    2.4880   -0.7917 C   0  0  0  0  0  0  0  0  0  0  0  0
    3.3277   -5.0465   -0.0571 C   0  0  0  0  0  0  0  0  0  0  0  0
   -5.3962   -2.3001    0.0244 C   0  0  0  0  0  0  0  0  0  0  0  0
    2.8823    1.2625   -1.0385 C   0  0  0  0  0  0  0  0  0  0  0  0
    1.2946    2.9700   -1.6719 C   0  0  0  0  0  0  0  0  0  0  0  0
   -6.3434   -1.2889    0.0202 C   0  0  0  0  0  0  0  0  0  0  0  0
    2.5322    0.5190   -2.1656 C   0  0  0  0  0  0  0  0  0  0  0  0
    0.9447    2.2265   -2.7990 C   0  0  0  0  0  0  0  0  0  0  0  0
    1.5635    1.0010   -3.0459 C   0  0  0  0  0  0  0  0  0  0  0  0
   -0.4603    2.0728    3.4138 H   0  0  0  0  0  0  0  0  0  0  0  0
   -1.7140    2.9637    2.5866 H   0  0  0  0  0  0  0  0  0  0  0  0
   -2.4940    0.4485   -2.0932 H   0  0  0  0  0  0  0  0  0  0  0  0
   -1.9683   -1.1973   -1.8157 H   0  0  0  0  0  0  0  0  0  0  0  0
   -0.4123   -2.5303   -0.4556 H   0  0  0  0  0  0  0  0  0  0  0  0
    1.1524    0.4082    3.2760 H   0  0  0  0  0  0  0  0  0  0  0  0
    0.3929    4.2947    2.7051 H   0  0  0  0  0  0  0  0  0  0  0  0
   -0.0274    3.9403    1.0182 H   0  0  0  0  0  0  0  0  0  0  0  0
   -3.6328    2.3854    0.7663 H   0  0  0  0  0  0  0  0  0  0  0  0
   -2.2537    3.4362    0.4237 H   0  0  0  0  0  0  0  0  0  0  0  0
   -2.9464    2.5169   -0.8757 H   0  0  0  0  0  0  0  0  0  0  0  0
    2.1495   -1.8172    2.9377 H   0  0  0  0  0  0  0  0  0  0  0  0
    1.8213   -4.0644    2.0268 H   0  0  0  0  0  0  0  0  0  0  0  0
    0.7852   -4.3486    0.6585 H   0  0  0  0  0  0  0  0  0  0  0  0
    1.9961    2.3902    2.6349 H   0  0  0  0  0  0  0  0  0  0  0  0
    3.5531   -3.0192    0.5411 H   0  0  0  0  0  0  0  0  0  0  0  0
    2.4921   -3.2703   -0.8664 H   0  0  0  0  0  0  0  0  0  0  0  0
   -3.3513   -2.7664   -0.4239 H   0  0  0  0  0  0  0  0  0  0  0  0
   -4.7041    1.2486   -1.1731 H   0  0  0  0  0  0  0  0  0  0  0  0
   -5.6463   -3.2997    0.3610 H   0  0  0  0  0  0  0  0  0  0  0  0
    3.6325    0.8648   -0.3611 H   0  0  0  0  0  0  0  0  0  0  0  0
    0.7942    3.9179   -1.4964 H   0  0  0  0  0  0  0  0  0  0  0  0
   -7.3583   -1.4772    0.3548 H   0  0  0  0  0  0  0  0  0  0  0  0
    3.0110   -0.4370   -2.3560 H   0  0  0  0  0  0  0  0  0  0  0  0
    0.1883    2.5998   -3.4829 H   0  0  0  0  0  0  0  0  0  0  0  0
    4.7956   -5.9787   -0.9345 H   0  0  0  0  0  0  0  0  0  0  0  0
  1  3  2  0  0  0  0
  1  4  2  0  0  0  0
  1  8  1  0  0  0  0
  1 27  1  0  0  0  0
  2 35  1  0  0  0  0
  5 28  1  0  0  0  0
  5 61  1  0  0  0  0
  6 28  2  0  0  0  0
  7 11  1  0  0  0  0
  7 13  1  0  0  0  0
  7 14  1  0  0  0  0
  8 19  1  0  0  0  0
  8 50  1  0  0  0  0
  9 26  1  0  0  0  0
  9 32  2  0  0  0  0
 10 12  1  0  0  0  0
 10 13  2  0  0  0  0
 10 15  1  0  0  0  0
 11 12  2  0  0  0  0
 11 17  1  0  0  0  0
 12 16  1  0  0  0  0
 13 20  1  0  0  0  0
 14 19  1  0  0  0  0
 14 36  1  0  0  0  0
 14 37  1  0  0  0  0
 15 23  1  0  0  0  0
 15 38  1  0  0  0  0
 15 39  1  0  0  0  0
 16 18  2  0  0  0  0
 16 40  1  0  0  0  0
 17 21  2  0  0  0  0
 17 41  1  0  0  0  0
 18 21  1  0  0  0  0
 18 22  1  0  0  0  0
 19 42  1  0  0  0  0
 19 43  1  0  0  0  0
 20 44  1  0  0  0  0
 20 45  1  0  0  0  0
 20 46  1  0  0  0  0
 21 47  1  0  0  0  0
 22 24  1  0  0  0  0
 22 48  1  0  0  0  0
 22 49  1  0  0  0  0
 23 25  1  0  0  0  0
 23 26  2  0  0  0  0
 24 28  1  0  0  0  0
 24 51  1  0  0  0  0
 24 52  1  0  0  0  0
 25 29  2  0  0  0  0
 25 53  1  0  0  0  0
 26 54  1  0  0  0  0
 27 30  2  0  0  0  0
 27 31  1  0  0  0  0
 29 32  1  0  0  0  0
 29 55  1  0  0  0  0
 30 33  1  0  0  0  0
 30 56  1  0  0  0  0
 31 34  2  0  0  0  0
 31 57  1  0  0  0  0
 32 58  1  0  0  0  0
 33 35  2  0  0  0  0
 33 59  1  0  0  0  0
 34 35  1  0  0  0  0
 34 60  1  0  0  0  0
M  END
> <PUBCHEM_COMPOUND_CID>
10323516

> <PUBCHEM_CONFORMER_RMSD>
1.2

> <PUBCHEM_CONFORMER_DIVERSEORDER>
1
216
11
162
16
215
89
92
205
159
28
187
107
139
186
138
94
77
176
21
168
128
64
50
102
112
195
173
192
85
172
210
193
109
180
44
140
119
196
154
54
201
9
79
51
43
121
29
142
133
191
146
69
59
203
199
198
74
13
163
7
104
106
105
100
177
82
169
214
52
153
80
182
62
46
25
75
114
17
113
73
56
134
188
130
90
152
30
125
160
171
194
211
31
206
71
200
87
116
115
126
40
110
148
132
175
35
158
166
141
202
151
127
19
63
6
181
58
189
145
178
155
143
137
149
118
88
12
144
66
208
131
136
150
76
20
111
124
122
190
99
170
183
129
23
197
70
165
212
147
78
95
61
217
185
41
2
42
101
117
86
123
157
97
57
33
135
24
48
174
167
47
81
96
22
32
207
84
91
10
55
98
72
67
83
49
209
156
184
26
8
45
34
120
27
4
36
37
60
65
179
68
15
108
93
38
53
18
204
213
14
3
103
164
5
161
39

> <PUBCHEM_MMFF94_PARTIAL_CHARGES>
47
1 1.45
10 -0.18
11 -0.15
13 -0.33
14 0.26
15 0.32
16 -0.15
17 -0.15
18 -0.14
19 0.36
2 -0.19
20 0.18
21 -0.15
22 0.14
23 -0.14
24 0.06
25 -0.15
26 0.16
27 -0.01
28 0.66
29 -0.15
3 -0.65
30 -0.15
31 -0.15
32 0.16
33 -0.15
34 -0.15
35 0.19
4 -0.65
40 0.15
41 0.15
47 0.15
5 -0.65
50 0.42
53 0.15
54 0.15
55 0.15
56 0.15
57 0.15
58 0.15
59 0.15
6 -0.57
60 0.15
61 0.5
7 0.05
8 -0.91
9 -0.62

> <PUBCHEM_EFFECTIVE_ROTOR_COUNT>
10

> <PUBCHEM_PHARMACOPHORE_FEATURES>
12
1 3 acceptor
1 4 acceptor
1 5 acceptor
1 6 acceptor
1 7 cation
1 8 donor
1 9 acceptor
3 5 6 28 anion
5 7 10 11 12 13 rings
6 11 12 16 17 18 21 rings
6 27 30 31 33 34 35 rings
6 9 23 25 26 29 32 rings

> <PUBCHEM_HEAVY_ATOM_COUNT>
35

> <PUBCHEM_ATOM_DEF_STEREO_COUNT>
0

> <PUBCHEM_ATOM_UDEF_STEREO_COUNT>
0

> <PUBCHEM_BOND_DEF_STEREO_COUNT>
0

> <PUBCHEM_BOND_UDEF_STEREO_COUNT>
0

> <PUBCHEM_ISOTOPIC_ATOM_COUNT>
0

> <PUBCHEM_COMPONENT_COUNT>
1

> <PUBCHEM_CACTVS_TAUTO_COUNT>
1

> <PUBCHEM_CONFORMER_ID>
009D863C00000001

> <PUBCHEM_MMFF94_ENERGY>
58.89

> <PUBCHEM_FEATURE_SELFOVERLAP>
61.065

> <PUBCHEM_SHAPE_FINGERPRINT>
11445158 3 17829565700527733704
11763715 3 18052555278429676562
12156800 1 17271453387451455700
12422481 6 16953899242535681941
13009979 54 18125163727740197323
131258 43 18199753544602591286
14251757 17 17557442164784956029
14747281 78 17409668970296870425
15849732 13 16734651190897604968
17686467 74 18122615056300044410
19319366 153 18197212762177408031
20600515 1 17127049006179245249
20771845 140 17972036118335893755
21120745 212 17909272386243418402
21716022 299 18341900662234481466
23559900 14 18265039263984158979
27425 322 17620173774216566957
469060 322 15294697438842500478
5081480 168 17751621192512469895
57527452 28 18115299115890700392
6669772 16 18055065721199826576
9925002 15 17837225782889254800

> <PUBCHEM_SHAPE_MULTIPOLES>
678.44
8.8
7.07
2.83
17.08
10.5
-1.59
2.66
-2.39
-11.98
1.47
-2.26
-1.84
-0.09

> <PUBCHEM_SHAPE_SELFOVERLAP>
1455.258

> <PUBCHEM_SHAPE_VOLUME>
379.7

> <PUBCHEM_COORDINATE_TYPE>
2
5
10

$$$$
