10321583
  -OEChem-03292013303D

 64 66  0     1  0  0  0  0  0999 V2000
   -7.5766    1.2465    0.5389 S   0  0  0  0  0  0  0  0  0  0  0  0
   -1.5640    0.8954   -1.8566 O   0  0  0  0  0  0  0  0  0  0  0  0
    0.4248   -3.0226    0.0357 O   0  0  0  0  0  0  0  0  0  0  0  0
   -1.8236   -3.4584    1.3922 O   0  0  0  0  0  0  0  0  0  0  0  0
   -8.2058    2.6443   -0.0184 O   0  0  0  0  0  0  0  0  0  0  0  0
   -7.3957    1.3554    1.9748 O   0  0  0  0  0  0  0  0  0  0  0  0
   -8.3040    0.1389   -0.0532 O   0  0  0  0  0  0  0  0  0  0  0  0
   -3.7895    0.4042   -0.4954 N   0  0  0  0  0  0  0  0  0  0  0  0
    4.2527    0.9084   -0.6025 C   0  0  2  0  0  0  0  0  0  0  0  0
    4.5028    0.1545    0.7486 C   0  0  2  0  0  0  0  0  0  0  0  0
    3.2011    0.2732   -1.5617 C   0  0  2  0  0  0  0  0  0  0  0  0
    1.8444    0.0063   -0.8182 C   0  0  2  0  0  0  0  0  0  0  0  0
    3.1264   -0.0637    1.4269 C   0  0  0  0  0  0  0  0  0  0  0  0
    2.0885   -0.7333    0.5178 C   0  0  0  0  0  0  0  0  0  0  0  0
    5.5775    1.2824   -1.2864 C   0  0  0  0  0  0  0  0  0  0  0  0
    5.4458    1.0111    1.6215 C   0  0  0  0  0  0  0  0  0  0  0  0
    0.8736   -0.8371   -1.6745 C   0  0  0  0  0  0  0  0  0  0  0  0
    5.2106   -1.2109    0.5856 C   0  0  0  0  0  0  0  0  0  0  0  0
    3.7146   -0.9341   -2.3614 C   0  0  0  0  0  0  0  0  0  0  0  0
    1.1210    1.3485   -0.5414 C   0  0  0  0  0  0  0  0  0  0  0  0
    6.4010    2.2088   -0.3891 C   0  0  0  0  0  0  0  0  0  0  0  0
    6.2850    1.9147    1.0773 C   0  0  0  0  0  0  0  0  0  0  0  0
    5.4429    0.8025    3.1141 C   0  0  0  0  0  0  0  0  0  0  0  0
   -0.4209   -1.0278   -0.9804 C   0  0  0  0  0  0  0  0  0  0  0  0
   -1.5092   -0.2356   -1.0612 C   0  0  0  0  0  0  0  0  0  0  0  0
   -0.4940   -2.2275   -0.1009 C   0  0  0  0  0  0  0  0  0  0  0  0
   -2.7536   -0.4805   -0.3275 C   0  0  0  0  0  0  0  0  0  0  0  0
   -1.7592   -2.4834    0.6597 C   0  0  0  0  0  0  0  0  0  0  0  0
   -2.8744   -1.5416    0.4868 C   0  0  0  0  0  0  0  0  0  0  0  0
   -5.0418    0.2858    0.1963 C   0  0  0  0  0  0  0  0  0  0  0  0
   -6.0006    1.3757   -0.2473 C   0  0  0  0  0  0  0  0  0  0  0  0
    3.8178    1.8810   -0.3263 H   0  0  0  0  0  0  0  0  0  0  0  0
    2.9971    1.0385   -2.3266 H   0  0  0  0  0  0  0  0  0  0  0  0
    2.7270    0.8988    1.7725 H   0  0  0  0  0  0  0  0  0  0  0  0
    3.2385   -0.6831    2.3266 H   0  0  0  0  0  0  0  0  0  0  0  0
    2.4239   -1.7572    0.3256 H   0  0  0  0  0  0  0  0  0  0  0  0
    1.1753   -0.7868    1.1194 H   0  0  0  0  0  0  0  0  0  0  0  0
    5.3887    1.7881   -2.2410 H   0  0  0  0  0  0  0  0  0  0  0  0
    6.1688    0.3910   -1.5198 H   0  0  0  0  0  0  0  0  0  0  0  0
    1.3017   -1.8123   -1.9338 H   0  0  0  0  0  0  0  0  0  0  0  0
    0.7058   -0.3368   -2.6381 H   0  0  0  0  0  0  0  0  0  0  0  0
    5.3910   -1.6819    1.5596 H   0  0  0  0  0  0  0  0  0  0  0  0
    4.6257   -1.9314    0.0163 H   0  0  0  0  0  0  0  0  0  0  0  0
    6.1864   -1.1175    0.0978 H   0  0  0  0  0  0  0  0  0  0  0  0
    3.6815   -1.8654   -1.7945 H   0  0  0  0  0  0  0  0  0  0  0  0
    3.0958   -1.0843   -3.2538 H   0  0  0  0  0  0  0  0  0  0  0  0
    4.7341   -0.7885   -2.7264 H   0  0  0  0  0  0  0  0  0  0  0  0
    1.7792    2.0725   -0.0523 H   0  0  0  0  0  0  0  0  0  0  0  0
    0.7919    1.8255   -1.4709 H   0  0  0  0  0  0  0  0  0  0  0  0
    0.2737    1.2515    0.1435 H   0  0  0  0  0  0  0  0  0  0  0  0
    6.0749    3.2441   -0.5489 H   0  0  0  0  0  0  0  0  0  0  0  0
    7.4537    2.1603   -0.6903 H   0  0  0  0  0  0  0  0  0  0  0  0
    6.9360    2.4981    1.7242 H   0  0  0  0  0  0  0  0  0  0  0  0
    6.2270    1.3831    3.6125 H   0  0  0  0  0  0  0  0  0  0  0  0
    5.6150   -0.2486    3.3633 H   0  0  0  0  0  0  0  0  0  0  0  0
    4.4868    1.1140    3.5458 H   0  0  0  0  0  0  0  0  0  0  0  0
   -3.7684   -1.7701    1.0553 H   0  0  0  0  0  0  0  0  0  0  0  0
   -2.0032    1.6001   -1.3513 H   0  0  0  0  0  0  0  0  0  0  0  0
   -3.7269    1.0715   -1.2559 H   0  0  0  0  0  0  0  0  0  0  0  0
   -4.8869    0.3598    1.2797 H   0  0  0  0  0  0  0  0  0  0  0  0
   -5.5036   -0.6879   -0.0099 H   0  0  0  0  0  0  0  0  0  0  0  0
   -6.1685    1.3371   -1.3291 H   0  0  0  0  0  0  0  0  0  0  0  0
   -5.5893    2.3604    0.0011 H   0  0  0  0  0  0  0  0  0  0  0  0
   -7.8291    3.4662    0.3754 H   0  0  0  0  0  0  0  0  0  0  0  0
  1  5  1  0  0  0  0
  1  6  2  0  0  0  0
  1  7  2  0  0  0  0
  1 31  1  0  0  0  0
  2 25  1  0  0  0  0
  2 58  1  0  0  0  0
  3 26  2  0  0  0  0
  4 28  2  0  0  0  0
  5 64  1  0  0  0  0
  8 27  1  0  0  0  0
  8 30  1  0  0  0  0
  8 59  1  0  0  0  0
  9 10  1  0  0  0  0
  9 11  1  0  0  0  0
  9 15  1  0  0  0  0
  9 32  1  0  0  0  0
 10 13  1  0  0  0  0
 10 16  1  0  0  0  0
 10 18  1  0  0  0  0
 11 12  1  0  0  0  0
 11 19  1  0  0  0  0
 11 33  1  0  0  0  0
 12 14  1  0  0  0  0
 12 17  1  0  0  0  0
 12 20  1  0  0  0  0
 13 14  1  0  0  0  0
 13 34  1  0  0  0  0
 13 35  1  0  0  0  0
 14 36  1  0  0  0  0
 14 37  1  0  0  0  0
 15 21  1  0  0  0  0
 15 38  1  0  0  0  0
 15 39  1  0  0  0  0
 16 22  2  0  0  0  0
 16 23  1  0  0  0  0
 17 24  1  0  0  0  0
 17 40  1  0  0  0  0
 17 41  1  0  0  0  0
 18 42  1  0  0  0  0
 18 43  1  0  0  0  0
 18 44  1  0  0  0  0
 19 45  1  0  0  0  0
 19 46  1  0  0  0  0
 19 47  1  0  0  0  0
 20 48  1  0  0  0  0
 20 49  1  0  0  0  0
 20 50  1  0  0  0  0
 21 22  1  0  0  0  0
 21 51  1  0  0  0  0
 21 52  1  0  0  0  0
 22 53  1  0  0  0  0
 23 54  1  0  0  0  0
 23 55  1  0  0  0  0
 23 56  1  0  0  0  0
 24 25  2  0  0  0  0
 24 26  1  0  0  0  0
 25 27  1  0  0  0  0
 26 28  1  0  0  0  0
 27 29  2  0  0  0  0
 28 29  1  0  0  0  0
 29 57  1  0  0  0  0
 30 31  1  0  0  0  0
 30 60  1  0  0  0  0
 30 61  1  0  0  0  0
 31 62  1  0  0  0  0
 31 63  1  0  0  0  0
M  END
> <PUBCHEM_COMPOUND_CID>
10321583

> <PUBCHEM_CONFORMER_RMSD>
1

> <PUBCHEM_CONFORMER_DIVERSEORDER>
2
3
17
10
9
16
12
11
4
13
15
5
18
14
8
1
6
7
19

> <PUBCHEM_MMFF94_PARTIAL_CHARGES>
27
1 1.38
10 0.14
16 -0.28
17 0.14
2 -0.53
21 0.14
22 -0.29
23 0.14
24 -0.12
25 0.08
26 0.56
27 0.1
28 0.56
29 -0.14
3 -0.57
30 0.37
31 0.11
4 -0.57
5 -0.68
53 0.15
57 0.15
58 0.45
59 0.4
6 -0.65
64 0.5
7 -0.65
8 -0.87

> <PUBCHEM_EFFECTIVE_ROTOR_COUNT>
7.2

> <PUBCHEM_PHARMACOPHORE_FEATURES>
12
1 2 donor
1 3 acceptor
1 4 acceptor
1 5 acceptor
1 6 acceptor
1 7 acceptor
1 8 cation
1 8 donor
4 1 5 6 7 anion
6 24 25 26 27 28 29 rings
6 9 10 11 12 13 14 rings
6 9 10 15 16 21 22 rings

> <PUBCHEM_HEAVY_ATOM_COUNT>
31

> <PUBCHEM_ATOM_DEF_STEREO_COUNT>
4

> <PUBCHEM_ATOM_UDEF_STEREO_COUNT>
0

> <PUBCHEM_BOND_DEF_STEREO_COUNT>
0

> <PUBCHEM_BOND_UDEF_STEREO_COUNT>
0

> <PUBCHEM_ISOTOPIC_ATOM_COUNT>
0

> <PUBCHEM_COMPONENT_COUNT>
1

> <PUBCHEM_CACTVS_TAUTO_COUNT>
20

> <PUBCHEM_CONFORMER_ID>
009D7EAF00000002

> <PUBCHEM_MMFF94_ENERGY>
93.2997

> <PUBCHEM_FEATURE_SELFOVERLAP>
60.983

> <PUBCHEM_SHAPE_FINGERPRINT>
10 15 17967254204389879469
10319688 67 18333448768503135915
10906281 52 18341336672814533156
10939801 23 17894918459480066220
12166972 35 12679464200744309322
12422481 6 17604139351108408430
12633257 1 18186798123149860860
13673619 4 11025795405634336807
13685833 64 13479131293869811293
13726171 33 17971776598989602508
13782708 43 11818987491826520393
14251764 18 18186519934508992221
14294032 229 18409444826055917551
14767858 380 12823297901290712213
14931854 50 13254800131425477313
15238133 3 18335704965925631436
15475509 35 14779539072387637256
15510800 12 11602827856967021009
16728300 4 16444447019300322601
16994733 274 17703505524515144753
17349148 13 11743575305482623414
17492 54 13973963233485679399
20105231 36 16950559944840233530
20157964 124 16630527319202439590
2026 5 8213328237969693064
20554085 129 18342168969094579331
21033648 29 17987789839112425280
21421861 104 17531234068608366170
21424621 283 18272939289257164225
21637258 2 12540697024699548231
22224240 67 18334011688528896751
23559900 14 18337968835236001998
23576562 1 13254208607825237321
24771293 8 18409731764436841597
2838139 119 17632286831583676737
3388396 114 12822442588540235610
3633792 109 15410905032808223860
4093350 32 17703792483474191158
4340502 62 18335704906086291623
504579 68 13686303477930226693
5104073 3 17677325160156245672
5385378 56 18336544919615862931
563151 248 15502382240282243945
5718773 13 8646499509216122440
5758199 1 18412548700410353353
59682541 52 14620802591501985204
86090 222 13335012747272501472

> <PUBCHEM_SHAPE_MULTIPOLES>
601.62
20.48
2.61
1.99
34.36
1.23
0.48
-18.71
6.27
1.56
0.72
-2.85
-0.13
0.66

> <PUBCHEM_SHAPE_SELFOVERLAP>
1254.408

> <PUBCHEM_SHAPE_VOLUME>
343

> <PUBCHEM_COORDINATE_TYPE>
2
5
10

$$$$
