10321333
  -OEChem-03292013303D

 54 57  0     1  0  0  0  0  0999 V2000
    0.7554   -0.8144   -1.2941 O   0  0  0  0  0  0  0  0  0  0  0  0
    1.3975    0.8480    0.2820 O   0  0  0  0  0  0  0  0  0  0  0  0
   -0.0913   -2.3799    1.1283 O   0  0  0  0  0  0  0  0  0  0  0  0
    3.2256   -0.9294    1.2832 O   0  0  0  0  0  0  0  0  0  0  0  0
   -1.7865   -1.8654   -0.8545 O   0  0  0  0  0  0  0  0  0  0  0  0
   -3.0306    3.0896    0.5569 O   0  0  0  0  0  0  0  0  0  0  0  0
   -4.1849   -2.6884   -0.5132 O   0  0  0  0  0  0  0  0  0  0  0  0
    4.4835    3.0801    0.0262 O   0  0  0  0  0  0  0  0  0  0  0  0
    3.5386    1.9196   -1.6888 O   0  0  0  0  0  0  0  0  0  0  0  0
    4.9321   -2.4858    1.3299 O   0  0  0  0  0  0  0  0  0  0  0  0
    0.5014   -0.2576    0.0067 C   0  0  2  0  0  0  0  0  0  0  0  0
    0.8337   -1.2971    1.1236 C   0  0  2  0  0  0  0  0  0  0  0  0
    2.2373   -1.8991    0.9503 C   0  0  1  0  0  0  0  0  0  0  0  0
   -0.9707    0.1935    0.0336 C   0  0  0  0  0  0  0  0  0  0  0  0
    2.4404   -2.3800   -0.4871 C   0  0  0  0  0  0  0  0  0  0  0  0
    2.0929   -1.2794   -1.4916 C   0  0  1  0  0  0  0  0  0  0  0  0
    1.0076    2.0903   -0.2894 C   0  0  1  0  0  0  0  0  0  0  0  0
   -1.3173    1.4703    0.2800 C   0  0  0  0  0  0  0  0  0  0  0  0
   -0.2687    2.5393    0.4143 C   0  0  0  0  0  0  0  0  0  0  0  0
   -2.0415   -0.7864   -0.3309 C   0  0  0  0  0  0  0  0  0  0  0  0
    2.1386    3.0843   -0.0689 C   0  0  0  0  0  0  0  0  0  0  0  0
    2.1875   -1.7996   -2.9203 C   0  0  0  0  0  0  0  0  0  0  0  0
   -2.7343    1.9148    0.3718 C   0  0  0  0  0  0  0  0  0  0  0  0
   -3.4453   -0.4184   -0.0783 C   0  0  0  0  0  0  0  0  0  0  0  0
   -3.7818    0.8891    0.2588 C   0  0  0  0  0  0  0  0  0  0  0  0
   -4.4489   -1.3878   -0.1991 C   0  0  0  0  0  0  0  0  0  0  0  0
    3.4279    2.6149   -0.6902 C   0  0  0  0  0  0  0  0  0  0  0  0
   -5.1209    1.2342    0.4780 C   0  0  0  0  0  0  0  0  0  0  0  0
    4.5234   -1.3432    1.1733 C   0  0  0  0  0  0  0  0  0  0  0  0
   -5.7826   -1.0435    0.0231 C   0  0  0  0  0  0  0  0  0  0  0  0
   -6.1182    0.2658    0.3610 C   0  0  0  0  0  0  0  0  0  0  0  0
    5.4001   -0.1785    0.8255 C   0  0  0  0  0  0  0  0  0  0  0  0
    0.7708   -0.7985    2.0998 H   0  0  0  0  0  0  0  0  0  0  0  0
    2.3485   -2.7524    1.6322 H   0  0  0  0  0  0  0  0  0  0  0  0
    3.4575   -2.7363   -0.6758 H   0  0  0  0  0  0  0  0  0  0  0  0
    1.7724   -3.2356   -0.6540 H   0  0  0  0  0  0  0  0  0  0  0  0
    2.7878   -0.4423   -1.3887 H   0  0  0  0  0  0  0  0  0  0  0  0
    0.8432    1.9587   -1.3676 H   0  0  0  0  0  0  0  0  0  0  0  0
   -0.6053    3.4818   -0.0325 H   0  0  0  0  0  0  0  0  0  0  0  0
   -0.0898    2.7138    1.4826 H   0  0  0  0  0  0  0  0  0  0  0  0
    1.8910    4.0646   -0.4889 H   0  0  0  0  0  0  0  0  0  0  0  0
    2.3092    3.1986    1.0094 H   0  0  0  0  0  0  0  0  0  0  0  0
    3.1950   -2.1612   -3.1470 H   0  0  0  0  0  0  0  0  0  0  0  0
    1.4740   -2.6134   -3.0908 H   0  0  0  0  0  0  0  0  0  0  0  0
    1.9337   -1.0059   -3.6313 H   0  0  0  0  0  0  0  0  0  0  0  0
    0.1152   -2.9431    1.8935 H   0  0  0  0  0  0  0  0  0  0  0  0
   -5.4067    2.2490    0.7415 H   0  0  0  0  0  0  0  0  0  0  0  0
   -6.5731   -1.7846   -0.0620 H   0  0  0  0  0  0  0  0  0  0  0  0
   -7.1568    0.5332    0.5331 H   0  0  0  0  0  0  0  0  0  0  0  0
    5.1889    0.6609    1.4928 H   0  0  0  0  0  0  0  0  0  0  0  0
    5.2385    0.1036   -0.2168 H   0  0  0  0  0  0  0  0  0  0  0  0
    6.4477   -0.4622    0.9600 H   0  0  0  0  0  0  0  0  0  0  0  0
   -5.0164   -3.1917   -0.5428 H   0  0  0  0  0  0  0  0  0  0  0  0
    5.3399    2.7907   -0.3547 H   0  0  0  0  0  0  0  0  0  0  0  0
  1 11  1  0  0  0  0
  1 16  1  0  0  0  0
  2 11  1  0  0  0  0
  2 17  1  0  0  0  0
  3 12  1  0  0  0  0
  3 46  1  0  0  0  0
  4 13  1  0  0  0  0
  4 29  1  0  0  0  0
  5 20  2  0  0  0  0
  6 23  2  0  0  0  0
  7 26  1  0  0  0  0
  7 53  1  0  0  0  0
  8 27  1  0  0  0  0
  8 54  1  0  0  0  0
  9 27  2  0  0  0  0
 10 29  2  0  0  0  0
 11 12  1  0  0  0  0
 11 14  1  0  0  0  0
 12 13  1  0  0  0  0
 12 33  1  0  0  0  0
 13 15  1  0  0  0  0
 13 34  1  0  0  0  0
 14 18  2  0  0  0  0
 14 20  1  0  0  0  0
 15 16  1  0  0  0  0
 15 35  1  0  0  0  0
 15 36  1  0  0  0  0
 16 22  1  0  0  0  0
 16 37  1  0  0  0  0
 17 19  1  0  0  0  0
 17 21  1  0  0  0  0
 17 38  1  0  0  0  0
 18 19  1  0  0  0  0
 18 23  1  0  0  0  0
 19 39  1  0  0  0  0
 19 40  1  0  0  0  0
 20 24  1  0  0  0  0
 21 27  1  0  0  0  0
 21 41  1  0  0  0  0
 21 42  1  0  0  0  0
 22 43  1  0  0  0  0
 22 44  1  0  0  0  0
 22 45  1  0  0  0  0
 23 25  1  0  0  0  0
 24 25  2  0  0  0  0
 24 26  1  0  0  0  0
 25 28  1  0  0  0  0
 26 30  2  0  0  0  0
 28 31  2  0  0  0  0
 28 47  1  0  0  0  0
 29 32  1  0  0  0  0
 30 31  1  0  0  0  0
 30 48  1  0  0  0  0
 31 49  1  0  0  0  0
 32 50  1  0  0  0  0
 32 51  1  0  0  0  0
 32 52  1  0  0  0  0
M  END
> <PUBCHEM_COMPOUND_CID>
10321333

> <PUBCHEM_CONFORMER_RMSD>
0.8

> <PUBCHEM_CONFORMER_DIVERSEORDER>
1
7
18
14
12
13
5
15
11
9
8
16
4
17
10
6
19
2
3
20

> <PUBCHEM_MMFF94_PARTIAL_CHARGES>
36
1 -0.56
10 -0.57
11 0.7
12 0.28
13 0.28
14 -0.12
16 0.28
17 0.28
18 -0.12
19 0.14
2 -0.56
20 0.47
21 0.06
23 0.47
24 0.09
25 0.09
26 0.08
27 0.66
28 -0.15
29 0.66
3 -0.68
30 -0.15
31 -0.15
32 0.06
4 -0.43
46 0.4
47 0.15
48 0.15
49 0.15
5 -0.57
53 0.45
54 0.5
6 -0.57
7 -0.53
8 -0.65
9 -0.57

> <PUBCHEM_EFFECTIVE_ROTOR_COUNT>
5.6

> <PUBCHEM_PHARMACOPHORE_FEATURES>
15
1 1 acceptor
1 10 acceptor
1 2 acceptor
1 3 acceptor
1 3 donor
1 5 acceptor
1 6 acceptor
1 7 donor
1 8 acceptor
1 9 acceptor
3 8 9 27 anion
6 1 11 12 13 15 16 rings
6 14 18 20 23 24 25 rings
6 2 11 14 17 18 19 rings
6 24 25 26 28 30 31 rings

> <PUBCHEM_HEAVY_ATOM_COUNT>
32

> <PUBCHEM_ATOM_DEF_STEREO_COUNT>
5

> <PUBCHEM_ATOM_UDEF_STEREO_COUNT>
0

> <PUBCHEM_BOND_DEF_STEREO_COUNT>
0

> <PUBCHEM_BOND_UDEF_STEREO_COUNT>
0

> <PUBCHEM_ISOTOPIC_ATOM_COUNT>
0

> <PUBCHEM_COMPONENT_COUNT>
1

> <PUBCHEM_CACTVS_TAUTO_COUNT>
14

> <PUBCHEM_CONFORMER_ID>
009D7DB500000001

> <PUBCHEM_MMFF94_ENERGY>
83.3186

> <PUBCHEM_FEATURE_SELFOVERLAP>
76.276

> <PUBCHEM_SHAPE_FINGERPRINT>
10906281 52 18339938081318421962
1100329 8 18335416885099556099
11578080 2 17749655317082480381
11963148 33 17975689816639327747
12166972 35 17386290874824988022
12236239 1 17895196537158263395
12422481 6 18272079483648289952
12788726 201 17988935448883269721
13140716 1 18409452445106276505
14787075 74 18040998397772583890
14790565 3 18410294739574250521
14849402 71 18260269694090749172
14955137 171 18059853940041767240
15238133 3 18115879490520776527
15664445 248 18270413671766242454
15927050 60 17979915244345684232
17909252 39 17702125615525391700
17980427 23 18200292386982863014
1813 80 17677617458345345806
20600515 1 17838894833187927080
20691752 17 17676778603692501397
20905425 154 18342463663632818108
21033648 29 17344323598155524579
21267235 1 18410014295226193235
21360443 120 18042408101114382924
21421861 104 18410865368944956313
22182313 1 17845091757915192983
23557571 272 18059012761579455314
23559900 14 17986970552119585607
23566358 2 18413112753722497045
25147074 1 18271522091941517431
338550 245 18334574650634503568
3411729 13 18337956800320828484
350125 39 18408319973525047817
3680242 22 18336552624744422539
4280585 95 17983032063178404166
460360 51 18188793711074212889
474 4 17896610659198068701
5104073 3 18409741672962933737
5895379 119 18129673980192606336
59755656 215 18340215188250433685
6138700 20 18339933696827115796
67856867 119 18408882962106658097
6823239 73 17987815007372808446

> <PUBCHEM_SHAPE_MULTIPOLES>
599.85
11.45
3.7
1.42
7.18
1.82
0.78
-1.34
-2.15
-2.38
0.2
-1.9
-0.9
-1.43

> <PUBCHEM_SHAPE_SELFOVERLAP>
1313.604

> <PUBCHEM_SHAPE_VOLUME>
318.1

> <PUBCHEM_COORDINATE_TYPE>
2
5
10

$$$$
