10333115
  -OEChem-03292013303D

 29 30  0     0  0  0  0  0  0999 V2000
   -0.4411   -1.6528    0.0564 O   0  0  0  0  0  0  0  0  0  0  0  0
   -0.4054    2.8593    0.4237 O   0  0  0  0  0  0  0  0  0  0  0  0
    4.3703    0.9225   -0.1101 O   0  0  0  0  0  0  0  0  0  0  0  0
    4.3772   -1.8382    0.0552 O   0  0  0  0  0  0  0  0  0  0  0  0
   -2.9606   -2.2316    0.0959 O   0  0  0  0  0  0  0  0  0  0  0  0
   -2.2983    2.1509   -0.6782 O   0  0  0  0  0  0  0  0  0  0  0  0
   -3.6101   -0.0271   -0.0331 O   0  0  0  0  0  0  0  0  0  0  0  0
    0.7765    0.2463   -0.0598 C   0  0  0  0  0  0  0  0  0  0  0  0
    0.8216   -1.1415    0.0229 C   0  0  0  0  0  0  0  0  0  0  0  0
   -0.6018    0.5873   -0.0767 C   0  0  0  0  0  0  0  0  0  0  0  0
   -1.2954   -0.5984   -0.0043 C   0  0  0  0  0  0  0  0  0  0  0  0
    1.9891    0.9562   -0.1052 C   0  0  0  0  0  0  0  0  0  0  0  0
    2.0001   -1.8842    0.0647 C   0  0  0  0  0  0  0  0  0  0  0  0
    3.1913    0.2366   -0.0650 C   0  0  0  0  0  0  0  0  0  0  0  0
    3.1939   -1.1581    0.0186 C   0  0  0  0  0  0  0  0  0  0  0  0
   -1.1943    1.8917   -0.1540 C   0  0  0  0  0  0  0  0  0  0  0  0
   -2.6912   -0.8811    0.0159 C   0  0  0  0  0  0  0  0  0  0  0  0
   -0.8905    4.2061    0.4108 C   0  0  0  0  0  0  0  0  0  0  0  0
   -4.3314   -2.6439    0.1223 C   0  0  0  0  0  0  0  0  0  0  0  0
    1.9994    2.0396   -0.1764 H   0  0  0  0  0  0  0  0  0  0  0  0
    1.9882   -2.9661    0.1292 H   0  0  0  0  0  0  0  0  0  0  0  0
    4.1818    1.8750   -0.1665 H   0  0  0  0  0  0  0  0  0  0  0  0
    5.1031   -1.1915    0.0147 H   0  0  0  0  0  0  0  0  0  0  0  0
   -0.1497    4.8400    0.9053 H   0  0  0  0  0  0  0  0  0  0  0  0
   -1.8345    4.2710    0.9596 H   0  0  0  0  0  0  0  0  0  0  0  0
   -1.0182    4.5495   -0.6199 H   0  0  0  0  0  0  0  0  0  0  0  0
   -4.8326   -2.2248    0.9996 H   0  0  0  0  0  0  0  0  0  0  0  0
   -4.3587   -3.7347    0.1865 H   0  0  0  0  0  0  0  0  0  0  0  0
   -4.8353   -2.3306   -0.7967 H   0  0  0  0  0  0  0  0  0  0  0  0
  1  9  1  0  0  0  0
  1 11  1  0  0  0  0
  2 16  1  0  0  0  0
  2 18  1  0  0  0  0
  3 14  1  0  0  0  0
  3 22  1  0  0  0  0
  4 15  1  0  0  0  0
  4 23  1  0  0  0  0
  5 17  1  0  0  0  0
  5 19  1  0  0  0  0
  6 16  2  0  0  0  0
  7 17  2  0  0  0  0
  8  9  1  0  0  0  0
  8 10  1  0  0  0  0
  8 12  2  0  0  0  0
  9 13  2  0  0  0  0
 10 11  2  0  0  0  0
 10 16  1  0  0  0  0
 11 17  1  0  0  0  0
 12 14  1  0  0  0  0
 12 20  1  0  0  0  0
 13 15  1  0  0  0  0
 13 21  1  0  0  0  0
 14 15  2  0  0  0  0
 18 24  1  0  0  0  0
 18 25  1  0  0  0  0
 18 26  1  0  0  0  0
 19 27  1  0  0  0  0
 19 28  1  0  0  0  0
 19 29  1  0  0  0  0
M  END
> <PUBCHEM_COMPOUND_CID>
10333115

> <PUBCHEM_CONFORMER_RMSD>
0.6

> <PUBCHEM_CONFORMER_DIVERSEORDER>
1
11
7
10
6
12
2
8
5
9
4
3

> <PUBCHEM_MMFF94_PARTIAL_CHARGES>
22
1 -0.28
10 -0.09
11 0.05
12 -0.15
13 -0.15
14 0.08
15 0.08
16 0.81
17 0.81
18 0.28
19 0.28
2 -0.43
20 0.15
21 0.15
22 0.45
23 0.45
3 -0.53
4 -0.53
5 -0.43
6 -0.57
7 -0.57
9 0.14

> <PUBCHEM_EFFECTIVE_ROTOR_COUNT>
4

> <PUBCHEM_PHARMACOPHORE_FEATURES>
7
1 1 acceptor
1 3 donor
1 4 donor
1 6 acceptor
1 7 acceptor
5 1 8 9 10 11 rings
6 8 9 12 13 14 15 rings

> <PUBCHEM_HEAVY_ATOM_COUNT>
19

> <PUBCHEM_ATOM_DEF_STEREO_COUNT>
0

> <PUBCHEM_ATOM_UDEF_STEREO_COUNT>
0

> <PUBCHEM_BOND_DEF_STEREO_COUNT>
0

> <PUBCHEM_BOND_UDEF_STEREO_COUNT>
0

> <PUBCHEM_ISOTOPIC_ATOM_COUNT>
0

> <PUBCHEM_COMPONENT_COUNT>
1

> <PUBCHEM_CACTVS_TAUTO_COUNT>
10

> <PUBCHEM_CONFORMER_ID>
009DABBB00000001

> <PUBCHEM_MMFF94_ENERGY>
39.0545

> <PUBCHEM_FEATURE_SELFOVERLAP>
35.637

> <PUBCHEM_SHAPE_FINGERPRINT>
10319926 262 18052792803855387322
10411042 1 18411138064724125418
10608611 8 18339638932867786204
108231 29 18264771128537111731
10967382 1 18050287264918646388
12032990 46 18410014381099411883
12403259 226 18342172259266283696
12553582 1 18268984465521660398
13140716 1 18411698759856022809
138480 1 15384438306122149297
14178342 30 18120075201196828818
14787075 74 17970629816529435074
14790565 3 17616824665840504021
15042514 8 18338520725189381043
15196674 1 18409730677002876702
15442244 35 17976537217933575722
15906896 17 17983565321822233325
16945 1 18123473765330007126
17492 89 18337106774774993642
18785283 64 17541664250093571497
20510252 161 18412544293119981608
21029758 11 18338794632491692823
21267235 1 18337400446978510558
21296965 67 18339079401507872439
21501502 16 18335987454746543926
21524375 3 17611475124800135408
2334 1 18410572907135765389
23402539 116 18341607161359995390
23419403 2 17828735642047260461
23557571 272 18342745078627199004
23558518 356 18262246499784856050
23559900 14 18268702828090020658
2748010 2 18341314678350449781
3091708 16 9207304332499280185
335352 9 18193838141420423518
34934 24 18410568492336893351
350125 39 18266183838018232664
352729 6 18195804064016178647
5104073 3 18411136935316227258
54173680 148 18338516322399321225
7364860 26 17835522991834179609
81228 2 18261970534950603265
8809292 202 18334016072989366795
9709674 26 18198623220615280278

> <PUBCHEM_SHAPE_MULTIPOLES>
349.93
6.86
3.79
0.62
1.56
3.79
0
-4.98
-0.06
-2.59
0.47
-0.05
0.1
0.1

> <PUBCHEM_SHAPE_SELFOVERLAP>
763.355

> <PUBCHEM_SHAPE_VOLUME>
192.8

> <PUBCHEM_COORDINATE_TYPE>
2
5
10

$$$$
