10334480
  -OEChem-03292013303D

 30 31  0     1  0  0  0  0  0999 V2000
    2.2028    1.6669   -0.0702 S   0  0  1  0  0  0  0  0  0  0  0  0
   -0.6861    2.8681   -0.5552 S   0  0  0  0  0  0  0  0  0  0  0  0
    1.2811    3.2708   -0.9549 S   0  0  0  0  0  0  0  0  0  0  0  0
   -2.8981    0.7977   -0.3143 O   0  0  0  0  0  0  0  0  0  0  0  0
   -2.5747   -1.8633    0.3087 O   0  0  0  0  0  0  0  0  0  0  0  0
    2.3836    2.2159    1.3144 O   0  0  0  0  0  0  0  0  0  0  0  0
    4.1761   -2.5250   -0.4001 N   0  0  0  0  0  0  0  0  0  0  0  0
    0.9074   -0.7500    0.3753 C   0  0  0  0  0  0  0  0  0  0  0  0
    0.7555    0.5993    0.0535 C   0  0  0  0  0  0  0  0  0  0  0  0
    2.2468   -1.3642    0.6258 C   0  0  0  0  0  0  0  0  0  0  0  0
   -0.5210    1.1314   -0.1852 C   0  0  0  0  0  0  0  0  0  0  0  0
   -0.2180   -1.5698    0.4594 C   0  0  0  0  0  0  0  0  0  0  0  0
   -1.6436    0.3063   -0.0952 C   0  0  0  0  0  0  0  0  0  0  0  0
   -1.4891   -1.0436    0.2246 C   0  0  0  0  0  0  0  0  0  0  0  0
    2.8811   -1.9058   -0.6621 C   0  0  0  0  0  0  0  0  0  0  0  0
   -3.8287    0.6973    0.7607 C   0  0  0  0  0  0  0  0  0  0  0  0
   -2.9752   -2.5318   -0.8852 C   0  0  0  0  0  0  0  0  0  0  0  0
    2.9234   -0.6667    1.1326 H   0  0  0  0  0  0  0  0  0  0  0  0
    2.1328   -2.1904    1.3423 H   0  0  0  0  0  0  0  0  0  0  0  0
   -0.1141   -2.6244    0.7045 H   0  0  0  0  0  0  0  0  0  0  0  0
    3.0125   -1.1011   -1.3941 H   0  0  0  0  0  0  0  0  0  0  0  0
    2.2225   -2.6522   -1.1212 H   0  0  0  0  0  0  0  0  0  0  0  0
    4.8111   -1.8340   -0.0027 H   0  0  0  0  0  0  0  0  0  0  0  0
    4.5926   -2.8230   -1.2812 H   0  0  0  0  0  0  0  0  0  0  0  0
   -3.3341    0.6503    1.7373 H   0  0  0  0  0  0  0  0  0  0  0  0
   -4.4740   -0.1740    0.6180 H   0  0  0  0  0  0  0  0  0  0  0  0
   -4.4603    1.5904    0.7429 H   0  0  0  0  0  0  0  0  0  0  0  0
   -2.1806   -3.1977   -1.2364 H   0  0  0  0  0  0  0  0  0  0  0  0
   -3.2315   -1.8084   -1.6658 H   0  0  0  0  0  0  0  0  0  0  0  0
   -3.8610   -3.1321   -0.6610 H   0  0  0  0  0  0  0  0  0  0  0  0
  1  3  1  0  0  0  0
  1  6  2  0  0  0  0
  1  9  1  0  0  0  0
  2  3  1  0  0  0  0
  2 11  1  0  0  0  0
  4 13  1  0  0  0  0
  4 16  1  0  0  0  0
  5 14  1  0  0  0  0
  5 17  1  0  0  0  0
  7 15  1  0  0  0  0
  7 23  1  0  0  0  0
  7 24  1  0  0  0  0
  8  9  1  0  0  0  0
  8 10  1  0  0  0  0
  8 12  2  0  0  0  0
  9 11  2  0  0  0  0
 10 15  1  0  0  0  0
 10 18  1  0  0  0  0
 10 19  1  0  0  0  0
 11 13  1  0  0  0  0
 12 14  1  0  0  0  0
 12 20  1  0  0  0  0
 13 14  2  0  0  0  0
 15 21  1  0  0  0  0
 15 22  1  0  0  0  0
 16 25  1  0  0  0  0
 16 26  1  0  0  0  0
 16 27  1  0  0  0  0
 17 28  1  0  0  0  0
 17 29  1  0  0  0  0
 17 30  1  0  0  0  0
M  END
> <PUBCHEM_COMPOUND_CID>
10334480

> <PUBCHEM_CONFORMER_RMSD>
0.6

> <PUBCHEM_CONFORMER_DIVERSEORDER>
1
16
29
23
21
2
28
27
26
25
11
9
24
22
18
7
3
15
14
13
6
10
20
12
5
19
17
4
8

> <PUBCHEM_MMFF94_PARTIAL_CHARGES>
20
1 0.48
10 0.14
11 0.1
12 -0.15
13 0.08
14 0.08
15 0.27
16 0.28
17 0.28
2 -0.1
20 0.15
23 0.36
24 0.36
3 -0.05
4 -0.36
5 -0.36
6 -0.5
7 -0.99
8 -0.14
9 0.06

> <PUBCHEM_EFFECTIVE_ROTOR_COUNT>
4.4

> <PUBCHEM_PHARMACOPHORE_FEATURES>
6
1 4 acceptor
1 5 acceptor
1 7 cation
1 7 donor
5 1 2 3 9 11 rings
6 8 9 11 12 13 14 rings

> <PUBCHEM_HEAVY_ATOM_COUNT>
17

> <PUBCHEM_ATOM_DEF_STEREO_COUNT>
0

> <PUBCHEM_ATOM_UDEF_STEREO_COUNT>
1

> <PUBCHEM_BOND_DEF_STEREO_COUNT>
0

> <PUBCHEM_BOND_UDEF_STEREO_COUNT>
0

> <PUBCHEM_ISOTOPIC_ATOM_COUNT>
0

> <PUBCHEM_COMPONENT_COUNT>
1

> <PUBCHEM_CACTVS_TAUTO_COUNT>
1

> <PUBCHEM_CONFORMER_ID>
009DB11000000001

> <PUBCHEM_MMFF94_ENERGY>
53.6417

> <PUBCHEM_FEATURE_SELFOVERLAP>
30.484

> <PUBCHEM_SHAPE_FINGERPRINT>
10756046 5 18338226172169149215
10967382 1 18408040706140246281
11578080 2 16952504941959203044
11680986 33 18410293635630310537
12553582 1 18263355893710965123
13140716 1 18409164411487541267
13380535 21 18337962289019682545
14178342 30 18267858570099539889
14790565 3 17977679614578265348
15442244 35 18412267229174748139
15490181 8 17901109933803570504
15536298 74 18341612645938033330
16945 1 18192699064722844891
193761 8 18336827588724837285
19591789 44 18120660132323216133
20510252 161 17834959668276606434
20671657 1 18337967756566174541
20871999 31 17978793411435163732
20905425 154 18411985771552175140
21029758 11 18197490719253844112
21029758 27 18118136783038542112
21501502 16 18339923817742633267
21524375 3 17612304560631988456
2334 1 18336261361700871707
23366157 5 18114180891084692178
23388829 49 17907565175413333463
23402539 116 18125150533452795903
23419403 2 17485333744104346720
23526114 1 18410013277303061126
23557571 272 17984146951195352694
23558518 356 18337673135000565075
23559900 14 18340479088331628056
23566358 27 18191884507153655311
23598291 2 18342459248807149919
23598294 1 17758390782108622874
2748010 2 18335695070215349767
352729 6 16895383993682104338
59554788 170 18336552594701321853
7364860 26 18342458179317776824
7832392 63 18410859884335016217
81228 2 18265043635432256387
84936 31 17346872365209285574

> <PUBCHEM_SHAPE_MULTIPOLES>
338.81
5.46
3.96
0.95
1.1
1.12
-0.03
-3.07
0.05
-2.14
1.02
-0.12
0.14
-0.06

> <PUBCHEM_SHAPE_SELFOVERLAP>
670.292

> <PUBCHEM_SHAPE_VOLUME>
205.3

> <PUBCHEM_COORDINATE_TYPE>
2
5
10

$$$$
