10338814
  -OEChem-03292013303D

 49 50  0     1  0  0  0  0  0999 V2000
    4.3218    2.1689    0.8116 S   0  0  0  0  0  0  0  0  0  0  0  0
    1.7162   -2.1361   -0.5675 O   0  0  0  0  0  0  0  0  0  0  0  0
    4.2188   -2.3468    0.4957 O   0  0  0  0  0  0  0  0  0  0  0  0
    2.6317    2.1429   -1.9881 O   0  0  0  0  0  0  0  0  0  0  0  0
   -3.7454    0.7099    0.5833 O   0  0  0  0  0  0  0  0  0  0  0  0
    2.1776    0.0485   -1.1736 N   0  0  0  0  0  0  0  0  0  0  0  0
    4.7054   -0.2656   -0.3270 N   0  0  0  0  0  0  0  0  0  0  0  0
    2.3594   -0.9432   -0.1300 C   0  0  1  0  0  0  0  0  0  0  0  0
    1.7289   -0.5138    1.1897 C   0  0  0  0  0  0  0  0  0  0  0  0
    3.8357   -1.2753    0.0258 C   0  0  0  0  0  0  0  0  0  0  0  0
    4.3167    1.0946   -0.6362 C   0  0  1  0  0  0  0  0  0  0  0  0
    0.2691   -0.1871    1.0281 C   0  0  0  0  0  0  0  0  0  0  0  0
    2.9830    1.1538   -1.3449 C   0  0  0  0  0  0  0  0  0  0  0  0
   -0.6777   -1.1887    1.1934 C   0  0  0  0  0  0  0  0  0  0  0  0
   -0.1116    1.1108    0.7154 C   0  0  0  0  0  0  0  0  0  0  0  0
    2.2423   -2.5906   -1.8081 C   0  0  0  0  0  0  0  0  0  0  0  0
   -2.0312   -0.8866    1.0432 C   0  0  0  0  0  0  0  0  0  0  0  0
   -1.4651    1.4131    0.5653 C   0  0  0  0  0  0  0  0  0  0  0  0
   -2.4249    0.4143    0.7292 C   0  0  0  0  0  0  0  0  0  0  0  0
    6.0091    1.8493    1.3789 C   0  0  0  0  0  0  0  0  0  0  0  0
   -4.5963   -0.3340    0.1121 C   0  0  0  0  0  0  0  0  0  0  0  0
   -5.7181    0.2574   -0.6824 C   0  0  0  0  0  0  0  0  0  0  0  0
   -7.0422    0.1357   -0.4701 C   0  0  0  0  0  0  0  0  0  0  0  0
   -7.6784   -0.6397    0.6485 C   0  0  0  0  0  0  0  0  0  0  0  0
   -8.0248    0.8083   -1.3924 C   0  0  0  0  0  0  0  0  0  0  0  0
    1.8309   -1.3182    1.9316 H   0  0  0  0  0  0  0  0  0  0  0  0
    2.2429    0.3450    1.6315 H   0  0  0  0  0  0  0  0  0  0  0  0
    1.2826    0.0561   -1.6534 H   0  0  0  0  0  0  0  0  0  0  0  0
    5.0655    1.4677   -1.3442 H   0  0  0  0  0  0  0  0  0  0  0  0
    5.6978   -0.4555   -0.2269 H   0  0  0  0  0  0  0  0  0  0  0  0
   -0.3835   -2.2038    1.4452 H   0  0  0  0  0  0  0  0  0  0  0  0
    0.6249    1.8995    0.5920 H   0  0  0  0  0  0  0  0  0  0  0  0
    3.3077   -2.8317   -1.7768 H   0  0  0  0  0  0  0  0  0  0  0  0
    1.7206   -3.5225   -2.0505 H   0  0  0  0  0  0  0  0  0  0  0  0
    2.0324   -1.8975   -2.6284 H   0  0  0  0  0  0  0  0  0  0  0  0
   -2.7464   -1.6872    1.2068 H   0  0  0  0  0  0  0  0  0  0  0  0
   -1.7658    2.4285    0.3220 H   0  0  0  0  0  0  0  0  0  0  0  0
    6.2479    2.5467    2.1867 H   0  0  0  0  0  0  0  0  0  0  0  0
    6.1031    0.8338    1.7718 H   0  0  0  0  0  0  0  0  0  0  0  0
    6.7267    2.0049    0.5690 H   0  0  0  0  0  0  0  0  0  0  0  0
   -4.0626   -1.0077   -0.5715 H   0  0  0  0  0  0  0  0  0  0  0  0
   -4.9423   -0.9123    0.9715 H   0  0  0  0  0  0  0  0  0  0  0  0
   -5.3918    0.8487   -1.5375 H   0  0  0  0  0  0  0  0  0  0  0  0
   -8.3288   -1.4206    0.2400 H   0  0  0  0  0  0  0  0  0  0  0  0
   -6.9630   -1.1292    1.3112 H   0  0  0  0  0  0  0  0  0  0  0  0
   -8.2897    0.0271    1.2658 H   0  0  0  0  0  0  0  0  0  0  0  0
   -8.6776    0.0632   -1.8589 H   0  0  0  0  0  0  0  0  0  0  0  0
   -8.6470    1.5146   -0.8329 H   0  0  0  0  0  0  0  0  0  0  0  0
   -7.5309    1.3656   -2.1954 H   0  0  0  0  0  0  0  0  0  0  0  0
  1 11  1  0  0  0  0
  1 20  1  0  0  0  0
  2  8  1  0  0  0  0
  2 16  1  0  0  0  0
  3 10  2  0  0  0  0
  4 13  2  0  0  0  0
  5 19  1  0  0  0  0
  5 21  1  0  0  0  0
  6  8  1  0  0  0  0
  6 13  1  0  0  0  0
  6 28  1  0  0  0  0
  7 10  1  0  0  0  0
  7 11  1  0  0  0  0
  7 30  1  0  0  0  0
  8  9  1  0  0  0  0
  8 10  1  0  0  0  0
  9 12  1  0  0  0  0
  9 26  1  0  0  0  0
  9 27  1  0  0  0  0
 11 13  1  0  0  0  0
 11 29  1  0  0  0  0
 12 14  2  0  0  0  0
 12 15  1  0  0  0  0
 14 17  1  0  0  0  0
 14 31  1  0  0  0  0
 15 18  2  0  0  0  0
 15 32  1  0  0  0  0
 16 33  1  0  0  0  0
 16 34  1  0  0  0  0
 16 35  1  0  0  0  0
 17 19  2  0  0  0  0
 17 36  1  0  0  0  0
 18 19  1  0  0  0  0
 18 37  1  0  0  0  0
 20 38  1  0  0  0  0
 20 39  1  0  0  0  0
 20 40  1  0  0  0  0
 21 22  1  0  0  0  0
 21 41  1  0  0  0  0
 21 42  1  0  0  0  0
 22 23  2  0  0  0  0
 22 43  1  0  0  0  0
 23 24  1  0  0  0  0
 23 25  1  0  0  0  0
 24 44  1  0  0  0  0
 24 45  1  0  0  0  0
 24 46  1  0  0  0  0
 25 47  1  0  0  0  0
 25 48  1  0  0  0  0
 25 49  1  0  0  0  0
M  END
> <PUBCHEM_COMPOUND_CID>
10338814

> <PUBCHEM_CONFORMER_RMSD>
0.8

> <PUBCHEM_CONFORMER_DIVERSEORDER>
1
127
134
148
18
55
163
15
131
117
152
66
142
133
80
150
75
115
146
124
143
140
116
71
128
20
147
107
126
145
105
109
6
100
64
158
149
96
137
92
130
26
84
28
160
33
87
11
122
13
119
110
138
153
132
68
161
95
123
118
51
121
86
65
21
91
97
88
151
114
159
94
103
69
99
136
85
83
141
78
98
36
81
139
144
101
77
90
89
30
108
32
50
40
125
59
46
112
27
16
164
17
135
45
34
157
49
12
25
48
104
62
156
41
37
93
154
79
2
74
106
60
57
162
22
31
44
129
72
82
58
67
73
35
63
19
102
14
42
47
54
113
39
23
56
10
5
3
38
29
155
52
8
111
70
120
24
4
165
76
61
53
7
9
43

> <PUBCHEM_MMFF94_PARTIAL_CHARGES>
32
1 -0.46
10 0.57
11 0.59
12 -0.14
13 0.57
14 -0.15
15 -0.15
16 0.28
17 -0.15
18 -0.15
19 0.08
2 -0.56
20 0.23
21 0.42
22 -0.29
23 -0.28
24 0.14
25 0.14
28 0.37
3 -0.57
30 0.37
31 0.15
32 0.15
36 0.15
37 0.15
4 -0.57
43 0.15
5 -0.36
6 -0.73
7 -0.73
8 0.64
9 0.14

> <PUBCHEM_EFFECTIVE_ROTOR_COUNT>
7.8

> <PUBCHEM_PHARMACOPHORE_FEATURES>
10
1 2 acceptor
1 20 hydrophobe
1 3 acceptor
1 4 acceptor
1 5 acceptor
1 6 donor
1 7 donor
3 23 24 25 hydrophobe
6 12 14 15 17 18 19 rings
6 6 7 8 10 11 13 rings

> <PUBCHEM_HEAVY_ATOM_COUNT>
25

> <PUBCHEM_ATOM_DEF_STEREO_COUNT>
2

> <PUBCHEM_ATOM_UDEF_STEREO_COUNT>
0

> <PUBCHEM_BOND_DEF_STEREO_COUNT>
0

> <PUBCHEM_BOND_UDEF_STEREO_COUNT>
0

> <PUBCHEM_ISOTOPIC_ATOM_COUNT>
0

> <PUBCHEM_COMPONENT_COUNT>
1

> <PUBCHEM_CACTVS_TAUTO_COUNT>
4

> <PUBCHEM_CONFORMER_ID>
009DC1FE00000001

> <PUBCHEM_MMFF94_ENERGY>
89.5909

> <PUBCHEM_FEATURE_SELFOVERLAP>
50.759

> <PUBCHEM_SHAPE_FINGERPRINT>
10316853 100 13758069718978283013
11135609 127 18336540629465988349
11135609 149 17753307812636548735
11796584 16 15985098618596132047
12633257 1 17023463170408986912
13150687 139 17917721240471872676
13533116 47 18409730621358154154
15119646 104 17917152711092397159
15183329 4 17822009775450158517
15475509 35 12823022975690989204
15537594 2 17060333016550777007
1813 80 16128659639488941113
19319366 153 18130500860498476007
20157964 124 18259988179804665926
20511986 3 18339349855509097263
20715895 44 17967532389273824797
21150785 3 17704067435123500785
21521721 280 18201722881659748283
21774942 28 17823120251718316293
22149856 69 18338536187699226171
23522609 53 16916527925103214745
23559900 14 18187658989816545954
24771750 20 17756719885745348109
2838139 119 15864340377366548445
29717793 49 18339925918435100895
3004659 81 18410294675065442331
3472631 163 17458914845624940925
34797466 226 17132122363489065505
4325135 7 17418371419850925256
4340502 62 18260547848593172139
46194498 28 18260551095741234551
465052 167 11384120743215529857
57527585 21 14832220162325362672
59682541 52 18201994405497758173
6327066 14 18054788649203651456
8509985 295 12251902607161162111
8988823 20 18202281415943956480

> <PUBCHEM_SHAPE_MULTIPOLES>
484.9
17.73
2.25
1.53
37.69
0.66
-0.47
-4.49
-2.93
-4.06
-0.38
-0.53
-0.13
0.99

> <PUBCHEM_SHAPE_SELFOVERLAP>
992.495

> <PUBCHEM_SHAPE_VOLUME>
283.1

> <PUBCHEM_COORDINATE_TYPE>
2
5
10

$$$$
