10337481
  -OEChem-03292013303D

 39 41  0     1  0  0  0  0  0999 V2000
   -2.5083    2.4691    0.4112 F   0  0  0  0  0  0  0  0  0  0  0  0
    3.8278    1.1011   -0.6024 O   0  0  0  0  0  0  0  0  0  0  0  0
    2.2118    2.6191   -0.1250 O   0  0  0  0  0  0  0  0  0  0  0  0
    6.9455   -2.1224   -0.1306 O   0  0  0  0  0  0  0  0  0  0  0  0
    1.7057    0.3389   -0.5036 N   0  0  0  0  0  0  0  0  0  0  0  0
    5.8188   -0.3623    0.8913 N   0  0  0  0  0  0  0  0  0  0  0  0
   -3.8599    0.0708    0.0868 N   0  0  0  0  0  0  0  0  0  0  0  0
   -4.5786    1.1715    0.3903 N   0  0  0  0  0  0  0  0  0  0  0  0
   -8.0308   -2.1709    0.1187 N   0  0  0  0  0  0  0  0  0  0  0  0
    3.9158   -0.3294   -0.6615 C   0  0  2  0  0  0  0  0  0  0  0  0
    2.4976   -0.7813   -0.9363 C   0  0  0  0  0  0  0  0  0  0  0  0
    4.4631   -0.8435    0.6629 C   0  0  0  0  0  0  0  0  0  0  0  0
    0.2913    0.2716   -0.3529 C   0  0  0  0  0  0  0  0  0  0  0  0
    2.5191    1.4615   -0.3723 C   0  0  0  0  0  0  0  0  0  0  0  0
   -0.4387    1.4217   -0.0376 C   0  0  0  0  0  0  0  0  0  0  0  0
   -0.3776   -0.9449   -0.5199 C   0  0  0  0  0  0  0  0  0  0  0  0
   -2.4864    0.1396   -0.0586 C   0  0  0  0  0  0  0  0  0  0  0  0
   -1.8244    1.3559    0.1093 C   0  0  0  0  0  0  0  0  0  0  0  0
   -1.7630   -1.0108   -0.3731 C   0  0  0  0  0  0  0  0  0  0  0  0
    6.9356   -1.0514    0.4706 C   0  0  0  0  0  0  0  0  0  0  0  0
   -4.6305   -1.0537   -0.0494 C   0  0  0  0  0  0  0  0  0  0  0  0
    8.2064   -0.3206    0.8119 C   0  0  0  0  0  0  0  0  0  0  0  0
   -5.9266   -0.6605    0.1792 C   0  0  0  0  0  0  0  0  0  0  0  0
   -5.8342    0.7189    0.4449 C   0  0  0  0  0  0  0  0  0  0  0  0
   -7.0795   -1.4881    0.1462 C   0  0  0  0  0  0  0  0  0  0  0  0
    4.5807   -0.6094   -1.4861 H   0  0  0  0  0  0  0  0  0  0  0  0
    2.3327   -0.9170   -2.0113 H   0  0  0  0  0  0  0  0  0  0  0  0
    2.2566   -1.7059   -0.4040 H   0  0  0  0  0  0  0  0  0  0  0  0
    4.4688   -1.9386    0.6803 H   0  0  0  0  0  0  0  0  0  0  0  0
    3.8660   -0.4817    1.5071 H   0  0  0  0  0  0  0  0  0  0  0  0
    5.9298    0.5283    1.3674 H   0  0  0  0  0  0  0  0  0  0  0  0
    0.0106    2.3949    0.1071 H   0  0  0  0  0  0  0  0  0  0  0  0
    0.1423   -1.8634   -0.7734 H   0  0  0  0  0  0  0  0  0  0  0  0
   -2.2181   -1.9843   -0.5181 H   0  0  0  0  0  0  0  0  0  0  0  0
   -4.2430   -2.0334   -0.2905 H   0  0  0  0  0  0  0  0  0  0  0  0
    9.0667   -0.9666    0.6160 H   0  0  0  0  0  0  0  0  0  0  0  0
    8.2869    0.5803    0.1974 H   0  0  0  0  0  0  0  0  0  0  0  0
    8.2112   -0.0427    1.8699 H   0  0  0  0  0  0  0  0  0  0  0  0
   -6.6266    1.4169    0.6762 H   0  0  0  0  0  0  0  0  0  0  0  0
  1 18  1  0  0  0  0
  2 10  1  0  0  0  0
  2 14  1  0  0  0  0
  3 14  2  0  0  0  0
  4 20  2  0  0  0  0
  5 11  1  0  0  0  0
  5 13  1  0  0  0  0
  5 14  1  0  0  0  0
  6 12  1  0  0  0  0
  6 20  1  0  0  0  0
  6 31  1  0  0  0  0
  7  8  1  0  0  0  0
  7 17  1  0  0  0  0
  7 21  1  0  0  0  0
  8 24  2  0  0  0  0
  9 25  3  0  0  0  0
 10 11  1  0  0  0  0
 10 12  1  0  0  0  0
 10 26  1  0  0  0  0
 11 27  1  0  0  0  0
 11 28  1  0  0  0  0
 12 29  1  0  0  0  0
 12 30  1  0  0  0  0
 13 15  2  0  0  0  0
 13 16  1  0  0  0  0
 15 18  1  0  0  0  0
 15 32  1  0  0  0  0
 16 19  2  0  0  0  0
 16 33  1  0  0  0  0
 17 18  2  0  0  0  0
 17 19  1  0  0  0  0
 19 34  1  0  0  0  0
 20 22  1  0  0  0  0
 21 23  2  0  0  0  0
 21 35  1  0  0  0  0
 22 36  1  0  0  0  0
 22 37  1  0  0  0  0
 22 38  1  0  0  0  0
 23 24  1  0  0  0  0
 23 25  1  0  0  0  0
 24 39  1  0  0  0  0
M  END
> <PUBCHEM_COMPOUND_CID>
10337481

> <PUBCHEM_CONFORMER_RMSD>
0.8

> <PUBCHEM_CONFORMER_DIVERSEORDER>
1
50
58
38
17
80
44
68
12
30
16
64
70
23
35
57
25
43
73
36
67
59
63
27
18
40
74
3
60
37
72
77
7
61
14
39
32
79
31
26
76
48
10
22
46
34
54
55
9
65
5
15
62
11
53
8
24
47
56
71
21
20
78
19
29
4
6
75
28
2
33
41
13
51
66
52
69
45
42
49

> <PUBCHEM_MMFF94_PARTIAL_CHARGES>
31
1 -0.19
10 0.28
11 0.3
12 0.3
13 0.12
14 0.78
15 -0.15
16 -0.15
17 -0.02
18 0.19
19 -0.15
2 -0.43
20 0.57
21 -0.3
22 0.06
23 0.02
24 0.14
25 0.54
3 -0.57
31 0.37
32 0.15
33 0.15
34 0.15
35 0.15
39 0.15
4 -0.57
5 -0.48
6 -0.73
7 0.59
8 -0.71
9 -0.56

> <PUBCHEM_EFFECTIVE_ROTOR_COUNT>
5.8

> <PUBCHEM_PHARMACOPHORE_FEATURES>
8
1 3 acceptor
1 4 acceptor
1 6 donor
1 8 acceptor
1 9 acceptor
5 2 5 10 11 14 rings
5 7 8 21 23 24 rings
6 13 15 16 17 18 19 rings

> <PUBCHEM_HEAVY_ATOM_COUNT>
25

> <PUBCHEM_ATOM_DEF_STEREO_COUNT>
1

> <PUBCHEM_ATOM_UDEF_STEREO_COUNT>
0

> <PUBCHEM_BOND_DEF_STEREO_COUNT>
0

> <PUBCHEM_BOND_UDEF_STEREO_COUNT>
0

> <PUBCHEM_ISOTOPIC_ATOM_COUNT>
0

> <PUBCHEM_COMPONENT_COUNT>
1

> <PUBCHEM_CACTVS_TAUTO_COUNT>
2

> <PUBCHEM_CONFORMER_ID>
009DBCC900000001

> <PUBCHEM_MMFF94_ENERGY>
57.2758

> <PUBCHEM_FEATURE_SELFOVERLAP>
40.598

> <PUBCHEM_SHAPE_FINGERPRINT>
10 15 17846776326078106258
106641 1 18342734135947230128
10670039 82 13190329150344766655
11135609 99 18261958556224180102
11646440 116 17275106132772316194
12011746 2 12251902594334210983
12166972 35 17894353288996521012
12236239 1 18259707791528755164
13073987 5 16702032915337753171
13383668 362 18054497269651723552
13533116 47 17967531259623534402
13668630 136 18040996232671476242
13685833 64 18333449825138943258
13862211 1 18410295830828084047
14251764 18 18408888455638517294
14849402 71 18341613780580384032
15048467 5 10663818576725258562
15183329 4 12324236157195514575
15196674 1 18341619235325460485
15690457 1 18335698364366095291
15706992 2 15769492140905318314
16120349 18 17604150436988549860
20028762 73 18342177777967742407
20735858 18 17917712409064667398
21130935 74 18200596882911109210
21267235 1 18411140221409020718
21792934 111 18272928337275546169
221357 26 12973604431011571174
22224240 67 16774072977561863302
23402539 116 18411980256903798853
23522609 53 18046380528312898020
23559900 14 17749958884906730472
23569943 247 17758397375617724098
23576562 1 11098439087068593227
3004659 81 17967249810326852424
3383291 50 18335140912097829867
4340502 62 15339125644949860165
465052 167 18410298033508088095
5104073 3 18270689769833951129
559249 180 18408603648215571215
5758199 1 12751238107749513550
58260988 393 15985115076256819426
59682541 35 18060133271655821602
59682541 52 14707207713044827970

> <PUBCHEM_SHAPE_MULTIPOLES>
464.7
21.55
2.03
0.8
6.17
0.62
-0.01
-13.24
5.55
-0.78
0.03
0.65
-0.06
-0.52

> <PUBCHEM_SHAPE_SELFOVERLAP>
1005.204

> <PUBCHEM_SHAPE_VOLUME>
256.5

> <PUBCHEM_COORDINATE_TYPE>
2
5
10

$$$$
