10336127
  -OEChem-03292013303D

 46 46  0     1  0  0  0  0  0999 V2000
   -3.6433   -0.7974    0.2359 P   0  0  0  0  0  0  0  0  0  0  0  0
    1.2221   -1.3681   -0.1483 O   0  0  0  0  0  0  0  0  0  0  0  0
   -4.5774    0.5029   -0.0377 O   0  0  0  0  0  0  0  0  0  0  0  0
   -3.9207   -1.6590   -1.1137 O   0  0  0  0  0  0  0  0  0  0  0  0
   -4.0676   -1.5474    1.4700 O   0  0  0  0  0  0  0  0  0  0  0  0
    2.0644    3.5190   -0.2841 O   0  0  0  0  0  0  0  0  0  0  0  0
    0.5828    2.0713    0.7768 N   0  0  0  0  0  0  0  0  0  0  0  0
   -0.1644    0.4043   -2.4835 N   0  0  0  0  0  0  0  0  0  0  0  0
    0.6324    0.9943   -0.1936 C   0  0  2  0  0  0  0  0  0  0  0  0
   -0.4039    1.2502   -1.3093 C   0  0  2  0  0  0  0  0  0  0  0  0
    0.4504   -0.3651    0.5122 C   0  0  1  0  0  0  0  0  0  0  0  0
   -1.8416    1.0329   -0.8016 C   0  0  0  0  0  0  0  0  0  0  0  0
   -2.0114   -0.1997    0.0445 C   0  0  0  0  0  0  0  0  0  0  0  0
   -0.9729   -0.8327    0.6115 C   0  0  0  0  0  0  0  0  0  0  0  0
    2.5419   -1.4253    0.3686 C   0  0  0  0  0  0  0  0  0  0  0  0
    3.4878   -1.8514   -0.7597 C   0  0  0  0  0  0  0  0  0  0  0  0
    2.6027   -2.4220    1.5320 C   0  0  0  0  0  0  0  0  0  0  0  0
    1.3070    3.2408    0.6420 C   0  0  0  0  0  0  0  0  0  0  0  0
    3.4279   -0.9067   -1.9531 C   0  0  0  0  0  0  0  0  0  0  0  0
    2.2313   -3.8394    1.1163 C   0  0  0  0  0  0  0  0  0  0  0  0
    1.0524    4.1987    1.7749 C   0  0  0  0  0  0  0  0  0  0  0  0
    1.6289    1.0411   -0.6488 H   0  0  0  0  0  0  0  0  0  0  0  0
   -0.3230    2.2900   -1.6518 H   0  0  0  0  0  0  0  0  0  0  0  0
    0.7935   -0.2732    1.5527 H   0  0  0  0  0  0  0  0  0  0  0  0
   -2.1440    1.9002   -0.2006 H   0  0  0  0  0  0  0  0  0  0  0  0
   -2.5298    0.9977   -1.6556 H   0  0  0  0  0  0  0  0  0  0  0  0
   -1.1543   -1.7311    1.1959 H   0  0  0  0  0  0  0  0  0  0  0  0
    2.8720   -0.4403    0.7258 H   0  0  0  0  0  0  0  0  0  0  0  0
   -0.0680    1.9839    1.5524 H   0  0  0  0  0  0  0  0  0  0  0  0
   -0.8392    0.6297   -3.2133 H   0  0  0  0  0  0  0  0  0  0  0  0
    0.7546    0.6143   -2.8703 H   0  0  0  0  0  0  0  0  0  0  0  0
    3.2222   -2.8430   -1.1415 H   0  0  0  0  0  0  0  0  0  0  0  0
    4.5168   -1.9027   -0.3859 H   0  0  0  0  0  0  0  0  0  0  0  0
    3.6078   -2.4258    1.9696 H   0  0  0  0  0  0  0  0  0  0  0  0
    1.9097   -2.1107    2.3218 H   0  0  0  0  0  0  0  0  0  0  0  0
    4.1663   -1.2063   -2.7039 H   0  0  0  0  0  0  0  0  0  0  0  0
    3.6518    0.1219   -1.6543 H   0  0  0  0  0  0  0  0  0  0  0  0
    2.4455   -0.9300   -2.4310 H   0  0  0  0  0  0  0  0  0  0  0  0
    2.9956   -4.2921    0.4783 H   0  0  0  0  0  0  0  0  0  0  0  0
    1.2701   -3.8731    0.5946 H   0  0  0  0  0  0  0  0  0  0  0  0
    2.1464   -4.4719    2.0066 H   0  0  0  0  0  0  0  0  0  0  0  0
   -5.5509    0.4078    0.0371 H   0  0  0  0  0  0  0  0  0  0  0  0
   -3.3721   -1.4969   -1.9108 H   0  0  0  0  0  0  0  0  0  0  0  0
    1.7999    4.9966    1.7570 H   0  0  0  0  0  0  0  0  0  0  0  0
    0.0560    4.6355    1.6652 H   0  0  0  0  0  0  0  0  0  0  0  0
    1.1192    3.6791    2.7351 H   0  0  0  0  0  0  0  0  0  0  0  0
  1  3  1  0  0  0  0
  1  4  1  0  0  0  0
  1  5  2  0  0  0  0
  1 13  1  0  0  0  0
  2 11  1  0  0  0  0
  2 15  1  0  0  0  0
  3 42  1  0  0  0  0
  4 43  1  0  0  0  0
  6 18  2  0  0  0  0
  7  9  1  0  0  0  0
  7 18  1  0  0  0  0
  7 29  1  0  0  0  0
  8 10  1  0  0  0  0
  8 30  1  0  0  0  0
  8 31  1  0  0  0  0
  9 10  1  0  0  0  0
  9 11  1  0  0  0  0
  9 22  1  0  0  0  0
 10 12  1  0  0  0  0
 10 23  1  0  0  0  0
 11 14  1  0  0  0  0
 11 24  1  0  0  0  0
 12 13  1  0  0  0  0
 12 25  1  0  0  0  0
 12 26  1  0  0  0  0
 13 14  2  0  0  0  0
 14 27  1  0  0  0  0
 15 16  1  0  0  0  0
 15 17  1  0  0  0  0
 15 28  1  0  0  0  0
 16 19  1  0  0  0  0
 16 32  1  0  0  0  0
 16 33  1  0  0  0  0
 17 20  1  0  0  0  0
 17 34  1  0  0  0  0
 17 35  1  0  0  0  0
 18 21  1  0  0  0  0
 19 36  1  0  0  0  0
 19 37  1  0  0  0  0
 19 38  1  0  0  0  0
 20 39  1  0  0  0  0
 20 40  1  0  0  0  0
 20 41  1  0  0  0  0
 21 44  1  0  0  0  0
 21 45  1  0  0  0  0
 21 46  1  0  0  0  0
M  END
> <PUBCHEM_COMPOUND_CID>
10336127

> <PUBCHEM_CONFORMER_RMSD>
0.8

> <PUBCHEM_CONFORMER_DIVERSEORDER>
1
10
34
18
30
26
35
36
13
23
32
6
17
37
20
7
21
16
22
4
28
29
27
14
24
25
12
19
15
38
11
31
2
3
9
33
5
8

> <PUBCHEM_MMFF94_PARTIAL_CHARGES>
23
1 1.39
10 0.27
11 0.42
12 0.14
13 -0.29
14 -0.29
15 0.28
18 0.57
2 -0.56
21 0.06
27 0.15
29 0.37
3 -0.77
30 0.36
31 0.36
4 -0.77
42 0.5
43 0.5
5 -0.7
6 -0.57
7 -0.73
8 -0.99
9 0.3

> <PUBCHEM_EFFECTIVE_ROTOR_COUNT>
7.8

> <PUBCHEM_PHARMACOPHORE_FEATURES>
12
1 19 hydrophobe
1 2 acceptor
1 20 hydrophobe
1 3 acceptor
1 4 acceptor
1 5 acceptor
1 6 acceptor
1 7 donor
1 8 cation
1 8 donor
4 1 3 4 5 anion
6 9 10 11 12 13 14 rings

> <PUBCHEM_HEAVY_ATOM_COUNT>
21

> <PUBCHEM_ATOM_DEF_STEREO_COUNT>
3

> <PUBCHEM_ATOM_UDEF_STEREO_COUNT>
0

> <PUBCHEM_BOND_DEF_STEREO_COUNT>
0

> <PUBCHEM_BOND_UDEF_STEREO_COUNT>
0

> <PUBCHEM_ISOTOPIC_ATOM_COUNT>
0

> <PUBCHEM_COMPONENT_COUNT>
1

> <PUBCHEM_CACTVS_TAUTO_COUNT>
2

> <PUBCHEM_CONFORMER_ID>
009DB77F00000001

> <PUBCHEM_MMFF94_ENERGY>
-3.4054

> <PUBCHEM_FEATURE_SELFOVERLAP>
60.939

> <PUBCHEM_SHAPE_FINGERPRINT>
11578080 2 17896021196469785732
12553582 1 18339359669572970803
12788726 201 17979362962384060192
13533116 47 18338237184935034715
14178342 30 17326321135439941874
14787075 74 18337117864527283870
14863182 85 17682122419588157631
15099037 8 17682396949481723962
15842332 3 17466809082179680394
15906896 17 17263551115804644124
16945 1 17894926108815988262
1813 80 17845669061596563486
20645477 70 18269548494118222863
21524375 3 17340407429742778177
22182313 1 17750779099965707607
23419403 2 17971441135767162964
23557571 272 18122054309141742034
3091708 16 9718720175726030914
352729 6 17471847005286031487
458136 41 18120944068379666505
7364860 26 18341615987475427977
81228 2 17622994704093173512
84936 31 17845362405390093752

> <PUBCHEM_SHAPE_MULTIPOLES>
396.71
6.42
4.59
1.75
4.35
4.95
0.55
-6.46
0.41
-2.97
-2.88
-0.72
0.13
-0.12

> <PUBCHEM_SHAPE_SELFOVERLAP>
769.956

> <PUBCHEM_SHAPE_VOLUME>
241.9

> <PUBCHEM_COORDINATE_TYPE>
2
5
10

$$$$
