10332320
  -OEChem-03292013303D

 28 29  0     1  0  0  0  0  0999 V2000
    1.5176    2.2749    0.0042 O   0  0  0  0  0  0  0  0  0  0  0  0
    4.0584   -0.2158   -1.2052 O   0  0  0  0  0  0  0  0  0  0  0  0
   -0.0709   -3.0070   -0.0082 O   0  0  0  0  0  0  0  0  0  0  0  0
   -0.9759    3.0852    0.0109 O   0  0  0  0  0  0  0  0  0  0  0  0
   -2.5539   -2.1600   -0.0027 O   0  0  0  0  0  0  0  0  0  0  0  0
   -4.3291   -0.1941    0.0076 O   0  0  0  0  0  0  0  0  0  0  0  0
    2.0115   -0.0272   -0.0020 C   0  0  0  0  0  0  0  0  0  0  0  0
   -0.3186    0.6881    0.0027 C   0  0  0  0  0  0  0  0  0  0  0  0
   -0.6945   -0.6644   -0.0007 C   0  0  0  0  0  0  0  0  0  0  0  0
    1.0527    0.9899    0.0020 C   0  0  0  0  0  0  0  0  0  0  0  0
    3.4714    0.2927   -0.0030 C   0  0  1  0  0  0  0  0  0  0  0  0
    1.6170   -1.3622   -0.0055 C   0  0  0  0  0  0  0  0  0  0  0  0
    0.2626   -1.6858   -0.0048 C   0  0  0  0  0  0  0  0  0  0  0  0
   -1.3429    1.7482    0.0067 C   0  0  0  0  0  0  0  0  0  0  0  0
   -2.1261   -1.0164    0.0005 C   0  0  0  0  0  0  0  0  0  0  0  0
    4.2172   -0.3166    1.1839 C   0  0  0  0  0  0  0  0  0  0  0  0
   -2.6555    1.4806    0.0079 C   0  0  0  0  0  0  0  0  0  0  0  0
   -3.1411    0.0897    0.0058 C   0  0  0  0  0  0  0  0  0  0  0  0
    3.6561    1.3713   -0.0007 H   0  0  0  0  0  0  0  0  0  0  0  0
    2.3603   -2.1555   -0.0201 H   0  0  0  0  0  0  0  0  0  0  0  0
    3.7753   -0.0047    2.1359 H   0  0  0  0  0  0  0  0  0  0  0  0
    5.2663    0.0003    1.1713 H   0  0  0  0  0  0  0  0  0  0  0  0
    4.2315   -1.4111    1.1462 H   0  0  0  0  0  0  0  0  0  0  0  0
   -3.4083    2.2616    0.0113 H   0  0  0  0  0  0  0  0  0  0  0  0
    0.7836    2.9069    0.0068 H   0  0  0  0  0  0  0  0  0  0  0  0
    5.0031    0.0152   -1.1916 H   0  0  0  0  0  0  0  0  0  0  0  0
    0.7376   -3.5473   -0.0093 H   0  0  0  0  0  0  0  0  0  0  0  0
   -1.7765    3.6372    0.0136 H   0  0  0  0  0  0  0  0  0  0  0  0
  1 10  1  0  0  0  0
  1 25  1  0  0  0  0
  2 11  1  0  0  0  0
  2 26  1  0  0  0  0
  3 13  1  0  0  0  0
  3 27  1  0  0  0  0
  4 14  1  0  0  0  0
  4 28  1  0  0  0  0
  5 15  2  0  0  0  0
  6 18  2  0  0  0  0
  7 10  1  0  0  0  0
  7 11  1  0  0  0  0
  7 12  2  0  0  0  0
  8  9  1  0  0  0  0
  8 10  2  0  0  0  0
  8 14  1  0  0  0  0
  9 13  2  0  0  0  0
  9 15  1  0  0  0  0
 11 16  1  0  0  0  0
 11 19  1  0  0  0  0
 12 13  1  0  0  0  0
 12 20  1  0  0  0  0
 14 17  2  0  0  0  0
 15 18  1  0  0  0  0
 16 21  1  0  0  0  0
 16 22  1  0  0  0  0
 16 23  1  0  0  0  0
 17 18  1  0  0  0  0
 17 24  1  0  0  0  0
M  END
> <PUBCHEM_COMPOUND_CID>
10332320

> <PUBCHEM_CONFORMER_RMSD>
0.6

> <PUBCHEM_CONFORMER_DIVERSEORDER>
1
2
3
4

> <PUBCHEM_MMFF94_PARTIAL_CHARGES>
23
1 -0.53
10 0.08
11 0.42
12 -0.15
13 0.08
14 0.05
15 0.48
17 -0.14
18 0.56
2 -0.68
20 0.15
24 0.15
25 0.45
26 0.4
27 0.45
28 0.45
3 -0.53
4 -0.53
5 -0.57
6 -0.57
7 -0.14
8 0.03
9 0.09

> <PUBCHEM_EFFECTIVE_ROTOR_COUNT>
1

> <PUBCHEM_PHARMACOPHORE_FEATURES>
9
1 1 donor
1 2 acceptor
1 2 donor
1 3 donor
1 4 donor
1 5 acceptor
1 6 acceptor
6 7 8 9 10 12 13 rings
6 8 9 14 15 17 18 rings

> <PUBCHEM_HEAVY_ATOM_COUNT>
18

> <PUBCHEM_ATOM_DEF_STEREO_COUNT>
0

> <PUBCHEM_ATOM_UDEF_STEREO_COUNT>
1

> <PUBCHEM_BOND_DEF_STEREO_COUNT>
0

> <PUBCHEM_BOND_UDEF_STEREO_COUNT>
0

> <PUBCHEM_ISOTOPIC_ATOM_COUNT>
0

> <PUBCHEM_COMPONENT_COUNT>
1

> <PUBCHEM_CACTVS_TAUTO_COUNT>
39

> <PUBCHEM_CONFORMER_ID>
009DA8A000000001

> <PUBCHEM_MMFF94_ENERGY>
50.308

> <PUBCHEM_FEATURE_SELFOVERLAP>
45.713

> <PUBCHEM_SHAPE_FINGERPRINT>
108231 29 18273214230924278320
10967382 1 18410855451707142691
11132069 177 18342737424948069490
12236239 1 17748827393806575546
13140716 1 18338797939363232129
13221675 6 18410856546881650639
13380535 76 18409446955863804299
13862211 1 18410568513938538219
14178342 30 18123746461541790944
14614273 12 18188483550047972389
14790565 3 18339099115324216049
15042514 8 18337389438977435042
15196674 1 18410855442948299113
15309172 13 18411143510747321179
15536298 74 18271245048706820680
16945 1 18410855421631796129
17804303 29 18412546526429115768
193761 8 17906453225354624323
19591789 44 18338520862396518139
20028762 73 18057889250255613831
20510252 161 18272368642363957808
20645476 183 17605008059852177910
20905425 154 18125723383453494958
21267235 1 18410019835660171211
21501502 16 18121781629872528851
2334 1 18122625221610692777
23366157 5 17753902605804400490
23402539 116 18342443868138840487
23419403 2 16329555956800372396
23463225 33 18261950735446852218
23559900 14 18271811182016556892
2748010 2 18267018551810848645
335352 9 18410573972266556172
34934 24 18411408497724565759
4072396 5 18263063458077558731
43471831 8 18263923250379914482
474 4 16879646001608658868
5104073 3 18338797930551732512
528886 8 18411414025147015779
53812653 166 18343294860374421034
54173680 148 18265053724368956954
57005193 9 18337379475027146479
69090 78 17846491551965320758
7364860 26 17982166717167342270
77492 1 17676488341681675250
8809292 202 18261395597812206067

> <PUBCHEM_SHAPE_MULTIPOLES>
335.22
6.34
2.63
0.73
2.31
0.13
0.01
-0.16
0.3
-1.14
-0.01
0.62
-0.02
-0.04

> <PUBCHEM_SHAPE_SELFOVERLAP>
736.51

> <PUBCHEM_SHAPE_VOLUME>
180.1

> <PUBCHEM_COORDINATE_TYPE>
2
5
10

$$$$
