10334115
  -OEChem-03292013303D

 32 33  0     0  0  0  0  0  0999 V2000
    4.4809    1.2386    0.7673 O   0  0  0  0  0  0  0  0  0  0  0  0
    5.3571   -1.3641    1.0249 O   0  0  0  0  0  0  0  0  0  0  0  0
   -2.2902    0.0093   -2.2313 O   0  0  0  0  0  0  0  0  0  0  0  0
    0.8099    2.0218   -0.7354 O   0  5  0  0  0  0  0  0  0  0  0  0
    2.7143    2.7355    0.0913 O   0  0  0  0  0  0  0  0  0  0  0  0
    1.9511    1.8102   -0.2668 N   0  3  0  0  0  0  0  0  0  0  0  0
    1.5940   -0.6013   -0.5162 C   0  0  0  0  0  0  0  0  0  0  0  0
    2.3990    0.4623   -0.1353 C   0  0  0  0  0  0  0  0  0  0  0  0
    3.6685    0.2104    0.3851 C   0  0  0  0  0  0  0  0  0  0  0  0
    2.0315   -1.9123   -0.3878 C   0  0  0  0  0  0  0  0  0  0  0  0
    0.2463   -0.3839   -1.0708 C   0  0  0  0  0  0  0  0  0  0  0  0
    4.1193   -1.1029    0.5191 C   0  0  0  0  0  0  0  0  0  0  0  0
    3.3009   -2.1641    0.1325 C   0  0  0  0  0  0  0  0  0  0  0  0
   -3.4043   -0.1024   -0.1696 C   0  0  0  0  0  0  0  0  0  0  0  0
   -0.8773   -0.3327   -0.3401 C   0  0  0  0  0  0  0  0  0  0  0  0
   -2.2109   -0.1208   -1.0003 C   0  0  0  0  0  0  0  0  0  0  0  0
   -3.3285    0.3425    1.1504 C   0  0  0  0  0  0  0  0  0  0  0  0
   -4.6250   -0.5292   -0.6926 C   0  0  0  0  0  0  0  0  0  0  0  0
   -4.4732    0.3605    1.9472 C   0  0  0  0  0  0  0  0  0  0  0  0
   -5.7697   -0.5111    0.1044 C   0  0  0  0  0  0  0  0  0  0  0  0
   -5.6937   -0.0662    1.4242 C   0  0  0  0  0  0  0  0  0  0  0  0
    1.4057   -2.7500   -0.6853 H   0  0  0  0  0  0  0  0  0  0  0  0
    0.2202   -0.2685   -2.1520 H   0  0  0  0  0  0  0  0  0  0  0  0
    3.6396   -3.1921    0.2311 H   0  0  0  0  0  0  0  0  0  0  0  0
   -0.8289   -0.4845    0.7321 H   0  0  0  0  0  0  0  0  0  0  0  0
   -2.4075    0.7169    1.5868 H   0  0  0  0  0  0  0  0  0  0  0  0
   -4.7038   -0.8832   -1.7172 H   0  0  0  0  0  0  0  0  0  0  0  0
   -4.4163    0.7145    2.9725 H   0  0  0  0  0  0  0  0  0  0  0  0
   -6.7202   -0.8438   -0.3024 H   0  0  0  0  0  0  0  0  0  0  0  0
   -6.5854   -0.0505    2.0441 H   0  0  0  0  0  0  0  0  0  0  0  0
    5.3152    0.8650    1.1007 H   0  0  0  0  0  0  0  0  0  0  0  0
    5.4957   -2.3266    1.0428 H   0  0  0  0  0  0  0  0  0  0  0  0
  1  9  1  0  0  0  0
  1 31  1  0  0  0  0
  2 12  1  0  0  0  0
  2 32  1  0  0  0  0
  3 16  2  0  0  0  0
  4  6  1  0  0  0  0
  5  6  2  0  0  0  0
  6  8  1  0  0  0  0
  7  8  2  0  0  0  0
  7 10  1  0  0  0  0
  7 11  1  0  0  0  0
  8  9  1  0  0  0  0
  9 12  2  0  0  0  0
 10 13  2  0  0  0  0
 10 22  1  0  0  0  0
 11 15  2  0  0  0  0
 11 23  1  0  0  0  0
 12 13  1  0  0  0  0
 13 24  1  0  0  0  0
 14 16  1  0  0  0  0
 14 17  2  0  0  0  0
 14 18  1  0  0  0  0
 15 16  1  0  0  0  0
 15 25  1  0  0  0  0
 17 19  1  0  0  0  0
 17 26  1  0  0  0  0
 18 20  2  0  0  0  0
 18 27  1  0  0  0  0
 19 21  2  0  0  0  0
 19 28  1  0  0  0  0
 20 21  1  0  0  0  0
 20 29  1  0  0  0  0
 21 30  1  0  0  0  0
M  CHG  2   4  -1   6   1
M  END
> <PUBCHEM_COMPOUND_CID>
10334115

> <PUBCHEM_CONFORMER_RMSD>
0.6

> <PUBCHEM_CONFORMER_DIVERSEORDER>
1
12
6
14
10
4
13
5
11
2
16
3
15
9
8
7

> <PUBCHEM_MMFF94_PARTIAL_CHARGES>
32
1 -0.53
10 -0.15
11 -0.18
12 0.08
13 -0.15
14 0.09
15 -0.14
16 0.47
17 -0.15
18 -0.15
19 -0.15
2 -0.53
20 -0.15
21 -0.15
22 0.15
23 0.15
24 0.15
25 0.15
26 0.15
27 0.15
28 0.15
29 0.15
3 -0.57
30 0.15
31 0.45
32 0.45
4 -0.52
5 -0.52
6 0.91
7 0.03
8 0.13
9 0.08

> <PUBCHEM_EFFECTIVE_ROTOR_COUNT>
4

> <PUBCHEM_PHARMACOPHORE_FEATURES>
8
1 1 donor
1 2 donor
1 3 acceptor
1 4 acceptor
1 4 anion
1 5 acceptor
6 14 17 18 19 20 21 rings
6 7 8 9 10 12 13 rings

> <PUBCHEM_HEAVY_ATOM_COUNT>
21

> <PUBCHEM_ATOM_DEF_STEREO_COUNT>
0

> <PUBCHEM_ATOM_UDEF_STEREO_COUNT>
0

> <PUBCHEM_BOND_DEF_STEREO_COUNT>
1

> <PUBCHEM_BOND_UDEF_STEREO_COUNT>
0

> <PUBCHEM_ISOTOPIC_ATOM_COUNT>
0

> <PUBCHEM_COMPONENT_COUNT>
1

> <PUBCHEM_CACTVS_TAUTO_COUNT>
21

> <PUBCHEM_CONFORMER_ID>
009DAFA300000001

> <PUBCHEM_MMFF94_ENERGY>
79.3419

> <PUBCHEM_FEATURE_SELFOVERLAP>
40.681

> <PUBCHEM_SHAPE_FINGERPRINT>
10354089 29 18272374174081101706
10366900 7 17240483585339779275
10498660 4 14907913630519932995
10670039 82 16127833888612531465
10688039 33 18113335280290627412
11545043 162 17240481395164921045
11552529 35 18124882506493949091
11796584 16 16153984655876819355
12107183 9 17482284708071401507
12236239 1 17847059995318914079
12403259 118 17917437497573341289
12596602 18 18060419136068081203
12616971 3 18272937137546997053
12633257 1 18408325501232340819
12644460 14 18335985350212750796
13533116 47 18335708243407749443
13911852 28 18119805811910403338
13914758 101 18336261251034080821
14252887 29 18260547797101056682
14341114 176 18410860957876269811
14341114 328 18060706104349985699
14386348 63 17313105246064920747
14739800 52 16987422308510781032
14849402 71 18201432653766970600
15183329 4 11675147208319261195
15238133 3 17346324790589905457
15475509 35 16806146801786779184
15475509 8 17845953874670484292
15475509 84 17844808084269012432
15527383 91 18408044000369405076
15880784 105 18260270793681238715
16752209 62 14418129630465324421
1813 80 18269567048202693054
18785283 64 18042409195676792580
19050596 39 18130790079337383807
19377110 9 17845941835650390811
19862831 5 12324247165497413415
20511986 3 17917699198246236529
20715895 44 17484536538298388009
20739085 24 18341338807940702268
21033648 29 17822837754386083301
21065198 48 17988926660994689263
21065201 7 16298655106236084559
21267235 1 18410293567628583238
23503953 91 18272932730520635359
23557571 272 16805592638735045479
23559900 14 15791738533320128983
341906 21 16128661825495126931
3472631 163 15554438609181602467
38570 142 18054245468604762300
4409770 3 15678907388701588567
474 4 18270680990498687313
5104073 3 18190168010742005232
542803 24 17489587865844551711
5895379 119 15841012016915484384
602551 16 16153427255121117593
7495541 125 17530687610738680238
960060 61 10737284666802106555

> <PUBCHEM_SHAPE_MULTIPOLES>
397.84
12.79
1.84
1.41
8.27
0.69
0.01
-1.76
-5.67
-3.03
0.04
1.52
0.03
-0.81

> <PUBCHEM_SHAPE_SELFOVERLAP>
866.852

> <PUBCHEM_SHAPE_VOLUME>
215

> <PUBCHEM_COORDINATE_TYPE>
2
5
10

$$$$
