10344787
  -OEChem-03292013303D

 62 67  0     1  0  0  0  0  0999 V2000
   -2.4131   -0.3598   -2.6126 O   0  0  0  0  0  0  0  0  0  0  0  0
   -5.6426   -1.6447    1.0977 O   0  0  0  0  0  0  0  0  0  0  0  0
   -1.2486    1.1404    1.4159 O   0  0  0  0  0  0  0  0  0  0  0  0
    1.6356   -2.6275    0.2628 O   0  0  0  0  0  0  0  0  0  0  0  0
   -3.6287   -0.8384    0.2006 N   0  0  0  0  0  0  0  0  0  0  0  0
   -2.9170   -2.6472   -0.9486 N   0  0  0  0  0  0  0  0  0  0  0  0
    1.7022   -0.3008    0.0384 N   0  0  0  0  0  0  0  0  0  0  0  0
    0.7072    2.1227    0.7085 N   0  0  0  0  0  0  0  0  0  0  0  0
    3.7914    0.8097   -0.2165 N   0  0  0  0  0  0  0  0  0  0  0  0
   -1.8904   -0.2567   -1.2914 C   0  0  1  0  0  0  0  0  0  0  0  0
   -2.4425   -1.3884   -0.3946 C   0  0  1  0  0  0  0  0  0  0  0  0
   -0.3741   -0.2277   -1.3471 C   0  0  0  0  0  0  0  0  0  0  0  0
   -2.5390    0.9502   -0.6335 C   0  0  0  0  0  0  0  0  0  0  0  0
    0.2352   -0.1806    0.0492 C   0  0  2  0  0  0  0  0  0  0  0  0
   -3.6035    0.5435    0.1894 C   0  0  0  0  0  0  0  0  0  0  0  0
   -4.0282   -3.0785   -0.0581 C   0  0  2  0  0  0  0  0  0  0  0  0
   -4.5770   -1.7765    0.5202 C   0  0  0  0  0  0  0  0  0  0  0  0
    1.7398    2.1404   -0.3099 C   0  0  2  0  0  0  0  0  0  0  0  0
   -0.1737    1.0643    0.8233 C   0  0  0  0  0  0  0  0  0  0  0  0
   -2.2886    2.2967   -0.8304 C   0  0  0  0  0  0  0  0  0  0  0  0
    2.4974    0.8320   -0.1503 C   0  0  0  0  0  0  0  0  0  0  0  0
   -4.4582    1.4402    0.7976 C   0  0  0  0  0  0  0  0  0  0  0  0
   -3.5593   -4.0117    1.0483 C   0  0  0  0  0  0  0  0  0  0  0  0
    2.6235    3.3720   -0.1626 C   0  0  0  0  0  0  0  0  0  0  0  0
    2.2654   -1.5797    0.1502 C   0  0  0  0  0  0  0  0  0  0  0  0
   -3.1221    3.2227   -0.1945 C   0  0  0  0  0  0  0  0  0  0  0  0
   -4.1991    2.7984    0.6061 C   0  0  0  0  0  0  0  0  0  0  0  0
    3.7428   -1.6193    0.1105 C   0  0  0  0  0  0  0  0  0  0  0  0
    1.8096    4.6494   -0.3682 C   0  0  0  0  0  0  0  0  0  0  0  0
    3.3054    3.3882    1.2052 C   0  0  0  0  0  0  0  0  0  0  0  0
    4.4423   -0.4228   -0.0718 C   0  0  0  0  0  0  0  0  0  0  0  0
    4.4242   -2.8335    0.2488 C   0  0  0  0  0  0  0  0  0  0  0  0
    5.8408   -0.4580   -0.1134 C   0  0  0  0  0  0  0  0  0  0  0  0
    5.8175   -2.8525    0.2059 C   0  0  0  0  0  0  0  0  0  0  0  0
    6.5255   -1.6663    0.0250 C   0  0  0  0  0  0  0  0  0  0  0  0
   -1.8160   -1.6283    0.4647 H   0  0  0  0  0  0  0  0  0  0  0  0
   -0.0413    0.6084   -1.9711 H   0  0  0  0  0  0  0  0  0  0  0  0
   -0.0172   -1.1244   -1.8720 H   0  0  0  0  0  0  0  0  0  0  0  0
   -0.0836   -1.0215    0.6642 H   0  0  0  0  0  0  0  0  0  0  0  0
   -2.1718   -3.3408   -0.9699 H   0  0  0  0  0  0  0  0  0  0  0  0
   -4.8033   -3.5560   -0.6658 H   0  0  0  0  0  0  0  0  0  0  0  0
    1.2582    2.1465   -1.2924 H   0  0  0  0  0  0  0  0  0  0  0  0
   -3.3828   -0.2983   -2.5702 H   0  0  0  0  0  0  0  0  0  0  0  0
   -1.4919    2.6369   -1.4828 H   0  0  0  0  0  0  0  0  0  0  0  0
   -5.2891    1.1177    1.4138 H   0  0  0  0  0  0  0  0  0  0  0  0
   -4.4019   -4.3019    1.6856 H   0  0  0  0  0  0  0  0  0  0  0  0
   -3.1201   -4.9243    0.6320 H   0  0  0  0  0  0  0  0  0  0  0  0
   -2.8137   -3.5376    1.6962 H   0  0  0  0  0  0  0  0  0  0  0  0
    0.4449    2.9837    1.1773 H   0  0  0  0  0  0  0  0  0  0  0  0
    3.4044    3.3484   -0.9338 H   0  0  0  0  0  0  0  0  0  0  0  0
   -2.9478    4.2864   -0.3349 H   0  0  0  0  0  0  0  0  0  0  0  0
   -4.8386    3.5401    1.0773 H   0  0  0  0  0  0  0  0  0  0  0  0
    1.0900    4.8292    0.4362 H   0  0  0  0  0  0  0  0  0  0  0  0
    2.4760    5.5187   -0.4030 H   0  0  0  0  0  0  0  0  0  0  0  0
    1.2628    4.6175   -1.3166 H   0  0  0  0  0  0  0  0  0  0  0  0
    2.5823    3.4230    2.0272 H   0  0  0  0  0  0  0  0  0  0  0  0
    3.9229    4.2903    1.2947 H   0  0  0  0  0  0  0  0  0  0  0  0
    3.9749    2.5465    1.3874 H   0  0  0  0  0  0  0  0  0  0  0  0
    3.8903   -3.7690    0.3906 H   0  0  0  0  0  0  0  0  0  0  0  0
    6.4071    0.4597   -0.2544 H   0  0  0  0  0  0  0  0  0  0  0  0
    6.3512   -3.7922    0.3133 H   0  0  0  0  0  0  0  0  0  0  0  0
    7.6110   -1.6814   -0.0086 H   0  0  0  0  0  0  0  0  0  0  0  0
  1 10  1  0  0  0  0
  1 43  1  0  0  0  0
  2 17  2  0  0  0  0
  3 19  2  0  0  0  0
  4 25  2  0  0  0  0
  5 11  1  0  0  0  0
  5 15  1  0  0  0  0
  5 17  1  0  0  0  0
  6 11  1  0  0  0  0
  6 16  1  0  0  0  0
  6 40  1  0  0  0  0
  7 14  1  0  0  0  0
  7 21  1  0  0  0  0
  7 25  1  0  0  0  0
  8 18  1  0  0  0  0
  8 19  1  0  0  0  0
  8 49  1  0  0  0  0
  9 21  2  0  0  0  0
  9 31  1  0  0  0  0
 10 11  1  0  0  0  0
 10 12  1  0  0  0  0
 10 13  1  0  0  0  0
 11 36  1  0  0  0  0
 12 14  1  0  0  0  0
 12 37  1  0  0  0  0
 12 38  1  0  0  0  0
 13 15  1  0  0  0  0
 13 20  2  0  0  0  0
 14 19  1  0  0  0  0
 14 39  1  0  0  0  0
 15 22  2  0  0  0  0
 16 17  1  0  0  0  0
 16 23  1  0  0  0  0
 16 41  1  0  0  0  0
 18 21  1  0  0  0  0
 18 24  1  0  0  0  0
 18 42  1  0  0  0  0
 20 26  1  0  0  0  0
 20 44  1  0  0  0  0
 22 27  1  0  0  0  0
 22 45  1  0  0  0  0
 23 46  1  0  0  0  0
 23 47  1  0  0  0  0
 23 48  1  0  0  0  0
 24 29  1  0  0  0  0
 24 30  1  0  0  0  0
 24 50  1  0  0  0  0
 25 28  1  0  0  0  0
 26 27  2  0  0  0  0
 26 51  1  0  0  0  0
 27 52  1  0  0  0  0
 28 31  1  0  0  0  0
 28 32  2  0  0  0  0
 29 53  1  0  0  0  0
 29 54  1  0  0  0  0
 29 55  1  0  0  0  0
 30 56  1  0  0  0  0
 30 57  1  0  0  0  0
 30 58  1  0  0  0  0
 31 33  2  0  0  0  0
 32 34  1  0  0  0  0
 32 59  1  0  0  0  0
 33 35  1  0  0  0  0
 33 60  1  0  0  0  0
 34 35  2  0  0  0  0
 34 61  1  0  0  0  0
 35 62  1  0  0  0  0
M  END
> <PUBCHEM_COMPOUND_CID>
10344787

> <PUBCHEM_CONFORMER_RMSD>
0.8

> <PUBCHEM_CONFORMER_DIVERSEORDER>
1
2

> <PUBCHEM_MMFF94_PARTIAL_CHARGES>
41
1 -0.68
10 0.42
11 0.57
13 -0.14
14 0.36
15 0.12
16 0.33
17 0.57
18 0.36
19 0.57
2 -0.57
20 -0.15
21 0.45
22 -0.15
25 0.54
26 -0.15
27 -0.15
28 0.09
3 -0.57
31 0.18
32 -0.15
33 -0.15
34 -0.15
35 -0.15
4 -0.57
40 0.36
43 0.4
44 0.15
45 0.15
49 0.37
5 -0.48
51 0.15
52 0.15
59 0.15
6 -0.9
60 0.15
61 0.15
62 0.15
7 -0.42
8 -0.73
9 -0.63

> <PUBCHEM_EFFECTIVE_ROTOR_COUNT>
4.2

> <PUBCHEM_PHARMACOPHORE_FEATURES>
15
1 1 acceptor
1 1 donor
1 2 acceptor
1 3 acceptor
1 4 acceptor
1 6 cation
1 6 donor
1 8 donor
3 24 29 30 hydrophobe
5 5 10 11 13 15 rings
5 5 6 11 16 17 rings
6 13 15 20 22 26 27 rings
6 28 31 32 33 34 35 rings
6 7 8 14 18 19 21 rings
6 7 9 21 25 28 31 rings

> <PUBCHEM_HEAVY_ATOM_COUNT>
35

> <PUBCHEM_ATOM_DEF_STEREO_COUNT>
5

> <PUBCHEM_ATOM_UDEF_STEREO_COUNT>
0

> <PUBCHEM_BOND_DEF_STEREO_COUNT>
0

> <PUBCHEM_BOND_UDEF_STEREO_COUNT>
0

> <PUBCHEM_ISOTOPIC_ATOM_COUNT>
0

> <PUBCHEM_COMPONENT_COUNT>
1

> <PUBCHEM_CACTVS_TAUTO_COUNT>
2

> <PUBCHEM_CONFORMER_ID>
009DD95300000001

> <PUBCHEM_MMFF94_ENERGY>
144.6794

> <PUBCHEM_FEATURE_SELFOVERLAP>
76.556

> <PUBCHEM_SHAPE_FINGERPRINT>
10290309 65 17758113700667353343
10622 236 17413288515283370831
1100329 8 18339925905043978816
11045515 52 18187644644689145836
11227688 84 17836920475477382679
11763715 3 17972342830234539477
12107183 9 18341342080658575753
12107698 1 18342174483722070567
12236239 1 18129658596083696166
12553582 1 18193541286661639130
12633046 712 18334852801211179751
12633257 1 18129679542781630515
12925494 130 18340201891474809697
13140716 1 18343018895619854432
13583140 156 18409724037257575349
13782708 43 17530686502637339130
140371 6 18057615256747207912
14394314 77 18339365172106598128
14415360 78 17975400331485456237
14790565 3 17691408507959556096
14856354 85 18409739451684587422
14955137 171 18131638868022671958
15320467 1 18410013264376909738
15911013 46 18187928412735774659
15927050 60 17765435731766655470
16087824 20 17906735799801985989
16110190 28 18340208479695853884
17492 89 18338516455559164266
17686467 74 18341885266185259714
17844677 252 18412831299988026626
19311894 1 18265048037837850338
19319366 153 17533505529896538411
21033648 29 17560216051985698506
221490 88 18410011082901593066
23522609 53 17824854190371710796
23559900 14 18409439315222323905
23566358 27 18335987583263565413
249057 3 18337673006014305045
3178227 256 18194697960474154961
350125 39 18411141371864371373
3737641 26 18122631814538609435
392239 28 18048319143737498745
4144715 1 18410300194187874328
4409770 3 17756699741873696972
44880168 125 17203060641821022830
4616759 239 18129646501603835778
463206 1 18336267830243359898
5104073 3 18340760464972315530
513202 73 18261405459721587491
5486654 36 18408323267791240099
57527293 21 18057620948116763407
6287921 2 18189338037897042660

> <PUBCHEM_SHAPE_MULTIPOLES>
671.9
12.56
5.2
1.15
8.83
1.89
-0.35
-8.28
1.88
-0.28
0.83
-0.95
0.04
0.34

> <PUBCHEM_SHAPE_SELFOVERLAP>
1508.95

> <PUBCHEM_SHAPE_VOLUME>
351.1

> <PUBCHEM_COORDINATE_TYPE>
2
5
10

$$$$
