10341191
  -OEChem-03292013303D

 51 54  0     1  0  0  0  0  0999 V2000
   -5.0246   -1.2466    0.6128 S   0  0  0  0  0  0  0  0  0  0  0  0
    3.8064   -1.8483    1.8290 S   0  0  0  0  0  0  0  0  0  0  0  0
    1.5995   -1.5175   -2.2493 O   0  0  0  0  0  0  0  0  0  0  0  0
   -5.8258   -1.5316   -0.5691 O   0  0  0  0  0  0  0  0  0  0  0  0
   -4.9178   -2.2422    1.6706 O   0  0  0  0  0  0  0  0  0  0  0  0
    2.1704   -0.9850   -0.0279 N   0  0  0  0  0  0  0  0  0  0  0  0
    3.5906   -2.8635   -0.5386 N   0  0  0  0  0  0  0  0  0  0  0  0
    1.0657    1.6096   -0.9187 C   0  0  1  0  0  0  0  0  0  0  0  0
    0.5151    0.2597   -1.2179 C   0  0  2  0  0  0  0  0  0  0  0  0
    0.6400    1.2834   -2.3078 C   0  0  0  0  0  0  0  0  0  0  0  0
    0.2467    2.6138   -0.1440 C   0  0  0  0  0  0  0  0  0  0  0  0
    0.4422    2.4632    1.3721 C   0  0  0  0  0  0  0  0  0  0  0  0
    0.5260    4.0535   -0.6009 C   0  0  0  0  0  0  0  0  0  0  0  0
   -0.8532   -0.1124   -0.7657 C   0  0  0  0  0  0  0  0  0  0  0  0
    1.4922   -0.8539   -1.2275 C   0  0  0  0  0  0  0  0  0  0  0  0
    1.7821    3.0101    1.8627 C   0  0  0  0  0  0  0  0  0  0  0  0
    1.8656    4.5934   -0.1016 C   0  0  0  0  0  0  0  0  0  0  0  0
    2.0039    4.4493    1.4102 C   0  0  0  0  0  0  0  0  0  0  0  0
   -1.0489   -0.6333    0.5142 C   0  0  0  0  0  0  0  0  0  0  0  0
   -1.9428    0.0589   -1.6209 C   0  0  0  0  0  0  0  0  0  0  0  0
   -2.3312   -0.9822    0.9378 C   0  0  0  0  0  0  0  0  0  0  0  0
   -3.2252   -0.2900   -1.1974 C   0  0  0  0  0  0  0  0  0  0  0  0
   -3.4195   -0.8105    0.0822 C   0  0  0  0  0  0  0  0  0  0  0  0
    3.1490   -1.9403    0.2593 C   0  0  0  0  0  0  0  0  0  0  0  0
   -5.6611    0.2367    1.3599 C   0  0  0  0  0  0  0  0  0  0  0  0
    4.8039   -3.1868    1.4358 C   0  0  0  0  0  0  0  0  0  0  0  0
    4.5506   -3.5878    0.1408 C   0  0  0  0  0  0  0  0  0  0  0  0
    2.1314    1.7225   -0.7576 H   0  0  0  0  0  0  0  0  0  0  0  0
   -0.2068    1.8323   -2.7009 H   0  0  0  0  0  0  0  0  0  0  0  0
    1.4222    1.1595   -3.0510 H   0  0  0  0  0  0  0  0  0  0  0  0
   -0.8187    2.4471   -0.3453 H   0  0  0  0  0  0  0  0  0  0  0  0
   -0.3618    3.0078    1.8843 H   0  0  0  0  0  0  0  0  0  0  0  0
    0.3593    1.4197    1.6846 H   0  0  0  0  0  0  0  0  0  0  0  0
    0.4905    4.1270   -1.6941 H   0  0  0  0  0  0  0  0  0  0  0  0
   -0.2716    4.7038   -0.2182 H   0  0  0  0  0  0  0  0  0  0  0  0
    1.8172    2.9618    2.9571 H   0  0  0  0  0  0  0  0  0  0  0  0
    2.5993    2.3786    1.4944 H   0  0  0  0  0  0  0  0  0  0  0  0
    2.6878    4.0643   -0.5976 H   0  0  0  0  0  0  0  0  0  0  0  0
    1.9594    5.6498   -0.3785 H   0  0  0  0  0  0  0  0  0  0  0  0
    1.2763    5.1033    1.9064 H   0  0  0  0  0  0  0  0  0  0  0  0
    2.9990    4.7850    1.7231 H   0  0  0  0  0  0  0  0  0  0  0  0
   -0.2230   -0.7798    1.2026 H   0  0  0  0  0  0  0  0  0  0  0  0
   -1.8314    0.4323   -2.6338 H   0  0  0  0  0  0  0  0  0  0  0  0
    1.9691   -0.3418    0.7330 H   0  0  0  0  0  0  0  0  0  0  0  0
   -2.4607   -1.3802    1.9403 H   0  0  0  0  0  0  0  0  0  0  0  0
   -4.0581   -0.1474   -1.8801 H   0  0  0  0  0  0  0  0  0  0  0  0
   -6.6741    0.0309    1.7122 H   0  0  0  0  0  0  0  0  0  0  0  0
   -5.6817    1.0307    0.6109 H   0  0  0  0  0  0  0  0  0  0  0  0
   -5.0229    0.5129    2.2014 H   0  0  0  0  0  0  0  0  0  0  0  0
    5.5046   -3.6022    2.1457 H   0  0  0  0  0  0  0  0  0  0  0  0
    5.0429   -4.4104   -0.3601 H   0  0  0  0  0  0  0  0  0  0  0  0
  1  4  2  0  0  0  0
  1  5  2  0  0  0  0
  1 23  1  0  0  0  0
  1 25  1  0  0  0  0
  2 24  1  0  0  0  0
  2 26  1  0  0  0  0
  3 15  2  0  0  0  0
  6 15  1  0  0  0  0
  6 24  1  0  0  0  0
  6 44  1  0  0  0  0
  7 24  2  0  0  0  0
  7 27  1  0  0  0  0
  8  9  1  0  0  0  0
  8 10  1  0  0  0  0
  8 11  1  0  0  0  0
  8 28  1  0  0  0  0
  9 10  1  0  0  0  0
  9 14  1  0  0  0  0
  9 15  1  0  0  0  0
 10 29  1  0  0  0  0
 10 30  1  0  0  0  0
 11 12  1  0  0  0  0
 11 13  1  0  0  0  0
 11 31  1  0  0  0  0
 12 16  1  0  0  0  0
 12 32  1  0  0  0  0
 12 33  1  0  0  0  0
 13 17  1  0  0  0  0
 13 34  1  0  0  0  0
 13 35  1  0  0  0  0
 14 19  2  0  0  0  0
 14 20  1  0  0  0  0
 16 18  1  0  0  0  0
 16 36  1  0  0  0  0
 16 37  1  0  0  0  0
 17 18  1  0  0  0  0
 17 38  1  0  0  0  0
 17 39  1  0  0  0  0
 18 40  1  0  0  0  0
 18 41  1  0  0  0  0
 19 21  1  0  0  0  0
 19 42  1  0  0  0  0
 20 22  2  0  0  0  0
 20 43  1  0  0  0  0
 21 23  2  0  0  0  0
 21 45  1  0  0  0  0
 22 23  1  0  0  0  0
 22 46  1  0  0  0  0
 25 47  1  0  0  0  0
 25 48  1  0  0  0  0
 25 49  1  0  0  0  0
 26 27  2  0  0  0  0
 26 50  1  0  0  0  0
 27 51  1  0  0  0  0
M  END
> <PUBCHEM_COMPOUND_CID>
10341191

> <PUBCHEM_CONFORMER_RMSD>
0.8

> <PUBCHEM_CONFORMER_DIVERSEORDER>
3
5
12
1
13
17
11
6
16
2
20
19
15
9
7
18
4
14
8
10

> <PUBCHEM_MMFF94_PARTIAL_CHARGES>
32
1 1.2
10 -0.2
11 0.09
14 -0.03
15 0.63
19 -0.15
2 -0.08
20 -0.15
21 -0.15
22 -0.15
23 -0.01
24 0.44
25 0.11
26 -0.11
27 0.08
28 0.1
29 0.1
3 -0.57
30 0.1
4 -0.65
42 0.15
43 0.15
44 0.37
45 0.15
46 0.15
5 -0.65
50 0.15
51 0.15
6 -0.49
7 -0.57
8 -0.19
9 0.03

> <PUBCHEM_EFFECTIVE_ROTOR_COUNT>
7.8

> <PUBCHEM_PHARMACOPHORE_FEATURES>
7
1 3 acceptor
1 4 acceptor
1 5 acceptor
1 6 donor
5 2 7 24 26 27 rings
6 11 12 13 16 17 18 rings
6 14 19 20 21 22 23 rings

> <PUBCHEM_HEAVY_ATOM_COUNT>
27

> <PUBCHEM_ATOM_DEF_STEREO_COUNT>
2

> <PUBCHEM_ATOM_UDEF_STEREO_COUNT>
0

> <PUBCHEM_BOND_DEF_STEREO_COUNT>
0

> <PUBCHEM_BOND_UDEF_STEREO_COUNT>
0

> <PUBCHEM_ISOTOPIC_ATOM_COUNT>
0

> <PUBCHEM_COMPONENT_COUNT>
1

> <PUBCHEM_CACTVS_TAUTO_COUNT>
3

> <PUBCHEM_CONFORMER_ID>
009DCB4700000003

> <PUBCHEM_MMFF94_ENERGY>
44.9753

> <PUBCHEM_FEATURE_SELFOVERLAP>
35.54

> <PUBCHEM_SHAPE_FINGERPRINT>
10074138 170 17764022471854922857
11456790 92 18193292814968603601
11552529 35 17831580873593028506
12788726 201 18048619026785816804
13134695 92 18410568496346888237
13140716 1 17908421703551106988
133893 2 18055607737171404733
13533116 47 18262808496767812427
13955234 65 18192723460332109241
14068700 675 18042690503397860562
14856354 85 15868545072693047344
14955137 171 18410016498776985707
15131766 46 16339996795481633250
15163728 17 10591752208174666153
15878777 1 12745960409313817412
17868525 174 18411427185370273265
17980427 23 16702004379981103533
17980427 26 18125717048276715044
1813 80 18201162061387795166
18393751 57 17473823309250797369
20600515 1 18120376449759689884
20832881 197 18187370887710429235
21033648 29 16701182950321809131
21049683 118 16982359172996199744
21120745 212 18123209913290064156
21304303 282 17182756793809075068
21344244 78 17917997161607652011
21796203 349 18193867948589286714
23419403 2 18191558956974802676
23559900 14 17748825259160701383
244849 19 17970319664488372759
3380486 145 17771886277811191015
345986 75 17824258207133927282
35225 105 17472987203286715744
376196 1 16982948498312721220
394222 165 17701547443980908895
4058900 60 17977403946260091393
463206 1 18186805764203876483
474 4 17767411541060946389
5104073 3 18269573774844529091
5895379 119 16914852191825399369
6086070 43 18263911173875662517
6679774 75 17826781840719652456
6786 2 17616260616538036960
7226269 152 17904752285182931021
77188 2 18410291376667722092
79837 15 17258492778359460880
81228 2 17838346176711528932
9841814 1 18341625831651286023

> <PUBCHEM_SHAPE_MULTIPOLES>
535.78
9.75
5.71
2.03
10.71
6.65
0.22
-13.25
-4.76
-8.08
-2.01
-0.31
0.22
0.43

> <PUBCHEM_SHAPE_SELFOVERLAP>
1123.87

> <PUBCHEM_SHAPE_VOLUME>
305.5

> <PUBCHEM_COORDINATE_TYPE>
2
5
10

$$$$
