10345757
  -OEChem-03292013303D

 48 51  0     1  0  0  0  0  0999 V2000
   -7.4226    1.3782   -2.9961 I   0  0  0  0  0  0  0  0  0  0  0  0
    4.0829    0.3166    0.7664 O   0  0  0  0  0  0  0  0  0  0  0  0
    4.7791   -2.2534   -1.0236 O   0  0  0  0  0  0  0  0  0  0  0  0
    5.7186   -0.0993   -2.4055 O   0  0  0  0  0  0  0  0  0  0  0  0
    5.8935    2.4434    1.1841 O   0  0  0  0  0  0  0  0  0  0  0  0
    1.9073   -0.4668    0.2301 N   0  0  0  0  0  0  0  0  0  0  0  0
    0.0554    0.7640    0.0476 N   0  0  0  0  0  0  0  0  0  0  0  0
    0.9188   -2.6344    0.7066 N   0  0  0  0  0  0  0  0  0  0  0  0
   -2.7055   -0.4617    0.3943 N   0  0  0  0  0  0  0  0  0  0  0  0
   -1.5175   -2.5050    0.7686 N   0  0  0  0  0  0  0  0  0  0  0  0
    3.8990   -1.1362   -1.1350 C   0  0  2  0  0  0  0  0  0  0  0  0
    4.6568    0.1255   -1.5031 C   0  0  1  0  0  0  0  0  0  0  0  0
    3.3323   -0.8014    0.2458 C   0  0  1  0  0  0  0  0  0  0  0  0
    5.1484    0.6126   -0.1512 C   0  0  1  0  0  0  0  0  0  0  0  0
    5.4564    2.0989   -0.1188 C   0  0  0  0  0  0  0  0  0  0  0  0
    0.8608   -1.3205    0.4416 C   0  0  0  0  0  0  0  0  0  0  0  0
    1.3711    0.7735   -0.0016 C   0  0  0  0  0  0  0  0  0  0  0  0
   -0.2770   -0.5384    0.3238 C   0  0  0  0  0  0  0  0  0  0  0  0
   -1.5004   -1.1777    0.4978 C   0  0  0  0  0  0  0  0  0  0  0  0
    6.2011    3.8287    1.2870 C   0  0  0  0  0  0  0  0  0  0  0  0
   -0.3244   -3.1415    0.8549 C   0  0  0  0  0  0  0  0  0  0  0  0
   -3.9923   -1.0687    0.5639 C   0  0  0  0  0  0  0  0  0  0  0  0
   -5.0842   -0.0557    0.3584 C   0  0  0  0  0  0  0  0  0  0  0  0
   -5.6114    0.1374   -0.9120 C   0  0  0  0  0  0  0  0  0  0  0  0
   -5.5530    0.6748    1.4428 C   0  0  0  0  0  0  0  0  0  0  0  0
   -6.6247    1.0771   -1.1014 C   0  0  0  0  0  0  0  0  0  0  0  0
   -6.5662    1.6145    1.2533 C   0  0  0  0  0  0  0  0  0  0  0  0
   -7.1020    1.8157   -0.0187 C   0  0  0  0  0  0  0  0  0  0  0  0
    3.1421   -1.3960   -1.8822 H   0  0  0  0  0  0  0  0  0  0  0  0
    3.9589    0.8479   -1.9442 H   0  0  0  0  0  0  0  0  0  0  0  0
    3.4535   -1.6273    0.9563 H   0  0  0  0  0  0  0  0  0  0  0  0
    6.0320    0.0514    0.1797 H   0  0  0  0  0  0  0  0  0  0  0  0
    4.5536    2.6766   -0.3507 H   0  0  0  0  0  0  0  0  0  0  0  0
    6.2374    2.3442   -0.8472 H   0  0  0  0  0  0  0  0  0  0  0  0
    4.2442   -3.0174   -0.7479 H   0  0  0  0  0  0  0  0  0  0  0  0
    6.1669    0.7504   -2.5533 H   0  0  0  0  0  0  0  0  0  0  0  0
    1.9798    1.6441   -0.2045 H   0  0  0  0  0  0  0  0  0  0  0  0
    7.0096    4.0937    0.5987 H   0  0  0  0  0  0  0  0  0  0  0  0
    6.5314    4.0323    2.3090 H   0  0  0  0  0  0  0  0  0  0  0  0
    5.3139    4.4346    1.0790 H   0  0  0  0  0  0  0  0  0  0  0  0
   -2.6356    0.5303    0.1932 H   0  0  0  0  0  0  0  0  0  0  0  0
   -0.3759   -4.2029    1.0727 H   0  0  0  0  0  0  0  0  0  0  0  0
   -4.0814   -1.5055    1.5669 H   0  0  0  0  0  0  0  0  0  0  0  0
   -4.1246   -1.8960   -0.1452 H   0  0  0  0  0  0  0  0  0  0  0  0
   -5.2307   -0.4421   -1.7497 H   0  0  0  0  0  0  0  0  0  0  0  0
   -5.1415    0.5274    2.4374 H   0  0  0  0  0  0  0  0  0  0  0  0
   -6.9375    2.1900    2.0964 H   0  0  0  0  0  0  0  0  0  0  0  0
   -7.8908    2.5533   -0.1440 H   0  0  0  0  0  0  0  0  0  0  0  0
  1 26  1  0  0  0  0
  2 13  1  0  0  0  0
  2 14  1  0  0  0  0
  3 11  1  0  0  0  0
  3 35  1  0  0  0  0
  4 12  1  0  0  0  0
  4 36  1  0  0  0  0
  5 15  1  0  0  0  0
  5 20  1  0  0  0  0
  6 13  1  0  0  0  0
  6 16  1  0  0  0  0
  6 17  1  0  0  0  0
  7 17  2  0  0  0  0
  7 18  1  0  0  0  0
  8 16  2  0  0  0  0
  8 21  1  0  0  0  0
  9 19  1  0  0  0  0
  9 22  1  0  0  0  0
  9 41  1  0  0  0  0
 10 19  1  0  0  0  0
 10 21  2  0  0  0  0
 11 12  1  0  0  0  0
 11 13  1  0  0  0  0
 11 29  1  0  0  0  0
 12 14  1  0  0  0  0
 12 30  1  0  0  0  0
 13 31  1  0  0  0  0
 14 15  1  0  0  0  0
 14 32  1  0  0  0  0
 15 33  1  0  0  0  0
 15 34  1  0  0  0  0
 16 18  1  0  0  0  0
 17 37  1  0  0  0  0
 18 19  2  0  0  0  0
 20 38  1  0  0  0  0
 20 39  1  0  0  0  0
 20 40  1  0  0  0  0
 21 42  1  0  0  0  0
 22 23  1  0  0  0  0
 22 43  1  0  0  0  0
 22 44  1  0  0  0  0
 23 24  2  0  0  0  0
 23 25  1  0  0  0  0
 24 26  1  0  0  0  0
 24 45  1  0  0  0  0
 25 27  2  0  0  0  0
 25 46  1  0  0  0  0
 26 28  2  0  0  0  0
 27 28  1  0  0  0  0
 27 47  1  0  0  0  0
 28 48  1  0  0  0  0
M  END
> <PUBCHEM_COMPOUND_CID>
10345757

> <PUBCHEM_CONFORMER_RMSD>
1

> <PUBCHEM_CONFORMER_DIVERSEORDER>
1
94
122
47
13
158
234
75
71
38
207
123
99
17
144
183
4
227
156
172
104
129
141
176
57
231
124
188
187
89
118
5
109
209
201
127
116
192
205
91
210
49
128
2
200
28
226
171
160
45
217
42
76
10
147
59
153
159
93
31
54
83
220
87
232
190
24
191
60
41
7
225
161
74
219
218
84
103
170
50
148
151
132
90
39
230
198
25
216
119
82
126
63
30
100
48
36
101
185
21
77
14
195
178
81
237
98
199
113
204
64
222
72
3
186
51
19
236
20
162
235
43
117
135
32
22
52
165
27
37
180
46
133
131
211
85
150
114
12
120
193
95
56
69
62
189
157
221
61
146
35
224
86
152
44
202
33
53
121
177
196
145
78
111
179
134
174
155
138
79
23
229
214
106
55
107
140
29
65
154
18
16
215
139
70
212
223
108
92
182
164
34
213
6
163
125
166
130
181
9
112
68
15
197
206
115
238
203
11
105
208
40
102
96
97
194
67
167
26
149
73
228
8
168
80
110
66
169
175
173
137
184
143
233
142
136
58
88

> <PUBCHEM_MMFF94_PARTIAL_CHARGES>
37
1 -0.08
10 -0.62
11 0.28
12 0.28
13 0.54
14 0.28
15 0.28
16 0.11
17 0.04
18 0.23
19 0.41
2 -0.56
20 0.28
21 0.47
22 0.51
23 -0.14
24 -0.15
25 -0.15
26 0.08
27 -0.15
28 -0.15
3 -0.68
35 0.4
36 0.4
37 0.15
4 -0.68
41 0.4
42 0.15
45 0.15
46 0.15
47 0.15
48 0.15
5 -0.56
6 0.05
7 -0.57
8 -0.57
9 -0.87

> <PUBCHEM_EFFECTIVE_ROTOR_COUNT>
7

> <PUBCHEM_PHARMACOPHORE_FEATURES>
16
1 1 hydrophobe
1 2 acceptor
1 3 acceptor
1 3 donor
1 4 acceptor
1 4 donor
1 5 acceptor
1 9 cation
1 9 donor
3 6 7 17 cation
3 6 8 16 cation
3 8 10 21 cation
5 2 11 12 13 14 rings
5 6 7 16 17 18 rings
6 23 24 25 26 27 28 rings
6 8 10 16 18 19 21 rings

> <PUBCHEM_HEAVY_ATOM_COUNT>
28

> <PUBCHEM_ATOM_DEF_STEREO_COUNT>
4

> <PUBCHEM_ATOM_UDEF_STEREO_COUNT>
0

> <PUBCHEM_BOND_DEF_STEREO_COUNT>
0

> <PUBCHEM_BOND_UDEF_STEREO_COUNT>
0

> <PUBCHEM_ISOTOPIC_ATOM_COUNT>
0

> <PUBCHEM_COMPONENT_COUNT>
1

> <PUBCHEM_CACTVS_TAUTO_COUNT>
3

> <PUBCHEM_CONFORMER_ID>
009DDD1D00000001

> <PUBCHEM_MMFF94_ENERGY>
73.3951

> <PUBCHEM_FEATURE_SELFOVERLAP>
81.816

> <PUBCHEM_SHAPE_FINGERPRINT>
10 15 16805334279915866849
10280341 67 17982723380181005096
10554248 39 18131067099968804870
10675989 125 18412547574744170642
10816530 90 18040725809289534980
10835480 77 18342737463856268648
10883706 89 15648155405386914417
11475781 23 18342176691582758396
11796584 16 14907899315520600855
12166972 35 13470687061838103731
12342043 65 10665487644683504128
12422481 6 16732985314880204871
14123256 34 11312056573840861765
14598715 104 17894620449380126725
15183329 4 17561086861063219391
18222031 100 13254803434239744514
20281389 69 17967814929855891209
20715895 44 18338234972705097936
21033648 29 18187087294660519098
21150785 3 16917063391091435493
21279426 13 18410303488185671243
21424621 283 18408886260641191051
23081809 10 16988566784129565851
23559900 14 18337408136045740934
24771293 8 18336543940664142828
2748736 6 18409441518429933073
2838139 119 18341333284612655483
312425 54 12973609928342791173
3504750 166 11602814706166634835
3663271 9 13912330083763835437
4169191 19 18341896354419927905
44249763 50 18114733919769226791
465052 167 11455883667899655023
50009960 94 11886018015919461084
5104073 3 14418421052196247152
59682541 52 17489594411237691214
8863177 126 12822424919550356069

> <PUBCHEM_SHAPE_MULTIPOLES>
539.78
21.97
3.11
1.88
15.77
0.19
1.33
19.64
6.03
-4.03
-1.16
1.79
0.98
3.5

> <PUBCHEM_SHAPE_SELFOVERLAP>
1144.428

> <PUBCHEM_SHAPE_VOLUME>
308.7

> <PUBCHEM_COORDINATE_TYPE>
2
5
10

$$$$
