10345770
  -OEChem-03292013303D

 68 72  0     1  0  0  0  0  0999 V2000
   -1.7229   -0.4233   -3.1744 O   0  0  0  0  0  0  0  0  0  0  0  0
    0.1611   -3.2332   -0.5381 O   0  0  0  0  0  0  0  0  0  0  0  0
   -2.9196    4.2174    2.3459 O   0  0  0  0  0  0  0  0  0  0  0  0
   -1.6226   -1.2956   -1.0173 N   0  0  0  0  0  0  0  0  0  0  0  0
    1.2159   -1.8831    1.0379 N   0  0  0  0  0  0  0  0  0  0  0  0
    1.0554   -0.1194   -2.7371 N   0  0  0  0  0  0  0  0  0  0  0  0
    4.2275   -0.9988    1.7385 N   0  0  0  0  0  0  0  0  0  0  0  0
    4.0941   -1.5466   -0.4115 N   0  0  0  0  0  0  0  0  0  0  0  0
   -1.0033   -1.3331    0.3215 C   0  0  1  0  0  0  0  0  0  0  0  0
   -1.9214   -1.8389    1.4522 C   0  0  0  0  0  0  0  0  0  0  0  0
   -2.8120   -2.1317   -1.2161 C   0  0  0  0  0  0  0  0  0  0  0  0
   -3.3873   -1.6589    1.1622 C   0  0  0  0  0  0  0  0  0  0  0  0
   -3.8352   -1.8284   -0.1580 C   0  0  0  0  0  0  0  0  0  0  0  0
   -1.1771   -0.4862   -2.0695 C   0  0  0  0  0  0  0  0  0  0  0  0
    0.0443    0.3606   -1.8047 C   0  0  2  0  0  0  0  0  0  0  0  0
    0.1736   -2.2568    0.2069 C   0  0  0  0  0  0  0  0  0  0  0  0
   -0.2541    1.8422   -2.0293 C   0  0  0  0  0  0  0  0  0  0  0  0
   -4.3102   -1.4059    2.1811 C   0  0  0  0  0  0  0  0  0  0  0  0
   -5.1990   -1.7390   -0.4495 C   0  0  0  0  0  0  0  0  0  0  0  0
   -0.9662    2.4781   -0.8583 C   0  0  0  0  0  0  0  0  0  0  0  0
   -5.6692   -1.3050    1.8821 C   0  0  0  0  0  0  0  0  0  0  0  0
   -6.1124   -1.4715    0.5702 C   0  0  0  0  0  0  0  0  0  0  0  0
    2.4552   -2.6205    1.1320 C   0  0  0  0  0  0  0  0  0  0  0  0
   -0.2237    3.0546    0.1620 C   0  0  0  0  0  0  0  0  0  0  0  0
   -2.3531    2.4758   -0.8213 C   0  0  0  0  0  0  0  0  0  0  0  0
    3.6013   -1.7223    0.7790 C   0  0  0  0  0  0  0  0  0  0  0  0
   -0.8824    3.6405    1.2431 C   0  0  0  0  0  0  0  0  0  0  0  0
   -3.0118    3.0629    0.2591 C   0  0  0  0  0  0  0  0  0  0  0  0
    1.2697    3.0639    0.1340 C   0  0  0  0  0  0  0  0  0  0  0  0
   -3.1645    1.8577   -1.9124 C   0  0  0  0  0  0  0  0  0  0  0  0
   -2.2764    3.6448    1.2915 C   0  0  0  0  0  0  0  0  0  0  0  0
    5.2199   -0.2853    1.1168 C   0  0  0  0  0  0  0  0  0  0  0  0
    5.1160   -0.6445   -0.2242 C   0  0  0  0  0  0  0  0  0  0  0  0
    6.1703    0.6161    1.5977 C   0  0  0  0  0  0  0  0  0  0  0  0
    6.0053   -0.0808   -1.1548 C   0  0  0  0  0  0  0  0  0  0  0  0
    7.0470    1.1675    0.6576 C   0  0  0  0  0  0  0  0  0  0  0  0
    6.9677    0.8266   -0.6947 C   0  0  0  0  0  0  0  0  0  0  0  0
   -0.6987   -0.3194    0.5948 H   0  0  0  0  0  0  0  0  0  0  0  0
   -1.7571   -2.9081    1.6438 H   0  0  0  0  0  0  0  0  0  0  0  0
   -1.6510   -1.3201    2.3810 H   0  0  0  0  0  0  0  0  0  0  0  0
   -3.2323   -1.9694   -2.2137 H   0  0  0  0  0  0  0  0  0  0  0  0
   -2.5105   -3.1834   -1.1504 H   0  0  0  0  0  0  0  0  0  0  0  0
    0.4808    0.2340   -0.8194 H   0  0  0  0  0  0  0  0  0  0  0  0
   -0.7800    2.0142   -2.9734 H   0  0  0  0  0  0  0  0  0  0  0  0
    0.6874    2.3793   -2.2043 H   0  0  0  0  0  0  0  0  0  0  0  0
   -3.9792   -1.2905    3.2096 H   0  0  0  0  0  0  0  0  0  0  0  0
   -5.5570   -1.8743   -1.4663 H   0  0  0  0  0  0  0  0  0  0  0  0
    1.1037   -1.0723    1.6401 H   0  0  0  0  0  0  0  0  0  0  0  0
   -6.3847   -1.1040    2.6742 H   0  0  0  0  0  0  0  0  0  0  0  0
   -7.1720   -1.3978    0.3428 H   0  0  0  0  0  0  0  0  0  0  0  0
    1.3120   -1.0786   -2.5049 H   0  0  0  0  0  0  0  0  0  0  0  0
    1.9071    0.4318   -2.6374 H   0  0  0  0  0  0  0  0  0  0  0  0
    2.4388   -3.4873    0.4639 H   0  0  0  0  0  0  0  0  0  0  0  0
    2.5440   -2.9850    2.1607 H   0  0  0  0  0  0  0  0  0  0  0  0
   -0.3130    4.0964    2.0495 H   0  0  0  0  0  0  0  0  0  0  0  0
   -4.0981    3.0674    0.3069 H   0  0  0  0  0  0  0  0  0  0  0  0
    1.6374    3.7159   -0.6649 H   0  0  0  0  0  0  0  0  0  0  0  0
    1.6839    3.4468    1.0739 H   0  0  0  0  0  0  0  0  0  0  0  0
    1.6767    2.0565    0.0078 H   0  0  0  0  0  0  0  0  0  0  0  0
   -3.3970    0.8175   -1.6852 H   0  0  0  0  0  0  0  0  0  0  0  0
   -4.1326    2.3728   -1.9756 H   0  0  0  0  0  0  0  0  0  0  0  0
   -2.7476    1.9631   -2.9137 H   0  0  0  0  0  0  0  0  0  0  0  0
    4.0101   -0.9812    2.7265 H   0  0  0  0  0  0  0  0  0  0  0  0
    6.2298    0.8791    2.6477 H   0  0  0  0  0  0  0  0  0  0  0  0
    5.9515   -0.3389   -2.2077 H   0  0  0  0  0  0  0  0  0  0  0  0
   -2.2579    4.5697    2.9657 H   0  0  0  0  0  0  0  0  0  0  0  0
    7.8043    1.8749    0.9865 H   0  0  0  0  0  0  0  0  0  0  0  0
    7.6631    1.2718   -1.4016 H   0  0  0  0  0  0  0  0  0  0  0  0
  1 14  2  0  0  0  0
  2 16  2  0  0  0  0
  3 31  1  0  0  0  0
  3 66  1  0  0  0  0
  4  9  1  0  0  0  0
  4 11  1  0  0  0  0
  4 14  1  0  0  0  0
  5 16  1  0  0  0  0
  5 23  1  0  0  0  0
  5 48  1  0  0  0  0
  6 15  1  0  0  0  0
  6 51  1  0  0  0  0
  6 52  1  0  0  0  0
  7 26  1  0  0  0  0
  7 32  1  0  0  0  0
  7 63  1  0  0  0  0
  8 26  2  0  0  0  0
  8 33  1  0  0  0  0
  9 10  1  0  0  0  0
  9 16  1  0  0  0  0
  9 38  1  0  0  0  0
 10 12  1  0  0  0  0
 10 39  1  0  0  0  0
 10 40  1  0  0  0  0
 11 13  1  0  0  0  0
 11 41  1  0  0  0  0
 11 42  1  0  0  0  0
 12 13  1  0  0  0  0
 12 18  2  0  0  0  0
 13 19  2  0  0  0  0
 14 15  1  0  0  0  0
 15 17  1  0  0  0  0
 15 43  1  0  0  0  0
 17 20  1  0  0  0  0
 17 44  1  0  0  0  0
 17 45  1  0  0  0  0
 18 21  1  0  0  0  0
 18 46  1  0  0  0  0
 19 22  1  0  0  0  0
 19 47  1  0  0  0  0
 20 24  2  0  0  0  0
 20 25  1  0  0  0  0
 21 22  2  0  0  0  0
 21 49  1  0  0  0  0
 22 50  1  0  0  0  0
 23 26  1  0  0  0  0
 23 53  1  0  0  0  0
 23 54  1  0  0  0  0
 24 27  1  0  0  0  0
 24 29  1  0  0  0  0
 25 28  2  0  0  0  0
 25 30  1  0  0  0  0
 27 31  2  0  0  0  0
 27 55  1  0  0  0  0
 28 31  1  0  0  0  0
 28 56  1  0  0  0  0
 29 57  1  0  0  0  0
 29 58  1  0  0  0  0
 29 59  1  0  0  0  0
 30 60  1  0  0  0  0
 30 61  1  0  0  0  0
 30 62  1  0  0  0  0
 32 33  1  0  0  0  0
 32 34  2  0  0  0  0
 33 35  2  0  0  0  0
 34 36  1  0  0  0  0
 34 64  1  0  0  0  0
 35 37  1  0  0  0  0
 35 65  1  0  0  0  0
 36 37  2  0  0  0  0
 36 67  1  0  0  0  0
 37 68  1  0  0  0  0
M  END
> <PUBCHEM_COMPOUND_CID>
10345770

> <PUBCHEM_CONFORMER_RMSD>
1

> <PUBCHEM_CONFORMER_DIVERSEORDER>
7
139
65
105
214
25
126
71
49
76
233
207
165
158
192
191
189
74
88
146
47
127
187
38
67
80
216
145
117
129
90
108
81
172
220
168
230
122
60
143
19
16
15
223
72
211
234
218
166
31
125
195
155
148
26
104
92
219
200
48
213
109
113
151
144
20
100
97
106
107
116
164
4
121
42
61
193
181
210
57
215
132
103
156
10
112
46
198
162
134
142
22
37
96
64
77
53
33
161
228
91
206
252
202
128
44
176
84
208
28
205
159
249
94
1
52
32
185
147
204
201
87
34
135
66
188
68
63
55
17
242
78
36
58
99
153
118
152
150
137
120
178
123
212
101
194
222
45
236
182
41
235
43
224
157
83
30
115
89
5
40
174
111
14
85
183
231
59
171
98
141
140
18
35
86
50
179
62
79
95
131
160
167
13
217
184
241
51
229
12
199
221
73
24
232
2
243
119
136
11
180
170
6
196
93
190
29
82
246
154
130
197
169
238
70
8
75
226
173
186
102
227
27
69
39
21
124
245
175
138
209
56
114
237
110
244
240
133
163
248
203
23
225
247
177
239
251
149
3
9
54
250

> <PUBCHEM_MMFF94_PARTIAL_CHARGES>
52
1 -0.57
10 0.14
11 0.44
12 -0.14
13 -0.14
14 0.57
15 0.33
16 0.57
17 0.14
18 -0.15
19 -0.15
2 -0.57
20 -0.14
21 -0.15
22 -0.15
23 0.48
24 -0.14
25 -0.14
26 0.01
27 -0.15
28 -0.15
29 0.14
3 -0.53
30 0.14
31 0.08
32 -0.15
33 0.23
34 -0.15
35 -0.15
36 -0.15
37 -0.15
4 -0.66
46 0.15
47 0.15
48 0.37
49 0.15
5 -0.73
50 0.15
51 0.36
52 0.36
55 0.15
56 0.15
6 -0.99
63 0.27
64 0.15
65 0.15
66 0.45
67 0.15
68 0.15
7 0.03
8 -0.57
9 0.36

> <PUBCHEM_EFFECTIVE_ROTOR_COUNT>
8.8

> <PUBCHEM_PHARMACOPHORE_FEATURES>
13
1 1 acceptor
1 2 acceptor
1 3 donor
1 5 donor
1 6 cation
1 6 donor
1 7 donor
3 7 8 26 cation
5 7 8 26 32 33 rings
6 12 13 18 19 21 22 rings
6 20 24 25 27 28 31 rings
6 32 33 34 35 36 37 rings
6 4 9 10 11 12 13 rings

> <PUBCHEM_HEAVY_ATOM_COUNT>
37

> <PUBCHEM_ATOM_DEF_STEREO_COUNT>
2

> <PUBCHEM_ATOM_UDEF_STEREO_COUNT>
0

> <PUBCHEM_BOND_DEF_STEREO_COUNT>
0

> <PUBCHEM_BOND_UDEF_STEREO_COUNT>
0

> <PUBCHEM_ISOTOPIC_ATOM_COUNT>
0

> <PUBCHEM_COMPONENT_COUNT>
1

> <PUBCHEM_CACTVS_TAUTO_COUNT>
20

> <PUBCHEM_CONFORMER_ID>
009DDD2A00000007

> <PUBCHEM_MMFF94_ENERGY>
97.328

> <PUBCHEM_FEATURE_SELFOVERLAP>
66.107

> <PUBCHEM_SHAPE_FINGERPRINT>
10290309 65 17676756600844751898
10670039 82 18261118457359544614
11578080 2 17129883629329553655
12156800 1 18053978110852795457
12422481 6 17775015608395293385
12677640 9 17691689308415456898
12788726 201 18195270964122693604
14040221 97 18113621157587412597
14068700 675 18263360442218085421
14705955 166 18060428984522815656
14840074 17 18412546547788401510
150020 26 17466522513117906913
15338160 23 18340773641410006241
15721738 202 18041000691570144700
15968369 153 18201428225302260240
17980427 23 17632021940003300995
22223350 30 17610069231980992962
27425 322 17550108057103554185
392239 28 18337103579302669514
469060 322 16877946010085711502
5265222 85 16382288685136062636

> <PUBCHEM_SHAPE_MULTIPOLES>
718.93
14.1
4.7
2.4
21.43
4.47
-0.81
-4.37
4.82
-4.25
1.91
-1.3
0.51
-0.23

> <PUBCHEM_SHAPE_SELFOVERLAP>
1577.636

> <PUBCHEM_SHAPE_VOLUME>
388.5

> <PUBCHEM_COORDINATE_TYPE>
2
5
10

$$$$
