10341838
  -OEChem-03292013303D

 46 48  0     0  0  0  0  0  0999 V2000
    5.3950    1.3696    0.2022 O   0  0  0  0  0  0  0  0  0  0  0  0
   -1.0015   -0.7028    0.5635 O   0  0  0  0  0  0  0  0  0  0  0  0
    1.2349    1.5334   -0.4545 O   0  0  0  0  0  0  0  0  0  0  0  0
    1.0313   -3.2301   -0.3742 O   0  0  0  0  0  0  0  0  0  0  0  0
    3.5518    2.6251   -0.1190 O   0  0  0  0  0  0  0  0  0  0  0  0
   -6.4820   -0.4614   -0.0034 O   0  0  0  0  0  0  0  0  0  0  0  0
   -0.8384   -0.7589   -1.7617 O   0  0  0  0  0  0  0  0  0  0  0  0
   -2.4942   -3.0287    0.4770 O   0  0  0  0  0  0  0  0  0  0  0  0
   -2.8391    2.8240   -0.3637 O   0  0  0  0  0  0  0  0  0  0  0  0
   -1.1728    1.9855    0.9850 O   0  0  0  0  0  0  0  0  0  0  0  0
    3.2613    0.2642   -0.1064 C   0  0  0  0  0  0  0  0  0  0  0  0
    3.8883   -0.9786    0.0222 C   0  0  0  0  0  0  0  0  0  0  0  0
    1.1282   -0.8335   -0.4153 C   0  0  0  0  0  0  0  0  0  0  0  0
    1.8807    0.3377   -0.3253 C   0  0  0  0  0  0  0  0  0  0  0  0
    3.1256   -2.1487   -0.0696 C   0  0  0  0  0  0  0  0  0  0  0  0
    1.7492   -2.0746   -0.2877 C   0  0  0  0  0  0  0  0  0  0  0  0
    5.3233   -1.0408    0.2494 C   0  0  0  0  0  0  0  0  0  0  0  0
    4.0525    1.5134   -0.0122 C   0  0  0  0  0  0  0  0  0  0  0  0
    6.0116    0.1037    0.3302 C   0  0  0  0  0  0  0  0  0  0  0  0
   -0.3117   -0.7664   -0.6432 C   0  0  0  0  0  0  0  0  0  0  0  0
   -2.3901   -0.6363    0.4207 C   0  0  0  0  0  0  0  0  0  0  0  0
   -2.9956    0.5983    0.3235 C   0  0  0  0  0  0  0  0  0  0  0  0
   -3.1047   -1.8147    0.3806 C   0  0  0  0  0  0  0  0  0  0  0  0
    7.4856    0.1673    0.5614 C   0  0  0  0  0  0  0  0  0  0  0  0
   -4.3818    0.6575    0.1797 C   0  0  0  0  0  0  0  0  0  0  0  0
   -5.1293   -0.5191    0.1363 C   0  0  0  0  0  0  0  0  0  0  0  0
   -4.4909   -1.7553    0.2368 C   0  0  0  0  0  0  0  0  0  0  0  0
   -2.2340    1.8393    0.3668 C   0  0  0  0  0  0  0  0  0  0  0  0
   -7.0701    0.8351   -0.0996 C   0  0  0  0  0  0  0  0  0  0  0  0
   -2.1830    4.0960   -0.3997 C   0  0  0  0  0  0  0  0  0  0  0  0
    3.5990   -3.1235    0.0282 H   0  0  0  0  0  0  0  0  0  0  0  0
    5.8037   -2.0076    0.3487 H   0  0  0  0  0  0  0  0  0  0  0  0
    7.9307   -0.8286    0.6559 H   0  0  0  0  0  0  0  0  0  0  0  0
    7.7001    0.7210    1.4810 H   0  0  0  0  0  0  0  0  0  0  0  0
    7.9771    0.6785   -0.2725 H   0  0  0  0  0  0  0  0  0  0  0  0
   -4.8469    1.6354    0.1243 H   0  0  0  0  0  0  0  0  0  0  0  0
   -5.0808   -2.6680    0.2020 H   0  0  0  0  0  0  0  0  0  0  0  0
    1.8499    2.2751   -0.3577 H   0  0  0  0  0  0  0  0  0  0  0  0
    0.0907   -3.0389   -0.5190 H   0  0  0  0  0  0  0  0  0  0  0  0
   -3.1684   -3.7279    0.4263 H   0  0  0  0  0  0  0  0  0  0  0  0
   -6.7268    1.3688   -0.9924 H   0  0  0  0  0  0  0  0  0  0  0  0
   -6.9193    1.4150    0.8174 H   0  0  0  0  0  0  0  0  0  0  0  0
   -8.1499    0.6914   -0.2108 H   0  0  0  0  0  0  0  0  0  0  0  0
   -1.1868    3.9940   -0.8404 H   0  0  0  0  0  0  0  0  0  0  0  0
   -2.1184    4.5149    0.6088 H   0  0  0  0  0  0  0  0  0  0  0  0
   -2.7775    4.7684   -1.0237 H   0  0  0  0  0  0  0  0  0  0  0  0
  1 18  1  0  0  0  0
  1 19  1  0  0  0  0
  2 20  1  0  0  0  0
  2 21  1  0  0  0  0
  3 14  1  0  0  0  0
  3 38  1  0  0  0  0
  4 16  1  0  0  0  0
  4 39  1  0  0  0  0
  5 18  2  0  0  0  0
  6 26  1  0  0  0  0
  6 29  1  0  0  0  0
  7 20  2  0  0  0  0
  8 23  1  0  0  0  0
  8 40  1  0  0  0  0
  9 28  1  0  0  0  0
  9 30  1  0  0  0  0
 10 28  2  0  0  0  0
 11 12  1  0  0  0  0
 11 14  2  0  0  0  0
 11 18  1  0  0  0  0
 12 15  2  0  0  0  0
 12 17  1  0  0  0  0
 13 14  1  0  0  0  0
 13 16  2  0  0  0  0
 13 20  1  0  0  0  0
 15 16  1  0  0  0  0
 15 31  1  0  0  0  0
 17 19  2  0  0  0  0
 17 32  1  0  0  0  0
 19 24  1  0  0  0  0
 21 22  2  0  0  0  0
 21 23  1  0  0  0  0
 22 25  1  0  0  0  0
 22 28  1  0  0  0  0
 23 27  2  0  0  0  0
 24 33  1  0  0  0  0
 24 34  1  0  0  0  0
 24 35  1  0  0  0  0
 25 26  2  0  0  0  0
 25 36  1  0  0  0  0
 26 27  1  0  0  0  0
 27 37  1  0  0  0  0
 29 41  1  0  0  0  0
 29 42  1  0  0  0  0
 29 43  1  0  0  0  0
 30 44  1  0  0  0  0
 30 45  1  0  0  0  0
 30 46  1  0  0  0  0
M  END
> <PUBCHEM_COMPOUND_CID>
10341838

> <PUBCHEM_CONFORMER_RMSD>
0.8

> <PUBCHEM_CONFORMER_DIVERSEORDER>
2
85
68
108
50
115
91
15
94
76
112
22
109
48
66
24
118
117
114
103
70
98
81
92
119
62
116
63
34
56
64
5
9
71
90
93
82
102
60
107
51
41
44
110
3
72
104
78
43
32
83
49
80
97
96
95
99
1
35
74
73
105
57
111
84
89
67
7
100
27
47
101
65
4
21
79
77
20
29
61
13
14
37
106
69
45
12
42
113
40
28
87
25
6
53
38
46
54
16
23
10
19
26
33
88
17
86
31
58
39
75
11
18
30
36
8
55
59
52

> <PUBCHEM_MMFF94_PARTIAL_CHARGES>
37
1 -0.23
10 -0.57
11 0.09
12 0.03
13 0.09
14 0.08
15 -0.15
16 0.08
17 -0.18
18 0.63
19 -0.06
2 -0.23
20 0.63
21 0.08
22 0.09
23 0.08
24 0.14
25 -0.15
26 0.08
27 -0.15
28 0.63
29 0.28
3 -0.53
30 0.28
31 0.15
32 0.15
36 0.15
37 0.15
38 0.45
39 0.45
4 -0.53
40 0.45
5 -0.57
6 -0.36
7 -0.57
8 -0.53
9 -0.43

> <PUBCHEM_EFFECTIVE_ROTOR_COUNT>
6

> <PUBCHEM_PHARMACOPHORE_FEATURES>
10
1 10 acceptor
1 3 donor
1 4 donor
1 5 acceptor
1 6 acceptor
1 7 acceptor
1 8 donor
6 1 11 12 17 18 19 rings
6 11 12 13 14 15 16 rings
6 21 22 23 25 26 27 rings

> <PUBCHEM_HEAVY_ATOM_COUNT>
30

> <PUBCHEM_ATOM_DEF_STEREO_COUNT>
0

> <PUBCHEM_ATOM_UDEF_STEREO_COUNT>
0

> <PUBCHEM_BOND_DEF_STEREO_COUNT>
0

> <PUBCHEM_BOND_UDEF_STEREO_COUNT>
0

> <PUBCHEM_ISOTOPIC_ATOM_COUNT>
0

> <PUBCHEM_COMPONENT_COUNT>
1

> <PUBCHEM_CACTVS_TAUTO_COUNT>
51

> <PUBCHEM_CONFORMER_ID>
009DCDCE00000002

> <PUBCHEM_MMFF94_ENERGY>
115.6428

> <PUBCHEM_FEATURE_SELFOVERLAP>
50.774

> <PUBCHEM_SHAPE_FINGERPRINT>
10 15 18271515490840736064
10835480 77 18337386038201535085
10906281 52 18129401375014074987
11578080 2 17024853880239125071
12107183 9 17686050600903241674
12107698 1 18334290968313433464
12166972 35 17749110036202599212
12236239 1 17918273164495671718
12788726 201 18335696101434860425
12838862 33 18339625794441456529
12925494 130 18269830917777148281
13402501 40 18413107273148677953
13533116 47 17895470323969616851
14117953 113 18409169909119637333
14341114 176 18409172103926994218
14466204 15 18410852119514290744
14790565 3 17616540995934921917
17492 89 18196373615656736831
19611394 137 17970360432424084587
21033648 29 17631717301856110778
21267235 1 18411708664235509238
21315764 268 18411975876053533144
21859007 373 17459739333986616693
22393880 68 18268440023104199886
23402539 116 18413668024622312127
23559900 14 18410570721255985281
3004659 81 18259702315329479752
335352 9 18410293635456198406
3380486 145 18263942088860446251
34934 24 18412544340723610047
350125 39 18411136957102188772
3545911 37 18410013238537514090
4073 2 17968100888583793818
4325135 7 18131068229909057149
5104073 3 18337680693683875899
57527585 21 16628265499615960833
59755656 215 18410859849927980734
59755656 520 16877939473177629995
6009941 240 17530684321358136571
67856867 119 18335705008627391020
9709674 26 18340778018018720767

> <PUBCHEM_SHAPE_MULTIPOLES>
558.69
15.48
3.34
0.8
4.12
1.58
-0.11
1.5
2.24
-1.54
-0.21
-0.06
-0.04
0.42

> <PUBCHEM_SHAPE_SELFOVERLAP>
1231.274

> <PUBCHEM_SHAPE_VOLUME>
299.2

> <PUBCHEM_COORDINATE_TYPE>
2
5
10

$$$$
