10343777
  -OEChem-03292013303D

 58 61  0     1  0  0  0  0  0999 V2000
    5.1733   -3.1920    0.3530 Cl  0  0  0  0  0  0  0  0  0  0  0  0
   -1.7976    2.2482   -1.1107 O   0  0  0  0  0  0  0  0  0  0  0  0
    1.0617    0.8195    0.1602 O   0  0  0  0  0  0  0  0  0  0  0  0
   -4.5277    1.0232   -0.7776 O   0  0  0  0  0  0  0  0  0  0  0  0
    0.3452    0.9605   -2.6348 O   0  0  0  0  0  0  0  0  0  0  0  0
    1.9634    1.3578    2.2086 O   0  0  0  0  0  0  0  0  0  0  0  0
    3.9071    2.5172   -0.2998 O   0  0  0  0  0  0  0  0  0  0  0  0
    6.8392   -1.1448   -1.0289 O   0  0  0  0  0  0  0  0  0  0  0  0
   -2.2814    0.8279    0.9188 C   0  0  2  0  0  0  0  0  0  0  0  0
   -3.3337   -0.2680    0.8908 C   0  0  2  0  0  0  0  0  0  0  0  0
   -1.4332    1.0679   -0.3625 C   0  0  2  0  0  0  0  0  0  0  0  0
   -2.9830   -1.4674   -0.0139 C   0  0  1  0  0  0  0  0  0  0  0  0
   -0.9551    0.5101    1.6620 C   0  0  0  0  0  0  0  0  0  0  0  0
   -0.2289    1.3332    0.5811 C   0  0  1  0  0  0  0  0  0  0  0  0
   -4.7006    0.2199    0.3865 C   0  0  2  0  0  0  0  0  0  0  0  0
   -5.4381   -1.0931    0.0453 C   0  0  0  0  0  0  0  0  0  0  0  0
   -4.3282   -1.9241   -0.6334 C   0  0  0  0  0  0  0  0  0  0  0  0
   -1.2700   -0.0922   -1.2719 C   0  0  0  0  0  0  0  0  0  0  0  0
   -2.7594    2.2142    1.4225 C   0  0  0  0  0  0  0  0  0  0  0  0
   -1.9663   -1.2232   -1.0996 C   0  0  0  0  0  0  0  0  0  0  0  0
   -5.9423   -1.8028    1.3167 C   0  0  0  0  0  0  0  0  0  0  0  0
   -6.6306   -0.8940   -0.8995 C   0  0  0  0  0  0  0  0  0  0  0  0
   -0.3328   -0.0303   -2.3973 C   0  0  0  0  0  0  0  0  0  0  0  0
    2.0574    0.9000    1.0802 C   0  0  0  0  0  0  0  0  0  0  0  0
    3.3180    0.3425    0.5286 C   0  0  0  0  0  0  0  0  0  0  0  0
    3.5984   -1.0012    0.6915 C   0  0  0  0  0  0  0  0  0  0  0  0
    4.1818    1.1919   -0.1378 C   0  0  0  0  0  0  0  0  0  0  0  0
    4.7857   -1.5144    0.1691 C   0  0  0  0  0  0  0  0  0  0  0  0
    5.3689    0.6788   -0.6600 C   0  0  0  0  0  0  0  0  0  0  0  0
    2.6381   -1.8911    1.4196 C   0  0  0  0  0  0  0  0  0  0  0  0
    5.6708   -0.6744   -0.5068 C   0  0  0  0  0  0  0  0  0  0  0  0
   -3.4676   -0.6374    1.9163 H   0  0  0  0  0  0  0  0  0  0  0  0
   -2.5882   -2.2745    0.6172 H   0  0  0  0  0  0  0  0  0  0  0  0
   -0.6793   -0.5512    1.6769 H   0  0  0  0  0  0  0  0  0  0  0  0
   -0.8700    0.8917    2.6844 H   0  0  0  0  0  0  0  0  0  0  0  0
   -0.1143    2.3971    0.8282 H   0  0  0  0  0  0  0  0  0  0  0  0
   -5.2333    0.8161    1.1342 H   0  0  0  0  0  0  0  0  0  0  0  0
   -4.3359   -1.7647   -1.7197 H   0  0  0  0  0  0  0  0  0  0  0  0
   -4.4780   -2.9997   -0.4795 H   0  0  0  0  0  0  0  0  0  0  0  0
   -3.2345    2.0971    2.4044 H   0  0  0  0  0  0  0  0  0  0  0  0
   -1.9672    2.9571    1.5547 H   0  0  0  0  0  0  0  0  0  0  0  0
   -3.5060    2.6644    0.7616 H   0  0  0  0  0  0  0  0  0  0  0  0
   -1.8035   -2.0610   -1.7757 H   0  0  0  0  0  0  0  0  0  0  0  0
   -6.6397   -1.1628    1.8685 H   0  0  0  0  0  0  0  0  0  0  0  0
   -6.4707   -2.7291    1.0627 H   0  0  0  0  0  0  0  0  0  0  0  0
   -5.1312   -2.0776    1.9976 H   0  0  0  0  0  0  0  0  0  0  0  0
   -7.1111   -1.8509   -1.1325 H   0  0  0  0  0  0  0  0  0  0  0  0
   -7.3828   -0.2406   -0.4440 H   0  0  0  0  0  0  0  0  0  0  0  0
   -6.3316   -0.4429   -1.8516 H   0  0  0  0  0  0  0  0  0  0  0  0
   -2.6731    2.0579   -1.4885 H   0  0  0  0  0  0  0  0  0  0  0  0
   -4.1591    0.4792   -1.4920 H   0  0  0  0  0  0  0  0  0  0  0  0
   -0.2647   -0.9318   -3.0291 H   0  0  0  0  0  0  0  0  0  0  0  0
    6.0587    1.3337   -1.1868 H   0  0  0  0  0  0  0  0  0  0  0  0
    2.2125   -2.6274    0.7291 H   0  0  0  0  0  0  0  0  0  0  0  0
    3.1468   -2.4153    2.2363 H   0  0  0  0  0  0  0  0  0  0  0  0
    1.7982   -1.3677    1.8825 H   0  0  0  0  0  0  0  0  0  0  0  0
    3.0524    2.7401    0.1026 H   0  0  0  0  0  0  0  0  0  0  0  0
    6.8970   -2.0968   -0.8373 H   0  0  0  0  0  0  0  0  0  0  0  0
  1 28  1  0  0  0  0
  2 11  1  0  0  0  0
  2 50  1  0  0  0  0
  3 14  1  0  0  0  0
  3 24  1  0  0  0  0
  4 15  1  0  0  0  0
  4 51  1  0  0  0  0
  5 23  2  0  0  0  0
  6 24  2  0  0  0  0
  7 27  1  0  0  0  0
  7 57  1  0  0  0  0
  8 31  1  0  0  0  0
  8 58  1  0  0  0  0
  9 10  1  0  0  0  0
  9 11  1  0  0  0  0
  9 13  1  0  0  0  0
  9 19  1  0  0  0  0
 10 12  1  0  0  0  0
 10 15  1  0  0  0  0
 10 32  1  0  0  0  0
 11 14  1  0  0  0  0
 11 18  1  0  0  0  0
 12 17  1  0  0  0  0
 12 20  1  0  0  0  0
 12 33  1  0  0  0  0
 13 14  1  0  0  0  0
 13 34  1  0  0  0  0
 13 35  1  0  0  0  0
 14 36  1  0  0  0  0
 15 16  1  0  0  0  0
 15 37  1  0  0  0  0
 16 17  1  0  0  0  0
 16 21  1  0  0  0  0
 16 22  1  0  0  0  0
 17 38  1  0  0  0  0
 17 39  1  0  0  0  0
 18 20  2  0  0  0  0
 18 23  1  0  0  0  0
 19 40  1  0  0  0  0
 19 41  1  0  0  0  0
 19 42  1  0  0  0  0
 20 43  1  0  0  0  0
 21 44  1  0  0  0  0
 21 45  1  0  0  0  0
 21 46  1  0  0  0  0
 22 47  1  0  0  0  0
 22 48  1  0  0  0  0
 22 49  1  0  0  0  0
 23 52  1  0  0  0  0
 24 25  1  0  0  0  0
 25 26  2  0  0  0  0
 25 27  1  0  0  0  0
 26 28  1  0  0  0  0
 26 30  1  0  0  0  0
 27 29  2  0  0  0  0
 28 31  2  0  0  0  0
 29 31  1  0  0  0  0
 29 53  1  0  0  0  0
 30 54  1  0  0  0  0
 30 55  1  0  0  0  0
 30 56  1  0  0  0  0
M  END
> <PUBCHEM_COMPOUND_CID>
10343777

> <PUBCHEM_CONFORMER_RMSD>
0.8

> <PUBCHEM_CONFORMER_DIVERSEORDER>
2
11
16
13
14
9
17
3
12
5
10
7
4
8
6
15
1

> <PUBCHEM_MMFF94_PARTIAL_CHARGES>
30
1 -0.18
11 0.37
12 0.14
14 0.26
15 0.28
18 -0.1
2 -0.66
20 -0.29
23 0.5
24 0.63
25 0.09
26 -0.14
27 0.08
28 0.18
29 -0.15
3 -0.41
30 0.14
31 0.08
4 -0.68
43 0.15
5 -0.57
50 0.4
51 0.4
52 0.06
53 0.15
57 0.45
58 0.45
6 -0.57
7 -0.53
8 -0.53

> <PUBCHEM_EFFECTIVE_ROTOR_COUNT>
5

> <PUBCHEM_PHARMACOPHORE_FEATURES>
13
1 2 acceptor
1 2 donor
1 4 acceptor
1 4 donor
1 5 acceptor
1 6 acceptor
1 7 donor
1 8 donor
3 16 21 22 hydrophobe
4 9 11 13 14 rings
5 10 12 15 16 17 rings
6 25 26 27 28 29 31 rings
6 9 10 11 12 18 20 rings

> <PUBCHEM_HEAVY_ATOM_COUNT>
31

> <PUBCHEM_ATOM_DEF_STEREO_COUNT>
6

> <PUBCHEM_ATOM_UDEF_STEREO_COUNT>
0

> <PUBCHEM_BOND_DEF_STEREO_COUNT>
0

> <PUBCHEM_BOND_UDEF_STEREO_COUNT>
0

> <PUBCHEM_ISOTOPIC_ATOM_COUNT>
0

> <PUBCHEM_COMPONENT_COUNT>
1

> <PUBCHEM_CACTVS_TAUTO_COUNT>
25

> <PUBCHEM_CONFORMER_ID>
009DD56100000002

> <PUBCHEM_MMFF94_ENERGY>
105.6081

> <PUBCHEM_FEATURE_SELFOVERLAP>
66.619

> <PUBCHEM_SHAPE_FINGERPRINT>
10498660 4 14201404867744625832
10692045 39 12607417571974146388
11578080 2 17971188119781566221
117089 54 17985558749600647014
11763715 3 18188791490497740300
11961588 58 8142091918807497921
12107183 9 17908711630970553344
12236239 1 18273501173784623280
12422481 6 16558758914303360621
12633257 1 17131836503371571687
12760667 363 18060418023729378675
12788726 201 18060143128484187153
13533116 47 18412544340206249306
1361 2 17676490609160806398
13726171 33 17130732602720510000
13782708 43 18411980251960335599
13911987 19 14490198210581170282
14341114 176 18272091629673306696
14347332 77 18337105679299032456
14840074 17 18040721372065811951
14910302 57 18334846217305752688
15183329 4 18335420153574624587
15238133 3 12391515312876235922
15475509 8 17095801015167919133
15537594 2 18272367611403111726
16728300 4 17986950752299875463
17349148 13 16988564649726147745
1813 80 17240474832280709279
19319366 153 18128813226366468632
20567600 75 18334286583531457207
21304304 249 17775002431979143775
221357 26 18334576824478337810
23522609 53 17771657738787283137
23559900 14 18200023075222108033
2838139 119 9511463294969385755
3004659 81 18411980265356466402
3383291 50 17632576050197090166
3633792 109 18259979375781163813
44880168 125 16630246909894804694
46194498 28 17895193333613580628
465052 167 17774726475618215163
497634 4 18409733923929613292
5104073 3 17704069564978679952
54039377 194 18129949980046539542
57724786 102 13470392405976234810
7970288 3 18123749760588805674

> <PUBCHEM_SHAPE_MULTIPOLES>
598.75
15.09
2.48
1.76
3.69
0.48
0.46
8.34
0.77
1.32
-0.43
-0.33
-0.32
-0.47

> <PUBCHEM_SHAPE_SELFOVERLAP>
1302.963

> <PUBCHEM_SHAPE_VOLUME>
328

> <PUBCHEM_COORDINATE_TYPE>
2
5
10

$$$$
