10343423
  -OEChem-03292013303D

 64 65  0     1  0  0  0  0  0999 V2000
   -0.9564    1.2115   -2.0167 O   0  0  0  0  0  0  0  0  0  0  0  0
   -0.9709   -2.1251   -0.6492 O   0  0  0  0  0  0  0  0  0  0  0  0
    1.1853   -2.6188   -1.1178 O   0  0  0  0  0  0  0  0  0  0  0  0
    8.3909   -1.0458   -0.8426 O   0  0  0  0  0  0  0  0  0  0  0  0
   -1.0513    3.6387    1.6378 O   0  0  0  0  0  0  0  0  0  0  0  0
   -6.7439   -2.0524    1.3115 N   0  0  0  0  0  0  0  0  0  0  0  0
    6.6564    0.0571    0.2510 N   0  0  0  0  0  0  0  0  0  0  0  0
   -0.4666    0.3742    0.0942 N   0  0  0  0  0  0  0  0  0  0  0  0
   -2.2335    3.2250   -0.3255 N   0  0  0  0  0  0  0  0  0  0  0  0
   -4.3938   -1.9553    0.5474 C   0  0  0  0  0  0  0  0  0  0  0  0
   -5.8665   -2.1566    0.1432 C   0  0  2  0  0  0  0  0  0  0  0  0
    4.8773   -1.4662   -0.5433 C   0  0  0  0  0  0  0  0  0  0  0  0
   -4.0470   -0.4777    0.7491 C   0  0  0  0  0  0  0  0  0  0  0  0
    5.8542   -1.1190    0.5958 C   0  0  2  0  0  0  0  0  0  0  0  0
    3.6466   -0.5551   -0.5465 C   0  0  0  0  0  0  0  0  0  0  0  0
   -4.3955    0.3371   -0.4747 C   0  0  0  0  0  0  0  0  0  0  0  0
    2.9517   -0.5713    0.7949 C   0  0  0  0  0  0  0  0  0  0  0  0
   -6.2864   -1.1623   -0.9081 C   0  0  0  0  0  0  0  0  0  0  0  0
    5.1224   -0.8830    1.8916 C   0  0  0  0  0  0  0  0  0  0  0  0
   -5.5943   -0.0498   -1.1971 C   0  0  0  0  0  0  0  0  0  0  0  0
   -2.3966    1.8047   -0.1662 C   0  0  1  0  0  0  0  0  0  0  0  0
   -3.6381    1.3688   -0.8759 C   0  0  0  0  0  0  0  0  0  0  0  0
    3.8008   -0.6638    1.9692 C   0  0  0  0  0  0  0  0  0  0  0  0
    0.6930   -0.4053   -0.2756 C   0  0  1  0  0  0  0  0  0  0  0  0
    1.6163   -0.5020    0.9000 C   0  0  0  0  0  0  0  0  0  0  0  0
   -1.2004    1.1235   -0.8144 C   0  0  0  0  0  0  0  0  0  0  0  0
   -8.1223   -2.3335    0.9447 C   0  0  0  0  0  0  0  0  0  0  0  0
    0.3466   -1.8172   -0.7185 C   0  0  0  0  0  0  0  0  0  0  0  0
    7.8561   -0.0163   -0.4397 C   0  0  0  0  0  0  0  0  0  0  0  0
   -1.5712    4.0259    0.5945 C   0  0  0  0  0  0  0  0  0  0  0  0
    8.4601    1.3406   -0.6841 C   0  0  0  0  0  0  0  0  0  0  0  0
   -1.5229    5.4695    0.1713 C   0  0  0  0  0  0  0  0  0  0  0  0
   -3.7511   -2.3702   -0.2412 H   0  0  0  0  0  0  0  0  0  0  0  0
   -4.1632   -2.5217    1.4585 H   0  0  0  0  0  0  0  0  0  0  0  0
   -5.9453   -3.1689   -0.2741 H   0  0  0  0  0  0  0  0  0  0  0  0
    5.3820   -1.4059   -1.5152 H   0  0  0  0  0  0  0  0  0  0  0  0
    4.5457   -2.5071   -0.4251 H   0  0  0  0  0  0  0  0  0  0  0  0
   -4.5953   -0.0796    1.6119 H   0  0  0  0  0  0  0  0  0  0  0  0
   -2.9855   -0.4383    1.0024 H   0  0  0  0  0  0  0  0  0  0  0  0
    6.5401   -1.9650    0.7249 H   0  0  0  0  0  0  0  0  0  0  0  0
    3.9570    0.4742   -0.7688 H   0  0  0  0  0  0  0  0  0  0  0  0
    3.0113   -0.8754   -1.3751 H   0  0  0  0  0  0  0  0  0  0  0  0
   -7.1698   -1.3856   -1.5015 H   0  0  0  0  0  0  0  0  0  0  0  0
    5.7036   -0.9242    2.8091 H   0  0  0  0  0  0  0  0  0  0  0  0
   -5.9371    0.5895   -2.0059 H   0  0  0  0  0  0  0  0  0  0  0  0
   -2.4403    1.6084    0.9089 H   0  0  0  0  0  0  0  0  0  0  0  0
   -3.9241    1.9168   -1.7729 H   0  0  0  0  0  0  0  0  0  0  0  0
    3.3426   -0.5453    2.9472 H   0  0  0  0  0  0  0  0  0  0  0  0
    1.1450    0.1052   -1.1319 H   0  0  0  0  0  0  0  0  0  0  0  0
    1.1616   -0.5337    1.8893 H   0  0  0  0  0  0  0  0  0  0  0  0
   -6.6747   -1.1288    1.7362 H   0  0  0  0  0  0  0  0  0  0  0  0
    6.2871    0.9722    0.4947 H   0  0  0  0  0  0  0  0  0  0  0  0
   -0.7838    0.3257    1.0582 H   0  0  0  0  0  0  0  0  0  0  0  0
   -2.5644    3.6564   -1.1849 H   0  0  0  0  0  0  0  0  0  0  0  0
   -8.5794   -1.5313    0.3571 H   0  0  0  0  0  0  0  0  0  0  0  0
   -8.7156   -2.4274    1.8605 H   0  0  0  0  0  0  0  0  0  0  0  0
   -8.2195   -3.2826    0.4065 H   0  0  0  0  0  0  0  0  0  0  0  0
    9.4989    1.2282   -1.0066 H   0  0  0  0  0  0  0  0  0  0  0  0
    7.8934    1.8554   -1.4647 H   0  0  0  0  0  0  0  0  0  0  0  0
    8.4418    1.9365    0.2329 H   0  0  0  0  0  0  0  0  0  0  0  0
   -2.5062    5.7977   -0.1777 H   0  0  0  0  0  0  0  0  0  0  0  0
   -0.7926    5.5877   -0.6336 H   0  0  0  0  0  0  0  0  0  0  0  0
   -1.2285    6.0922    1.0206 H   0  0  0  0  0  0  0  0  0  0  0  0
   -1.1502   -3.0421   -0.9480 H   0  0  0  0  0  0  0  0  0  0  0  0
  1 26  2  0  0  0  0
  2 28  1  0  0  0  0
  2 64  1  0  0  0  0
  3 28  2  0  0  0  0
  4 29  2  0  0  0  0
  5 30  2  0  0  0  0
  6 11  1  0  0  0  0
  6 27  1  0  0  0  0
  6 51  1  0  0  0  0
  7 14  1  0  0  0  0
  7 29  1  0  0  0  0
  7 52  1  0  0  0  0
  8 24  1  0  0  0  0
  8 26  1  0  0  0  0
  8 53  1  0  0  0  0
  9 21  1  0  0  0  0
  9 30  1  0  0  0  0
  9 54  1  0  0  0  0
 10 11  1  0  0  0  0
 10 13  1  0  0  0  0
 10 33  1  0  0  0  0
 10 34  1  0  0  0  0
 11 18  1  0  0  0  0
 11 35  1  0  0  0  0
 12 14  1  0  0  0  0
 12 15  1  0  0  0  0
 12 36  1  0  0  0  0
 12 37  1  0  0  0  0
 13 16  1  0  0  0  0
 13 38  1  0  0  0  0
 13 39  1  0  0  0  0
 14 19  1  0  0  0  0
 14 40  1  0  0  0  0
 15 17  1  0  0  0  0
 15 41  1  0  0  0  0
 15 42  1  0  0  0  0
 16 20  1  0  0  0  0
 16 22  2  0  0  0  0
 17 23  1  0  0  0  0
 17 25  2  0  0  0  0
 18 20  2  0  0  0  0
 18 43  1  0  0  0  0
 19 23  2  0  0  0  0
 19 44  1  0  0  0  0
 20 45  1  0  0  0  0
 21 22  1  0  0  0  0
 21 26  1  0  0  0  0
 21 46  1  0  0  0  0
 22 47  1  0  0  0  0
 23 48  1  0  0  0  0
 24 25  1  0  0  0  0
 24 28  1  0  0  0  0
 24 49  1  0  0  0  0
 25 50  1  0  0  0  0
 27 55  1  0  0  0  0
 27 56  1  0  0  0  0
 27 57  1  0  0  0  0
 29 31  1  0  0  0  0
 30 32  1  0  0  0  0
 31 58  1  0  0  0  0
 31 59  1  0  0  0  0
 31 60  1  0  0  0  0
 32 61  1  0  0  0  0
 32 62  1  0  0  0  0
 32 63  1  0  0  0  0
M  END
> <PUBCHEM_COMPOUND_CID>
10343423

> <PUBCHEM_CONFORMER_RMSD>
1.2

> <PUBCHEM_CONFORMER_DIVERSEORDER>
1
50
42
46
22
8
38
26
5
55
35
14
2
11
16
57
52
21
36
19
29
51
31
43
48
15
30
39
41
40
34
6
18
24
17
33
58
9
49
3
45
54
56
10
37
4
12
25
47
7
20
13
23
27
32
44
28
53

> <PUBCHEM_MMFF94_PARTIAL_CHARGES>
41
1 -0.57
11 0.41
13 0.14
14 0.44
15 0.14
16 -0.14
17 -0.14
18 -0.29
19 -0.29
2 -0.65
20 -0.15
21 0.5
22 -0.29
23 -0.15
24 0.5
25 -0.29
26 0.57
27 0.27
28 0.66
29 0.57
3 -0.57
30 0.57
31 0.06
32 0.06
4 -0.57
43 0.15
44 0.15
45 0.15
47 0.15
48 0.15
5 -0.57
50 0.15
51 0.36
52 0.37
53 0.37
54 0.37
6 -0.9
64 0.5
7 -0.73
8 -0.73
9 -0.73

> <PUBCHEM_EFFECTIVE_ROTOR_COUNT>
12.2

> <PUBCHEM_PHARMACOPHORE_FEATURES>
13
1 1 acceptor
1 2 acceptor
1 3 acceptor
1 4 acceptor
1 5 acceptor
1 6 cation
1 6 donor
1 7 donor
1 8 donor
1 9 donor
3 2 3 28 anion
6 10 11 13 16 18 20 rings
6 12 14 15 17 19 23 rings

> <PUBCHEM_HEAVY_ATOM_COUNT>
32

> <PUBCHEM_ATOM_DEF_STEREO_COUNT>
4

> <PUBCHEM_ATOM_UDEF_STEREO_COUNT>
0

> <PUBCHEM_BOND_DEF_STEREO_COUNT>
2

> <PUBCHEM_BOND_UDEF_STEREO_COUNT>
0

> <PUBCHEM_ISOTOPIC_ATOM_COUNT>
0

> <PUBCHEM_COMPONENT_COUNT>
1

> <PUBCHEM_CACTVS_TAUTO_COUNT>
8

> <PUBCHEM_CONFORMER_ID>
009DD3FF00000001

> <PUBCHEM_MMFF94_ENERGY>
47.1465

> <PUBCHEM_FEATURE_SELFOVERLAP>
66.034

> <PUBCHEM_SHAPE_FINGERPRINT>
10076449 9 18411704321923275050
10577160 183 9943527353944507128
10591671 39 18410577275824582294
10670039 82 18271240518165273800
11315181 36 17894910729113179207
12166972 35 17167864201427787799
12596602 18 17967808315548226754
12788726 201 18261667091432724795
13631057 29 18186800270971138443
13673619 4 17917708011070787344
13782708 43 18058171627043269638
14068700 675 18186238437725330541
14068700 686 18199468770800353246
15021287 119 13686291396450928642
15328829 1 17749391490321768846
15419008 47 18131347518483859192
15439362 3 9655040852440871129
15927050 60 17548415259883255325
18335252 98 18409732868022026454
18608769 82 18272650156248769934
19611394 137 18262525917124611867
21792961 116 17989210318580021638
21796203 349 18266198286710073683
21927370 108 18338812164701338985
23559900 14 17823689958314248285
2747138 104 18341888606503907360
3552219 110 18187089468014613676
4173938 306 12540693769082903812
469060 322 18270970046319912753
497634 4 18115302268227864508
550186 72 18339642239914327468
6673363 416 18411707595601555868
70634741 139 17821727247541471055

> <PUBCHEM_SHAPE_MULTIPOLES>
609.27
22.01
4.29
1.44
23.01
7.89
0.29
-13.47
-0.23
-5.92
0.93
0.34
-0.11
0.59

> <PUBCHEM_SHAPE_SELFOVERLAP>
1247.596

> <PUBCHEM_SHAPE_VOLUME>
347.7

> <PUBCHEM_COORDINATE_TYPE>
2
5
10

$$$$
