10360755
  -OEChem-03292013303D

 40 42  0     0  0  0  0  0  0999 V2000
    1.5911    2.5066    0.1252 O   0  0  0  0  0  0  0  0  0  0  0  0
   -0.1417   -0.0243    2.3223 O   0  0  0  0  0  0  0  0  0  0  0  0
    0.0761    0.2293   -2.4539 O   0  0  0  0  0  0  0  0  0  0  0  0
   -4.9041    0.1655   -1.4742 O   0  0  0  0  0  0  0  0  0  0  0  0
   -2.5644    0.2359   -2.5839 O   0  0  0  0  0  0  0  0  0  0  0  0
    2.3110   -3.3810    0.4696 O   0  0  0  0  0  0  0  0  0  0  0  0
    0.5306   -2.5850   -0.6979 O   0  0  0  0  0  0  0  0  0  0  0  0
    0.1000    0.1030   -0.0676 C   0  0  0  0  0  0  0  0  0  0  0  0
    1.5717    0.1045   -0.0049 C   0  0  0  0  0  0  0  0  0  0  0  0
   -2.1431    0.0385    0.9910 C   0  0  0  0  0  0  0  0  0  0  0  0
   -0.6651    0.0412    1.0423 C   0  0  0  0  0  0  0  0  0  0  0  0
   -2.8207    0.1037   -0.2338 C   0  0  0  0  0  0  0  0  0  0  0  0
    2.2832   -1.0957   -0.0389 C   0  0  0  0  0  0  0  0  0  0  0  0
    2.2573    1.3167    0.0893 C   0  0  0  0  0  0  0  0  0  0  0  0
   -0.5493    0.1731   -1.4042 C   0  0  0  0  0  0  0  0  0  0  0  0
   -2.0457    0.1750   -1.4801 C   0  0  0  0  0  0  0  0  0  0  0  0
    4.3603    0.1281    0.1157 C   0  0  0  0  0  0  0  0  0  0  0  0
    3.6766   -1.0840    0.0214 C   0  0  0  0  0  0  0  0  0  0  0  0
    3.6507    1.3284    0.1497 C   0  0  0  0  0  0  0  0  0  0  0  0
   -2.9179   -0.0288    2.1619 C   0  0  0  0  0  0  0  0  0  0  0  0
   -4.2198    0.1024   -0.2971 C   0  0  0  0  0  0  0  0  0  0  0  0
   -4.3149   -0.0306    2.1050 C   0  0  0  0  0  0  0  0  0  0  0  0
   -4.9648    0.0351    0.8767 C   0  0  0  0  0  0  0  0  0  0  0  0
    5.8502    0.1410    0.1806 C   0  0  0  0  0  0  0  0  0  0  0  0
    1.6100   -2.3862   -0.1366 C   0  0  0  0  0  0  0  0  0  0  0  0
    2.3829    3.6878    0.2222 C   0  0  0  0  0  0  0  0  0  0  0  0
    4.2494   -2.0077   -0.0166 H   0  0  0  0  0  0  0  0  0  0  0  0
    4.2425    2.2343    0.2262 H   0  0  0  0  0  0  0  0  0  0  0  0
   -2.4525   -0.0815    3.1436 H   0  0  0  0  0  0  0  0  0  0  0  0
   -4.8934   -0.0833    3.0229 H   0  0  0  0  0  0  0  0  0  0  0  0
   -6.0508    0.0333    0.8425 H   0  0  0  0  0  0  0  0  0  0  0  0
    6.2784   -0.7827   -0.2233 H   0  0  0  0  0  0  0  0  0  0  0  0
    6.2592    0.9679   -0.4098 H   0  0  0  0  0  0  0  0  0  0  0  0
    6.1799    0.2499    1.2186 H   0  0  0  0  0  0  0  0  0  0  0  0
    0.8280   -0.0192    2.2794 H   0  0  0  0  0  0  0  0  0  0  0  0
   -4.2946    0.2079   -2.2260 H   0  0  0  0  0  0  0  0  0  0  0  0
    2.9447    3.7236    1.1619 H   0  0  0  0  0  0  0  0  0  0  0  0
    1.6910    4.5366    0.2376 H   0  0  0  0  0  0  0  0  0  0  0  0
    3.0232    3.8205   -0.6566 H   0  0  0  0  0  0  0  0  0  0  0  0
    1.8530   -4.2458    0.3995 H   0  0  0  0  0  0  0  0  0  0  0  0
  1 14  1  0  0  0  0
  1 26  1  0  0  0  0
  2 11  1  0  0  0  0
  2 35  1  0  0  0  0
  3 15  2  0  0  0  0
  4 21  1  0  0  0  0
  4 36  1  0  0  0  0
  5 16  2  0  0  0  0
  6 25  1  0  0  0  0
  6 40  1  0  0  0  0
  7 25  2  0  0  0  0
  8  9  1  0  0  0  0
  8 11  2  0  0  0  0
  8 15  1  0  0  0  0
  9 13  2  0  0  0  0
  9 14  1  0  0  0  0
 10 11  1  0  0  0  0
 10 12  2  0  0  0  0
 10 20  1  0  0  0  0
 12 16  1  0  0  0  0
 12 21  1  0  0  0  0
 13 18  1  0  0  0  0
 13 25  1  0  0  0  0
 14 19  2  0  0  0  0
 15 16  1  0  0  0  0
 17 18  2  0  0  0  0
 17 19  1  0  0  0  0
 17 24  1  0  0  0  0
 18 27  1  0  0  0  0
 19 28  1  0  0  0  0
 20 22  2  0  0  0  0
 20 29  1  0  0  0  0
 21 23  2  0  0  0  0
 22 23  1  0  0  0  0
 22 30  1  0  0  0  0
 23 31  1  0  0  0  0
 24 32  1  0  0  0  0
 24 33  1  0  0  0  0
 24 34  1  0  0  0  0
 26 37  1  0  0  0  0
 26 38  1  0  0  0  0
 26 39  1  0  0  0  0
M  END
> <PUBCHEM_COMPOUND_CID>
10360755

> <PUBCHEM_CONFORMER_RMSD>
0.6

> <PUBCHEM_CONFORMER_DIVERSEORDER>
1
2

> <PUBCHEM_MMFF94_PARTIAL_CHARGES>
34
1 -0.36
10 0.03
11 0.05
12 0.09
13 0.09
14 0.08
15 0.56
16 0.48
17 -0.14
18 -0.15
19 -0.15
2 -0.53
20 -0.15
21 0.08
22 -0.15
23 -0.15
24 0.14
25 0.63
26 0.28
27 0.15
28 0.15
29 0.15
3 -0.57
30 0.15
31 0.15
35 0.45
36 0.45
4 -0.53
40 0.5
5 -0.57
6 -0.65
7 -0.57
8 -0.01
9 0.03

> <PUBCHEM_EFFECTIVE_ROTOR_COUNT>
3

> <PUBCHEM_PHARMACOPHORE_FEATURES>
11
1 1 acceptor
1 2 donor
1 3 acceptor
1 4 donor
1 5 acceptor
1 6 acceptor
1 7 acceptor
3 6 7 25 anion
6 10 12 20 21 22 23 rings
6 8 10 11 12 15 16 rings
6 9 13 14 17 18 19 rings

> <PUBCHEM_HEAVY_ATOM_COUNT>
26

> <PUBCHEM_ATOM_DEF_STEREO_COUNT>
0

> <PUBCHEM_ATOM_UDEF_STEREO_COUNT>
0

> <PUBCHEM_BOND_DEF_STEREO_COUNT>
0

> <PUBCHEM_BOND_UDEF_STEREO_COUNT>
0

> <PUBCHEM_ISOTOPIC_ATOM_COUNT>
0

> <PUBCHEM_COMPONENT_COUNT>
1

> <PUBCHEM_CACTVS_TAUTO_COUNT>
20

> <PUBCHEM_CONFORMER_ID>
009E17B300000001

> <PUBCHEM_MMFF94_ENERGY>
94.3412

> <PUBCHEM_FEATURE_SELFOVERLAP>
55.911

> <PUBCHEM_SHAPE_FINGERPRINT>
10165383 225 17828225490364646588
10366900 7 18113330903744865117
11370993 70 18410298033824982643
11582403 64 16307323750124691845
11640471 11 17703799166417020377
12035758 1 18188204403497573680
12236239 1 17561363980837434128
12592029 89 18336817637428303690
12633257 1 18334863843693332290
13140716 1 18267026248666446072
13583140 156 18341619217966061465
13911987 19 18334871532454912372
14386348 63 17676210151890982307
16945 1 18410291402294828154
17138139 8 17629168750089466255
17980427 23 17274249665250342776
1813 80 17771920328797775414
200 152 18272087184429667249
20511986 3 17489576866248989673
20715895 44 17198280872118886465
20739085 24 18058460802684825318
21033648 29 17822564010350816865
21133665 82 13512629634131202415
21792961 116 17967532334399118406
22122407 14 18271823315052158337
23175994 123 18261114058764615076
23402539 116 14908179737760903152
23557571 272 17023188193095270471
23559900 14 16588588600293480258
23569943 247 17701270123040518862
350125 39 18049727613938094746
4340502 62 18271822236925299395
4409770 3 15464707134342036574
474 4 18272088352713642664
59755656 520 18202003244308838606
633830 44 17987256566797833492
7495541 125 17385728023660920468
77492 1 17632572747487655268
8272917 22 18271254828378722883

> <PUBCHEM_SHAPE_MULTIPOLES>
493.98
9.59
2.37
1.89
1.12
0.16
0.34
0.86
-1.6
-3.57
-0.14
2.64
0.06
0.07

> <PUBCHEM_SHAPE_SELFOVERLAP>
1102.321

> <PUBCHEM_SHAPE_VOLUME>
261.8

> <PUBCHEM_COORDINATE_TYPE>
2
5
10

$$$$
