10361141
  -OEChem-03292013303D

 42 46  0     1  0  0  0  0  0999 V2000
    3.1921    2.0069    0.3012 O   0  0  0  0  0  0  0  0  0  0  0  0
   -3.1919   -2.0071   -0.3026 O   0  0  0  0  0  0  0  0  0  0  0  0
    0.9636    2.0215   -1.6952 O   0  0  0  0  0  0  0  0  0  0  0  0
   -0.9640   -2.0206    1.6956 O   0  0  0  0  0  0  0  0  0  0  0  0
    0.1727    0.2371    2.5885 O   0  0  0  0  0  0  0  0  0  0  0  0
   -0.1721   -0.2367   -2.5885 O   0  0  0  0  0  0  0  0  0  0  0  0
   -0.7800    3.3654   -0.0802 O   0  0  0  0  0  0  0  0  0  0  0  0
    0.7795   -3.3655    0.0809 O   0  0  0  0  0  0  0  0  0  0  0  0
    1.1696    0.7971    0.4428 C   0  0  1  0  0  0  0  0  0  0  0  0
   -1.1695   -0.7971   -0.4432 C   0  0  2  0  0  0  0  0  0  0  0  0
    0.2566    1.2745   -0.7277 C   0  0  2  0  0  0  0  0  0  0  0  0
   -0.2568   -1.2741    0.7278 C   0  0  1  0  0  0  0  0  0  0  0  0
    0.3434   -0.0421    1.4069 C   0  0  0  0  0  0  0  0  0  0  0  0
   -0.3432    0.0425   -1.4070 C   0  0  0  0  0  0  0  0  0  0  0  0
    2.2753   -0.1270   -0.0236 C   0  0  0  0  0  0  0  0  0  0  0  0
   -2.2755    0.1269    0.0230 C   0  0  0  0  0  0  0  0  0  0  0  0
    2.0109    1.8785    1.1055 C   0  0  0  0  0  0  0  0  0  0  0  0
   -2.0101   -1.8787   -1.1061 C   0  0  0  0  0  0  0  0  0  0  0  0
   -0.8963    2.1468   -0.2046 C   0  0  0  0  0  0  0  0  0  0  0  0
    0.8960   -2.1468    0.2052 C   0  0  0  0  0  0  0  0  0  0  0  0
    2.1960   -1.4667   -0.1476 C   0  0  0  0  0  0  0  0  0  0  0  0
   -2.1963    1.4663    0.1481 C   0  0  0  0  0  0  0  0  0  0  0  0
    3.5088    0.6996   -0.2046 C   0  0  0  0  0  0  0  0  0  0  0  0
   -3.5088   -0.7000    0.2036 C   0  0  0  0  0  0  0  0  0  0  0  0
    3.3153   -2.3574   -0.5921 C   0  0  0  0  0  0  0  0  0  0  0  0
   -3.3153    2.3569    0.5938 C   0  0  0  0  0  0  0  0  0  0  0  0
    1.5125    2.8501    1.1588 H   0  0  0  0  0  0  0  0  0  0  0  0
    2.3235    1.6120    2.1230 H   0  0  0  0  0  0  0  0  0  0  0  0
   -2.3222   -1.6125   -2.1238 H   0  0  0  0  0  0  0  0  0  0  0  0
   -1.5115   -2.8502   -1.1589 H   0  0  0  0  0  0  0  0  0  0  0  0
    4.3526    0.3097    0.3728 H   0  0  0  0  0  0  0  0  0  0  0  0
    3.7902    0.7995   -1.2564 H   0  0  0  0  0  0  0  0  0  0  0  0
   -3.7903   -0.8003    1.2554 H   0  0  0  0  0  0  0  0  0  0  0  0
   -4.3526   -0.3101   -0.3736 H   0  0  0  0  0  0  0  0  0  0  0  0
    1.6333    1.4464   -2.1015 H   0  0  0  0  0  0  0  0  0  0  0  0
   -1.6335   -1.4453    2.1017 H   0  0  0  0  0  0  0  0  0  0  0  0
    3.5832   -3.0582    0.2052 H   0  0  0  0  0  0  0  0  0  0  0  0
    4.2174   -1.8003   -0.8607 H   0  0  0  0  0  0  0  0  0  0  0  0
    3.0150   -2.9329   -1.4741 H   0  0  0  0  0  0  0  0  0  0  0  0
   -3.0146    2.9315    1.4762 H   0  0  0  0  0  0  0  0  0  0  0  0
   -4.2174    1.7996    0.8622 H   0  0  0  0  0  0  0  0  0  0  0  0
   -3.5833    3.0585   -0.2029 H   0  0  0  0  0  0  0  0  0  0  0  0
  1 17  1  0  0  0  0
  1 23  1  0  0  0  0
  2 18  1  0  0  0  0
  2 24  1  0  0  0  0
  3 11  1  0  0  0  0
  3 35  1  0  0  0  0
  4 12  1  0  0  0  0
  4 36  1  0  0  0  0
  5 13  2  0  0  0  0
  6 14  2  0  0  0  0
  7 19  2  0  0  0  0
  8 20  2  0  0  0  0
  9 11  1  0  0  0  0
  9 13  1  0  0  0  0
  9 15  1  0  0  0  0
  9 17  1  0  0  0  0
 10 12  1  0  0  0  0
 10 14  1  0  0  0  0
 10 16  1  0  0  0  0
 10 18  1  0  0  0  0
 11 14  1  0  0  0  0
 11 19  1  0  0  0  0
 12 13  1  0  0  0  0
 12 20  1  0  0  0  0
 15 21  2  0  0  0  0
 15 23  1  0  0  0  0
 16 22  2  0  0  0  0
 16 24  1  0  0  0  0
 17 27  1  0  0  0  0
 17 28  1  0  0  0  0
 18 29  1  0  0  0  0
 18 30  1  0  0  0  0
 19 22  1  0  0  0  0
 20 21  1  0  0  0  0
 21 25  1  0  0  0  0
 22 26  1  0  0  0  0
 23 31  1  0  0  0  0
 23 32  1  0  0  0  0
 24 33  1  0  0  0  0
 24 34  1  0  0  0  0
 25 37  1  0  0  0  0
 25 38  1  0  0  0  0
 25 39  1  0  0  0  0
 26 40  1  0  0  0  0
 26 41  1  0  0  0  0
 26 42  1  0  0  0  0
M  END
> <PUBCHEM_COMPOUND_CID>
10361141

> <PUBCHEM_CONFORMER_RMSD>
0.6

> <PUBCHEM_CONFORMER_DIVERSEORDER>
1
3
2

> <PUBCHEM_MMFF94_PARTIAL_CHARGES>
28
1 -0.56
10 0.2
11 0.4
12 0.4
13 0.45
14 0.45
15 -0.28
16 -0.28
17 0.28
18 0.28
19 0.49
2 -0.56
20 0.49
21 -0.12
22 -0.12
23 0.42
24 0.42
25 0.14
26 0.14
3 -0.68
35 0.4
36 0.4
4 -0.68
5 -0.57
6 -0.57
7 -0.57
8 -0.57
9 0.2

> <PUBCHEM_EFFECTIVE_ROTOR_COUNT>
1.2

> <PUBCHEM_PHARMACOPHORE_FEATURES>
15
1 1 acceptor
1 2 acceptor
1 3 acceptor
1 3 donor
1 4 acceptor
1 4 donor
1 5 acceptor
1 6 acceptor
1 7 acceptor
1 8 acceptor
5 1 9 15 17 23 rings
5 2 10 16 18 24 rings
6 10 11 14 16 19 22 rings
6 9 10 11 12 13 14 rings
6 9 12 13 15 20 21 rings

> <PUBCHEM_HEAVY_ATOM_COUNT>
26

> <PUBCHEM_ATOM_DEF_STEREO_COUNT>
0

> <PUBCHEM_ATOM_UDEF_STEREO_COUNT>
4

> <PUBCHEM_BOND_DEF_STEREO_COUNT>
0

> <PUBCHEM_BOND_UDEF_STEREO_COUNT>
0

> <PUBCHEM_ISOTOPIC_ATOM_COUNT>
0

> <PUBCHEM_COMPONENT_COUNT>
1

> <PUBCHEM_CACTVS_TAUTO_COUNT>
1

> <PUBCHEM_CONFORMER_ID>
009E193500000001

> <PUBCHEM_MMFF94_ENERGY>
75.6757

> <PUBCHEM_FEATURE_SELFOVERLAP>
79.331

> <PUBCHEM_SHAPE_FINGERPRINT>
10863032 1 18341615892938629213
10948715 1 18341897402312137952
10967382 1 18122623013812847350
11578080 2 16987126453555730106
12491281 212 18410579482799416897
13027679 85 17981043016257037104
13140716 1 18336821996492711026
14223421 5 18410005503486114869
14790565 3 16828978989577103272
15209289 33 18410008832502234304
16945 1 18197209244065857543
18981168 100 18121470523774219581
19591789 44 17402052197477329611
20691752 17 17676771972236206771
20905425 154 18343589533474402519
21501502 16 18410853239957175906
2334 1 18336258028589809670
23419403 2 17252526664889852269
23559900 14 17766552457798082890
238 59 17107029055738049389
2748010 2 18335973229318993999
70251023 43 18057577937755619015
9999458 23 18045229240996026525

> <PUBCHEM_SHAPE_MULTIPOLES>
488.11
4.66
3.32
1.54
0
0
0
0
0
0
0
0
0
0

> <PUBCHEM_SHAPE_SELFOVERLAP>
1123.042

> <PUBCHEM_SHAPE_VOLUME>
248.7

> <PUBCHEM_COORDINATE_TYPE>
2
5
10

$$$$
