10364086
  -OEChem-03292013303D

 42 43  0     1  0  0  0  0  0999 V2000
   -2.1682   -2.0071    0.6922 S   0  0  2  0  0  0  0  0  0  0  0  0
    2.7687    3.1848   -0.4267 S   0  0  0  0  0  0  0  0  0  0  0  0
    3.0505    1.5989   -0.1674 O   0  0  0  0  0  0  0  0  0  0  0  0
    2.8894   -1.1399   -1.5702 O   0  0  0  0  0  0  0  0  0  0  0  0
    1.0893   -3.9551   -1.7158 O   0  0  0  0  0  0  0  0  0  0  0  0
   -2.6904   -1.8243    2.0915 O   0  0  0  0  0  0  0  0  0  0  0  0
   -0.8743   -2.8391   -2.0749 O   0  0  0  0  0  0  0  0  0  0  0  0
    3.6227    3.5110   -1.7777 O   0  0  0  0  0  0  0  0  0  0  0  0
    3.3444    3.9528    0.6616 O   0  0  0  0  0  0  0  0  0  0  0  0
    1.3621    3.3262   -0.7540 O   0  0  0  0  0  0  0  0  0  0  0  0
   -6.0817    1.6305    0.4972 O   0  0  0  0  0  0  0  0  0  0  0  0
    1.7363   -2.1833    0.2054 N   0  0  0  0  0  0  0  0  0  0  0  0
   -3.9955    1.3281   -0.5019 N   0  0  0  0  0  0  0  0  0  0  0  0
    1.8035   -1.5548    1.5440 C   0  0  1  0  0  0  0  0  0  0  0  0
    2.7793   -0.5273    0.9091 C   0  0  1  0  0  0  0  0  0  0  0  0
    0.3437   -1.2489    1.8933 C   0  0  0  0  0  0  0  0  0  0  0  0
    2.5670   -1.2964   -0.4138 C   0  0  0  0  0  0  0  0  0  0  0  0
    2.3456    0.9184    0.8712 C   0  0  1  0  0  0  0  0  0  0  0  0
    0.4337   -2.4172   -0.1354 C   0  0  0  0  0  0  0  0  0  0  0  0
   -0.4096   -1.9334    0.7847 C   0  0  0  0  0  0  0  0  0  0  0  0
    2.6245    1.6136    2.1989 C   0  0  0  0  0  0  0  0  0  0  0  0
    0.1192   -3.0678   -1.4032 C   0  0  0  0  0  0  0  0  0  0  0  0
   -2.4998   -0.4718   -0.1574 C   0  0  0  0  0  0  0  0  0  0  0  0
   -3.6567    0.1507    0.0919 C   0  0  0  0  0  0  0  0  0  0  0  0
   -5.1878    1.9962   -0.2629 C   0  0  0  0  0  0  0  0  0  0  0  0
   -5.3156    3.2553   -1.0799 C   0  0  0  0  0  0  0  0  0  0  0  0
    2.2846   -2.2225    2.2707 H   0  0  0  0  0  0  0  0  0  0  0  0
    3.8137   -0.6434    1.2622 H   0  0  0  0  0  0  0  0  0  0  0  0
    0.0868   -1.6999    2.8583 H   0  0  0  0  0  0  0  0  0  0  0  0
    0.1114   -0.1836    1.9434 H   0  0  0  0  0  0  0  0  0  0  0  0
    1.2811    0.9973    0.6290 H   0  0  0  0  0  0  0  0  0  0  0  0
    3.6946    1.8059    2.3331 H   0  0  0  0  0  0  0  0  0  0  0  0
    2.0928    2.5662    2.2777 H   0  0  0  0  0  0  0  0  0  0  0  0
    2.2869    0.9980    3.0397 H   0  0  0  0  0  0  0  0  0  0  0  0
   -1.7922   -0.0466   -0.8634 H   0  0  0  0  0  0  0  0  0  0  0  0
    0.9101   -4.4123   -2.5650 H   0  0  0  0  0  0  0  0  0  0  0  0
   -4.3873   -0.2537    0.7849 H   0  0  0  0  0  0  0  0  0  0  0  0
    4.5504    3.1771   -1.7805 H   0  0  0  0  0  0  0  0  0  0  0  0
   -3.3321    1.7298   -1.1599 H   0  0  0  0  0  0  0  0  0  0  0  0
   -6.1201    3.8759   -0.6757 H   0  0  0  0  0  0  0  0  0  0  0  0
   -5.5466    2.9936   -2.1161 H   0  0  0  0  0  0  0  0  0  0  0  0
   -4.3842    3.8279   -1.0477 H   0  0  0  0  0  0  0  0  0  0  0  0
  1  6  2  0  0  0  0
  1 20  1  0  0  0  0
  1 23  1  0  0  0  0
  2  3  1  0  0  0  0
  2  8  1  0  0  0  0
  2  9  2  0  0  0  0
  2 10  2  0  0  0  0
  3 18  1  0  0  0  0
  4 17  2  0  0  0  0
  5 22  1  0  0  0  0
  5 36  1  0  0  0  0
  7 22  2  0  0  0  0
  8 38  1  0  0  0  0
 11 25  2  0  0  0  0
 12 14  1  0  0  0  0
 12 17  1  0  0  0  0
 12 19  1  0  0  0  0
 13 24  1  0  0  0  0
 13 25  1  0  0  0  0
 13 39  1  0  0  0  0
 14 15  1  0  0  0  0
 14 16  1  0  0  0  0
 14 27  1  0  0  0  0
 15 17  1  0  0  0  0
 15 18  1  0  0  0  0
 15 28  1  0  0  0  0
 16 20  1  0  0  0  0
 16 29  1  0  0  0  0
 16 30  1  0  0  0  0
 18 21  1  0  0  0  0
 18 31  1  0  0  0  0
 19 20  2  0  0  0  0
 19 22  1  0  0  0  0
 21 32  1  0  0  0  0
 21 33  1  0  0  0  0
 21 34  1  0  0  0  0
 23 24  2  0  0  0  0
 23 35  1  0  0  0  0
 24 37  1  0  0  0  0
 25 26  1  0  0  0  0
 26 40  1  0  0  0  0
 26 41  1  0  0  0  0
 26 42  1  0  0  0  0
M  END
> <PUBCHEM_COMPOUND_CID>
10364086

> <PUBCHEM_CONFORMER_RMSD>
1

> <PUBCHEM_CONFORMER_DIVERSEORDER>
13
159
52
99
238
79
201
205
150
233
192
245
239
101
226
2
163
60
154
166
191
242
3
128
184
5
97
130
141
122
83
27
181
240
204
222
65
160
20
194
197
10
12
177
217
29
116
117
102
73
244
31
140
210
200
208
123
38
66
230
81
63
118
147
34
161
223
40
113
188
180
145
1
234
229
158
87
202
176
231
215
100
183
53
4
48
64
69
178
84
39
211
134
237
32
14
107
25
164
111
189
221
45
213
133
78
168
22
151
173
232
56
94
190
77
135
50
236
225
165
33
149
198
187
54
58
132
115
88
104
9
207
16
109
209
214
148
212
96
156
193
167
120
136
219
139
175
59
6
155
126
110
185
57
199
37
124
129
125
108
241
90
23
174
121
80
216
179
11
74
220
75
131
8
41
18
36
227
228
91
17
153
85
171
203
70
196
157
119
42
28
43
95
138
71
61
30
243
98
62
112
162
170
93
7
114
182
235
24
89
105
206
46
44
137
76
186
68
55
218
169
15
172
21
49
67
26
51
143
146
106
103
224
82
142
92
72
152
195
127
47
86
144
35
19

> <PUBCHEM_MMFF94_PARTIAL_CHARGES>
30
1 0.39
10 -0.65
11 -0.57
12 -0.39
13 -0.54
14 0.22
15 0.05
16 0.14
17 0.58
18 0.28
19 0.12
2 1.67
20 -0.08
22 0.71
23 -0.09
24 -0.04
25 0.57
26 0.06
3 -0.46
35 0.15
36 0.5
37 0.15
38 0.5
39 0.37
4 -0.57
5 -0.65
6 -0.5
7 -0.57
8 -0.68
9 -0.65

> <PUBCHEM_EFFECTIVE_ROTOR_COUNT>
8.4

> <PUBCHEM_PHARMACOPHORE_FEATURES>
12
1 10 acceptor
1 11 acceptor
1 13 donor
1 4 acceptor
1 5 acceptor
1 6 acceptor
1 7 acceptor
1 8 acceptor
1 9 acceptor
3 5 7 22 anion
4 2 8 9 10 anion
7 12 14 15 16 17 19 20 rings

> <PUBCHEM_HEAVY_ATOM_COUNT>
26

> <PUBCHEM_ATOM_DEF_STEREO_COUNT>
0

> <PUBCHEM_ATOM_UDEF_STEREO_COUNT>
4

> <PUBCHEM_BOND_DEF_STEREO_COUNT>
1

> <PUBCHEM_BOND_UDEF_STEREO_COUNT>
0

> <PUBCHEM_ISOTOPIC_ATOM_COUNT>
0

> <PUBCHEM_COMPONENT_COUNT>
1

> <PUBCHEM_CACTVS_TAUTO_COUNT>
2

> <PUBCHEM_CONFORMER_ID>
009E24B60000000D

> <PUBCHEM_MMFF94_ENERGY>
71.4174

> <PUBCHEM_FEATURE_SELFOVERLAP>
61.016

> <PUBCHEM_SHAPE_FINGERPRINT>
10483366 6 18267605519901813604
10871710 139 17545322342116101551
11221954 11 18261394506811144753
12633257 1 17677310780236694385
12824470 246 9078838532303339835
13761468 95 17617135767359158820
13944108 23 18047195141901200893
14251764 38 18336538413156569053
14251764 75 18337964492697413689
15081414 286 18124036724269274769
15210252 30 18049452439182710512
15238133 3 18040996177242947138
16988056 13 18124593080957462181
17980427 23 18193244491167858242
21475661 188 18261106340576158129
21857420 4 17690561888147954508
21860390 5 18125151641838902687
21864079 5 17828758779162463072
238 59 18272941500463766610
3060560 45 17987228941605349326
474 4 18409159983724256089
50150288 127 13346069732601276301
53794403 172 18261397732807104389
54672768 99 18409729564522165561
5939293 188 18263355902268666467

> <PUBCHEM_SHAPE_MULTIPOLES>
479.98
9.11
5.59
1.89
16.65
3.12
-0.08
11.36
0.53
-2.65
2.53
-0.97
-0.84
0.85

> <PUBCHEM_SHAPE_SELFOVERLAP>
978.25

> <PUBCHEM_SHAPE_VOLUME>
280.1

> <PUBCHEM_COORDINATE_TYPE>
2
5
10

$$$$
