10364044
  -OEChem-03292013303D

 62 62  0     1  0  0  0  0  0999 V2000
    0.3425    0.6122    1.4508 O   0  0  0  0  0  0  0  0  0  0  0  0
   -1.8772   -0.6646   -1.0282 O   0  0  0  0  0  0  0  0  0  0  0  0
    4.1102    2.3829    0.5608 O   0  0  0  0  0  0  0  0  0  0  0  0
    5.1333    0.9501    1.9788 O   0  0  0  0  0  0  0  0  0  0  0  0
   -0.0418   -5.0623   -1.0413 O   0  0  0  0  0  0  0  0  0  0  0  0
   -1.4170    1.5073   -0.3486 N   0  0  0  0  0  0  0  0  0  0  0  0
    2.1367    0.7636   -0.0145 N   0  0  0  0  0  0  0  0  0  0  0  0
   -4.3557    1.2700   -1.1515 N   0  0  0  0  0  0  0  0  0  0  0  0
    0.4468    2.9539   -1.1635 C   0  0  2  0  0  0  0  0  0  0  0  0
   -0.0324    1.5384   -0.7603 C   0  0  1  0  0  0  0  0  0  0  0  0
    0.4216    3.9401    0.0254 C   0  0  0  0  0  0  0  0  0  0  0  0
   -3.6557    0.6364   -0.0310 C   0  0  1  0  0  0  0  0  0  0  0  0
   -4.3650   -0.6689    0.3642 C   0  0  0  0  0  0  0  0  0  0  0  0
   -0.3788    3.4737   -2.3477 C   0  0  0  0  0  0  0  0  0  0  0  0
    0.8114    0.9326    0.3605 C   0  0  0  0  0  0  0  0  0  0  0  0
   -5.7949   -0.4792    0.9147 C   0  0  0  0  0  0  0  0  0  0  0  0
   -2.2311    0.3973   -0.5189 C   0  0  0  0  0  0  0  0  0  0  0  0
    3.1372    0.1803    0.8501 C   0  0  1  0  0  0  0  0  0  0  0  0
    0.9835    5.3147   -0.3143 C   0  0  0  0  0  0  0  0  0  0  0  0
   -5.7521    0.3982    2.1691 C   0  0  0  0  0  0  0  0  0  0  0  0
   -6.4791   -1.8080    1.2391 C   0  0  0  0  0  0  0  0  0  0  0  0
    3.7650   -1.0639    0.2086 C   0  0  0  0  0  0  0  0  0  0  0  0
    2.7499   -2.1307   -0.1245 C   0  0  0  0  0  0  0  0  0  0  0  0
    4.2216    1.1908    1.1942 C   0  0  0  0  0  0  0  0  0  0  0  0
    2.4332   -3.1109    0.8160 C   0  0  0  0  0  0  0  0  0  0  0  0
    2.1284   -2.1357   -1.3733 C   0  0  0  0  0  0  0  0  0  0  0  0
    1.4952   -4.0962    0.5079 C   0  0  0  0  0  0  0  0  0  0  0  0
    1.1904   -3.1210   -1.6816 C   0  0  0  0  0  0  0  0  0  0  0  0
    0.8739   -4.1012   -0.7409 C   0  0  0  0  0  0  0  0  0  0  0  0
    1.4858    2.8849   -1.5102 H   0  0  0  0  0  0  0  0  0  0  0  0
    0.0725    0.8707   -1.6263 H   0  0  0  0  0  0  0  0  0  0  0  0
   -0.5999    4.0707    0.3994 H   0  0  0  0  0  0  0  0  0  0  0  0
    1.0129    3.5350    0.8544 H   0  0  0  0  0  0  0  0  0  0  0  0
   -3.6149    1.3240    0.8194 H   0  0  0  0  0  0  0  0  0  0  0  0
   -1.7949    2.3167    0.1337 H   0  0  0  0  0  0  0  0  0  0  0  0
   -4.4095   -1.3427   -0.5029 H   0  0  0  0  0  0  0  0  0  0  0  0
   -3.7537   -1.1922    1.1121 H   0  0  0  0  0  0  0  0  0  0  0  0
   -0.4224    2.7272   -3.1482 H   0  0  0  0  0  0  0  0  0  0  0  0
    0.0686    4.3759   -2.7762 H   0  0  0  0  0  0  0  0  0  0  0  0
   -1.4048    3.7141   -2.0503 H   0  0  0  0  0  0  0  0  0  0  0  0
   -6.4166    0.0212    0.1634 H   0  0  0  0  0  0  0  0  0  0  0  0
    2.6584   -0.0905    1.7990 H   0  0  0  0  0  0  0  0  0  0  0  0
    2.4359    1.0604   -0.9383 H   0  0  0  0  0  0  0  0  0  0  0  0
    0.3457    5.8466   -1.0261 H   0  0  0  0  0  0  0  0  0  0  0  0
    1.0459    5.9272    0.5911 H   0  0  0  0  0  0  0  0  0  0  0  0
    1.9896    5.2346   -0.7378 H   0  0  0  0  0  0  0  0  0  0  0  0
    4.3054   -0.7845   -0.7066 H   0  0  0  0  0  0  0  0  0  0  0  0
    4.5298   -1.4875    0.8730 H   0  0  0  0  0  0  0  0  0  0  0  0
   -5.0458    0.0063    2.9089 H   0  0  0  0  0  0  0  0  0  0  0  0
   -6.7396    0.4424    2.6421 H   0  0  0  0  0  0  0  0  0  0  0  0
   -5.4730    1.4294    1.9345 H   0  0  0  0  0  0  0  0  0  0  0  0
   -5.9286   -2.3589    2.0092 H   0  0  0  0  0  0  0  0  0  0  0  0
   -7.5000   -1.6458    1.6004 H   0  0  0  0  0  0  0  0  0  0  0  0
   -6.5358   -2.4399    0.3466 H   0  0  0  0  0  0  0  0  0  0  0  0
   -5.2955    1.5394   -0.8653 H   0  0  0  0  0  0  0  0  0  0  0  0
   -3.8848    2.1407   -1.3976 H   0  0  0  0  0  0  0  0  0  0  0  0
    2.9091   -3.1156    1.7930 H   0  0  0  0  0  0  0  0  0  0  0  0
    2.3668   -1.3794   -2.1164 H   0  0  0  0  0  0  0  0  0  0  0  0
    1.2520   -4.8565    1.2449 H   0  0  0  0  0  0  0  0  0  0  0  0
    0.7130   -3.1135   -2.6577 H   0  0  0  0  0  0  0  0  0  0  0  0
    4.8304    3.0002    0.8107 H   0  0  0  0  0  0  0  0  0  0  0  0
   -0.3703   -4.9130   -1.9446 H   0  0  0  0  0  0  0  0  0  0  0  0
  1 15  2  0  0  0  0
  2 17  2  0  0  0  0
  3 24  1  0  0  0  0
  3 61  1  0  0  0  0
  4 24  2  0  0  0  0
  5 29  1  0  0  0  0
  5 62  1  0  0  0  0
  6 10  1  0  0  0  0
  6 17  1  0  0  0  0
  6 35  1  0  0  0  0
  7 15  1  0  0  0  0
  7 18  1  0  0  0  0
  7 43  1  0  0  0  0
  8 12  1  0  0  0  0
  8 55  1  0  0  0  0
  8 56  1  0  0  0  0
  9 10  1  0  0  0  0
  9 11  1  0  0  0  0
  9 14  1  0  0  0  0
  9 30  1  0  0  0  0
 10 15  1  0  0  0  0
 10 31  1  0  0  0  0
 11 19  1  0  0  0  0
 11 32  1  0  0  0  0
 11 33  1  0  0  0  0
 12 13  1  0  0  0  0
 12 17  1  0  0  0  0
 12 34  1  0  0  0  0
 13 16  1  0  0  0  0
 13 36  1  0  0  0  0
 13 37  1  0  0  0  0
 14 38  1  0  0  0  0
 14 39  1  0  0  0  0
 14 40  1  0  0  0  0
 16 20  1  0  0  0  0
 16 21  1  0  0  0  0
 16 41  1  0  0  0  0
 18 22  1  0  0  0  0
 18 24  1  0  0  0  0
 18 42  1  0  0  0  0
 19 44  1  0  0  0  0
 19 45  1  0  0  0  0
 19 46  1  0  0  0  0
 20 49  1  0  0  0  0
 20 50  1  0  0  0  0
 20 51  1  0  0  0  0
 21 52  1  0  0  0  0
 21 53  1  0  0  0  0
 21 54  1  0  0  0  0
 22 23  1  0  0  0  0
 22 47  1  0  0  0  0
 22 48  1  0  0  0  0
 23 25  2  0  0  0  0
 23 26  1  0  0  0  0
 25 27  1  0  0  0  0
 25 57  1  0  0  0  0
 26 28  2  0  0  0  0
 26 58  1  0  0  0  0
 27 29  2  0  0  0  0
 27 59  1  0  0  0  0
 28 29  1  0  0  0  0
 28 60  1  0  0  0  0
M  END
> <PUBCHEM_COMPOUND_CID>
10364044

> <PUBCHEM_CONFORMER_RMSD>
1.2

> <PUBCHEM_CONFORMER_DIVERSEORDER>
1
9
20
32
34
6
42
56
52
19
15
30
48
55
4
10
33
51
26
14
47
16
25
36
50
37
17
57
38
21
31
58
35
41
13
24
22
27
3
39
46
29
44
2
45
7
23
40
18
11
8
49
53
12
28
5
54
43

> <PUBCHEM_MMFF94_PARTIAL_CHARGES>
31
1 -0.57
10 0.36
12 0.33
15 0.57
17 0.57
18 0.36
2 -0.57
22 0.14
23 -0.14
24 0.66
25 -0.15
26 -0.15
27 -0.15
28 -0.15
29 0.08
3 -0.65
35 0.37
4 -0.57
43 0.37
5 -0.53
55 0.36
56 0.36
57 0.15
58 0.15
59 0.15
6 -0.73
60 0.15
61 0.5
62 0.45
7 -0.73
8 -0.99

> <PUBCHEM_EFFECTIVE_ROTOR_COUNT>
13

> <PUBCHEM_PHARMACOPHORE_FEATURES>
14
1 1 acceptor
1 14 hydrophobe
1 19 hydrophobe
1 2 acceptor
1 3 acceptor
1 4 acceptor
1 5 donor
1 6 donor
1 7 donor
1 8 cation
1 8 donor
3 16 20 21 hydrophobe
3 3 4 24 anion
6 23 25 26 27 28 29 rings

> <PUBCHEM_HEAVY_ATOM_COUNT>
29

> <PUBCHEM_ATOM_DEF_STEREO_COUNT>
4

> <PUBCHEM_ATOM_UDEF_STEREO_COUNT>
0

> <PUBCHEM_BOND_DEF_STEREO_COUNT>
0

> <PUBCHEM_BOND_UDEF_STEREO_COUNT>
0

> <PUBCHEM_ISOTOPIC_ATOM_COUNT>
0

> <PUBCHEM_COMPONENT_COUNT>
1

> <PUBCHEM_CACTVS_TAUTO_COUNT>
8

> <PUBCHEM_CONFORMER_ID>
009E248C00000001

> <PUBCHEM_MMFF94_ENERGY>
53.9187

> <PUBCHEM_FEATURE_SELFOVERLAP>
71.108

> <PUBCHEM_SHAPE_FINGERPRINT>
1100329 8 17834094717671471262
11445158 3 17823693260157766293
12156800 1 17906473360704842374
12596602 18 17418380203359817395
14863182 85 18336838549560400916
15664445 248 18268171823539319364
15927050 60 17616538797375935420
1813 80 18187374203261748749
19301679 30 18188227472320457747
1979834 28 18411707590535779539
20739085 24 18340497693976687697
21197605 99 18267590298069218051
22440779 20 17109931813690190737
25222932 49 17749381607190466819
255183 313 18198319931921315922
3117164 225 17696490489911263369
3380486 145 18266998640348214141
394071 54 18271255928418073035
5309563 4 18337676317338910967
57527358 35 15792553194391046412
7399639 24 18266725918931466648

> <PUBCHEM_SHAPE_MULTIPOLES>
552.52
10.48
6.7
1.73
17.69
0.18
0.06
-3.13
-7.34
-4.83
2.68
0.14
0.27
1.89

> <PUBCHEM_SHAPE_SELFOVERLAP>
1109.654

> <PUBCHEM_SHAPE_VOLUME>
322.9

> <PUBCHEM_COORDINATE_TYPE>
2
5
10

$$$$
