10360893
  -OEChem-03292013303D

 46 47  0     0  0  0  0  0  0999 V2000
   -2.1456   -0.7080    1.7048 O   0  0  0  0  0  0  0  0  0  0  0  0
   -3.2134   -0.9597   -2.9544 O   0  0  0  0  0  0  0  0  0  0  0  0
    0.1056   -2.0815    2.3958 O   0  0  0  0  0  0  0  0  0  0  0  0
    2.5424   -2.7540    1.1960 O   0  0  0  0  0  0  0  0  0  0  0  0
    4.2143    3.0555   -0.8010 O   0  0  0  0  0  0  0  0  0  0  0  0
    4.2302   -1.7067   -0.6536 O   0  0  0  0  0  0  0  0  0  0  0  0
   -2.6882   -0.8300   -0.6185 C   0  0  0  0  0  0  0  0  0  0  0  0
   -4.0486   -0.2440   -0.3343 C   0  0  0  0  0  0  0  0  0  0  0  0
   -1.7971   -1.0338    0.4264 C   0  0  0  0  0  0  0  0  0  0  0  0
   -0.5391   -1.5752    0.1615 C   0  0  0  0  0  0  0  0  0  0  0  0
   -2.3449   -1.1574   -1.9234 C   0  0  0  0  0  0  0  0  0  0  0  0
   -4.0525    1.2568   -0.4127 C   0  0  0  0  0  0  0  0  0  0  0  0
   -0.1842   -1.9076   -1.1459 C   0  0  0  0  0  0  0  0  0  0  0  0
   -1.0871   -1.6988   -2.1883 C   0  0  0  0  0  0  0  0  0  0  0  0
    0.4199   -1.8027    1.2337 C   0  0  0  0  0  0  0  0  0  0  0  0
   -4.3494    2.1356    0.5636 C   0  0  0  0  0  0  0  0  0  0  0  0
    2.5267   -0.4774    0.5031 C   0  0  0  0  0  0  0  0  0  0  0  0
    1.9055   -1.7329    0.9819 C   0  0  0  0  0  0  0  0  0  0  0  0
    3.6581   -0.5243   -0.2904 C   0  0  0  0  0  0  0  0  0  0  0  0
    1.9458    0.7228    0.8714 C   0  0  0  0  0  0  0  0  0  0  0  0
   -4.3341    3.6309    0.4192 C   0  0  0  0  0  0  0  0  0  0  0  0
   -4.7465    1.6485    1.9320 C   0  0  0  0  0  0  0  0  0  0  0  0
    4.2287    0.6697   -0.7312 C   0  0  0  0  0  0  0  0  0  0  0  0
    3.6579    1.8903   -0.3707 C   0  0  0  0  0  0  0  0  0  0  0  0
    2.5165    1.9170    0.4306 C   0  0  0  0  0  0  0  0  0  0  0  0
    3.5792    4.2671   -0.3955 C   0  0  0  0  0  0  0  0  0  0  0  0
   -4.7944   -0.6308   -1.0404 H   0  0  0  0  0  0  0  0  0  0  0  0
   -4.4139   -0.6375    0.6174 H   0  0  0  0  0  0  0  0  0  0  0  0
   -3.7877    1.6698   -1.3856 H   0  0  0  0  0  0  0  0  0  0  0  0
    0.7835   -2.3430   -1.3800 H   0  0  0  0  0  0  0  0  0  0  0  0
   -0.8053   -1.9622   -3.2042 H   0  0  0  0  0  0  0  0  0  0  0  0
    1.0659    0.7696    1.5060 H   0  0  0  0  0  0  0  0  0  0  0  0
   -4.0610    3.9343   -0.5968 H   0  0  0  0  0  0  0  0  0  0  0  0
   -5.3234    4.0456    0.6377 H   0  0  0  0  0  0  0  0  0  0  0  0
   -3.6074    4.0746    1.1072 H   0  0  0  0  0  0  0  0  0  0  0  0
   -4.5375    0.6006    2.1421 H   0  0  0  0  0  0  0  0  0  0  0  0
   -4.2034    2.2177    2.6956 H   0  0  0  0  0  0  0  0  0  0  0  0
   -5.8173    1.8171    2.0883 H   0  0  0  0  0  0  0  0  0  0  0  0
   -1.3956   -0.8261    2.3086 H   0  0  0  0  0  0  0  0  0  0  0  0
    5.1183    0.6579   -1.3562 H   0  0  0  0  0  0  0  0  0  0  0  0
    2.0240    2.8290    0.7501 H   0  0  0  0  0  0  0  0  0  0  0  0
   -3.8476   -0.2585   -2.7391 H   0  0  0  0  0  0  0  0  0  0  0  0
    5.0088   -1.5265   -1.2077 H   0  0  0  0  0  0  0  0  0  0  0  0
    3.6085    4.3922    0.6921 H   0  0  0  0  0  0  0  0  0  0  0  0
    2.5620    4.3414   -0.7947 H   0  0  0  0  0  0  0  0  0  0  0  0
    4.1532    5.0933   -0.8278 H   0  0  0  0  0  0  0  0  0  0  0  0
  1  9  1  0  0  0  0
  1 39  1  0  0  0  0
  2 11  1  0  0  0  0
  2 42  1  0  0  0  0
  3 15  2  0  0  0  0
  4 18  2  0  0  0  0
  5 24  1  0  0  0  0
  5 26  1  0  0  0  0
  6 19  1  0  0  0  0
  6 43  1  0  0  0  0
  7  8  1  0  0  0  0
  7  9  1  0  0  0  0
  7 11  2  0  0  0  0
  8 12  1  0  0  0  0
  8 27  1  0  0  0  0
  8 28  1  0  0  0  0
  9 10  2  0  0  0  0
 10 13  1  0  0  0  0
 10 15  1  0  0  0  0
 11 14  1  0  0  0  0
 12 16  2  0  0  0  0
 12 29  1  0  0  0  0
 13 14  2  0  0  0  0
 13 30  1  0  0  0  0
 14 31  1  0  0  0  0
 15 18  1  0  0  0  0
 16 21  1  0  0  0  0
 16 22  1  0  0  0  0
 17 18  1  0  0  0  0
 17 19  2  0  0  0  0
 17 20  1  0  0  0  0
 19 23  1  0  0  0  0
 20 25  2  0  0  0  0
 20 32  1  0  0  0  0
 21 33  1  0  0  0  0
 21 34  1  0  0  0  0
 21 35  1  0  0  0  0
 22 36  1  0  0  0  0
 22 37  1  0  0  0  0
 22 38  1  0  0  0  0
 23 24  2  0  0  0  0
 23 40  1  0  0  0  0
 24 25  1  0  0  0  0
 25 41  1  0  0  0  0
 26 44  1  0  0  0  0
 26 45  1  0  0  0  0
 26 46  1  0  0  0  0
M  END
> <PUBCHEM_COMPOUND_CID>
10360893

> <PUBCHEM_CONFORMER_RMSD>
1

> <PUBCHEM_CONFORMER_DIVERSEORDER>
1
79
126
73
40
170
134
196
127
220
147
57
41
138
82
51
206
26
150
106
91
70
69
217
218
114
76
198
176
93
159
142
197
102
90
143
101
192
25
148
37
161
97
186
219
212
94
31
187
118
9
12
45
131
154
81
210
123
177
120
16
225
117
49
98
195
164
221
43
66
77
204
5
113
67
174
60
215
84
189
179
7
119
191
21
20
110
71
149
89
180
2
173
44
121
200
175
181
58
11
64
167
54
228
42
52
171
199
28
193
222
108
157
80
137
178
78
122
188
87
8
130
39
166
65
10
22
144
205
169
35
17
63
96
125
132
32
104
61
172
19
184
162
129
107
4
213
230
160
211
136
133
13
201
141
3
29
151
53
224
105
203
153
18
145
139
208
128
72
83
14
116
135
85
183
88
124
99
209
34
48
24
50
190
112
27
152
56
223
86
165
46
111
100
23
140
75
47
194
163
92
6
62
15
168
95
158
36
229
55
202
38
103
109
156
182
155
115
216
68
207
30
74
227
59
226
214
185
146
33

> <PUBCHEM_MMFF94_PARTIAL_CHARGES>
35
1 -0.53
10 0.09
11 0.08
12 -0.29
13 -0.15
14 -0.15
15 0.48
16 -0.28
17 0.09
18 0.48
19 0.08
2 -0.53
20 -0.15
21 0.14
22 0.14
23 -0.15
24 0.08
25 -0.15
26 0.28
29 0.15
3 -0.57
30 0.15
31 0.15
32 0.15
39 0.45
4 -0.57
40 0.15
41 0.15
42 0.45
43 0.45
5 -0.36
6 -0.53
7 -0.14
8 0.28
9 0.08

> <PUBCHEM_EFFECTIVE_ROTOR_COUNT>
6

> <PUBCHEM_PHARMACOPHORE_FEATURES>
9
1 1 donor
1 2 donor
1 3 acceptor
1 4 acceptor
1 5 acceptor
1 6 donor
3 16 21 22 hydrophobe
6 17 19 20 23 24 25 rings
6 7 9 10 11 13 14 rings

> <PUBCHEM_HEAVY_ATOM_COUNT>
26

> <PUBCHEM_ATOM_DEF_STEREO_COUNT>
0

> <PUBCHEM_ATOM_UDEF_STEREO_COUNT>
0

> <PUBCHEM_BOND_DEF_STEREO_COUNT>
0

> <PUBCHEM_BOND_UDEF_STEREO_COUNT>
0

> <PUBCHEM_ISOTOPIC_ATOM_COUNT>
0

> <PUBCHEM_COMPONENT_COUNT>
1

> <PUBCHEM_CACTVS_TAUTO_COUNT>
60

> <PUBCHEM_CONFORMER_ID>
009E183D00000001

> <PUBCHEM_MMFF94_ENERGY>
81.1671

> <PUBCHEM_FEATURE_SELFOVERLAP>
45.675

> <PUBCHEM_SHAPE_FINGERPRINT>
10165383 225 17241343386390500482
10615611 76 18342175527778879637
10906281 52 18335142025485011882
12363563 72 12966862281159358270
12633257 1 17604139337869845387
12788726 201 18057023904555249959
12824470 246 8141790716988201799
13583140 156 17753046103968856129
13590594 115 17974848363799099632
14848178 5 9294995826722784809
14848178 96 18261386793071512700
15163728 17 17845392002131179965
17921350 177 17905035963435659997
19734167 9 16806755930906833001
20775530 9 9151184142115606180
21033648 29 16732976484485173973
21475661 188 18263089820834923073
21756936 100 18410015472089280898
21864079 5 18408879650750033577
22122407 14 18117558419234161161
22907989 373 17916293008926728943
23559900 14 15697706069973028330
312425 83 17916599763959819724
340366 18 17916025668223425622
38570 142 18336000726132523276
469060 322 15214420247593145889
474 4 18261664969365107650
5252454 2 17530688718835305570
5895379 119 18130492098690637008
633830 44 18408039615292386726
7288768 16 17823135803335647232

> <PUBCHEM_SHAPE_MULTIPOLES>
499.85
10.02
4.12
1.98
1.96
4.43
0.36
8.85
0.66
-1.65
0.05
1.59
-1.28
-2.65

> <PUBCHEM_SHAPE_SELFOVERLAP>
1072.42

> <PUBCHEM_SHAPE_VOLUME>
276

> <PUBCHEM_COORDINATE_TYPE>
2
5
10

$$$$
