10361934
  -OEChem-03292013303D

 52 54  0     0  0  0  0  0  0999 V2000
   -0.0004    0.4565   -0.0007 O   0  0  0  0  0  0  0  0  0  0  0  0
   -3.7610   -4.2874   -0.2197 N   0  0  0  0  0  0  0  0  0  0  0  0
    3.7676   -4.2821    0.2191 N   0  0  0  0  0  0  0  0  0  0  0  0
   -4.7292   -3.1903    1.6023 N   0  0  0  0  0  0  0  0  0  0  0  0
    4.7358   -3.1828   -1.6017 N   0  0  0  0  0  0  0  0  0  0  0  0
   -0.4950    4.9524   -0.5853 C   0  0  0  0  0  0  0  0  0  0  0  0
    0.4861    4.9528    0.5865 C   0  0  0  0  0  0  0  0  0  0  0  0
   -0.3489    3.7541   -1.5203 C   0  0  0  0  0  0  0  0  0  0  0  0
    0.3420    3.7535    1.5206 C   0  0  0  0  0  0  0  0  0  0  0  0
   -0.8592    2.4690   -0.9326 C   0  0  0  0  0  0  0  0  0  0  0  0
    0.8553    2.4699    0.9319 C   0  0  0  0  0  0  0  0  0  0  0  0
   -0.0010    1.6844   -0.0009 C   0  0  0  0  0  0  0  0  0  0  0  0
   -2.0339    1.9232   -1.2802 C   0  0  0  0  0  0  0  0  0  0  0  0
    2.0305    1.9257    1.2803 C   0  0  0  0  0  0  0  0  0  0  0  0
   -2.5438    0.6222   -0.8218 C   0  0  0  0  0  0  0  0  0  0  0  0
    2.5427    0.6256    0.8219 C   0  0  0  0  0  0  0  0  0  0  0  0
   -2.2697   -0.5168   -1.5637 C   0  0  0  0  0  0  0  0  0  0  0  0
    2.2695   -0.5141    1.5631 C   0  0  0  0  0  0  0  0  0  0  0  0
   -3.2915    0.5562    0.3446 C   0  0  0  0  0  0  0  0  0  0  0  0
    3.2915    0.5611   -0.3439 C   0  0  0  0  0  0  0  0  0  0  0  0
   -2.7544   -1.7506   -1.1294 C   0  0  0  0  0  0  0  0  0  0  0  0
    2.7564   -1.7470    1.1288 C   0  0  0  0  0  0  0  0  0  0  0  0
   -3.7761   -0.6776    0.7790 C   0  0  0  0  0  0  0  0  0  0  0  0
    3.7783   -0.6719   -0.7782 C   0  0  0  0  0  0  0  0  0  0  0  0
   -3.5075   -1.8311    0.0419 C   0  0  0  0  0  0  0  0  0  0  0  0
    3.5107   -1.8260   -0.0419 C   0  0  0  0  0  0  0  0  0  0  0  0
   -4.0126   -3.1175    0.4947 C   0  0  0  0  0  0  0  0  0  0  0  0
    4.0180   -3.1115   -0.4947 C   0  0  0  0  0  0  0  0  0  0  0  0
   -0.3254    5.8671   -1.1670 H   0  0  0  0  0  0  0  0  0  0  0  0
   -1.5232    5.0128   -0.2063 H   0  0  0  0  0  0  0  0  0  0  0  0
    0.3149    5.8667    1.1690 H   0  0  0  0  0  0  0  0  0  0  0  0
    1.5141    5.0153    0.2077 H   0  0  0  0  0  0  0  0  0  0  0  0
    0.6979    3.6344   -1.8264 H   0  0  0  0  0  0  0  0  0  0  0  0
   -0.9007    3.9750   -2.4437 H   0  0  0  0  0  0  0  0  0  0  0  0
   -0.7048    3.6314    1.8261 H   0  0  0  0  0  0  0  0  0  0  0  0
    0.8930    3.9747    2.4443 H   0  0  0  0  0  0  0  0  0  0  0  0
   -2.6833    2.4377   -1.9847 H   0  0  0  0  0  0  0  0  0  0  0  0
    2.6785    2.4407    1.9858 H   0  0  0  0  0  0  0  0  0  0  0  0
   -1.6847   -0.4668   -2.4785 H   0  0  0  0  0  0  0  0  0  0  0  0
    1.6836   -0.4652    2.4774 H   0  0  0  0  0  0  0  0  0  0  0  0
   -3.5065    1.4486    0.9269 H   0  0  0  0  0  0  0  0  0  0  0  0
    3.5064    1.4533   -0.9262 H   0  0  0  0  0  0  0  0  0  0  0  0
   -2.5166   -2.6151   -1.7394 H   0  0  0  0  0  0  0  0  0  0  0  0
    2.5192   -2.6119    1.7384 H   0  0  0  0  0  0  0  0  0  0  0  0
   -4.3502   -0.6526    1.6969 H   0  0  0  0  0  0  0  0  0  0  0  0
    4.3619   -0.6979   -1.6944 H   0  0  0  0  0  0  0  0  0  0  0  0
   -4.1266   -5.1720    0.1175 H   0  0  0  0  0  0  0  0  0  0  0  0
   -3.2229   -4.3241   -1.0763 H   0  0  0  0  0  0  0  0  0  0  0  0
    4.1316   -5.1695   -0.1122 H   0  0  0  0  0  0  0  0  0  0  0  0
    3.2284   -4.3170    1.0752 H   0  0  0  0  0  0  0  0  0  0  0  0
   -4.8859   -2.3112    2.0846 H   0  0  0  0  0  0  0  0  0  0  0  0
    5.0000   -4.1629   -1.7515 H   0  0  0  0  0  0  0  0  0  0  0  0
  1 12  2  0  0  0  0
  2 27  1  0  0  0  0
  2 47  1  0  0  0  0
  2 48  1  0  0  0  0
  3 28  1  0  0  0  0
  3 49  1  0  0  0  0
  3 50  1  0  0  0  0
  4 27  2  0  0  0  0
  4 51  1  0  0  0  0
  5 28  2  0  0  0  0
  5 52  1  0  0  0  0
  6  7  1  0  0  0  0
  6  8  1  0  0  0  0
  6 29  1  0  0  0  0
  6 30  1  0  0  0  0
  7  9  1  0  0  0  0
  7 31  1  0  0  0  0
  7 32  1  0  0  0  0
  8 10  1  0  0  0  0
  8 33  1  0  0  0  0
  8 34  1  0  0  0  0
  9 11  1  0  0  0  0
  9 35  1  0  0  0  0
  9 36  1  0  0  0  0
 10 12  1  0  0  0  0
 10 13  2  0  0  0  0
 11 12  1  0  0  0  0
 11 14  2  0  0  0  0
 13 15  1  0  0  0  0
 13 37  1  0  0  0  0
 14 16  1  0  0  0  0
 14 38  1  0  0  0  0
 15 17  2  0  0  0  0
 15 19  1  0  0  0  0
 16 18  2  0  0  0  0
 16 20  1  0  0  0  0
 17 21  1  0  0  0  0
 17 39  1  0  0  0  0
 18 22  1  0  0  0  0
 18 40  1  0  0  0  0
 19 23  2  0  0  0  0
 19 41  1  0  0  0  0
 20 24  2  0  0  0  0
 20 42  1  0  0  0  0
 21 25  2  0  0  0  0
 21 43  1  0  0  0  0
 22 26  2  0  0  0  0
 22 44  1  0  0  0  0
 23 25  1  0  0  0  0
 23 45  1  0  0  0  0
 24 26  1  0  0  0  0
 24 46  1  0  0  0  0
 25 27  1  0  0  0  0
 26 28  1  0  0  0  0
M  END
> <PUBCHEM_COMPOUND_CID>
10361934

> <PUBCHEM_CONFORMER_RMSD>
0.8

> <PUBCHEM_CONFORMER_DIVERSEORDER>
1
2

> <PUBCHEM_MMFF94_PARTIAL_CHARGES>
42
1 -0.57
10 -0.12
11 -0.12
12 0.54
13 -0.18
14 -0.18
15 0.03
16 0.03
17 -0.15
18 -0.15
19 -0.15
2 -0.85
20 -0.15
21 -0.15
22 -0.15
23 -0.15
24 -0.15
25 0.09
26 0.09
27 0.41
28 0.41
3 -0.85
37 0.15
38 0.15
39 0.15
4 -0.85
40 0.15
41 0.15
42 0.15
43 0.15
44 0.15
45 0.15
46 0.15
47 0.4
48 0.4
49 0.4
5 -0.85
50 0.4
51 0.4
52 0.4
8 0.14
9 0.14

> <PUBCHEM_EFFECTIVE_ROTOR_COUNT>
4.8

> <PUBCHEM_PHARMACOPHORE_FEATURES>
10
1 1 acceptor
1 2 donor
1 3 donor
1 4 donor
1 5 donor
3 2 4 27 cation
3 3 5 28 cation
6 15 17 19 21 23 25 rings
6 16 18 20 22 24 26 rings
7 6 7 8 9 10 11 12 rings

> <PUBCHEM_HEAVY_ATOM_COUNT>
28

> <PUBCHEM_ATOM_DEF_STEREO_COUNT>
0

> <PUBCHEM_ATOM_UDEF_STEREO_COUNT>
0

> <PUBCHEM_BOND_DEF_STEREO_COUNT>
2

> <PUBCHEM_BOND_UDEF_STEREO_COUNT>
0

> <PUBCHEM_ISOTOPIC_ATOM_COUNT>
0

> <PUBCHEM_COMPONENT_COUNT>
1

> <PUBCHEM_CACTVS_TAUTO_COUNT>
1

> <PUBCHEM_CONFORMER_ID>
009E1C4E00000001

> <PUBCHEM_MMFF94_ENERGY>
103.7305

> <PUBCHEM_FEATURE_SELFOVERLAP>
50.832

> <PUBCHEM_SHAPE_FINGERPRINT>
10928967 22 18410580586517367362
11421498 54 18336560403542391796
114674 6 17899970831394334611
11513181 2 16898787575187366390
12156800 1 15951118017706505609
12553582 1 18338785775762830213
12712778 12 17760905374198106346
12788726 201 17977369543798078715
12969540 37 18266740379548054509
13533116 47 17981046629110750635
1361 2 17473540734435671083
13941206 138 17185595715509431908
14251757 5 18122629353416905846
14363568 33 18196377133176325910
14725015 67 17764288571212463157
14863182 85 17469883745765633269
14866123 147 17765996099985932353
15927050 60 16678940246694042820
16719943 64 17474662854501767578
17974551 9 17632577132829016297
1979834 28 17541942431051906003
20028762 73 17548976010707730942
20775530 9 18410575093264245150
21133410 230 17328899511971387561
21133410 38 17189273015455203835
21197605 99 16602939799537063515
23379529 103 18269283369955920486
23428019 142 17618502082581780622
23466295 7 18195536878585578810
23559900 14 17338129938188537442
3027735 51 17621588424631891857
3117164 225 18339655537759739011
3737641 26 18341058479630666550
5265222 85 17761495790261825724
5309563 4 18338231695059650983
6287921 2 17907857649743208555
70634741 139 17982173319460874654
7097593 13 18200313359182017129
86090 222 17387984315963555915

> <PUBCHEM_SHAPE_MULTIPOLES>
550.43
8.51
7.24
1.53
0.04
3
0
-14.14
0
-0.03
0
0
0.23
2.32

> <PUBCHEM_SHAPE_SELFOVERLAP>
1192.837

> <PUBCHEM_SHAPE_VOLUME>
297.8

> <PUBCHEM_COORDINATE_TYPE>
2
5
10

$$$$
