10360006
  -OEChem-03292013303D

 43 46  0     1  0  0  0  0  0999 V2000
   -4.1174   -0.1964    0.5665 O   0  0  0  0  0  0  0  0  0  0  0  0
   -4.6895    2.8357    0.4650 O   0  0  0  0  0  0  0  0  0  0  0  0
   -6.2392   -1.5130   -0.6905 O   0  0  0  0  0  0  0  0  0  0  0  0
    2.1639   -2.5791    0.0208 O   0  0  0  0  0  0  0  0  0  0  0  0
   -1.7870   -0.4066    0.1762 N   0  0  0  0  0  0  0  0  0  0  0  0
   -0.7117   -2.2340   -0.5342 N   0  0  0  0  0  0  0  0  0  0  0  0
    2.0822   -0.4888    1.1041 N   0  0  0  0  0  0  0  0  0  0  0  0
    0.0221    0.7706    1.2718 N   0  0  0  0  0  0  0  0  0  0  0  0
   -2.8852    0.5263    0.4005 C   0  0  1  0  0  0  0  0  0  0  0  0
   -4.5708    1.8533   -0.5618 C   0  0  1  0  0  0  0  0  0  0  0  0
   -3.1073    1.5164   -0.7336 C   0  0  0  0  0  0  0  0  0  0  0  0
   -5.1766    0.5382   -0.0828 C   0  0  1  0  0  0  0  0  0  0  0  0
   -5.7087   -0.3138   -1.2268 C   0  0  0  0  0  0  0  0  0  0  0  0
   -0.4918   -0.2686    0.5793 C   0  0  0  0  0  0  0  0  0  0  0  0
   -1.8696   -1.6050   -0.4896 C   0  0  0  0  0  0  0  0  0  0  0  0
    0.1419   -1.4019    0.1297 C   0  0  0  0  0  0  0  0  0  0  0  0
    1.5481   -1.5856    0.3892 C   0  0  0  0  0  0  0  0  0  0  0  0
    1.2936    0.6100    1.5037 C   0  0  0  0  0  0  0  0  0  0  0  0
    3.4968   -0.4938    1.4395 C   0  0  0  0  0  0  0  0  0  0  0  0
    4.3306    0.1472    0.3682 C   0  0  0  0  0  0  0  0  0  0  0  0
    4.5874    1.5123    0.4212 C   0  0  0  0  0  0  0  0  0  0  0  0
    4.8381   -0.6307   -0.6660 C   0  0  0  0  0  0  0  0  0  0  0  0
    5.3622    2.1079   -0.5740 C   0  0  0  0  0  0  0  0  0  0  0  0
    5.6130   -0.0350   -1.6612 C   0  0  0  0  0  0  0  0  0  0  0  0
    5.8750    1.3344   -1.6151 C   0  0  0  0  0  0  0  0  0  0  0  0
   -2.6891    1.0447    1.3467 H   0  0  0  0  0  0  0  0  0  0  0  0
   -5.0424    2.2514   -1.4647 H   0  0  0  0  0  0  0  0  0  0  0  0
   -2.9459    1.0372   -1.7065 H   0  0  0  0  0  0  0  0  0  0  0  0
   -2.4347    2.3763   -0.6561 H   0  0  0  0  0  0  0  0  0  0  0  0
   -5.9609    0.6934    0.6666 H   0  0  0  0  0  0  0  0  0  0  0  0
   -4.9117   -0.5861   -1.9262 H   0  0  0  0  0  0  0  0  0  0  0  0
   -6.5022    0.2100   -1.7688 H   0  0  0  0  0  0  0  0  0  0  0  0
   -2.7917   -1.9669   -0.9240 H   0  0  0  0  0  0  0  0  0  0  0  0
   -4.2519    3.6439    0.1469 H   0  0  0  0  0  0  0  0  0  0  0  0
   -6.5731   -2.0382   -1.4376 H   0  0  0  0  0  0  0  0  0  0  0  0
    1.8520    1.3786    2.0609 H   0  0  0  0  0  0  0  0  0  0  0  0
    3.8307   -1.5256    1.6054 H   0  0  0  0  0  0  0  0  0  0  0  0
    3.6446    0.0338    2.3903 H   0  0  0  0  0  0  0  0  0  0  0  0
    4.1953    2.1257    1.2275 H   0  0  0  0  0  0  0  0  0  0  0  0
    4.6478   -1.6989   -0.7121 H   0  0  0  0  0  0  0  0  0  0  0  0
    5.5667    3.1740   -0.5380 H   0  0  0  0  0  0  0  0  0  0  0  0
    6.0136   -0.6374   -2.4712 H   0  0  0  0  0  0  0  0  0  0  0  0
    6.4787    1.7981   -2.3898 H   0  0  0  0  0  0  0  0  0  0  0  0
  1  9  1  0  0  0  0
  1 12  1  0  0  0  0
  2 10  1  0  0  0  0
  2 34  1  0  0  0  0
  3 13  1  0  0  0  0
  3 35  1  0  0  0  0
  4 17  2  0  0  0  0
  5  9  1  0  0  0  0
  5 14  1  0  0  0  0
  5 15  1  0  0  0  0
  6 15  2  0  0  0  0
  6 16  1  0  0  0  0
  7 17  1  0  0  0  0
  7 18  1  0  0  0  0
  7 19  1  0  0  0  0
  8 14  1  0  0  0  0
  8 18  2  0  0  0  0
  9 11  1  0  0  0  0
  9 26  1  0  0  0  0
 10 11  1  0  0  0  0
 10 12  1  0  0  0  0
 10 27  1  0  0  0  0
 11 28  1  0  0  0  0
 11 29  1  0  0  0  0
 12 13  1  0  0  0  0
 12 30  1  0  0  0  0
 13 31  1  0  0  0  0
 13 32  1  0  0  0  0
 14 16  2  0  0  0  0
 15 33  1  0  0  0  0
 16 17  1  0  0  0  0
 18 36  1  0  0  0  0
 19 20  1  0  0  0  0
 19 37  1  0  0  0  0
 19 38  1  0  0  0  0
 20 21  2  0  0  0  0
 20 22  1  0  0  0  0
 21 23  1  0  0  0  0
 21 39  1  0  0  0  0
 22 24  2  0  0  0  0
 22 40  1  0  0  0  0
 23 25  2  0  0  0  0
 23 41  1  0  0  0  0
 24 25  1  0  0  0  0
 24 42  1  0  0  0  0
 25 43  1  0  0  0  0
M  END
> <PUBCHEM_COMPOUND_CID>
10360006

> <PUBCHEM_CONFORMER_RMSD>
0.8

> <PUBCHEM_CONFORMER_DIVERSEORDER>
1
40
41
60
16
56
57
39
50
36
53
45
55
6
19
59
17
24
21
58
38
52
12
23
49
34
9
29
48
13
54
42
18
20
35
10
46
26
27
51
8
11
33
2
32
28
37
4
31
47
43
15
3
30
7
25
22
44
5
14

> <PUBCHEM_MMFF94_PARTIAL_CHARGES>
33
1 -0.56
10 0.28
12 0.28
13 0.28
14 -0.03
15 0.04
16 0.14
17 0.72
18 0.45
19 0.44
2 -0.68
20 -0.14
21 -0.15
22 -0.15
23 -0.15
24 -0.15
25 -0.15
3 -0.68
33 0.15
34 0.4
35 0.4
36 0.06
39 0.15
4 -0.57
40 0.15
41 0.15
42 0.15
43 0.15
5 0.05
6 -0.57
7 -0.42
8 -0.58
9 0.54

> <PUBCHEM_EFFECTIVE_ROTOR_COUNT>
5

> <PUBCHEM_PHARMACOPHORE_FEATURES>
11
1 1 acceptor
1 2 acceptor
1 2 donor
1 3 acceptor
1 3 donor
1 4 acceptor
3 5 6 15 cation
5 1 9 10 11 12 rings
5 5 6 14 15 16 rings
6 20 21 22 23 24 25 rings
6 7 8 14 16 17 18 rings

> <PUBCHEM_HEAVY_ATOM_COUNT>
25

> <PUBCHEM_ATOM_DEF_STEREO_COUNT>
3

> <PUBCHEM_ATOM_UDEF_STEREO_COUNT>
0

> <PUBCHEM_BOND_DEF_STEREO_COUNT>
0

> <PUBCHEM_BOND_UDEF_STEREO_COUNT>
0

> <PUBCHEM_ISOTOPIC_ATOM_COUNT>
0

> <PUBCHEM_COMPONENT_COUNT>
1

> <PUBCHEM_CACTVS_TAUTO_COUNT>
1

> <PUBCHEM_CONFORMER_ID>
009E14C600000001

> <PUBCHEM_MMFF94_ENERGY>
56.8055

> <PUBCHEM_FEATURE_SELFOVERLAP>
55.967

> <PUBCHEM_SHAPE_FINGERPRINT>
10498660 4 18341618148582462872
10554248 39 18117256091837495727
10591671 39 18335702788667414663
10670039 82 18410295770619985932
11315621 246 17774148132850542407
11796584 16 12823290191307782732
11961588 58 18335700580774590994
12390115 104 18130511838740144137
12596602 18 16732982020671742249
12633257 1 14490479746262507620
12895836 83 18336832000173286548
13533116 47 11600004358466784230
13782708 43 12679166242226721413
14251751 18 11023821756170784908
14341114 328 16443348684767891920
14528608 73 18408885135560407476
14790565 3 18410857629145292361
14840074 17 17676492752196831964
14848178 5 11743838045569616756
15183329 4 15841554058920401324
15348495 7 10809351052421779436
15575132 122 18113894927730651045
15961568 22 17968096399815520461
1601671 61 18336263457713750296
17349148 13 11887676208049067728
17959699 21 18408608063283754404
17980427 23 17894917300481707965
19784866 140 16845574205757167107
19784866 240 12751245804763456784
1979834 28 12757429410723882584
19958102 18 16916769825908238703
20567600 234 15502380049189324855
21150785 3 18260545671319111767
22061861 79 16487538048297899348
22079108 93 16515688866004922328
2303208 19 16702015405172545871
23227448 37 18335703900778776446
23559900 14 10591746710711745514
2838139 119 18113334180926452252
3004659 81 18341612569557459114
3472631 163 18261397814569134620
34797466 226 18342746233862748756
350125 39 18342172311011548099
3759504 43 18334013912499679699
4058900 60 18263934249859731619
465052 167 12607408814704757784
474 4 17240489134706570364
53794403 172 18119811563014186956
59682541 52 16630245814293093204
960060 61 16415483770565677904

> <PUBCHEM_SHAPE_MULTIPOLES>
471.09
15.47
2.32
1.33
2.46
0.2
0.05
6.67
6.51
0.58
0.26
-1.22
0.15
-0.98

> <PUBCHEM_SHAPE_SELFOVERLAP>
1032.266

> <PUBCHEM_SHAPE_VOLUME>
253.2

> <PUBCHEM_COORDINATE_TYPE>
2
5
10

$$$$
