10388920
  -OEChem-03292013303D

 58 62  0     1  0  0  0  0  0999 V2000
    5.4314    0.4170   -0.8490 O   0  0  0  0  0  0  0  0  0  0  0  0
    5.4871    1.4725    2.1803 O   0  0  0  0  0  0  0  0  0  0  0  0
    6.6930   -0.9723    2.2149 O   0  0  0  0  0  0  0  0  0  0  0  0
    7.6342   -0.8476   -2.0839 O   0  0  0  0  0  0  0  0  0  0  0  0
    3.1113    0.5028   -0.3548 N   0  0  0  0  0  0  0  0  0  0  0  0
    1.5119   -0.7747   -1.2423 N   0  0  0  0  0  0  0  0  0  0  0  0
    1.7800    2.4149    0.3336 N   0  0  0  0  0  0  0  0  0  0  0  0
   -1.3904    0.1297   -1.3036 N   0  0  0  0  0  0  0  0  0  0  0  0
   -0.5761    2.1021   -0.2204 N   0  0  0  0  0  0  0  0  0  0  0  0
    4.8239    0.4262    1.4728 C   0  0  1  0  0  0  0  0  0  0  0  0
    4.4456    0.9231    0.0763 C   0  0  1  0  0  0  0  0  0  0  0  0
    5.7699   -0.7223    1.1768 C   0  0  1  0  0  0  0  0  0  0  0  0
    6.4538   -0.2571   -0.0970 C   0  0  1  0  0  0  0  0  0  0  0  0
    7.0344   -1.3920   -0.9215 C   0  0  0  0  0  0  0  0  0  0  0  0
    1.9456    1.2035   -0.2187 C   0  0  0  0  0  0  0  0  0  0  0  0
    2.7978   -0.6785   -0.9759 C   0  0  0  0  0  0  0  0  0  0  0  0
    0.9672    0.3946   -0.7743 C   0  0  0  0  0  0  0  0  0  0  0  0
   -0.3350    0.8842   -0.7627 C   0  0  0  0  0  0  0  0  0  0  0  0
   -3.4772    0.1449   -0.0282 C   0  0  0  0  0  0  0  0  0  0  0  0
   -2.7491    0.5845   -1.3182 C   0  0  0  0  0  0  0  0  0  0  0  0
   -3.4953   -1.3682    0.1604 C   0  0  0  0  0  0  0  0  0  0  0  0
   -4.8753    0.7372    0.1127 C   0  0  0  0  0  0  0  0  0  0  0  0
    0.4808    2.7818    0.2865 C   0  0  0  0  0  0  0  0  0  0  0  0
   -4.5441   -2.0906   -0.3674 C   0  0  0  0  0  0  0  0  0  0  0  0
   -5.3736    0.9697    1.3768 C   0  0  0  0  0  0  0  0  0  0  0  0
   -2.4620   -1.9637    0.8518 C   0  0  0  0  0  0  0  0  0  0  0  0
   -5.5946    1.0209   -1.0285 C   0  0  0  0  0  0  0  0  0  0  0  0
   -4.5606   -3.4747   -0.1952 C   0  0  0  0  0  0  0  0  0  0  0  0
   -6.6523    1.5117    1.5059 C   0  0  0  0  0  0  0  0  0  0  0  0
   -2.4787   -3.3479    1.0239 C   0  0  0  0  0  0  0  0  0  0  0  0
   -6.8734    1.5631   -0.8993 C   0  0  0  0  0  0  0  0  0  0  0  0
   -3.5280   -4.1033    0.5005 C   0  0  0  0  0  0  0  0  0  0  0  0
   -7.4021    1.8083    0.3679 C   0  0  0  0  0  0  0  0  0  0  0  0
    3.9727    0.1125    2.0857 H   0  0  0  0  0  0  0  0  0  0  0  0
    4.4696    2.0166    0.0036 H   0  0  0  0  0  0  0  0  0  0  0  0
    5.1848   -1.6315    0.9914 H   0  0  0  0  0  0  0  0  0  0  0  0
    7.2417    0.4769    0.1163 H   0  0  0  0  0  0  0  0  0  0  0  0
    7.7983   -1.9420   -0.3649 H   0  0  0  0  0  0  0  0  0  0  0  0
    6.2582   -2.0934   -1.2446 H   0  0  0  0  0  0  0  0  0  0  0  0
    4.8442    2.1916    2.3039 H   0  0  0  0  0  0  0  0  0  0  0  0
    7.2803   -1.6895    1.9225 H   0  0  0  0  0  0  0  0  0  0  0  0
    3.5388   -1.4318   -1.2059 H   0  0  0  0  0  0  0  0  0  0  0  0
   -2.8994    0.5698    0.8080 H   0  0  0  0  0  0  0  0  0  0  0  0
   -2.8078    1.6703   -1.4651 H   0  0  0  0  0  0  0  0  0  0  0  0
   -3.2208    0.1266   -2.1957 H   0  0  0  0  0  0  0  0  0  0  0  0
    6.9463   -0.3600   -2.5685 H   0  0  0  0  0  0  0  0  0  0  0  0
   -1.1681   -0.7816   -1.6884 H   0  0  0  0  0  0  0  0  0  0  0  0
    0.2510    3.7525    0.7126 H   0  0  0  0  0  0  0  0  0  0  0  0
   -5.3519   -1.6464   -0.9363 H   0  0  0  0  0  0  0  0  0  0  0  0
   -4.7975    0.7405    2.2682 H   0  0  0  0  0  0  0  0  0  0  0  0
   -1.6425   -1.3857    1.2677 H   0  0  0  0  0  0  0  0  0  0  0  0
   -5.2277    0.8312   -2.0302 H   0  0  0  0  0  0  0  0  0  0  0  0
   -5.3742   -4.0642   -0.6078 H   0  0  0  0  0  0  0  0  0  0  0  0
   -7.0644    1.7020    2.4925 H   0  0  0  0  0  0  0  0  0  0  0  0
   -1.6749   -3.8373    1.5661 H   0  0  0  0  0  0  0  0  0  0  0  0
   -7.4593    1.7908   -1.7851 H   0  0  0  0  0  0  0  0  0  0  0  0
   -3.5401   -5.1811    0.6334 H   0  0  0  0  0  0  0  0  0  0  0  0
   -8.3982    2.2294    0.4684 H   0  0  0  0  0  0  0  0  0  0  0  0
  1 11  1  0  0  0  0
  1 13  1  0  0  0  0
  2 10  1  0  0  0  0
  2 40  1  0  0  0  0
  3 12  1  0  0  0  0
  3 41  1  0  0  0  0
  4 14  1  0  0  0  0
  4 46  1  0  0  0  0
  5 11  1  0  0  0  0
  5 15  1  0  0  0  0
  5 16  1  0  0  0  0
  6 16  2  0  0  0  0
  6 17  1  0  0  0  0
  7 15  2  0  0  0  0
  7 23  1  0  0  0  0
  8 18  1  0  0  0  0
  8 20  1  0  0  0  0
  8 47  1  0  0  0  0
  9 18  1  0  0  0  0
  9 23  2  0  0  0  0
 10 11  1  0  0  0  0
 10 12  1  0  0  0  0
 10 34  1  0  0  0  0
 11 35  1  0  0  0  0
 12 13  1  0  0  0  0
 12 36  1  0  0  0  0
 13 14  1  0  0  0  0
 13 37  1  0  0  0  0
 14 38  1  0  0  0  0
 14 39  1  0  0  0  0
 15 17  1  0  0  0  0
 16 42  1  0  0  0  0
 17 18  2  0  0  0  0
 19 20  1  0  0  0  0
 19 21  1  0  0  0  0
 19 22  1  0  0  0  0
 19 43  1  0  0  0  0
 20 44  1  0  0  0  0
 20 45  1  0  0  0  0
 21 24  2  0  0  0  0
 21 26  1  0  0  0  0
 22 25  2  0  0  0  0
 22 27  1  0  0  0  0
 23 48  1  0  0  0  0
 24 28  1  0  0  0  0
 24 49  1  0  0  0  0
 25 29  1  0  0  0  0
 25 50  1  0  0  0  0
 26 30  2  0  0  0  0
 26 51  1  0  0  0  0
 27 31  2  0  0  0  0
 27 52  1  0  0  0  0
 28 32  2  0  0  0  0
 28 53  1  0  0  0  0
 29 33  2  0  0  0  0
 29 54  1  0  0  0  0
 30 32  1  0  0  0  0
 30 55  1  0  0  0  0
 31 33  1  0  0  0  0
 31 56  1  0  0  0  0
 32 57  1  0  0  0  0
 33 58  1  0  0  0  0
M  END
> <PUBCHEM_COMPOUND_CID>
10388920

> <PUBCHEM_CONFORMER_RMSD>
1

> <PUBCHEM_CONFORMER_DIVERSEORDER>
1
108
79
87
119
36
73
50
32
57
24
77
106
72
58
4
60
46
120
82
104
42
93
92
5
63
10
37
48
83
38
84
91
26
69
80
33
29
43
34
9
62
88
74
7
21
59
99
6
18
51
30
78
76
113
105
90
100
96
54
64
56
116
65
61
47
8
22
115
122
40
20
85
112
3
98
44
19
13
107
45
110
49
86
70
14
89
53
35
66
31
55
102
23
25
118
11
81
41
95
121
15
16
12
27
67
117
17
68
103
109
2
94
28
114
123
39
97
52
111
71
101
75

> <PUBCHEM_MMFF94_PARTIAL_CHARGES>
49
1 -0.56
10 0.28
11 0.54
12 0.28
13 0.28
14 0.28
15 0.11
16 0.04
17 0.23
18 0.41
19 0.29
2 -0.68
20 0.37
21 -0.14
22 -0.14
23 0.47
24 -0.15
25 -0.15
26 -0.15
27 -0.15
28 -0.15
29 -0.15
3 -0.68
30 -0.15
31 -0.15
32 -0.15
33 -0.15
4 -0.68
40 0.4
41 0.4
42 0.15
46 0.4
47 0.4
48 0.15
49 0.15
5 0.05
50 0.15
51 0.15
52 0.15
53 0.15
54 0.15
55 0.15
56 0.15
57 0.15
58 0.15
6 -0.57
7 -0.57
8 -0.87
9 -0.62

> <PUBCHEM_EFFECTIVE_ROTOR_COUNT>
8

> <PUBCHEM_PHARMACOPHORE_FEATURES>
17
1 1 acceptor
1 2 acceptor
1 2 donor
1 3 acceptor
1 3 donor
1 4 acceptor
1 4 donor
1 8 cation
1 8 donor
3 5 6 16 cation
3 5 7 15 cation
3 7 9 23 cation
5 1 10 11 12 13 rings
5 5 6 15 16 17 rings
6 21 24 26 28 30 32 rings
6 22 25 27 29 31 33 rings
6 7 9 15 17 18 23 rings

> <PUBCHEM_HEAVY_ATOM_COUNT>
33

> <PUBCHEM_ATOM_DEF_STEREO_COUNT>
4

> <PUBCHEM_ATOM_UDEF_STEREO_COUNT>
0

> <PUBCHEM_BOND_DEF_STEREO_COUNT>
0

> <PUBCHEM_BOND_UDEF_STEREO_COUNT>
0

> <PUBCHEM_ISOTOPIC_ATOM_COUNT>
0

> <PUBCHEM_COMPONENT_COUNT>
1

> <PUBCHEM_CACTVS_TAUTO_COUNT>
3

> <PUBCHEM_CONFORMER_ID>
009E85B800000001

> <PUBCHEM_MMFF94_ENERGY>
96.8638

> <PUBCHEM_FEATURE_SELFOVERLAP>
86.894

> <PUBCHEM_SHAPE_FINGERPRINT>
10050765 1 18192434284395212437
10319926 262 18340485659546987067
10369192 42 13695872523674321683
11524674 6 18342735213425456647
11621639 148 9221787074312340527
11796584 16 18334296487536163262
12107183 9 18335421266403982801
12422481 6 17703508882968411582
12616971 3 17386008398756478805
12633257 1 18335420188435620069
12643181 29 18408886230829919558
13914758 101 16845293800253810185
14040222 383 18409455812466417411
14347424 109 17418084413568299976
14866123 147 18334576893556959235
15021287 119 17095245830684369013
15183329 4 18186515518676210099
15301273 46 17989488507331367708
15348495 7 18342451595064665424
15361156 5 18041289849520349828
15537594 2 17530676602341855554
19303781 99 15504311788900125458
21033648 29 17632284722559569034
21403212 168 18336826399926387497
21781055 127 18194143840751902389
220451 1 17821728342985030454
22122407 14 16558750148016991617
23516275 137 17678755435737331058
23522609 53 17896625992226372364
23559900 14 18342172323601700489
312425 54 18409721889800112778
335507 130 16877943828901773334
3383291 50 18411984693927353635
3633792 109 15338564821395763741
397830 11 18199178663208298856
4073 2 18412547643041523974
4093350 32 17488746661960979471
4144715 1 18266743673740413818
484985 159 16806170003427511067
5080951 261 18195783324131056703
5085150 59 18343014519591648295
5104073 3 18340766069308816953
5265222 85 17749117711672627558
59755656 520 18261386750822933735
6009941 240 18343302573882503003
6371380 46 18410567371530134473
7226269 152 18341613698896507201
9981440 41 17418104204808897303

> <PUBCHEM_SHAPE_MULTIPOLES>
630.74
21.34
3.41
1.57
16.29
3.44
-0.36
-1.2
-2.32
-5.7
-0.74
1.78
-0.06
0.72

> <PUBCHEM_SHAPE_SELFOVERLAP>
1385.587

> <PUBCHEM_SHAPE_VOLUME>
334.8

> <PUBCHEM_COORDINATE_TYPE>
2
5
10

$$$$
