10383974
  -OEChem-03292013303D

 53 53  0     1  0  0  0  0  0999 V2000
    0.0791   -0.4456   -2.4825 O   0  0  0  0  0  0  0  0  0  0  0  0
    2.4332   -4.4958   -0.1318 O   0  0  0  0  0  0  0  0  0  0  0  0
   -0.0531    2.1286    0.5428 O   0  0  0  0  0  0  0  0  0  0  0  0
    0.3727   -1.6718   -0.5309 N   0  0  0  0  0  0  0  0  0  0  0  0
   -1.5036    1.2801   -1.0633 N   0  0  0  0  0  0  0  0  0  0  0  0
    4.2939    0.6570    0.5751 N   0  0  0  0  0  0  0  0  0  0  0  0
    6.4691    1.1601    1.4613 N   0  0  0  0  0  0  0  0  0  0  0  0
    5.3659    2.6690    0.1569 N   0  0  0  0  0  0  0  0  0  0  0  0
   -1.4659   -0.0993   -0.6471 C   0  0  1  0  0  0  0  0  0  0  0  0
    1.5532   -2.3907   -0.9284 C   0  0  1  0  0  0  0  0  0  0  0  0
    2.8520   -1.6651   -0.5701 C   0  0  0  0  0  0  0  0  0  0  0  0
   -2.7598   -0.8445   -0.9945 C   0  0  0  0  0  0  0  0  0  0  0  0
    3.0498   -1.4203    0.9336 C   0  0  0  0  0  0  0  0  0  0  0  0
   -0.2765   -0.7487   -1.3456 C   0  0  0  0  0  0  0  0  0  0  0  0
   -3.8764   -0.5606   -0.0196 C   0  0  0  0  0  0  0  0  0  0  0  0
    4.3343   -0.6514    1.2301 C   0  0  0  0  0  0  0  0  0  0  0  0
    1.4562   -3.7803   -0.3381 C   0  0  0  0  0  0  0  0  0  0  0  0
   -0.7880    2.2874   -0.4282 C   0  0  0  0  0  0  0  0  0  0  0  0
   -4.0366   -1.3628    1.1102 C   0  0  0  0  0  0  0  0  0  0  0  0
   -4.7480    0.5043   -0.2481 C   0  0  0  0  0  0  0  0  0  0  0  0
   -1.0174    3.6367   -1.0838 C   0  0  0  0  0  0  0  0  0  0  0  0
   -5.0685   -1.1005    2.0114 C   0  0  0  0  0  0  0  0  0  0  0  0
   -5.7798    0.7667    0.6531 C   0  0  0  0  0  0  0  0  0  0  0  0
   -5.9400   -0.0357    1.7830 C   0  0  0  0  0  0  0  0  0  0  0  0
   -0.2721    4.7592   -0.3850 C   0  0  0  0  0  0  0  0  0  0  0  0
    5.3263    1.4242    0.7396 C   0  0  0  0  0  0  0  0  0  0  0  0
   -1.2916   -0.1188    0.4363 H   0  0  0  0  0  0  0  0  0  0  0  0
    1.5105   -2.5197   -2.0169 H   0  0  0  0  0  0  0  0  0  0  0  0
    3.7054   -2.2424   -0.9482 H   0  0  0  0  0  0  0  0  0  0  0  0
    2.8637   -0.7048   -1.1005 H   0  0  0  0  0  0  0  0  0  0  0  0
   -2.5789   -1.9281   -1.0046 H   0  0  0  0  0  0  0  0  0  0  0  0
   -3.0890   -0.6016   -2.0139 H   0  0  0  0  0  0  0  0  0  0  0  0
    3.0790   -2.3742    1.4715 H   0  0  0  0  0  0  0  0  0  0  0  0
    2.1981   -0.8530    1.3282 H   0  0  0  0  0  0  0  0  0  0  0  0
    0.0105   -1.8365    0.4043 H   0  0  0  0  0  0  0  0  0  0  0  0
   -2.0300    1.5111   -1.9014 H   0  0  0  0  0  0  0  0  0  0  0  0
    4.4228   -0.5301    2.3164 H   0  0  0  0  0  0  0  0  0  0  0  0
    5.1917   -1.2349    0.8732 H   0  0  0  0  0  0  0  0  0  0  0  0
    0.4375   -4.1833   -0.1982 H   0  0  0  0  0  0  0  0  0  0  0  0
   -3.3624   -2.1936    1.3005 H   0  0  0  0  0  0  0  0  0  0  0  0
   -4.6341    1.1368   -1.1244 H   0  0  0  0  0  0  0  0  0  0  0  0
   -0.6922    3.5737   -2.1285 H   0  0  0  0  0  0  0  0  0  0  0  0
   -2.0926    3.8488   -1.0754 H   0  0  0  0  0  0  0  0  0  0  0  0
   -5.1928   -1.7248    2.8914 H   0  0  0  0  0  0  0  0  0  0  0  0
   -6.4584    1.5959    0.4754 H   0  0  0  0  0  0  0  0  0  0  0  0
   -6.7432    0.1688    2.4848 H   0  0  0  0  0  0  0  0  0  0  0  0
   -0.5880    4.8500    0.6595 H   0  0  0  0  0  0  0  0  0  0  0  0
    0.8080    4.5794   -0.3943 H   0  0  0  0  0  0  0  0  0  0  0  0
   -0.4642    5.7135   -0.8849 H   0  0  0  0  0  0  0  0  0  0  0  0
    7.2183    1.8413    1.5210 H   0  0  0  0  0  0  0  0  0  0  0  0
    6.6063    0.2867    1.9571 H   0  0  0  0  0  0  0  0  0  0  0  0
    6.1638    3.2840    0.2733 H   0  0  0  0  0  0  0  0  0  0  0  0
    4.5944    3.0075   -0.4077 H   0  0  0  0  0  0  0  0  0  0  0  0
  1 14  2  0  0  0  0
  2 17  2  0  0  0  0
  3 18  2  0  0  0  0
  4 10  1  0  0  0  0
  4 14  1  0  0  0  0
  4 35  1  0  0  0  0
  5  9  1  0  0  0  0
  5 18  1  0  0  0  0
  5 36  1  0  0  0  0
  6 16  1  0  0  0  0
  6 26  2  0  0  0  0
  7 26  1  0  0  0  0
  7 50  1  0  0  0  0
  7 51  1  0  0  0  0
  8 26  1  0  0  0  0
  8 52  1  0  0  0  0
  8 53  1  0  0  0  0
  9 12  1  0  0  0  0
  9 14  1  0  0  0  0
  9 27  1  0  0  0  0
 10 11  1  0  0  0  0
 10 17  1  0  0  0  0
 10 28  1  0  0  0  0
 11 13  1  0  0  0  0
 11 29  1  0  0  0  0
 11 30  1  0  0  0  0
 12 15  1  0  0  0  0
 12 31  1  0  0  0  0
 12 32  1  0  0  0  0
 13 16  1  0  0  0  0
 13 33  1  0  0  0  0
 13 34  1  0  0  0  0
 15 19  2  0  0  0  0
 15 20  1  0  0  0  0
 16 37  1  0  0  0  0
 16 38  1  0  0  0  0
 17 39  1  0  0  0  0
 18 21  1  0  0  0  0
 19 22  1  0  0  0  0
 19 40  1  0  0  0  0
 20 23  2  0  0  0  0
 20 41  1  0  0  0  0
 21 25  1  0  0  0  0
 21 42  1  0  0  0  0
 21 43  1  0  0  0  0
 22 24  2  0  0  0  0
 22 44  1  0  0  0  0
 23 24  1  0  0  0  0
 23 45  1  0  0  0  0
 24 46  1  0  0  0  0
 25 47  1  0  0  0  0
 25 48  1  0  0  0  0
 25 49  1  0  0  0  0
M  END
> <PUBCHEM_COMPOUND_CID>
10383974

> <PUBCHEM_CONFORMER_RMSD>
1

> <PUBCHEM_CONFORMER_DIVERSEORDER>
1
19
78
82
58
63
110
53
115
96
95
158
67
51
61
114
13
65
38
109
75
26
93
155
156
16
44
35
147
138
39
131
104
154
148
31
98
146
57
42
60
149
23
86
121
132
133
107
18
129
97
14
120
111
83
113
151
6
20
94
76
55
3
102
29
15
144
119
143
48
40
73
85
46
34
116
91
28
24
99
64
137
136
80
77
59
101
12
142
74
139
7
100
153
122
92
43
150
27
22
70
84
108
36
145
50
17
140
54
56
32
126
105
66
8
9
106
37
127
152
103
123
125
141
134
79
30
72
117
89
87
128
157
45
25
21
112
81
47
41
135
49
88
62
4
68
124
90
118
52
159
33
2
71
69
11
5
10
130

> <PUBCHEM_MMFF94_PARTIAL_CHARGES>
35
1 -0.57
10 0.36
12 0.14
14 0.57
15 -0.14
16 0.25
17 0.45
18 0.57
19 -0.15
2 -0.57
20 -0.15
21 0.06
22 -0.15
23 -0.15
24 -0.15
26 0.55
3 -0.57
35 0.37
36 0.37
39 0.06
4 -0.73
40 0.15
41 0.15
44 0.15
45 0.15
46 0.15
5 -0.73
50 0.4
51 0.4
52 0.4
53 0.4
6 -0.7
7 -0.85
8 -0.85
9 0.36

> <PUBCHEM_EFFECTIVE_ROTOR_COUNT>
13

> <PUBCHEM_PHARMACOPHORE_FEATURES>
10
1 1 acceptor
1 2 acceptor
1 25 hydrophobe
1 3 acceptor
1 4 donor
1 5 donor
1 7 donor
1 8 donor
4 6 7 8 26 cation
6 15 19 20 22 23 24 rings

> <PUBCHEM_HEAVY_ATOM_COUNT>
26

> <PUBCHEM_ATOM_DEF_STEREO_COUNT>
1

> <PUBCHEM_ATOM_UDEF_STEREO_COUNT>
1

> <PUBCHEM_BOND_DEF_STEREO_COUNT>
0

> <PUBCHEM_BOND_UDEF_STEREO_COUNT>
0

> <PUBCHEM_ISOTOPIC_ATOM_COUNT>
0

> <PUBCHEM_COMPONENT_COUNT>
1

> <PUBCHEM_CACTVS_TAUTO_COUNT>
16

> <PUBCHEM_CONFORMER_ID>
009E726600000001

> <PUBCHEM_MMFF94_ENERGY>
54.7931

> <PUBCHEM_FEATURE_SELFOVERLAP>
50.802

> <PUBCHEM_SHAPE_FINGERPRINT>
10670039 82 14548747183380930243
12422481 6 18271807899775929777
12596602 18 17775575234524472163
12788726 201 17970928664917824931
14765038 42 18057884852208693408
14790565 3 18269272537847705832
14840074 17 18343584078866358517
15183329 4 12319468687973732930
15420108 30 17847061095278961343
15806764 133 17556585335726030086
15927050 60 17471866169715683732
17349148 13 12613034946483347070
18785283 64 18118416269983757293
20642791 268 18272384087509004287
23559900 14 17977099067921974703
3380486 145 18338785737883539943
392239 28 18260542351050929362
6004065 56 18336826485725649555

> <PUBCHEM_SHAPE_MULTIPOLES>
492.55
13.2
4.84
1.65
1.71
2.24
0.04
1.9
9.73
4.1
-1.2
-0.71
-0.26
1.82

> <PUBCHEM_SHAPE_SELFOVERLAP>
987.838

> <PUBCHEM_SHAPE_VOLUME>
285.5

> <PUBCHEM_COORDINATE_TYPE>
2
5
10

$$$$
