10382483
  -OEChem-03292013303D

 46 49  0     1  0  0  0  0  0999 V2000
    2.9952    1.2932   -1.7257 O   0  0  0  0  0  0  0  0  0  0  0  0
    2.0086   -1.4288    0.4853 O   0  0  0  0  0  0  0  0  0  0  0  0
    3.0465    0.1792    2.5220 O   0  0  0  0  0  0  0  0  0  0  0  0
   -1.4359    0.1176   -1.9282 O   0  0  0  0  0  0  0  0  0  0  0  0
   -1.8913    1.5003    0.1331 O   0  0  0  0  0  0  0  0  0  0  0  0
   -2.5093   -2.2446   -1.4359 O   0  0  0  0  0  0  0  0  0  0  0  0
   -3.4353    1.9150    1.8010 O   0  0  0  0  0  0  0  0  0  0  0  0
    0.9770    1.1261   -0.2502 C   0  0  1  0  0  0  0  0  0  0  0  0
    2.1380    0.4453   -0.9460 C   0  0  2  0  0  0  0  0  0  0  0  0
   -0.0637   -0.0380    0.1138 C   0  0  2  0  0  0  0  0  0  0  0  0
    2.8356   -0.3161    0.1267 C   0  0  1  0  0  0  0  0  0  0  0  0
    1.7042    1.6427    1.0530 C   0  0  0  0  0  0  0  0  0  0  0  0
    2.3344    0.2294   -2.4262 C   0  0  0  0  0  0  0  0  0  0  0  0
    2.9500    0.7449    1.2316 C   0  0  1  0  0  0  0  0  0  0  0  0
    0.6890   -1.1182    0.9716 C   0  0  1  0  0  0  0  0  0  0  0  0
    0.3917    2.3163   -1.0156 C   0  0  0  0  0  0  0  0  0  0  0  0
   -0.6333   -0.7543   -1.1489 C   0  0  1  0  0  0  0  0  0  0  0  0
   -1.2562    0.5334    0.9332 C   0  0  0  0  0  0  0  0  0  0  0  0
   -0.0273   -2.4357    1.0834 C   0  0  0  0  0  0  0  0  0  0  0  0
   -1.4938   -1.9643   -0.7997 C   0  0  0  0  0  0  0  0  0  0  0  0
   -1.0420   -2.8476    0.3115 C   0  0  0  0  0  0  0  0  0  0  0  0
   -1.7479   -4.1523    0.5011 C   0  0  0  0  0  0  0  0  0  0  0  0
   -2.9817    2.1287    0.6849 C   0  0  0  0  0  0  0  0  0  0  0  0
   -3.5522    3.1277   -0.2757 C   0  0  0  0  0  0  0  0  0  0  0  0
    3.8163   -0.7036   -0.1657 H   0  0  0  0  0  0  0  0  0  0  0  0
    1.0675    1.6614    1.9399 H   0  0  0  0  0  0  0  0  0  0  0  0
    2.0518    2.6732    0.9010 H   0  0  0  0  0  0  0  0  0  0  0  0
    2.9375   -0.6102   -2.7467 H   0  0  0  0  0  0  0  0  0  0  0  0
    1.5393    0.5020   -3.1073 H   0  0  0  0  0  0  0  0  0  0  0  0
    3.8464    1.3542    1.0609 H   0  0  0  0  0  0  0  0  0  0  0  0
    0.7893   -0.7491    1.9991 H   0  0  0  0  0  0  0  0  0  0  0  0
   -0.2382    2.9527   -0.3893 H   0  0  0  0  0  0  0  0  0  0  0  0
    1.1957    2.9821   -1.3553 H   0  0  0  0  0  0  0  0  0  0  0  0
   -0.1453    2.0358   -1.9219 H   0  0  0  0  0  0  0  0  0  0  0  0
    0.1629   -1.1340   -1.7949 H   0  0  0  0  0  0  0  0  0  0  0  0
   -0.9184    0.9910    1.8682 H   0  0  0  0  0  0  0  0  0  0  0  0
   -1.9757   -0.2494    1.1986 H   0  0  0  0  0  0  0  0  0  0  0  0
    0.3191   -3.0899    1.8814 H   0  0  0  0  0  0  0  0  0  0  0  0
    3.0426    0.9105    3.1628 H   0  0  0  0  0  0  0  0  0  0  0  0
   -2.2302    0.3478   -1.4187 H   0  0  0  0  0  0  0  0  0  0  0  0
   -1.6732   -4.7626   -0.4049 H   0  0  0  0  0  0  0  0  0  0  0  0
   -2.8071   -3.9856    0.7228 H   0  0  0  0  0  0  0  0  0  0  0  0
   -1.3227   -4.7317    1.3274 H   0  0  0  0  0  0  0  0  0  0  0  0
   -3.8455    2.6250   -1.2007 H   0  0  0  0  0  0  0  0  0  0  0  0
   -2.8144    3.9077   -0.4789 H   0  0  0  0  0  0  0  0  0  0  0  0
   -4.4397    3.5903    0.1653 H   0  0  0  0  0  0  0  0  0  0  0  0
  1  9  1  0  0  0  0
  1 13  1  0  0  0  0
  2 11  1  0  0  0  0
  2 15  1  0  0  0  0
  3 14  1  0  0  0  0
  3 39  1  0  0  0  0
  4 17  1  0  0  0  0
  4 40  1  0  0  0  0
  5 18  1  0  0  0  0
  5 23  1  0  0  0  0
  6 20  2  0  0  0  0
  7 23  2  0  0  0  0
  8  9  1  0  0  0  0
  8 10  1  0  0  0  0
  8 12  1  0  0  0  0
  8 16  1  0  0  0  0
  9 11  1  0  0  0  0
  9 13  1  0  0  0  0
 10 15  1  0  0  0  0
 10 17  1  0  0  0  0
 10 18  1  0  0  0  0
 11 14  1  0  0  0  0
 11 25  1  0  0  0  0
 12 14  1  0  0  0  0
 12 26  1  0  0  0  0
 12 27  1  0  0  0  0
 13 28  1  0  0  0  0
 13 29  1  0  0  0  0
 14 30  1  0  0  0  0
 15 19  1  0  0  0  0
 15 31  1  0  0  0  0
 16 32  1  0  0  0  0
 16 33  1  0  0  0  0
 16 34  1  0  0  0  0
 17 20  1  0  0  0  0
 17 35  1  0  0  0  0
 18 36  1  0  0  0  0
 18 37  1  0  0  0  0
 19 21  2  0  0  0  0
 19 38  1  0  0  0  0
 20 21  1  0  0  0  0
 21 22  1  0  0  0  0
 22 41  1  0  0  0  0
 22 42  1  0  0  0  0
 22 43  1  0  0  0  0
 23 24  1  0  0  0  0
 24 44  1  0  0  0  0
 24 45  1  0  0  0  0
 24 46  1  0  0  0  0
M  END
> <PUBCHEM_COMPOUND_CID>
10382483

> <PUBCHEM_CONFORMER_RMSD>
0.8

> <PUBCHEM_CONFORMER_DIVERSEORDER>
3
2
1

> <PUBCHEM_MMFF94_PARTIAL_CHARGES>
26
1 -0.3
11 0.38
13 -0.05
14 0.28
15 0.42
17 0.34
18 0.28
19 -0.29
2 -0.56
20 0.49
21 -0.12
22 0.14
23 0.66
24 0.06
28 0.1
29 0.1
3 -0.68
38 0.15
39 0.4
4 -0.68
40 0.4
5 -0.43
6 -0.57
7 -0.57
8 0.09
9 -0.04

> <PUBCHEM_EFFECTIVE_ROTOR_COUNT>
4.2

> <PUBCHEM_PHARMACOPHORE_FEATURES>
10
1 1 acceptor
1 2 acceptor
1 3 acceptor
1 3 donor
1 4 acceptor
1 4 donor
1 6 acceptor
1 7 acceptor
6 10 15 17 19 20 21 rings
8 2 8 9 10 11 12 14 15 rings

> <PUBCHEM_HEAVY_ATOM_COUNT>
24

> <PUBCHEM_ATOM_DEF_STEREO_COUNT>
7

> <PUBCHEM_ATOM_UDEF_STEREO_COUNT>
0

> <PUBCHEM_BOND_DEF_STEREO_COUNT>
0

> <PUBCHEM_BOND_UDEF_STEREO_COUNT>
0

> <PUBCHEM_ISOTOPIC_ATOM_COUNT>
0

> <PUBCHEM_COMPONENT_COUNT>
1

> <PUBCHEM_CACTVS_TAUTO_COUNT>
8

> <PUBCHEM_CONFORMER_ID>
009E6C9300000003

> <PUBCHEM_MMFF94_ENERGY>
90.0886

> <PUBCHEM_FEATURE_SELFOVERLAP>
50.77

> <PUBCHEM_SHAPE_FINGERPRINT>
10863032 1 17315674796022459120
10948715 1 17679054597273145660
11578080 2 16772131325820977376
11582403 64 16839892977663617840
12160290 23 18271813462243316145
12788726 201 18195247939092981077
13134695 92 17259888629830376393
13140716 1 17903343046346835707
13681431 1 17190383526418903415
14178342 30 18337662122545766578
14817 1 12857361265055427607
14955137 171 17765148371772581138
15881359 60 17459737151515715844
15906896 17 18341904016904730191
16752209 62 18411702101731079415
16945 1 18265619972814790626
18186145 218 17703231685436898593
20600515 1 17830425617130686421
20905425 154 17115235763061264188
21285901 2 17702948192125785015
21524375 3 18198911314315552037
22112679 90 18113899411749918568
229495 10 16298392400029314461
22956985 138 17757001012824264347
23419403 2 15769780190437975295
23557571 272 17986103243535128127
23558518 356 18342165700334179857
23559900 14 17973131180472438424
298252 57 17753934633449029124
3060560 45 17913768310859131053
35225 105 18263946443513990753
427121 178 18130507409995943817
495365 180 17837190594518325305
633830 44 17273701949192726465
81228 2 18199190774963130993
9981440 41 16270772646781100568

> <PUBCHEM_SHAPE_MULTIPOLES>
452.82
4.86
3.88
1.93
0.29
2.19
-0.25
-2.84
0.63
4.68
0.43
-1.02
-0.27
-0.93

> <PUBCHEM_SHAPE_SELFOVERLAP>
982.984

> <PUBCHEM_SHAPE_VOLUME>
242.5

> <PUBCHEM_COORDINATE_TYPE>
2
5
10

$$$$
