10385353
  -OEChem-03292013303D

 63 63  0     1  0  0  0  0  0999 V2000
   -1.0627   -0.4540    1.9889 O   0  0  0  0  0  0  0  0  0  0  0  0
   -1.7034   -2.8200   -1.3246 O   0  0  0  0  0  0  0  0  0  0  0  0
   -1.5843    4.6354    0.5317 O   0  0  0  0  0  0  0  0  0  0  0  0
   -3.2546    4.8304   -1.5882 O   0  0  0  0  0  0  0  0  0  0  0  0
   -2.5086   -0.7508    0.2037 N   0  0  0  0  0  0  0  0  0  0  0  0
   -2.9688   -0.3015   -1.0519 N   0  0  0  0  0  0  0  0  0  0  0  0
   -1.8171   -4.2252    0.5279 N   0  0  0  0  0  0  0  0  0  0  0  0
   -3.1709    3.6540   -0.8316 N   0  0  0  0  0  0  0  0  0  0  0  0
   -1.2248    1.3606    0.4737 C   0  0  1  0  0  0  0  0  0  0  0  0
   -2.9232   -2.1005    0.5993 C   0  0  1  0  0  0  0  0  0  0  0  0
   -4.4191   -2.3421    0.4001 C   0  0  0  0  0  0  0  0  0  0  0  0
    0.2217    1.7164    0.8414 C   0  0  0  0  0  0  0  0  0  0  0  0
   -4.9232   -1.7774   -0.9265 C   0  0  0  0  0  0  0  0  0  0  0  0
   -1.5867   -0.0244    0.9565 C   0  0  0  0  0  0  0  0  0  0  0  0
    1.2376    0.7690    0.1917 C   0  0  0  0  0  0  0  0  0  0  0  0
   -4.4301   -0.3470   -1.1185 C   0  0  0  0  0  0  0  0  0  0  0  0
    2.6729    1.1835    0.5232 C   0  0  0  0  0  0  0  0  0  0  0  0
   -2.2531    2.3736    0.9945 C   0  0  0  0  0  0  0  0  0  0  0  0
    3.6871    0.2225   -0.0994 C   0  0  0  0  0  0  0  0  0  0  0  0
   -2.0791   -3.0655   -0.1813 C   0  0  0  0  0  0  0  0  0  0  0  0
    5.1207    0.6173    0.2591 C   0  0  0  0  0  0  0  0  0  0  0  0
    6.1357   -0.3242   -0.3915 C   0  0  0  0  0  0  0  0  0  0  0  0
   -2.2883    3.6776    0.2178 C   0  0  0  0  0  0  0  0  0  0  0  0
    7.5706    0.0898   -0.0611 C   0  0  0  0  0  0  0  0  0  0  0  0
    8.5846   -0.8312   -0.7392 C   0  0  0  0  0  0  0  0  0  0  0  0
   -1.0448   -5.3225   -0.0087 C   0  0  0  0  0  0  0  0  0  0  0  0
   10.0119   -0.4439   -0.3872 C   0  0  0  0  0  0  0  0  0  0  0  0
   -1.2609    1.3752   -0.6225 H   0  0  0  0  0  0  0  0  0  0  0  0
   -2.6974   -2.2279    1.6656 H   0  0  0  0  0  0  0  0  0  0  0  0
   -4.6627   -3.4085    0.4681 H   0  0  0  0  0  0  0  0  0  0  0  0
   -4.9627   -1.8389    1.2106 H   0  0  0  0  0  0  0  0  0  0  0  0
    0.3533    1.7038    1.9308 H   0  0  0  0  0  0  0  0  0  0  0  0
    0.4383    2.7402    0.5130 H   0  0  0  0  0  0  0  0  0  0  0  0
   -4.5755   -2.4080   -1.7543 H   0  0  0  0  0  0  0  0  0  0  0  0
   -6.0185   -1.8010   -0.9467 H   0  0  0  0  0  0  0  0  0  0  0  0
    1.1001    0.7748   -0.8966 H   0  0  0  0  0  0  0  0  0  0  0  0
    1.0774   -0.2605    0.5299 H   0  0  0  0  0  0  0  0  0  0  0  0
   -4.7537    0.0257   -2.0962 H   0  0  0  0  0  0  0  0  0  0  0  0
   -4.8649    0.3185   -0.3630 H   0  0  0  0  0  0  0  0  0  0  0  0
    2.8061    1.2013    1.6118 H   0  0  0  0  0  0  0  0  0  0  0  0
    2.8568    2.2010    0.1577 H   0  0  0  0  0  0  0  0  0  0  0  0
   -2.5684   -0.9179   -1.7582 H   0  0  0  0  0  0  0  0  0  0  0  0
   -3.2624    1.9425    0.9846 H   0  0  0  0  0  0  0  0  0  0  0  0
   -2.0494    2.6149    2.0457 H   0  0  0  0  0  0  0  0  0  0  0  0
    3.5664    0.2199   -1.1895 H   0  0  0  0  0  0  0  0  0  0  0  0
    3.4911   -0.7985    0.2500 H   0  0  0  0  0  0  0  0  0  0  0  0
    5.2469    0.5993    1.3484 H   0  0  0  0  0  0  0  0  0  0  0  0
    5.3104    1.6457   -0.0716 H   0  0  0  0  0  0  0  0  0  0  0  0
    5.9594   -1.3505   -0.0471 H   0  0  0  0  0  0  0  0  0  0  0  0
    5.9949   -0.3194   -1.4792 H   0  0  0  0  0  0  0  0  0  0  0  0
    7.7408    1.1235   -0.3861 H   0  0  0  0  0  0  0  0  0  0  0  0
    7.7179    0.0645    1.0255 H   0  0  0  0  0  0  0  0  0  0  0  0
   -2.2087   -4.3423    1.4577 H   0  0  0  0  0  0  0  0  0  0  0  0
    8.4088   -1.8688   -0.4323 H   0  0  0  0  0  0  0  0  0  0  0  0
    8.4571   -0.7886   -1.8271 H   0  0  0  0  0  0  0  0  0  0  0  0
   -0.3623   -5.6742    0.7686 H   0  0  0  0  0  0  0  0  0  0  0  0
   -1.7351   -6.1258   -0.2777 H   0  0  0  0  0  0  0  0  0  0  0  0
   -0.4789   -5.0114   -0.8901 H   0  0  0  0  0  0  0  0  0  0  0  0
   -3.8411    2.9228   -1.0399 H   0  0  0  0  0  0  0  0  0  0  0  0
   10.2312    0.5793   -0.7083 H   0  0  0  0  0  0  0  0  0  0  0  0
   10.7201   -1.1148   -0.8835 H   0  0  0  0  0  0  0  0  0  0  0  0
   10.1815   -0.5094    0.6923 H   0  0  0  0  0  0  0  0  0  0  0  0
   -2.6415    4.6138   -2.3110 H   0  0  0  0  0  0  0  0  0  0  0  0
  1 14  2  0  0  0  0
  2 20  2  0  0  0  0
  3 23  2  0  0  0  0
  4  8  1  0  0  0  0
  4 63  1  0  0  0  0
  5  6  1  0  0  0  0
  5 10  1  0  0  0  0
  5 14  1  0  0  0  0
  6 16  1  0  0  0  0
  6 42  1  0  0  0  0
  7 20  1  0  0  0  0
  7 26  1  0  0  0  0
  7 53  1  0  0  0  0
  8 23  1  0  0  0  0
  8 59  1  0  0  0  0
  9 12  1  0  0  0  0
  9 14  1  0  0  0  0
  9 18  1  0  0  0  0
  9 28  1  0  0  0  0
 10 11  1  0  0  0  0
 10 20  1  0  0  0  0
 10 29  1  0  0  0  0
 11 13  1  0  0  0  0
 11 30  1  0  0  0  0
 11 31  1  0  0  0  0
 12 15  1  0  0  0  0
 12 32  1  0  0  0  0
 12 33  1  0  0  0  0
 13 16  1  0  0  0  0
 13 34  1  0  0  0  0
 13 35  1  0  0  0  0
 15 17  1  0  0  0  0
 15 36  1  0  0  0  0
 15 37  1  0  0  0  0
 16 38  1  0  0  0  0
 16 39  1  0  0  0  0
 17 19  1  0  0  0  0
 17 40  1  0  0  0  0
 17 41  1  0  0  0  0
 18 23  1  0  0  0  0
 18 43  1  0  0  0  0
 18 44  1  0  0  0  0
 19 21  1  0  0  0  0
 19 45  1  0  0  0  0
 19 46  1  0  0  0  0
 21 22  1  0  0  0  0
 21 47  1  0  0  0  0
 21 48  1  0  0  0  0
 22 24  1  0  0  0  0
 22 49  1  0  0  0  0
 22 50  1  0  0  0  0
 24 25  1  0  0  0  0
 24 51  1  0  0  0  0
 24 52  1  0  0  0  0
 25 27  1  0  0  0  0
 25 54  1  0  0  0  0
 25 55  1  0  0  0  0
 26 56  1  0  0  0  0
 26 57  1  0  0  0  0
 26 58  1  0  0  0  0
 27 60  1  0  0  0  0
 27 61  1  0  0  0  0
 27 62  1  0  0  0  0
M  END
> <PUBCHEM_COMPOUND_CID>
10385353

> <PUBCHEM_CONFORMER_RMSD>
1.4

> <PUBCHEM_CONFORMER_DIVERSEORDER>
1
86
78
20
55
96
14
17
66
120
79
62
108
80
116
61
43
45
122
46
87
67
101
32
21
3
11
47
100
65
107
92
97
39
70
44
99
49
22
27
105
25
118
34
42
103
63
102
53
74
95
104
77
2
90
123
23
48
94
91
37
106
82
33
121
69
117
36
18
60
54
7
112
76
28
75
6
89
83
29
85
9
30
110
5
88
58
93
41
4
57
64
114
50
111
119
51
38
31
26
35
81
109
84
115
40
71
56
15
72
68
19
10
52
113
59
13
73
24
8
98
16
12

> <PUBCHEM_MMFF94_PARTIAL_CHARGES>
20
1 -0.57
10 0.36
14 0.57
16 0.27
18 0.06
2 -0.57
20 0.57
23 0.57
26 0.3
3 -0.57
4 -0.44
42 0.36
5 -0.35
53 0.37
59 0.37
6 -0.64
63 0.4
7 -0.73
8 -0.39
9 0.06

> <PUBCHEM_EFFECTIVE_ROTOR_COUNT>
16.2

> <PUBCHEM_PHARMACOPHORE_FEATURES>
8
1 1 acceptor
1 2 acceptor
1 27 hydrophobe
1 3 acceptor
1 6 donor
1 7 donor
1 8 donor
6 5 6 10 11 13 16 rings

> <PUBCHEM_HEAVY_ATOM_COUNT>
27

> <PUBCHEM_ATOM_DEF_STEREO_COUNT>
2

> <PUBCHEM_ATOM_UDEF_STEREO_COUNT>
0

> <PUBCHEM_BOND_DEF_STEREO_COUNT>
0

> <PUBCHEM_BOND_UDEF_STEREO_COUNT>
0

> <PUBCHEM_ISOTOPIC_ATOM_COUNT>
0

> <PUBCHEM_COMPONENT_COUNT>
1

> <PUBCHEM_CACTVS_TAUTO_COUNT>
6

> <PUBCHEM_CONFORMER_ID>
009E77C900000001

> <PUBCHEM_MMFF94_ENERGY>
31.2578

> <PUBCHEM_FEATURE_SELFOVERLAP>
40.597

> <PUBCHEM_SHAPE_FINGERPRINT>
10391435 84 18269829978259932954
10577160 183 17677598780133696128
11056379 131 18411982455811204712
11315181 36 18259708913264266548
11809386 21 18335136475843959962
12760667 363 18130508625450426810
12788726 201 18334846230106285051
13690498 29 18410295830902340136
14251757 5 18335976562429997427
15183329 4 15864063287767821938
15439362 3 17616814331827059836
15927050 60 18055075350822381169
20771845 165 17829332380651207364
21307412 95 18268701891545317471
21360442 43 18408327688188566818
23559900 14 18197773517344356536
4409770 3 18409163299465700485
6138700 20 18271524299249577543
6669772 16 18052542062983878229

> <PUBCHEM_SHAPE_MULTIPOLES>
512.25
18.35
6.22
1.17
72.57
0.71
-0.03
-6.35
-5.65
-11.94
-0.77
-1.06
0.31
1.04

> <PUBCHEM_SHAPE_SELFOVERLAP>
995.029

> <PUBCHEM_SHAPE_VOLUME>
307.5

> <PUBCHEM_COORDINATE_TYPE>
2
5
10

$$$$
