10387188
  -OEChem-03292013303D

 54 57  0     1  0  0  0  0  0999 V2000
   -2.9434    0.2327   -1.5904 O   0  0  0  0  0  0  0  0  0  0  0  0
   -2.8509   -0.8925    0.4968 O   0  0  0  0  0  0  0  0  0  0  0  0
   -3.0252    3.3881    1.1000 O   0  0  0  0  0  0  0  0  0  0  0  0
   -0.7080    2.9575   -0.5098 O   0  0  0  0  0  0  0  0  0  0  0  0
   -4.8952    1.9739   -0.3992 O   0  0  0  0  0  0  0  0  0  0  0  0
   -2.5133   -3.3254    1.9039 O   0  0  0  0  0  0  0  0  0  0  0  0
   -0.2254   -2.1199    2.4337 O   0  0  0  0  0  0  0  0  0  0  0  0
    1.6042   -0.0578    1.4686 N   0  0  0  0  0  0  0  0  0  0  0  0
    0.7083   -2.8075   -0.8208 N   0  0  0  0  0  0  0  0  0  0  0  0
   -2.6754    2.1153    0.5614 C   0  0  2  0  0  0  0  0  0  0  0  0
   -1.9527    2.3140   -0.7716 C   0  0  2  0  0  0  0  0  0  0  0  0
   -3.9326    1.2629    0.3807 C   0  0  2  0  0  0  0  0  0  0  0  0
   -1.7173    0.9578   -1.4512 C   0  0  2  0  0  0  0  0  0  0  0  0
   -3.6091   -0.0379   -0.3521 C   0  0  1  0  0  0  0  0  0  0  0  0
   -1.1305    1.1141   -2.8513 C   0  0  0  0  0  0  0  0  0  0  0  0
   -2.5293   -2.1155   -0.1501 C   0  0  0  0  0  0  0  0  0  0  0  0
   -1.7135   -3.0215    0.7662 C   0  0  1  0  0  0  0  0  0  0  0  0
    1.4940   -0.9748    0.4518 C   0  0  0  0  0  0  0  0  0  0  0  0
    2.4789   -0.6746   -0.4885 C   0  0  0  0  0  0  0  0  0  0  0  0
    0.6441   -2.0257    0.2577 C   0  0  0  0  0  0  0  0  0  0  0  0
   -0.4175   -2.3718    1.2450 C   0  0  0  0  0  0  0  0  0  0  0  0
    3.1959    0.4652   -0.0042 C   0  0  0  0  0  0  0  0  0  0  0  0
    2.6270    0.8268    1.2176 C   0  0  0  0  0  0  0  0  0  0  0  0
    2.5742   -1.4777   -1.6357 C   0  0  0  0  0  0  0  0  0  0  0  0
    4.2792    1.2242   -0.4949 C   0  0  0  0  0  0  0  0  0  0  0  0
    1.6622   -2.5199   -1.7350 C   0  0  0  0  0  0  0  0  0  0  0  0
    3.0863    1.9103    1.9752 C   0  0  0  0  0  0  0  0  0  0  0  0
    3.5746   -1.2773   -2.7235 C   0  0  0  0  0  0  0  0  0  0  0  0
    4.7497    2.3103    0.2517 C   0  0  0  0  0  0  0  0  0  0  0  0
    4.1603    2.6467    1.4680 C   0  0  0  0  0  0  0  0  0  0  0  0
   -2.0052    1.6364    1.2863 H   0  0  0  0  0  0  0  0  0  0  0  0
   -2.5320    2.9835   -1.4177 H   0  0  0  0  0  0  0  0  0  0  0  0
   -4.3869    1.0671    1.3579 H   0  0  0  0  0  0  0  0  0  0  0  0
   -1.0078    0.3623   -0.8655 H   0  0  0  0  0  0  0  0  0  0  0  0
   -4.5497   -0.5417   -0.6074 H   0  0  0  0  0  0  0  0  0  0  0  0
   -1.8114    1.6755   -3.5004 H   0  0  0  0  0  0  0  0  0  0  0  0
   -0.1645    1.6271   -2.8269 H   0  0  0  0  0  0  0  0  0  0  0  0
   -0.9898    0.1320   -3.3161 H   0  0  0  0  0  0  0  0  0  0  0  0
   -1.9676   -1.9295   -1.0710 H   0  0  0  0  0  0  0  0  0  0  0  0
   -3.4650   -2.6247   -0.4118 H   0  0  0  0  0  0  0  0  0  0  0  0
   -2.2053    3.9049    1.1811 H   0  0  0  0  0  0  0  0  0  0  0  0
   -0.1684    2.3600    0.0357 H   0  0  0  0  0  0  0  0  0  0  0  0
   -4.5715    2.0243   -1.3144 H   0  0  0  0  0  0  0  0  0  0  0  0
   -1.4771   -3.9700    0.2742 H   0  0  0  0  0  0  0  0  0  0  0  0
    1.0140   -0.0334    2.2887 H   0  0  0  0  0  0  0  0  0  0  0  0
    4.7560    0.9836   -1.4399 H   0  0  0  0  0  0  0  0  0  0  0  0
    1.6664   -3.1890   -2.5912 H   0  0  0  0  0  0  0  0  0  0  0  0
    2.6277    2.1730    2.9227 H   0  0  0  0  0  0  0  0  0  0  0  0
   -2.7949   -2.4846    2.3037 H   0  0  0  0  0  0  0  0  0  0  0  0
    4.5903   -1.3648   -2.3247 H   0  0  0  0  0  0  0  0  0  0  0  0
    3.4687   -2.0205   -3.5209 H   0  0  0  0  0  0  0  0  0  0  0  0
    3.4486   -0.2885   -3.1758 H   0  0  0  0  0  0  0  0  0  0  0  0
    5.5840    2.8972   -0.1233 H   0  0  0  0  0  0  0  0  0  0  0  0
    4.5405    3.4943    2.0324 H   0  0  0  0  0  0  0  0  0  0  0  0
  1 13  1  0  0  0  0
  1 14  1  0  0  0  0
  2 14  1  0  0  0  0
  2 16  1  0  0  0  0
  3 10  1  0  0  0  0
  3 41  1  0  0  0  0
  4 11  1  0  0  0  0
  4 42  1  0  0  0  0
  5 12  1  0  0  0  0
  5 43  1  0  0  0  0
  6 17  1  0  0  0  0
  6 49  1  0  0  0  0
  7 21  2  0  0  0  0
  8 18  1  0  0  0  0
  8 23  1  0  0  0  0
  8 45  1  0  0  0  0
  9 20  2  0  0  0  0
  9 26  1  0  0  0  0
 10 11  1  0  0  0  0
 10 12  1  0  0  0  0
 10 31  1  0  0  0  0
 11 13  1  0  0  0  0
 11 32  1  0  0  0  0
 12 14  1  0  0  0  0
 12 33  1  0  0  0  0
 13 15  1  0  0  0  0
 13 34  1  0  0  0  0
 14 35  1  0  0  0  0
 15 36  1  0  0  0  0
 15 37  1  0  0  0  0
 15 38  1  0  0  0  0
 16 17  1  0  0  0  0
 16 39  1  0  0  0  0
 16 40  1  0  0  0  0
 17 21  1  0  0  0  0
 17 44  1  0  0  0  0
 18 19  2  0  0  0  0
 18 20  1  0  0  0  0
 19 22  1  0  0  0  0
 19 24  1  0  0  0  0
 20 21  1  0  0  0  0
 22 23  1  0  0  0  0
 22 25  2  0  0  0  0
 23 27  2  0  0  0  0
 24 26  2  0  0  0  0
 24 28  1  0  0  0  0
 25 29  1  0  0  0  0
 25 46  1  0  0  0  0
 26 47  1  0  0  0  0
 27 30  1  0  0  0  0
 27 48  1  0  0  0  0
 28 50  1  0  0  0  0
 28 51  1  0  0  0  0
 28 52  1  0  0  0  0
 29 30  2  0  0  0  0
 29 53  1  0  0  0  0
 30 54  1  0  0  0  0
M  END
> <PUBCHEM_COMPOUND_CID>
10387188

> <PUBCHEM_CONFORMER_RMSD>
0.8

> <PUBCHEM_CONFORMER_DIVERSEORDER>
1
233
202
189
95
142
340
314
99
54
143
217
219
282
295
275
256
192
108
73
276
273
365
113
348
9
248
363
199
355
249
231
40
56
190
303
121
286
110
227
104
255
43
27
74
216
239
101
141
183
310
241
278
144
107
333
154
14
246
87
177
212
358
184
66
220
268
292
100
243
263
65
344
175
23
283
359
33
162
269
152
349
271
7
36
361
346
165
37
357
209
188
85
111
160
291
224
106
28
186
197
76
331
321
38
334
262
149
20
80
128
274
372
130
264
324
112
245
124
232
293
329
127
170
222
71
145
206
339
272
97
171
240
77
19
336
137
116
322
51
279
118
327
328
181
172
59
277
96
26
126
24
8
221
306
215
133
345
10
32
21
64
366
252
109
176
61
2
258
323
343
67
50
261
174
166
86
288
105
69
187
267
253
360
370
185
298
317
280
195
200
53
287
52
31
136
179
48
341
16
351
223
70
350
364
163
132
353
312
135
18
234
91
103
203
342
79
164
12
140
17
123
13
294
34
47
84
29
35
5
301
139
157
158
72
281
238
114
371
207
296
115
82
235
307
6
297
161
290
210
201
236
198
168
98
173
330
347
251
178
153
182
44
226
191
155
318
205
22
289
311
352
325
260
254
138
213
150
148
309
39
369
337
30
266
58
75
302
60
63
332
81
159
208
326
362
285
257
237
3
92
319
117
146
42
368
156
315
305
147
134
119
196
250
120
83
211
229
15
125
265
11
41
244
354
4
284
46
335
225
270
131
49
193
242
304
300
88
25
68
316
57
299
151
320
367
89
62
230
313
194
129
94
167
247
45
122
78
55
338
214
228
169
90
308
218
180
93
102
204
356
259

> <PUBCHEM_MMFF94_PARTIAL_CHARGES>
37
1 -0.56
10 0.28
11 0.28
12 0.28
13 0.28
14 0.56
16 0.28
17 0.34
18 -0.15
2 -0.56
20 0.4
21 0.42
23 -0.15
24 -0.14
25 -0.15
26 0.16
27 -0.15
28 0.14
29 -0.15
3 -0.68
30 -0.15
4 -0.68
41 0.4
42 0.4
43 0.4
45 0.27
46 0.15
47 0.15
48 0.15
49 0.4
5 -0.68
53 0.15
54 0.15
6 -0.68
7 -0.57
8 0.03
9 -0.62

> <PUBCHEM_EFFECTIVE_ROTOR_COUNT>
6.2

> <PUBCHEM_PHARMACOPHORE_FEATURES>
18
1 1 acceptor
1 2 acceptor
1 3 acceptor
1 3 donor
1 4 acceptor
1 4 donor
1 5 acceptor
1 5 donor
1 6 acceptor
1 6 donor
1 7 acceptor
1 8 cation
1 8 donor
1 9 acceptor
5 8 18 19 22 23 rings
6 1 10 11 12 13 14 rings
6 22 23 25 27 29 30 rings
6 9 18 19 20 24 26 rings

> <PUBCHEM_HEAVY_ATOM_COUNT>
30

> <PUBCHEM_ATOM_DEF_STEREO_COUNT>
5

> <PUBCHEM_ATOM_UDEF_STEREO_COUNT>
1

> <PUBCHEM_BOND_DEF_STEREO_COUNT>
0

> <PUBCHEM_BOND_UDEF_STEREO_COUNT>
0

> <PUBCHEM_ISOTOPIC_ATOM_COUNT>
0

> <PUBCHEM_COMPONENT_COUNT>
1

> <PUBCHEM_CACTVS_TAUTO_COUNT>
17

> <PUBCHEM_CONFORMER_ID>
009E7EF400000001

> <PUBCHEM_MMFF94_ENERGY>
71.742

> <PUBCHEM_FEATURE_SELFOVERLAP>
91.605

> <PUBCHEM_SHAPE_FINGERPRINT>
10165383 225 17828792567321884887
10498660 4 18262238820504663103
11221954 11 18413102866338171826
11578080 2 18266202650296515622
11595378 159 17677881512997676386
12107698 1 17772746078945970245
12156800 1 17406050339705167169
12633257 1 18263347114897493458
128993 33 18049720720272868301
13402501 40 18341047535621486384
13965767 371 17459740432939133007
14279260 333 17915752977277241798
14468879 13 18271241720017508547
17921350 177 17409930224081832684
20465049 17 17623025494887687881
20600515 1 17678169597776373687
21859007 373 18129938005693562040
23419403 2 17985576487746071966
23536364 44 17625579746572788302
23557571 272 18263373653437501290
238 59 17775284980391332902
3052486 1 17749399216492790194
35225 105 17756665918926411090
46194498 28 17703515397953881743
469060 322 17313956345648421051
57527585 21 18129367349692968989
5895379 119 18116166634875696828
6287921 2 18343026622440041644
7399639 24 18126580130466171922

> <PUBCHEM_SHAPE_MULTIPOLES>
566.34
8.27
4.29
2.3
1.33
0.21
0.7
-6.03
-0.11
-1.42
-1.06
0.75
0.7
2.85

> <PUBCHEM_SHAPE_SELFOVERLAP>
1235.365

> <PUBCHEM_SHAPE_VOLUME>
306.6

> <PUBCHEM_COORDINATE_TYPE>
2
5
10

$$$$
