10389765
  -OEChem-03292013303D

 59 60  0     1  0  0  0  0  0999 V2000
   -0.1141   -0.7587   -0.2983 S   0  0  0  0  0  0  0  0  0  0  0  0
   -6.4432   -1.7743   -0.2717 O   0  0  0  0  0  0  0  0  0  0  0  0
   -0.5647    0.5428   -0.7639 O   0  0  0  0  0  0  0  0  0  0  0  0
   -0.1815   -1.9139   -1.1782 O   0  0  0  0  0  0  0  0  0  0  0  0
    3.8149    2.1468   -1.0650 O   0  0  0  0  0  0  0  0  0  0  0  0
    4.0339   -2.3921    0.5068 O   0  0  0  0  0  0  0  0  0  0  0  0
   -3.3526    3.6120    0.1231 O   0  0  0  0  0  0  0  0  0  0  0  0
    7.9057    0.3750    0.6041 O   0  0  0  0  0  0  0  0  0  0  0  0
   -4.5429    2.5089   -1.4589 O   0  0  0  0  0  0  0  0  0  0  0  0
   -5.4875    0.7480    0.4786 N   0  0  0  0  0  0  0  0  0  0  0  0
   -1.0211   -1.1469    1.1638 C   0  0  0  0  0  0  0  0  0  0  0  0
   -2.4548   -1.3067    0.7856 C   0  0  0  0  0  0  0  0  0  0  0  0
   -4.6501   -0.3545    0.4532 C   0  0  0  0  0  0  0  0  0  0  0  0
   -3.3093   -0.2045    0.8071 C   0  0  0  0  0  0  0  0  0  0  0  0
   -2.9410   -2.5590    0.4102 C   0  0  0  0  0  0  0  0  0  0  0  0
   -5.1365   -1.6068    0.0779 C   0  0  0  0  0  0  0  0  0  0  0  0
   -5.0541    2.0745    0.8564 C   0  0  2  0  0  0  0  0  0  0  0  0
   -4.2819   -2.7091    0.0565 C   0  0  0  0  0  0  0  0  0  0  0  0
    1.5064   -0.6051    0.2909 C   0  0  0  0  0  0  0  0  0  0  0  0
    3.8831   -0.1276   -0.2878 C   0  0  0  0  0  0  0  0  0  0  0  0
    2.4555   -0.3060   -0.6047 C   0  0  0  0  0  0  0  0  0  0  0  0
   -6.2480    2.9295    1.2463 C   0  0  0  0  0  0  0  0  0  0  0  0
    4.5040    1.0972   -0.5328 C   0  0  0  0  0  0  0  0  0  0  0  0
    4.6140   -1.1835    0.2568 C   0  0  0  0  0  0  0  0  0  0  0  0
   -4.2949    2.7237   -0.2779 C   0  0  0  0  0  0  0  0  0  0  0  0
    5.8558    1.2661   -0.2333 C   0  0  0  0  0  0  0  0  0  0  0  0
    5.9658   -1.0145    0.5566 C   0  0  0  0  0  0  0  0  0  0  0  0
    6.5867    0.2102    0.3113 C   0  0  0  0  0  0  0  0  0  0  0  0
   -6.7718   -1.6044   -1.6488 C   0  0  0  0  0  0  0  0  0  0  0  0
    3.1798    3.0348   -0.1483 C   0  0  0  0  0  0  0  0  0  0  0  0
    4.0671   -3.3550   -0.5439 C   0  0  0  0  0  0  0  0  0  0  0  0
    8.4773    1.6529    0.3282 C   0  0  0  0  0  0  0  0  0  0  0  0
   -0.8856   -0.3379    1.8890 H   0  0  0  0  0  0  0  0  0  0  0  0
   -0.6171   -2.0686    1.5949 H   0  0  0  0  0  0  0  0  0  0  0  0
   -2.8846    0.7498    1.1004 H   0  0  0  0  0  0  0  0  0  0  0  0
   -2.2865   -3.4263    0.3902 H   0  0  0  0  0  0  0  0  0  0  0  0
   -4.4092    2.0298    1.7420 H   0  0  0  0  0  0  0  0  0  0  0  0
   -6.4447    0.6201    0.1688 H   0  0  0  0  0  0  0  0  0  0  0  0
   -4.6538   -3.6879   -0.2340 H   0  0  0  0  0  0  0  0  0  0  0  0
    1.7178   -0.7503    1.3439 H   0  0  0  0  0  0  0  0  0  0  0  0
    2.2016   -0.1468   -1.6504 H   0  0  0  0  0  0  0  0  0  0  0  0
   -5.9309    3.9331    1.5499 H   0  0  0  0  0  0  0  0  0  0  0  0
   -6.7991    2.4781    2.0784 H   0  0  0  0  0  0  0  0  0  0  0  0
   -6.9458    3.0449    0.4088 H   0  0  0  0  0  0  0  0  0  0  0  0
    6.2834    2.2402   -0.4473 H   0  0  0  0  0  0  0  0  0  0  0  0
    6.5368   -1.8361    0.9820 H   0  0  0  0  0  0  0  0  0  0  0  0
   -6.4905   -0.6058   -1.9977 H   0  0  0  0  0  0  0  0  0  0  0  0
   -6.2738   -2.3670   -2.2560 H   0  0  0  0  0  0  0  0  0  0  0  0
   -7.8533   -1.7212   -1.7596 H   0  0  0  0  0  0  0  0  0  0  0  0
   -2.8984    4.0327   -0.6378 H   0  0  0  0  0  0  0  0  0  0  0  0
    2.4661    2.5012    0.4868 H   0  0  0  0  0  0  0  0  0  0  0  0
    3.9268    3.5401    0.4722 H   0  0  0  0  0  0  0  0  0  0  0  0
    2.6368    3.7895   -0.7238 H   0  0  0  0  0  0  0  0  0  0  0  0
    3.5781   -2.9703   -1.4444 H   0  0  0  0  0  0  0  0  0  0  0  0
    5.1004   -3.6366   -0.7705 H   0  0  0  0  0  0  0  0  0  0  0  0
    3.5284   -4.2455   -0.2087 H   0  0  0  0  0  0  0  0  0  0  0  0
    9.5310    1.6056    0.6221 H   0  0  0  0  0  0  0  0  0  0  0  0
    8.0126    2.4404    0.9312 H   0  0  0  0  0  0  0  0  0  0  0  0
    8.4546    1.8813   -0.7428 H   0  0  0  0  0  0  0  0  0  0  0  0
  1  3  2  0  0  0  0
  1  4  2  0  0  0  0
  1 11  1  0  0  0  0
  1 19  1  0  0  0  0
  2 16  1  0  0  0  0
  2 29  1  0  0  0  0
  5 23  1  0  0  0  0
  5 30  1  0  0  0  0
  6 24  1  0  0  0  0
  6 31  1  0  0  0  0
  7 25  1  0  0  0  0
  7 50  1  0  0  0  0
  8 28  1  0  0  0  0
  8 32  1  0  0  0  0
  9 25  2  0  0  0  0
 10 13  1  0  0  0  0
 10 17  1  0  0  0  0
 10 38  1  0  0  0  0
 11 12  1  0  0  0  0
 11 33  1  0  0  0  0
 11 34  1  0  0  0  0
 12 14  2  0  0  0  0
 12 15  1  0  0  0  0
 13 14  1  0  0  0  0
 13 16  2  0  0  0  0
 14 35  1  0  0  0  0
 15 18  2  0  0  0  0
 15 36  1  0  0  0  0
 16 18  1  0  0  0  0
 17 22  1  0  0  0  0
 17 25  1  0  0  0  0
 17 37  1  0  0  0  0
 18 39  1  0  0  0  0
 19 21  2  0  0  0  0
 19 40  1  0  0  0  0
 20 21  1  0  0  0  0
 20 23  2  0  0  0  0
 20 24  1  0  0  0  0
 21 41  1  0  0  0  0
 22 42  1  0  0  0  0
 22 43  1  0  0  0  0
 22 44  1  0  0  0  0
 23 26  1  0  0  0  0
 24 27  2  0  0  0  0
 26 28  2  0  0  0  0
 26 45  1  0  0  0  0
 27 28  1  0  0  0  0
 27 46  1  0  0  0  0
 29 47  1  0  0  0  0
 29 48  1  0  0  0  0
 29 49  1  0  0  0  0
 30 51  1  0  0  0  0
 30 52  1  0  0  0  0
 30 53  1  0  0  0  0
 31 54  1  0  0  0  0
 31 55  1  0  0  0  0
 31 56  1  0  0  0  0
 32 57  1  0  0  0  0
 32 58  1  0  0  0  0
 32 59  1  0  0  0  0
M  END
> <PUBCHEM_COMPOUND_CID>
10389765

> <PUBCHEM_CONFORMER_RMSD>
1

> <PUBCHEM_CONFORMER_DIVERSEORDER>
1
69
21
36
88
68
92
59
33
84
65
74
87
91
30
83
81
90
80
26
31
46
82
77
18
24
50
72
85
76
47
39
89
28
79
54
56
66
35
61
19
41
42
27
62
78
40
43
23
67
14
51
38
5
45
55
53
37
86
29
20
52
49
32
17
75
63
12
34
44
70
4
60
22
9
48
73
15
2
16
58
57
8
11
64
10
3
13
25
7
71
6

> <PUBCHEM_MMFF94_PARTIAL_CHARGES>
40
1 1.21
10 -0.87
11 0.25
12 -0.14
13 0.1
14 -0.15
15 -0.15
16 0.08
17 0.43
18 -0.15
19 -0.17
2 -0.36
20 0.03
21 -0.18
23 0.08
24 0.08
25 0.66
26 -0.15
27 -0.15
28 0.08
29 0.28
3 -0.65
30 0.28
31 0.28
32 0.28
35 0.15
36 0.15
38 0.4
39 0.15
4 -0.65
40 0.15
41 0.15
45 0.15
46 0.15
5 -0.36
50 0.5
6 -0.36
7 -0.65
8 -0.36
9 -0.57

> <PUBCHEM_EFFECTIVE_ROTOR_COUNT>
11

> <PUBCHEM_PHARMACOPHORE_FEATURES>
13
1 10 cation
1 10 donor
1 2 acceptor
1 3 acceptor
1 4 acceptor
1 5 acceptor
1 6 acceptor
1 7 acceptor
1 8 acceptor
1 9 acceptor
3 7 9 25 anion
6 12 13 14 15 16 18 rings
6 20 23 24 26 27 28 rings

> <PUBCHEM_HEAVY_ATOM_COUNT>
32

> <PUBCHEM_ATOM_DEF_STEREO_COUNT>
0

> <PUBCHEM_ATOM_UDEF_STEREO_COUNT>
1

> <PUBCHEM_BOND_DEF_STEREO_COUNT>
1

> <PUBCHEM_BOND_UDEF_STEREO_COUNT>
0

> <PUBCHEM_ISOTOPIC_ATOM_COUNT>
0

> <PUBCHEM_COMPONENT_COUNT>
1

> <PUBCHEM_CACTVS_TAUTO_COUNT>
1

> <PUBCHEM_CONFORMER_ID>
009E890500000001

> <PUBCHEM_MMFF94_ENERGY>
129.5786

> <PUBCHEM_FEATURE_SELFOVERLAP>
66.055

> <PUBCHEM_SHAPE_FINGERPRINT>
100830 39 18408039593849530028
10087517 78 18408323285466793077
10595046 47 18337955687534057995
10670039 82 18335414686529760241
11101153 10 18338799030854858029
11315181 36 18187928430073333923
12107183 9 18047470028402958034
13785724 45 17835242247345872490
13911987 19 16773796974505304003
14118638 360 18412825780770980675
15021287 119 16877948238994851940
15183329 4 18260545636579389802
15289351 153 18410849993795623184
15419008 145 18261662723989236488
15461852 350 17561083652511633326
15604295 49 18128813222372942280
1577012 14 18412265008323390850
16126227 98 18128545873664721257
17844677 252 18408892836220510887
20511986 3 18343013385498463410
21033648 29 18130489913248577032
21130935 74 18408039616089505018
21236236 1 18410011031578263397
21298829 104 18410296908838521376
21315763 129 18337393841576674512
23522609 53 17677918836559410820
23569943 247 16516507907884571082
24771293 8 18261114093414289652
32027 91 17699304165277884206
4073 2 18114188574855876442
4144715 1 18335713710474089706
4197921 191 18187652430884409749
5104073 3 18187370899973066851
6700243 42 17626426585248024167
99344 41 18412263922071243610
999808 66 12103560936029122839

> <PUBCHEM_SHAPE_MULTIPOLES>
610.46
22.2
3.93
1.08
16.2
1.58
-0.16
5.93
1.1
-3.83
-0.2
-1.09
0.06
-1.17

> <PUBCHEM_SHAPE_SELFOVERLAP>
1267.797

> <PUBCHEM_SHAPE_VOLUME>
351.2

> <PUBCHEM_COORDINATE_TYPE>
2
5
10

$$$$
