10385446
  -OEChem-03292013303D

 46 48  0     1  0  0  0  0  0999 V2000
   -0.8943   -0.6656    1.5626 O   0  0  0  0  0  0  0  0  0  0  0  0
    0.8152   -2.8958    2.0690 O   0  0  0  0  0  0  0  0  0  0  0  0
   -0.9710    3.5385    0.7291 O   0  0  0  0  0  0  0  0  0  0  0  0
    1.1953    2.9990    1.1895 O   0  0  0  0  0  0  0  0  0  0  0  0
   -4.0798   -0.9333   -2.5141 O   0  0  0  0  0  0  0  0  0  0  0  0
   -6.3554    0.1537   -1.3465 O   0  0  0  0  0  0  0  0  0  0  0  0
    6.7818    1.6223   -1.6708 O   0  0  0  0  0  0  0  0  0  0  0  0
    6.9874   -0.6439   -1.5067 O   0  0  0  0  0  0  0  0  0  0  0  0
   -0.2981    1.3375    0.2758 C   0  0  2  0  0  0  0  0  0  0  0  0
   -1.3446    0.6691    1.1972 C   0  0  1  0  0  0  0  0  0  0  0  0
    0.8124    0.3600    0.3920 C   0  0  0  0  0  0  0  0  0  0  0  0
    0.3994   -0.7417    1.1221 C   0  0  0  0  0  0  0  0  0  0  0  0
   -2.6689    0.5309    0.5218 C   0  0  0  0  0  0  0  0  0  0  0  0
    2.0912    0.4153   -0.1381 C   0  0  0  0  0  0  0  0  0  0  0  0
    0.0854    2.6909    0.7813 C   0  0  0  0  0  0  0  0  0  0  0  0
    1.2327   -1.8198    1.3558 C   0  0  0  0  0  0  0  0  0  0  0  0
    2.9533   -0.6602    0.0909 C   0  0  0  0  0  0  0  0  0  0  0  0
   -2.7623   -0.1432   -0.6948 C   0  0  0  0  0  0  0  0  0  0  0  0
    2.5261   -1.7716    0.8339 C   0  0  0  0  0  0  0  0  0  0  0  0
   -3.8095    1.0769    1.1086 C   0  0  0  0  0  0  0  0  0  0  0  0
   -3.9994   -0.2718   -1.3261 C   0  0  0  0  0  0  0  0  0  0  0  0
   -5.0465    0.9485    0.4773 C   0  0  0  0  0  0  0  0  0  0  0  0
   -5.1415    0.2740   -0.7400 C   0  0  0  0  0  0  0  0  0  0  0  0
    4.3038   -0.6302   -0.4499 C   0  0  0  0  0  0  0  0  0  0  0  0
    0.2032   -3.9635    1.3433 C   0  0  0  0  0  0  0  0  0  0  0  0
    4.9640    0.4824   -0.8398 C   0  0  0  0  0  0  0  0  0  0  0  0
   -4.3204   -2.3381   -2.4590 C   0  0  0  0  0  0  0  0  0  0  0  0
    6.3405    0.3799   -1.3645 C   0  0  0  0  0  0  0  0  0  0  0  0
   -0.5963    1.4319   -0.7741 H   0  0  0  0  0  0  0  0  0  0  0  0
   -1.4520    1.2217    2.1407 H   0  0  0  0  0  0  0  0  0  0  0  0
    2.3712    1.2766   -0.7353 H   0  0  0  0  0  0  0  0  0  0  0  0
   -1.8829   -0.5827   -1.1592 H   0  0  0  0  0  0  0  0  0  0  0  0
    3.1999   -2.6081    1.0093 H   0  0  0  0  0  0  0  0  0  0  0  0
   -3.7513    1.6056    2.0562 H   0  0  0  0  0  0  0  0  0  0  0  0
   -5.9283    1.3784    0.9448 H   0  0  0  0  0  0  0  0  0  0  0  0
    4.7991   -1.5961   -0.5239 H   0  0  0  0  0  0  0  0  0  0  0  0
   -0.7399    4.4327    1.0593 H   0  0  0  0  0  0  0  0  0  0  0  0
    0.9072   -4.3864    0.6197 H   0  0  0  0  0  0  0  0  0  0  0  0
   -0.6981   -3.6119    0.8312 H   0  0  0  0  0  0  0  0  0  0  0  0
   -0.0795   -4.7434    2.0555 H   0  0  0  0  0  0  0  0  0  0  0  0
    4.5378    1.4766   -0.7683 H   0  0  0  0  0  0  0  0  0  0  0  0
   -7.0286    0.5902   -0.7968 H   0  0  0  0  0  0  0  0  0  0  0  0
   -5.2752   -2.5469   -1.9662 H   0  0  0  0  0  0  0  0  0  0  0  0
   -3.5064   -2.8458   -1.9318 H   0  0  0  0  0  0  0  0  0  0  0  0
   -4.3648   -2.7186   -3.4831 H   0  0  0  0  0  0  0  0  0  0  0  0
    7.6961    1.6102   -2.0259 H   0  0  0  0  0  0  0  0  0  0  0  0
  1 10  1  0  0  0  0
  1 12  1  0  0  0  0
  2 16  1  0  0  0  0
  2 25  1  0  0  0  0
  3 15  1  0  0  0  0
  3 37  1  0  0  0  0
  4 15  2  0  0  0  0
  5 21  1  0  0  0  0
  5 27  1  0  0  0  0
  6 23  1  0  0  0  0
  6 42  1  0  0  0  0
  7 28  1  0  0  0  0
  7 46  1  0  0  0  0
  8 28  2  0  0  0  0
  9 10  1  0  0  0  0
  9 11  1  0  0  0  0
  9 15  1  0  0  0  0
  9 29  1  0  0  0  0
 10 13  1  0  0  0  0
 10 30  1  0  0  0  0
 11 12  2  0  0  0  0
 11 14  1  0  0  0  0
 12 16  1  0  0  0  0
 13 18  2  0  0  0  0
 13 20  1  0  0  0  0
 14 17  2  0  0  0  0
 14 31  1  0  0  0  0
 16 19  2  0  0  0  0
 17 19  1  0  0  0  0
 17 24  1  0  0  0  0
 18 21  1  0  0  0  0
 18 32  1  0  0  0  0
 19 33  1  0  0  0  0
 20 22  2  0  0  0  0
 20 34  1  0  0  0  0
 21 23  2  0  0  0  0
 22 23  1  0  0  0  0
 22 35  1  0  0  0  0
 24 26  2  0  0  0  0
 24 36  1  0  0  0  0
 25 38  1  0  0  0  0
 25 39  1  0  0  0  0
 25 40  1  0  0  0  0
 26 28  1  0  0  0  0
 26 41  1  0  0  0  0
 27 43  1  0  0  0  0
 27 44  1  0  0  0  0
 27 45  1  0  0  0  0
M  END
> <PUBCHEM_COMPOUND_CID>
10385446

> <PUBCHEM_CONFORMER_RMSD>
0.8

> <PUBCHEM_CONFORMER_DIVERSEORDER>
1
5
10
6
12
3
8
9
7
4
11
2

> <PUBCHEM_MMFF94_PARTIAL_CHARGES>
38
1 -0.36
10 0.42
11 -0.14
12 0.08
13 -0.14
14 -0.15
15 0.66
16 0.08
17 0.03
18 -0.15
19 -0.15
2 -0.36
20 -0.15
21 0.08
22 -0.15
23 0.08
24 -0.18
25 0.28
26 -0.14
27 0.28
28 0.71
3 -0.65
31 0.15
32 0.15
33 0.15
34 0.15
35 0.15
36 0.15
37 0.5
4 -0.57
41 0.15
42 0.45
46 0.5
5 -0.36
6 -0.53
7 -0.65
8 -0.57
9 0.2

> <PUBCHEM_EFFECTIVE_ROTOR_COUNT>
6.6

> <PUBCHEM_PHARMACOPHORE_FEATURES>
13
1 1 acceptor
1 2 acceptor
1 3 acceptor
1 4 acceptor
1 5 acceptor
1 6 donor
1 7 acceptor
1 8 acceptor
3 3 4 15 anion
3 7 8 28 anion
5 1 9 10 11 12 rings
6 11 12 14 16 17 19 rings
6 13 18 20 21 22 23 rings

> <PUBCHEM_HEAVY_ATOM_COUNT>
28

> <PUBCHEM_ATOM_DEF_STEREO_COUNT>
2

> <PUBCHEM_ATOM_UDEF_STEREO_COUNT>
0

> <PUBCHEM_BOND_DEF_STEREO_COUNT>
1

> <PUBCHEM_BOND_UDEF_STEREO_COUNT>
0

> <PUBCHEM_ISOTOPIC_ATOM_COUNT>
0

> <PUBCHEM_COMPONENT_COUNT>
1

> <PUBCHEM_CACTVS_TAUTO_COUNT>
3

> <PUBCHEM_CONFORMER_ID>
009E782600000001

> <PUBCHEM_MMFF94_ENERGY>
100.0374

> <PUBCHEM_FEATURE_SELFOVERLAP>
66.189

> <PUBCHEM_SHAPE_FINGERPRINT>
10090160 65 18114184094887773722
105312 117 17240486926750859094
11445158 3 17100356398879133313
117089 54 17557414694323001087
11720765 8 15364122853335695187
11991303 11 17169007689131236394
12293681 160 18408045104571736984
12553582 1 18269255908097936587
12788726 201 18199187287091341585
12969540 114 18040716987141163474
13257819 101 16008743610938979294
13383661 66 15983992599576627614
13540713 5 17975414612145220008
13583140 156 15936991720379012368
13690498 29 18342450491785416079
13911987 19 18186810179239118018
14739800 52 13768191814043250997
14767858 380 18408606959261018108
15537594 2 18341326717745141179
17492 54 18408602560866386346
17909252 39 17054697129646047407
18681886 176 17560791156785964809
19319366 153 18187641371296766971
20775438 99 17697854206251961526
21267235 1 17917993906433729061
21304303 64 17603877688721233493
22182313 1 18047753990054489200
22393880 68 18341598344166540117
23379529 103 17486481883046386831
23559900 14 16702006604768908025
25147074 1 18120094983705171112
2838139 119 15719388477684292870
465052 167 12535339129769330769
484989 97 18044672011743884642
53917941 68 17896321484041386650
59755656 520 17967542280942632418
6009941 240 14907632129372296858
9981440 41 11169911650589197957

> <PUBCHEM_SHAPE_MULTIPOLES>
529.27
13.58
3.16
2.02
10.64
0.79
0.76
-1.55
12.11
0.17
-1.67
-0.83
1.12
-2.55

> <PUBCHEM_SHAPE_SELFOVERLAP>
1154.71

> <PUBCHEM_SHAPE_VOLUME>
288.9

> <PUBCHEM_COORDINATE_TYPE>
2
5
10

$$$$
