10380064
  -OEChem-03292013303D

 40 40  0     0  0  0  0  0  0999 V2000
    0.6151   -2.2109    1.0275 S   0  0  0  0  0  0  0  0  0  0  0  0
    2.7640   -0.0720   -0.6248 O   0  0  0  0  0  0  0  0  0  0  0  0
   -4.2730    2.2888   -0.9922 O   0  5  0  0  0  0  0  0  0  0  0  0
   -5.8591    0.8224   -1.4220 O   0  0  0  0  0  0  0  0  0  0  0  0
   -2.3145   -1.0668    0.6849 N   0  0  0  0  0  0  0  0  0  0  0  0
    4.1998    2.4820    0.6710 N   0  0  0  0  0  0  0  0  0  0  0  0
   -3.5266    0.9105    1.3565 N   0  0  0  0  0  0  0  0  0  0  0  0
   -4.7017    1.1303   -1.1002 N   0  3  0  0  0  0  0  0  0  0  0  0
    2.7643   -1.4220   -0.4702 C   0  0  0  0  0  0  0  0  0  0  0  0
    1.4309   -2.1036   -0.5811 C   0  0  0  0  0  0  0  0  0  0  0  0
   -0.9018   -3.0618    0.4940 C   0  0  0  0  0  0  0  0  0  0  0  0
   -1.8794   -2.1218   -0.2004 C   0  0  0  0  0  0  0  0  0  0  0  0
    4.0535    0.3351   -0.4887 C   0  0  0  0  0  0  0  0  0  0  0  0
    4.2968    1.7785   -0.6194 C   0  0  0  0  0  0  0  0  0  0  0  0
    4.0397   -1.8813   -0.2370 C   0  0  0  0  0  0  0  0  0  0  0  0
    4.8769   -0.7403   -0.2490 C   0  0  0  0  0  0  0  0  0  0  0  0
   -3.2117   -0.0412    0.3799 C   0  0  0  0  0  0  0  0  0  0  0  0
    4.4573    3.8989    0.4941 C   0  0  0  0  0  0  0  0  0  0  0  0
   -3.7950    0.0714   -0.8332 C   0  0  0  0  0  0  0  0  0  0  0  0
   -3.0356    1.0039    2.7106 C   0  0  0  0  0  0  0  0  0  0  0  0
    1.5770   -3.1120   -0.9823 H   0  0  0  0  0  0  0  0  0  0  0  0
    0.8071   -1.5442   -1.2847 H   0  0  0  0  0  0  0  0  0  0  0  0
   -1.3690   -3.4840    1.3908 H   0  0  0  0  0  0  0  0  0  0  0  0
   -0.6415   -3.9009   -0.1592 H   0  0  0  0  0  0  0  0  0  0  0  0
   -2.7510   -2.7099   -0.5125 H   0  0  0  0  0  0  0  0  0  0  0  0
   -1.4369   -1.7000   -1.1093 H   0  0  0  0  0  0  0  0  0  0  0  0
    5.2977    1.9295   -1.0425 H   0  0  0  0  0  0  0  0  0  0  0  0
    3.5788    2.2053   -1.3311 H   0  0  0  0  0  0  0  0  0  0  0  0
    4.3318   -2.9094   -0.0778 H   0  0  0  0  0  0  0  0  0  0  0  0
    5.9469   -0.7087   -0.1009 H   0  0  0  0  0  0  0  0  0  0  0  0
   -1.9333   -1.0460    1.6251 H   0  0  0  0  0  0  0  0  0  0  0  0
    3.2608    2.3583    1.0500 H   0  0  0  0  0  0  0  0  0  0  0  0
   -4.1883    1.6338    1.0940 H   0  0  0  0  0  0  0  0  0  0  0  0
    5.4668    4.0758    0.1089 H   0  0  0  0  0  0  0  0  0  0  0  0
    4.3835    4.4068    1.4608 H   0  0  0  0  0  0  0  0  0  0  0  0
    3.7307    4.3613   -0.1823 H   0  0  0  0  0  0  0  0  0  0  0  0
   -3.7008   -0.6040   -1.6716 H   0  0  0  0  0  0  0  0  0  0  0  0
   -3.3001    0.1086    3.2813 H   0  0  0  0  0  0  0  0  0  0  0  0
   -3.4813    1.8694    3.2101 H   0  0  0  0  0  0  0  0  0  0  0  0
   -1.9485    1.1280    2.7209 H   0  0  0  0  0  0  0  0  0  0  0  0
  1 10  1  0  0  0  0
  1 11  1  0  0  0  0
  2  9  1  0  0  0  0
  2 13  1  0  0  0  0
  3  8  1  0  0  0  0
  4  8  2  0  0  0  0
  5 12  1  0  0  0  0
  5 17  1  0  0  0  0
  5 31  1  0  0  0  0
  6 14  1  0  0  0  0
  6 18  1  0  0  0  0
  6 32  1  0  0  0  0
  7 17  1  0  0  0  0
  7 20  1  0  0  0  0
  7 33  1  0  0  0  0
  8 19  1  0  0  0  0
  9 10  1  0  0  0  0
  9 15  2  0  0  0  0
 10 21  1  0  0  0  0
 10 22  1  0  0  0  0
 11 12  1  0  0  0  0
 11 23  1  0  0  0  0
 11 24  1  0  0  0  0
 12 25  1  0  0  0  0
 12 26  1  0  0  0  0
 13 14  1  0  0  0  0
 13 16  2  0  0  0  0
 14 27  1  0  0  0  0
 14 28  1  0  0  0  0
 15 16  1  0  0  0  0
 15 29  1  0  0  0  0
 16 30  1  0  0  0  0
 17 19  2  0  0  0  0
 18 34  1  0  0  0  0
 18 35  1  0  0  0  0
 18 36  1  0  0  0  0
 19 37  1  0  0  0  0
 20 38  1  0  0  0  0
 20 39  1  0  0  0  0
 20 40  1  0  0  0  0
M  CHG  2   3  -1   8   1
M  END
> <PUBCHEM_COMPOUND_CID>
10380064

> <PUBCHEM_CONFORMER_RMSD>
1

> <PUBCHEM_CONFORMER_DIVERSEORDER>
1
12
7
62
18
88
43
73
28
77
4
23
15
67
26
79
85
75
47
24
93
32
8
27
80
55
33
19
30
50
81
95
66
9
87
37
51
60
25
97
6
91
89
68
39
59
38
41
49
17
54
84
22
35
78
31
74
92
52
29
96
71
3
57
20
61
44
46
83
48
14
53
40
10
82
76
94
70
34
65
86
42
45
21
36
58
64
16
11
72
13
90
2
63
69
56
5

> <PUBCHEM_MMFF94_PARTIAL_CHARGES>
26
1 -0.46
10 0.41
11 0.23
12 0.37
13 -0.04
14 0.45
15 -0.15
16 -0.15
17 0.2
18 0.27
19 0.05
2 -0.28
20 0.37
29 0.15
3 -0.52
30 0.15
31 0.4
32 0.36
33 0.4
37 0.15
4 -0.52
5 -0.87
6 -0.9
7 -0.87
8 0.84
9 -0.04

> <PUBCHEM_EFFECTIVE_ROTOR_COUNT>
10

> <PUBCHEM_PHARMACOPHORE_FEATURES>
11
1 2 acceptor
1 3 acceptor
1 3 anion
1 4 acceptor
1 5 cation
1 5 donor
1 6 cation
1 6 donor
1 7 cation
1 7 donor
5 2 9 13 15 16 rings

> <PUBCHEM_HEAVY_ATOM_COUNT>
20

> <PUBCHEM_ATOM_DEF_STEREO_COUNT>
0

> <PUBCHEM_ATOM_UDEF_STEREO_COUNT>
0

> <PUBCHEM_BOND_DEF_STEREO_COUNT>
1

> <PUBCHEM_BOND_UDEF_STEREO_COUNT>
0

> <PUBCHEM_ISOTOPIC_ATOM_COUNT>
0

> <PUBCHEM_COMPONENT_COUNT>
1

> <PUBCHEM_CACTVS_TAUTO_COUNT>
2

> <PUBCHEM_CONFORMER_ID>
009E632000000001

> <PUBCHEM_MMFF94_ENERGY>
37.7176

> <PUBCHEM_FEATURE_SELFOVERLAP>
55.959

> <PUBCHEM_SHAPE_FINGERPRINT>
11089746 13 18261947466797833766
14123255 52 18260547788411330575
14251764 38 18271813483744728264
14848178 96 18341053012248094760
15003188 100 18409445869157782231
15342816 4 13254802309159006766
17834072 32 18407760330622442063
17868525 174 18334570210513759738
20398071 114 18267017443709630736
20621476 13 18411135861811889628
21033648 29 17821732749315514340
21095088 737 18341612654955229347
21315763 76 18340481184391472810
21388113 180 18335134310574592892
23559900 14 18343590625319962938
2838139 119 18336256865002105431
6328613 192 18113912576378459126

> <PUBCHEM_SHAPE_MULTIPOLES>
377.91
13.08
3.9
1.49
3
1.72
-0.82
10.04
3.25
-3.79
-0.59
2.35
0.68
1.22

> <PUBCHEM_SHAPE_SELFOVERLAP>
735.781

> <PUBCHEM_SHAPE_VOLUME>
230.3

> <PUBCHEM_COORDINATE_TYPE>
2
5
10

$$$$
