10389724
  -OEChem-03292013303D

 77 81  0     1  0  0  0  0  0999 V2000
   -3.8012   -1.1828   -1.0483 O   0  0  0  0  0  0  0  0  0  0  0  0
    1.1253    0.2453   -3.3215 O   0  0  0  0  0  0  0  0  0  0  0  0
   -0.9862   -1.6159   -0.6839 O   0  0  0  0  0  0  0  0  0  0  0  0
    3.5178   -1.2832   -2.8982 O   0  0  0  0  0  0  0  0  0  0  0  0
    5.7697    0.7458    2.0778 O   0  0  0  0  0  0  0  0  0  0  0  0
    5.0821   -2.6620    1.0368 O   0  0  0  0  0  0  0  0  0  0  0  0
   -1.1206    1.9336   -0.0972 C   0  0  1  0  0  0  0  0  0  0  0  0
   -0.5999    0.7628   -0.9778 C   0  0  1  0  0  0  0  0  0  0  0  0
   -2.4458    1.4185    0.5417 C   0  0  2  0  0  0  0  0  0  0  0  0
    0.9429    0.6901   -0.9641 C   0  0  1  0  0  0  0  0  0  0  0  0
    1.4746    0.3433    0.4541 C   0  0  1  0  0  0  0  0  0  0  0  0
   -2.3388   -0.1224    0.6260 C   0  0  1  0  0  0  0  0  0  0  0  0
    3.0483    0.3595    0.5181 C   0  0  2  0  0  0  0  0  0  0  0  0
   -0.0836    2.3232    1.0008 C   0  0  0  0  0  0  0  0  0  0  0  0
   -3.7911    1.6600   -0.1747 C   0  0  1  0  0  0  0  0  0  0  0  0
   -3.7322   -0.6917    0.2925 C   0  0  1  0  0  0  0  0  0  0  0  0
   -1.2687   -0.4617   -0.3804 C   0  0  0  0  0  0  0  0  0  0  0  0
    0.7552    1.1702    1.5472 C   0  0  0  0  0  0  0  0  0  0  0  0
    3.5663   -0.6317   -0.5748 C   0  0  1  0  0  0  0  0  0  0  0  0
    1.5313   -0.2382   -2.0392 C   0  0  2  0  0  0  0  0  0  0  0  0
   -4.6603    0.5178    0.3700 C   0  0  0  0  0  0  0  0  0  0  0  0
    3.0660   -0.2771   -1.9872 C   0  0  2  0  0  0  0  0  0  0  0  0
   -1.3209    3.1881   -0.9693 C   0  0  0  0  0  0  0  0  0  0  0  0
    3.5346   -0.1698    1.9058 C   0  0  0  0  0  0  0  0  0  0  0  0
    5.0973   -0.8147   -0.5205 C   0  0  0  0  0  0  0  0  0  0  0  0
    3.5743    1.7997    0.2973 C   0  0  0  0  0  0  0  0  0  0  0  0
   -4.1572   -1.8106    1.2350 C   0  0  0  0  0  0  0  0  0  0  0  0
    5.0385   -0.4732    2.0055 C   0  0  1  0  0  0  0  0  0  0  0  0
   -4.4413    3.0057    0.1272 C   0  0  0  0  0  0  0  0  0  0  0  0
    5.5545   -1.3278    0.8489 C   0  0  1  0  0  0  0  0  0  0  0  0
   -5.5983   -2.2951    1.0025 C   0  0  0  0  0  0  0  0  0  0  0  0
   -6.6213   -1.1656    1.1310 C   0  0  0  0  0  0  0  0  0  0  0  0
   -5.7112   -2.9401   -0.3810 C   0  0  0  0  0  0  0  0  0  0  0  0
   -0.9889    0.8623   -1.9984 H   0  0  0  0  0  0  0  0  0  0  0  0
   -2.5434    1.8122    1.5631 H   0  0  0  0  0  0  0  0  0  0  0  0
    1.2753    1.7011   -1.2326 H   0  0  0  0  0  0  0  0  0  0  0  0
    1.1937   -0.7021    0.6540 H   0  0  0  0  0  0  0  0  0  0  0  0
   -1.9911   -0.4079    1.6245 H   0  0  0  0  0  0  0  0  0  0  0  0
   -0.5875    2.8319    1.8323 H   0  0  0  0  0  0  0  0  0  0  0  0
    0.6193    3.0664    0.5992 H   0  0  0  0  0  0  0  0  0  0  0  0
   -3.6787    1.5431   -1.2600 H   0  0  0  0  0  0  0  0  0  0  0  0
    1.4587    1.5808    2.2768 H   0  0  0  0  0  0  0  0  0  0  0  0
    0.1061    0.5017    2.1251 H   0  0  0  0  0  0  0  0  0  0  0  0
    3.1444   -1.6239   -0.3486 H   0  0  0  0  0  0  0  0  0  0  0  0
    1.1376   -1.2555   -1.9504 H   0  0  0  0  0  0  0  0  0  0  0  0
   -4.9403    0.7720    1.3967 H   0  0  0  0  0  0  0  0  0  0  0  0
   -5.5117    0.4816   -0.3082 H   0  0  0  0  0  0  0  0  0  0  0  0
    3.4828    0.6754   -2.3344 H   0  0  0  0  0  0  0  0  0  0  0  0
   -0.3818    3.4879   -1.4496 H   0  0  0  0  0  0  0  0  0  0  0  0
   -2.0412    3.0231   -1.7762 H   0  0  0  0  0  0  0  0  0  0  0  0
   -1.6590    4.0369   -0.3662 H   0  0  0  0  0  0  0  0  0  0  0  0
    2.9900   -1.0955    2.1358 H   0  0  0  0  0  0  0  0  0  0  0  0
    3.2759    0.5479    2.6924 H   0  0  0  0  0  0  0  0  0  0  0  0
    5.4063   -1.5538   -1.2688 H   0  0  0  0  0  0  0  0  0  0  0  0
    5.6091    0.1213   -0.7679 H   0  0  0  0  0  0  0  0  0  0  0  0
    3.2726    2.4613    1.1161 H   0  0  0  0  0  0  0  0  0  0  0  0
    4.6636    1.8461    0.2362 H   0  0  0  0  0  0  0  0  0  0  0  0
    3.2078    2.2466   -0.6298 H   0  0  0  0  0  0  0  0  0  0  0  0
   -3.4751   -2.6643    1.1277 H   0  0  0  0  0  0  0  0  0  0  0  0
   -4.0693   -1.4710    2.2755 H   0  0  0  0  0  0  0  0  0  0  0  0
    5.2154   -0.9992    2.9518 H   0  0  0  0  0  0  0  0  0  0  0  0
   -3.8830    3.8362   -0.3088 H   0  0  0  0  0  0  0  0  0  0  0  0
   -5.4541    3.0430   -0.2888 H   0  0  0  0  0  0  0  0  0  0  0  0
   -4.5169    3.1823    1.2056 H   0  0  0  0  0  0  0  0  0  0  0  0
    6.6502   -1.3596    0.8585 H   0  0  0  0  0  0  0  0  0  0  0  0
   -3.2052   -1.9477   -1.1202 H   0  0  0  0  0  0  0  0  0  0  0  0
    1.4846    1.1420   -3.4329 H   0  0  0  0  0  0  0  0  0  0  0  0
   -5.8125   -3.0577    1.7620 H   0  0  0  0  0  0  0  0  0  0  0  0
    4.4405   -1.0806   -3.1277 H   0  0  0  0  0  0  0  0  0  0  0  0
    5.4411    1.2431    2.8459 H   0  0  0  0  0  0  0  0  0  0  0  0
    5.4456   -2.9873    1.8780 H   0  0  0  0  0  0  0  0  0  0  0  0
   -6.8916   -0.6679    0.2001 H   0  0  0  0  0  0  0  0  0  0  0  0
   -6.4195   -0.4812    1.9574 H   0  0  0  0  0  0  0  0  0  0  0  0
   -7.5712   -1.6413    1.4194 H   0  0  0  0  0  0  0  0  0  0  0  0
   -5.8428   -2.2206   -1.1939 H   0  0  0  0  0  0  0  0  0  0  0  0
   -6.6084   -3.5712   -0.4038 H   0  0  0  0  0  0  0  0  0  0  0  0
   -4.8629   -3.5967   -0.5999 H   0  0  0  0  0  0  0  0  0  0  0  0
  1 16  1  0  0  0  0
  1 66  1  0  0  0  0
  2 20  1  0  0  0  0
  2 67  1  0  0  0  0
  3 17  2  0  0  0  0
  4 22  1  0  0  0  0
  4 69  1  0  0  0  0
  5 28  1  0  0  0  0
  5 70  1  0  0  0  0
  6 30  1  0  0  0  0
  6 71  1  0  0  0  0
  7  8  1  0  0  0  0
  7  9  1  0  0  0  0
  7 14  1  0  0  0  0
  7 23  1  0  0  0  0
  8 10  1  0  0  0  0
  8 17  1  0  0  0  0
  8 34  1  0  0  0  0
  9 12  1  0  0  0  0
  9 15  1  0  0  0  0
  9 35  1  0  0  0  0
 10 11  1  0  0  0  0
 10 20  1  0  0  0  0
 10 36  1  0  0  0  0
 11 13  1  0  0  0  0
 11 18  1  0  0  0  0
 11 37  1  0  0  0  0
 12 16  1  0  0  0  0
 12 17  1  0  0  0  0
 12 38  1  0  0  0  0
 13 19  1  0  0  0  0
 13 24  1  0  0  0  0
 13 26  1  0  0  0  0
 14 18  1  0  0  0  0
 14 39  1  0  0  0  0
 14 40  1  0  0  0  0
 15 21  1  0  0  0  0
 15 29  1  0  0  0  0
 15 41  1  0  0  0  0
 16 21  1  0  0  0  0
 16 27  1  0  0  0  0
 18 42  1  0  0  0  0
 18 43  1  0  0  0  0
 19 22  1  0  0  0  0
 19 25  1  0  0  0  0
 19 44  1  0  0  0  0
 20 22  1  0  0  0  0
 20 45  1  0  0  0  0
 21 46  1  0  0  0  0
 21 47  1  0  0  0  0
 22 48  1  0  0  0  0
 23 49  1  0  0  0  0
 23 50  1  0  0  0  0
 23 51  1  0  0  0  0
 24 28  1  0  0  0  0
 24 52  1  0  0  0  0
 24 53  1  0  0  0  0
 25 30  1  0  0  0  0
 25 54  1  0  0  0  0
 25 55  1  0  0  0  0
 26 56  1  0  0  0  0
 26 57  1  0  0  0  0
 26 58  1  0  0  0  0
 27 31  1  0  0  0  0
 27 59  1  0  0  0  0
 27 60  1  0  0  0  0
 28 30  1  0  0  0  0
 28 61  1  0  0  0  0
 29 62  1  0  0  0  0
 29 63  1  0  0  0  0
 29 64  1  0  0  0  0
 30 65  1  0  0  0  0
 31 32  1  0  0  0  0
 31 33  1  0  0  0  0
 31 68  1  0  0  0  0
 32 72  1  0  0  0  0
 32 73  1  0  0  0  0
 32 74  1  0  0  0  0
 33 75  1  0  0  0  0
 33 76  1  0  0  0  0
 33 77  1  0  0  0  0
M  END
> <PUBCHEM_COMPOUND_CID>
10389724

> <PUBCHEM_CONFORMER_RMSD>
0.8

> <PUBCHEM_CONFORMER_DIVERSEORDER>
2
1

> <PUBCHEM_MMFF94_PARTIAL_CHARGES>
19
1 -0.68
12 0.06
16 0.28
17 0.45
2 -0.68
20 0.28
22 0.28
28 0.28
3 -0.57
30 0.28
4 -0.68
5 -0.68
6 -0.68
66 0.4
67 0.4
69 0.4
70 0.4
71 0.4
8 0.06

> <PUBCHEM_EFFECTIVE_ROTOR_COUNT>
4.2

> <PUBCHEM_PHARMACOPHORE_FEATURES>
17
1 1 acceptor
1 1 donor
1 2 acceptor
1 2 donor
1 3 acceptor
1 4 acceptor
1 4 donor
1 5 acceptor
1 5 donor
1 6 acceptor
1 6 donor
3 31 32 33 hydrophobe
5 7 8 9 12 17 rings
5 9 12 15 16 21 rings
6 10 11 13 19 20 22 rings
6 13 19 24 25 28 30 rings
6 7 8 10 11 14 18 rings

> <PUBCHEM_HEAVY_ATOM_COUNT>
33

> <PUBCHEM_ATOM_DEF_STEREO_COUNT>
14

> <PUBCHEM_ATOM_UDEF_STEREO_COUNT>
0

> <PUBCHEM_BOND_DEF_STEREO_COUNT>
0

> <PUBCHEM_BOND_UDEF_STEREO_COUNT>
0

> <PUBCHEM_ISOTOPIC_ATOM_COUNT>
0

> <PUBCHEM_COMPONENT_COUNT>
1

> <PUBCHEM_CACTVS_TAUTO_COUNT>
3

> <PUBCHEM_CONFORMER_ID>
009E88DC00000002

> <PUBCHEM_MMFF94_ENERGY>
143.8685

> <PUBCHEM_FEATURE_SELFOVERLAP>
86.919

> <PUBCHEM_SHAPE_FINGERPRINT>
10319926 262 18342175510160842362
10622 236 17096348571431492610
11763715 3 17968670328206620276
11796584 16 18265053531364096626
12035758 1 17775564247301289899
12166972 35 17458063802477091151
12236239 1 17531253824429584885
12422481 6 17561075887331918868
12633257 1 17560801090670956131
13009979 54 17894356566309560501
13224815 77 17275097319679149116
13583140 156 18059000692689542598
13726171 33 18124065470069389636
13782708 43 18272933821215624663
14068700 675 17749104487410612412
14294032 229 17897172321790715517
14950920 106 16127831672631244599
15131766 46 15721684275549238245
15163728 17 10087653606282833173
15183329 4 15574703712821372015
15188451 53 18187637024773493411
17349148 13 17676494938276896171
1813 80 18338526338732853005
18222031 100 16587737638464802074
19315092 285 17096621294029972416
1979834 28 16916798399956282518
20600515 1 18339081493047014037
20775438 99 15648747161812610554
21033648 29 17703797990191807609
21756936 100 13542174043806149814
22122407 14 15267069086621465017
22182313 1 17917723357500573685
23559900 14 18057618576883295044
23569914 152 13699471177998637523
244849 19 17058950852830072725
25222932 49 18341885329549751458
2838139 119 11095891440526178291
3004659 81 17385443236794991346
3178227 256 16702027453257840766
3380486 145 17346308307033502325
3388396 114 16516272711106316524
3633792 109 16805317829648005847
3882209 13 17267762688170045359
3886686 26 17472415452740108882
392239 28 16702293547159884138
4340502 62 15482677904652872655
463206 1 17968940936879246659
474 4 14907881783479636544
50009960 94 17978771721867247531
5080951 261 18265027207847026597
5104073 3 18344144778420395888
57527293 21 17846210103001006910
59682541 52 14490738083681014227
7970288 3 18262235655146356755

> <PUBCHEM_SHAPE_MULTIPOLES>
643.91
13.99
2.88
2.12
2.76
0.62
1.17
-9.47
-5.31
3.66
-0.22
-2.95
-0.3
0.35

> <PUBCHEM_SHAPE_SELFOVERLAP>
1379.219

> <PUBCHEM_SHAPE_VOLUME>
354.1

> <PUBCHEM_COORDINATE_TYPE>
2
5
10

$$$$
