10385816
  -OEChem-03292013303D

 44 46  0     1  0  0  0  0  0999 V2000
    4.0922    2.5611   -2.1760 Cl  0  0  0  0  0  0  0  0  0  0  0  0
    0.7932   -4.3052    1.4054 S   0  0  0  0  0  0  0  0  0  0  0  0
   -3.5741    0.2694   -1.9203 O   0  0  0  0  0  0  0  0  0  0  0  0
   -0.8553   -0.3920    1.9661 O   0  0  0  0  0  0  0  0  0  0  0  0
   -0.0804    1.8690    3.1485 O   0  0  0  0  0  0  0  0  0  0  0  0
   -0.1188   -2.1588    0.0053 N   0  0  0  0  0  0  0  0  0  0  0  0
    2.2044   -2.2805    0.4957 N   0  0  0  0  0  0  0  0  0  0  0  0
    1.7580   -0.3719   -0.8276 N   0  0  0  0  0  0  0  0  0  0  0  0
   -2.5788   -1.5368    0.0371 C   0  0  2  0  0  0  0  0  0  0  0  0
   -1.4863   -2.5565    0.0078 C   0  0  1  0  0  0  0  0  0  0  0  0
   -2.3560   -2.3495   -1.1973 C   0  0  0  0  0  0  0  0  0  0  0  0
   -2.2183   -0.0860    0.0269 C   0  0  0  0  0  0  0  0  0  0  0  0
   -1.3638    0.4290    1.0017 C   0  0  0  0  0  0  0  0  0  0  0  0
   -2.7376    0.7530   -0.9591 C   0  0  0  0  0  0  0  0  0  0  0  0
    0.9411   -2.8267    0.6089 C   0  0  0  0  0  0  0  0  0  0  0  0
   -1.0286    1.7829    0.9906 C   0  0  0  0  0  0  0  0  0  0  0  0
   -2.4024    2.1070   -0.9701 C   0  0  0  0  0  0  0  0  0  0  0  0
   -1.5480    2.6220    0.0046 C   0  0  0  0  0  0  0  0  0  0  0  0
   -0.1381    2.3432    1.9977 C   0  0  0  0  0  0  0  0  0  0  0  0
   -4.9710    0.2933   -1.6348 C   0  0  0  0  0  0  0  0  0  0  0  0
    2.6591   -1.1056   -0.1521 C   0  0  0  0  0  0  0  0  0  0  0  0
    0.7495    3.5344    1.6586 C   0  0  0  0  0  0  0  0  0  0  0  0
    4.0001   -0.8099   -0.0361 C   0  0  0  0  0  0  0  0  0  0  0  0
    4.4565    0.3407   -0.6696 C   0  0  0  0  0  0  0  0  0  0  0  0
    2.2384    0.7391   -1.4301 C   0  0  0  0  0  0  0  0  0  0  0  0
    3.5651    1.1355   -1.3819 C   0  0  0  0  0  0  0  0  0  0  0  0
   -3.4547   -1.7988    0.6266 H   0  0  0  0  0  0  0  0  0  0  0  0
   -1.6989   -3.4569    0.5745 H   0  0  0  0  0  0  0  0  0  0  0  0
   -1.8999   -1.9007   -2.0720 H   0  0  0  0  0  0  0  0  0  0  0  0
   -3.0828   -3.1188   -1.4322 H   0  0  0  0  0  0  0  0  0  0  0  0
    0.1043   -1.3174   -0.5166 H   0  0  0  0  0  0  0  0  0  0  0  0
   -2.8049    2.7668   -1.7341 H   0  0  0  0  0  0  0  0  0  0  0  0
   -1.3165    3.6830   -0.0226 H   0  0  0  0  0  0  0  0  0  0  0  0
   -0.1834    0.0679    2.4932 H   0  0  0  0  0  0  0  0  0  0  0  0
    2.9344   -2.8146    0.9627 H   0  0  0  0  0  0  0  0  0  0  0  0
   -5.1952   -0.2809   -0.7305 H   0  0  0  0  0  0  0  0  0  0  0  0
   -5.3189    1.3246   -1.5194 H   0  0  0  0  0  0  0  0  0  0  0  0
   -5.5000   -0.1616   -2.4768 H   0  0  0  0  0  0  0  0  0  0  0  0
    0.2112    4.4631    1.8618 H   0  0  0  0  0  0  0  0  0  0  0  0
    1.0671    3.4973    0.6129 H   0  0  0  0  0  0  0  0  0  0  0  0
    1.6522    3.4928    2.2758 H   0  0  0  0  0  0  0  0  0  0  0  0
    4.6895   -1.4347    0.5214 H   0  0  0  0  0  0  0  0  0  0  0  0
    5.5079    0.6062   -0.6002 H   0  0  0  0  0  0  0  0  0  0  0  0
    1.4927    1.3168   -1.9680 H   0  0  0  0  0  0  0  0  0  0  0  0
  1 26  1  0  0  0  0
  2 15  2  0  0  0  0
  3 14  1  0  0  0  0
  3 20  1  0  0  0  0
  4 13  1  0  0  0  0
  4 34  1  0  0  0  0
  5 19  2  0  0  0  0
  6 10  1  0  0  0  0
  6 15  1  0  0  0  0
  6 31  1  0  0  0  0
  7 15  1  0  0  0  0
  7 21  1  0  0  0  0
  7 35  1  0  0  0  0
  8 21  2  0  0  0  0
  8 25  1  0  0  0  0
  9 10  1  0  0  0  0
  9 11  1  0  0  0  0
  9 12  1  0  0  0  0
  9 27  1  0  0  0  0
 10 11  1  0  0  0  0
 10 28  1  0  0  0  0
 11 29  1  0  0  0  0
 11 30  1  0  0  0  0
 12 13  1  0  0  0  0
 12 14  2  0  0  0  0
 13 16  2  0  0  0  0
 14 17  1  0  0  0  0
 16 18  1  0  0  0  0
 16 19  1  0  0  0  0
 17 18  2  0  0  0  0
 17 32  1  0  0  0  0
 18 33  1  0  0  0  0
 19 22  1  0  0  0  0
 20 36  1  0  0  0  0
 20 37  1  0  0  0  0
 20 38  1  0  0  0  0
 21 23  1  0  0  0  0
 22 39  1  0  0  0  0
 22 40  1  0  0  0  0
 22 41  1  0  0  0  0
 23 24  2  0  0  0  0
 23 42  1  0  0  0  0
 24 26  1  0  0  0  0
 24 43  1  0  0  0  0
 25 26  2  0  0  0  0
 25 44  1  0  0  0  0
M  END
> <PUBCHEM_COMPOUND_CID>
10385816

> <PUBCHEM_CONFORMER_RMSD>
0.8

> <PUBCHEM_CONFORMER_DIVERSEORDER>
1
31
26
60
58
39
17
29
35
54
37
14
45
38
59
21
32
57
7
41
30
9
28
27
12
5
48
55
20
25
50
13
56
4
44
19
8
33
49
3
40
23
15
42
16
24
43
53
22
52
11
6
36
46
10
18
34
47
51
2

> <PUBCHEM_MMFF94_PARTIAL_CHARGES>
38
1 -0.18
10 0.05
11 -0.2
12 -0.03
13 0.08
14 0.08
15 0.5
16 0.09
17 -0.15
18 -0.15
19 0.42
2 -0.38
20 0.28
21 0.43
22 0.06
23 -0.15
24 -0.15
25 0.16
26 0.18
27 0.1
28 0.1
29 0.1
3 -0.36
30 0.1
31 0.37
32 0.15
33 0.15
34 0.45
35 0.37
4 -0.53
42 0.15
43 0.15
44 0.15
5 -0.57
6 -0.58
7 -0.55
8 -0.62
9 -0.07

> <PUBCHEM_EFFECTIVE_ROTOR_COUNT>
7.6

> <PUBCHEM_PHARMACOPHORE_FEATURES>
9
1 2 acceptor
1 3 acceptor
1 4 donor
1 5 acceptor
1 6 donor
1 7 donor
3 7 8 21 cation
6 12 13 14 16 17 18 rings
6 8 21 23 24 25 26 rings

> <PUBCHEM_HEAVY_ATOM_COUNT>
26

> <PUBCHEM_ATOM_DEF_STEREO_COUNT>
2

> <PUBCHEM_ATOM_UDEF_STEREO_COUNT>
0

> <PUBCHEM_BOND_DEF_STEREO_COUNT>
0

> <PUBCHEM_BOND_UDEF_STEREO_COUNT>
0

> <PUBCHEM_ISOTOPIC_ATOM_COUNT>
0

> <PUBCHEM_COMPONENT_COUNT>
1

> <PUBCHEM_CACTVS_TAUTO_COUNT>
45

> <PUBCHEM_CONFORMER_ID>
009E799800000001

> <PUBCHEM_MMFF94_ENERGY>
89.1378

> <PUBCHEM_FEATURE_SELFOVERLAP>
45.712

> <PUBCHEM_SHAPE_FINGERPRINT>
10708813 3 17833268619372143734
11370993 70 18187077369186283606
11582403 64 16515947229562218101
11640471 11 17839470985743988600
12166972 35 18191006929397475746
12539773 59 18057598768072249629
12553582 1 18059872691315210440
12788726 201 17845382042002209649
13009979 54 17621864406071507939
13149001 5 18058159721034559259
13402501 40 17479172420112999608
13617811 41 18189314897547156229
13965767 371 14669771115333809931
14468879 13 17458352965171292853
14931854 50 18340763763048250132
14932702 115 17760386769428575428
15420108 30 15965392805123445754
17492 54 18412254026598215999
192875 21 18261948536407720348
19930381 70 17969215651418619125
20691752 17 17832408066877121771
20715895 44 18044642106355880253
20775438 99 17195119007004834351
21141583 151 18199198445769414374
2132832 1 17833245546412561219
22182313 1 17979050998167978535
22749437 52 18337675209406017278
23419403 2 17770782622030538535
23559900 14 18341327877491637388
3493558 16 17470457231490668365
469060 322 16597066131353898914
6992083 37 17042040165898887426
9981440 41 18114178666059895130

> <PUBCHEM_SHAPE_MULTIPOLES>
508.24
7.06
4.61
2.22
2.84
2.6
-0.97
-2.07
5.83
0.87
-2.01
-0.18
-1.7
-1.17

> <PUBCHEM_SHAPE_SELFOVERLAP>
1068.273

> <PUBCHEM_SHAPE_VOLUME>
289.7

> <PUBCHEM_COORDINATE_TYPE>
2
5
10

$$$$
