10400331
  -OEChem-03292013303D

 26 25  0     1  0  0  0  0  0999 V2000
    3.4125    0.5608    0.2302 P   0  0  0  0  0  0  0  0  0  0  0  0
   -1.0183   -2.6137    0.7121 O   0  0  0  0  0  0  0  0  0  0  0  0
    0.5340   -2.0762   -1.5763 O   0  0  0  0  0  0  0  0  0  0  0  0
    2.1295   -0.0650   -0.5964 O   0  0  0  0  0  0  0  0  0  0  0  0
   -3.2178   -1.0312    1.3035 O   0  0  0  0  0  0  0  0  0  0  0  0
   -3.3371    0.6622   -1.0714 O   0  0  0  0  0  0  0  0  0  0  0  0
   -2.4897    3.1139   -0.3339 O   0  0  0  0  0  0  0  0  0  0  0  0
    4.4255    0.8678   -0.8688 O   0  5  0  0  0  0  0  0  0  0  0  0
    3.8454   -0.5535    1.1785 O   0  5  0  0  0  0  0  0  0  0  0  0
    2.8592    1.8004    0.9270 O   0  0  0  0  0  0  0  0  0  0  0  0
   -2.0655    1.9646    0.3459 N   0  0  0  0  0  0  0  0  0  0  0  0
   -1.3364   -1.4988   -0.1170 C   0  0  2  0  0  0  0  0  0  0  0  0
   -0.0663   -1.0108   -0.8396 C   0  0  1  0  0  0  0  0  0  0  0  0
   -2.0883   -0.4260    0.6902 C   0  0  1  0  0  0  0  0  0  0  0  0
    0.9777   -0.4691    0.1374 C   0  0  0  0  0  0  0  0  0  0  0  0
   -2.5642    0.7748   -0.1214 C   0  0  0  0  0  0  0  0  0  0  0  0
   -2.0235   -1.8996   -0.8739 H   0  0  0  0  0  0  0  0  0  0  0  0
   -0.3153   -0.2299   -1.5671 H   0  0  0  0  0  0  0  0  0  0  0  0
   -1.4520   -0.0969    1.5193 H   0  0  0  0  0  0  0  0  0  0  0  0
    1.2845   -1.2465    0.8447 H   0  0  0  0  0  0  0  0  0  0  0  0
    0.5983    0.3925    0.6921 H   0  0  0  0  0  0  0  0  0  0  0  0
   -0.5596   -3.2692    0.1593 H   0  0  0  0  0  0  0  0  0  0  0  0
   -0.1328   -2.4113   -2.1996 H   0  0  0  0  0  0  0  0  0  0  0  0
   -3.5971   -0.3849    1.9235 H   0  0  0  0  0  0  0  0  0  0  0  0
   -1.3725    2.0863    1.0756 H   0  0  0  0  0  0  0  0  0  0  0  0
   -1.6701    3.6363   -0.3211 H   0  0  0  0  0  0  0  0  0  0  0  0
  1  4  1  0  0  0  0
  1  8  1  0  0  0  0
  1  9  1  0  0  0  0
  1 10  2  0  0  0  0
  2 12  1  0  0  0  0
  2 22  1  0  0  0  0
  3 13  1  0  0  0  0
  3 23  1  0  0  0  0
  4 15  1  0  0  0  0
  5 14  1  0  0  0  0
  5 24  1  0  0  0  0
  6 16  2  0  0  0  0
  7 11  1  0  0  0  0
  7 26  1  0  0  0  0
 11 16  1  0  0  0  0
 11 25  1  0  0  0  0
 12 13  1  0  0  0  0
 12 14  1  0  0  0  0
 12 17  1  0  0  0  0
 13 15  1  0  0  0  0
 13 18  1  0  0  0  0
 14 16  1  0  0  0  0
 14 19  1  0  0  0  0
 15 20  1  0  0  0  0
 15 21  1  0  0  0  0
M  CHG  2   8  -1   9  -1
M  END
> <PUBCHEM_COMPOUND_CID>
10400331

> <PUBCHEM_CONFORMER_RMSD>
0.8

> <PUBCHEM_CONFORMER_DIVERSEORDER>
6
14
71
3
48
20
41
42
72
77
13
66
55
37
51
21
19
30
33
31
47
74
76
38
58
11
69
5
63
24
36
60
12
2
46
17
78
75
22
28
68
23
44
65
45
8
57
43
15
50
59
26
34
54
27
56
35
32
62
39
1
70
73
52
53
16
7
18
64
40
4
67
25
61
10
49
29
9

> <PUBCHEM_MMFF94_PARTIAL_CHARGES>
21
1 1.37
10 -1.03
11 -0.39
12 0.28
13 0.28
14 0.34
15 0.28
16 0.57
2 -0.68
22 0.4
23 0.4
24 0.4
25 0.37
26 0.4
3 -0.68
4 -0.55
5 -0.68
6 -0.57
7 -0.44
8 -1.03
9 -1.03

> <PUBCHEM_EFFECTIVE_ROTOR_COUNT>
7

> <PUBCHEM_PHARMACOPHORE_FEATURES>
12
1 10 acceptor
1 11 donor
1 2 acceptor
1 2 donor
1 3 acceptor
1 3 donor
1 5 acceptor
1 5 donor
1 6 acceptor
1 8 acceptor
1 9 acceptor
4 1 8 9 10 anion

> <PUBCHEM_HEAVY_ATOM_COUNT>
16

> <PUBCHEM_ATOM_DEF_STEREO_COUNT>
3

> <PUBCHEM_ATOM_UDEF_STEREO_COUNT>
0

> <PUBCHEM_BOND_DEF_STEREO_COUNT>
0

> <PUBCHEM_BOND_UDEF_STEREO_COUNT>
0

> <PUBCHEM_ISOTOPIC_ATOM_COUNT>
0

> <PUBCHEM_COMPONENT_COUNT>
1

> <PUBCHEM_CACTVS_TAUTO_COUNT>
3

> <PUBCHEM_CONFORMER_ID>
009EB24B00000006

> <PUBCHEM_MMFF94_ENERGY>
36.9241

> <PUBCHEM_FEATURE_SELFOVERLAP>
60.961

> <PUBCHEM_SHAPE_FINGERPRINT>
11615756 56 18272645749184874224
12077114 3 18409443665897418728
12932764 1 18269555099693423834
13296909 8 17168142351772529671
17834072 32 18409733924009143852
18186145 218 17346886650027860558
20281407 28 8214140759127258550
20605781 55 18266737983172626685
20645477 56 17916585479072289032
21524375 3 18341040818345278975
21652331 79 18265901439491814544
2306618 200 18202848764022542859
23402539 116 18411130377344296759
23557571 272 18338531819184995071
2748010 2 18194139429513981967
305870 269 18118400653028839003
351380 180 18341036450295031984
8050 44 18269274556487388901
81228 2 17340672399070584198
90316 7 18262809600072831811

> <PUBCHEM_SHAPE_MULTIPOLES>
275.32
6.92
2.55
1.16
5.84
0.84
-0.06
3.03
0.7
-1.84
-0.12
0.07
-0.35
0.64

> <PUBCHEM_SHAPE_SELFOVERLAP>
520.39

> <PUBCHEM_SHAPE_VOLUME>
170.3

> <PUBCHEM_COORDINATE_TYPE>
2
5
10

$$$$
