10409343
  -OEChem-03292013303D

 48 51  0     1  0  0  0  0  0999 V2000
   -1.0412    2.3079    0.5211 F   0  0  0  0  0  0  0  0  0  0  0  0
    5.3736    1.2025   -0.2827 O   0  0  0  0  0  0  0  0  0  0  0  0
    3.6980    2.5893    0.3597 O   0  0  0  0  0  0  0  0  0  0  0  0
    8.4887   -2.0815   -0.2307 O   0  0  0  0  0  0  0  0  0  0  0  0
    3.2657    0.4213   -0.4838 N   0  0  0  0  0  0  0  0  0  0  0  0
    7.2758   -0.5364    1.0218 N   0  0  0  0  0  0  0  0  0  0  0  0
   -4.3782   -0.6344    0.8511 N   0  0  0  0  0  0  0  0  0  0  0  0
   -7.1917   -0.3214    1.0953 N   0  0  0  0  0  0  0  0  0  0  0  0
   -7.3885   -0.6245   -1.0429 N   0  0  0  0  0  0  0  0  0  0  0  0
   -8.5021   -0.5086    0.8850 N   0  0  0  0  0  0  0  0  0  0  0  0
   -8.6166   -0.6930   -0.4246 N   0  0  0  0  0  0  0  0  0  0  0  0
    5.4944   -0.1893   -0.6081 C   0  0  2  0  0  0  0  0  0  0  0  0
    4.1081   -0.5894   -1.0652 C   0  0  0  0  0  0  0  0  0  0  0  0
    5.9595   -0.9450    0.6292 C   0  0  0  0  0  0  0  0  0  0  0  0
    1.8459    0.3169   -0.4503 C   0  0  0  0  0  0  0  0  0  0  0  0
    4.0450    1.5031   -0.0821 C   0  0  0  0  0  0  0  0  0  0  0  0
    1.0727    1.3797    0.0267 C   0  0  0  0  0  0  0  0  0  0  0  0
    1.2154   -0.8492   -0.8946 C   0  0  0  0  0  0  0  0  0  0  0  0
   -0.9420    0.1117   -0.3852 C   0  0  0  0  0  0  0  0  0  0  0  0
   -0.3179    1.2774    0.0591 C   0  0  0  0  0  0  0  0  0  0  0  0
   -0.1754   -0.9515   -0.8620 C   0  0  0  0  0  0  0  0  0  0  0  0
   -2.3847    0.0010   -0.3543 C   0  0  0  0  0  0  0  0  0  0  0  0
    8.4394   -1.1409    0.5576 C   0  0  0  0  0  0  0  0  0  0  0  0
   -3.1541    0.3982   -1.4400 C   0  0  0  0  0  0  0  0  0  0  0  0
   -3.0358   -0.5040    0.7574 C   0  0  0  0  0  0  0  0  0  0  0  0
    9.6851   -0.5005    1.1088 C   0  0  0  0  0  0  0  0  0  0  0  0
   -5.0963   -0.2382   -0.2236 C   0  0  0  0  0  0  0  0  0  0  0  0
   -4.5382    0.2794   -1.3814 C   0  0  0  0  0  0  0  0  0  0  0  0
   -6.5200   -0.3933   -0.0843 C   0  0  0  0  0  0  0  0  0  0  0  0
   -6.6847   -0.0870    2.4231 C   0  0  0  0  0  0  0  0  0  0  0  0
    6.2192   -0.3013   -1.4224 H   0  0  0  0  0  0  0  0  0  0  0  0
    4.0205   -0.5165   -2.1552 H   0  0  0  0  0  0  0  0  0  0  0  0
    3.8493   -1.6007   -0.7388 H   0  0  0  0  0  0  0  0  0  0  0  0
    5.9630   -2.0238    0.4399 H   0  0  0  0  0  0  0  0  0  0  0  0
    5.3041   -0.7445    1.4839 H   0  0  0  0  0  0  0  0  0  0  0  0
    7.3539    0.2499    1.6604 H   0  0  0  0  0  0  0  0  0  0  0  0
    1.4913    2.3098    0.3871 H   0  0  0  0  0  0  0  0  0  0  0  0
    1.7690   -1.6986   -1.2818 H   0  0  0  0  0  0  0  0  0  0  0  0
   -0.6464   -1.8664   -1.2140 H   0  0  0  0  0  0  0  0  0  0  0  0
   -2.6925    0.8021   -2.3376 H   0  0  0  0  0  0  0  0  0  0  0  0
   -2.4908   -0.8313    1.6381 H   0  0  0  0  0  0  0  0  0  0  0  0
   10.5424   -1.1577    0.9393 H   0  0  0  0  0  0  0  0  0  0  0  0
    9.8558    0.4541    0.6039 H   0  0  0  0  0  0  0  0  0  0  0  0
    9.5831   -0.3306    2.1844 H   0  0  0  0  0  0  0  0  0  0  0  0
   -5.1455    0.5899   -2.2255 H   0  0  0  0  0  0  0  0  0  0  0  0
   -6.0081    0.7705    2.4061 H   0  0  0  0  0  0  0  0  0  0  0  0
   -7.5222    0.1388    3.0897 H   0  0  0  0  0  0  0  0  0  0  0  0
   -6.1799   -0.9912    2.7707 H   0  0  0  0  0  0  0  0  0  0  0  0
  1 20  1  0  0  0  0
  2 12  1  0  0  0  0
  2 16  1  0  0  0  0
  3 16  2  0  0  0  0
  4 23  2  0  0  0  0
  5 13  1  0  0  0  0
  5 15  1  0  0  0  0
  5 16  1  0  0  0  0
  6 14  1  0  0  0  0
  6 23  1  0  0  0  0
  6 36  1  0  0  0  0
  7 25  1  0  0  0  0
  7 27  2  0  0  0  0
  8 10  1  0  0  0  0
  8 29  1  0  0  0  0
  8 30  1  0  0  0  0
  9 11  1  0  0  0  0
  9 29  2  0  0  0  0
 10 11  2  0  0  0  0
 12 13  1  0  0  0  0
 12 14  1  0  0  0  0
 12 31  1  0  0  0  0
 13 32  1  0  0  0  0
 13 33  1  0  0  0  0
 14 34  1  0  0  0  0
 14 35  1  0  0  0  0
 15 17  2  0  0  0  0
 15 18  1  0  0  0  0
 17 20  1  0  0  0  0
 17 37  1  0  0  0  0
 18 21  2  0  0  0  0
 18 38  1  0  0  0  0
 19 20  2  0  0  0  0
 19 21  1  0  0  0  0
 19 22  1  0  0  0  0
 21 39  1  0  0  0  0
 22 24  1  0  0  0  0
 22 25  2  0  0  0  0
 23 26  1  0  0  0  0
 24 28  2  0  0  0  0
 24 40  1  0  0  0  0
 25 41  1  0  0  0  0
 26 42  1  0  0  0  0
 26 43  1  0  0  0  0
 26 44  1  0  0  0  0
 27 28  1  0  0  0  0
 27 29  1  0  0  0  0
 28 45  1  0  0  0  0
 30 46  1  0  0  0  0
 30 47  1  0  0  0  0
 30 48  1  0  0  0  0
M  END
> <PUBCHEM_COMPOUND_CID>
10409343

> <PUBCHEM_CONFORMER_RMSD>
0.8

> <PUBCHEM_CONFORMER_DIVERSEORDER>
1
166
103
71
63
53
16
204
14
180
149
203
145
86
165
122
98
168
215
220
72
214
119
94
174
73
167
191
141
189
126
138
65
59
219
132
229
121
221
17
75
177
205
151
147
20
34
136
66
171
84
108
228
160
106
92
196
201
114
182
97
224
69
93
130
195
117
107
127
30
199
62
150
111
170
212
218
64
156
67
153
32
31
187
143
176
175
124
210
48
155
40
208
87
78
118
56
206
163
227
47
79
19
49
202
113
4
225
139
89
197
68
216
35
115
198
29
148
11
193
162
104
142
109
158
169
178
226
46
18
181
164
77
135
105
116
52
128
223
159
110
27
146
179
45
213
51
23
58
120
211
91
8
144
161
188
140
222
125
50
96
21
190
172
207
129
80
217
9
185
101
173
76
134
95
99
85
7
186
83
33
42
100
200
74
15
54
90
10
133
112
24
209
37
22
38
82
192
61
123
137
81
131
184
41
183
70
36
12
44
102
6
60
43
157
154
5
194
2
13
88
25
152
57
26
55
3
28
39

> <PUBCHEM_MMFF94_PARTIAL_CHARGES>
34
1 -0.19
10 -0.42
12 0.28
13 0.3
14 0.3
15 0.12
16 0.78
17 -0.15
18 -0.15
2 -0.43
20 0.19
21 -0.15
23 0.57
24 -0.15
25 0.16
26 0.06
27 0.36
28 -0.15
29 0.13
3 -0.57
30 0.26
36 0.37
37 0.15
38 0.15
39 0.15
4 -0.57
40 0.15
41 0.15
45 0.15
5 -0.48
6 -0.73
7 -0.62
8 0.31
9 -0.34

> <PUBCHEM_EFFECTIVE_ROTOR_COUNT>
6.8

> <PUBCHEM_PHARMACOPHORE_FEATURES>
9
1 3 acceptor
1 4 acceptor
1 6 donor
1 7 acceptor
3 8 9 29 cation
5 2 5 12 13 16 rings
5 8 9 10 11 29 rings
6 15 17 18 19 20 21 rings
6 7 22 24 25 27 28 rings

> <PUBCHEM_HEAVY_ATOM_COUNT>
30

> <PUBCHEM_ATOM_DEF_STEREO_COUNT>
1

> <PUBCHEM_ATOM_UDEF_STEREO_COUNT>
0

> <PUBCHEM_BOND_DEF_STEREO_COUNT>
0

> <PUBCHEM_BOND_UDEF_STEREO_COUNT>
0

> <PUBCHEM_ISOTOPIC_ATOM_COUNT>
0

> <PUBCHEM_COMPONENT_COUNT>
1

> <PUBCHEM_CACTVS_TAUTO_COUNT>
2

> <PUBCHEM_CONFORMER_ID>
009ED57F00000001

> <PUBCHEM_MMFF94_ENERGY>
77.2219

> <PUBCHEM_FEATURE_SELFOVERLAP>
45.672

> <PUBCHEM_SHAPE_FINGERPRINT>
10100884 174 17344047827592638511
106641 1 16774075185043099710
11135926 11 18059848446683995375
11315181 36 10519987076462854839
11456790 92 18131357418335893409
11578821 258 14261350262649457339
12236239 1 17132122355584439525
12741549 16 18409165507295831277
13540713 4 17629210303649576348
13673619 4 17966968318655920500
14118638 360 9511193944790645206
14150022 121 16702026331258560025
14251764 18 17918276467087839984
14251764 46 17167860859489271143
14344974 52 12540991707080690766
14849402 71 17702667812566786009
14856354 85 14707213249737526035
15131766 46 17389396119264041324
15247644 1 18186802491818546827
15461852 350 14345797145514393935
15510794 2 17167864192557842992
15849732 13 11455888074731124064
1754911 235 11386369244457395698
1818759 1 18335424547964796446
20105231 36 16371014014184685857
2026 5 17895468112731736250
21150785 3 12612753510414543170
21267235 1 18411700959834021364
21344244 246 16733256830355296746
21792934 111 18201994430381936456
21792961 116 18186793652484707125
22224240 67 16988843882097057606
23559900 14 17095811043410536228
23576562 1 8429728575528316563
246663 6 17821447950213568578
3178227 256 18411139139251523690
3383291 50 18409166606612027106
34797466 226 17023189361352898636
504579 68 12540698119562975722
5104073 3 17773040757121621034
58083652 198 18413108390183677217
59682541 35 18060414733921742522
6081469 158 17603865594277210150
636775 72 13542197052574482619
636775 8 13623824851934228617
9953998 17 15984816047389884910
9962374 69 18340197588006853654

> <PUBCHEM_SHAPE_MULTIPOLES>
557.64
28.87
1.51
1.33
12.28
0.7
0.35
-13.53
8.41
2.36
0.19
-1.74
-0.16
0.29

> <PUBCHEM_SHAPE_SELFOVERLAP>
1217.335

> <PUBCHEM_SHAPE_VOLUME>
306.8

> <PUBCHEM_COORDINATE_TYPE>
2
5
10

$$$$
