10402220
  -OEChem-03292013303D

 34 35  0     1  0  0  0  0  0999 V2000
    2.0725    0.0858    1.1080 O   0  0  0  0  0  0  0  0  0  0  0  0
    4.6884   -0.4436   -0.3916 O   0  0  0  0  0  0  0  0  0  0  0  0
    1.6998    2.8545    1.3309 O   0  0  0  0  0  0  0  0  0  0  0  0
    0.6343   -3.5356   -0.1669 O   0  0  0  0  0  0  0  0  0  0  0  0
   -3.6211   -1.8088   -0.0384 O   0  0  0  0  0  0  0  0  0  0  0  0
    0.3988   -1.2341    0.1431 N   0  0  0  0  0  0  0  0  0  0  0  0
   -1.4819   -2.6553   -0.0996 N   0  0  0  0  0  0  0  0  0  0  0  0
   -3.0191    1.5329   -0.7925 N   0  0  0  0  0  0  0  0  0  0  0  0
   -2.2084    2.4356   -1.0642 N   0  3  0  0  0  0  0  0  0  0  0  0
   -1.4764    3.2696   -1.3322 N   0  5  0  0  0  0  0  0  0  0  0  0
    3.5305    0.3083   -0.7482 C   0  0  1  0  0  0  0  0  0  0  0  0
    1.8120   -1.0020    0.2097 C   0  0  1  0  0  0  0  0  0  0  0  0
    2.4127   -0.6316   -1.1365 C   0  0  0  0  0  0  0  0  0  0  0  0
    2.9745    1.0167    0.4792 C   0  0  1  0  0  0  0  0  0  0  0  0
    2.1848    2.2721    0.1319 C   0  0  0  0  0  0  0  0  0  0  0  0
   -0.4835   -0.1677    0.2679 C   0  0  0  0  0  0  0  0  0  0  0  0
   -0.0887   -2.5439   -0.0490 C   0  0  0  0  0  0  0  0  0  0  0  0
   -1.8183   -0.2743    0.2200 C   0  0  0  0  0  0  0  0  0  0  0  0
   -2.4072   -1.6286    0.0186 C   0  0  0  0  0  0  0  0  0  0  0  0
   -2.6782    0.8730    0.3565 C   0  0  0  0  0  0  0  0  0  0  0  0
   -3.1258    1.2770    1.5532 C   0  0  0  0  0  0  0  0  0  0  0  0
    3.8177    0.9955   -1.5496 H   0  0  0  0  0  0  0  0  0  0  0  0
    2.3186   -1.8846    0.6180 H   0  0  0  0  0  0  0  0  0  0  0  0
    1.6839   -0.1001   -1.7605 H   0  0  0  0  0  0  0  0  0  0  0  0
    2.7433   -1.5183   -1.6866 H   0  0  0  0  0  0  0  0  0  0  0  0
    3.7536    1.2517    1.2129 H   0  0  0  0  0  0  0  0  0  0  0  0
    1.3404    2.0734   -0.5316 H   0  0  0  0  0  0  0  0  0  0  0  0
    2.8377    3.0019   -0.3586 H   0  0  0  0  0  0  0  0  0  0  0  0
    4.9776   -0.9259   -1.1850 H   0  0  0  0  0  0  0  0  0  0  0  0
   -0.0491    0.8082    0.4234 H   0  0  0  0  0  0  0  0  0  0  0  0
   -1.8558   -3.5900   -0.2379 H   0  0  0  0  0  0  0  0  0  0  0  0
    1.2088    3.6558    1.0815 H   0  0  0  0  0  0  0  0  0  0  0  0
   -3.7751    2.1420    1.6468 H   0  0  0  0  0  0  0  0  0  0  0  0
   -2.8586    0.7563    2.4676 H   0  0  0  0  0  0  0  0  0  0  0  0
  1 12  1  0  0  0  0
  1 14  1  0  0  0  0
  2 11  1  0  0  0  0
  2 29  1  0  0  0  0
  3 15  1  0  0  0  0
  3 32  1  0  0  0  0
  4 17  2  0  0  0  0
  5 19  2  0  0  0  0
  6 12  1  0  0  0  0
  6 16  1  0  0  0  0
  6 17  1  0  0  0  0
  7 17  1  0  0  0  0
  7 19  1  0  0  0  0
  7 31  1  0  0  0  0
  8  9  2  0  0  0  0
  8 20  1  0  0  0  0
  9 10  2  0  0  0  0
 11 13  1  0  0  0  0
 11 14  1  0  0  0  0
 11 22  1  0  0  0  0
 12 13  1  0  0  0  0
 12 23  1  0  0  0  0
 13 24  1  0  0  0  0
 13 25  1  0  0  0  0
 14 15  1  0  0  0  0
 14 26  1  0  0  0  0
 15 27  1  0  0  0  0
 15 28  1  0  0  0  0
 16 18  2  0  0  0  0
 16 30  1  0  0  0  0
 18 19  1  0  0  0  0
 18 20  1  0  0  0  0
 20 21  2  0  0  0  0
 21 33  1  0  0  0  0
 21 34  1  0  0  0  0
M  CHG  2   9   1  10  -1
M  END
> <PUBCHEM_COMPOUND_CID>
10402220

> <PUBCHEM_CONFORMER_RMSD>
0.8

> <PUBCHEM_CONFORMER_DIVERSEORDER>
1
27
49
51
53
35
9
41
14
34
33
23
48
39
24
52
55
57
20
21
36
10
28
2
22
40
15
38
32
56
17
4
45
54
12
13
6
42
29
31
47
18
37
46
5
8
3
50
11
19
25
30
26
16
7
43
44

> <PUBCHEM_MMFF94_PARTIAL_CHARGES>
26
1 -0.56
10 -0.37
11 0.28
12 0.58
14 0.28
15 0.28
16 -0.04
17 0.69
18 0.01
19 0.62
2 -0.68
20 0.17
21 -0.3
29 0.4
3 -0.68
30 0.15
31 0.37
32 0.4
33 0.15
34 0.15
4 -0.57
5 -0.57
6 -0.47
7 -0.49
8 -0.49
9 0.69

> <PUBCHEM_EFFECTIVE_ROTOR_COUNT>
5

> <PUBCHEM_PHARMACOPHORE_FEATURES>
10
1 1 acceptor
1 2 acceptor
1 2 donor
1 3 acceptor
1 3 donor
1 4 acceptor
1 5 acceptor
1 7 donor
5 1 11 12 13 14 rings
6 6 7 16 17 18 19 rings

> <PUBCHEM_HEAVY_ATOM_COUNT>
21

> <PUBCHEM_ATOM_DEF_STEREO_COUNT>
3

> <PUBCHEM_ATOM_UDEF_STEREO_COUNT>
0

> <PUBCHEM_BOND_DEF_STEREO_COUNT>
0

> <PUBCHEM_BOND_UDEF_STEREO_COUNT>
0

> <PUBCHEM_ISOTOPIC_ATOM_COUNT>
0

> <PUBCHEM_COMPONENT_COUNT>
1

> <PUBCHEM_CACTVS_TAUTO_COUNT>
3

> <PUBCHEM_CONFORMER_ID>
009EB9AC00000001

> <PUBCHEM_MMFF94_ENERGY>
57.3872

> <PUBCHEM_FEATURE_SELFOVERLAP>
50.753

> <PUBCHEM_SHAPE_FINGERPRINT>
10165383 225 18267603320135206969
10498660 4 18261107491379655773
10608611 8 18198905997061637130
10967382 1 18196094343670720754
11578080 2 14382604031883826171
11725454 13 16952790793465604621
12403259 226 18412263977721273494
12403260 363 18342170124388365270
12633257 1 18341616992566652592
13140716 1 18411422829756100385
14386348 128 18410582755485569912
14614273 12 18409727348819849799
16945 1 18267866081986446587
17802600 8 18339641247543792474
18186145 218 18272376343192508610
18219364 16 18339088090174224953
20233049 118 18335138636239175332
20510252 161 18199189670945792923
21524375 3 18409453574234503059
2334 1 18266458896071028169
23402539 116 18269831089596471335
23559900 14 18129381682362559242
238 59 17977353098368686325
25 1 18269564844578650946
2748010 2 18337669849096908161
350125 39 18340495567899194115
3524813 1 18336829697385461877
81228 2 18049441748961735835

> <PUBCHEM_SHAPE_MULTIPOLES>
377.92
6.35
3.7
1.1
2.34
0.03
-0.04
-1.34
0.21
-1.35
0.49
-0.18
-0.79
0.73

> <PUBCHEM_SHAPE_SELFOVERLAP>
799.164

> <PUBCHEM_SHAPE_VOLUME>
211.2

> <PUBCHEM_COORDINATE_TYPE>
2
5
10

$$$$
