104070
  -OEChem-03292013323D

 25 27  0     0  0  0  0  0  0999 V2000
   -3.4378   -0.1215    0.0697 S   0  0  0  0  0  0  0  0  0  0  0  0
    3.3216   -0.6574   -0.0224 O   0  0  0  0  0  0  0  0  0  0  0  0
   -3.7545    0.4913   -1.4095 O   0  0  0  0  0  0  0  0  0  0  0  0
   -4.1576   -1.3783    0.1786 O   0  0  0  0  0  0  0  0  0  0  0  0
   -3.6184    0.9333    1.0504 O   0  0  0  0  0  0  0  0  0  0  0  0
    2.6996   -2.8235   -0.0174 O   0  0  0  0  0  0  0  0  0  0  0  0
    3.9352    1.5110   -0.0318 O   0  0  0  0  0  0  0  0  0  0  0  0
    0.6345    0.1087    0.0127 C   0  0  0  0  0  0  0  0  0  0  0  0
   -0.7272    0.4969    0.0301 C   0  0  0  0  0  0  0  0  0  0  0  0
   -1.7210   -0.4934    0.0453 C   0  0  0  0  0  0  0  0  0  0  0  0
    0.9686   -1.2400    0.0101 C   0  0  0  0  0  0  0  0  0  0  0  0
    1.6294    1.0782   -0.0021 C   0  0  0  0  0  0  0  0  0  0  0  0
   -1.3728   -1.8434    0.0432 C   0  0  0  0  0  0  0  0  0  0  0  0
   -0.0312   -2.2193    0.0253 C   0  0  0  0  0  0  0  0  0  0  0  0
   -1.0496    1.8623    0.0313 C   0  0  0  0  0  0  0  0  0  0  0  0
    1.2962    2.4376   -0.0002 C   0  0  0  0  0  0  0  0  0  0  0  0
   -0.0419    2.8257    0.0163 C   0  0  0  0  0  0  0  0  0  0  0  0
    2.3840   -1.6392   -0.0102 C   0  0  0  0  0  0  0  0  0  0  0  0
    3.0425    0.6712   -0.0193 C   0  0  0  0  0  0  0  0  0  0  0  0
   -2.1159   -2.6349    0.0517 H   0  0  0  0  0  0  0  0  0  0  0  0
    0.2156   -3.2776    0.0227 H   0  0  0  0  0  0  0  0  0  0  0  0
   -2.0620    2.2441   -0.0047 H   0  0  0  0  0  0  0  0  0  0  0  0
    2.0633    3.2072   -0.0141 H   0  0  0  0  0  0  0  0  0  0  0  0
   -0.2997    3.8809    0.0066 H   0  0  0  0  0  0  0  0  0  0  0  0
   -3.5901   -0.1203   -2.1654 H   0  0  0  0  0  0  0  0  0  0  0  0
  1  3  1  0  0  0  0
  1  4  2  0  0  0  0
  1  5  2  0  0  0  0
  1 10  1  0  0  0  0
  2 18  1  0  0  0  0
  2 19  1  0  0  0  0
  3 25  1  0  0  0  0
  6 18  2  0  0  0  0
  7 19  2  0  0  0  0
  8  9  1  0  0  0  0
  8 11  2  0  0  0  0
  8 12  1  0  0  0  0
  9 10  2  0  0  0  0
  9 15  1  0  0  0  0
 10 13  1  0  0  0  0
 11 14  1  0  0  0  0
 11 18  1  0  0  0  0
 12 16  2  0  0  0  0
 12 19  1  0  0  0  0
 13 14  2  0  0  0  0
 13 20  1  0  0  0  0
 14 21  1  0  0  0  0
 15 17  2  0  0  0  0
 15 22  1  0  0  0  0
 16 17  1  0  0  0  0
 16 23  1  0  0  0  0
 17 24  1  0  0  0  0
M  END
> <PUBCHEM_COMPOUND_CID>
104070

> <PUBCHEM_CONFORMER_RMSD>
0.6

> <PUBCHEM_CONFORMER_DIVERSEORDER>
1

> <PUBCHEM_MMFF94_PARTIAL_CHARGES>
23
1 1.49
10 -0.01
11 0.09
12 0.09
13 -0.15
14 -0.15
15 -0.15
16 -0.15
17 -0.15
18 0.63
19 0.63
2 -0.3
20 0.15
21 0.15
22 0.15
23 0.15
24 0.15
25 0.5
3 -0.68
4 -0.65
5 -0.65
6 -0.57
7 -0.57

> <PUBCHEM_EFFECTIVE_ROTOR_COUNT>
1.2

> <PUBCHEM_PHARMACOPHORE_FEATURES>
9
1 3 acceptor
1 4 acceptor
1 5 acceptor
1 6 acceptor
1 7 acceptor
4 1 3 4 5 anion
6 2 8 11 12 18 19 rings
6 8 9 10 11 13 14 rings
6 8 9 12 15 16 17 rings

> <PUBCHEM_HEAVY_ATOM_COUNT>
19

> <PUBCHEM_ATOM_DEF_STEREO_COUNT>
0

> <PUBCHEM_ATOM_UDEF_STEREO_COUNT>
0

> <PUBCHEM_BOND_DEF_STEREO_COUNT>
0

> <PUBCHEM_BOND_UDEF_STEREO_COUNT>
0

> <PUBCHEM_ISOTOPIC_ATOM_COUNT>
0

> <PUBCHEM_COMPONENT_COUNT>
1

> <PUBCHEM_CACTVS_TAUTO_COUNT>
1

> <PUBCHEM_CONFORMER_ID>
0001968600000001

> <PUBCHEM_MMFF94_ENERGY>
61.5035

> <PUBCHEM_FEATURE_SELFOVERLAP>
45.809

> <PUBCHEM_SHAPE_FINGERPRINT>
10411042 1 18122345674958974554
10967382 1 18410856598500236578
10980938 120 18408886260746796082
11132069 177 18338228366681172328
11471102 20 18410288133634721047
11578080 2 17024859369655806870
116883 192 18053665772008604172
12553582 1 18339367370200672138
13132413 78 18342462542920588661
13140716 1 18123187076374068136
13380535 76 18337109085113327866
13897977 150 18338796822423743431
14178342 30 18125988602000030986
14790565 3 18193571183819223748
15196674 1 18410857663467490211
15442244 35 18340773628551081659
15536298 74 18343867710211797458
16945 1 18410855490388306572
18186145 218 18411705357068331055
193761 8 17906171750435909976
19591789 44 18121787397971526214
200 152 18129937996891974407
20588541 1 18336265742525237540
20645477 70 18338227185670804031
20739085 24 18121248422668294657
20905425 154 18341335479193263884
21267235 1 18411710893170704426
21501502 16 18268433425728529728
2334 1 17762056948986394416
23402539 116 18342730802272022974
23463225 33 18410577266506471835
23558518 356 18117849793577200104
23559900 14 18195236729402450874
238 59 17830689388420917805
25 1 18335978765537132831
2748010 2 18265890246759367060
335352 9 18050569534580397197
34934 24 18339634633357421182
350125 39 18194690272018016144
5104073 3 18410576184259175179
53812653 166 18269555095124130496
7364860 26 18268993253008481872
7832392 63 18341613762650915046

> <PUBCHEM_SHAPE_MULTIPOLES>
359.64
6.15
2.98
0.72
2.58
0.11
0.07
-0.52
0.13
-1.39
-0.05
0.48
0.1
0.01

> <PUBCHEM_SHAPE_SELFOVERLAP>
804.416

> <PUBCHEM_SHAPE_VOLUME>
191.2

> <PUBCHEM_COORDINATE_TYPE>
2
5
10

$$$$
