10407286
  -OEChem-03292013303D

 42 46  0     1  0  0  0  0  0999 V2000
   -0.7917    0.2885   -0.1713 O   0  0  0  0  0  0  0  0  0  0  0  0
    3.8123    0.9099    0.1287 O   0  0  0  0  0  0  0  0  0  0  0  0
   -1.5077    4.3194   -0.2018 O   0  0  0  0  0  0  0  0  0  0  0  0
    1.0072    4.7986    0.0808 O   0  0  0  0  0  0  0  0  0  0  0  0
    2.1738   -4.2891   -0.1691 O   0  0  0  0  0  0  0  0  0  0  0  0
    4.8871   -3.7855    0.0121 O   0  0  0  0  0  0  0  0  0  0  0  0
   -6.0406   -3.1354   -0.1593 O   0  0  0  0  0  0  0  0  0  0  0  0
   -2.0118    0.8097    0.3742 C   0  0  1  0  0  0  0  0  0  0  0  0
    0.2537    1.1734   -0.0728 C   0  0  0  0  0  0  0  0  0  0  0  0
    1.5676    0.6656   -0.0185 C   0  0  0  0  0  0  0  0  0  0  0  0
   -2.4056    2.1016   -0.3368 C   0  0  0  0  0  0  0  0  0  0  0  0
    0.0720    2.5684   -0.0513 C   0  0  0  0  0  0  0  0  0  0  0  0
   -1.2993    3.1120   -0.1758 C   0  0  0  0  0  0  0  0  0  0  0  0
    2.6216    1.5689    0.0814 C   0  0  0  0  0  0  0  0  0  0  0  0
    2.1663   -0.6313   -0.0309 C   0  0  0  0  0  0  0  0  0  0  0  0
   -3.0888   -0.2446    0.2315 C   0  0  0  0  0  0  0  0  0  0  0  0
    1.1601    3.4422    0.0512 C   0  0  0  0  0  0  0  0  0  0  0  0
    3.5386   -0.4217    0.0599 C   0  0  0  0  0  0  0  0  0  0  0  0
    2.4672    2.9533    0.1248 C   0  0  0  0  0  0  0  0  0  0  0  0
    1.6983   -1.9566   -0.1087 C   0  0  0  0  0  0  0  0  0  0  0  0
    4.4873   -1.4429    0.0779 C   0  0  0  0  0  0  0  0  0  0  0  0
   -3.6852   -0.7894    1.3680 C   0  0  0  0  0  0  0  0  0  0  0  0
   -3.4834   -0.6702   -1.0365 C   0  0  0  0  0  0  0  0  0  0  0  0
    2.6284   -3.0047   -0.0931 C   0  0  0  0  0  0  0  0  0  0  0  0
    3.9981   -2.7497   -0.0015 C   0  0  0  0  0  0  0  0  0  0  0  0
   -4.6773   -1.7611    1.2365 C   0  0  0  0  0  0  0  0  0  0  0  0
   -4.4756   -1.6418   -1.1682 C   0  0  0  0  0  0  0  0  0  0  0  0
   -5.0727   -2.1873   -0.0316 C   0  0  0  0  0  0  0  0  0  0  0  0
   -1.8465    1.0082    1.4436 H   0  0  0  0  0  0  0  0  0  0  0  0
   -2.5524    1.9639   -1.4139 H   0  0  0  0  0  0  0  0  0  0  0  0
   -3.3248    2.5106    0.0975 H   0  0  0  0  0  0  0  0  0  0  0  0
    3.3278    3.6083    0.2034 H   0  0  0  0  0  0  0  0  0  0  0  0
    0.6352   -2.1679   -0.1804 H   0  0  0  0  0  0  0  0  0  0  0  0
    5.5467   -1.2248    0.1501 H   0  0  0  0  0  0  0  0  0  0  0  0
   -3.3880   -0.4680    2.3626 H   0  0  0  0  0  0  0  0  0  0  0  0
   -3.0223   -0.2667   -1.9337 H   0  0  0  0  0  0  0  0  0  0  0  0
   -5.1385   -2.1824    2.1256 H   0  0  0  0  0  0  0  0  0  0  0  0
   -4.7726   -1.9673   -2.1616 H   0  0  0  0  0  0  0  0  0  0  0  0
    1.8792    5.2227    0.1541 H   0  0  0  0  0  0  0  0  0  0  0  0
    2.9411   -4.8870   -0.1461 H   0  0  0  0  0  0  0  0  0  0  0  0
    5.7892   -3.4280    0.0797 H   0  0  0  0  0  0  0  0  0  0  0  0
   -6.1881   -3.3096   -1.1048 H   0  0  0  0  0  0  0  0  0  0  0  0
  1  8  1  0  0  0  0
  1  9  1  0  0  0  0
  2 14  1  0  0  0  0
  2 18  1  0  0  0  0
  3 13  2  0  0  0  0
  4 17  1  0  0  0  0
  4 39  1  0  0  0  0
  5 24  1  0  0  0  0
  5 40  1  0  0  0  0
  6 25  1  0  0  0  0
  6 41  1  0  0  0  0
  7 28  1  0  0  0  0
  7 42  1  0  0  0  0
  8 11  1  0  0  0  0
  8 16  1  0  0  0  0
  8 29  1  0  0  0  0
  9 10  1  0  0  0  0
  9 12  2  0  0  0  0
 10 14  2  0  0  0  0
 10 15  1  0  0  0  0
 11 13  1  0  0  0  0
 11 30  1  0  0  0  0
 11 31  1  0  0  0  0
 12 13  1  0  0  0  0
 12 17  1  0  0  0  0
 14 19  1  0  0  0  0
 15 18  1  0  0  0  0
 15 20  2  0  0  0  0
 16 22  2  0  0  0  0
 16 23  1  0  0  0  0
 17 19  2  0  0  0  0
 18 21  2  0  0  0  0
 19 32  1  0  0  0  0
 20 24  1  0  0  0  0
 20 33  1  0  0  0  0
 21 25  1  0  0  0  0
 21 34  1  0  0  0  0
 22 26  1  0  0  0  0
 22 35  1  0  0  0  0
 23 27  2  0  0  0  0
 23 36  1  0  0  0  0
 24 25  2  0  0  0  0
 26 28  2  0  0  0  0
 26 37  1  0  0  0  0
 27 28  1  0  0  0  0
 27 38  1  0  0  0  0
M  END
> <PUBCHEM_COMPOUND_CID>
10407286

> <PUBCHEM_CONFORMER_RMSD>
0.6

> <PUBCHEM_CONFORMER_DIVERSEORDER>
1
4
2
3

> <PUBCHEM_MMFF94_PARTIAL_CHARGES>
37
1 -0.36
11 0.06
12 0.09
13 0.42
14 0.14
16 -0.14
17 0.08
18 0.14
19 -0.15
2 -0.28
20 -0.15
21 -0.15
22 -0.15
23 -0.15
24 0.08
25 0.08
26 -0.15
27 -0.15
28 0.08
3 -0.57
32 0.15
33 0.15
34 0.15
35 0.15
36 0.15
37 0.15
38 0.15
39 0.45
4 -0.53
40 0.45
41 0.45
42 0.45
5 -0.53
6 -0.53
7 -0.53
8 0.42
9 0.08

> <PUBCHEM_EFFECTIVE_ROTOR_COUNT>
1.6

> <PUBCHEM_PHARMACOPHORE_FEATURES>
12
1 1 acceptor
1 2 acceptor
1 3 acceptor
1 4 donor
1 5 donor
1 6 donor
1 7 donor
5 2 10 14 15 18 rings
6 1 8 9 11 12 13 rings
6 15 18 20 21 24 25 rings
6 16 22 23 26 27 28 rings
6 9 10 12 14 17 19 rings

> <PUBCHEM_HEAVY_ATOM_COUNT>
28

> <PUBCHEM_ATOM_DEF_STEREO_COUNT>
1

> <PUBCHEM_ATOM_UDEF_STEREO_COUNT>
0

> <PUBCHEM_BOND_DEF_STEREO_COUNT>
0

> <PUBCHEM_BOND_UDEF_STEREO_COUNT>
0

> <PUBCHEM_ISOTOPIC_ATOM_COUNT>
0

> <PUBCHEM_COMPONENT_COUNT>
1

> <PUBCHEM_CACTVS_TAUTO_COUNT>
152

> <PUBCHEM_CONFORMER_ID>
009ECD7600000001

> <PUBCHEM_MMFF94_ENERGY>
72.9298

> <PUBCHEM_FEATURE_SELFOVERLAP>
61.132

> <PUBCHEM_SHAPE_FINGERPRINT>
10254770 206 16531152062389357283
10411042 1 18410855430269684214
10622 236 17629179779692200095
10940486 97 17757568352259830492
11014199 57 18339082566835349122
11049842 53 14998770666069556675
11070050 100 17343767460194470896
114674 6 18261111940818243938
11552529 35 18058450902473764161
11578080 2 17559083554650620769
12107183 9 18270134422552788561
12553582 1 18410859883944496182
12788726 201 17830165814564089849
13140716 1 17908703182833366984
13533116 47 18127413578324435219
13544653 18 18335424573301583415
1361 2 18050566549847541483
13690498 29 18123490292733869758
13785724 45 18270698484491639703
138480 1 18410856606926744773
13911987 19 17756164614665782156
13989917 61 18121503724563430331
14429380 30 18336827498747607570
14767858 380 18262819453191851148
14790565 3 17544483410476352989
14844126 61 17831019022591981842
14863182 85 18119813774689891564
14866123 147 18122908629887312809
15042514 8 18122067498596008745
15320467 1 18266740379780981567
15352361 1 18410011009639657891
15927050 60 17547575237700712132
16628084 112 17325480009265453077
16719943 64 16464741538527816543
16728300 4 17681510941184804096
17492 89 18410853239714888062
19301676 85 17905601104587624503
19315092 285 17632007680321495235
19319366 153 17695910316885705357
19591789 44 17761221311896999188
19930381 70 18337390551821915851
20028762 73 17984704677877652934
20101258 96 18267030461612742323
20511986 3 17487614350537849269
20645477 70 18118112796152609177
20775438 99 17761724652057816901
20775530 9 18261117313822090434
21033650 10 16443334335461550109
21133410 171 17468141801710255451
21133410 58 18265881627525967263
21197605 99 17543919361269857971
21285901 2 17532918614595122709
21478907 32 18410573951324839513
21796203 349 18120971448912191250
221490 88 18337674118468460690
22849339 104 17548435712601525614
23559900 14 18338223891140893281
23845131 108 17045132555601231089
24893989 43 17340134750827988215
3380486 145 18264507095291501257
3383291 50 17329423948399158275
3421961 26 18339360880842795593
345986 75 17845945125268123729
3737641 26 18340498797867698294
3882209 13 17614802311901678483
4616759 239 17481684392308901906
46194498 28 17460025413210564015
463206 1 18264773147071585435
5104073 3 18197491827914446650
5265222 85 16177654642264325742
5309563 4 18410857667942286287
56633871 153 18268441148506963857
613672 6 18266434582266764967
6669772 16 17908152319382550052
70251023 43 18408884062034725297
7970288 3 18410854391051570603
86090 222 17314527009395417731
9709674 26 18334860528121166619

> <PUBCHEM_SHAPE_MULTIPOLES>
535.14
10.36
6.05
0.84
8.39
2.34
-0.06
-12.95
-0.28
-3.42
0.26
0.95
-0.24
0.25

> <PUBCHEM_SHAPE_SELFOVERLAP>
1227.46

> <PUBCHEM_SHAPE_VOLUME>
277.2

> <PUBCHEM_COORDINATE_TYPE>
2
5
10

$$$$
