10409280
  -OEChem-03292013303D

 55 59  0     1  0  0  0  0  0999 V2000
    2.3384    1.4963    1.7233 O   0  0  0  0  0  0  0  0  0  0  0  0
    0.5628   -2.4748   -0.0858 O   0  0  0  0  0  0  0  0  0  0  0  0
    3.1246   -1.1039    1.1344 O   0  0  0  0  0  0  0  0  0  0  0  0
    0.1114    3.0166    0.6261 O   0  0  0  0  0  0  0  0  0  0  0  0
    2.3197    1.8213   -1.9409 O   0  0  0  0  0  0  0  0  0  0  0  0
    3.6068   -1.2423   -1.5479 O   0  0  0  0  0  0  0  0  0  0  0  0
   -2.1292    0.7003   -2.1559 O   0  0  0  0  0  0  0  0  0  0  0  0
    1.9163   -3.3529   -1.6582 O   0  0  0  0  0  0  0  0  0  0  0  0
   -4.8182    1.6515   -1.2027 O   0  0  0  0  0  0  0  0  0  0  0  0
    0.8826   -0.1872    0.8475 C   0  0  2  0  0  0  0  0  0  0  0  0
   -0.0777    0.6454   -0.0986 C   0  0  1  0  0  0  0  0  0  0  0  0
    2.2994   -0.3110    0.2495 C   0  0  1  0  0  0  0  0  0  0  0  0
   -1.6298    0.5413    0.2551 C   0  0  2  0  0  0  0  0  0  0  0  0
    2.7498    1.1521    0.3659 C   0  0  1  0  0  0  0  0  0  0  0  0
    0.3559   -1.6064    1.0796 C   0  0  1  0  0  0  0  0  0  0  0  0
    0.4631    2.0782   -0.3835 C   0  0  2  0  0  0  0  0  0  0  0  0
    1.2588    0.6049    2.1125 C   0  0  0  0  0  0  0  0  0  0  0  0
   -1.9908   -0.9861    0.3159 C   0  0  1  0  0  0  0  0  0  0  0  0
    1.9910    2.1119   -0.5871 C   0  0  2  0  0  0  0  0  0  0  0  0
   -1.1401   -1.6889    1.3966 C   0  0  0  0  0  0  0  0  0  0  0  0
    2.2812   -1.0462   -1.0802 C   0  0  2  0  0  0  0  0  0  0  0  0
   -2.4857    1.1938   -0.8713 C   0  0  2  0  0  0  0  0  0  0  0  0
   -2.0282    1.2382    1.5870 C   0  0  0  0  0  0  0  0  0  0  0  0
    4.2593    1.3734    0.2639 C   0  0  0  0  0  0  0  0  0  0  0  0
   -3.4935   -1.2337    0.4126 C   0  0  0  0  0  0  0  0  0  0  0  0
    1.6034   -2.3967   -0.9531 C   0  0  0  0  0  0  0  0  0  0  0  0
   -3.9665    0.8970   -0.7339 C   0  0  0  0  0  0  0  0  0  0  0  0
   -4.3916   -0.3602   -0.0723 C   0  0  0  0  0  0  0  0  0  0  0  0
   -3.9732   -2.5319    1.0014 C   0  0  0  0  0  0  0  0  0  0  0  0
   -0.0104    0.1446   -1.0719 H   0  0  0  0  0  0  0  0  0  0  0  0
    0.8942   -2.0928    1.9023 H   0  0  0  0  0  0  0  0  0  0  0  0
   -0.0124    2.4361   -1.3050 H   0  0  0  0  0  0  0  0  0  0  0  0
    0.4681    1.2227    2.5304 H   0  0  0  0  0  0  0  0  0  0  0  0
    1.6224   -0.0330    2.9257 H   0  0  0  0  0  0  0  0  0  0  0  0
   -1.7028   -1.4539   -0.6366 H   0  0  0  0  0  0  0  0  0  0  0  0
    2.3297    3.1384   -0.3933 H   0  0  0  0  0  0  0  0  0  0  0  0
   -1.3427   -1.2834    2.3928 H   0  0  0  0  0  0  0  0  0  0  0  0
   -1.4059   -2.7525    1.4363 H   0  0  0  0  0  0  0  0  0  0  0  0
    1.7502   -0.5134   -1.8697 H   0  0  0  0  0  0  0  0  0  0  0  0
   -2.3554    2.2815   -0.8710 H   0  0  0  0  0  0  0  0  0  0  0  0
   -1.8819    2.3195    1.5489 H   0  0  0  0  0  0  0  0  0  0  0  0
   -3.0880    1.1011    1.8261 H   0  0  0  0  0  0  0  0  0  0  0  0
   -1.4904    0.8519    2.4514 H   0  0  0  0  0  0  0  0  0  0  0  0
    4.5020    2.4342    0.3971 H   0  0  0  0  0  0  0  0  0  0  0  0
    4.8014    0.8479    1.0571 H   0  0  0  0  0  0  0  0  0  0  0  0
    4.6622    1.0496   -0.6995 H   0  0  0  0  0  0  0  0  0  0  0  0
    3.3736   -0.5809    1.9133 H   0  0  0  0  0  0  0  0  0  0  0  0
    0.3816    3.8990    0.3201 H   0  0  0  0  0  0  0  0  0  0  0  0
    3.2525    2.0547   -2.0803 H   0  0  0  0  0  0  0  0  0  0  0  0
   -5.4590   -0.5475   -0.0224 H   0  0  0  0  0  0  0  0  0  0  0  0
    4.1133   -1.6723   -0.8376 H   0  0  0  0  0  0  0  0  0  0  0  0
   -2.3118   -0.2524   -2.1964 H   0  0  0  0  0  0  0  0  0  0  0  0
   -5.0595   -2.6479    0.9188 H   0  0  0  0  0  0  0  0  0  0  0  0
   -3.7211   -2.5896    2.0649 H   0  0  0  0  0  0  0  0  0  0  0  0
   -3.5169   -3.3790    0.4790 H   0  0  0  0  0  0  0  0  0  0  0  0
  1 14  1  0  0  0  0
  1 17  1  0  0  0  0
  2 15  1  0  0  0  0
  2 26  1  0  0  0  0
  3 12  1  0  0  0  0
  3 47  1  0  0  0  0
  4 16  1  0  0  0  0
  4 48  1  0  0  0  0
  5 19  1  0  0  0  0
  5 49  1  0  0  0  0
  6 21  1  0  0  0  0
  6 51  1  0  0  0  0
  7 22  1  0  0  0  0
  7 52  1  0  0  0  0
  8 26  2  0  0  0  0
  9 27  2  0  0  0  0
 10 11  1  0  0  0  0
 10 12  1  0  0  0  0
 10 15  1  0  0  0  0
 10 17  1  0  0  0  0
 11 13  1  0  0  0  0
 11 16  1  0  0  0  0
 11 30  1  0  0  0  0
 12 14  1  0  0  0  0
 12 21  1  0  0  0  0
 13 18  1  0  0  0  0
 13 22  1  0  0  0  0
 13 23  1  0  0  0  0
 14 19  1  0  0  0  0
 14 24  1  0  0  0  0
 15 20  1  0  0  0  0
 15 31  1  0  0  0  0
 16 19  1  0  0  0  0
 16 32  1  0  0  0  0
 17 33  1  0  0  0  0
 17 34  1  0  0  0  0
 18 20  1  0  0  0  0
 18 25  1  0  0  0  0
 18 35  1  0  0  0  0
 19 36  1  0  0  0  0
 20 37  1  0  0  0  0
 20 38  1  0  0  0  0
 21 26  1  0  0  0  0
 21 39  1  0  0  0  0
 22 27  1  0  0  0  0
 22 40  1  0  0  0  0
 23 41  1  0  0  0  0
 23 42  1  0  0  0  0
 23 43  1  0  0  0  0
 24 44  1  0  0  0  0
 24 45  1  0  0  0  0
 24 46  1  0  0  0  0
 25 28  2  0  0  0  0
 25 29  1  0  0  0  0
 27 28  1  0  0  0  0
 28 50  1  0  0  0  0
 29 53  1  0  0  0  0
 29 54  1  0  0  0  0
 29 55  1  0  0  0  0
M  END
> <PUBCHEM_COMPOUND_CID>
10409280

> <PUBCHEM_CONFORMER_RMSD>
0.6

> <PUBCHEM_CONFORMER_DIVERSEORDER>
1

> <PUBCHEM_MMFF94_PARTIAL_CHARGES>
29
1 -0.56
12 0.28
14 0.28
15 0.28
16 0.28
17 0.28
18 0.14
19 0.28
2 -0.43
21 0.34
22 0.34
25 -0.28
26 0.66
27 0.49
28 -0.14
29 0.14
3 -0.68
4 -0.68
47 0.4
48 0.4
49 0.4
5 -0.68
50 0.15
51 0.4
52 0.4
6 -0.68
7 -0.68
8 -0.57
9 -0.57

> <PUBCHEM_EFFECTIVE_ROTOR_COUNT>
1.6

> <PUBCHEM_PHARMACOPHORE_FEATURES>
17
1 1 acceptor
1 3 acceptor
1 3 donor
1 4 acceptor
1 4 donor
1 5 acceptor
1 5 donor
1 6 acceptor
1 6 donor
1 7 acceptor
1 7 donor
1 8 acceptor
1 9 acceptor
6 10 11 13 15 18 20 rings
6 13 18 22 25 27 28 rings
6 2 10 12 15 21 26 rings
8 1 10 11 12 14 16 17 19 rings

> <PUBCHEM_HEAVY_ATOM_COUNT>
29

> <PUBCHEM_ATOM_DEF_STEREO_COUNT>
11

> <PUBCHEM_ATOM_UDEF_STEREO_COUNT>
0

> <PUBCHEM_BOND_DEF_STEREO_COUNT>
0

> <PUBCHEM_BOND_UDEF_STEREO_COUNT>
0

> <PUBCHEM_ISOTOPIC_ATOM_COUNT>
0

> <PUBCHEM_COMPONENT_COUNT>
1

> <PUBCHEM_CACTVS_TAUTO_COUNT>
13

> <PUBCHEM_CONFORMER_ID>
009ED54000000001

> <PUBCHEM_MMFF94_ENERGY>
133.0698

> <PUBCHEM_FEATURE_SELFOVERLAP>
86.461

> <PUBCHEM_SHAPE_FINGERPRINT>
10165383 225 17767709490903963488
10498660 4 18186516597008257765
10675989 125 17612848428252066101
10863032 1 18334851727500893120
10871710 139 16101641709068061068
10948715 1 18189612911888430776
11640471 11 15140976070323786967
12422481 6 18266995376731725170
12553582 1 18124046632289204954
12596599 1 18339651048864864507
13140716 1 18409730629699876944
13224815 77 18411139164636114891
13583140 156 17346324838525629331
14223421 5 18410859901620309067
14659021 117 16757203960673487814
16945 1 18124600786497542882
17093844 170 18263918856601840916
17357779 13 18129107723335984662
17492 54 17538565813293832639
17980427 23 17972008569809333324
18186145 218 18408609145388627467
20600515 1 18043787828533654104
20691752 17 16443341014072261405
20715895 44 17970046873999448253
20775438 99 18194654057302644271
20905425 154 18187637033299838576
21033648 29 17985810756463290072
22182313 1 18339369655229093578
2334 1 18337113465842495112
23557571 272 18334858371926076377
23559900 14 18409728426582061702
238 59 18060415841427062726
25222932 49 16884137605166025355
2748010 2 18410860996583749138
3323516 105 18412271644290534063
350125 39 18043531822771017585
4280585 95 18049725118546914846
495365 180 17987778804872190473
57527452 28 14470158288315208580
9709674 26 18409445886875786119

> <PUBCHEM_SHAPE_MULTIPOLES>
543.98
7.15
3.05
1.73
4.61
0.97
-0.08
-0.48
-1.12
-0.51
-0.65
-0.45
0.01
1.55

> <PUBCHEM_SHAPE_SELFOVERLAP>
1205.937

> <PUBCHEM_SHAPE_VOLUME>
283.2

> <PUBCHEM_COORDINATE_TYPE>
2
5
10

$$$$
