10407950
  -OEChem-03292013303D

 52 53  0     1  0  0  0  0  0999 V2000
    1.9744    1.6618   -0.1462 O   0  0  0  0  0  0  0  0  0  0  0  0
   -3.6245   -0.7914    1.6129 O   0  0  0  0  0  0  0  0  0  0  0  0
    1.2176    2.3020    1.9459 O   0  0  0  0  0  0  0  0  0  0  0  0
   -3.2129   -1.9299   -0.3603 O   0  0  0  0  0  0  0  0  0  0  0  0
    2.5732   -4.5712   -0.3275 O   0  5  0  0  0  0  0  0  0  0  0  0
    1.8275   -3.7774    1.5786 O   0  0  0  0  0  0  0  0  0  0  0  0
   -2.2605    2.4587   -0.8665 N   0  0  0  0  0  0  0  0  0  0  0  0
    1.9189   -3.7246    0.3281 N   0  3  0  0  0  0  0  0  0  0  0  0
   -0.9055    0.3251    0.4137 C   0  0  1  0  0  0  0  0  0  0  0  0
   -0.2904    1.7150    0.2141 C   0  0  0  0  0  0  0  0  0  0  0  0
   -2.3787    0.2594   -0.0012 C   0  0  0  0  0  0  0  0  0  0  0  0
   -0.1131   -0.6992   -0.3470 C   0  0  0  0  0  0  0  0  0  0  0  0
   -0.9719    2.6988   -0.4161 C   0  0  0  0  0  0  0  0  0  0  0  0
   -2.9748    1.2944   -0.6351 C   0  0  0  0  0  0  0  0  0  0  0  0
    3.3322    1.8303    0.2741 C   0  0  0  0  0  0  0  0  0  0  0  0
    1.0426    1.9353    0.7985 C   0  0  0  0  0  0  0  0  0  0  0  0
    0.5277   -1.7226    0.3410 C   0  0  0  0  0  0  0  0  0  0  0  0
   -0.4483    4.0815   -0.6967 C   0  0  0  0  0  0  0  0  0  0  0  0
   -0.0305   -0.6135   -1.7316 C   0  0  0  0  0  0  0  0  0  0  0  0
   -3.1140   -0.9608    0.3694 C   0  0  0  0  0  0  0  0  0  0  0  0
   -4.3961    1.3128   -1.1294 C   0  0  0  0  0  0  0  0  0  0  0  0
    3.5379    3.2884    0.6819 C   0  0  0  0  0  0  0  0  0  0  0  0
    4.2281    1.4721   -0.9098 C   0  0  0  0  0  0  0  0  0  0  0  0
    3.5966    0.8928    1.4514 C   0  0  0  0  0  0  0  0  0  0  0  0
    1.2622   -2.6745   -0.3661 C   0  0  0  0  0  0  0  0  0  0  0  0
    0.7042   -1.5654   -2.4387 C   0  0  0  0  0  0  0  0  0  0  0  0
    1.3504   -2.5958   -1.7559 C   0  0  0  0  0  0  0  0  0  0  0  0
   -4.3725   -1.9022    2.1184 C   0  0  0  0  0  0  0  0  0  0  0  0
   -0.8675    0.1149    1.4924 H   0  0  0  0  0  0  0  0  0  0  0  0
   -2.7389    3.2153   -1.3426 H   0  0  0  0  0  0  0  0  0  0  0  0
    0.4459   -1.7647    1.4243 H   0  0  0  0  0  0  0  0  0  0  0  0
   -1.0931    4.8320   -0.2271 H   0  0  0  0  0  0  0  0  0  0  0  0
    0.5658    4.2391   -0.3203 H   0  0  0  0  0  0  0  0  0  0  0  0
   -0.4320    4.2671   -1.7760 H   0  0  0  0  0  0  0  0  0  0  0  0
   -0.5237    0.1788   -2.2870 H   0  0  0  0  0  0  0  0  0  0  0  0
   -4.4179    1.4937   -2.2094 H   0  0  0  0  0  0  0  0  0  0  0  0
   -4.9246    0.3733   -0.9439 H   0  0  0  0  0  0  0  0  0  0  0  0
   -4.9581    2.1117   -0.6340 H   0  0  0  0  0  0  0  0  0  0  0  0
    3.0873    3.5602    1.6396 H   0  0  0  0  0  0  0  0  0  0  0  0
    4.6071    3.5104    0.7811 H   0  0  0  0  0  0  0  0  0  0  0  0
    3.1239    3.9674   -0.0724 H   0  0  0  0  0  0  0  0  0  0  0  0
    5.2899    1.5770   -0.6645 H   0  0  0  0  0  0  0  0  0  0  0  0
    4.0470    0.4409   -1.2347 H   0  0  0  0  0  0  0  0  0  0  0  0
    4.0062    2.1113   -1.7720 H   0  0  0  0  0  0  0  0  0  0  0  0
    3.2057   -0.1109    1.2493 H   0  0  0  0  0  0  0  0  0  0  0  0
    4.6742    0.8018    1.6330 H   0  0  0  0  0  0  0  0  0  0  0  0
    3.1637    1.2218    2.3993 H   0  0  0  0  0  0  0  0  0  0  0  0
    0.7730   -1.5036   -3.5208 H   0  0  0  0  0  0  0  0  0  0  0  0
    1.9137   -3.3193   -2.3398 H   0  0  0  0  0  0  0  0  0  0  0  0
   -5.2381   -2.0984    1.4784 H   0  0  0  0  0  0  0  0  0  0  0  0
   -3.7341   -2.7882    2.1882 H   0  0  0  0  0  0  0  0  0  0  0  0
   -4.7274   -1.6455    3.1200 H   0  0  0  0  0  0  0  0  0  0  0  0
  1 15  1  0  0  0  0
  1 16  1  0  0  0  0
  2 20  1  0  0  0  0
  2 28  1  0  0  0  0
  3 16  2  0  0  0  0
  4 20  2  0  0  0  0
  5  8  1  0  0  0  0
  6  8  2  0  0  0  0
  7 13  1  0  0  0  0
  7 14  1  0  0  0  0
  7 30  1  0  0  0  0
  8 25  1  0  0  0  0
  9 10  1  0  0  0  0
  9 11  1  0  0  0  0
  9 12  1  0  0  0  0
  9 29  1  0  0  0  0
 10 13  2  0  0  0  0
 10 16  1  0  0  0  0
 11 14  2  0  0  0  0
 11 20  1  0  0  0  0
 12 17  2  0  0  0  0
 12 19  1  0  0  0  0
 13 18  1  0  0  0  0
 14 21  1  0  0  0  0
 15 22  1  0  0  0  0
 15 23  1  0  0  0  0
 15 24  1  0  0  0  0
 17 25  1  0  0  0  0
 17 31  1  0  0  0  0
 18 32  1  0  0  0  0
 18 33  1  0  0  0  0
 18 34  1  0  0  0  0
 19 26  2  0  0  0  0
 19 35  1  0  0  0  0
 21 36  1  0  0  0  0
 21 37  1  0  0  0  0
 21 38  1  0  0  0  0
 22 39  1  0  0  0  0
 22 40  1  0  0  0  0
 22 41  1  0  0  0  0
 23 42  1  0  0  0  0
 23 43  1  0  0  0  0
 23 44  1  0  0  0  0
 24 45  1  0  0  0  0
 24 46  1  0  0  0  0
 24 47  1  0  0  0  0
 25 27  2  0  0  0  0
 26 27  1  0  0  0  0
 26 48  1  0  0  0  0
 27 49  1  0  0  0  0
 28 50  1  0  0  0  0
 28 51  1  0  0  0  0
 28 52  1  0  0  0  0
M  CHG  2   5  -1   8   1
M  END
> <PUBCHEM_COMPOUND_CID>
10407950

> <PUBCHEM_CONFORMER_RMSD>
0.8

> <PUBCHEM_CONFORMER_DIVERSEORDER>
2
53
34
43
58
69
23
3
62
67
30
36
47
57
33
56
28
44
24
26
49
32
52
27
5
19
37
40
20
46
48
18
54
70
13
16
68
45
11
61
25
59
60
55
42
15
39
12
71
66
8
22
21
38
41
14
51
63
64
35
17
29
65
31
1
9
50
7
6
4
10

> <PUBCHEM_MMFF94_PARTIAL_CHARGES>
30
1 -0.43
10 -0.12
11 -0.12
12 -0.14
13 -0.04
14 -0.04
15 0.28
16 0.71
17 -0.15
18 0.14
19 -0.15
2 -0.43
20 0.71
21 0.14
25 0.13
26 -0.15
27 -0.15
28 0.28
3 -0.57
30 0.4
31 0.15
35 0.15
4 -0.57
48 0.15
49 0.15
5 -0.52
6 -0.52
7 -0.6
8 0.91
9 0.42

> <PUBCHEM_EFFECTIVE_ROTOR_COUNT>
7.4

> <PUBCHEM_PHARMACOPHORE_FEATURES>
10
1 3 acceptor
1 4 acceptor
1 5 acceptor
1 5 anion
1 6 acceptor
1 7 cation
1 7 donor
4 15 22 23 24 hydrophobe
6 12 17 19 25 26 27 rings
6 7 9 10 11 13 14 rings

> <PUBCHEM_HEAVY_ATOM_COUNT>
28

> <PUBCHEM_ATOM_DEF_STEREO_COUNT>
0

> <PUBCHEM_ATOM_UDEF_STEREO_COUNT>
1

> <PUBCHEM_BOND_DEF_STEREO_COUNT>
0

> <PUBCHEM_BOND_UDEF_STEREO_COUNT>
0

> <PUBCHEM_ISOTOPIC_ATOM_COUNT>
0

> <PUBCHEM_COMPONENT_COUNT>
1

> <PUBCHEM_CACTVS_TAUTO_COUNT>
3

> <PUBCHEM_CONFORMER_ID>
009ED00E00000002

> <PUBCHEM_MMFF94_ENERGY>
86.4863

> <PUBCHEM_FEATURE_SELFOVERLAP>
50.827

> <PUBCHEM_SHAPE_FINGERPRINT>
10930396 42 16675238719571459234
1100329 8 17475513876391130377
11578080 2 17387967577979240972
12035759 4 17699812350155009375
12293681 25 18259701216783306759
12592029 89 18342165674622632337
12788726 201 17478307082912893078
13140716 1 18341039830609023601
13149001 5 17832981655263867693
133893 2 18197509419589066896
13965767 371 15744504883426932675
14223421 5 18337673001281078622
15420108 30 17989216975167309823
19591789 44 18267860760627455178
20028762 73 17695076882709065751
20600515 1 17114368248866990068
20642791 13 16762798314531716128
20691752 17 18196101159725661262
20905425 154 18269554949089974292
21033648 29 17984690379947985849
22182313 1 18336275587276069421
22956985 138 18335427871805779890
23419403 2 17265029194577435486
23559900 14 18120925123173298739
2748010 2 18410301285478748157
3298306 158 18341323444663485780
3380486 77 16825804059045370628
3383291 50 17987536887499422438
465052 167 17754747344477499131
5265222 85 18340481279799040904
59755656 215 18336823083162200132
6438718 38 17411899866424493716
81228 2 16833196732590409730
9925002 15 17052962942432553166

> <PUBCHEM_SHAPE_MULTIPOLES>
531.05
6.76
5.41
1.78
1.99
3.8
-0.02
-2.25
2.23
-3.34
-0.27
0.38
0.76
1.73

> <PUBCHEM_SHAPE_SELFOVERLAP>
1126.264

> <PUBCHEM_SHAPE_VOLUME>
298.6

> <PUBCHEM_COORDINATE_TYPE>
2
5
10

$$$$
