10407714
  -OEChem-03292013303D

 31 32  0     1  0  0  0  0  0999 V2000
    1.6190   -4.0232   -0.2388 I   0  0  0  0  0  0  0  0  0  0  0  0
    0.8666   -0.9239    0.2937 O   0  0  0  0  0  0  0  0  0  0  0  0
   -0.0144    2.5163   -0.6645 O   0  0  0  0  0  0  0  0  0  0  0  0
    2.9024    2.6232   -0.4203 O   0  0  0  0  0  0  0  0  0  0  0  0
    3.2606    0.3680    1.1483 O   0  0  0  0  0  0  0  0  0  0  0  0
   -3.0267    0.6778   -1.9483 O   0  5  0  0  0  0  0  0  0  0  0  0
   -2.7859   -1.4831   -1.6457 O   0  0  0  0  0  0  0  0  0  0  0  0
   -1.1883    0.1302    0.6293 N   0  0  0  0  0  0  0  0  0  0  0  0
   -3.3447   -0.0434    1.1145 N   0  0  0  0  0  0  0  0  0  0  0  0
   -2.7650   -0.3023   -1.1930 N   0  3  0  0  0  0  0  0  0  0  0  0
    2.1479    1.4489   -0.7075 C   0  0  2  0  0  0  0  0  0  0  0  0
    0.7781    1.5159   -0.0264 C   0  0  2  0  0  0  0  0  0  0  0  0
    2.9378    0.2272   -0.2369 C   0  0  2  0  0  0  0  0  0  0  0  0
    0.0556    0.1651   -0.1533 C   0  0  1  0  0  0  0  0  0  0  0  0
    2.0993   -1.0408   -0.4263 C   0  0  1  0  0  0  0  0  0  0  0  0
    2.8089   -2.2874    0.0891 C   0  0  0  0  0  0  0  0  0  0  0  0
   -2.4499   -0.0787    0.1522 C   0  0  0  0  0  0  0  0  0  0  0  0
   -1.2794    0.3107    1.9784 C   0  0  0  0  0  0  0  0  0  0  0  0
   -2.6217    0.1996    2.2554 C   0  0  0  0  0  0  0  0  0  0  0  0
    0.9043    1.8192    1.0189 H   0  0  0  0  0  0  0  0  0  0  0  0
    2.0159    1.4133   -1.7962 H   0  0  0  0  0  0  0  0  0  0  0  0
    3.8842    0.1639   -0.7866 H   0  0  0  0  0  0  0  0  0  0  0  0
   -0.2190   -0.0174   -1.1990 H   0  0  0  0  0  0  0  0  0  0  0  0
    1.8673   -1.1680   -1.4925 H   0  0  0  0  0  0  0  0  0  0  0  0
    2.9858   -2.2174    1.1681 H   0  0  0  0  0  0  0  0  0  0  0  0
    3.7806   -2.4031   -0.4029 H   0  0  0  0  0  0  0  0  0  0  0  0
   -0.1262    2.2642   -1.5970 H   0  0  0  0  0  0  0  0  0  0  0  0
    3.7567    2.5427   -0.8780 H   0  0  0  0  0  0  0  0  0  0  0  0
    3.9750   -0.2593    1.3509 H   0  0  0  0  0  0  0  0  0  0  0  0
   -0.4195    0.4904    2.6084 H   0  0  0  0  0  0  0  0  0  0  0  0
   -3.1039    0.2802    3.2186 H   0  0  0  0  0  0  0  0  0  0  0  0
  1 16  1  0  0  0  0
  2 14  1  0  0  0  0
  2 15  1  0  0  0  0
  3 12  1  0  0  0  0
  3 27  1  0  0  0  0
  4 11  1  0  0  0  0
  4 28  1  0  0  0  0
  5 13  1  0  0  0  0
  5 29  1  0  0  0  0
  6 10  1  0  0  0  0
  7 10  2  0  0  0  0
  8 14  1  0  0  0  0
  8 17  1  0  0  0  0
  8 18  1  0  0  0  0
  9 17  2  0  0  0  0
  9 19  1  0  0  0  0
 10 17  1  0  0  0  0
 11 12  1  0  0  0  0
 11 13  1  0  0  0  0
 11 21  1  0  0  0  0
 12 14  1  0  0  0  0
 12 20  1  0  0  0  0
 13 15  1  0  0  0  0
 13 22  1  0  0  0  0
 14 23  1  0  0  0  0
 15 16  1  0  0  0  0
 15 24  1  0  0  0  0
 16 25  1  0  0  0  0
 16 26  1  0  0  0  0
 18 19  2  0  0  0  0
 18 30  1  0  0  0  0
 19 31  1  0  0  0  0
M  CHG  2   6  -1  10   1
M  END
> <PUBCHEM_COMPOUND_CID>
10407714

> <PUBCHEM_CONFORMER_RMSD>
0.6

> <PUBCHEM_CONFORMER_DIVERSEORDER>
1
13
16
19
10
12
8
14
9
17
20
6
18
2
15
5
11
7
3
4

> <PUBCHEM_MMFF94_PARTIAL_CHARGES>
24
1 -0.19
10 0.96
11 0.28
12 0.28
13 0.28
14 0.54
15 0.28
16 0.19
17 0.27
18 -0.3
19 0.08
2 -0.56
27 0.4
28 0.4
29 0.4
3 -0.68
30 0.15
31 0.15
4 -0.68
5 -0.68
6 -0.52
7 -0.52
8 0.05
9 -0.57

> <PUBCHEM_EFFECTIVE_ROTOR_COUNT>
4.2

> <PUBCHEM_PHARMACOPHORE_FEATURES>
13
1 1 hydrophobe
1 2 acceptor
1 3 acceptor
1 3 donor
1 4 acceptor
1 4 donor
1 5 acceptor
1 5 donor
1 6 acceptor
1 7 acceptor
4 8 9 10 17 cation
5 8 9 17 18 19 rings
6 2 11 12 13 14 15 rings

> <PUBCHEM_HEAVY_ATOM_COUNT>
19

> <PUBCHEM_ATOM_DEF_STEREO_COUNT>
5

> <PUBCHEM_ATOM_UDEF_STEREO_COUNT>
0

> <PUBCHEM_BOND_DEF_STEREO_COUNT>
0

> <PUBCHEM_BOND_UDEF_STEREO_COUNT>
0

> <PUBCHEM_ISOTOPIC_ATOM_COUNT>
0

> <PUBCHEM_COMPONENT_COUNT>
1

> <PUBCHEM_CACTVS_TAUTO_COUNT>
1

> <PUBCHEM_CONFORMER_ID>
009ECF2200000001

> <PUBCHEM_MMFF94_ENERGY>
47.6492

> <PUBCHEM_FEATURE_SELFOVERLAP>
66.069

> <PUBCHEM_SHAPE_FINGERPRINT>
11578080 2 17700664334149136465
11582403 64 16885488805617873317
12553582 1 18122917425680200102
12759256 9 18408046204046343466
13140716 1 18265343970285688018
13538477 17 17346605140332650547
14178342 30 18342742943965630234
14787075 74 16838787126605628810
14844126 61 16966875352307547426
15279307 12 18059586801138675271
16945 1 18408892832294691728
19049666 15 17385722461213931713
19777482 4 17767668482719835903
20645477 70 18333450936786555499
21160774 45 17617106149148004318
21639500 275 18337673138883900168
21731516 1 17981335490803579910
22112679 90 17561090193509519529
2255824 54 18340785766471869662
22802520 49 17894911780789498645
23419403 2 16739963855262834636
23526113 38 17823690872045107355
23598291 2 18059588944295434703
23728640 28 16101628897223010234
2748010 2 17967821547783575668
6049 1 17531261529748307973
633830 44 18057348247331308516
6992083 37 17626673695532067450
7615 1 17918273117118655921
77492 1 17917720105809319129
81228 2 17539686898737579684
88987 49 16128382519218522249

> <PUBCHEM_SHAPE_MULTIPOLES>
352.79
5.69
3.33
1.64
1.49
1.86
0.21
1.5
0.13
-4.11
-0.82
2.03
0.09
-0.38

> <PUBCHEM_SHAPE_SELFOVERLAP>
715.98

> <PUBCHEM_SHAPE_VOLUME>
210.4

> <PUBCHEM_COORDINATE_TYPE>
2
5
10

$$$$
