10408305
  -OEChem-03292013303D

 43 49  0     1  0  0  0  0  0999 V2000
   -2.6374   -0.8584    2.4254 O   0  0  0  0  0  0  0  0  0  0  0  0
    0.2262   -0.7386    1.2919 O   0  0  0  0  0  0  0  0  0  0  0  0
   -0.3942    1.5601    0.8477 O   0  0  0  0  0  0  0  0  0  0  0  0
    0.4950   -1.2044   -1.0644 O   0  0  0  0  0  0  0  0  0  0  0  0
    2.8340   -1.4776    1.7578 O   0  0  0  0  0  0  0  0  0  0  0  0
   -4.8756    0.9624    0.5548 O   0  0  0  0  0  0  0  0  0  0  0  0
   -4.8876   -0.2258   -1.8144 O   0  0  0  0  0  0  0  0  0  0  0  0
    4.8652   -0.1057   -1.5205 O   0  0  0  0  0  0  0  0  0  0  0  0
   -1.7122    0.2194    2.2614 C   0  0  1  0  0  0  0  0  0  0  0  0
   -0.8307    0.1954    1.0471 C   0  0  2  0  0  0  0  0  0  0  0  0
   -3.1868    0.4323    2.0846 C   0  0  1  0  0  0  0  0  0  0  0  0
    1.1108   -0.7598    0.1650 C   0  0  1  0  0  0  0  0  0  0  0  0
   -1.5692   -0.2648   -0.1910 C   0  0  0  0  0  0  0  0  0  0  0  0
   -3.7621    0.4875    0.7232 C   0  0  0  0  0  0  0  0  0  0  0  0
    1.6596    0.6261   -0.0405 C   0  0  0  0  0  0  0  0  0  0  0  0
   -2.9417   -0.0501   -0.3850 C   0  0  0  0  0  0  0  0  0  0  0  0
    2.2548   -1.7337    0.4782 C   0  0  1  0  0  0  0  0  0  0  0  0
   -0.8355   -0.9007   -1.2000 C   0  0  0  0  0  0  0  0  0  0  0  0
    0.8538    1.7152    0.3043 C   0  0  0  0  0  0  0  0  0  0  0  0
    3.3330   -1.7013   -0.6033 C   0  0  0  0  0  0  0  0  0  0  0  0
    2.9308    0.8518   -0.5813 C   0  0  0  0  0  0  0  0  0  0  0  0
   -3.5570   -0.4115   -1.5870 C   0  0  0  0  0  0  0  0  0  0  0  0
    3.8017   -0.2966   -0.9362 C   0  0  0  0  0  0  0  0  0  0  0  0
   -1.4478   -1.2735   -2.3971 C   0  0  0  0  0  0  0  0  0  0  0  0
    1.3054    3.0192    0.1075 C   0  0  0  0  0  0  0  0  0  0  0  0
   -2.8043   -1.0169   -2.5931 C   0  0  0  0  0  0  0  0  0  0  0  0
    3.3853    2.1595   -0.7809 C   0  0  0  0  0  0  0  0  0  0  0  0
    2.5701    3.2390   -0.4365 C   0  0  0  0  0  0  0  0  0  0  0  0
    3.8163   -2.4486    2.0823 C   0  0  0  0  0  0  0  0  0  0  0  0
   -1.2283    0.6064    3.1484 H   0  0  0  0  0  0  0  0  0  0  0  0
   -3.7145    0.9679    2.8648 H   0  0  0  0  0  0  0  0  0  0  0  0
    1.8252   -2.7451    0.5104 H   0  0  0  0  0  0  0  0  0  0  0  0
    2.9271   -2.1161   -1.5349 H   0  0  0  0  0  0  0  0  0  0  0  0
    4.2137   -2.2986   -0.3555 H   0  0  0  0  0  0  0  0  0  0  0  0
   -0.8754   -1.7636   -3.1801 H   0  0  0  0  0  0  0  0  0  0  0  0
    0.6803    3.8667    0.3750 H   0  0  0  0  0  0  0  0  0  0  0  0
   -3.2737   -1.3100   -3.5287 H   0  0  0  0  0  0  0  0  0  0  0  0
    4.3686    2.3585   -1.1981 H   0  0  0  0  0  0  0  0  0  0  0  0
    2.9239    4.2545   -0.5904 H   0  0  0  0  0  0  0  0  0  0  0  0
    4.7888   -2.1727    1.6650 H   0  0  0  0  0  0  0  0  0  0  0  0
    3.5275   -3.4593    1.7762 H   0  0  0  0  0  0  0  0  0  0  0  0
    3.9299   -2.4506    3.1709 H   0  0  0  0  0  0  0  0  0  0  0  0
   -5.3087    0.1949   -1.0491 H   0  0  0  0  0  0  0  0  0  0  0  0
  1  9  1  0  0  0  0
  1 11  1  0  0  0  0
  2 10  1  0  0  0  0
  2 12  1  0  0  0  0
  3 10  1  0  0  0  0
  3 19  1  0  0  0  0
  4 12  1  0  0  0  0
  4 18  1  0  0  0  0
  5 17  1  0  0  0  0
  5 29  1  0  0  0  0
  6 14  2  0  0  0  0
  7 22  1  0  0  0  0
  7 43  1  0  0  0  0
  8 23  2  0  0  0  0
  9 10  1  0  0  0  0
  9 11  1  0  0  0  0
  9 30  1  0  0  0  0
 10 13  1  0  0  0  0
 11 14  1  0  0  0  0
 11 31  1  0  0  0  0
 12 15  1  0  0  0  0
 12 17  1  0  0  0  0
 13 16  1  0  0  0  0
 13 18  2  0  0  0  0
 14 16  1  0  0  0  0
 15 19  1  0  0  0  0
 15 21  2  0  0  0  0
 16 22  2  0  0  0  0
 17 20  1  0  0  0  0
 17 32  1  0  0  0  0
 18 24  1  0  0  0  0
 19 25  2  0  0  0  0
 20 23  1  0  0  0  0
 20 33  1  0  0  0  0
 20 34  1  0  0  0  0
 21 23  1  0  0  0  0
 21 27  1  0  0  0  0
 22 26  1  0  0  0  0
 24 26  2  0  0  0  0
 24 35  1  0  0  0  0
 25 28  1  0  0  0  0
 25 36  1  0  0  0  0
 26 37  1  0  0  0  0
 27 28  2  0  0  0  0
 27 38  1  0  0  0  0
 28 39  1  0  0  0  0
 29 40  1  0  0  0  0
 29 41  1  0  0  0  0
 29 42  1  0  0  0  0
M  END
> <PUBCHEM_COMPOUND_CID>
10408305

> <PUBCHEM_CONFORMER_RMSD>
0.6

> <PUBCHEM_CONFORMER_DIVERSEORDER>
1

> <PUBCHEM_MMFF94_PARTIAL_CHARGES>
37
1 -0.3
10 0.8
11 0.05
12 0.7
13 -0.14
14 0.48
15 -0.14
16 0.09
17 0.28
18 0.08
19 0.08
2 -0.56
20 0.06
21 0.09
22 0.08
23 0.42
24 -0.15
25 -0.15
26 -0.15
27 -0.15
28 -0.15
29 0.28
3 -0.36
30 0.1
31 0.1
35 0.15
36 0.15
37 0.15
38 0.15
39 0.15
4 -0.36
43 0.45
5 -0.56
6 -0.57
7 -0.53
8 -0.57
9 -0.05

> <PUBCHEM_EFFECTIVE_ROTOR_COUNT>
2.2

> <PUBCHEM_PHARMACOPHORE_FEATURES>
14
1 1 acceptor
1 2 acceptor
1 3 acceptor
1 4 acceptor
1 5 acceptor
1 6 acceptor
1 7 donor
1 8 acceptor
6 12 15 17 20 21 23 rings
6 13 16 18 22 24 26 rings
6 15 19 21 25 27 28 rings
6 2 3 10 12 15 19 rings
6 2 4 10 12 13 18 rings
7 1 9 10 11 13 14 16 rings

> <PUBCHEM_HEAVY_ATOM_COUNT>
29

> <PUBCHEM_ATOM_DEF_STEREO_COUNT>
5

> <PUBCHEM_ATOM_UDEF_STEREO_COUNT>
0

> <PUBCHEM_BOND_DEF_STEREO_COUNT>
0

> <PUBCHEM_BOND_UDEF_STEREO_COUNT>
0

> <PUBCHEM_ISOTOPIC_ATOM_COUNT>
0

> <PUBCHEM_COMPONENT_COUNT>
1

> <PUBCHEM_CACTVS_TAUTO_COUNT>
14

> <PUBCHEM_CONFORMER_ID>
009ED17100000001

> <PUBCHEM_MMFF94_ENERGY>
99.2312

> <PUBCHEM_FEATURE_SELFOVERLAP>
72.787

> <PUBCHEM_SHAPE_FINGERPRINT>
10165383 225 17314250971530018430
10366900 7 17822012038132753109
10369192 42 17317633189741531820
10863032 1 18260830444751421907
11578080 2 17240493506413598109
11640471 11 17987812928276755857
12035759 4 17988644159019654701
12107698 1 18263075536327903037
12160290 23 17545039304320226576
12236239 1 17989214732518706216
12553582 1 18338801109302583054
13009979 54 17704078373571831950
131258 38 14829075675034787039
13134695 92 18261390014491838588
13224815 77 17988926694842731531
133893 2 18265315374082201072
13583140 156 18262818357421360595
13782708 43 17385450928970870122
13911987 19 18113912546150605654
13965767 371 17270607850172436043
14251757 17 16009862815297580730
14294032 229 17058948654413726113
14713325 29 16458007670517399772
14955137 171 17700729274212224888
16752209 62 17060338556836847559
16945 1 18408325509906385712
17349148 13 17846779594173834647
17980427 23 17773852325372447664
1813 80 18268699520728280630
20511986 3 17845926424843684492
20600515 1 17487022709406481186
21033648 29 17022903450287212213
21133665 82 14087099195923867067
21781051 124 17560516322588655271
22112679 90 17775292676598323992
22907989 373 16533986144151785972
23175994 123 17824249415319917762
23419403 2 17603584114541386226
23557571 272 15984812804747695935
23559900 14 16009028341864819078
238 59 18189325922020465070
3380486 77 18196908055474842334
34934 24 18271815652640168536
394222 165 17977076262114507576
4409770 3 15534784482469463519
474 4 18193271012791364300
495365 180 17386268944146799459
513202 73 17619632384967647750
57527295 17 18040986315681225415
5895379 119 17131844174257229760
633830 44 18336277841553962812

> <PUBCHEM_SHAPE_MULTIPOLES>
549.85
8.17
2.5
2.38
1.94
1.47
-0.75
-0.85
1.26
-2.61
0.43
1.04
-1.02
-2.67

> <PUBCHEM_SHAPE_SELFOVERLAP>
1283.335

> <PUBCHEM_SHAPE_VOLUME>
273.3

> <PUBCHEM_COORDINATE_TYPE>
2
5
10

$$$$
