10406529
  -OEChem-03292013303D

 49 50  0     1  0  0  0  0  0999 V2000
   -1.6756    1.3144    0.4870 O   0  0  0  0  0  0  0  0  0  0  0  0
   -3.2932   -2.5858   -0.1606 O   0  0  0  0  0  0  0  0  0  0  0  0
   -1.3256    3.3115   -0.4020 O   0  0  0  0  0  0  0  0  0  0  0  0
   -1.7629    3.1665    1.8565 O   0  0  0  0  0  0  0  0  0  0  0  0
   -5.0268   -2.1102   -1.6116 O   0  0  0  0  0  0  0  0  0  0  0  0
    1.7882   -1.8273    0.8827 N   0  0  0  0  0  0  0  0  0  0  0  0
    3.4564   -3.1505    0.2223 N   0  0  0  0  0  0  0  0  0  0  0  0
    2.5687    0.2981    0.0030 N   0  0  0  0  0  0  0  0  0  0  0  0
    4.7080    0.0501   -1.1450 N   0  0  0  0  0  0  0  0  0  0  0  0
    3.6425    2.1299   -0.9801 N   0  0  0  0  0  0  0  0  0  0  0  0
   -2.0148   -1.0009    1.1578 C   0  0  1  0  0  0  0  0  0  0  0  0
   -0.6780   -1.5026    0.5604 C   0  0  0  0  0  0  0  0  0  0  0  0
    0.5304   -1.4249    1.5014 C   0  0  0  0  0  0  0  0  0  0  0  0
   -1.9615    0.4702    1.5935 C   0  0  0  0  0  0  0  0  0  0  0  0
   -3.1515   -1.2030    0.1405 C   0  0  0  0  0  0  0  0  0  0  0  0
    2.6703   -1.0217    0.2205 C   0  0  0  0  0  0  0  0  0  0  0  0
    2.3041   -3.0960    0.8571 C   0  0  0  0  0  0  0  0  0  0  0  0
    3.6972   -1.8610   -0.1809 C   0  0  0  0  0  0  0  0  0  0  0  0
    4.7442   -1.2797   -0.8888 C   0  0  0  0  0  0  0  0  0  0  0  0
   -1.6034    2.6524    0.7575 C   0  0  0  0  0  0  0  0  0  0  0  0
   -4.2755   -2.9014   -1.0578 C   0  0  0  0  0  0  0  0  0  0  0  0
    3.6381    0.7461   -0.6899 C   0  0  0  0  0  0  0  0  0  0  0  0
   -1.2163    4.7345   -0.2931 C   0  0  0  0  0  0  0  0  0  0  0  0
   -4.3078   -4.3837   -1.2772 C   0  0  0  0  0  0  0  0  0  0  0  0
    0.2212    5.1021    0.0416 C   0  0  0  0  0  0  0  0  0  0  0  0
   -1.6764    5.3733   -1.5947 C   0  0  0  0  0  0  0  0  0  0  0  0
   -2.2309   -1.6173    2.0403 H   0  0  0  0  0  0  0  0  0  0  0  0
   -0.7901   -2.5472    0.2420 H   0  0  0  0  0  0  0  0  0  0  0  0
   -0.4550   -0.9374   -0.3544 H   0  0  0  0  0  0  0  0  0  0  0  0
    0.3778   -2.0716    2.3733 H   0  0  0  0  0  0  0  0  0  0  0  0
    0.6843   -0.4069    1.8729 H   0  0  0  0  0  0  0  0  0  0  0  0
   -1.2060    0.6131    2.3737 H   0  0  0  0  0  0  0  0  0  0  0  0
   -2.9326    0.7554    2.0178 H   0  0  0  0  0  0  0  0  0  0  0  0
   -4.0940   -0.8344    0.5636 H   0  0  0  0  0  0  0  0  0  0  0  0
   -2.9415   -0.6521   -0.7845 H   0  0  0  0  0  0  0  0  0  0  0  0
    1.7979   -3.9357    1.3137 H   0  0  0  0  0  0  0  0  0  0  0  0
    5.6024   -1.8269   -1.2564 H   0  0  0  0  0  0  0  0  0  0  0  0
   -1.8773    5.1109    0.4981 H   0  0  0  0  0  0  0  0  0  0  0  0
   -3.3494   -4.7191   -1.6816 H   0  0  0  0  0  0  0  0  0  0  0  0
   -5.0943   -4.6269   -1.9973 H   0  0  0  0  0  0  0  0  0  0  0  0
   -4.5279   -4.8927   -0.3355 H   0  0  0  0  0  0  0  0  0  0  0  0
    0.9089    4.7217   -0.7219 H   0  0  0  0  0  0  0  0  0  0  0  0
    0.3470    6.1866    0.1164 H   0  0  0  0  0  0  0  0  0  0  0  0
    0.5284    4.6525    0.9917 H   0  0  0  0  0  0  0  0  0  0  0  0
   -1.0698    5.0234   -2.4373 H   0  0  0  0  0  0  0  0  0  0  0  0
   -1.6155    6.4648   -1.5477 H   0  0  0  0  0  0  0  0  0  0  0  0
   -2.7114    5.0892   -1.8133 H   0  0  0  0  0  0  0  0  0  0  0  0
    2.8718    2.7047   -0.6687 H   0  0  0  0  0  0  0  0  0  0  0  0
    4.4153    2.5265   -1.4966 H   0  0  0  0  0  0  0  0  0  0  0  0
  1 14  1  0  0  0  0
  1 20  1  0  0  0  0
  2 15  1  0  0  0  0
  2 21  1  0  0  0  0
  3 20  1  0  0  0  0
  3 23  1  0  0  0  0
  4 20  2  0  0  0  0
  5 21  2  0  0  0  0
  6 13  1  0  0  0  0
  6 16  1  0  0  0  0
  6 17  1  0  0  0  0
  7 17  2  0  0  0  0
  7 18  1  0  0  0  0
  8 16  2  0  0  0  0
  8 22  1  0  0  0  0
  9 19  1  0  0  0  0
  9 22  2  0  0  0  0
 10 22  1  0  0  0  0
 10 48  1  0  0  0  0
 10 49  1  0  0  0  0
 11 12  1  0  0  0  0
 11 14  1  0  0  0  0
 11 15  1  0  0  0  0
 11 27  1  0  0  0  0
 12 13  1  0  0  0  0
 12 28  1  0  0  0  0
 12 29  1  0  0  0  0
 13 30  1  0  0  0  0
 13 31  1  0  0  0  0
 14 32  1  0  0  0  0
 14 33  1  0  0  0  0
 15 34  1  0  0  0  0
 15 35  1  0  0  0  0
 16 18  1  0  0  0  0
 17 36  1  0  0  0  0
 18 19  2  0  0  0  0
 19 37  1  0  0  0  0
 21 24  1  0  0  0  0
 23 25  1  0  0  0  0
 23 26  1  0  0  0  0
 23 38  1  0  0  0  0
 24 39  1  0  0  0  0
 24 40  1  0  0  0  0
 24 41  1  0  0  0  0
 25 42  1  0  0  0  0
 25 43  1  0  0  0  0
 25 44  1  0  0  0  0
 26 45  1  0  0  0  0
 26 46  1  0  0  0  0
 26 47  1  0  0  0  0
M  END
> <PUBCHEM_COMPOUND_CID>
10406529

> <PUBCHEM_CONFORMER_RMSD>
1

> <PUBCHEM_CONFORMER_DIVERSEORDER>
1
12
7
108
66
330
176
23
133
333
189
145
141
265
312
231
100
149
83
304
219
253
273
158
207
59
243
245
202
147
13
5
69
140
146
255
70
89
115
275
329
127
155
334
285
318
188
215
92
264
263
322
19
308
182
209
150
269
20
277
166
235
306
43
252
224
93
116
6
40
172
185
29
111
233
63
126
119
208
33
287
247
241
152
279
129
41
49
4
91
259
194
193
114
213
57
261
106
296
314
24
14
284
37
167
282
338
22
179
75
120
341
289
58
321
21
266
197
68
30
203
67
15
169
105
97
184
65
227
77
39
340
11
216
174
78
344
173
132
130
199
159
32
239
291
134
35
218
98
228
288
131
137
301
102
195
337
27
229
34
3
151
290
186
95
237
244
335
280
101
316
143
128
298
295
309
80
84
123
121
225
177
85
88
178
99
276
181
320
76
212
160
303
286
327
103
198
138
204
118
28
274
300
104
299
315
16
214
258
294
54
113
87
153
324
94
220
307
56
319
52
196
170
18
51
42
256
248
71
157
125
221
201
60
222
283
81
343
136
168
240
110
144
122
10
47
64
250
342
44
281
45
162
17
72
293
326
142
36
206
211
171
96
210
50
82
112
297
200
311
292
109
205
154
148
38
313
328
55
230
187
339
180
246
62
260
278
175
73
331
234
156
262
53
61
2
183
163
192
26
161
267
139
48
242
249
310
117
325
107
223
272
332
25
257
79
236
254
232
8
190
305
268
165
336
9
271
191
46
124
164
31
74
238
86
323
217
226
135
302
270
251
317
90

> <PUBCHEM_MMFF94_PARTIAL_CHARGES>
26
1 -0.43
10 -0.9
13 0.26
14 0.28
15 0.28
16 0.11
17 0.04
18 0.23
19 0.16
2 -0.43
20 0.87
21 0.66
22 0.72
23 0.28
24 0.06
3 -0.43
36 0.15
37 0.15
4 -0.57
48 0.4
49 0.4
5 -0.57
6 0.05
7 -0.57
8 -0.57
9 -0.62

> <PUBCHEM_EFFECTIVE_ROTOR_COUNT>
11

> <PUBCHEM_PHARMACOPHORE_FEATURES>
7
1 10 donor
1 5 acceptor
3 23 25 26 hydrophobe
3 6 7 17 cation
4 8 9 10 22 cation
5 6 7 16 17 18 rings
6 8 9 16 18 19 22 rings

> <PUBCHEM_HEAVY_ATOM_COUNT>
26

> <PUBCHEM_ATOM_DEF_STEREO_COUNT>
0

> <PUBCHEM_ATOM_UDEF_STEREO_COUNT>
1

> <PUBCHEM_BOND_DEF_STEREO_COUNT>
0

> <PUBCHEM_BOND_UDEF_STEREO_COUNT>
0

> <PUBCHEM_ISOTOPIC_ATOM_COUNT>
0

> <PUBCHEM_COMPONENT_COUNT>
1

> <PUBCHEM_CACTVS_TAUTO_COUNT>
3

> <PUBCHEM_CONFORMER_ID>
009ECA8100000001

> <PUBCHEM_MMFF94_ENERGY>
45.233

> <PUBCHEM_FEATURE_SELFOVERLAP>
35.654

> <PUBCHEM_SHAPE_FINGERPRINT>
10369192 42 16340863330771367626
10940486 97 17977948982474685278
11045515 52 18409727404728095767
12788726 201 18190168006526087531
13383668 90 17841751506632068742
13690498 29 18124623927929709334
15664445 248 18122047960805084163
15950262 2 14781791065274326772
20028762 73 16608276197691187990
20775438 99 17836879595967980101
2132832 1 18115568375806477946
21344244 246 17548414160223479567
22907989 373 18199740363194478495
26353 1 18268975639896168703
3057174 1 17190652378634697319
3298306 158 16899058063510749453
3388396 114 18264218070347450604
340366 18 17619355303373072778
4017518 198 16974470786937581311
532947 4 17762055840942880385
6608658 132 18338252560458661678
6669772 16 17188131735105709495
7164475 11 18411132498667919586

> <PUBCHEM_SHAPE_MULTIPOLES>
480.82
9.09
7.98
1.5
3.52
11.13
0.08
-9.73
-4.72
-8.16
-2.74
-0.99
0.07
-2.49

> <PUBCHEM_SHAPE_SELFOVERLAP>
988.89

> <PUBCHEM_SHAPE_VOLUME>
273.9

> <PUBCHEM_COORDINATE_TYPE>
2
5
10

$$$$
