10407389
  -OEChem-03292013303D

 40 46  0     1  0  0  0  0  0999 V2000
   -2.6678   -1.2666   -2.1627 O   0  0  0  0  0  0  0  0  0  0  0  0
    0.2491   -0.4877   -1.5429 O   0  0  0  0  0  0  0  0  0  0  0  0
   -0.2182   -1.6627    0.5229 O   0  0  0  0  0  0  0  0  0  0  0  0
    0.6041    1.5956   -0.3701 O   0  0  0  0  0  0  0  0  0  0  0  0
    2.7855   -0.3514   -2.5974 O   0  0  0  0  0  0  0  0  0  0  0  0
   -4.7070   -1.0534    0.5979 O   0  0  0  0  0  0  0  0  0  0  0  0
   -4.6723    1.5136    1.2566 O   0  0  0  0  0  0  0  0  0  0  0  0
    5.0463    1.2222    0.4304 O   0  0  0  0  0  0  0  0  0  0  0  0
   -1.6763   -1.8498   -1.3134 C   0  0  1  0  0  0  0  0  0  0  0  0
   -0.7403   -0.9174   -0.6017 C   0  0  2  0  0  0  0  0  0  0  0  0
   -3.1263   -1.8576   -0.9280 C   0  0  1  0  0  0  0  0  0  0  0  0
    1.1842    0.3770   -0.8865 C   0  0  1  0  0  0  0  0  0  0  0  0
   -1.4433    0.3180   -0.0821 C   0  0  0  0  0  0  0  0  0  0  0  0
   -3.6314   -0.8675    0.0478 C   0  0  0  0  0  0  0  0  0  0  0  0
   -2.7906    0.3220    0.3082 C   0  0  0  0  0  0  0  0  0  0  0  0
    1.8198   -0.3776    0.2496 C   0  0  0  0  0  0  0  0  0  0  0  0
    2.2549    0.7813   -1.9091 C   0  0  1  0  0  0  0  0  0  0  0  0
   -0.6991    1.4972    0.0459 C   0  0  0  0  0  0  0  0  0  0  0  0
    1.0613   -1.3535    0.9027 C   0  0  0  0  0  0  0  0  0  0  0  0
    3.3839    1.5767   -1.2565 C   0  0  0  0  0  0  0  0  0  0  0  0
    3.1262   -0.1167    0.6791 C   0  0  0  0  0  0  0  0  0  0  0  0
   -3.3669    1.4653    0.8693 C   0  0  0  0  0  0  0  0  0  0  0  0
    3.9468    0.9058   -0.0168 C   0  0  0  0  0  0  0  0  0  0  0  0
   -1.2733    2.6443    0.5949 C   0  0  0  0  0  0  0  0  0  0  0  0
    1.5949   -2.0609    1.9787 C   0  0  0  0  0  0  0  0  0  0  0  0
   -2.6021    2.6223    1.0170 C   0  0  0  0  0  0  0  0  0  0  0  0
    3.6631   -0.8244    1.7596 C   0  0  0  0  0  0  0  0  0  0  0  0
    2.8947   -1.7938    2.4064 C   0  0  0  0  0  0  0  0  0  0  0  0
   -1.2145   -2.7724   -1.6393 H   0  0  0  0  0  0  0  0  0  0  0  0
   -3.6598   -2.7982   -0.9970 H   0  0  0  0  0  0  0  0  0  0  0  0
    1.7971    1.4138   -2.6802 H   0  0  0  0  0  0  0  0  0  0  0  0
    3.0362    2.5729   -0.9616 H   0  0  0  0  0  0  0  0  0  0  0  0
    4.2088    1.6872   -1.9700 H   0  0  0  0  0  0  0  0  0  0  0  0
   -0.6926    3.5571    0.6966 H   0  0  0  0  0  0  0  0  0  0  0  0
    1.0067   -2.8197    2.4874 H   0  0  0  0  0  0  0  0  0  0  0  0
   -3.0418    3.5200    1.4441 H   0  0  0  0  0  0  0  0  0  0  0  0
    4.6750   -0.6395    2.1095 H   0  0  0  0  0  0  0  0  0  0  0  0
    2.0330   -0.8430   -2.9686 H   0  0  0  0  0  0  0  0  0  0  0  0
    3.3124   -2.3442    3.2447 H   0  0  0  0  0  0  0  0  0  0  0  0
   -5.1052    0.6598    1.1031 H   0  0  0  0  0  0  0  0  0  0  0  0
  1  9  1  0  0  0  0
  1 11  1  0  0  0  0
  2 10  1  0  0  0  0
  2 12  1  0  0  0  0
  3 10  1  0  0  0  0
  3 19  1  0  0  0  0
  4 12  1  0  0  0  0
  4 18  1  0  0  0  0
  5 17  1  0  0  0  0
  5 38  1  0  0  0  0
  6 14  2  0  0  0  0
  7 22  1  0  0  0  0
  7 40  1  0  0  0  0
  8 23  2  0  0  0  0
  9 10  1  0  0  0  0
  9 11  1  0  0  0  0
  9 29  1  0  0  0  0
 10 13  1  0  0  0  0
 11 14  1  0  0  0  0
 11 30  1  0  0  0  0
 12 16  1  0  0  0  0
 12 17  1  0  0  0  0
 13 15  1  0  0  0  0
 13 18  2  0  0  0  0
 14 15  1  0  0  0  0
 15 22  2  0  0  0  0
 16 19  1  0  0  0  0
 16 21  2  0  0  0  0
 17 20  1  0  0  0  0
 17 31  1  0  0  0  0
 18 24  1  0  0  0  0
 19 25  2  0  0  0  0
 20 23  1  0  0  0  0
 20 32  1  0  0  0  0
 20 33  1  0  0  0  0
 21 23  1  0  0  0  0
 21 27  1  0  0  0  0
 22 26  1  0  0  0  0
 24 26  2  0  0  0  0
 24 34  1  0  0  0  0
 25 28  1  0  0  0  0
 25 35  1  0  0  0  0
 26 36  1  0  0  0  0
 27 28  2  0  0  0  0
 27 37  1  0  0  0  0
 28 39  1  0  0  0  0
M  END
> <PUBCHEM_COMPOUND_CID>
10407389

> <PUBCHEM_CONFORMER_RMSD>
0.6

> <PUBCHEM_CONFORMER_DIVERSEORDER>
1

> <PUBCHEM_MMFF94_PARTIAL_CHARGES>
37
1 -0.3
10 0.8
11 0.05
12 0.7
13 -0.14
14 0.48
15 0.09
16 -0.14
17 0.28
18 0.08
19 0.08
2 -0.56
20 0.06
21 0.09
22 0.08
23 0.42
24 -0.15
25 -0.15
26 -0.15
27 -0.15
28 -0.15
29 0.1
3 -0.36
30 0.1
34 0.15
35 0.15
36 0.15
37 0.15
38 0.4
39 0.15
4 -0.36
40 0.45
5 -0.68
6 -0.57
7 -0.53
8 -0.57
9 -0.05

> <PUBCHEM_EFFECTIVE_ROTOR_COUNT>
1.2

> <PUBCHEM_PHARMACOPHORE_FEATURES>
15
1 1 acceptor
1 2 acceptor
1 3 acceptor
1 4 acceptor
1 5 acceptor
1 5 donor
1 6 acceptor
1 7 donor
1 8 acceptor
6 12 16 17 20 21 23 rings
6 13 15 18 22 24 26 rings
6 16 19 21 25 27 28 rings
6 2 3 10 12 16 19 rings
6 2 4 10 12 13 18 rings
7 1 9 10 11 13 14 15 rings

> <PUBCHEM_HEAVY_ATOM_COUNT>
28

> <PUBCHEM_ATOM_DEF_STEREO_COUNT>
5

> <PUBCHEM_ATOM_UDEF_STEREO_COUNT>
0

> <PUBCHEM_BOND_DEF_STEREO_COUNT>
0

> <PUBCHEM_BOND_UDEF_STEREO_COUNT>
0

> <PUBCHEM_ISOTOPIC_ATOM_COUNT>
0

> <PUBCHEM_COMPONENT_COUNT>
1

> <PUBCHEM_CACTVS_TAUTO_COUNT>
14

> <PUBCHEM_CONFORMER_ID>
009ECDDD00000001

> <PUBCHEM_MMFF94_ENERGY>
89.9065

> <PUBCHEM_FEATURE_SELFOVERLAP>
77.862

> <PUBCHEM_SHAPE_FINGERPRINT>
10165383 225 16415207826920924812
10366900 7 15697998535200700385
10369192 42 15191312976049132114
10863032 1 17417828213693111932
11578080 2 16487261001284582928
11595378 159 18412259536540304393
11640471 11 18335426737817673816
12236239 1 18335136518171276646
12553582 1 18200589328079089743
12592029 89 16660637509775302990
12633257 1 17845918654936084297
12788726 201 18343016718635229851
13009979 54 18263911160394883050
13140716 1 17913491517686533443
13224815 77 18408885131022639161
133893 2 17168431463232760502
13583140 156 17967255282427047377
13782708 43 16415482678915972494
13911987 19 16734124512058316412
13965767 371 18048611321319861412
14081887 123 17847055563071063313
14341114 328 18408887321514242864
14787075 74 18118403079669270728
14955137 171 17973733476341800410
16752209 62 18201435857637830477
16945 1 18131348622327208029
17349148 13 17675919919744935240
1813 80 17679021491982050730
18981168 100 16630516298184502139
20511986 3 18261658308198399113
20715895 44 17469033364138426405
20739085 24 17749670667411458082
21427221 339 18263923224720386976
21756936 100 17899446291782022676
22112679 90 18411973663601316125
23419403 2 17037468684761335120
23557571 272 17704355501977971671
23559900 14 17703521999645844996
23566358 27 18263361387459556954
34934 24 18410577258481397017
392239 28 18119248617106878296
4340502 62 17531263755185108609
474 4 17895197748576203168
6034566 193 16157391166908083676
6287921 2 18265046934331747386
633830 44 18115609143588176052
7097593 13 17975401430616489778
7808743 9 18060421291756821408

> <PUBCHEM_SHAPE_MULTIPOLES>
529.27
7.94
2.53
2.02
0.47
0.37
0.55
0.89
-1.89
0.65
-0.83
-0.86
-0.56
-2.77

> <PUBCHEM_SHAPE_SELFOVERLAP>
1244.308

> <PUBCHEM_SHAPE_VOLUME>
260.2

> <PUBCHEM_COORDINATE_TYPE>
2
5
10

$$$$
