10403711
  -OEChem-03292013303D

 39 42  0     1  0  0  0  0  0999 V2000
    0.7553    0.6163   -1.3485 O   0  0  0  0  0  0  0  0  0  0  0  0
    2.5334    2.0484    1.4241 O   0  0  0  0  0  0  0  0  0  0  0  0
    0.3868    3.2518    0.3009 O   0  0  0  0  0  0  0  0  0  0  0  0
    2.4954   -1.2614   -1.4094 O   0  0  0  0  0  0  0  0  0  0  0  0
    4.1065   -0.0581   -0.2433 N   0  0  0  0  0  0  0  0  0  0  0  0
   -1.3001    0.1049   -0.2623 N   0  0  0  0  0  0  0  0  0  0  0  0
   -2.0633   -1.9212    0.2773 N   0  0  0  0  0  0  0  0  0  0  0  0
   -3.3986    1.3254   -0.3595 N   0  0  0  0  0  0  0  0  0  0  0  0
   -5.2943   -0.1254    0.1479 N   0  0  0  0  0  0  0  0  0  0  0  0
   -5.0326   -2.4468    0.6677 N   0  0  0  0  0  0  0  0  0  0  0  0
    5.1185   -1.0757   -0.2424 C   0  0  0  0  0  0  0  0  0  0  0  0
    5.1222   -2.1500    0.7962 C   0  0  0  0  0  0  0  0  0  0  0  0
    6.1850   -1.0907    0.8042 C   0  0  0  0  0  0  0  0  0  0  0  0
    1.9773    0.9460   -0.6767 C   0  0  1  0  0  0  0  0  0  0  0  0
    1.6020    1.2128    0.7671 C   0  0  2  0  0  0  0  0  0  0  0  0
    0.2433    1.8690    0.6250 C   0  0  2  0  0  0  0  0  0  0  0  0
   -0.3460    1.1648   -0.5940 C   0  0  1  0  0  0  0  0  0  0  0  0
    2.8676   -0.2417   -0.8340 C   0  0  0  0  0  0  0  0  0  0  0  0
   -2.6590    0.2226   -0.1684 C   0  0  0  0  0  0  0  0  0  0  0  0
   -0.9922   -1.2022    0.0138 C   0  0  0  0  0  0  0  0  0  0  0  0
   -3.1122   -1.0432    0.1671 C   0  0  0  0  0  0  0  0  0  0  0  0
   -4.4857   -1.1978    0.3260 C   0  0  0  0  0  0  0  0  0  0  0  0
   -4.7092    1.0522   -0.1789 C   0  0  0  0  0  0  0  0  0  0  0  0
    5.4254   -1.3552   -1.2453 H   0  0  0  0  0  0  0  0  0  0  0  0
    5.4067   -3.1488    0.4892 H   0  0  0  0  0  0  0  0  0  0  0  0
    4.3739   -2.1173    1.5787 H   0  0  0  0  0  0  0  0  0  0  0  0
    6.1493   -0.3494    1.5932 H   0  0  0  0  0  0  0  0  0  0  0  0
    7.1852   -1.3776    0.5037 H   0  0  0  0  0  0  0  0  0  0  0  0
    2.4343    1.8137   -1.1667 H   0  0  0  0  0  0  0  0  0  0  0  0
    1.5138    0.2737    1.3272 H   0  0  0  0  0  0  0  0  0  0  0  0
   -0.3602    1.8012    1.5353 H   0  0  0  0  0  0  0  0  0  0  0  0
   -0.8724    1.8573   -1.2612 H   0  0  0  0  0  0  0  0  0  0  0  0
    4.3265    0.8278    0.2042 H   0  0  0  0  0  0  0  0  0  0  0  0
    2.1697    2.2570    2.3014 H   0  0  0  0  0  0  0  0  0  0  0  0
   -0.5074    3.6199    0.1972 H   0  0  0  0  0  0  0  0  0  0  0  0
    0.0220   -1.5765    0.0159 H   0  0  0  0  0  0  0  0  0  0  0  0
   -5.3863    1.8889   -0.3136 H   0  0  0  0  0  0  0  0  0  0  0  0
   -6.0338   -2.5339    0.7772 H   0  0  0  0  0  0  0  0  0  0  0  0
   -4.4313   -3.2485    0.8008 H   0  0  0  0  0  0  0  0  0  0  0  0
  1 14  1  0  0  0  0
  1 17  1  0  0  0  0
  2 15  1  0  0  0  0
  2 34  1  0  0  0  0
  3 16  1  0  0  0  0
  3 35  1  0  0  0  0
  4 18  2  0  0  0  0
  5 11  1  0  0  0  0
  5 18  1  0  0  0  0
  5 33  1  0  0  0  0
  6 17  1  0  0  0  0
  6 19  1  0  0  0  0
  6 20  1  0  0  0  0
  7 20  2  0  0  0  0
  7 21  1  0  0  0  0
  8 19  2  0  0  0  0
  8 23  1  0  0  0  0
  9 22  1  0  0  0  0
  9 23  2  0  0  0  0
 10 22  1  0  0  0  0
 10 38  1  0  0  0  0
 10 39  1  0  0  0  0
 11 12  1  0  0  0  0
 11 13  1  0  0  0  0
 11 24  1  0  0  0  0
 12 13  1  0  0  0  0
 12 25  1  0  0  0  0
 12 26  1  0  0  0  0
 13 27  1  0  0  0  0
 13 28  1  0  0  0  0
 14 15  1  0  0  0  0
 14 18  1  0  0  0  0
 14 29  1  0  0  0  0
 15 16  1  0  0  0  0
 15 30  1  0  0  0  0
 16 17  1  0  0  0  0
 16 31  1  0  0  0  0
 17 32  1  0  0  0  0
 19 21  1  0  0  0  0
 20 36  1  0  0  0  0
 21 22  2  0  0  0  0
 23 37  1  0  0  0  0
M  END
> <PUBCHEM_COMPOUND_CID>
10403711

> <PUBCHEM_CONFORMER_RMSD>
0.8

> <PUBCHEM_CONFORMER_DIVERSEORDER>
1
31
32
7
9
3
33
19
2
21
25
6
16
15
12
13
22
28
35
5
24
23
36
8
20
29
14
30
27
17
4
11
26
10
34
18

> <PUBCHEM_MMFF94_PARTIAL_CHARGES>
35
1 -0.56
10 -0.9
11 0.05
12 -0.2
13 -0.2
14 0.34
15 0.28
16 0.28
17 0.54
18 0.57
19 0.11
2 -0.68
20 0.04
21 0.23
22 0.41
23 0.47
24 0.1
25 0.1
26 0.1
27 0.1
28 0.1
3 -0.68
33 0.37
34 0.4
35 0.4
36 0.15
37 0.15
38 0.4
39 0.4
4 -0.57
5 -0.58
6 0.05
7 -0.57
8 -0.57
9 -0.62

> <PUBCHEM_EFFECTIVE_ROTOR_COUNT>
5.6

> <PUBCHEM_PHARMACOPHORE_FEATURES>
15
1 1 acceptor
1 10 cation
1 10 donor
1 2 acceptor
1 2 donor
1 3 acceptor
1 3 donor
1 4 acceptor
1 5 donor
3 6 7 20 cation
3 6 8 19 cation
3 8 9 23 cation
5 1 14 15 16 17 rings
5 6 7 19 20 21 rings
6 8 9 19 21 22 23 rings

> <PUBCHEM_HEAVY_ATOM_COUNT>
23

> <PUBCHEM_ATOM_DEF_STEREO_COUNT>
4

> <PUBCHEM_ATOM_UDEF_STEREO_COUNT>
0

> <PUBCHEM_BOND_DEF_STEREO_COUNT>
0

> <PUBCHEM_BOND_UDEF_STEREO_COUNT>
0

> <PUBCHEM_ISOTOPIC_ATOM_COUNT>
0

> <PUBCHEM_COMPONENT_COUNT>
1

> <PUBCHEM_CACTVS_TAUTO_COUNT>
6

> <PUBCHEM_CONFORMER_ID>
009EBF7F00000001

> <PUBCHEM_MMFF94_ENERGY>
51.1678

> <PUBCHEM_FEATURE_SELFOVERLAP>
76.754

> <PUBCHEM_SHAPE_FINGERPRINT>
10465860 250 18341613698368674628
10670039 82 9367073294038959594
11578080 2 13972860303274731819
11796584 16 18187923920262668962
12236239 1 17458349615238986316
12403259 226 18338515369702870421
12403260 363 18271807977770565333
12596602 18 14548729595305009174
12633257 1 17846217795266510406
12760667 363 18340199679471492158
12788726 201 18340502066833942536
13685833 64 18334860532147167035
13955234 65 18121507022665186368
14251751 18 18333732416169133182
14251764 18 18412268341660922473
14420673 8 18335702689382396819
14866123 147 17694799419093659083
15196674 1 18408044034671147151
15927050 60 17767963500583044620
17492 89 18120374526063051811
17804303 29 18336269024207292973
17980427 23 12607398910309415097
1813 80 17458617943563786924
18186145 218 13768218224107974452
19784866 135 18337948996227958832
19784866 140 15213297495971158028
20374829 77 18335421257296797447
20832881 197 18408887334409421265
21033648 29 16343128118096676106
21065201 7 18187075191996768257
21267235 1 18334304162131265131
21279426 13 18051976917900884933
21637258 2 17676479554094483954
23402539 116 18201151075304440325
23559900 14 18410852200296009073
26918003 58 18412824655715830844
3004659 81 18187090533894301814
316301 35 18264208187000097499
335352 9 18409729539564388013
3411729 13 18058444486652999584
3421961 26 18341330093399532104
3886686 26 16897067351060562178
4409770 3 17970901164269239701
465052 167 18343586244278747726
474 4 13398619576812232802
5104073 3 18271535298707509939
559249 180 18114458968373402867
59682541 35 18342164597740973498
7226269 152 18268709415816063385
8863177 126 18190471651897555803
9709674 26 18193839481999001643
9981440 41 15871429125862038988

> <PUBCHEM_SHAPE_MULTIPOLES>
419.97
12.42
2.53
1.01
4.27
0.56
-0.05
-8.05
2.13
-0.2
0.72
0.81
0.11
0.47

> <PUBCHEM_SHAPE_SELFOVERLAP>
915.14

> <PUBCHEM_SHAPE_VOLUME>
225

> <PUBCHEM_COORDINATE_TYPE>
2
5
10

$$$$
