10413492
  -OEChem-03292013303D

 71 73  0     1  0  0  0  0  0999 V2000
   -3.1550   -0.9676   -0.6131 O   0  0  0  0  0  0  0  0  0  0  0  0
   -4.3982    1.0176   -0.6019 O   0  0  0  0  0  0  0  0  0  0  0  0
    0.4171   -0.6151   -1.4210 O   0  0  0  0  0  0  0  0  0  0  0  0
   -5.8257    0.1180    2.5704 O   0  0  0  0  0  0  0  0  0  0  0  0
   -5.8559   -1.4725   -0.7035 O   0  0  0  0  0  0  0  0  0  0  0  0
   -1.8954   -0.8960    1.9848 O   0  0  0  0  0  0  0  0  0  0  0  0
    2.8904   -3.3063    0.3397 O   0  0  0  0  0  0  0  0  0  0  0  0
    6.0536    1.9102    0.5293 O   0  0  0  0  0  0  0  0  0  0  0  0
   -7.4348    1.0217   -0.6186 N   0  0  0  0  0  0  0  0  0  0  0  0
    2.3714   -1.1440   -0.2937 N   0  0  0  0  0  0  0  0  0  0  0  0
    4.6324   -1.8574    0.1620 N   0  0  0  0  0  0  0  0  0  0  0  0
    6.3416   -0.3192   -0.0430 N   0  0  0  0  0  0  0  0  0  0  0  0
   -6.5706    1.2394    0.5494 C   0  0  1  0  0  0  0  0  0  0  0  0
   -6.3087   -0.1095    1.2467 C   0  0  1  0  0  0  0  0  0  0  0  0
   -1.7944   -0.5997   -0.4011 C   0  0  1  0  0  0  0  0  0  0  0  0
   -5.2811   -0.9642    0.5001 C   0  0  2  0  0  0  0  0  0  0  0  0
   -4.0398   -0.1436    0.1445 C   0  0  1  0  0  0  0  0  0  0  0  0
   -5.2714    1.9282    0.0776 C   0  0  1  0  0  0  0  0  0  0  0  0
   -1.2435   -1.3616    0.8061 C   0  0  1  0  0  0  0  0  0  0  0  0
   -0.9662   -0.8924   -1.6589 C   0  0  1  0  0  0  0  0  0  0  0  0
    0.2612   -1.1437    0.9377 C   0  0  0  0  0  0  0  0  0  0  0  0
    0.9644   -1.4280   -0.3840 C   0  0  1  0  0  0  0  0  0  0  0  0
   -4.5311    2.6644    1.1962 C   0  0  0  0  0  0  0  0  0  0  0  0
   -1.4125   -0.0343   -2.8380 C   0  0  0  0  0  0  0  0  0  0  0  0
   -7.6991    2.2878   -1.2992 C   0  0  0  0  0  0  0  0  0  0  0  0
   -8.6870    0.3857   -0.2136 C   0  0  0  0  0  0  0  0  0  0  0  0
    2.8453    0.1312   -0.5757 C   0  0  0  0  0  0  0  0  0  0  0  0
    3.2829   -2.1665    0.0843 C   0  0  0  0  0  0  0  0  0  0  0  0
    4.1370    0.4551   -0.5094 C   0  0  0  0  0  0  0  0  0  0  0  0
    5.0156   -0.6548   -0.1115 C   0  0  0  0  0  0  0  0  0  0  0  0
    6.7835    0.9536    0.2759 C   0  0  0  0  0  0  0  0  0  0  0  0
    8.2827    1.0798    0.2946 C   0  0  0  0  0  0  0  0  0  0  0  0
    9.1078   -0.1003    0.7146 C   0  0  0  0  0  0  0  0  0  0  0  0
    8.7718    2.2921   -0.0278 C   0  0  0  0  0  0  0  0  0  0  0  0
   10.2115    2.6920   -0.0998 C   0  0  0  0  0  0  0  0  0  0  0  0
   -7.0755    1.9109    1.2590 H   0  0  0  0  0  0  0  0  0  0  0  0
   -7.2190   -0.6900    1.4022 H   0  0  0  0  0  0  0  0  0  0  0  0
   -1.7262    0.4799   -0.1979 H   0  0  0  0  0  0  0  0  0  0  0  0
   -4.9810   -1.8313    1.0992 H   0  0  0  0  0  0  0  0  0  0  0  0
   -3.5746    0.1879    1.0716 H   0  0  0  0  0  0  0  0  0  0  0  0
   -5.4544    2.7304   -0.6378 H   0  0  0  0  0  0  0  0  0  0  0  0
   -1.4714   -2.4299    0.7089 H   0  0  0  0  0  0  0  0  0  0  0  0
   -1.0777   -1.9446   -1.9522 H   0  0  0  0  0  0  0  0  0  0  0  0
    0.6640   -1.7694    1.7437 H   0  0  0  0  0  0  0  0  0  0  0  0
    0.4399   -0.1056    1.2506 H   0  0  0  0  0  0  0  0  0  0  0  0
    0.8320   -2.4820   -0.6597 H   0  0  0  0  0  0  0  0  0  0  0  0
   -4.2452    2.0101    2.0230 H   0  0  0  0  0  0  0  0  0  0  0  0
   -3.6024    3.1004    0.8114 H   0  0  0  0  0  0  0  0  0  0  0  0
   -5.1489    3.4703    1.6052 H   0  0  0  0  0  0  0  0  0  0  0  0
   -1.2949    1.0315   -2.6131 H   0  0  0  0  0  0  0  0  0  0  0  0
   -0.7890   -0.2400   -3.7150 H   0  0  0  0  0  0  0  0  0  0  0  0
   -2.4569   -0.2239   -3.1032 H   0  0  0  0  0  0  0  0  0  0  0  0
   -5.6849   -0.7483    2.9890 H   0  0  0  0  0  0  0  0  0  0  0  0
   -6.0393   -0.7190   -1.2899 H   0  0  0  0  0  0  0  0  0  0  0  0
   -8.5511    2.1894   -1.9845 H   0  0  0  0  0  0  0  0  0  0  0  0
   -7.9393    3.1045   -0.6087 H   0  0  0  0  0  0  0  0  0  0  0  0
   -6.8775    2.5819   -1.9592 H   0  0  0  0  0  0  0  0  0  0  0  0
   -8.5712   -0.6867   -0.0323 H   0  0  0  0  0  0  0  0  0  0  0  0
   -9.4235    0.4302   -1.0261 H   0  0  0  0  0  0  0  0  0  0  0  0
   -9.1431    0.8636    0.6610 H   0  0  0  0  0  0  0  0  0  0  0  0
   -1.5280   -1.3910    2.7369 H   0  0  0  0  0  0  0  0  0  0  0  0
    2.1233    0.8802   -0.8806 H   0  0  0  0  0  0  0  0  0  0  0  0
    4.4538    1.4237   -0.8629 H   0  0  0  0  0  0  0  0  0  0  0  0
    7.0005   -1.0916   -0.0326 H   0  0  0  0  0  0  0  0  0  0  0  0
    8.6197   -0.6429    1.5318 H   0  0  0  0  0  0  0  0  0  0  0  0
   10.0925    0.1888    1.0918 H   0  0  0  0  0  0  0  0  0  0  0  0
    9.2524   -0.7869   -0.1255 H   0  0  0  0  0  0  0  0  0  0  0  0
    8.0845    3.0929   -0.2962 H   0  0  0  0  0  0  0  0  0  0  0  0
   10.9032    1.8510   -0.0154 H   0  0  0  0  0  0  0  0  0  0  0  0
   10.4069    3.1766   -1.0621 H   0  0  0  0  0  0  0  0  0  0  0  0
   10.4382    3.4098    0.6943 H   0  0  0  0  0  0  0  0  0  0  0  0
  1 15  1  0  0  0  0
  1 17  1  0  0  0  0
  2 17  1  0  0  0  0
  2 18  1  0  0  0  0
  3 20  1  0  0  0  0
  3 22  1  0  0  0  0
  4 14  1  0  0  0  0
  4 53  1  0  0  0  0
  5 16  1  0  0  0  0
  5 54  1  0  0  0  0
  6 19  1  0  0  0  0
  6 61  1  0  0  0  0
  7 28  2  0  0  0  0
  8 31  2  0  0  0  0
  9 13  1  0  0  0  0
  9 25  1  0  0  0  0
  9 26  1  0  0  0  0
 10 22  1  0  0  0  0
 10 27  1  0  0  0  0
 10 28  1  0  0  0  0
 11 28  1  0  0  0  0
 11 30  2  0  0  0  0
 12 30  1  0  0  0  0
 12 31  1  0  0  0  0
 12 64  1  0  0  0  0
 13 14  1  0  0  0  0
 13 18  1  0  0  0  0
 13 36  1  0  0  0  0
 14 16  1  0  0  0  0
 14 37  1  0  0  0  0
 15 19  1  0  0  0  0
 15 20  1  0  0  0  0
 15 38  1  0  0  0  0
 16 17  1  0  0  0  0
 16 39  1  0  0  0  0
 17 40  1  0  0  0  0
 18 23  1  0  0  0  0
 18 41  1  0  0  0  0
 19 21  1  0  0  0  0
 19 42  1  0  0  0  0
 20 24  1  0  0  0  0
 20 43  1  0  0  0  0
 21 22  1  0  0  0  0
 21 44  1  0  0  0  0
 21 45  1  0  0  0  0
 22 46  1  0  0  0  0
 23 47  1  0  0  0  0
 23 48  1  0  0  0  0
 23 49  1  0  0  0  0
 24 50  1  0  0  0  0
 24 51  1  0  0  0  0
 24 52  1  0  0  0  0
 25 55  1  0  0  0  0
 25 56  1  0  0  0  0
 25 57  1  0  0  0  0
 26 58  1  0  0  0  0
 26 59  1  0  0  0  0
 26 60  1  0  0  0  0
 27 29  2  0  0  0  0
 27 62  1  0  0  0  0
 29 30  1  0  0  0  0
 29 63  1  0  0  0  0
 31 32  1  0  0  0  0
 32 33  1  0  0  0  0
 32 34  2  0  0  0  0
 33 65  1  0  0  0  0
 33 66  1  0  0  0  0
 33 67  1  0  0  0  0
 34 35  1  0  0  0  0
 34 68  1  0  0  0  0
 35 69  1  0  0  0  0
 35 70  1  0  0  0  0
 35 71  1  0  0  0  0
M  END
> <PUBCHEM_COMPOUND_CID>
10413492

> <PUBCHEM_CONFORMER_RMSD>
1

> <PUBCHEM_CONFORMER_DIVERSEORDER>
1
67
43
57
93
69
41
68
90
70
79
26
55
75
8
7
73
25
42
85
56
9
28
22
24
37
88
18
45
96
61
91
4
11
44
77
84
71
94
36
53
12
46
58
40
38
29
31
81
92
47
32
59
15
89
19
10
50
35
64
83
76
14
66
30
6
13
87
74
51
20
78
60
63
48
33
95
2
65
62
16
39
34
52
82
23
54
21
86
3
27
72
80
49
5
17

> <PUBCHEM_MMFF94_PARTIAL_CHARGES>
39
1 -0.56
10 -0.47
11 -0.66
12 -0.49
13 0.27
14 0.28
15 0.28
16 0.28
17 0.56
18 0.28
19 0.28
2 -0.56
20 0.28
22 0.58
25 0.27
26 0.27
27 -0.04
28 0.84
29 -0.14
3 -0.56
30 0.5
31 0.62
32 -0.12
33 0.14
34 -0.29
35 0.14
4 -0.68
5 -0.68
53 0.4
54 0.4
6 -0.68
61 0.4
62 0.15
63 0.15
64 0.37
68 0.15
7 -0.57
8 -0.57
9 -0.81

> <PUBCHEM_EFFECTIVE_ROTOR_COUNT>
9.4

> <PUBCHEM_PHARMACOPHORE_FEATURES>
19
1 1 acceptor
1 11 donor
1 12 donor
1 2 acceptor
1 3 acceptor
1 33 hydrophobe
1 35 hydrophobe
1 4 acceptor
1 4 donor
1 5 acceptor
1 5 donor
1 6 acceptor
1 6 donor
1 7 acceptor
1 8 acceptor
1 9 cation
6 10 11 27 28 29 30 rings
6 2 13 14 16 17 18 rings
6 3 15 19 20 21 22 rings

> <PUBCHEM_HEAVY_ATOM_COUNT>
35

> <PUBCHEM_ATOM_DEF_STEREO_COUNT>
9

> <PUBCHEM_ATOM_UDEF_STEREO_COUNT>
0

> <PUBCHEM_BOND_DEF_STEREO_COUNT>
1

> <PUBCHEM_BOND_UDEF_STEREO_COUNT>
0

> <PUBCHEM_ISOTOPIC_ATOM_COUNT>
0

> <PUBCHEM_COMPONENT_COUNT>
1

> <PUBCHEM_CACTVS_TAUTO_COUNT>
4

> <PUBCHEM_CONFORMER_ID>
009EE5B400000001

> <PUBCHEM_MMFF94_ENERGY>
121.3435

> <PUBCHEM_FEATURE_SELFOVERLAP>
96.529

> <PUBCHEM_SHAPE_FINGERPRINT>
10 15 18113898260635295280
10670039 82 15554455076065389395
10930396 42 16660357103950394636
11135609 201 18408598167805620672
11315181 36 18131352999890620467
11386260 185 13901897934972905370
11578821 258 18410854335438775981
11991303 11 16415186901988005023
12522641 68 18201719587378556950
12741549 16 14634870847707395567
13248334 5 18195529182596288246
13540713 5 14762968254777208358
13668630 136 9727634999261993110
13726171 33 17844540907359951001
13911987 19 16773796983438045751
14849402 71 18337109072867015260
14931854 50 13614250274160992590
15131766 46 18271515520583818204
15183329 4 17489586744968695329
15198563 99 14261360107131003803
15289351 153 18342173320524152232
15320294 125 12901546857978507592
15347590 135 16732975423871422792
15352257 5 8502655904875743224
15461852 350 17131826599619872181
1577012 14 18131345328694232982
16989713 51 16844434115716781639
17686467 74 18271237340068608499
1818759 1 11530481104313262416
18603816 31 12685098132959358321
19315958 150 18335704918575976650
19841028 212 8357999766149484460
20105231 36 11527939089670958829
2026 5 9007057959203326857
20505436 4 18202277022820615534
20691028 202 18266457810394381172
21130935 74 18040715836206779058
21150785 3 16702299044833859725
21267235 1 8862946078699960650
21307412 95 13038902270236973948
23576562 1 16414615203260462857
24771293 8 18040434416789641390
306946 40 17458612395009275725
3383291 50 13984662555656149016
3711267 37 18342186591736629144
4073 2 18334298673258519971
4093350 32 18202566147423963902
4169191 19 18202567259081527961
4403749 210 18410012178034831955
44802255 64 17489870453265239903
4516262 110 18412819175516942078
5080951 261 16806161198085528219
5104073 3 17096354039335906738
5385378 56 18259981553694112450
54039377 194 9439396948236299757
5758199 1 18408322211957227078
6201320 82 17559976324228989593
636775 72 18333731304121218053
6691757 9 15864348103411873346
9689198 14 18201725067977313326
9953998 17 17603585235912822655
9962374 69 13551480314714091154

> <PUBCHEM_SHAPE_MULTIPOLES>
653.41
30.7
2.59
1.52
35.43
0.52
-0.26
24.17
3.67
2.19
0.21
-2.45
-0.03
0.24

> <PUBCHEM_SHAPE_SELFOVERLAP>
1356.784

> <PUBCHEM_SHAPE_VOLUME>
366.8

> <PUBCHEM_COORDINATE_TYPE>
2
5
10

$$$$
