10412012
  -OEChem-03292013303D

 49 54  0     1  0  0  0  0  0999 V2000
    0.0074   -1.5391   -2.2084 S   0  0  0  0  0  0  0  0  0  0  0  0
   -1.0247    0.2416   -2.4470 S   0  0  0  0  0  0  0  0  0  0  0  0
    0.6690    2.1304    0.0538 O   0  0  0  0  0  0  0  0  0  0  0  0
   -1.4089   -2.5140    0.9117 O   0  0  0  0  0  0  0  0  0  0  0  0
    3.1734    1.7604   -0.7264 O   0  0  0  0  0  0  0  0  0  0  0  0
   -3.9821   -2.3710    0.2976 O   0  0  0  0  0  0  0  0  0  0  0  0
    4.9299   -1.7852    0.9571 O   0  0  0  0  0  0  0  0  0  0  0  0
   -5.6253    1.5518    0.9317 O   0  0  0  0  0  0  0  0  0  0  0  0
    4.1104    1.7615    1.3853 O   0  0  0  0  0  0  0  0  0  0  0  0
    0.9637   -0.1823   -0.0570 N   0  0  0  0  0  0  0  0  0  0  0  0
   -1.7489   -0.3506    0.1041 N   0  0  0  0  0  0  0  0  0  0  0  0
    0.3436   -1.4588   -0.4027 C   0  0  2  0  0  0  0  0  0  0  0  0
   -1.1847    0.7414   -0.6851 C   0  0  2  0  0  0  0  0  0  0  0  0
    2.3921   -0.2880    0.2758 C   0  0  1  0  0  0  0  0  0  0  0  0
   -3.1406   -0.1231    0.5213 C   0  0  1  0  0  0  0  0  0  0  0  0
    1.3161   -2.5317    0.0823 C   0  0  0  0  0  0  0  0  0  0  0  0
   -2.1228    1.9274   -0.4730 C   0  0  0  0  0  0  0  0  0  0  0  0
    0.2315    1.0029   -0.1549 C   0  0  0  0  0  0  0  0  0  0  0  0
   -1.0111   -1.5172    0.3162 C   0  0  0  0  0  0  0  0  0  0  0  0
    2.5817   -1.7767    0.3738 C   0  0  0  0  0  0  0  0  0  0  0  0
   -3.3430    1.3230    0.1612 C   0  0  0  0  0  0  0  0  0  0  0  0
    3.3135    0.3373   -0.7934 C   0  0  2  0  0  0  0  0  0  0  0  0
   -4.1498   -1.0401   -0.2025 C   0  0  2  0  0  0  0  0  0  0  0  0
    3.7302   -2.3856    0.6879 C   0  0  0  0  0  0  0  0  0  0  0  0
   -4.4659    2.0177    0.3742 C   0  0  0  0  0  0  0  0  0  0  0  0
    4.7882    0.0623   -0.6565 C   0  0  0  0  0  0  0  0  0  0  0  0
   -5.6089   -0.7131   -0.0207 C   0  0  0  0  0  0  0  0  0  0  0  0
    5.4280   -0.8232    0.1203 C   0  0  0  0  0  0  0  0  0  0  0  0
   -6.1857    0.3826    0.4926 C   0  0  0  0  0  0  0  0  0  0  0  0
    3.6159    2.3385    0.4262 C   0  0  0  0  0  0  0  0  0  0  0  0
    3.4079    3.8209    0.3547 C   0  0  0  0  0  0  0  0  0  0  0  0
    2.4819    0.1590    1.2691 H   0  0  0  0  0  0  0  0  0  0  0  0
   -3.1681   -0.2796    1.6066 H   0  0  0  0  0  0  0  0  0  0  0  0
    1.4800   -3.3264   -0.6538 H   0  0  0  0  0  0  0  0  0  0  0  0
    0.9788   -3.0032    1.0128 H   0  0  0  0  0  0  0  0  0  0  0  0
   -2.3683    2.4520   -1.4029 H   0  0  0  0  0  0  0  0  0  0  0  0
   -1.7055    2.6631    0.2246 H   0  0  0  0  0  0  0  0  0  0  0  0
    2.9977    0.0357   -1.7991 H   0  0  0  0  0  0  0  0  0  0  0  0
   -3.9353   -1.0777   -1.2769 H   0  0  0  0  0  0  0  0  0  0  0  0
    3.8182   -3.4585    0.8005 H   0  0  0  0  0  0  0  0  0  0  0  0
   -4.5593    3.0723    0.1495 H   0  0  0  0  0  0  0  0  0  0  0  0
    5.4272    0.6951   -1.2737 H   0  0  0  0  0  0  0  0  0  0  0  0
   -6.2911   -1.5036   -0.3345 H   0  0  0  0  0  0  0  0  0  0  0  0
   -4.1207   -2.3520    1.2603 H   0  0  0  0  0  0  0  0  0  0  0  0
    6.5107   -0.8619    0.1508 H   0  0  0  0  0  0  0  0  0  0  0  0
   -7.2610    0.4446    0.6143 H   0  0  0  0  0  0  0  0  0  0  0  0
    2.3626    4.0664    0.5500 H   0  0  0  0  0  0  0  0  0  0  0  0
    3.7114    4.1967   -0.6263 H   0  0  0  0  0  0  0  0  0  0  0  0
    4.0365    4.3074    1.1063 H   0  0  0  0  0  0  0  0  0  0  0  0
  1  2  1  0  0  0  0
  1 12  1  0  0  0  0
  2 13  1  0  0  0  0
  3 18  2  0  0  0  0
  4 19  2  0  0  0  0
  5 22  1  0  0  0  0
  5 30  1  0  0  0  0
  6 23  1  0  0  0  0
  6 44  1  0  0  0  0
  7 24  1  0  0  0  0
  7 28  1  0  0  0  0
  8 25  1  0  0  0  0
  8 29  1  0  0  0  0
  9 30  2  0  0  0  0
 10 12  1  0  0  0  0
 10 14  1  0  0  0  0
 10 18  1  0  0  0  0
 11 13  1  0  0  0  0
 11 15  1  0  0  0  0
 11 19  1  0  0  0  0
 12 16  1  0  0  0  0
 12 19  1  0  0  0  0
 13 17  1  0  0  0  0
 13 18  1  0  0  0  0
 14 20  1  0  0  0  0
 14 22  1  0  0  0  0
 14 32  1  0  0  0  0
 15 21  1  0  0  0  0
 15 23  1  0  0  0  0
 15 33  1  0  0  0  0
 16 20  1  0  0  0  0
 16 34  1  0  0  0  0
 16 35  1  0  0  0  0
 17 21  1  0  0  0  0
 17 36  1  0  0  0  0
 17 37  1  0  0  0  0
 20 24  2  0  0  0  0
 21 25  2  0  0  0  0
 22 26  1  0  0  0  0
 22 38  1  0  0  0  0
 23 27  1  0  0  0  0
 23 39  1  0  0  0  0
 24 40  1  0  0  0  0
 25 41  1  0  0  0  0
 26 28  2  0  0  0  0
 26 42  1  0  0  0  0
 27 29  2  0  0  0  0
 27 43  1  0  0  0  0
 28 45  1  0  0  0  0
 29 46  1  0  0  0  0
 30 31  1  0  0  0  0
 31 47  1  0  0  0  0
 31 48  1  0  0  0  0
 31 49  1  0  0  0  0
M  END
> <PUBCHEM_COMPOUND_CID>
10412012

> <PUBCHEM_CONFORMER_RMSD>
0.8

> <PUBCHEM_CONFORMER_DIVERSEORDER>
1
3
2

> <PUBCHEM_MMFF94_PARTIAL_CHARGES>
38
1 -0.23
10 -0.66
11 -0.66
12 0.59
13 0.59
14 0.44
15 0.44
16 0.14
17 0.14
18 0.57
19 0.57
2 -0.23
20 -0.28
21 -0.28
22 0.42
23 0.42
24 -0.07
25 -0.07
26 -0.29
27 -0.29
28 -0.07
29 -0.07
3 -0.57
30 0.66
31 0.06
4 -0.57
40 0.15
41 0.15
42 0.15
43 0.15
44 0.4
45 0.15
46 0.15
5 -0.43
6 -0.68
7 -0.15
8 -0.15
9 -0.57

> <PUBCHEM_EFFECTIVE_ROTOR_COUNT>
3.6

> <PUBCHEM_PHARMACOPHORE_FEATURES>
12
1 3 acceptor
1 4 acceptor
1 6 acceptor
1 6 donor
1 7 acceptor
1 8 acceptor
1 9 acceptor
5 10 12 14 16 20 rings
5 11 13 15 17 21 rings
7 7 14 20 22 24 26 28 rings
7 8 15 21 23 25 27 29 rings
8 1 2 10 11 12 13 18 19 rings

> <PUBCHEM_HEAVY_ATOM_COUNT>
31

> <PUBCHEM_ATOM_DEF_STEREO_COUNT>
6

> <PUBCHEM_ATOM_UDEF_STEREO_COUNT>
0

> <PUBCHEM_BOND_DEF_STEREO_COUNT>
0

> <PUBCHEM_BOND_UDEF_STEREO_COUNT>
0

> <PUBCHEM_ISOTOPIC_ATOM_COUNT>
0

> <PUBCHEM_COMPONENT_COUNT>
1

> <PUBCHEM_CACTVS_TAUTO_COUNT>
1

> <PUBCHEM_CONFORMER_ID>
009EDFEC00000001

> <PUBCHEM_MMFF94_ENERGY>
117.0975

> <PUBCHEM_FEATURE_SELFOVERLAP>
61.103

> <PUBCHEM_SHAPE_FINGERPRINT>
10165383 225 18114473348588555276
10863032 1 18409730659944144951
10906281 52 18265072287497061547
1100329 8 18410010996596104522
11045977 3 18333454218241725123
11578080 2 17201902942250113634
12011746 2 18335423473732160927
12107183 9 17689155604475633913
12236239 1 17989204841246018327
12403259 118 18200867383950420849
12633257 1 18336266743247433955
12788726 201 17561095695706050480
12925494 130 18195238911209797697
13140716 1 18409726275135859826
13583140 156 18263349318194721525
13782708 43 17168702999571122890
14341114 176 18337957766271459226
14341114 328 18339646637822817915
14787075 74 18261676986857961067
14790565 3 18340773731799257573
14849402 71 18408323320095972584
14955137 171 18129661886118556166
15196674 1 18410576214471683857
15849732 13 17846215519529923118
17349148 13 17095529512925947399
17980427 23 18409173190869946143
1813 80 16588026818407224421
18681886 176 18272086085408909738
19591789 44 18410855507573281700
20691752 17 17240199941098771882
21033648 144 18335692883950448189
21033648 29 17313373522601915053
21133410 127 17823411780945260748
21267235 1 18335991878125463674
21756936 100 18057596771376790468
21859007 373 17533492332306297133
22182313 1 17459450230667979253
23559900 14 18410853256941820978
335352 9 18409451362389207686
34797466 226 17632305587911235983
3493558 16 17915187818930447881
350125 39 18335139795742967926
3633792 109 18335125472686523149
3680242 22 18263650558489751818
392239 28 18338525144779255361
4073 2 18115594879743154176
4093350 32 17132115754473166244
4340502 62 18409452509430234121
5104073 3 18409171017400262067
5265222 85 17474393951496492200

> <PUBCHEM_SHAPE_MULTIPOLES>
594.62
11.94
3.25
1.3
6.26
1.28
0.87
1.72
-3.52
-2.37
-0.69
-0.06
-0.23
-0.26

> <PUBCHEM_SHAPE_SELFOVERLAP>
1300.946

> <PUBCHEM_SHAPE_VOLUME>
320.5

> <PUBCHEM_COORDINATE_TYPE>
2
5
10

$$$$
