10411087
  -OEChem-03292013303D

 62 64  0     1  0  0  0  0  0999 V2000
   -0.7336    2.0052   -0.5030 O   0  0  0  0  0  0  0  0  0  0  0  0
    4.0465   -1.0718    0.3376 O   0  0  0  0  0  0  0  0  0  0  0  0
   -5.1191   -1.9612    0.2802 O   0  0  0  0  0  0  0  0  0  0  0  0
    1.5269    0.9712    2.7608 O   0  0  0  0  0  0  0  0  0  0  0  0
   -6.7219    0.2730   -0.0104 O   0  0  0  0  0  0  0  0  0  0  0  0
    3.6497    1.9226    1.5897 O   0  0  0  0  0  0  0  0  0  0  0  0
    3.0215    3.9300   -2.6659 O   0  0  0  0  0  0  0  0  0  0  0  0
    4.1446   -2.4958    0.2723 C   0  0  0  0  0  0  0  0  0  0  0  0
    2.7529   -3.0940    0.5599 C   0  0  0  0  0  0  0  0  0  0  0  0
   -1.0986    0.8842    0.3173 C   0  0  2  0  0  0  0  0  0  0  0  0
    1.6748   -2.7168   -0.4653 C   0  0  0  0  0  0  0  0  0  0  0  0
   -2.5987    0.6969    0.2319 C   0  0  0  0  0  0  0  0  0  0  0  0
    0.3320   -3.3725   -0.1199 C   0  0  0  0  0  0  0  0  0  0  0  0
   -0.6511    1.0940    1.7625 C   0  0  0  0  0  0  0  0  0  0  0  0
   -3.1773   -0.5639    0.2957 C   0  0  0  0  0  0  0  0  0  0  0  0
   -2.3019   -1.7815    0.4544 C   0  0  0  0  0  0  0  0  0  0  0  0
   -0.7389   -3.0437   -1.1362 C   0  0  0  0  0  0  0  0  0  0  0  0
    5.1317   -2.9497    1.3528 C   0  0  0  0  0  0  0  0  0  0  0  0
    4.6719   -2.8842   -1.1114 C   0  0  0  0  0  0  0  0  0  0  0  0
   -1.8705   -2.3644   -0.8627 C   0  0  0  0  0  0  0  0  0  0  0  0
    0.8435    1.2816    1.7924 C   0  0  0  0  0  0  0  0  0  0  0  0
    1.4369    1.9333    0.6066 C   0  0  0  0  0  0  0  0  0  0  0  0
    0.6094    2.2786   -0.4660 C   0  0  0  0  0  0  0  0  0  0  0  0
   -3.4123    1.8204    0.0853 C   0  0  0  0  0  0  0  0  0  0  0  0
   -4.5546   -0.7213    0.2158 C   0  0  0  0  0  0  0  0  0  0  0  0
   -0.4689   -3.5286   -2.5371 C   0  0  0  0  0  0  0  0  0  0  0  0
   -5.3680    0.4023    0.0692 C   0  0  0  0  0  0  0  0  0  0  0  0
   -4.7969    1.6732    0.0040 C   0  0  0  0  0  0  0  0  0  0  0  0
    2.7995    2.2403    0.5740 C   0  0  0  0  0  0  0  0  0  0  0  0
    1.1408    2.9633   -1.5597 C   0  0  0  0  0  0  0  0  0  0  0  0
    2.5010    3.2721   -1.5936 C   0  0  0  0  0  0  0  0  0  0  0  0
    3.3289    2.9070   -0.5316 C   0  0  0  0  0  0  0  0  0  0  0  0
    2.4127   -2.7549    1.5476 H   0  0  0  0  0  0  0  0  0  0  0  0
    2.8313   -4.1879    0.6071 H   0  0  0  0  0  0  0  0  0  0  0  0
   -0.5874    0.0217   -0.1261 H   0  0  0  0  0  0  0  0  0  0  0  0
    1.9950   -3.0450   -1.4587 H   0  0  0  0  0  0  0  0  0  0  0  0
    1.5573   -1.6269   -0.5010 H   0  0  0  0  0  0  0  0  0  0  0  0
    0.4538   -4.4630   -0.0894 H   0  0  0  0  0  0  0  0  0  0  0  0
    0.0364   -3.0801    0.8924 H   0  0  0  0  0  0  0  0  0  0  0  0
   -0.9106    0.2346    2.3888 H   0  0  0  0  0  0  0  0  0  0  0  0
   -1.1033    1.9927    2.1990 H   0  0  0  0  0  0  0  0  0  0  0  0
   -1.4553   -1.5683    1.1109 H   0  0  0  0  0  0  0  0  0  0  0  0
   -2.8604   -2.5572    0.9949 H   0  0  0  0  0  0  0  0  0  0  0  0
    6.1099   -2.4762    1.2103 H   0  0  0  0  0  0  0  0  0  0  0  0
    4.7876   -2.6501    2.3495 H   0  0  0  0  0  0  0  0  0  0  0  0
    5.2670   -4.0361    1.3450 H   0  0  0  0  0  0  0  0  0  0  0  0
    4.6728   -3.9696   -1.2531 H   0  0  0  0  0  0  0  0  0  0  0  0
    5.6969   -2.5196   -1.2479 H   0  0  0  0  0  0  0  0  0  0  0  0
    4.0863   -2.4197   -1.9115 H   0  0  0  0  0  0  0  0  0  0  0  0
   -2.5712   -2.2162   -1.6847 H   0  0  0  0  0  0  0  0  0  0  0  0
   -2.9962    2.8234    0.0464 H   0  0  0  0  0  0  0  0  0  0  0  0
   -0.1882   -4.5871   -2.5275 H   0  0  0  0  0  0  0  0  0  0  0  0
   -1.3493   -3.4348   -3.1824 H   0  0  0  0  0  0  0  0  0  0  0  0
    0.3380   -2.9539   -3.0014 H   0  0  0  0  0  0  0  0  0  0  0  0
    3.7172   -0.8318    1.2206 H   0  0  0  0  0  0  0  0  0  0  0  0
   -5.4192    2.5572   -0.1067 H   0  0  0  0  0  0  0  0  0  0  0  0
    0.4937    3.2445   -2.3871 H   0  0  0  0  0  0  0  0  0  0  0  0
    4.3884    3.1500   -0.5639 H   0  0  0  0  0  0  0  0  0  0  0  0
   -6.0844   -1.8639    0.2067 H   0  0  0  0  0  0  0  0  0  0  0  0
   -7.1192    1.1553   -0.1094 H   0  0  0  0  0  0  0  0  0  0  0  0
    3.1913    1.4006    2.2658 H   0  0  0  0  0  0  0  0  0  0  0  0
    2.3095    4.1040   -3.3054 H   0  0  0  0  0  0  0  0  0  0  0  0
  1 10  1  0  0  0  0
  1 23  1  0  0  0  0
  2  8  1  0  0  0  0
  2 55  1  0  0  0  0
  3 25  1  0  0  0  0
  3 59  1  0  0  0  0
  4 21  2  0  0  0  0
  5 27  1  0  0  0  0
  5 60  1  0  0  0  0
  6 29  1  0  0  0  0
  6 61  1  0  0  0  0
  7 31  1  0  0  0  0
  7 62  1  0  0  0  0
  8  9  1  0  0  0  0
  8 18  1  0  0  0  0
  8 19  1  0  0  0  0
  9 11  1  0  0  0  0
  9 33  1  0  0  0  0
  9 34  1  0  0  0  0
 10 12  1  0  0  0  0
 10 14  1  0  0  0  0
 10 35  1  0  0  0  0
 11 13  1  0  0  0  0
 11 36  1  0  0  0  0
 11 37  1  0  0  0  0
 12 15  2  0  0  0  0
 12 24  1  0  0  0  0
 13 17  1  0  0  0  0
 13 38  1  0  0  0  0
 13 39  1  0  0  0  0
 14 21  1  0  0  0  0
 14 40  1  0  0  0  0
 14 41  1  0  0  0  0
 15 16  1  0  0  0  0
 15 25  1  0  0  0  0
 16 20  1  0  0  0  0
 16 42  1  0  0  0  0
 16 43  1  0  0  0  0
 17 20  2  0  0  0  0
 17 26  1  0  0  0  0
 18 44  1  0  0  0  0
 18 45  1  0  0  0  0
 18 46  1  0  0  0  0
 19 47  1  0  0  0  0
 19 48  1  0  0  0  0
 19 49  1  0  0  0  0
 20 50  1  0  0  0  0
 21 22  1  0  0  0  0
 22 23  1  0  0  0  0
 22 29  2  0  0  0  0
 23 30  2  0  0  0  0
 24 28  2  0  0  0  0
 24 51  1  0  0  0  0
 25 27  2  0  0  0  0
 26 52  1  0  0  0  0
 26 53  1  0  0  0  0
 26 54  1  0  0  0  0
 27 28  1  0  0  0  0
 28 56  1  0  0  0  0
 29 32  1  0  0  0  0
 30 31  1  0  0  0  0
 30 57  1  0  0  0  0
 31 32  2  0  0  0  0
 32 58  1  0  0  0  0
M  END
> <PUBCHEM_COMPOUND_CID>
10411087

> <PUBCHEM_CONFORMER_RMSD>
1

> <PUBCHEM_CONFORMER_DIVERSEORDER>
2
199
194
170
226
45
138
233
159
20
143
85
86
232
220
55
167
54
223
186
215
66
211
62
83
50
178
246
198
158
51
147
203
254
176
75
90
33
171
93
38
206
256
48
180
222
6
126
165
255
91
250
99
139
67
168
191
148
11
79
268
140
227
152
190
24
102
244
49
154
74
136
25
183
150
210
92
263
265
18
132
162
19
230
270
182
70
145
251
219
197
214
187
212
189
57
113
69
53
95
224
161
142
239
225
184
155
137
31
122
56
238
267
43
97
273
192
271
144
28
3
116
272
61
264
156
177
98
36
204
32
124
235
82
240
201
80
200
108
237
15
129
89
160
262
260
72
234
247
13
241
231
29
133
166
76
209
128
40
105
121
130
172
47
30
103
9
114
63
96
149
195
141
131
101
27
213
229
257
109
217
64
269
221
65
205
202
22
118
106
4
245
58
120
185
242
248
258
151
39
181
261
236
5
157
42
188
100
68
153
146
164
7
112
125
23
134
1
34
78
77
41
243
208
123
111
16
104
94
259
44
14
175
17
169
35
107
218
252
163
21
228
253
135
174
52
173
119
127
87
26
249
88
59
179
60
84
193
196
8
10
117
115
46
73
37
71
266
216
81
12
207
110

> <PUBCHEM_MMFF94_PARTIAL_CHARGES>
38
1 -0.36
10 0.42
12 -0.14
13 0.14
14 0.06
15 -0.14
16 0.28
17 -0.28
2 -0.68
20 -0.29
21 0.42
22 0.09
23 0.08
24 -0.15
25 0.08
26 0.14
27 0.08
28 -0.15
29 0.08
3 -0.53
30 -0.15
31 0.08
32 -0.15
4 -0.57
5 -0.53
50 0.15
51 0.15
55 0.4
56 0.15
57 0.15
58 0.15
59 0.45
6 -0.53
60 0.45
61 0.45
62 0.45
7 -0.53
8 0.28

> <PUBCHEM_EFFECTIVE_ROTOR_COUNT>
7.6

> <PUBCHEM_PHARMACOPHORE_FEATURES>
14
1 1 acceptor
1 2 acceptor
1 2 donor
1 26 hydrophobe
1 3 donor
1 4 acceptor
1 5 donor
1 6 donor
1 7 donor
3 8 18 19 hydrophobe
4 9 11 13 17 hydrophobe
6 1 10 14 21 22 23 rings
6 12 15 24 25 27 28 rings
6 22 23 29 30 31 32 rings

> <PUBCHEM_HEAVY_ATOM_COUNT>
32

> <PUBCHEM_ATOM_DEF_STEREO_COUNT>
1

> <PUBCHEM_ATOM_UDEF_STEREO_COUNT>
0

> <PUBCHEM_BOND_DEF_STEREO_COUNT>
1

> <PUBCHEM_BOND_UDEF_STEREO_COUNT>
0

> <PUBCHEM_ISOTOPIC_ATOM_COUNT>
0

> <PUBCHEM_COMPONENT_COUNT>
1

> <PUBCHEM_CACTVS_TAUTO_COUNT>
399

> <PUBCHEM_CONFORMER_ID>
009EDC4F00000002

> <PUBCHEM_MMFF94_ENERGY>
82.8265

> <PUBCHEM_FEATURE_SELFOVERLAP>
71.088

> <PUBCHEM_SHAPE_FINGERPRINT>
10032420 55 17606116187152675370
11513181 2 17774998025168839438
11963148 33 17905605854890486571
12156800 1 15720496665056147814
12422481 6 18124846119804707890
133893 2 18267890314608623417
13402501 40 18127966417160223514
14004853 49 17834686272102309800
14020679 6 17898592899075844915
140371 6 18056211176420114251
14117953 113 18051976913748595934
15439362 3 18260554445573657853
15463212 79 17833276693636685125
15840311 113 16550037322175143385
15961568 22 18122634846728122366
16752209 62 17909541002477973567
17492 54 18189918469110695638
1813 80 18042116579438800184
18336668 15 18271514321776389210
20642791 178 18340781342739528673
20771845 171 18043526317134608527
22113638 7 18341326691532498934
23559900 14 18410848842195839433
3298306 158 18270124650874331567
338550 245 18338512057844975458
4280585 95 18116707426960832842
46194498 28 18040154028292268525
463206 1 18269555108272633602
469060 322 18120667829221336498
5265222 85 17762628682470267644
550186 83 17970050163648374688

> <PUBCHEM_SHAPE_MULTIPOLES>
617.46
10.56
5.78
1.85
8.52
0.54
-0.28
3.51
1.33
-6.66
-3.04
-1.78
-0.73
-1.5

> <PUBCHEM_SHAPE_SELFOVERLAP>
1317.543

> <PUBCHEM_SHAPE_VOLUME>
342.2

> <PUBCHEM_COORDINATE_TYPE>
2
5
10

$$$$
