10411304
  -OEChem-03292013303D

 66 67  0     1  0  0  0  0  0999 V2000
   -1.4978   -0.7995    2.2595 O   0  0  0  0  0  0  0  0  0  0  0  0
   -3.3647   -2.5162   -1.6447 O   0  0  0  0  0  0  0  0  0  0  0  0
   -2.2558    2.1089   -1.3746 O   0  0  0  0  0  0  0  0  0  0  0  0
    0.7545   -0.7420    1.5036 O   0  0  0  0  0  0  0  0  0  0  0  0
    0.7327    3.3326   -0.9911 O   0  0  0  0  0  0  0  0  0  0  0  0
    4.4697    0.3716   -1.2955 O   0  0  0  0  0  0  0  0  0  0  0  0
    4.0470   -1.4635    1.4797 O   0  0  0  0  0  0  0  0  0  0  0  0
   -3.0356   -1.4822    0.5124 C   0  0  0  0  0  0  0  0  0  0  0  0
   -2.9195   -0.1668   -1.7662 C   0  0  0  0  0  0  0  0  0  0  0  0
   -0.6147    1.6322    0.8214 C   0  0  1  0  0  0  0  0  0  0  0  0
   -1.6265    0.6274    0.3474 C   0  0  0  0  0  0  0  0  0  0  0  0
   -3.0952   -1.4843   -1.0207 C   0  0  0  0  0  0  0  0  0  0  0  0
   -1.9969   -0.4892    1.0024 C   0  0  0  0  0  0  0  0  0  0  0  0
   -2.2828    0.9502   -0.9534 C   0  0  0  0  0  0  0  0  0  0  0  0
   -0.6132    1.7939    2.3727 C   0  0  0  0  0  0  0  0  0  0  0  0
    0.7553    1.2915    0.2515 C   0  0  0  0  0  0  0  0  0  0  0  0
   -2.6859   -2.9172    0.9692 C   0  0  0  0  0  0  0  0  0  0  0  0
   -4.4187   -1.1100    1.0644 C   0  0  0  0  0  0  0  0  0  0  0  0
   -1.9956   -0.4188   -2.9710 C   0  0  0  0  0  0  0  0  0  0  0  0
   -4.2981    0.2941   -2.2597 C   0  0  0  0  0  0  0  0  0  0  0  0
   -2.0160    2.1121    2.9128 C   0  0  0  0  0  0  0  0  0  0  0  0
    0.3455    2.9044    2.8275 C   0  0  0  0  0  0  0  0  0  0  0  0
    1.3649    0.1111    0.6308 C   0  0  0  0  0  0  0  0  0  0  0  0
    1.3524    2.1721   -0.6300 C   0  0  0  0  0  0  0  0  0  0  0  0
    2.6203   -0.2007    0.1086 C   0  0  0  0  0  0  0  0  0  0  0  0
    2.6079    1.8602   -1.1520 C   0  0  0  0  0  0  0  0  0  0  0  0
    3.2417    0.6737   -0.7827 C   0  0  0  0  0  0  0  0  0  0  0  0
    3.2830   -1.4420    0.4945 C   0  0  0  0  0  0  0  0  0  0  0  0
    3.2737    2.7980   -2.1078 C   0  0  0  0  0  0  0  0  0  0  0  0
    3.0661   -2.7421   -0.3106 C   0  0  0  0  0  0  0  0  0  0  0  0
    4.4014   -3.2441   -0.8511 C   0  0  0  0  0  0  0  0  0  0  0  0
    2.4010   -3.8154    0.5527 C   0  0  0  0  0  0  0  0  0  0  0  0
   -0.9252    2.6216    0.4640 H   0  0  0  0  0  0  0  0  0  0  0  0
   -0.2432    0.9098    2.8957 H   0  0  0  0  0  0  0  0  0  0  0  0
   -2.7317   -3.0439    2.0560 H   0  0  0  0  0  0  0  0  0  0  0  0
   -3.3859   -3.6512    0.5515 H   0  0  0  0  0  0  0  0  0  0  0  0
   -1.6809   -3.2035    0.6358 H   0  0  0  0  0  0  0  0  0  0  0  0
   -4.6865   -0.0743    0.8276 H   0  0  0  0  0  0  0  0  0  0  0  0
   -5.1992   -1.7507    0.6376 H   0  0  0  0  0  0  0  0  0  0  0  0
   -4.4597   -1.2152    2.1547 H   0  0  0  0  0  0  0  0  0  0  0  0
   -1.0199   -0.7980   -2.6433 H   0  0  0  0  0  0  0  0  0  0  0  0
   -2.4208   -1.1567   -3.6608 H   0  0  0  0  0  0  0  0  0  0  0  0
   -1.8149    0.5006   -3.5399 H   0  0  0  0  0  0  0  0  0  0  0  0
   -4.2195    1.1729   -2.9101 H   0  0  0  0  0  0  0  0  0  0  0  0
   -4.8066   -0.4941   -2.8265 H   0  0  0  0  0  0  0  0  0  0  0  0
   -4.9495    0.5686   -1.4231 H   0  0  0  0  0  0  0  0  0  0  0  0
   -1.9769    2.2749    3.9962 H   0  0  0  0  0  0  0  0  0  0  0  0
   -2.7543    1.3266    2.7463 H   0  0  0  0  0  0  0  0  0  0  0  0
   -2.4049    3.0316    2.4603 H   0  0  0  0  0  0  0  0  0  0  0  0
    0.3053    3.0335    3.9148 H   0  0  0  0  0  0  0  0  0  0  0  0
    1.3832    2.6708    2.5696 H   0  0  0  0  0  0  0  0  0  0  0  0
    0.0874    3.8639    2.3664 H   0  0  0  0  0  0  0  0  0  0  0  0
   -2.1960   -1.2408    2.7700 H   0  0  0  0  0  0  0  0  0  0  0  0
    3.0164    3.8436   -1.9083 H   0  0  0  0  0  0  0  0  0  0  0  0
    4.3651    2.7724   -2.0206 H   0  0  0  0  0  0  0  0  0  0  0  0
    2.9931    2.5525   -3.1367 H   0  0  0  0  0  0  0  0  0  0  0  0
    1.3801   -1.4138    1.8174 H   0  0  0  0  0  0  0  0  0  0  0  0
    2.4078   -2.5149   -1.1580 H   0  0  0  0  0  0  0  0  0  0  0  0
    1.0209    3.6023   -1.8778 H   0  0  0  0  0  0  0  0  0  0  0  0
    4.5742    0.7783   -2.1707 H   0  0  0  0  0  0  0  0  0  0  0  0
    5.0913   -3.5028   -0.0403 H   0  0  0  0  0  0  0  0  0  0  0  0
    4.8869   -2.4770   -1.4633 H   0  0  0  0  0  0  0  0  0  0  0  0
    4.2602   -4.1336   -1.4739 H   0  0  0  0  0  0  0  0  0  0  0  0
    2.2593   -4.7403   -0.0158 H   0  0  0  0  0  0  0  0  0  0  0  0
    3.0029   -4.0461    1.4383 H   0  0  0  0  0  0  0  0  0  0  0  0
    1.4180   -3.4815    0.8994 H   0  0  0  0  0  0  0  0  0  0  0  0
  1 13  1  0  0  0  0
  1 53  1  0  0  0  0
  2 12  2  0  0  0  0
  3 14  2  0  0  0  0
  4 23  1  0  0  0  0
  4 57  1  0  0  0  0
  5 24  1  0  0  0  0
  5 59  1  0  0  0  0
  6 27  1  0  0  0  0
  6 60  1  0  0  0  0
  7 28  2  0  0  0  0
  8 12  1  0  0  0  0
  8 13  1  0  0  0  0
  8 17  1  0  0  0  0
  8 18  1  0  0  0  0
  9 12  1  0  0  0  0
  9 14  1  0  0  0  0
  9 19  1  0  0  0  0
  9 20  1  0  0  0  0
 10 11  1  0  0  0  0
 10 15  1  0  0  0  0
 10 16  1  0  0  0  0
 10 33  1  0  0  0  0
 11 13  2  0  0  0  0
 11 14  1  0  0  0  0
 15 21  1  0  0  0  0
 15 22  1  0  0  0  0
 15 34  1  0  0  0  0
 16 23  2  0  0  0  0
 16 24  1  0  0  0  0
 17 35  1  0  0  0  0
 17 36  1  0  0  0  0
 17 37  1  0  0  0  0
 18 38  1  0  0  0  0
 18 39  1  0  0  0  0
 18 40  1  0  0  0  0
 19 41  1  0  0  0  0
 19 42  1  0  0  0  0
 19 43  1  0  0  0  0
 20 44  1  0  0  0  0
 20 45  1  0  0  0  0
 20 46  1  0  0  0  0
 21 47  1  0  0  0  0
 21 48  1  0  0  0  0
 21 49  1  0  0  0  0
 22 50  1  0  0  0  0
 22 51  1  0  0  0  0
 22 52  1  0  0  0  0
 23 25  1  0  0  0  0
 24 26  2  0  0  0  0
 25 27  2  0  0  0  0
 25 28  1  0  0  0  0
 26 27  1  0  0  0  0
 26 29  1  0  0  0  0
 28 30  1  0  0  0  0
 29 54  1  0  0  0  0
 29 55  1  0  0  0  0
 29 56  1  0  0  0  0
 30 31  1  0  0  0  0
 30 32  1  0  0  0  0
 30 58  1  0  0  0  0
 31 61  1  0  0  0  0
 31 62  1  0  0  0  0
 31 63  1  0  0  0  0
 32 64  1  0  0  0  0
 32 65  1  0  0  0  0
 32 66  1  0  0  0  0
M  END
> <PUBCHEM_COMPOUND_CID>
10411304

> <PUBCHEM_CONFORMER_RMSD>
0.8

> <PUBCHEM_CONFORMER_DIVERSEORDER>
18
46
42
47
48
14
44
37
49
33
40
53
36
30
51
12
17
50
15
35
31
27
28
52
21
45
24
32
39
20
23
41
29
13
8
5
19
4
43
25
22
3
11
9
1
38
6
26
10
34
2
16
7

> <PUBCHEM_MMFF94_PARTIAL_CHARGES>
27
1 -0.53
10 0.28
11 -0.12
12 0.45
13 -0.06
14 0.49
16 -0.14
2 -0.57
23 0.08
24 0.08
25 0.09
26 -0.14
27 0.08
28 0.42
29 0.14
3 -0.57
30 0.06
4 -0.53
5 -0.53
53 0.45
57 0.45
59 0.45
6 -0.53
60 0.45
7 -0.57
8 0.2
9 0.12

> <PUBCHEM_EFFECTIVE_ROTOR_COUNT>
5.4

> <PUBCHEM_PHARMACOPHORE_FEATURES>
13
1 1 donor
1 2 acceptor
1 3 acceptor
1 4 donor
1 5 donor
1 6 donor
1 7 acceptor
3 15 21 22 hydrophobe
3 30 31 32 hydrophobe
3 8 17 18 hydrophobe
3 9 19 20 hydrophobe
6 16 23 24 25 26 27 rings
6 8 9 11 12 13 14 rings

> <PUBCHEM_HEAVY_ATOM_COUNT>
32

> <PUBCHEM_ATOM_DEF_STEREO_COUNT>
0

> <PUBCHEM_ATOM_UDEF_STEREO_COUNT>
1

> <PUBCHEM_BOND_DEF_STEREO_COUNT>
0

> <PUBCHEM_BOND_UDEF_STEREO_COUNT>
0

> <PUBCHEM_ISOTOPIC_ATOM_COUNT>
0

> <PUBCHEM_COMPONENT_COUNT>
1

> <PUBCHEM_CACTVS_TAUTO_COUNT>
84

> <PUBCHEM_CONFORMER_ID>
009EDD2800000012

> <PUBCHEM_MMFF94_ENERGY>
113.659

> <PUBCHEM_FEATURE_SELFOVERLAP>
66.008

> <PUBCHEM_SHAPE_FINGERPRINT>
10498660 4 15575534986339708351
10764073 3 17248682493609703385
11578080 2 18272074020213571857
11582403 64 16520731406914584844
12156800 1 15096966734490485518
12160290 23 17273153301300897193
12363563 72 17418077837108069677
12422481 6 17127926490316615219
12539773 59 17769641010817088803
12553582 1 17846501460565629107
12788726 201 17845390881044547769
13004483 165 17272824572972104243
13009979 54 18128827356655787690
13383661 66 17403496303333448166
13911987 19 17682704039849363764
14251757 17 17895180061473604015
14659021 117 17395560702930310426
14787075 74 17771064088570932344
17349148 13 18334292085405584456
19315092 285 16696914895354274591
20600515 1 17828726644095660440
20775438 99 17405938254339874167
20775530 9 18339922602436122402
21033650 10 16081654357686188838
21731516 1 17488747912086203201
21864079 5 11169910554739359062
229495 10 18116743792354677561
23114952 82 17968660535174068382
23419403 2 16322225293729663017
23559900 14 18260535741238672104
23598288 3 17916318138279237241
23728640 28 17557148298437492587
238 59 18042394914773123454
27425 322 15647049378536239975
35225 105 16413813482794347699
392239 28 17702077318955823426
4280585 95 18043803192248966798
46194498 28 17822577217021525863
463206 1 18058429028422383031
484985 159 17055820448425316894
57527293 21 16128648635724394434
6287921 2 17460045191023252687

> <PUBCHEM_SHAPE_MULTIPOLES>
617.46
7.86
4.12
2.79
2.09
1.19
-0.11
5.18
2.88
2.85
-0.67
-1.82
-1.61
-1.51

> <PUBCHEM_SHAPE_SELFOVERLAP>
1315.867

> <PUBCHEM_SHAPE_VOLUME>
344.7

> <PUBCHEM_COORDINATE_TYPE>
2
5
10

$$$$
