10412869
  -OEChem-03292013303D

 45 45  0     0  0  0  0  0  0999 V2000
    1.1630    1.1638   -2.3606 Br  0  0  0  0  0  0  0  0  0  0  0  0
    0.0323   -2.4998   -0.8337 S   0  0  0  0  0  0  0  0  0  0  0  0
    1.8393   -3.2804   -0.2446 S   0  0  0  0  0  0  0  0  0  0  0  0
   -4.5897   -1.4243   -1.4206 O   0  0  0  0  0  0  0  0  0  0  0  0
    1.4940    3.1313    0.0384 O   0  0  0  0  0  0  0  0  0  0  0  0
   -4.6184    1.2638    2.1086 O   0  0  0  0  0  0  0  0  0  0  0  0
    4.9331   -0.2113    1.8776 O   0  0  0  0  0  0  0  0  0  0  0  0
    6.6812    0.5174    0.1222 O   0  0  0  0  0  0  0  0  0  0  0  0
    5.1402    0.2907   -1.5509 O   0  0  0  0  0  0  0  0  0  0  0  0
   -2.9542   -1.9999    0.1630 N   0  0  0  0  0  0  0  0  0  0  0  0
   -4.4729    0.0023    1.5324 N   0  0  0  0  0  0  0  0  0  0  0  0
    3.2603   -0.4835    0.2679 N   0  0  0  0  0  0  0  0  0  0  0  0
   -3.8495    1.3485   -0.5045 C   0  0  0  0  0  0  0  0  0  0  0  0
   -2.4245    1.8178   -0.3680 C   0  0  0  0  0  0  0  0  0  0  0  0
   -4.1104    0.0926    0.2925 C   0  0  0  0  0  0  0  0  0  0  0  0
   -2.5839   -3.2992   -0.3467 C   0  0  0  0  0  0  0  0  0  0  0  0
   -1.1332   -3.6606   -0.0579 C   0  0  0  0  0  0  0  0  0  0  0  0
   -3.9127   -1.2095   -0.4284 C   0  0  0  0  0  0  0  0  0  0  0  0
   -1.4517    1.3648   -1.2591 C   0  0  0  0  0  0  0  0  0  0  0  0
   -2.0781    2.7054    0.6508 C   0  0  0  0  0  0  0  0  0  0  0  0
   -0.1324    1.7996   -1.1317 C   0  0  0  0  0  0  0  0  0  0  0  0
   -0.7587    3.1399    0.7783 C   0  0  0  0  0  0  0  0  0  0  0  0
    2.1259   -2.4107    1.3155 C   0  0  0  0  0  0  0  0  0  0  0  0
    0.2141    2.6872   -0.1129 C   0  0  0  0  0  0  0  0  0  0  0  0
    2.1876   -0.9007    1.1299 C   0  0  0  0  0  0  0  0  0  0  0  0
    4.5282   -0.1796    0.7260 C   0  0  0  0  0  0  0  0  0  0  0  0
    5.4712    0.2344   -0.3834 C   0  0  0  0  0  0  0  0  0  0  0  0
   -4.5411    2.1390   -0.1908 H   0  0  0  0  0  0  0  0  0  0  0  0
   -4.0814    1.1659   -1.5608 H   0  0  0  0  0  0  0  0  0  0  0  0
   -3.2445   -4.0262    0.1387 H   0  0  0  0  0  0  0  0  0  0  0  0
   -2.7928   -3.3422   -1.4222 H   0  0  0  0  0  0  0  0  0  0  0  0
   -0.9641   -3.6548    1.0245 H   0  0  0  0  0  0  0  0  0  0  0  0
   -0.9347   -4.6694   -0.4347 H   0  0  0  0  0  0  0  0  0  0  0  0
   -2.5251   -1.6876    1.0295 H   0  0  0  0  0  0  0  0  0  0  0  0
   -1.7271    0.6715   -2.0507 H   0  0  0  0  0  0  0  0  0  0  0  0
   -2.8243    3.0760    1.3474 H   0  0  0  0  0  0  0  0  0  0  0  0
   -0.5045    3.8330    1.5759 H   0  0  0  0  0  0  0  0  0  0  0  0
    1.3385   -2.6767    2.0285 H   0  0  0  0  0  0  0  0  0  0  0  0
    3.0719   -2.7772    1.7285 H   0  0  0  0  0  0  0  0  0  0  0  0
    2.3429   -0.4392    2.1126 H   0  0  0  0  0  0  0  0  0  0  0  0
    1.2568   -0.4811    0.7397 H   0  0  0  0  0  0  0  0  0  0  0  0
    3.0671   -0.4170   -0.7272 H   0  0  0  0  0  0  0  0  0  0  0  0
    1.5351    3.7357    0.7992 H   0  0  0  0  0  0  0  0  0  0  0  0
   -4.8824    1.0357    3.0158 H   0  0  0  0  0  0  0  0  0  0  0  0
    6.7691    0.4167    1.0943 H   0  0  0  0  0  0  0  0  0  0  0  0
  1 21  1  0  0  0  0
  2  3  1  0  0  0  0
  2 17  1  0  0  0  0
  3 23  1  0  0  0  0
  4 18  2  0  0  0  0
  5 24  1  0  0  0  0
  5 43  1  0  0  0  0
  6 11  1  0  0  0  0
  6 44  1  0  0  0  0
  7 26  2  0  0  0  0
  8 27  1  0  0  0  0
  8 45  1  0  0  0  0
  9 27  2  0  0  0  0
 10 16  1  0  0  0  0
 10 18  1  0  0  0  0
 10 34  1  0  0  0  0
 11 15  2  0  0  0  0
 12 25  1  0  0  0  0
 12 26  1  0  0  0  0
 12 42  1  0  0  0  0
 13 14  1  0  0  0  0
 13 15  1  0  0  0  0
 13 28  1  0  0  0  0
 13 29  1  0  0  0  0
 14 19  2  0  0  0  0
 14 20  1  0  0  0  0
 15 18  1  0  0  0  0
 16 17  1  0  0  0  0
 16 30  1  0  0  0  0
 16 31  1  0  0  0  0
 17 32  1  0  0  0  0
 17 33  1  0  0  0  0
 19 21  1  0  0  0  0
 19 35  1  0  0  0  0
 20 22  2  0  0  0  0
 20 36  1  0  0  0  0
 21 24  2  0  0  0  0
 22 24  1  0  0  0  0
 22 37  1  0  0  0  0
 23 25  1  0  0  0  0
 23 38  1  0  0  0  0
 23 39  1  0  0  0  0
 25 40  1  0  0  0  0
 25 41  1  0  0  0  0
 26 27  1  0  0  0  0
M  END
> <PUBCHEM_COMPOUND_CID>
10412869

> <PUBCHEM_CONFORMER_RMSD>
1.8

> <PUBCHEM_CONFORMER_DIVERSEORDER>
1
63
36
48
55
39
47
10
37
62
60
44
21
2
54
41
61
49
58
59
14
43
8
11
26
46
53
67
25
18
69
56
35
13
22
40
68
4
9
20
28
32
5
64
45
34
42
24
65
7
23
51
31
27
17
30
66
12
70
71
33
29
38
6
57
16
52
3
50
19
15

> <PUBCHEM_MMFF94_PARTIAL_CHARGES>
35
1 -0.11
10 -0.73
11 -0.51
12 -0.73
13 0.2
14 -0.14
15 0.39
16 0.3
17 0.23
18 0.63
19 -0.15
2 -0.23
20 -0.15
21 0.11
22 -0.15
23 0.23
24 0.08
25 0.3
26 0.63
27 0.72
3 -0.23
34 0.37
35 0.15
36 0.15
37 0.15
4 -0.57
42 0.37
43 0.45
44 0.4
45 0.5
5 -0.53
6 -0.34
7 -0.57
8 -0.65
9 -0.57

> <PUBCHEM_EFFECTIVE_ROTOR_COUNT>
13

> <PUBCHEM_PHARMACOPHORE_FEATURES>
13
1 1 hydrophobe
1 10 donor
1 11 acceptor
1 12 donor
1 4 acceptor
1 5 donor
1 6 anion
1 7 acceptor
1 8 acceptor
1 9 acceptor
3 8 9 27 anion
4 2 3 17 23 hydrophobe
6 14 19 20 21 22 24 rings

> <PUBCHEM_HEAVY_ATOM_COUNT>
27

> <PUBCHEM_ATOM_DEF_STEREO_COUNT>
0

> <PUBCHEM_ATOM_UDEF_STEREO_COUNT>
0

> <PUBCHEM_BOND_DEF_STEREO_COUNT>
1

> <PUBCHEM_BOND_UDEF_STEREO_COUNT>
0

> <PUBCHEM_ISOTOPIC_ATOM_COUNT>
0

> <PUBCHEM_COMPONENT_COUNT>
1

> <PUBCHEM_CACTVS_TAUTO_COUNT>
30

> <PUBCHEM_CONFORMER_ID>
009EE34500000001

> <PUBCHEM_MMFF94_ENERGY>
34.458

> <PUBCHEM_FEATURE_SELFOVERLAP>
66.039

> <PUBCHEM_SHAPE_FINGERPRINT>
10454371 7 18337684117854316596
10670039 82 18410293614699286766
1100329 8 18337954617986428788
11014199 57 17834671978235143074
11513181 2 18130503020550502015
11578080 2 14692025609370490089
12553582 1 18410013238906649285
12633257 1 18342186604362288597
13140716 1 18193565690623928831
13947920 75 18189637050242769846
14081887 123 18341043034580026062
14251757 5 18337113466275401350
14765038 42 18200328648938290337
14840074 17 18187655707875637741
15001296 14 18117556442852301084
15297060 5 18272939293241181122
18336668 15 18113615728743254444
19930381 70 15456768583391506513
20600515 1 18129679585056706685
20765182 5 18411982498343912138
21315764 371 18411983542622702616
3737641 26 18269844112079328074
392239 28 18341887498529068808
463206 1 18263088875725775361
469060 322 17168411749570073638
6287921 2 18050855416241338046
9543594 6 18267577103928788256

> <PUBCHEM_SHAPE_MULTIPOLES>
519.13
11.04
4.64
1.67
11.1
1.95
0.13
-0.21
-2.34
-2
0.09
0.11
-0.44
-1.33

> <PUBCHEM_SHAPE_SELFOVERLAP>
1014.264

> <PUBCHEM_SHAPE_VOLUME>
316

> <PUBCHEM_COORDINATE_TYPE>
2
5
10

$$$$
