10429474
  -OEChem-03292013303D

 45 48  0     1  0  0  0  0  0999 V2000
   -2.8315   -2.7311    0.1711 O   0  0  0  0  0  0  0  0  0  0  0  0
   -0.6147    0.5392    2.0582 O   0  0  0  0  0  0  0  0  0  0  0  0
   -2.6602    1.0213   -2.2001 O   0  0  0  0  0  0  0  0  0  0  0  0
   -2.4027    4.5358    0.7270 O   0  0  0  0  0  0  0  0  0  0  0  0
    5.9907   -0.0907    0.3310 O   0  5  0  0  0  0  0  0  0  0  0  0
    5.1947    1.7551   -0.5513 O   0  0  0  0  0  0  0  0  0  0  0  0
   -0.1775   -1.6011   -0.0515 N   0  0  3  0  0  0  0  0  0  0  0  0
   -1.4268    2.5485    1.3373 N   0  0  0  0  0  0  0  0  0  0  0  0
   -2.4644    2.7786   -0.7504 N   0  0  0  0  0  0  0  0  0  0  0  0
    5.0321    0.5942   -0.1022 N   0  3  0  0  0  0  0  0  0  0  0  0
   -1.3775   -0.8038   -0.4133 C   0  0  2  0  0  0  0  0  0  0  0  0
   -1.1397    0.7369   -0.3177 C   0  0  0  0  0  0  0  0  0  0  0  0
   -2.5504   -1.3503    0.4583 C   0  0  1  0  0  0  0  0  0  0  0  0
    0.2030    1.0852   -1.0115 C   0  0  0  0  0  0  0  0  0  0  0  0
   -0.3971   -3.0183    0.2645 C   0  0  0  0  0  0  0  0  0  0  0  0
    1.1056   -1.0665   -0.0485 C   0  0  0  0  0  0  0  0  0  0  0  0
    1.3431    0.2426   -0.5089 C   0  0  0  0  0  0  0  0  0  0  0  0
   -1.7286   -3.4864   -0.3253 C   0  0  1  0  0  0  0  0  0  0  0  0
   -1.0512    1.2295    1.1370 C   0  0  0  0  0  0  0  0  0  0  0  0
   -2.1763    1.4889   -1.1684 C   0  0  0  0  0  0  0  0  0  0  0  0
   -3.8826   -0.6258    0.3134 C   0  0  0  0  0  0  0  0  0  0  0  0
    2.2256   -1.7814    0.4231 C   0  0  0  0  0  0  0  0  0  0  0  0
    2.6428    0.7794   -0.5416 C   0  0  0  0  0  0  0  0  0  0  0  0
   -1.9927   -4.9514   -0.0028 C   0  0  0  0  0  0  0  0  0  0  0  0
   -2.1049    3.3726    0.4508 C   0  0  0  0  0  0  0  0  0  0  0  0
    3.7258    0.0395   -0.0841 C   0  0  0  0  0  0  0  0  0  0  0  0
    3.5155   -1.2406    0.4058 C   0  0  0  0  0  0  0  0  0  0  0  0
   -1.5927   -1.0524   -1.4619 H   0  0  0  0  0  0  0  0  0  0  0  0
   -2.2708   -1.3194    1.5185 H   0  0  0  0  0  0  0  0  0  0  0  0
    0.4374    2.1474   -0.8583 H   0  0  0  0  0  0  0  0  0  0  0  0
    0.1312    0.9323   -2.0973 H   0  0  0  0  0  0  0  0  0  0  0  0
   -0.3928   -3.1421    1.3543 H   0  0  0  0  0  0  0  0  0  0  0  0
    0.3916   -3.6465   -0.1659 H   0  0  0  0  0  0  0  0  0  0  0  0
   -1.7143   -3.3741   -1.4167 H   0  0  0  0  0  0  0  0  0  0  0  0
   -4.2242   -0.6380   -0.7267 H   0  0  0  0  0  0  0  0  0  0  0  0
   -4.6575   -1.1387    0.8953 H   0  0  0  0  0  0  0  0  0  0  0  0
   -3.8348    0.4059    0.6686 H   0  0  0  0  0  0  0  0  0  0  0  0
    2.1219   -2.7845    0.8300 H   0  0  0  0  0  0  0  0  0  0  0  0
    2.7745    1.7889   -0.9263 H   0  0  0  0  0  0  0  0  0  0  0  0
   -1.1999   -5.5956   -0.3950 H   0  0  0  0  0  0  0  0  0  0  0  0
   -2.0685   -5.1059    1.0792 H   0  0  0  0  0  0  0  0  0  0  0  0
   -2.9477   -5.2716   -0.4336 H   0  0  0  0  0  0  0  0  0  0  0  0
   -1.2541    2.9312    2.2627 H   0  0  0  0  0  0  0  0  0  0  0  0
   -3.0522    3.3322   -1.3673 H   0  0  0  0  0  0  0  0  0  0  0  0
    4.3288   -1.8540    0.7857 H   0  0  0  0  0  0  0  0  0  0  0  0
  1 13  1  0  0  0  0
  1 18  1  0  0  0  0
  2 19  2  0  0  0  0
  3 20  2  0  0  0  0
  4 25  2  0  0  0  0
  5 10  1  0  0  0  0
  6 10  2  0  0  0  0
  7 11  1  0  0  0  0
  7 15  1  0  0  0  0
  7 16  1  0  0  0  0
  8 19  1  0  0  0  0
  8 25  1  0  0  0  0
  8 43  1  0  0  0  0
  9 20  1  0  0  0  0
  9 25  1  0  0  0  0
  9 44  1  0  0  0  0
 10 26  1  0  0  0  0
 11 12  1  0  0  0  0
 11 13  1  0  0  0  0
 11 28  1  0  0  0  0
 12 14  1  0  0  0  0
 12 19  1  0  0  0  0
 12 20  1  0  0  0  0
 13 21  1  0  0  0  0
 13 29  1  0  0  0  0
 14 17  1  0  0  0  0
 14 30  1  0  0  0  0
 14 31  1  0  0  0  0
 15 18  1  0  0  0  0
 15 32  1  0  0  0  0
 15 33  1  0  0  0  0
 16 17  2  0  0  0  0
 16 22  1  0  0  0  0
 17 23  1  0  0  0  0
 18 24  1  0  0  0  0
 18 34  1  0  0  0  0
 21 35  1  0  0  0  0
 21 36  1  0  0  0  0
 21 37  1  0  0  0  0
 22 27  2  0  0  0  0
 22 38  1  0  0  0  0
 23 26  2  0  0  0  0
 23 39  1  0  0  0  0
 24 40  1  0  0  0  0
 24 41  1  0  0  0  0
 24 42  1  0  0  0  0
 26 27  1  0  0  0  0
 27 45  1  0  0  0  0
M  CHG  2   5  -1  10   1
M  END
> <PUBCHEM_COMPOUND_CID>
10429474

> <PUBCHEM_CONFORMER_RMSD>
0.6

> <PUBCHEM_CONFORMER_DIVERSEORDER>
2
9
6
10
3
7
8
1
11
4
5

> <PUBCHEM_MMFF94_PARTIAL_CHARGES>
30
1 -0.56
10 0.91
11 0.37
12 0.12
13 0.28
14 0.14
15 0.37
16 0.1
17 -0.14
18 0.28
19 0.57
2 -0.57
20 0.57
22 -0.15
23 -0.15
25 0.69
26 0.13
27 -0.15
3 -0.57
38 0.15
39 0.15
4 -0.57
43 0.37
44 0.37
45 0.15
5 -0.52
6 -0.52
7 -0.84
8 -0.49
9 -0.49

> <PUBCHEM_EFFECTIVE_ROTOR_COUNT>
2.4

> <PUBCHEM_PHARMACOPHORE_FEATURES>
14
1 1 acceptor
1 2 acceptor
1 3 acceptor
1 4 acceptor
1 5 acceptor
1 5 anion
1 6 acceptor
1 7 cation
1 8 donor
1 9 donor
6 1 7 11 13 15 18 rings
6 16 17 22 23 26 27 rings
6 7 11 12 14 16 17 rings
6 8 9 12 19 20 25 rings

> <PUBCHEM_HEAVY_ATOM_COUNT>
27

> <PUBCHEM_ATOM_DEF_STEREO_COUNT>
0

> <PUBCHEM_ATOM_UDEF_STEREO_COUNT>
3

> <PUBCHEM_BOND_DEF_STEREO_COUNT>
0

> <PUBCHEM_BOND_UDEF_STEREO_COUNT>
0

> <PUBCHEM_ISOTOPIC_ATOM_COUNT>
0

> <PUBCHEM_COMPONENT_COUNT>
1

> <PUBCHEM_CACTVS_TAUTO_COUNT>
5

> <PUBCHEM_CONFORMER_ID>
009F242200000002

> <PUBCHEM_MMFF94_ENERGY>
100.9129

> <PUBCHEM_FEATURE_SELFOVERLAP>
71.218

> <PUBCHEM_SHAPE_FINGERPRINT>
10162869 55 18199209416329992075
10319926 262 18269254869280191570
10411042 1 17978229692504176966
10948715 1 18051975814258125017
1100329 8 18194128644914424643
11370993 70 18122342376650308089
11582403 64 16446136891489618029
11640471 11 17483673399346225793
12107183 9 18047181957263556234
12173636 292 18267870484249108973
12390115 104 18268725934766504092
12403814 3 18259988205870109203
12788726 201 18340187649104741247
13027679 85 18268710696179949995
13140716 1 18121225534639712050
138480 1 16609136011109268326
14081887 123 18340475781438685178
14142880 1 18261958444602256469
14787075 74 18058161727291039649
14790565 3 18339368461587232209
14955137 171 17617420528164867931
15042514 8 18337115690736521483
16945 1 18263351641761576127
19765921 60 17841986685554790857
20510252 161 18413390912493396123
20600515 1 17913798233980470243
20775438 99 16899849643517428239
21049683 271 17252028727782518398
21330990 113 17184181185332234933
22907989 373 18411135883091327004
23419403 2 17485638579033360827
23557571 272 18342462594644806414
23558518 356 18262529099906471722
23559900 14 18270397317305615344
2748010 2 18118976792885186599
283562 15 18190741024014940202
3091708 16 9128785999356721127
3178227 256 18192449657032971547
3380486 145 18047763877449025473
350125 39 18194696868650147235
4340502 62 17979645533380038169
4409770 3 18335410296983681775
474 4 17760640369919373581
5104073 3 18261665975347460592
633830 44 17911795774050481580
9981440 41 18194115222751085689

> <PUBCHEM_SHAPE_MULTIPOLES>
500.51
7.53
5.02
1.18
13.73
1.53
0.02
-1.21
0.22
-6.36
-0.63
-0.7
-0.7
-0.43

> <PUBCHEM_SHAPE_SELFOVERLAP>
1097.12

> <PUBCHEM_SHAPE_VOLUME>
265.2

> <PUBCHEM_COORDINATE_TYPE>
2
5
10

$$$$
