10422256
  -OEChem-03292013303D

 34 34  0     1  0  0  0  0  0999 V2000
    4.6855    0.1172   -0.0869 P   0  0  0  0  0  0  0  0  0  0  0  0
   -4.4967    1.8933   -0.4009 O   0  0  0  0  0  0  0  0  0  0  0  0
   -5.2306    0.0732    0.7586 O   0  0  0  0  0  0  0  0  0  0  0  0
    4.6587   -1.3588    0.5553 O   0  0  0  0  0  0  0  0  0  0  0  0
    5.7494    0.9167    0.8191 O   0  0  0  0  0  0  0  0  0  0  0  0
    4.8903    0.1898   -1.5593 O   0  0  0  0  0  0  0  0  0  0  0  0
   -3.1505   -1.3934    0.0593 N   0  0  0  0  0  0  0  0  0  0  0  0
   -0.6186    0.0420   -0.2936 C   0  0  2  0  0  0  0  0  0  0  0  0
   -1.9254    0.7597    0.0654 C   0  0  0  0  0  0  0  0  0  0  0  0
   -0.6789   -1.4134    0.1850 C   0  0  0  0  0  0  0  0  0  0  0  0
    0.5866    0.7656    0.3007 C   0  0  0  0  0  0  0  0  0  0  0  0
   -3.1387   -0.0204   -0.4444 C   0  0  2  0  0  0  0  0  0  0  0  0
   -1.9366   -2.1133   -0.3281 C   0  0  0  0  0  0  0  0  0  0  0  0
    1.8947    0.1141   -0.1402 C   0  0  0  0  0  0  0  0  0  0  0  0
    3.1091    0.8093    0.4610 C   0  0  0  0  0  0  0  0  0  0  0  0
   -4.3983    0.6185    0.0491 C   0  0  0  0  0  0  0  0  0  0  0  0
   -0.5227    0.0426   -1.3884 H   0  0  0  0  0  0  0  0  0  0  0  0
   -1.9146    1.7686   -0.3663 H   0  0  0  0  0  0  0  0  0  0  0  0
   -1.9932    0.8929    1.1544 H   0  0  0  0  0  0  0  0  0  0  0  0
   -0.6590   -1.4526    1.2819 H   0  0  0  0  0  0  0  0  0  0  0  0
    0.1803   -1.9872   -0.1755 H   0  0  0  0  0  0  0  0  0  0  0  0
    0.5248    0.7682    1.3961 H   0  0  0  0  0  0  0  0  0  0  0  0
    0.5799    1.8147   -0.0201 H   0  0  0  0  0  0  0  0  0  0  0  0
   -3.1685   -0.0313   -1.5412 H   0  0  0  0  0  0  0  0  0  0  0  0
   -1.8940   -2.2183   -1.4193 H   0  0  0  0  0  0  0  0  0  0  0  0
   -1.9790   -3.1255    0.0888 H   0  0  0  0  0  0  0  0  0  0  0  0
    1.9720    0.1296   -1.2337 H   0  0  0  0  0  0  0  0  0  0  0  0
    1.9422   -0.9350    0.1644 H   0  0  0  0  0  0  0  0  0  0  0  0
   -3.9615   -1.8883   -0.3122 H   0  0  0  0  0  0  0  0  0  0  0  0
    3.0672    0.7516    1.5546 H   0  0  0  0  0  0  0  0  0  0  0  0
    3.1013    1.8713    0.1911 H   0  0  0  0  0  0  0  0  0  0  0  0
   -5.3173    2.3301   -0.0879 H   0  0  0  0  0  0  0  0  0  0  0  0
    5.4072   -1.9687    0.3832 H   0  0  0  0  0  0  0  0  0  0  0  0
    6.7070    0.7426    0.6977 H   0  0  0  0  0  0  0  0  0  0  0  0
  1  4  1  0  0  0  0
  1  5  1  0  0  0  0
  1  6  2  0  0  0  0
  1 15  1  0  0  0  0
  2 16  1  0  0  0  0
  2 32  1  0  0  0  0
  3 16  2  0  0  0  0
  4 33  1  0  0  0  0
  5 34  1  0  0  0  0
  7 12  1  0  0  0  0
  7 13  1  0  0  0  0
  7 29  1  0  0  0  0
  8  9  1  0  0  0  0
  8 10  1  0  0  0  0
  8 11  1  0  0  0  0
  8 17  1  0  0  0  0
  9 12  1  0  0  0  0
  9 18  1  0  0  0  0
  9 19  1  0  0  0  0
 10 13  1  0  0  0  0
 10 20  1  0  0  0  0
 10 21  1  0  0  0  0
 11 14  1  0  0  0  0
 11 22  1  0  0  0  0
 11 23  1  0  0  0  0
 12 16  1  0  0  0  0
 12 24  1  0  0  0  0
 13 25  1  0  0  0  0
 13 26  1  0  0  0  0
 14 15  1  0  0  0  0
 14 27  1  0  0  0  0
 14 28  1  0  0  0  0
 15 30  1  0  0  0  0
 15 31  1  0  0  0  0
M  END
> <PUBCHEM_COMPOUND_CID>
10422256

> <PUBCHEM_CONFORMER_RMSD>
0.8

> <PUBCHEM_CONFORMER_DIVERSEORDER>
1
15
4
8
14
11
3
2
17
12
6
13
9
19
7
18
5
16
10

> <PUBCHEM_MMFF94_PARTIAL_CHARGES>
14
1 1.24
12 0.33
13 0.27
16 0.66
2 -0.65
29 0.36
3 -0.57
32 0.5
33 0.5
34 0.5
4 -0.77
5 -0.77
6 -0.7
7 -0.9

> <PUBCHEM_EFFECTIVE_ROTOR_COUNT>
6.2

> <PUBCHEM_PHARMACOPHORE_FEATURES>
10
1 2 acceptor
1 3 acceptor
1 4 acceptor
1 5 acceptor
1 6 acceptor
1 7 cation
1 7 donor
3 2 3 16 anion
4 1 4 5 6 anion
6 7 8 9 10 12 13 rings

> <PUBCHEM_HEAVY_ATOM_COUNT>
16

> <PUBCHEM_ATOM_DEF_STEREO_COUNT>
2

> <PUBCHEM_ATOM_UDEF_STEREO_COUNT>
0

> <PUBCHEM_BOND_DEF_STEREO_COUNT>
0

> <PUBCHEM_BOND_UDEF_STEREO_COUNT>
0

> <PUBCHEM_ISOTOPIC_ATOM_COUNT>
0

> <PUBCHEM_COMPONENT_COUNT>
1

> <PUBCHEM_CACTVS_TAUTO_COUNT>
1

> <PUBCHEM_CONFORMER_ID>
009F07F000000001

> <PUBCHEM_MMFF94_ENERGY>
-17.9478

> <PUBCHEM_FEATURE_SELFOVERLAP>
50.838

> <PUBCHEM_SHAPE_FINGERPRINT>
10366900 7 13254802369441185366
12119455 92 17203888561159569725
12236239 1 17530685411367349364
12390115 104 18128267692447891185
124424 183 17561082531329931569
12616971 3 17095235947906396646
13533116 47 17632296723204725534
13675066 3 18260268563806916515
14123238 8 11891333149268152320
1420 363 7853573525964219064
14251731 8 18342176665544091516
15042514 8 18193561288731311091
15196674 1 18411134745125738890
15242433 33 18407760339771318294
15242439 84 18060139842881794628
15375358 24 17846784005152603726
15501527 16 18413107273011586265
16079462 125 17845922018486593264
17804303 29 18341050817081845937
17834072 33 17313391157605587692
17834072 8 18201441367643131708
187816 3 17561365076059395641
19489759 90 11312062045085780436
200 152 15123511406316503513
20279233 1 17632304492188244878
20281389 69 18334011649547780017
20621476 66 18272657831191784649
20645477 56 18411133649618648725
20645477 70 16415206629268835956
20681677 155 18334853939572639570
21618674 57 17846779598210203074
2215653 11 17918279723131752950
22485316 2 18413103987804579954
23175994 123 17346604096782425849
23402539 116 18201711851946458901
23559900 14 18131069364112973144
23590187 130 18408044013407216277
293599 30 18411982421435524805
300161 21 18412537726426059728
3004659 81 18334577894231422450
366044 4 18412261735853794531
4214541 1 18411416232654652264
42788 4 18411135835915244960
5104073 3 18340764961349244594
542803 24 17458347437669585036
573450 72 18334846243202364938
58051976 100 18335423512302360038
6430166 295 18410290302772657397
7495541 125 12179851610683436076
77779 3 18409165549838256680

> <PUBCHEM_SHAPE_MULTIPOLES>
298.79
12.64
1.6
0.84
8.88
0.57
0.15
-2.74
-0.52
-1.2
0
0.65
-0.04
0.16

> <PUBCHEM_SHAPE_SELFOVERLAP>
573.628

> <PUBCHEM_SHAPE_VOLUME>
182.1

> <PUBCHEM_COORDINATE_TYPE>
2
5
10

$$$$
