10429242
  -OEChem-03292013303D

 44 46  0     1  0  0  0  0  0999 V2000
    5.8603   -1.0465    0.2165 S   0  0  0  0  0  0  0  0  0  0  0  0
   -0.8926   -1.4682    0.4654 O   0  0  0  0  0  0  0  0  0  0  0  0
    6.1347    2.8009    0.0847 O   0  0  0  0  0  0  0  0  0  0  0  0
    8.4800   -1.1773    0.0361 O   0  0  0  0  0  0  0  0  0  0  0  0
   -3.2532   -2.5410   -0.1594 O   0  0  0  0  0  0  0  0  0  0  0  0
    7.4817    0.9213    0.0604 N   0  0  0  0  0  0  0  0  0  0  0  0
   -4.4838    0.6694    0.4798 N   0  0  0  0  0  0  0  0  0  0  0  0
    5.1210    0.6146    0.2706 C   0  0  2  0  0  0  0  0  0  0  0  0
    4.1075    0.7921   -0.8462 C   0  0  0  0  0  0  0  0  0  0  0  0
    2.7719    0.1881   -0.4955 C   0  0  0  0  0  0  0  0  0  0  0  0
    6.2734    1.5832    0.1288 C   0  0  0  0  0  0  0  0  0  0  0  0
    1.8200    0.9663    0.1463 C   0  0  0  0  0  0  0  0  0  0  0  0
    2.5159   -1.1355   -0.8208 C   0  0  0  0  0  0  0  0  0  0  0  0
    0.3132   -0.9222    0.1488 C   0  0  0  0  0  0  0  0  0  0  0  0
    7.5007   -0.4486    0.0906 C   0  0  0  0  0  0  0  0  0  0  0  0
    0.5835    0.4078    0.4704 C   0  0  0  0  0  0  0  0  0  0  0  0
    1.2794   -1.6939   -0.4968 C   0  0  0  0  0  0  0  0  0  0  0  0
   -2.0162   -0.5892    0.4936 C   0  0  0  0  0  0  0  0  0  0  0  0
   -6.8815    0.7727    0.1871 C   0  0  0  0  0  0  0  0  0  0  0  0
   -8.1320    1.5771    0.2207 C   0  0  0  0  0  0  0  0  0  0  0  0
   -4.5803   -0.6199    0.1449 C   0  0  0  0  0  0  0  0  0  0  0  0
   -3.2790   -1.3485    0.1362 C   0  0  0  0  0  0  0  0  0  0  0  0
   -6.9055   -0.5754   -0.1529 C   0  0  0  0  0  0  0  0  0  0  0  0
   -5.7201   -1.3018   -0.1769 C   0  0  0  0  0  0  0  0  0  0  0  0
   -5.6561    1.3429    0.4923 C   0  0  0  0  0  0  0  0  0  0  0  0
   -8.4427    2.2315   -1.1248 C   0  0  0  0  0  0  0  0  0  0  0  0
    4.6822    0.7709    1.2626 H   0  0  0  0  0  0  0  0  0  0  0  0
    3.9520    1.8610   -1.0491 H   0  0  0  0  0  0  0  0  0  0  0  0
    4.4706    0.3880   -1.8015 H   0  0  0  0  0  0  0  0  0  0  0  0
    2.0239    2.0007    0.4084 H   0  0  0  0  0  0  0  0  0  0  0  0
    3.2515   -1.7450   -1.3368 H   0  0  0  0  0  0  0  0  0  0  0  0
    8.3471    1.4446   -0.0241 H   0  0  0  0  0  0  0  0  0  0  0  0
   -0.1306    1.0339    0.9972 H   0  0  0  0  0  0  0  0  0  0  0  0
    1.0731   -2.7296   -0.7527 H   0  0  0  0  0  0  0  0  0  0  0  0
   -1.9142    0.2116   -0.2496 H   0  0  0  0  0  0  0  0  0  0  0  0
   -2.1200   -0.1843    1.5058 H   0  0  0  0  0  0  0  0  0  0  0  0
   -8.9763    0.9432    0.5193 H   0  0  0  0  0  0  0  0  0  0  0  0
   -8.0566    2.3532    0.9926 H   0  0  0  0  0  0  0  0  0  0  0  0
   -7.8407   -1.0693   -0.4024 H   0  0  0  0  0  0  0  0  0  0  0  0
   -5.7351   -2.3523   -0.4417 H   0  0  0  0  0  0  0  0  0  0  0  0
   -5.5721    2.3909    0.7633 H   0  0  0  0  0  0  0  0  0  0  0  0
   -8.5689    1.4792   -1.9107 H   0  0  0  0  0  0  0  0  0  0  0  0
   -9.3679    2.8124   -1.0574 H   0  0  0  0  0  0  0  0  0  0  0  0
   -7.6372    2.9075   -1.4311 H   0  0  0  0  0  0  0  0  0  0  0  0
  1  8  1  0  0  0  0
  1 15  1  0  0  0  0
  2 14  1  0  0  0  0
  2 18  1  0  0  0  0
  3 11  2  0  0  0  0
  4 15  2  0  0  0  0
  5 22  2  0  0  0  0
  6 11  1  0  0  0  0
  6 15  1  0  0  0  0
  6 32  1  0  0  0  0
  7 21  2  0  0  0  0
  7 25  1  0  0  0  0
  8  9  1  0  0  0  0
  8 11  1  0  0  0  0
  8 27  1  0  0  0  0
  9 10  1  0  0  0  0
  9 28  1  0  0  0  0
  9 29  1  0  0  0  0
 10 12  2  0  0  0  0
 10 13  1  0  0  0  0
 12 16  1  0  0  0  0
 12 30  1  0  0  0  0
 13 17  2  0  0  0  0
 13 31  1  0  0  0  0
 14 16  2  0  0  0  0
 14 17  1  0  0  0  0
 16 33  1  0  0  0  0
 17 34  1  0  0  0  0
 18 22  1  0  0  0  0
 18 35  1  0  0  0  0
 18 36  1  0  0  0  0
 19 20  1  0  0  0  0
 19 23  1  0  0  0  0
 19 25  2  0  0  0  0
 20 26  1  0  0  0  0
 20 37  1  0  0  0  0
 20 38  1  0  0  0  0
 21 22  1  0  0  0  0
 21 24  1  0  0  0  0
 23 24  2  0  0  0  0
 23 39  1  0  0  0  0
 24 40  1  0  0  0  0
 25 41  1  0  0  0  0
 26 42  1  0  0  0  0
 26 43  1  0  0  0  0
 26 44  1  0  0  0  0
M  END
> <PUBCHEM_COMPOUND_CID>
10429242

> <PUBCHEM_CONFORMER_RMSD>
1

> <PUBCHEM_CONFORMER_DIVERSEORDER>
1
106
29
31
183
116
348
60
275
200
248
320
66
27
153
41
315
302
126
256
234
18
123
207
23
137
326
264
329
174
308
170
173
289
330
45
227
349
225
139
194
344
201
35
184
5
265
101
83
238
105
243
317
99
132
334
318
190
58
322
156
32
52
53
191
338
283
263
19
2
323
55
298
78
313
155
7
361
305
333
280
303
251
223
152
34
254
282
125
63
3
288
98
208
331
355
253
206
4
47
189
185
343
138
167
14
6
224
71
296
102
119
346
33
232
171
247
221
269
358
117
267
341
260
84
48
76
241
321
118
292
87
352
337
316
220
112
354
242
332
95
255
11
291
181
122
120
13
115
245
325
327
179
235
340
195
299
177
21
176
142
113
75
319
240
246
162
12
130
54
161
43
336
124
281
328
294
44
111
90
144
164
149
9
231
46
20
356
295
214
193
96
97
297
147
37
359
202
250
324
192
236
121
104
230
159
188
94
350
79
148
42
86
203
74
219
150
301
199
40
65
274
210
213
175
59
133
351
92
237
293
69
81
91
300
211
134
103
107
273
258
169
216
215
252
168
304
259
160
276
226
143
279
49
244
57
266
311
141
30
205
182
135
89
50
154
270
217
62
233
127
72
28
249
25
100
310
257
17
198
36
22
136
15
339
82
180
64
360
16
290
218
163
172
271
157
187
268
85
109
8
10
68
110
158
197
212
51
306
166
77
88
312
261
309
335
165
67
26
38
56
277
307
129
80
196
209
278
24
229
39
140
204
272
342
347
285
239
186
131
286
222
345
357
146
61
314
93
70
151
284
178
108
287
262
145
73
228
114
128
353

> <PUBCHEM_MMFF94_PARTIAL_CHARGES>
33
1 -0.37
10 -0.14
11 0.57
12 -0.15
13 -0.15
14 0.08
15 0.77
16 -0.15
17 -0.15
18 0.34
19 -0.14
2 -0.36
20 0.14
21 0.4
22 0.42
23 -0.15
24 -0.15
25 0.16
3 -0.57
30 0.15
31 0.15
32 0.37
33 0.15
34 0.15
39 0.15
4 -0.57
40 0.15
41 0.15
5 -0.57
6 -0.49
7 -0.62
8 0.29
9 0.14

> <PUBCHEM_EFFECTIVE_ROTOR_COUNT>
7.6

> <PUBCHEM_PHARMACOPHORE_FEATURES>
9
1 2 acceptor
1 26 hydrophobe
1 3 acceptor
1 5 acceptor
1 6 donor
1 7 acceptor
5 1 6 8 11 15 rings
6 10 12 13 14 16 17 rings
6 7 19 21 23 24 25 rings

> <PUBCHEM_HEAVY_ATOM_COUNT>
26

> <PUBCHEM_ATOM_DEF_STEREO_COUNT>
0

> <PUBCHEM_ATOM_UDEF_STEREO_COUNT>
1

> <PUBCHEM_BOND_DEF_STEREO_COUNT>
0

> <PUBCHEM_BOND_UDEF_STEREO_COUNT>
0

> <PUBCHEM_ISOTOPIC_ATOM_COUNT>
0

> <PUBCHEM_COMPONENT_COUNT>
1

> <PUBCHEM_CACTVS_TAUTO_COUNT>
6

> <PUBCHEM_CONFORMER_ID>
009F233A00000001

> <PUBCHEM_MMFF94_ENERGY>
64.804

> <PUBCHEM_FEATURE_SELFOVERLAP>
45.68

> <PUBCHEM_SHAPE_FINGERPRINT>
10666366 153 18202013101574930646
10670039 82 18272087159441072833
10835480 77 18272654541061751519
11315181 36 17775570853783716299
11719270 70 17846500327306556974
125118 31 18334017215682834644
12838862 33 18338220610276541457
13533116 47 17603858971881154450
13673619 4 10665230363004922935
13740195 50 18334866048277632291
13914758 101 18409731755503554226
13968360 50 17060345097940684422
14123256 10 11887954350136190954
14251764 18 18333732437585843510
14344974 52 18411976971955385357
14347424 109 18335978749560167224
14428016 86 18410857634283732689
14556957 393 15625678205387026721
14671636 106 8646473121163766313
14729087 3 18410855465077380257
15183329 4 18411983554879383162
15461852 350 17846775243862607111
15728490 51 9655567509187249385
1577012 14 18261385638315926587
15840311 113 18187367657953246580
16989713 51 17202193222390492047
19611394 137 17970641899063801883
20105231 36 13190341249415118248
20281389 69 18260266356262557901
21130935 74 18260829336566172058
21150785 3 15051730880861518061
21315763 28 18341332279047132122
21774942 28 17703238307996796953
21781055 127 16516541983748628630
21792934 111 18201992228192263976
23559900 14 17917424367900418265
3009799 131 17489590073331063714
3633792 109 18342181033911246026
4073 2 18114748256186022698
4093350 32 17313378985589287026
4144715 1 17606974068130696560
4339292 15 16773223120537605471
5385378 56 17168139005718992546
54039377 194 10303802204042765937
5969126 39 14189582914322615835
59755656 520 17240764016829822219
636775 8 10807929397379043693
99344 41 18413670214787068830
999808 66 10879989195051550229

> <PUBCHEM_SHAPE_MULTIPOLES>
505.48
28.11
2.2
0.79
4.74
0.4
0.09
12.25
1.03
0.77
0.19
0.33
0.09
0.54

> <PUBCHEM_SHAPE_SELFOVERLAP>
1071.078

> <PUBCHEM_SHAPE_VOLUME>
284.7

> <PUBCHEM_COORDINATE_TYPE>
2
5
10

$$$$
