10423558
  -OEChem-03292013303D

 32 33  0     0  0  0  0  0  0999 V2000
   -1.3528   -1.5421   -1.6319 O   0  0  0  0  0  0  0  0  0  0  0  0
   -1.1559    0.9621    2.4577 O   0  0  0  0  0  0  0  0  0  0  0  0
   -0.1411   -2.0677    1.4481 O   0  0  0  0  0  0  0  0  0  0  0  0
   -4.6831    1.7204   -0.6524 O   0  0  0  0  0  0  0  0  0  0  0  0
    2.8595    2.2493   -1.3465 O   0  0  0  0  0  0  0  0  0  0  0  0
    5.1091    0.8126   -0.5730 O   0  0  0  0  0  0  0  0  0  0  0  0
   -1.2540   -0.2901    0.4127 C   0  0  0  0  0  0  0  0  0  0  0  0
    1.3177   -0.5405    0.4429 C   0  0  0  0  0  0  0  0  0  0  0  0
   -0.0086   -1.0191    0.7998 C   0  0  0  0  0  0  0  0  0  0  0  0
   -1.8551   -0.5971   -0.7880 C   0  0  0  0  0  0  0  0  0  0  0  0
   -1.7559    0.6633    1.2707 C   0  0  0  0  0  0  0  0  0  0  0  0
   -3.0178    0.0841   -1.1488 C   0  0  0  0  0  0  0  0  0  0  0  0
    1.4604    0.6387   -0.2884 C   0  0  0  0  0  0  0  0  0  0  0  0
   -2.9184    1.3445    0.9098 C   0  0  0  0  0  0  0  0  0  0  0  0
    2.4470   -1.2618    0.8307 C   0  0  0  0  0  0  0  0  0  0  0  0
   -3.5492    1.0550   -0.2999 C   0  0  0  0  0  0  0  0  0  0  0  0
    2.7325    1.0966   -0.6319 C   0  0  0  0  0  0  0  0  0  0  0  0
    3.7188   -0.8040    0.4872 C   0  0  0  0  0  0  0  0  0  0  0  0
    3.8616    0.3754   -0.2440 C   0  0  0  0  0  0  0  0  0  0  0  0
   -1.8147   -2.8796   -1.4548 C   0  0  0  0  0  0  0  0  0  0  0  0
   -3.5101   -0.1399   -2.0919 H   0  0  0  0  0  0  0  0  0  0  0  0
    0.6044    1.2262   -0.6077 H   0  0  0  0  0  0  0  0  0  0  0  0
   -3.3277    2.1003    1.5756 H   0  0  0  0  0  0  0  0  0  0  0  0
    2.3629   -2.1834    1.4006 H   0  0  0  0  0  0  0  0  0  0  0  0
    4.5901   -1.3755    0.7956 H   0  0  0  0  0  0  0  0  0  0  0  0
   -0.3811    0.3955    2.6010 H   0  0  0  0  0  0  0  0  0  0  0  0
   -2.8723   -2.9514   -1.7275 H   0  0  0  0  0  0  0  0  0  0  0  0
   -1.6730   -3.2183   -0.4245 H   0  0  0  0  0  0  0  0  0  0  0  0
   -1.2388   -3.5306   -2.1182 H   0  0  0  0  0  0  0  0  0  0  0  0
   -4.9078    2.3546    0.0500 H   0  0  0  0  0  0  0  0  0  0  0  0
    3.8069    2.4147   -1.4945 H   0  0  0  0  0  0  0  0  0  0  0  0
    5.7666    0.1880   -0.2214 H   0  0  0  0  0  0  0  0  0  0  0  0
  1 10  1  0  0  0  0
  1 20  1  0  0  0  0
  2 11  1  0  0  0  0
  2 26  1  0  0  0  0
  3  9  2  0  0  0  0
  4 16  1  0  0  0  0
  4 30  1  0  0  0  0
  5 17  1  0  0  0  0
  5 31  1  0  0  0  0
  6 19  1  0  0  0  0
  6 32  1  0  0  0  0
  7  9  1  0  0  0  0
  7 10  1  0  0  0  0
  7 11  2  0  0  0  0
  8  9  1  0  0  0  0
  8 13  2  0  0  0  0
  8 15  1  0  0  0  0
 10 12  2  0  0  0  0
 11 14  1  0  0  0  0
 12 16  1  0  0  0  0
 12 21  1  0  0  0  0
 13 17  1  0  0  0  0
 13 22  1  0  0  0  0
 14 16  2  0  0  0  0
 14 23  1  0  0  0  0
 15 18  2  0  0  0  0
 15 24  1  0  0  0  0
 17 19  2  0  0  0  0
 18 19  1  0  0  0  0
 18 25  1  0  0  0  0
 20 27  1  0  0  0  0
 20 28  1  0  0  0  0
 20 29  1  0  0  0  0
M  END
> <PUBCHEM_COMPOUND_CID>
10423558

> <PUBCHEM_CONFORMER_RMSD>
0.6

> <PUBCHEM_CONFORMER_DIVERSEORDER>
3
15
19
7
9
21
8
10
14
17
5
16
6
18
22
12
2
24
13
11
1
4
23
20

> <PUBCHEM_MMFF94_PARTIAL_CHARGES>
29
1 -0.36
10 0.08
11 0.08
12 -0.15
13 -0.15
14 -0.15
15 -0.15
16 0.08
17 0.08
18 -0.15
19 0.08
2 -0.53
20 0.28
21 0.15
22 0.15
23 0.15
24 0.15
25 0.15
26 0.45
3 -0.57
30 0.45
31 0.45
32 0.45
4 -0.53
5 -0.53
6 -0.53
7 0.09
8 0.09
9 0.4

> <PUBCHEM_EFFECTIVE_ROTOR_COUNT>
3

> <PUBCHEM_PHARMACOPHORE_FEATURES>
8
1 1 acceptor
1 2 donor
1 3 acceptor
1 4 donor
1 5 donor
1 6 donor
6 7 10 11 12 14 16 rings
6 8 13 15 17 18 19 rings

> <PUBCHEM_HEAVY_ATOM_COUNT>
20

> <PUBCHEM_ATOM_DEF_STEREO_COUNT>
0

> <PUBCHEM_ATOM_UDEF_STEREO_COUNT>
0

> <PUBCHEM_BOND_DEF_STEREO_COUNT>
0

> <PUBCHEM_BOND_UDEF_STEREO_COUNT>
0

> <PUBCHEM_ISOTOPIC_ATOM_COUNT>
0

> <PUBCHEM_COMPONENT_COUNT>
1

> <PUBCHEM_CACTVS_TAUTO_COUNT>
138

> <PUBCHEM_CONFORMER_ID>
009F0D0600000003

> <PUBCHEM_MMFF94_ENERGY>
73.7959

> <PUBCHEM_FEATURE_SELFOVERLAP>
40.602

> <PUBCHEM_SHAPE_FINGERPRINT>
10764073 3 13894107877430486527
11640471 11 18411422803986270160
12173636 292 17969509379662711379
12236239 1 18341608179404102041
12633257 1 15068630395686390133
12714826 92 17559956704543502359
12788726 201 18196079156825416631
13149001 5 17416660601459639849
13583140 156 18113627793596402649
14115302 16 18130777949837991451
14420673 8 11388573692631689592
15163728 17 18054517906906861693
15342168 16 17531256083661335436
15775835 57 18408885118201183853
16752209 62 17631723860276556473
16945 1 17632578253493525027
1813 80 17689145713251405938
18186145 218 18187363203634017942
18219364 16 17458347467887103034
19049666 15 15503763114726904738
19862831 5 18130785655056897216
19868273 293 18272650151351960899
20600515 1 16914781840023227115
20645476 183 18341886381879737359
20871999 31 17775273998212672391
21475661 188 16734099038581364637
21486144 27 17022903466828251620
21524375 3 18410578344817654297
23227448 37 18187368748558051479
23402539 116 16988277573473955313
23402655 69 18408601466097930476
23557571 272 17416384666584604770
23559900 14 17346588678424807026
25 1 17968091997716160218
27216 239 17095814337592345080
2838139 119 17679564663642781869
298252 57 18272649009228510843
350125 39 17751659864149926730
474 4 18259703384913291424
4921388 177 17417543500205610502
74978 22 18202279242753437896
77492 1 18341885243307098539
81228 2 15069484806515335907
8272917 22 17971471797923693755

> <PUBCHEM_SHAPE_MULTIPOLES>
376.37
7.7
2.18
1.6
3.75
1.06
-0.39
-3.66
2.23
-0.98
0.62
-0.52
0.02
-1.52

> <PUBCHEM_SHAPE_SELFOVERLAP>
823.107

> <PUBCHEM_SHAPE_VOLUME>
204.8

> <PUBCHEM_COORDINATE_TYPE>
2
5
10

$$$$
