10429090
  -OEChem-03292013303D

 43 47  0     1  0  0  0  0  0999 V2000
   -3.0872   -2.0208    0.8397 O   0  0  0  0  0  0  0  0  0  0  0  0
   -5.6947    0.1696   -2.5390 O   0  0  0  0  0  0  0  0  0  0  0  0
   -1.1406    2.2308    0.8074 O   0  0  0  0  0  0  0  0  0  0  0  0
    1.3357    2.4182    0.3233 O   0  0  0  0  0  0  0  0  0  0  0  0
    1.8820   -2.8876   -0.0494 O   0  0  0  0  0  0  0  0  0  0  0  0
    3.8335    2.7896   -0.0891 O   0  0  0  0  0  0  0  0  0  0  0  0
    6.5214   -1.0525   -0.7579 O   0  0  0  0  0  0  0  0  0  0  0  0
   -3.4790    0.3450    1.1376 C   0  0  2  0  0  0  0  0  0  0  0  0
   -4.1056   -0.9923    0.6925 C   0  0  1  0  0  0  0  0  0  0  0  0
   -4.1259    1.5962    0.5519 C   0  0  0  0  0  0  0  0  0  0  0  0
   -4.6067   -1.0288   -0.7588 C   0  0  0  0  0  0  0  0  0  0  0  0
   -5.3630    0.2304   -1.1559 C   0  0  1  0  0  0  0  0  0  0  0  0
   -4.5019    1.4655   -0.9184 C   0  0  0  0  0  0  0  0  0  0  0  0
   -2.0627    0.0500    0.7851 C   0  0  0  0  0  0  0  0  0  0  0  0
   -1.9084   -1.3271    0.6854 C   0  0  0  0  0  0  0  0  0  0  0  0
   -0.9733    0.8917    0.6490 C   0  0  0  0  0  0  0  0  0  0  0  0
   -0.6820   -1.9179    0.4513 C   0  0  0  0  0  0  0  0  0  0  0  0
    0.2827    0.3195    0.3942 C   0  0  0  0  0  0  0  0  0  0  0  0
    0.4275   -1.0763    0.2982 C   0  0  0  0  0  0  0  0  0  0  0  0
    1.4575    1.2024    0.2383 C   0  0  0  0  0  0  0  0  0  0  0  0
    1.7539   -1.6724    0.0366 C   0  0  0  0  0  0  0  0  0  0  0  0
    2.7807    0.6007   -0.0229 C   0  0  0  0  0  0  0  0  0  0  0  0
    2.9234   -0.7846   -0.1203 C   0  0  0  0  0  0  0  0  0  0  0  0
    3.8989    1.4300   -0.1731 C   0  0  0  0  0  0  0  0  0  0  0  0
    4.1844   -1.3406   -0.3682 C   0  0  0  0  0  0  0  0  0  0  0  0
    5.2959   -0.5106   -0.5174 C   0  0  0  0  0  0  0  0  0  0  0  0
    5.1534    0.8719   -0.4200 C   0  0  0  0  0  0  0  0  0  0  0  0
   -3.5148    0.4123    2.2340 H   0  0  0  0  0  0  0  0  0  0  0  0
   -4.9396   -1.2430    1.3597 H   0  0  0  0  0  0  0  0  0  0  0  0
   -3.5140    2.4896    0.6999 H   0  0  0  0  0  0  0  0  0  0  0  0
   -5.0532    1.7810    1.1116 H   0  0  0  0  0  0  0  0  0  0  0  0
   -3.7723   -1.1892   -1.4558 H   0  0  0  0  0  0  0  0  0  0  0  0
   -5.2406   -1.9134   -0.9036 H   0  0  0  0  0  0  0  0  0  0  0  0
   -6.2980    0.3096   -0.5892 H   0  0  0  0  0  0  0  0  0  0  0  0
   -5.0443    2.3613   -1.2447 H   0  0  0  0  0  0  0  0  0  0  0  0
   -3.5993    1.4232   -1.5413 H   0  0  0  0  0  0  0  0  0  0  0  0
   -0.6013   -2.9973    0.3818 H   0  0  0  0  0  0  0  0  0  0  0  0
   -6.2401   -0.6239   -2.6746 H   0  0  0  0  0  0  0  0  0  0  0  0
   -0.2874    2.6863    0.8556 H   0  0  0  0  0  0  0  0  0  0  0  0
    4.3087   -2.4179   -0.4461 H   0  0  0  0  0  0  0  0  0  0  0  0
    6.0288    1.5063   -0.5382 H   0  0  0  0  0  0  0  0  0  0  0  0
    4.7189    3.1689   -0.2226 H   0  0  0  0  0  0  0  0  0  0  0  0
    6.4374   -2.0208   -0.7941 H   0  0  0  0  0  0  0  0  0  0  0  0
  1  9  1  0  0  0  0
  1 15  1  0  0  0  0
  2 12  1  0  0  0  0
  2 38  1  0  0  0  0
  3 16  1  0  0  0  0
  3 39  1  0  0  0  0
  4 20  2  0  0  0  0
  5 21  2  0  0  0  0
  6 24  1  0  0  0  0
  6 42  1  0  0  0  0
  7 26  1  0  0  0  0
  7 43  1  0  0  0  0
  8  9  1  0  0  0  0
  8 10  1  0  0  0  0
  8 14  1  0  0  0  0
  8 28  1  0  0  0  0
  9 11  1  0  0  0  0
  9 29  1  0  0  0  0
 10 13  1  0  0  0  0
 10 30  1  0  0  0  0
 10 31  1  0  0  0  0
 11 12  1  0  0  0  0
 11 32  1  0  0  0  0
 11 33  1  0  0  0  0
 12 13  1  0  0  0  0
 12 34  1  0  0  0  0
 13 35  1  0  0  0  0
 13 36  1  0  0  0  0
 14 15  2  0  0  0  0
 14 16  1  0  0  0  0
 15 17  1  0  0  0  0
 16 18  2  0  0  0  0
 17 19  2  0  0  0  0
 17 37  1  0  0  0  0
 18 19  1  0  0  0  0
 18 20  1  0  0  0  0
 19 21  1  0  0  0  0
 20 22  1  0  0  0  0
 21 23  1  0  0  0  0
 22 23  2  0  0  0  0
 22 24  1  0  0  0  0
 23 25  1  0  0  0  0
 24 27  2  0  0  0  0
 25 26  2  0  0  0  0
 25 40  1  0  0  0  0
 26 27  1  0  0  0  0
 27 41  1  0  0  0  0
M  END
> <PUBCHEM_COMPOUND_CID>
10429090

> <PUBCHEM_CONFORMER_RMSD>
0.6

> <PUBCHEM_CONFORMER_DIVERSEORDER>
2
1

> <PUBCHEM_MMFF94_PARTIAL_CHARGES>
31
1 -0.36
12 0.28
14 -0.14
15 0.08
16 0.08
17 -0.15
18 0.09
19 0.09
2 -0.68
20 0.4
21 0.4
22 0.09
23 0.09
24 0.08
25 -0.15
26 0.08
27 -0.15
3 -0.53
37 0.15
38 0.4
39 0.45
4 -0.57
40 0.15
41 0.15
42 0.45
43 0.45
5 -0.57
6 -0.53
7 -0.53
8 0.14
9 0.28

> <PUBCHEM_EFFECTIVE_ROTOR_COUNT>
1

> <PUBCHEM_PHARMACOPHORE_FEATURES>
13
1 1 acceptor
1 2 acceptor
1 2 donor
1 3 donor
1 4 acceptor
1 5 acceptor
1 6 donor
1 7 donor
5 1 8 9 14 15 rings
6 14 15 16 17 18 19 rings
6 18 19 20 21 22 23 rings
6 22 23 24 25 26 27 rings
6 8 9 10 11 12 13 rings

> <PUBCHEM_HEAVY_ATOM_COUNT>
27

> <PUBCHEM_ATOM_DEF_STEREO_COUNT>
3

> <PUBCHEM_ATOM_UDEF_STEREO_COUNT>
0

> <PUBCHEM_BOND_DEF_STEREO_COUNT>
0

> <PUBCHEM_BOND_UDEF_STEREO_COUNT>
0

> <PUBCHEM_ISOTOPIC_ATOM_COUNT>
0

> <PUBCHEM_COMPONENT_COUNT>
1

> <PUBCHEM_CACTVS_TAUTO_COUNT>
57

> <PUBCHEM_CONFORMER_ID>
009F22A200000002

> <PUBCHEM_MMFF94_ENERGY>
85.9266

> <PUBCHEM_FEATURE_SELFOVERLAP>
66.305

> <PUBCHEM_SHAPE_FINGERPRINT>
10693767 8 18059563685635452711
10763959 59 17748547052411393244
11089746 13 18335136484217863038
11513181 2 17772477785081655031
11578080 2 17024304120093645254
12011746 2 18409451371295646670
12236239 1 17561083600850686528
12403259 415 18186803608271562001
12670546 177 18341325622396300471
12788726 201 17559400141633705817
12838862 33 18338786897988913172
13583140 156 16805327699688704065
13862211 1 18413110541977726562
13944108 23 16602353154703050053
14294032 229 16199324080060469529
14528608 73 18412262848060251350
15183329 4 18261390022707031895
15196674 1 18411427240998535136
15209294 21 12540697003298545415
15788980 27 17703794716756665345
16994733 274 16154568626565901612
17349148 13 17632587062318383704
18681886 176 18343863329862094626
18769570 83 16008742490147181293
200 152 17989207040527671899
20028762 73 18059856143487143334
20775438 99 16837365432955551135
21033648 144 18337675329174673013
21033648 29 17603863442129511197
21267235 1 18339940280215375946
21279426 13 18408046199825385174
21521239 73 18201707488338638831
21709351 56 18410014346844766134
21857420 4 12775948141293847741
21859007 373 17969199227828169420
221357 26 18412256251628872685
22393880 68 18334850654007326643
23402539 116 18273500043807096264
23559900 14 18411418444805753992
23569914 152 17191502304832399871
24771293 8 18202281408240388520
3004659 81 18261115171429754272
335352 9 18410865330427192852
350125 39 18410020940300307000
4015057 19 18342458187734138769
4098825 35 18410287000855417173
4214541 1 18410301306304868144
5104073 3 18410865386203785346
5283173 99 18334008359370527973
542803 24 13840267004883449586
59755656 215 18337116662111007886
9709674 26 18341626875281138722

> <PUBCHEM_SHAPE_MULTIPOLES>
514.56
13
2.49
1.13
2.48
0.21
-0.48
0.76
-5.68
1.05
0.28
-1.9
0.06
0.5

> <PUBCHEM_SHAPE_SELFOVERLAP>
1178.387

> <PUBCHEM_SHAPE_VOLUME>
262.9

> <PUBCHEM_COORDINATE_TYPE>
2
5
10

$$$$
