10426622
  -OEChem-03292013303D

 40 42  0     0  0  0  0  0  0999 V2000
    1.4663   -1.3254   -0.0493 O   0  0  0  0  0  0  0  0  0  0  0  0
   -2.1729    1.8781    0.2019 O   0  0  0  0  0  0  0  0  0  0  0  0
   -0.3562   -3.3273   -0.1008 O   0  0  0  0  0  0  0  0  0  0  0  0
    0.3454    2.6035    0.1725 O   0  0  0  0  0  0  0  0  0  0  0  0
    4.0666   -2.0337   -0.1508 O   0  0  0  0  0  0  0  0  0  0  0  0
    6.0603   -0.1186   -0.1092 O   0  0  0  0  0  0  0  0  0  0  0  0
   -4.0741   -0.1952    0.1500 C   0  0  0  0  0  0  0  0  0  0  0  0
   -2.6032   -0.4514    0.0982 C   0  0  0  0  0  0  0  0  0  0  0  0
   -1.6917    0.6044    0.1266 C   0  0  0  0  0  0  0  0  0  0  0  0
   -0.3218    0.3329    0.0785 C   0  0  0  0  0  0  0  0  0  0  0  0
   -4.9779   -1.4725    0.0534 C   0  0  0  0  0  0  0  0  0  0  0  0
   -4.4511    0.4544    1.5219 C   0  0  0  0  0  0  0  0  0  0  0  0
   -2.1482   -1.7679    0.0215 C   0  0  0  0  0  0  0  0  0  0  0  0
    0.1380   -0.9815    0.0018 C   0  0  0  0  0  0  0  0  0  0  0  0
   -4.5281    0.6709   -1.0470 C   0  0  0  0  0  0  0  0  0  0  0  0
   -0.7793   -2.0339   -0.0267 C   0  0  0  0  0  0  0  0  0  0  0  0
    0.6630    1.4252    0.1068 C   0  0  0  0  0  0  0  0  0  0  0  0
    2.0804    1.0361    0.0503 C   0  0  0  0  0  0  0  0  0  0  0  0
    2.4004   -0.3193   -0.0244 C   0  0  0  0  0  0  0  0  0  0  0  0
    3.0887    2.0033    0.0717 C   0  0  0  0  0  0  0  0  0  0  0  0
    3.7395   -0.7113   -0.0781 C   0  0  0  0  0  0  0  0  0  0  0  0
   -5.1184    1.8728   -1.0294 C   0  0  0  0  0  0  0  0  0  0  0  0
    4.7497    0.2509   -0.0572 C   0  0  0  0  0  0  0  0  0  0  0  0
    4.4246    1.6055    0.0176 C   0  0  0  0  0  0  0  0  0  0  0  0
   -4.8064   -2.1541    0.8953 H   0  0  0  0  0  0  0  0  0  0  0  0
   -6.0423   -1.2043    0.0761 H   0  0  0  0  0  0  0  0  0  0  0  0
   -4.8101   -2.0247   -0.8796 H   0  0  0  0  0  0  0  0  0  0  0  0
   -3.9997    1.4378    1.6820 H   0  0  0  0  0  0  0  0  0  0  0  0
   -4.1252   -0.1856    2.3517 H   0  0  0  0  0  0  0  0  0  0  0  0
   -5.5364    0.5819    1.6180 H   0  0  0  0  0  0  0  0  0  0  0  0
   -2.8152   -2.6228   -0.0011 H   0  0  0  0  0  0  0  0  0  0  0  0
   -4.3358    0.2382   -2.0294 H   0  0  0  0  0  0  0  0  0  0  0  0
    2.8557    3.0627    0.1298 H   0  0  0  0  0  0  0  0  0  0  0  0
   -1.4464    2.5194    0.2152 H   0  0  0  0  0  0  0  0  0  0  0  0
   -5.3797    2.3632   -1.9613 H   0  0  0  0  0  0  0  0  0  0  0  0
   -5.3535    2.3936   -0.1095 H   0  0  0  0  0  0  0  0  0  0  0  0
    5.2036    2.3631    0.0346 H   0  0  0  0  0  0  0  0  0  0  0  0
    0.6165   -3.3292   -0.1257 H   0  0  0  0  0  0  0  0  0  0  0  0
    5.0362   -2.1095   -0.1795 H   0  0  0  0  0  0  0  0  0  0  0  0
    6.6160    0.6792   -0.0845 H   0  0  0  0  0  0  0  0  0  0  0  0
  1 14  1  0  0  0  0
  1 19  1  0  0  0  0
  2  9  1  0  0  0  0
  2 34  1  0  0  0  0
  3 16  1  0  0  0  0
  3 38  1  0  0  0  0
  4 17  2  0  0  0  0
  5 21  1  0  0  0  0
  5 39  1  0  0  0  0
  6 23  1  0  0  0  0
  6 40  1  0  0  0  0
  7  8  1  0  0  0  0
  7 11  1  0  0  0  0
  7 12  1  0  0  0  0
  7 15  1  0  0  0  0
  8  9  1  0  0  0  0
  8 13  2  0  0  0  0
  9 10  2  0  0  0  0
 10 14  1  0  0  0  0
 10 17  1  0  0  0  0
 11 25  1  0  0  0  0
 11 26  1  0  0  0  0
 11 27  1  0  0  0  0
 12 28  1  0  0  0  0
 12 29  1  0  0  0  0
 12 30  1  0  0  0  0
 13 16  1  0  0  0  0
 13 31  1  0  0  0  0
 14 16  2  0  0  0  0
 15 22  2  0  0  0  0
 15 32  1  0  0  0  0
 17 18  1  0  0  0  0
 18 19  2  0  0  0  0
 18 20  1  0  0  0  0
 19 21  1  0  0  0  0
 20 24  2  0  0  0  0
 20 33  1  0  0  0  0
 21 23  2  0  0  0  0
 22 35  1  0  0  0  0
 22 36  1  0  0  0  0
 23 24  1  0  0  0  0
 24 37  1  0  0  0  0
M  END
> <PUBCHEM_COMPOUND_CID>
10426622

> <PUBCHEM_CONFORMER_RMSD>
0.6

> <PUBCHEM_CONFORMER_DIVERSEORDER>
1
4
2
6
5
3

> <PUBCHEM_MMFF94_PARTIAL_CHARGES>
32
1 -0.17
10 0.09
13 -0.15
14 0.08
15 -0.29
16 0.08
17 0.4
18 0.09
19 0.08
2 -0.53
20 -0.15
21 0.08
22 -0.3
23 0.08
24 -0.15
3 -0.53
31 0.15
32 0.15
33 0.15
34 0.45
35 0.15
36 0.15
37 0.15
38 0.45
39 0.45
4 -0.57
40 0.45
5 -0.53
6 -0.53
7 0.28
8 -0.14
9 0.08

> <PUBCHEM_EFFECTIVE_ROTOR_COUNT>
2

> <PUBCHEM_PHARMACOPHORE_FEATURES>
11
1 1 acceptor
1 2 donor
1 22 hydrophobe
1 3 donor
1 4 acceptor
1 5 donor
1 6 donor
3 7 11 12 hydrophobe
6 1 10 14 17 18 19 rings
6 18 19 20 21 23 24 rings
6 8 9 10 13 14 16 rings

> <PUBCHEM_HEAVY_ATOM_COUNT>
24

> <PUBCHEM_ATOM_DEF_STEREO_COUNT>
0

> <PUBCHEM_ATOM_UDEF_STEREO_COUNT>
0

> <PUBCHEM_BOND_DEF_STEREO_COUNT>
0

> <PUBCHEM_BOND_UDEF_STEREO_COUNT>
0

> <PUBCHEM_ISOTOPIC_ATOM_COUNT>
0

> <PUBCHEM_COMPONENT_COUNT>
1

> <PUBCHEM_CACTVS_TAUTO_COUNT>
144

> <PUBCHEM_CONFORMER_ID>
009F18FE00000001

> <PUBCHEM_MMFF94_ENERGY>
81.2083

> <PUBCHEM_FEATURE_SELFOVERLAP>
55.885

> <PUBCHEM_SHAPE_FINGERPRINT>
10411042 1 17329707622600389615
10906281 52 18199207190402041204
10967382 1 18411702097446596586
11578080 2 16699197498304232402
12011746 2 18411698777078245860
12236239 1 17775848999992019041
12403259 415 18411975897390875337
12788726 201 18201440221129853448
12838862 33 18338779179384147072
12969540 114 18335685140393334879
13140716 1 18195816381882124563
13583140 156 16805592712039632601
13675066 3 18113340842235676481
13862211 1 18411697711868424874
14790565 3 18411707551849912441
15042514 8 18048038764263148923
15081414 286 18341343240210061272
15099037 51 18410573993767798607
15196674 1 18410573998284285869
15420108 30 16402554295079520648
15788980 27 18040998453280091153
1601671 61 18334574629127726332
17349148 13 17775291585781963345
1813 80 17385442142026581116
19591789 44 18410856525280090227
200 152 17988918964429106093
20028762 73 18059010704665427487
20645477 70 18271813423404319214
21029758 11 18272647943770796273
21033648 29 18335972147330737521
21033650 10 16342049561704105552
21267235 1 18411709798412720018
21279426 13 18337670798110640175
21521239 73 18129643284630963695
21859007 373 17970884731771844180
23402539 116 18343577451773648781
23493267 7 17821442461572418921
23559900 14 18271805787369399648
3004659 81 18260546719591571724
335352 9 18410855465061400502
34934 24 18339073887133874274
350125 39 18410295783051077088
3545911 37 18411140272663759054
3680242 22 18335416829739598698
4214541 1 18409729577707357853
495365 180 17417237857959504880
5104073 3 18410857689337580147
5283173 99 18261667074084439853
59755656 215 18410575051042059606
6138700 20 18337954489523005966
633830 44 17385721426126819609
69090 78 18413107290085979786
9709674 26 18341619264968374966

> <PUBCHEM_SHAPE_MULTIPOLES>
458.69
11.45
2.61
0.8
2.19
0.67
-0.07
-1.85
0.8
-0.16
0.17
-0.93
-0.19
0.55

> <PUBCHEM_SHAPE_SELFOVERLAP>
1021.888

> <PUBCHEM_SHAPE_VOLUME>
243.3

> <PUBCHEM_COORDINATE_TYPE>
2
5
10

$$$$
