10423457
  -OEChem-03292013303D

 32 33  0     1  0  0  0  0  0999 V2000
    1.6025    2.6684    1.1812 S   0  0  0  0  0  0  0  0  0  0  0  0
   -1.1079   -0.9551    1.0975 O   0  0  0  0  0  0  0  0  0  0  0  0
   -1.4368    2.1718   -0.6269 O   0  0  0  0  0  0  0  0  0  0  0  0
   -3.4169    0.9309    0.7794 O   0  0  0  0  0  0  0  0  0  0  0  0
   -1.7939   -3.4721    0.0673 O   0  0  0  0  0  0  0  0  0  0  0  0
    4.6858   -0.7317   -0.6622 O   0  0  0  0  0  0  0  0  0  0  0  0
    0.8250    0.1389    0.3683 N   0  0  0  0  0  0  0  0  0  0  0  0
    3.1312    0.7592    0.1824 N   0  0  0  0  0  0  0  0  0  0  0  0
   -1.3820    0.7649   -0.5092 C   0  0  2  0  0  0  0  0  0  0  0  0
   -2.7375    0.1598   -0.2112 C   0  0  1  0  0  0  0  0  0  0  0  0
   -0.5638    0.3099    0.6870 C   0  0  1  0  0  0  0  0  0  0  0  0
   -2.3600   -1.1770    0.4124 C   0  0  1  0  0  0  0  0  0  0  0  0
   -2.1497   -2.2820   -0.6141 C   0  0  0  0  0  0  0  0  0  0  0  0
    1.8355    1.1245    0.5560 C   0  0  0  0  0  0  0  0  0  0  0  0
    1.2015   -1.0998   -0.1659 C   0  0  0  0  0  0  0  0  0  0  0  0
   -2.3087    2.5819   -1.6754 C   0  0  0  0  0  0  0  0  0  0  0  0
    2.4438   -1.4364   -0.5188 C   0  0  0  0  0  0  0  0  0  0  0  0
    3.5320   -0.4560   -0.3480 C   0  0  0  0  0  0  0  0  0  0  0  0
   -0.9766    0.3399   -1.4372 H   0  0  0  0  0  0  0  0  0  0  0  0
   -3.3964    0.0699   -1.0789 H   0  0  0  0  0  0  0  0  0  0  0  0
   -0.6691    0.9997    1.5304 H   0  0  0  0  0  0  0  0  0  0  0  0
   -3.0812   -1.5028    1.1706 H   0  0  0  0  0  0  0  0  0  0  0  0
   -1.3735   -2.0478   -1.3461 H   0  0  0  0  0  0  0  0  0  0  0  0
   -3.0819   -2.4683   -1.1580 H   0  0  0  0  0  0  0  0  0  0  0  0
   -2.8984    0.9198    1.6011 H   0  0  0  0  0  0  0  0  0  0  0  0
    0.4414   -1.8507   -0.3051 H   0  0  0  0  0  0  0  0  0  0  0  0
   -3.3576    2.4415   -1.4011 H   0  0  0  0  0  0  0  0  0  0  0  0
   -2.0812    2.0549   -2.6075 H   0  0  0  0  0  0  0  0  0  0  0  0
   -2.1510    3.6516   -1.8412 H   0  0  0  0  0  0  0  0  0  0  0  0
   -1.6811   -4.1650   -0.6055 H   0  0  0  0  0  0  0  0  0  0  0  0
    3.8558    1.4593    0.3143 H   0  0  0  0  0  0  0  0  0  0  0  0
    2.6806   -2.4114   -0.9268 H   0  0  0  0  0  0  0  0  0  0  0  0
  1 14  2  0  0  0  0
  2 11  1  0  0  0  0
  2 12  1  0  0  0  0
  3  9  1  0  0  0  0
  3 16  1  0  0  0  0
  4 10  1  0  0  0  0
  4 25  1  0  0  0  0
  5 13  1  0  0  0  0
  5 30  1  0  0  0  0
  6 18  2  0  0  0  0
  7 11  1  0  0  0  0
  7 14  1  0  0  0  0
  7 15  1  0  0  0  0
  8 14  1  0  0  0  0
  8 18  1  0  0  0  0
  8 31  1  0  0  0  0
  9 10  1  0  0  0  0
  9 11  1  0  0  0  0
  9 19  1  0  0  0  0
 10 12  1  0  0  0  0
 10 20  1  0  0  0  0
 11 21  1  0  0  0  0
 12 13  1  0  0  0  0
 12 22  1  0  0  0  0
 13 23  1  0  0  0  0
 13 24  1  0  0  0  0
 15 17  2  0  0  0  0
 15 26  1  0  0  0  0
 16 27  1  0  0  0  0
 16 28  1  0  0  0  0
 16 29  1  0  0  0  0
 17 18  1  0  0  0  0
 17 32  1  0  0  0  0
M  END
> <PUBCHEM_COMPOUND_CID>
10423457

> <PUBCHEM_CONFORMER_RMSD>
0.6

> <PUBCHEM_CONFORMER_DIVERSEORDER>
1
8
10
5
9
2
6
7
4
3

> <PUBCHEM_MMFF94_PARTIAL_CHARGES>
23
1 -0.38
10 0.28
11 0.58
12 0.28
13 0.28
14 0.5
15 -0.04
16 0.28
17 -0.14
18 0.62
2 -0.56
25 0.4
26 0.15
3 -0.56
30 0.4
31 0.37
32 0.15
4 -0.68
5 -0.68
6 -0.57
7 -0.47
8 -0.49
9 0.28

> <PUBCHEM_EFFECTIVE_ROTOR_COUNT>
4

> <PUBCHEM_PHARMACOPHORE_FEATURES>
11
1 1 acceptor
1 2 acceptor
1 3 acceptor
1 4 acceptor
1 4 donor
1 5 acceptor
1 5 donor
1 6 acceptor
1 8 donor
5 2 9 10 11 12 rings
6 7 8 14 15 17 18 rings

> <PUBCHEM_HEAVY_ATOM_COUNT>
18

> <PUBCHEM_ATOM_DEF_STEREO_COUNT>
4

> <PUBCHEM_ATOM_UDEF_STEREO_COUNT>
0

> <PUBCHEM_BOND_DEF_STEREO_COUNT>
0

> <PUBCHEM_BOND_UDEF_STEREO_COUNT>
0

> <PUBCHEM_ISOTOPIC_ATOM_COUNT>
0

> <PUBCHEM_COMPONENT_COUNT>
1

> <PUBCHEM_CACTVS_TAUTO_COUNT>
3

> <PUBCHEM_CONFORMER_ID>
009F0CA100000001

> <PUBCHEM_MMFF94_ENERGY>
58.5032

> <PUBCHEM_FEATURE_SELFOVERLAP>
55.835

> <PUBCHEM_SHAPE_FINGERPRINT>
10608611 8 18410851079488737056
12138202 97 18262792952352168668
12403259 226 18268145538571407002
12500047 106 18263075535683649294
12932764 1 18260259746365658520
12969540 114 18115285818988028085
13140716 1 18339641273129058378
15219456 202 18341893047331234152
15375462 6 18124030401887192708
15490181 7 18189599584673210427
16945 1 18337094705488649561
18186145 218 18270955743814689049
19868273 325 18190458449072381781
200 152 17489584554276950062
21339142 51 18341896251740671204
21501502 16 18340207513153963616
21524375 3 17608915509439374501
221490 88 18198348562047002186
22802520 49 18339077193710007697
2334 1 18050002499933768051
23388829 49 17475230679453579237
23402539 116 17894348877885376126
23557571 272 18045766034550928017
23559900 14 18129092488775424696
238 59 17905011813250987437
25 1 17977941293971100325
2748010 2 18121492720275806267
3084891 72 17907284460656578624
45790113 53 18265335014893779739
559249 180 17825665552707232474
57210444 14 18048030770774506141
69090 78 18411135805961185183
74978 22 18272373091648999730
81228 2 18189048871166043985
8809292 202 18411986866494671634
9709674 26 18199464552942176895

> <PUBCHEM_SHAPE_MULTIPOLES>
334.97
6.01
3.12
1.1
4.24
0.19
0.13
0.88
1.01
-1.64
0.28
-0.34
-0.62
1.38

> <PUBCHEM_SHAPE_SELFOVERLAP>
687.58

> <PUBCHEM_SHAPE_VOLUME>
196.1

> <PUBCHEM_COORDINATE_TYPE>
2
5
10

$$$$
