10429470
  -OEChem-03292013303D

 45 47  0     0  0  0  0  0  0999 V2000
   -0.5053   -0.6535    0.1372 O   0  0  0  0  0  0  0  0  0  0  0  0
    1.2895   -2.6812    0.2157 O   0  0  0  0  0  0  0  0  0  0  0  0
   -2.0290    2.7215    0.0095 O   0  0  0  0  0  0  0  0  0  0  0  0
    3.9954   -2.1677    0.1487 O   0  0  0  0  0  0  0  0  0  0  0  0
    4.9081    0.4268    0.0017 O   0  0  0  0  0  0  0  0  0  0  0  0
    3.1507    2.5098   -0.0794 O   0  0  0  0  0  0  0  0  0  0  0  0
    0.6598    3.2434   -0.0763 O   0  0  0  0  0  0  0  0  0  0  0  0
   -6.7258   -1.5171    0.2245 O   0  0  0  0  0  0  0  0  0  0  0  0
    1.2885    0.9753    0.0270 C   0  0  0  0  0  0  0  0  0  0  0  0
    0.8271   -0.3361    0.1014 C   0  0  0  0  0  0  0  0  0  0  0  0
    1.7354   -1.3945    0.1424 C   0  0  0  0  0  0  0  0  0  0  0  0
   -1.4329    0.3750    0.0893 C   0  0  0  0  0  0  0  0  0  0  0  0
    2.6601    1.2397   -0.0070 C   0  0  0  0  0  0  0  0  0  0  0  0
    0.3095    2.0721   -0.0137 C   0  0  0  0  0  0  0  0  0  0  0  0
   -1.1218    1.6854    0.0274 C   0  0  0  0  0  0  0  0  0  0  0  0
    3.1056   -1.1349    0.1085 C   0  0  0  0  0  0  0  0  0  0  0  0
    3.5669    0.1798    0.0340 C   0  0  0  0  0  0  0  0  0  0  0  0
   -2.8178   -0.1207    0.1245 C   0  0  0  0  0  0  0  0  0  0  0  0
   -3.4862   -0.4104   -1.0654 C   0  0  0  0  0  0  0  0  0  0  0  0
   -3.4636   -0.3006    1.3481 C   0  0  0  0  0  0  0  0  0  0  0  0
   -4.7994   -0.8797   -1.0316 C   0  0  0  0  0  0  0  0  0  0  0  0
   -4.7768   -0.7701    1.3817 C   0  0  0  0  0  0  0  0  0  0  0  0
   -5.4447   -1.0595    0.1920 C   0  0  0  0  0  0  0  0  0  0  0  0
    1.0590   -3.3570   -1.0181 C   0  0  0  0  0  0  0  0  0  0  0  0
   -2.3966    3.0466   -1.3176 C   0  0  0  0  0  0  0  0  0  0  0  0
    4.8822   -2.3008   -0.9595 C   0  0  0  0  0  0  0  0  0  0  0  0
    5.5620    0.6087    1.2551 C   0  0  0  0  0  0  0  0  0  0  0  0
   -2.9952   -0.2820   -2.0269 H   0  0  0  0  0  0  0  0  0  0  0  0
   -2.9559   -0.0795    2.2839 H   0  0  0  0  0  0  0  0  0  0  0  0
    2.4297    3.1566   -0.1028 H   0  0  0  0  0  0  0  0  0  0  0  0
   -5.3140   -1.1049   -1.9617 H   0  0  0  0  0  0  0  0  0  0  0  0
   -5.2683   -0.9059    2.3413 H   0  0  0  0  0  0  0  0  0  0  0  0
    0.2913   -2.8408   -1.6032 H   0  0  0  0  0  0  0  0  0  0  0  0
    0.7058   -4.3673   -0.7941 H   0  0  0  0  0  0  0  0  0  0  0  0
    1.9844   -3.4314   -1.5975 H   0  0  0  0  0  0  0  0  0  0  0  0
   -2.9254    2.2274   -1.8111 H   0  0  0  0  0  0  0  0  0  0  0  0
   -1.5256    3.3400   -1.9143 H   0  0  0  0  0  0  0  0  0  0  0  0
   -3.0763    3.9033   -1.2789 H   0  0  0  0  0  0  0  0  0  0  0  0
    4.4707   -1.8644   -1.8764 H   0  0  0  0  0  0  0  0  0  0  0  0
    5.0437   -3.3687   -1.1343 H   0  0  0  0  0  0  0  0  0  0  0  0
    5.8489   -1.8479   -0.7225 H   0  0  0  0  0  0  0  0  0  0  0  0
    6.6231    0.7910    1.0642 H   0  0  0  0  0  0  0  0  0  0  0  0
    5.4680   -0.2894    1.8736 H   0  0  0  0  0  0  0  0  0  0  0  0
    5.1487    1.4731    1.7842 H   0  0  0  0  0  0  0  0  0  0  0  0
   -7.0141   -1.5814    1.1512 H   0  0  0  0  0  0  0  0  0  0  0  0
  1 10  1  0  0  0  0
  1 12  1  0  0  0  0
  2 11  1  0  0  0  0
  2 24  1  0  0  0  0
  3 15  1  0  0  0  0
  3 25  1  0  0  0  0
  4 16  1  0  0  0  0
  4 26  1  0  0  0  0
  5 17  1  0  0  0  0
  5 27  1  0  0  0  0
  6 13  1  0  0  0  0
  6 30  1  0  0  0  0
  7 14  2  0  0  0  0
  8 23  1  0  0  0  0
  8 45  1  0  0  0  0
  9 10  1  0  0  0  0
  9 13  2  0  0  0  0
  9 14  1  0  0  0  0
 10 11  2  0  0  0  0
 11 16  1  0  0  0  0
 12 15  2  0  0  0  0
 12 18  1  0  0  0  0
 13 17  1  0  0  0  0
 14 15  1  0  0  0  0
 16 17  2  0  0  0  0
 18 19  2  0  0  0  0
 18 20  1  0  0  0  0
 19 21  1  0  0  0  0
 19 28  1  0  0  0  0
 20 22  2  0  0  0  0
 20 29  1  0  0  0  0
 21 23  2  0  0  0  0
 21 31  1  0  0  0  0
 22 23  1  0  0  0  0
 22 32  1  0  0  0  0
 24 33  1  0  0  0  0
 24 34  1  0  0  0  0
 24 35  1  0  0  0  0
 25 36  1  0  0  0  0
 25 37  1  0  0  0  0
 25 38  1  0  0  0  0
 26 39  1  0  0  0  0
 26 40  1  0  0  0  0
 26 41  1  0  0  0  0
 27 42  1  0  0  0  0
 27 43  1  0  0  0  0
 27 44  1  0  0  0  0
M  END
> <PUBCHEM_COMPOUND_CID>
10429470

> <PUBCHEM_CONFORMER_RMSD>
0.8

> <PUBCHEM_CONFORMER_DIVERSEORDER>
1
3
2

> <PUBCHEM_MMFF94_PARTIAL_CHARGES>
33
1 -0.16
10 0.08
11 0.08
12 0.05
13 0.08
14 0.47
15 0.09
16 0.08
17 0.08
18 0.03
19 -0.15
2 -0.36
20 -0.15
21 -0.15
22 -0.15
23 0.08
24 0.28
25 0.28
26 0.28
27 0.28
28 0.15
29 0.15
3 -0.36
30 0.45
31 0.15
32 0.15
4 -0.36
45 0.45
5 -0.36
6 -0.53
7 -0.57
8 -0.53
9 0.09

> <PUBCHEM_EFFECTIVE_ROTOR_COUNT>
5

> <PUBCHEM_PHARMACOPHORE_FEATURES>
11
1 1 acceptor
1 2 acceptor
1 3 acceptor
1 4 acceptor
1 5 acceptor
1 6 donor
1 7 acceptor
1 8 donor
6 1 9 10 12 14 15 rings
6 18 19 20 21 22 23 rings
6 9 10 11 13 16 17 rings

> <PUBCHEM_HEAVY_ATOM_COUNT>
27

> <PUBCHEM_ATOM_DEF_STEREO_COUNT>
0

> <PUBCHEM_ATOM_UDEF_STEREO_COUNT>
0

> <PUBCHEM_BOND_DEF_STEREO_COUNT>
0

> <PUBCHEM_BOND_UDEF_STEREO_COUNT>
0

> <PUBCHEM_ISOTOPIC_ATOM_COUNT>
0

> <PUBCHEM_COMPONENT_COUNT>
1

> <PUBCHEM_CACTVS_TAUTO_COUNT>
16

> <PUBCHEM_CONFORMER_ID>
009F241E00000001

> <PUBCHEM_MMFF94_ENERGY>
121.046

> <PUBCHEM_FEATURE_SELFOVERLAP>
55.874

> <PUBCHEM_SHAPE_FINGERPRINT>
10411042 1 18338801092259980842
10906281 52 18189637032303433017
10967382 1 18410855499352631640
1100329 8 18125155184801883978
11578080 2 17630580445826040321
11796584 16 16950279637450847787
11963148 33 18263075664312388906
12236239 1 17775007894987457843
12553582 1 18412254030772279295
12596602 18 17131838676741218067
13140716 1 18122343746454582464
13402501 40 18260552259883671267
13540713 4 18268418045915074196
13544653 18 18334861610531909861
13862211 1 18408881871216399170
14790565 3 17182229543550438908
14840074 17 18272653463183437175
14863182 85 18411428319135956222
15196674 1 18338796706945079032
15927050 60 17548419662156187788
17357779 13 18260819411107273173
17492 89 18265893553984892458
1813 80 18342192063176083869
19591789 44 18412263904833248190
200 152 18343016697054878721
20028762 73 18130223877619537934
20645477 70 18335136527088258787
21033650 10 14563649869267444687
21197605 99 17978518851388493971
21267235 1 18411425011752447606
21623969 137 18335424616277987611
21641784 216 17968674755985580756
221490 88 18337392639075541460
22182313 1 18338220597080299412
22393880 68 18192429671816283166
23559900 14 18266167353612198580
2871803 45 18333449828727087363
350125 39 18410574002727621832
46194498 28 17532648134882305037
463206 1 18267862968378133439
5104073 3 18268423543298796376
5283173 99 17895744111714314853
9709674 26 18335423434860943370

> <PUBCHEM_SHAPE_MULTIPOLES>
508.69
11.92
3.42
1.05
5.48
0.77
-0.03
-5.62
-1.56
-1.39
1.05
0.61
-0.11
1.17

> <PUBCHEM_SHAPE_SELFOVERLAP>
1114.93

> <PUBCHEM_SHAPE_VOLUME>
276.2

> <PUBCHEM_COORDINATE_TYPE>
2
5
10

$$$$
