10423557
  -OEChem-03292013303D

 32 33  0     0  0  0  0  0  0999 V2000
   -3.3865    0.4032   -1.8323 O   0  0  0  0  0  0  0  0  0  0  0  0
   -2.3106    2.5408   -0.7196 O   0  0  0  0  0  0  0  0  0  0  0  0
    3.1210   -0.8886   -0.3154 O   0  0  0  0  0  0  0  0  0  0  0  0
   -3.0538   -3.3915    0.9827 O   0  0  0  0  0  0  0  0  0  0  0  0
   -0.3714    3.5094    0.9887 O   0  0  0  0  0  0  0  0  0  0  0  0
    3.8393    1.2369    0.2550 O   0  0  0  0  0  0  0  0  0  0  0  0
   -0.6161   -0.6002    0.5119 C   0  0  0  0  0  0  0  0  0  0  0  0
   -1.5117    0.3576   -0.1995 C   0  0  0  0  0  0  0  0  0  0  0  0
    0.7033   -0.4378    0.7213 C   0  0  0  0  0  0  0  0  0  0  0  0
   -2.7258   -0.2551   -0.8125 C   0  0  0  0  0  0  0  0  0  0  0  0
   -1.3377    1.7010   -0.1910 C   0  0  0  0  0  0  0  0  0  0  0  0
    1.5422    0.6553    0.3051 C   0  0  0  0  0  0  0  0  0  0  0  0
   -1.2199   -1.8477    1.0122 C   0  0  0  0  0  0  0  0  0  0  0  0
   -2.4298   -2.2367    0.5733 C   0  0  0  0  0  0  0  0  0  0  0  0
   -3.1484   -1.4714   -0.4236 C   0  0  0  0  0  0  0  0  0  0  0  0
   -0.1931    2.4302    0.4283 C   0  0  0  0  0  0  0  0  0  0  0  0
    1.1809    1.9375    0.2059 C   0  0  0  0  0  0  0  0  0  0  0  0
    2.9750    0.3969    0.0863 C   0  0  0  0  0  0  0  0  0  0  0  0
    4.4696   -1.2951   -0.5698 C   0  0  0  0  0  0  0  0  0  0  0  0
    4.4736   -2.7445   -1.0070 C   0  0  0  0  0  0  0  0  0  0  0  0
    1.2343   -1.2194    1.2671 H   0  0  0  0  0  0  0  0  0  0  0  0
   -0.6788   -2.4519    1.7343 H   0  0  0  0  0  0  0  0  0  0  0  0
   -4.0221   -1.9224   -0.8848 H   0  0  0  0  0  0  0  0  0  0  0  0
    1.9001    2.7230   -0.0123 H   0  0  0  0  0  0  0  0  0  0  0  0
    4.8971   -0.6687   -1.3607 H   0  0  0  0  0  0  0  0  0  0  0  0
    5.0636   -1.1826    0.3441 H   0  0  0  0  0  0  0  0  0  0  0  0
   -4.1363   -0.1441   -2.1225 H   0  0  0  0  0  0  0  0  0  0  0  0
   -2.0138    3.4585   -0.5931 H   0  0  0  0  0  0  0  0  0  0  0  0
   -3.9171   -3.4662    0.5420 H   0  0  0  0  0  0  0  0  0  0  0  0
    5.4914   -3.0892   -1.2100 H   0  0  0  0  0  0  0  0  0  0  0  0
    4.0321   -3.3813   -0.2334 H   0  0  0  0  0  0  0  0  0  0  0  0
    3.8687   -2.8761   -1.9102 H   0  0  0  0  0  0  0  0  0  0  0  0
  1 10  1  0  0  0  0
  1 27  1  0  0  0  0
  2 11  1  0  0  0  0
  2 28  1  0  0  0  0
  3 18  1  0  0  0  0
  3 19  1  0  0  0  0
  4 14  1  0  0  0  0
  4 29  1  0  0  0  0
  5 16  2  0  0  0  0
  6 18  2  0  0  0  0
  7  8  1  0  0  0  0
  7  9  2  0  0  0  0
  7 13  1  0  0  0  0
  8 10  1  0  0  0  0
  8 11  2  0  0  0  0
  9 12  1  0  0  0  0
  9 21  1  0  0  0  0
 10 15  2  0  0  0  0
 11 16  1  0  0  0  0
 12 17  2  0  0  0  0
 12 18  1  0  0  0  0
 13 14  2  0  0  0  0
 13 22  1  0  0  0  0
 14 15  1  0  0  0  0
 15 23  1  0  0  0  0
 16 17  1  0  0  0  0
 17 24  1  0  0  0  0
 19 20  1  0  0  0  0
 19 25  1  0  0  0  0
 19 26  1  0  0  0  0
 20 30  1  0  0  0  0
 20 31  1  0  0  0  0
 20 32  1  0  0  0  0
M  END
> <PUBCHEM_COMPOUND_CID>
10423557

> <PUBCHEM_CONFORMER_RMSD>
0.6

> <PUBCHEM_CONFORMER_DIVERSEORDER>
1
12
8
5
2
10
7
4
3
11
6
9

> <PUBCHEM_MMFF94_PARTIAL_CHARGES>
24
1 -0.53
10 0.08
11 0.09
12 0.01
13 -0.15
14 0.08
15 -0.15
16 0.54
17 -0.14
18 0.71
19 0.28
2 -0.53
21 0.15
22 0.15
23 0.15
24 0.15
27 0.45
28 0.45
29 0.45
3 -0.43
4 -0.53
5 -0.57
6 -0.57
9 -0.15

> <PUBCHEM_EFFECTIVE_ROTOR_COUNT>
3

> <PUBCHEM_PHARMACOPHORE_FEATURES>
7
1 1 donor
1 2 donor
1 4 donor
1 5 acceptor
1 6 acceptor
6 7 8 10 13 14 15 rings
7 7 8 9 11 12 16 17 rings

> <PUBCHEM_HEAVY_ATOM_COUNT>
20

> <PUBCHEM_ATOM_DEF_STEREO_COUNT>
0

> <PUBCHEM_ATOM_UDEF_STEREO_COUNT>
0

> <PUBCHEM_BOND_DEF_STEREO_COUNT>
0

> <PUBCHEM_BOND_UDEF_STEREO_COUNT>
0

> <PUBCHEM_ISOTOPIC_ATOM_COUNT>
0

> <PUBCHEM_COMPONENT_COUNT>
1

> <PUBCHEM_CACTVS_TAUTO_COUNT>
49

> <PUBCHEM_CONFORMER_ID>
009F0D0500000001

> <PUBCHEM_MMFF94_ENERGY>
73.3562

> <PUBCHEM_FEATURE_SELFOVERLAP>
35.539

> <PUBCHEM_SHAPE_FINGERPRINT>
10693767 8 18057295402359842855
12623949 98 17617967036968116827
13140716 1 18411700984854817200
13583140 156 13613962128778596734
14251740 79 18054509097595913180
14790565 3 17331690046507592544
14866123 147 18053391993808752747
16945 1 18188193364999040921
19591789 44 17402903223687780232
20645477 70 17762040443738539783
21279426 13 18337382761062133285
21665056 4 17977675207972604120
221490 88 18413112762644318318
22182313 1 17757531316635471597
22802520 49 18339920514733278849
23114952 82 18043813310358330460
2334 1 17757257550972251913
23526113 38 18339625849996424001
23557571 272 18115587183415103210
23558518 356 18199188387056948560
23559900 14 18410567393236767808
2748010 2 17830152955701283801
7364860 26 17691408933007844161
81228 2 18411979126911103992
8809292 202 18340208471132143644
9709674 26 18341330003384254894

> <PUBCHEM_SHAPE_MULTIPOLES>
376.37
7.07
3.71
1.08
7.52
0.34
-0.2
-5.28
-2.47
-1.1
0.74
-0.59
-0.2
1.66

> <PUBCHEM_SHAPE_SELFOVERLAP>
810.938

> <PUBCHEM_SHAPE_VOLUME>
202.8

> <PUBCHEM_COORDINATE_TYPE>
2
5
10

$$$$
