10424358
  -OEChem-03292013303D

 38 41  0     1  0  0  0  0  0999 V2000
    2.4075    0.0842   -1.7849 O   0  0  0  0  0  0  0  0  0  0  0  0
    0.2635    3.1056    1.1390 O   0  0  0  0  0  0  0  0  0  0  0  0
   -1.4082   -2.8034   -0.2215 O   0  0  0  0  0  0  0  0  0  0  0  0
   -1.7788    2.5313   -0.1314 O   0  0  0  0  0  0  0  0  0  0  0  0
    2.7486   -0.6623    1.8906 N   0  0  0  0  0  0  0  0  0  0  0  0
    0.9698   -1.1295   -0.3348 N   0  0  1  0  0  0  0  0  0  0  0  0
   -4.1057    1.1613    0.0905 N   0  0  0  0  0  0  0  0  0  0  0  0
    2.9880   -0.2713    0.5035 C   0  0  2  0  0  0  0  0  0  0  0  0
    1.8797    0.0319   -0.4591 C   0  0  1  0  0  0  0  0  0  0  0  0
    2.8575   -1.7111    0.8916 C   0  0  2  0  0  0  0  0  0  0  0  0
    1.6054   -2.2826    0.2896 C   0  0  0  0  0  0  0  0  0  0  0  0
    0.9479    1.2646   -0.2212 C   0  0  1  0  0  0  0  0  0  0  0  0
   -0.3345   -0.7095   -0.2310 C   0  0  0  0  0  0  0  0  0  0  0  0
   -0.4234    0.6192   -0.1906 C   0  0  0  0  0  0  0  0  0  0  0  0
    1.2325    2.0779    1.0370 C   0  0  0  0  0  0  0  0  0  0  0  0
   -1.5086   -1.5827   -0.1643 C   0  0  0  0  0  0  0  0  0  0  0  0
   -1.7140    1.3061   -0.1136 C   0  0  0  0  0  0  0  0  0  0  0  0
    3.1616    1.2678   -1.9927 C   0  0  0  0  0  0  0  0  0  0  0  0
   -2.8389   -0.8992   -0.0364 C   0  0  0  0  0  0  0  0  0  0  0  0
   -2.9433    0.4475   -0.0149 C   0  0  0  0  0  0  0  0  0  0  0  0
   -4.0064   -1.8458    0.0547 C   0  0  0  0  0  0  0  0  0  0  0  0
    3.9680    0.1223    0.2867 H   0  0  0  0  0  0  0  0  0  0  0  0
    3.7195   -2.3565    0.9243 H   0  0  0  0  0  0  0  0  0  0  0  0
    1.7727   -0.5308    2.1507 H   0  0  0  0  0  0  0  0  0  0  0  0
    1.8493   -3.0305   -0.4712 H   0  0  0  0  0  0  0  0  0  0  0  0
    0.9787   -2.7418    1.0611 H   0  0  0  0  0  0  0  0  0  0  0  0
    0.9300    1.9442   -1.0814 H   0  0  0  0  0  0  0  0  0  0  0  0
    2.2270    2.5334    1.0069 H   0  0  0  0  0  0  0  0  0  0  0  0
    1.1466    1.4835    1.9487 H   0  0  0  0  0  0  0  0  0  0  0  0
    3.5451    1.7408   -1.0841 H   0  0  0  0  0  0  0  0  0  0  0  0
    2.5572    1.9906   -2.5494 H   0  0  0  0  0  0  0  0  0  0  0  0
    4.0156    1.0112   -2.6271 H   0  0  0  0  0  0  0  0  0  0  0  0
    0.3633    3.6841    0.3637 H   0  0  0  0  0  0  0  0  0  0  0  0
   -4.9704   -1.3428    0.1605 H   0  0  0  0  0  0  0  0  0  0  0  0
   -3.8910   -2.5055    0.9216 H   0  0  0  0  0  0  0  0  0  0  0  0
   -4.0619   -2.4654   -0.8469 H   0  0  0  0  0  0  0  0  0  0  0  0
   -4.9996    0.6951    0.1612 H   0  0  0  0  0  0  0  0  0  0  0  0
   -4.0719    2.1734    0.0963 H   0  0  0  0  0  0  0  0  0  0  0  0
  1  9  1  0  0  0  0
  1 18  1  0  0  0  0
  2 15  1  0  0  0  0
  2 33  1  0  0  0  0
  3 16  2  0  0  0  0
  4 17  2  0  0  0  0
  5  8  1  0  0  0  0
  5 10  1  0  0  0  0
  5 24  1  0  0  0  0
  6  9  1  0  0  0  0
  6 11  1  0  0  0  0
  6 13  1  0  0  0  0
  7 20  1  0  0  0  0
  7 37  1  0  0  0  0
  7 38  1  0  0  0  0
  8  9  1  0  0  0  0
  8 10  1  0  0  0  0
  8 22  1  0  0  0  0
  9 12  1  0  0  0  0
 10 11  1  0  0  0  0
 10 23  1  0  0  0  0
 11 25  1  0  0  0  0
 11 26  1  0  0  0  0
 12 14  1  0  0  0  0
 12 15  1  0  0  0  0
 12 27  1  0  0  0  0
 13 14  2  0  0  0  0
 13 16  1  0  0  0  0
 14 17  1  0  0  0  0
 15 28  1  0  0  0  0
 15 29  1  0  0  0  0
 16 19  1  0  0  0  0
 17 20  1  0  0  0  0
 18 30  1  0  0  0  0
 18 31  1  0  0  0  0
 18 32  1  0  0  0  0
 19 20  2  0  0  0  0
 19 21  1  0  0  0  0
 21 34  1  0  0  0  0
 21 35  1  0  0  0  0
 21 36  1  0  0  0  0
M  END
> <PUBCHEM_COMPOUND_CID>
10424358

> <PUBCHEM_CONFORMER_RMSD>
0.6

> <PUBCHEM_CONFORMER_DIVERSEORDER>
1
3
2

> <PUBCHEM_MMFF94_PARTIAL_CHARGES>
27
1 -0.56
10 -0.04
11 0.46
12 0.14
13 0.11
14 -0.12
15 0.28
16 0.54
17 0.54
18 0.28
19 -0.12
2 -0.68
20 0.11
21 0.14
22 0.1
23 0.1
24 0.36
3 -0.57
33 0.4
37 0.4
38 0.4
4 -0.57
5 -0.68
6 -0.84
7 -0.9
8 -0.04
9 0.74

> <PUBCHEM_EFFECTIVE_ROTOR_COUNT>
2.6

> <PUBCHEM_PHARMACOPHORE_FEATURES>
13
1 1 acceptor
1 2 acceptor
1 2 donor
1 3 acceptor
1 4 acceptor
1 5 cation
1 5 donor
1 6 cation
1 7 cation
1 7 donor
5 6 9 12 13 14 rings
6 13 14 16 17 19 20 rings
6 5 6 8 9 10 11 rings

> <PUBCHEM_HEAVY_ATOM_COUNT>
21

> <PUBCHEM_ATOM_DEF_STEREO_COUNT>
4

> <PUBCHEM_ATOM_UDEF_STEREO_COUNT>
0

> <PUBCHEM_BOND_DEF_STEREO_COUNT>
0

> <PUBCHEM_BOND_UDEF_STEREO_COUNT>
0

> <PUBCHEM_ISOTOPIC_ATOM_COUNT>
0

> <PUBCHEM_COMPONENT_COUNT>
1

> <PUBCHEM_CACTVS_TAUTO_COUNT>
21

> <PUBCHEM_CONFORMER_ID>
009F102600000001

> <PUBCHEM_MMFF94_ENERGY>
87.229

> <PUBCHEM_FEATURE_SELFOVERLAP>
66.236

> <PUBCHEM_SHAPE_FINGERPRINT>
10759866 29 18113629975186542436
10863032 1 17023481835571912474
10967382 1 18195241346165071027
1100329 8 15605112505908770971
11578080 2 17679550511250664260
12035759 4 18118427084842855686
12382932 28 18341039710217446914
12553582 1 18267589181493304199
13083527 12 17552317344934771783
13132413 78 18339631300668774696
13140716 1 18051690241935491667
13538477 17 18334016085842301934
14115302 16 18263645073900852052
14178342 30 18118390753066067898
14787075 74 18262790882826726682
15375462 189 18335432274119890601
16752209 62 18267869393427408781
16945 1 18413106177773716327
1813 80 17387690501767095450
19591789 44 17834389403888885264
19765921 60 17897468274478941300
20233049 118 18411706499598262132
20510252 161 18055907693408344120
20559304 39 18409163341930011730
20600515 1 18129375995604599432
20691752 17 17828187020051879851
20715895 44 17826780444481020549
20905425 154 17695342972674084638
21197605 99 13579914110737891362
21501502 16 18334014999379008751
23184049 29 18411973680860339049
232386 152 18411130334030451374
2334 1 17763462116288282735
23419403 2 17251399614311277110
23463225 33 18261672571526027239
23557571 272 17987233326914138280
23559900 14 18271530771706718502
2748010 2 18052256189696704391
394222 165 17604718905727045568
474 4 16951703573770550836
5939293 188 18272930556998242881
7097593 13 18043519525942260307
7364860 26 18197774599359220376
81228 2 17700986439463667409

> <PUBCHEM_SHAPE_MULTIPOLES>
393.75
5.87
2.92
1.24
3.33
0.45
0.17
-1.08
0.27
0.49
-0.61
-1.56
0.35
-0.75

> <PUBCHEM_SHAPE_SELFOVERLAP>
871.225

> <PUBCHEM_SHAPE_VOLUME>
213.1

> <PUBCHEM_COORDINATE_TYPE>
2
5
10

$$$$
