10429220
  -OEChem-03292013303D

 45 47  0     0  0  0  0  0  0999 V2000
   -1.4855    2.1143   -0.8589 O   0  0  0  0  0  0  0  0  0  0  0  0
    1.3778   -2.2641    0.8974 O   0  0  0  0  0  0  0  0  0  0  0  0
    1.2381    2.2716   -0.6756 O   0  0  0  0  0  0  0  0  0  0  0  0
    5.7327   -0.5330   -1.8606 O   0  0  0  0  0  0  0  0  0  0  0  0
   -5.8224    0.3278    1.9264 O   0  0  0  0  0  0  0  0  0  0  0  0
    6.9193    0.3279    0.5004 O   0  0  0  0  0  0  0  0  0  0  0  0
   -7.0111   -0.5545   -0.4257 O   0  0  0  0  0  0  0  0  0  0  0  0
    1.3435    0.0085    0.1120 C   0  0  0  0  0  0  0  0  0  0  0  0
   -1.4383   -0.1500   -0.0736 C   0  0  0  0  0  0  0  0  0  0  0  0
   -0.7795    1.0301   -0.4238 C   0  0  0  0  0  0  0  0  0  0  0  0
    0.6871   -1.1715    0.4621 C   0  0  0  0  0  0  0  0  0  0  0  0
    0.6101    1.1094   -0.3310 C   0  0  0  0  0  0  0  0  0  0  0  0
   -0.7024   -1.2506    0.3694 C   0  0  0  0  0  0  0  0  0  0  0  0
    2.7898    0.0899    0.2097 C   0  0  0  0  0  0  0  0  0  0  0  0
   -2.8785   -0.2540   -0.1613 C   0  0  0  0  0  0  0  0  0  0  0  0
    3.5783   -0.2638   -0.8820 C   0  0  0  0  0  0  0  0  0  0  0  0
    3.3804    0.5215    1.3943 C   0  0  0  0  0  0  0  0  0  0  0  0
   -3.6704    0.0894    0.9344 C   0  0  0  0  0  0  0  0  0  0  0  0
   -3.4754   -0.6969   -1.3417 C   0  0  0  0  0  0  0  0  0  0  0  0
    4.9678   -0.1851   -0.7882 C   0  0  0  0  0  0  0  0  0  0  0  0
   -5.0593   -0.0101    0.8498 C   0  0  0  0  0  0  0  0  0  0  0  0
    4.7698    0.6001    1.4881 C   0  0  0  0  0  0  0  0  0  0  0  0
   -4.8640   -0.7965   -1.4265 C   0  0  0  0  0  0  0  0  0  0  0  0
    5.5635    0.2471    0.3968 C   0  0  0  0  0  0  0  0  0  0  0  0
   -5.6559   -0.4530   -0.3309 C   0  0  0  0  0  0  0  0  0  0  0  0
   -1.9229    3.0397    0.1324 C   0  0  0  0  0  0  0  0  0  0  0  0
    1.8075   -3.1943   -0.0936 C   0  0  0  0  0  0  0  0  0  0  0  0
   -1.2043   -2.1759    0.6458 H   0  0  0  0  0  0  0  0  0  0  0  0
    3.1234   -0.5977   -1.8120 H   0  0  0  0  0  0  0  0  0  0  0  0
    2.7754    0.8003    2.2537 H   0  0  0  0  0  0  0  0  0  0  0  0
   -3.2153    0.4342    1.8606 H   0  0  0  0  0  0  0  0  0  0  0  0
   -2.8726   -0.9681   -2.2052 H   0  0  0  0  0  0  0  0  0  0  0  0
    5.2209    0.9382    2.4172 H   0  0  0  0  0  0  0  0  0  0  0  0
   -5.3158   -1.1429   -2.3521 H   0  0  0  0  0  0  0  0  0  0  0  0
    0.5739    2.8990   -1.0084 H   0  0  0  0  0  0  0  0  0  0  0  0
   -1.3083    3.9425    0.0717 H   0  0  0  0  0  0  0  0  0  0  0  0
   -1.8616    2.6323    1.1474 H   0  0  0  0  0  0  0  0  0  0  0  0
   -2.9614    3.3092   -0.0792 H   0  0  0  0  0  0  0  0  0  0  0  0
    1.0896   -4.0184   -0.1420 H   0  0  0  0  0  0  0  0  0  0  0  0
    2.7805   -3.5935    0.2057 H   0  0  0  0  0  0  0  0  0  0  0  0
    1.9002   -2.7403   -1.0855 H   0  0  0  0  0  0  0  0  0  0  0  0
    6.6682   -0.4181   -1.6190 H   0  0  0  0  0  0  0  0  0  0  0  0
   -6.7576    0.1986    1.6911 H   0  0  0  0  0  0  0  0  0  0  0  0
    7.1505    0.6451    1.3903 H   0  0  0  0  0  0  0  0  0  0  0  0
   -7.2432   -0.8766   -1.3135 H   0  0  0  0  0  0  0  0  0  0  0  0
  1 10  1  0  0  0  0
  1 26  1  0  0  0  0
  2 11  1  0  0  0  0
  2 27  1  0  0  0  0
  3 12  1  0  0  0  0
  3 35  1  0  0  0  0
  4 20  1  0  0  0  0
  4 42  1  0  0  0  0
  5 21  1  0  0  0  0
  5 43  1  0  0  0  0
  6 24  1  0  0  0  0
  6 44  1  0  0  0  0
  7 25  1  0  0  0  0
  7 45  1  0  0  0  0
  8 11  2  0  0  0  0
  8 12  1  0  0  0  0
  8 14  1  0  0  0  0
  9 10  1  0  0  0  0
  9 13  2  0  0  0  0
  9 15  1  0  0  0  0
 10 12  2  0  0  0  0
 11 13  1  0  0  0  0
 13 28  1  0  0  0  0
 14 16  2  0  0  0  0
 14 17  1  0  0  0  0
 15 18  2  0  0  0  0
 15 19  1  0  0  0  0
 16 20  1  0  0  0  0
 16 29  1  0  0  0  0
 17 22  2  0  0  0  0
 17 30  1  0  0  0  0
 18 21  1  0  0  0  0
 18 31  1  0  0  0  0
 19 23  2  0  0  0  0
 19 32  1  0  0  0  0
 20 24  2  0  0  0  0
 21 25  2  0  0  0  0
 22 24  1  0  0  0  0
 22 33  1  0  0  0  0
 23 25  1  0  0  0  0
 23 34  1  0  0  0  0
 26 36  1  0  0  0  0
 26 37  1  0  0  0  0
 26 38  1  0  0  0  0
 27 39  1  0  0  0  0
 27 40  1  0  0  0  0
 27 41  1  0  0  0  0
M  END
> <PUBCHEM_COMPOUND_CID>
10429220

> <PUBCHEM_CONFORMER_RMSD>
0.8

> <PUBCHEM_CONFORMER_DIVERSEORDER>
1
12
7
10
5
11
8
9
6
4
2
3

> <PUBCHEM_MMFF94_PARTIAL_CHARGES>
35
1 -0.36
10 0.08
11 0.08
12 0.08
13 -0.15
16 -0.15
17 -0.15
18 -0.15
19 -0.15
2 -0.36
20 0.08
21 0.08
22 -0.15
23 -0.15
24 0.08
25 0.08
26 0.28
27 0.28
28 0.15
29 0.15
3 -0.53
30 0.15
31 0.15
32 0.15
33 0.15
34 0.15
35 0.45
4 -0.53
42 0.45
43 0.45
44 0.45
45 0.45
5 -0.53
6 -0.53
7 -0.53

> <PUBCHEM_EFFECTIVE_ROTOR_COUNT>
4

> <PUBCHEM_PHARMACOPHORE_FEATURES>
10
1 1 acceptor
1 2 acceptor
1 3 donor
1 4 donor
1 5 donor
1 6 donor
1 7 donor
6 14 16 17 20 22 24 rings
6 15 18 19 21 23 25 rings
6 8 9 10 11 12 13 rings

> <PUBCHEM_HEAVY_ATOM_COUNT>
27

> <PUBCHEM_ATOM_DEF_STEREO_COUNT>
0

> <PUBCHEM_ATOM_UDEF_STEREO_COUNT>
0

> <PUBCHEM_BOND_DEF_STEREO_COUNT>
0

> <PUBCHEM_BOND_UDEF_STEREO_COUNT>
0

> <PUBCHEM_ISOTOPIC_ATOM_COUNT>
0

> <PUBCHEM_COMPONENT_COUNT>
1

> <PUBCHEM_CACTVS_TAUTO_COUNT>
678

> <PUBCHEM_CONFORMER_ID>
009F232400000001

> <PUBCHEM_MMFF94_ENERGY>
109.4171

> <PUBCHEM_FEATURE_SELFOVERLAP>
50.757

> <PUBCHEM_SHAPE_FINGERPRINT>
10366900 7 18407478860014279329
10670039 82 18114469951290269788
10906281 52 17968392168632886273
1100329 8 18263080088048360947
11578080 2 17843369992159399897
11646440 116 18411707616474291241
11796584 16 15574710296694643937
11963148 33 18113892801458732163
12107183 9 16267736710171970003
12236239 1 18060700607187394719
12516196 113 18411697708127248069
12553582 1 18334855026273159565
12596602 18 17346600789926561795
12741549 16 17530675533876746221
12788726 201 18113610145576290265
12916748 109 18335140882649346600
13140716 1 18190181389105799875
13533116 47 15482677853841142126
13862211 1 18333726931353263563
13911987 19 17822016427763701887
14790565 3 18335713757455271660
14840074 17 18412261744364562831
14863182 85 18334583416947689118
15788980 27 13695870311718678267
15849732 13 18131629011489459461
17349148 13 18040716965281224708
19141452 34 17917708049678026614
20028762 73 18342453798151176014
21236236 1 18335980870087451717
21267235 1 18411142467951249127
21641784 216 17822301136692765500
21781051 124 17895494578251564338
22182313 1 18190452770946424719
22224240 67 18340761628655199386
22956985 138 17535450544998322290
23536379 177 16630529535353017946
23559900 14 18263361558994335532
23569914 152 17117739364223280583
23569914 2 15909061775169557649
23569943 247 18127701417662840006
23845131 108 17336195866253838745
24771293 8 18270676588790835456
25147074 1 18116991074779323960
314173 85 18411700997787574573
34797466 226 15841275951277256464
3633792 109 18131060521165506165
3737641 26 18270686350718352959
4073 2 17774717688247555270
4340502 62 15913330212657660702
465052 167 17313108566027012154
469060 322 18335433330566632737
5104073 3 18190459346588821528
5486654 2 18260550038879020819
59755656 215 18410572868518314487
7495541 125 16515970358108812853

> <PUBCHEM_SHAPE_MULTIPOLES>
514.56
14.97
2.11
1.34
1.48
0.07
-0.05
-1.01
-0.39
-0.1
0.11
0.01
-0.01
-0.06

> <PUBCHEM_SHAPE_SELFOVERLAP>
1138.438

> <PUBCHEM_SHAPE_VOLUME>
277

> <PUBCHEM_COORDINATE_TYPE>
2
5
10

$$$$
