10428933
  -OEChem-03292013303D

 36 38  0     1  0  0  0  0  0999 V2000
   -0.0808    3.2696   -0.4965 Cl  0  0  0  0  0  0  0  0  0  0  0  0
    3.7121    1.6396    0.2537 P   0  0  0  0  0  0  0  0  0  0  0  0
    0.6263   -1.4432    0.9294 O   0  0  0  0  0  0  0  0  0  0  0  0
    1.7599   -4.1196   -0.1112 O   0  0  0  0  0  0  0  0  0  0  0  0
    2.5747    0.5235    0.5406 O   0  0  0  0  0  0  0  0  0  0  0  0
    3.2909    2.2568   -1.1805 O   0  0  0  0  0  0  0  0  0  0  0  0
    5.0150    0.7470   -0.0939 O   0  0  0  0  0  0  0  0  0  0  0  0
    3.9061    2.6436    1.3522 O   0  0  0  0  0  0  0  0  0  0  0  0
   -1.6552   -1.4354    0.2796 N   0  0  0  0  0  0  0  0  0  0  0  0
   -3.8376   -0.9651    0.3095 N   0  0  0  0  0  0  0  0  0  0  0  0
   -0.7589    0.7919   -0.0937 N   0  0  0  0  0  0  0  0  0  0  0  0
   -2.5405    2.4517   -0.2589 N   0  0  0  0  0  0  0  0  0  0  0  0
   -4.8548    1.8764   -0.0652 N   0  0  0  0  0  0  0  0  0  0  0  0
    1.5576   -2.8590   -0.7463 C   0  0  2  0  0  0  0  0  0  0  0  0
   -0.4287   -2.2219    0.3387 C   0  0  1  0  0  0  0  0  0  0  0  0
    1.8601   -1.7359    0.2400 C   0  0  1  0  0  0  0  0  0  0  0  0
    0.0798   -2.6919   -1.0166 C   0  0  0  0  0  0  0  0  0  0  0  0
    2.3297   -0.4615   -0.4479 C   0  0  0  0  0  0  0  0  0  0  0  0
   -1.7581   -0.0854    0.0832 C   0  0  0  0  0  0  0  0  0  0  0  0
   -2.9333   -1.9169    0.4093 C   0  0  0  0  0  0  0  0  0  0  0  0
   -3.1171    0.1848    0.1056 C   0  0  0  0  0  0  0  0  0  0  0  0
   -3.4977    1.5109   -0.0742 C   0  0  0  0  0  0  0  0  0  0  0  0
   -1.2496    2.0399   -0.2572 C   0  0  0  0  0  0  0  0  0  0  0  0
    2.1725   -2.8396   -1.6497 H   0  0  0  0  0  0  0  0  0  0  0  0
   -0.6245   -3.0679    1.0087 H   0  0  0  0  0  0  0  0  0  0  0  0
    2.5871   -2.0382    1.0024 H   0  0  0  0  0  0  0  0  0  0  0  0
   -0.0766   -1.9218   -1.7813 H   0  0  0  0  0  0  0  0  0  0  0  0
   -0.4215   -3.6095   -1.3396 H   0  0  0  0  0  0  0  0  0  0  0  0
    1.5694   -0.0687   -1.1292 H   0  0  0  0  0  0  0  0  0  0  0  0
    3.2347   -0.6658   -1.0283 H   0  0  0  0  0  0  0  0  0  0  0  0
    1.3378   -4.1038    0.7639 H   0  0  0  0  0  0  0  0  0  0  0  0
   -3.1404   -2.9657    0.5728 H   0  0  0  0  0  0  0  0  0  0  0  0
   -5.5714    1.1766    0.0723 H   0  0  0  0  0  0  0  0  0  0  0  0
   -5.1056    2.8465   -0.1982 H   0  0  0  0  0  0  0  0  0  0  0  0
    3.8012    3.0136   -1.5397 H   0  0  0  0  0  0  0  0  0  0  0  0
    5.8779    1.1960   -0.2200 H   0  0  0  0  0  0  0  0  0  0  0  0
  1 23  1  0  0  0  0
  2  5  1  0  0  0  0
  2  6  1  0  0  0  0
  2  7  1  0  0  0  0
  2  8  2  0  0  0  0
  3 15  1  0  0  0  0
  3 16  1  0  0  0  0
  4 14  1  0  0  0  0
  4 31  1  0  0  0  0
  5 18  1  0  0  0  0
  6 35  1  0  0  0  0
  7 36  1  0  0  0  0
  9 15  1  0  0  0  0
  9 19  1  0  0  0  0
  9 20  1  0  0  0  0
 10 20  2  0  0  0  0
 10 21  1  0  0  0  0
 11 19  2  0  0  0  0
 11 23  1  0  0  0  0
 12 22  1  0  0  0  0
 12 23  2  0  0  0  0
 13 22  1  0  0  0  0
 13 33  1  0  0  0  0
 13 34  1  0  0  0  0
 14 16  1  0  0  0  0
 14 17  1  0  0  0  0
 14 24  1  0  0  0  0
 15 17  1  0  0  0  0
 15 25  1  0  0  0  0
 16 18  1  0  0  0  0
 16 26  1  0  0  0  0
 17 27  1  0  0  0  0
 17 28  1  0  0  0  0
 18 29  1  0  0  0  0
 18 30  1  0  0  0  0
 19 21  1  0  0  0  0
 20 32  1  0  0  0  0
 21 22  2  0  0  0  0
M  END
> <PUBCHEM_COMPOUND_CID>
10428933

> <PUBCHEM_CONFORMER_RMSD>
0.8

> <PUBCHEM_CONFORMER_DIVERSEORDER>
1
30
42
12
19
34
10
24
45
8
35
4
18
26
16
29
11
39
44
31
21
15
25
37
36
23
41
13
3
22
32
6
9
28
7
27
20
14
5
38
17
40
2
33
43

> <PUBCHEM_MMFF94_PARTIAL_CHARGES>
28
1 -0.18
10 -0.57
11 -0.57
12 -0.62
13 -0.9
14 0.28
15 0.54
16 0.28
18 0.28
19 0.11
2 1.51
20 0.04
21 0.23
22 0.41
23 0.8
3 -0.56
31 0.4
32 0.15
33 0.4
34 0.4
35 0.5
36 0.5
4 -0.68
5 -0.55
6 -0.77
7 -0.77
8 -0.7
9 0.05

> <PUBCHEM_EFFECTIVE_ROTOR_COUNT>
5

> <PUBCHEM_PHARMACOPHORE_FEATURES>
15
1 13 cation
1 13 donor
1 3 acceptor
1 4 acceptor
1 4 donor
1 6 acceptor
1 7 acceptor
1 8 acceptor
3 11 12 23 cation
3 9 10 20 cation
3 9 11 19 cation
4 2 6 7 8 anion
5 3 14 15 16 17 rings
5 9 10 19 20 21 rings
6 11 12 19 21 22 23 rings

> <PUBCHEM_HEAVY_ATOM_COUNT>
23

> <PUBCHEM_ATOM_DEF_STEREO_COUNT>
3

> <PUBCHEM_ATOM_UDEF_STEREO_COUNT>
0

> <PUBCHEM_BOND_DEF_STEREO_COUNT>
0

> <PUBCHEM_BOND_UDEF_STEREO_COUNT>
0

> <PUBCHEM_ISOTOPIC_ATOM_COUNT>
0

> <PUBCHEM_COMPONENT_COUNT>
1

> <PUBCHEM_CACTVS_TAUTO_COUNT>
3

> <PUBCHEM_CONFORMER_ID>
009F220500000001

> <PUBCHEM_MMFF94_ENERGY>
12.9381

> <PUBCHEM_FEATURE_SELFOVERLAP>
76.762

> <PUBCHEM_SHAPE_FINGERPRINT>
10411042 1 17185876641216339778
10498660 4 18409451379563827941
10608611 8 18266179435523890363
10616163 171 18408605885107763297
10670039 82 18189628305378410932
10871710 139 18124592243512575495
10906281 52 18190194545408564723
10967382 1 18337392617611319413
1100329 8 17259626937341259872
11370993 70 18411976988022456968
12173636 292 18196367241898480302
12403259 226 17686621243090316055
13140716 1 18263367984544829643
13544592 271 18335703883672916171
138480 1 17907296555279150886
14223421 5 18336548192353951583
14250199 8 18053381003193066367
14787075 74 17534627315319884131
14790565 3 18193852650237459849
15006816 218 18410578370371394636
15196674 1 18409449180461269050
17980427 23 17908667732168219554
19591789 44 18267024049210816424
20905425 154 18339647715727675766
21524375 3 18341617065960976018
22113638 7 17976535331936615332
23227448 37 18410854326668330575
2334 1 18409169892060917827
23366157 5 18114748114330788658
23559900 14 18196647389535305787
238 59 17760333649103902733
2748010 2 18337116666084033079
350125 39 18337956684340549250
3524813 1 18200873001836281192
44154327 71 18335703814642430293
5104073 3 18262809445765122667
5939293 188 17762048840103840402
59755656 215 18338238142200785612
7064713 232 18409445920871956236
7097593 13 17536012390490747826
7364860 26 18196652895783281302
9709674 26 18267021644414350071
9981440 41 18335980964814142290

> <PUBCHEM_SHAPE_MULTIPOLES>
418.93
7.62
4.58
0.87
1.06
1.17
0.01
-5.08
-0.72
1.79
0.58
0.49
-0.06
0.81

> <PUBCHEM_SHAPE_SELFOVERLAP>
877.692

> <PUBCHEM_SHAPE_VOLUME>
239.8

> <PUBCHEM_COORDINATE_TYPE>
2
5
10

$$$$
