10432616
  -OEChem-03292013303D

 68 68  0     1  0  0  0  0  0999 V2000
   -0.7926   -0.4185   -1.7998 O   0  0  0  0  0  0  0  0  0  0  0  0
    1.4346    0.9131    1.4022 O   0  0  0  0  0  0  0  0  0  0  0  0
    5.2773    2.0587   -0.7273 O   0  0  0  0  0  0  0  0  0  0  0  0
   -5.8941   -0.0027   -0.4455 O   0  0  0  0  0  0  0  0  0  0  0  0
   -6.1553    2.1054    1.2276 O   0  0  0  0  0  0  0  0  0  0  0  0
   -0.6460    1.3099   -0.2648 N   0  0  0  0  0  0  0  0  0  0  0  0
   -1.1595    1.9286    0.8944 N   0  0  0  0  0  0  0  0  0  0  0  0
    2.8760    0.8360   -0.4241 N   0  0  0  0  0  0  0  0  0  0  0  0
   -4.9880    1.9136    0.4762 N   0  0  0  0  0  0  0  0  0  0  0  0
    0.6807    1.7558   -0.7022 C   0  0  1  0  0  0  0  0  0  0  0  0
    0.8100    3.2783   -0.7413 C   0  0  0  0  0  0  0  0  0  0  0  0
   -2.6530   -0.1537   -0.3565 C   0  0  2  0  0  0  0  0  0  0  0  0
    0.1765    3.9427    0.4792 C   0  0  0  0  0  0  0  0  0  0  0  0
   -1.2197    3.3814    0.7270 C   0  0  0  0  0  0  0  0  0  0  0  0
   -1.2851    0.2290   -0.8710 C   0  0  0  0  0  0  0  0  0  0  0  0
   -2.8852   -1.6637   -0.5198 C   0  0  0  0  0  0  0  0  0  0  0  0
    1.6826    1.1202    0.2172 C   0  0  0  0  0  0  0  0  0  0  0  0
   -3.6920    0.6694   -1.1275 C   0  0  0  0  0  0  0  0  0  0  0  0
    4.0111    0.2423    0.2448 C   0  0  1  0  0  0  0  0  0  0  0  0
   -1.8825   -2.4979    0.2878 C   0  0  0  0  0  0  0  0  0  0  0  0
    4.4704   -1.0564   -0.4222 C   0  0  0  0  0  0  0  0  0  0  0  0
    3.3992   -2.1635   -0.4904 C   0  0  0  0  0  0  0  0  0  0  0  0
   -2.1291   -4.0066    0.1890 C   0  0  0  0  0  0  0  0  0  0  0  0
    5.1319    1.2723    0.2089 C   0  0  0  0  0  0  0  0  0  0  0  0
   -1.0908   -4.8444    0.9364 C   0  0  0  0  0  0  0  0  0  0  0  0
   -4.9767    0.8084   -0.3352 C   0  0  0  0  0  0  0  0  0  0  0  0
    3.8980   -3.4138   -1.2160 C   0  0  0  0  0  0  0  0  0  0  0  0
    2.9493   -2.5344    0.9256 C   0  0  0  0  0  0  0  0  0  0  0  0
    6.0400    1.3222    1.4107 C   0  0  0  0  0  0  0  0  0  0  0  0
   -1.3880   -6.3314    0.8165 C   0  0  0  0  0  0  0  0  0  0  0  0
    0.8518    1.3738   -1.7165 H   0  0  0  0  0  0  0  0  0  0  0  0
    1.8581    3.5861   -0.8317 H   0  0  0  0  0  0  0  0  0  0  0  0
    0.2911    3.6477   -1.6356 H   0  0  0  0  0  0  0  0  0  0  0  0
   -2.7241    0.0639    0.7152 H   0  0  0  0  0  0  0  0  0  0  0  0
    0.1216    5.0261    0.3244 H   0  0  0  0  0  0  0  0  0  0  0  0
    0.8083    3.7784    1.3609 H   0  0  0  0  0  0  0  0  0  0  0  0
   -1.8942    3.6397   -0.0983 H   0  0  0  0  0  0  0  0  0  0  0  0
   -1.6403    3.8273    1.6345 H   0  0  0  0  0  0  0  0  0  0  0  0
   -2.8279   -1.9532   -1.5769 H   0  0  0  0  0  0  0  0  0  0  0  0
   -3.8985   -1.9141   -0.1832 H   0  0  0  0  0  0  0  0  0  0  0  0
   -0.5347    1.6922    1.6644 H   0  0  0  0  0  0  0  0  0  0  0  0
   -3.3158    1.6742   -1.3581 H   0  0  0  0  0  0  0  0  0  0  0  0
   -3.9297    0.2072   -2.0935 H   0  0  0  0  0  0  0  0  0  0  0  0
    3.7593    0.0735    1.2967 H   0  0  0  0  0  0  0  0  0  0  0  0
   -1.9321   -2.1997    1.3426 H   0  0  0  0  0  0  0  0  0  0  0  0
   -0.8592   -2.2946   -0.0469 H   0  0  0  0  0  0  0  0  0  0  0  0
    2.9885    1.0932   -1.4006 H   0  0  0  0  0  0  0  0  0  0  0  0
    4.8013   -0.8353   -1.4466 H   0  0  0  0  0  0  0  0  0  0  0  0
    5.3577   -1.4384    0.1000 H   0  0  0  0  0  0  0  0  0  0  0  0
    2.5279   -1.7898   -1.0424 H   0  0  0  0  0  0  0  0  0  0  0  0
   -2.1314   -4.2991   -0.8685 H   0  0  0  0  0  0  0  0  0  0  0  0
   -3.1289   -4.2312    0.5811 H   0  0  0  0  0  0  0  0  0  0  0  0
   -1.0785   -4.5617    1.9952 H   0  0  0  0  0  0  0  0  0  0  0  0
   -0.0916   -4.6418    0.5340 H   0  0  0  0  0  0  0  0  0  0  0  0
    3.1105   -4.1726   -1.2746 H   0  0  0  0  0  0  0  0  0  0  0  0
    4.2045   -3.1693   -2.2383 H   0  0  0  0  0  0  0  0  0  0  0  0
    4.7581   -3.8545   -0.7008 H   0  0  0  0  0  0  0  0  0  0  0  0
    2.4189   -1.7129    1.4140 H   0  0  0  0  0  0  0  0  0  0  0  0
    3.8006   -2.8176    1.5541 H   0  0  0  0  0  0  0  0  0  0  0  0
    2.2570   -3.3833    0.8992 H   0  0  0  0  0  0  0  0  0  0  0  0
    6.4769    0.3359    1.5848 H   0  0  0  0  0  0  0  0  0  0  0  0
    5.4703    1.6426    2.2862 H   0  0  0  0  0  0  0  0  0  0  0  0
    6.8493    2.0354    1.2311 H   0  0  0  0  0  0  0  0  0  0  0  0
   -2.3690   -6.5709    1.2391 H   0  0  0  0  0  0  0  0  0  0  0  0
   -1.3771   -6.6505   -0.2306 H   0  0  0  0  0  0  0  0  0  0  0  0
   -0.6343   -6.9128    1.3566 H   0  0  0  0  0  0  0  0  0  0  0  0
   -4.2984    2.6559    0.4968 H   0  0  0  0  0  0  0  0  0  0  0  0
   -5.8882    1.6946    2.0674 H   0  0  0  0  0  0  0  0  0  0  0  0
  1 15  2  0  0  0  0
  2 17  2  0  0  0  0
  3 24  2  0  0  0  0
  4 26  2  0  0  0  0
  5  9  1  0  0  0  0
  5 68  1  0  0  0  0
  6  7  1  0  0  0  0
  6 10  1  0  0  0  0
  6 15  1  0  0  0  0
  7 14  1  0  0  0  0
  7 41  1  0  0  0  0
  8 17  1  0  0  0  0
  8 19  1  0  0  0  0
  8 47  1  0  0  0  0
  9 26  1  0  0  0  0
  9 67  1  0  0  0  0
 10 11  1  0  0  0  0
 10 17  1  0  0  0  0
 10 31  1  0  0  0  0
 11 13  1  0  0  0  0
 11 32  1  0  0  0  0
 11 33  1  0  0  0  0
 12 15  1  0  0  0  0
 12 16  1  0  0  0  0
 12 18  1  0  0  0  0
 12 34  1  0  0  0  0
 13 14  1  0  0  0  0
 13 35  1  0  0  0  0
 13 36  1  0  0  0  0
 14 37  1  0  0  0  0
 14 38  1  0  0  0  0
 16 20  1  0  0  0  0
 16 39  1  0  0  0  0
 16 40  1  0  0  0  0
 18 26  1  0  0  0  0
 18 42  1  0  0  0  0
 18 43  1  0  0  0  0
 19 21  1  0  0  0  0
 19 24  1  0  0  0  0
 19 44  1  0  0  0  0
 20 23  1  0  0  0  0
 20 45  1  0  0  0  0
 20 46  1  0  0  0  0
 21 22  1  0  0  0  0
 21 48  1  0  0  0  0
 21 49  1  0  0  0  0
 22 27  1  0  0  0  0
 22 28  1  0  0  0  0
 22 50  1  0  0  0  0
 23 25  1  0  0  0  0
 23 51  1  0  0  0  0
 23 52  1  0  0  0  0
 24 29  1  0  0  0  0
 25 30  1  0  0  0  0
 25 53  1  0  0  0  0
 25 54  1  0  0  0  0
 27 55  1  0  0  0  0
 27 56  1  0  0  0  0
 27 57  1  0  0  0  0
 28 58  1  0  0  0  0
 28 59  1  0  0  0  0
 28 60  1  0  0  0  0
 29 61  1  0  0  0  0
 29 62  1  0  0  0  0
 29 63  1  0  0  0  0
 30 64  1  0  0  0  0
 30 65  1  0  0  0  0
 30 66  1  0  0  0  0
M  END
> <PUBCHEM_COMPOUND_CID>
10432616

> <PUBCHEM_CONFORMER_RMSD>
1.2

> <PUBCHEM_CONFORMER_DIVERSEORDER>
1
33
50
59
71
48
78
66
49
67
58
64
72
56
36
4
17
55
37
74
34
57
11
77
42
45
40
2
43
44
31
39
22
24
29
18
25
21
41
73
70
14
32
75
16
63
79
52
62
27
6
76
10
53
65
60
69
51
23
54
19
8
61
46
47
13
38
35
7
12
30
68
3
5
26
28
20
9
15

> <PUBCHEM_MMFF94_PARTIAL_CHARGES>
23
1 -0.57
10 0.36
12 0.06
14 0.27
15 0.57
17 0.57
18 0.06
19 0.36
2 -0.57
24 0.45
26 0.57
29 0.06
3 -0.57
4 -0.57
41 0.36
47 0.37
5 -0.44
6 -0.35
67 0.37
68 0.4
7 -0.64
8 -0.73
9 -0.39

> <PUBCHEM_EFFECTIVE_ROTOR_COUNT>
16.2

> <PUBCHEM_PHARMACOPHORE_FEATURES>
12
1 1 acceptor
1 2 acceptor
1 3 acceptor
1 30 hydrophobe
1 4 acceptor
1 7 donor
1 8 donor
1 9 donor
3 12 16 18 hydrophobe
3 20 23 25 hydrophobe
3 22 27 28 hydrophobe
6 6 7 10 11 13 14 rings

> <PUBCHEM_HEAVY_ATOM_COUNT>
30

> <PUBCHEM_ATOM_DEF_STEREO_COUNT>
3

> <PUBCHEM_ATOM_UDEF_STEREO_COUNT>
0

> <PUBCHEM_BOND_DEF_STEREO_COUNT>
0

> <PUBCHEM_BOND_UDEF_STEREO_COUNT>
0

> <PUBCHEM_ISOTOPIC_ATOM_COUNT>
0

> <PUBCHEM_COMPONENT_COUNT>
1

> <PUBCHEM_CACTVS_TAUTO_COUNT>
18

> <PUBCHEM_CONFORMER_ID>
009F306800000001

> <PUBCHEM_MMFF94_ENERGY>
45.7841

> <PUBCHEM_FEATURE_SELFOVERLAP>
60.91

> <PUBCHEM_SHAPE_FINGERPRINT>
10190108 129 17833295042227239929
10675989 125 18120639241565209725
10906281 52 18129678464186371469
10940486 97 18042968868343301157
12422481 6 17629768864230920461
12788726 201 17917997126715553448
13140716 1 18196084680100221932
13533116 47 18200875072036884788
140371 6 18412549837917934052
14725015 67 18123184598415834678
14790565 3 18266743472183184897
14866123 147 18264203798192633771
1813 80 17749112145152925900
19319366 153 17530953670666660434
19930381 70 18047749295988225427
23559900 14 17759226780613580821
3178227 256 18337402591295624849
3383291 50 18337952402511856939
463206 1 18337105769662209102
5309563 4 17472419223531925574

> <PUBCHEM_SHAPE_MULTIPOLES>
568.12
11.69
6.86
1.21
1.31
10.62
0.01
-4.16
-1.01
-2.89
-2.1
0.21
0.06
0.62

> <PUBCHEM_SHAPE_SELFOVERLAP>
1115.314

> <PUBCHEM_SHAPE_VOLUME>
338.3

> <PUBCHEM_COORDINATE_TYPE>
2
5
10

$$$$
