10432424
  -OEChem-03292013303D

 44 45  0     1  0  0  0  0  0999 V2000
    4.7844    0.4532    0.7692 S   0  0  0  0  0  0  0  0  0  0  0  0
    4.7861   -1.0006   -0.6806 S   0  0  0  0  0  0  0  0  0  0  0  0
    4.8704   -2.7812    0.3400 S   0  0  0  0  0  0  0  0  0  0  0  0
    1.2849    1.7868   -2.6829 O   0  0  0  0  0  0  0  0  0  0  0  0
   -1.2493   -2.1570   -2.0012 O   0  0  0  0  0  0  0  0  0  0  0  0
    1.3152    0.6572    2.5695 O   0  0  0  0  0  0  0  0  0  0  0  0
   -3.3299   -2.9308    1.1507 O   0  0  0  0  0  0  0  0  0  0  0  0
   -3.1610   -2.0120   -0.9468 O   0  0  0  0  0  0  0  0  0  0  0  0
   -1.5164   -1.7076    0.6667 N   0  0  0  0  0  0  0  0  0  0  0  0
    0.3684    1.1669   -1.7754 C   0  0  2  0  0  0  0  0  0  0  0  0
    1.0345    0.7888   -0.4479 C   0  0  0  0  0  0  0  0  0  0  0  0
   -0.1275   -0.1039   -2.4698 C   0  0  0  0  0  0  0  0  0  0  0  0
    0.1659    0.0067    0.4681 C   0  0  0  0  0  0  0  0  0  0  0  0
   -0.6548   -0.9318   -0.0598 C   0  0  0  0  0  0  0  0  0  0  0  0
   -0.7158   -1.1468   -1.5400 C   0  0  0  0  0  0  0  0  0  0  0  0
    0.0595    0.4283    1.9476 C   0  0  2  0  0  0  0  0  0  0  0  0
    2.3174    1.0819   -0.1707 C   0  0  0  0  0  0  0  0  0  0  0  0
   -0.7208    2.1259   -1.4871 C   0  0  0  0  0  0  0  0  0  0  0  0
    3.0102    0.6583    1.0798 C   0  0  0  0  0  0  0  0  0  0  0  0
   -0.7615    1.6519    2.0010 C   0  0  0  0  0  0  0  0  0  0  0  0
   -2.7090   -2.1962    0.1792 C   0  0  0  0  0  0  0  0  0  0  0  0
   -1.5136    2.9002   -1.0214 C   0  0  0  0  0  0  0  0  0  0  0  0
   -2.3122    3.7319   -0.1806 C   0  0  0  0  0  0  0  0  0  0  0  0
   -1.4712    2.5938    1.7706 C   0  0  0  0  0  0  0  0  0  0  0  0
   -2.2793    3.5968    1.1581 C   0  0  0  0  0  0  0  0  0  0  0  0
   -4.5901   -3.5067    0.7888 C   0  0  0  0  0  0  0  0  0  0  0  0
    3.1157   -3.1538    0.5748 C   0  0  0  0  0  0  0  0  0  0  0  0
    0.6987   -0.5976   -2.9992 H   0  0  0  0  0  0  0  0  0  0  0  0
   -0.8847    0.1459   -3.2240 H   0  0  0  0  0  0  0  0  0  0  0  0
   -0.4240   -0.3455    2.5486 H   0  0  0  0  0  0  0  0  0  0  0  0
    2.8869    1.6846   -0.8741 H   0  0  0  0  0  0  0  0  0  0  0  0
    1.9795    1.1454   -2.9111 H   0  0  0  0  0  0  0  0  0  0  0  0
   -1.3591   -1.8141    1.6630 H   0  0  0  0  0  0  0  0  0  0  0  0
    2.7243   -0.3232    1.4524 H   0  0  0  0  0  0  0  0  0  0  0  0
    3.0304    1.4820    1.7973 H   0  0  0  0  0  0  0  0  0  0  0  0
    1.1492    0.8785    3.5022 H   0  0  0  0  0  0  0  0  0  0  0  0
   -2.9379    4.4903   -0.6383 H   0  0  0  0  0  0  0  0  0  0  0  0
   -2.8821    4.2410    1.7887 H   0  0  0  0  0  0  0  0  0  0  0  0
   -5.3066   -2.7197    0.5348 H   0  0  0  0  0  0  0  0  0  0  0  0
   -4.9696   -4.0623    1.6504 H   0  0  0  0  0  0  0  0  0  0  0  0
   -4.4629   -4.1999   -0.0481 H   0  0  0  0  0  0  0  0  0  0  0  0
    2.5635   -3.0626   -0.3645 H   0  0  0  0  0  0  0  0  0  0  0  0
    2.6748   -2.5066    1.3346 H   0  0  0  0  0  0  0  0  0  0  0  0
    3.0217   -4.1862    0.9236 H   0  0  0  0  0  0  0  0  0  0  0  0
  1  2  1  0  0  0  0
  1 19  1  0  0  0  0
  2  3  1  0  0  0  0
  3 27  1  0  0  0  0
  4 10  1  0  0  0  0
  4 32  1  0  0  0  0
  5 15  2  0  0  0  0
  6 16  1  0  0  0  0
  6 36  1  0  0  0  0
  7 21  1  0  0  0  0
  7 26  1  0  0  0  0
  8 21  2  0  0  0  0
  9 14  1  0  0  0  0
  9 21  1  0  0  0  0
  9 33  1  0  0  0  0
 10 11  1  0  0  0  0
 10 12  1  0  0  0  0
 10 18  1  0  0  0  0
 11 13  1  0  0  0  0
 11 17  2  0  0  0  0
 12 15  1  0  0  0  0
 12 28  1  0  0  0  0
 12 29  1  0  0  0  0
 13 14  2  0  0  0  0
 13 16  1  0  0  0  0
 14 15  1  0  0  0  0
 16 20  1  0  0  0  0
 16 30  1  0  0  0  0
 17 19  1  0  0  0  0
 17 31  1  0  0  0  0
 18 22  3  0  0  0  0
 19 34  1  0  0  0  0
 19 35  1  0  0  0  0
 20 24  3  0  0  0  0
 22 23  1  0  0  0  0
 23 25  2  0  0  0  0
 23 37  1  0  0  0  0
 24 25  1  0  0  0  0
 25 38  1  0  0  0  0
 26 39  1  0  0  0  0
 26 40  1  0  0  0  0
 26 41  1  0  0  0  0
 27 42  1  0  0  0  0
 27 43  1  0  0  0  0
 27 44  1  0  0  0  0
M  END
> <PUBCHEM_COMPOUND_CID>
10432424

> <PUBCHEM_CONFORMER_RMSD>
0.8

> <PUBCHEM_CONFORMER_DIVERSEORDER>
1
33
32
36
29
11
3
30
8
35
21
26
24
10
18
23
27
15
12
14
31
7
20
34
16
2
5
25
19
4
13
9
6
17
22
28

> <PUBCHEM_MMFF94_PARTIAL_CHARGES>
32
1 -0.23
10 0.62
11 -0.14
12 0.06
13 -0.14
14 0.12
15 0.49
16 0.62
17 -0.29
18 -0.2
19 0.37
20 -0.2
21 0.78
22 -0.06
23 -0.09
24 -0.06
25 -0.09
26 0.28
27 0.23
3 -0.23
31 0.15
32 0.4
33 0.37
36 0.4
37 0.15
38 0.15
4 -0.68
5 -0.57
6 -0.68
7 -0.43
8 -0.57
9 -0.54

> <PUBCHEM_EFFECTIVE_ROTOR_COUNT>
7.4

> <PUBCHEM_PHARMACOPHORE_FEATURES>
10
1 27 hydrophobe
1 4 acceptor
1 4 donor
1 5 acceptor
1 6 acceptor
1 6 donor
1 8 acceptor
1 9 donor
5 1 2 3 17 19 hydrophobe
6 10 11 12 13 14 15 rings

> <PUBCHEM_HEAVY_ATOM_COUNT>
27

> <PUBCHEM_ATOM_DEF_STEREO_COUNT>
2

> <PUBCHEM_ATOM_UDEF_STEREO_COUNT>
0

> <PUBCHEM_BOND_DEF_STEREO_COUNT>
2

> <PUBCHEM_BOND_UDEF_STEREO_COUNT>
0

> <PUBCHEM_ISOTOPIC_ATOM_COUNT>
0

> <PUBCHEM_COMPONENT_COUNT>
1

> <PUBCHEM_CACTVS_TAUTO_COUNT>
4

> <PUBCHEM_CONFORMER_ID>
009F2FA800000001

> <PUBCHEM_MMFF94_ENERGY>
81.3378

> <PUBCHEM_FEATURE_SELFOVERLAP>
50.832

> <PUBCHEM_SHAPE_FINGERPRINT>
10764073 3 16987742167324813609
11578080 2 18201140101927003296
11725454 13 10951511334625194170
12422481 6 18055663675247623651
12788726 201 18265624349734657588
13134695 92 17910953866287643661
13135754 10 18409451358278960462
13583140 156 17846204558752285120
17980427 23 14906783495711987403
1813 80 18115590486197682478
20600515 1 17200535175069673259
23419403 2 15767287528885048329
3380486 145 17914311718510473535
35225 105 18127664111823923985
3729539 64 17185597910760544502
4340502 62 17698740112024094217
5845 1 11317144889746529021

> <PUBCHEM_SHAPE_MULTIPOLES>
532.87
7.35
4.79
2.38
9.91
2.64
0.51
4.32
-1.9
-6.42
-0.82
-0.5
-0.93
0.04

> <PUBCHEM_SHAPE_SELFOVERLAP>
1082.255

> <PUBCHEM_SHAPE_VOLUME>
311.3

> <PUBCHEM_COORDINATE_TYPE>
2
5
10

$$$$
