10435926
  -OEChem-03292013303D

 65 69  0     1  0  0  0  0  0999 V2000
    2.3994   -1.0870   -1.8393 O   0  0  0  0  0  0  0  0  0  0  0  0
   -1.4481   -2.8286   -0.2371 O   0  0  0  0  0  0  0  0  0  0  0  0
   -0.8209   -1.9127    1.7735 O   0  0  0  0  0  0  0  0  0  0  0  0
   -3.7629   -1.6640   -1.0243 O   0  0  0  0  0  0  0  0  0  0  0  0
    0.4997   -1.7348   -0.1240 N   0  0  0  0  0  0  0  0  0  0  0  0
    3.7679   -0.0909   -0.2663 N   0  0  0  0  0  0  0  0  0  0  0  0
   -1.1516    1.8845   -1.4420 N   0  0  0  0  0  0  0  0  0  0  0  0
    8.6506    0.2609    0.8322 N   0  0  0  0  0  0  0  0  0  0  0  0
    1.5922   -0.9734    0.4576 C   0  0  2  0  0  0  0  0  0  0  0  0
    1.0722    0.3550    1.0615 C   0  0  0  0  0  0  0  0  0  0  0  0
   -0.0067    1.0401    0.2619 C   0  0  0  0  0  0  0  0  0  0  0  0
    2.6128   -0.7410   -0.6768 C   0  0  0  0  0  0  0  0  0  0  0  0
    2.2233   -1.8340    1.5628 C   0  0  0  0  0  0  0  0  0  0  0  0
   -1.2062    1.6114    0.7715 C   0  0  0  0  0  0  0  0  0  0  0  0
   -0.0020    1.2236   -1.1016 C   0  0  0  0  0  0  0  0  0  0  0  0
   -1.9062    2.1343   -0.3179 C   0  0  0  0  0  0  0  0  0  0  0  0
    4.8386    0.2436   -1.1765 C   0  0  2  0  0  0  0  0  0  0  0  0
   -1.7652    1.7344    2.0591 C   0  0  0  0  0  0  0  0  0  0  0  0
   -0.6067   -2.1349    0.5864 C   0  0  0  0  0  0  0  0  0  0  0  0
   -3.1423    2.7765   -0.1836 C   0  0  0  0  0  0  0  0  0  0  0  0
    6.1775    0.2495   -0.4709 C   0  0  0  0  0  0  0  0  0  0  0  0
    4.5469    1.5634   -1.8876 C   0  0  0  0  0  0  0  0  0  0  0  0
   -3.0010    2.3743    2.2087 C   0  0  0  0  0  0  0  0  0  0  0  0
   -3.6772    2.8866    1.1032 C   0  0  0  0  0  0  0  0  0  0  0  0
    6.4307    1.1724    0.5380 C   0  0  0  0  0  0  0  0  0  0  0  0
    7.1594   -0.6675   -0.8291 C   0  0  0  0  0  0  0  0  0  0  0  0
   -2.6532   -3.3130    0.3662 C   0  0  0  0  0  0  0  0  0  0  0  0
   -3.6864   -2.2422    0.2027 C   0  0  0  0  0  0  0  0  0  0  0  0
    7.6720    1.1368    1.1527 C   0  0  0  0  0  0  0  0  0  0  0  0
    8.3681   -0.6207   -0.1531 C   0  0  0  0  0  0  0  0  0  0  0  0
   -4.6132   -1.6934    1.0586 C   0  0  0  0  0  0  0  0  0  0  0  0
   -5.3123   -0.7078    0.3131 C   0  0  0  0  0  0  0  0  0  0  0  0
   -4.7522   -0.7290   -0.9601 C   0  0  0  0  0  0  0  0  0  0  0  0
   -6.3548    0.1988    0.5732 C   0  0  0  0  0  0  0  0  0  0  0  0
   -5.1593    0.0963   -2.0068 C   0  0  0  0  0  0  0  0  0  0  0  0
   -6.7857    1.0425   -0.4599 C   0  0  0  0  0  0  0  0  0  0  0  0
   -6.1972    0.9899   -1.7260 C   0  0  0  0  0  0  0  0  0  0  0  0
    0.6826    0.1663    2.0701 H   0  0  0  0  0  0  0  0  0  0  0  0
    1.8917    1.0710    1.2006 H   0  0  0  0  0  0  0  0  0  0  0  0
    2.6000   -2.7796    1.1536 H   0  0  0  0  0  0  0  0  0  0  0  0
    1.5269   -2.0827    2.3689 H   0  0  0  0  0  0  0  0  0  0  0  0
    3.0734   -1.3274    2.0330 H   0  0  0  0  0  0  0  0  0  0  0  0
    0.5452   -1.9933   -1.1056 H   0  0  0  0  0  0  0  0  0  0  0  0
    0.7106    0.9620   -1.8695 H   0  0  0  0  0  0  0  0  0  0  0  0
    3.8520    0.2065    0.7007 H   0  0  0  0  0  0  0  0  0  0  0  0
    4.8586   -0.5346   -1.9509 H   0  0  0  0  0  0  0  0  0  0  0  0
   -1.4091    2.1526   -2.3818 H   0  0  0  0  0  0  0  0  0  0  0  0
   -1.2539    1.3413    2.9329 H   0  0  0  0  0  0  0  0  0  0  0  0
   -3.6689    3.1766   -1.0435 H   0  0  0  0  0  0  0  0  0  0  0  0
    3.6203    1.4966   -2.4686 H   0  0  0  0  0  0  0  0  0  0  0  0
    5.3572    1.8280   -2.5758 H   0  0  0  0  0  0  0  0  0  0  0  0
    4.4219    2.3908   -1.1801 H   0  0  0  0  0  0  0  0  0  0  0  0
   -3.4378    2.4710    3.1991 H   0  0  0  0  0  0  0  0  0  0  0  0
   -4.6360    3.3793    1.2420 H   0  0  0  0  0  0  0  0  0  0  0  0
    5.6912    1.9016    0.8503 H   0  0  0  0  0  0  0  0  0  0  0  0
    6.9989   -1.4023   -1.6105 H   0  0  0  0  0  0  0  0  0  0  0  0
   -2.9626   -4.2095   -0.1805 H   0  0  0  0  0  0  0  0  0  0  0  0
   -2.5095   -3.5935    1.4152 H   0  0  0  0  0  0  0  0  0  0  0  0
    7.9188    1.8343    1.9463 H   0  0  0  0  0  0  0  0  0  0  0  0
    9.1667   -1.3144   -0.3946 H   0  0  0  0  0  0  0  0  0  0  0  0
   -4.7672   -1.9670    2.0929 H   0  0  0  0  0  0  0  0  0  0  0  0
   -6.8208    0.2518    1.5524 H   0  0  0  0  0  0  0  0  0  0  0  0
   -4.6965    0.0511   -2.9854 H   0  0  0  0  0  0  0  0  0  0  0  0
   -7.5898    1.7492   -0.2714 H   0  0  0  0  0  0  0  0  0  0  0  0
   -6.5513    1.6575   -2.5076 H   0  0  0  0  0  0  0  0  0  0  0  0
  1 12  2  0  0  0  0
  2 19  1  0  0  0  0
  2 27  1  0  0  0  0
  3 19  2  0  0  0  0
  4 28  1  0  0  0  0
  4 33  1  0  0  0  0
  5  9  1  0  0  0  0
  5 19  1  0  0  0  0
  5 43  1  0  0  0  0
  6 12  1  0  0  0  0
  6 17  1  0  0  0  0
  6 45  1  0  0  0  0
  7 15  1  0  0  0  0
  7 16  1  0  0  0  0
  7 47  1  0  0  0  0
  8 29  2  0  0  0  0
  8 30  1  0  0  0  0
  9 10  1  0  0  0  0
  9 12  1  0  0  0  0
  9 13  1  0  0  0  0
 10 11  1  0  0  0  0
 10 38  1  0  0  0  0
 10 39  1  0  0  0  0
 11 14  1  0  0  0  0
 11 15  2  0  0  0  0
 13 40  1  0  0  0  0
 13 41  1  0  0  0  0
 13 42  1  0  0  0  0
 14 16  1  0  0  0  0
 14 18  2  0  0  0  0
 15 44  1  0  0  0  0
 16 20  2  0  0  0  0
 17 21  1  0  0  0  0
 17 22  1  0  0  0  0
 17 46  1  0  0  0  0
 18 23  1  0  0  0  0
 18 48  1  0  0  0  0
 20 24  1  0  0  0  0
 20 49  1  0  0  0  0
 21 25  2  0  0  0  0
 21 26  1  0  0  0  0
 22 50  1  0  0  0  0
 22 51  1  0  0  0  0
 22 52  1  0  0  0  0
 23 24  2  0  0  0  0
 23 53  1  0  0  0  0
 24 54  1  0  0  0  0
 25 29  1  0  0  0  0
 25 55  1  0  0  0  0
 26 30  2  0  0  0  0
 26 56  1  0  0  0  0
 27 28  1  0  0  0  0
 27 57  1  0  0  0  0
 27 58  1  0  0  0  0
 28 31  2  0  0  0  0
 29 59  1  0  0  0  0
 30 60  1  0  0  0  0
 31 32  1  0  0  0  0
 31 61  1  0  0  0  0
 32 33  1  0  0  0  0
 32 34  2  0  0  0  0
 33 35  2  0  0  0  0
 34 36  1  0  0  0  0
 34 62  1  0  0  0  0
 35 37  1  0  0  0  0
 35 63  1  0  0  0  0
 36 37  2  0  0  0  0
 36 64  1  0  0  0  0
 37 65  1  0  0  0  0
M  END
> <PUBCHEM_COMPOUND_CID>
10435926

> <PUBCHEM_CONFORMER_RMSD>
1.6

> <PUBCHEM_CONFORMER_DIVERSEORDER>
1
83
15
79
99
42
82
119
49
74
93
7
39
43
116
36
101
28
102
4
98
31
44
65
113
84
52
27
32
120
59
95
103
56
5
117
19
104
10
60
121
81
37
114
22
73
62
54
70
35
94
68
2
50
97
87
46
71
96
51
91
8
107
110
58
118
72
14
78
45
105
17
85
25
33
92
112
61
75
100
40
77
67
48
86
66
109
80
47
6
57
55
108
115
38
88
34
64
89
69
3
122
26
30
106
13
53
111
9
76
20
12
63
90
18
16
29
11
21
41
23
24

> <PUBCHEM_MMFF94_PARTIAL_CHARGES>
50
1 -0.57
10 0.18
11 -0.18
12 0.57
15 -0.3
16 -0.15
17 0.44
18 -0.15
19 0.78
2 -0.43
20 -0.15
21 -0.14
23 -0.15
24 -0.15
25 -0.15
26 -0.15
27 0.46
28 -0.04
29 0.16
3 -0.57
30 0.16
31 -0.15
33 0.14
34 -0.15
35 -0.15
36 -0.15
37 -0.15
4 -0.28
43 0.37
44 0.15
45 0.37
47 0.27
48 0.15
49 0.15
5 -0.73
53 0.15
54 0.15
55 0.15
56 0.15
59 0.15
6 -0.73
60 0.15
61 0.15
62 0.15
63 0.15
64 0.15
65 0.15
7 0.03
8 -0.62
9 0.36

> <PUBCHEM_EFFECTIVE_ROTOR_COUNT>
11

> <PUBCHEM_PHARMACOPHORE_FEATURES>
13
1 1 acceptor
1 3 acceptor
1 4 acceptor
1 5 donor
1 6 donor
1 7 cation
1 7 donor
1 8 acceptor
5 4 28 31 32 33 rings
5 7 11 14 15 16 rings
6 14 16 18 20 23 24 rings
6 32 33 34 35 36 37 rings
6 8 21 25 26 29 30 rings

> <PUBCHEM_HEAVY_ATOM_COUNT>
37

> <PUBCHEM_ATOM_DEF_STEREO_COUNT>
2

> <PUBCHEM_ATOM_UDEF_STEREO_COUNT>
0

> <PUBCHEM_BOND_DEF_STEREO_COUNT>
0

> <PUBCHEM_BOND_UDEF_STEREO_COUNT>
0

> <PUBCHEM_ISOTOPIC_ATOM_COUNT>
0

> <PUBCHEM_COMPONENT_COUNT>
1

> <PUBCHEM_CACTVS_TAUTO_COUNT>
4

> <PUBCHEM_CONFORMER_ID>
009F3D5600000001

> <PUBCHEM_MMFF94_ENERGY>
79.3188

> <PUBCHEM_FEATURE_SELFOVERLAP>
66.167

> <PUBCHEM_SHAPE_FINGERPRINT>
11007060 377 18338521841506273480
11135926 11 18259981553203053695
11136131 41 18042400231806337267
11505856 67 17486779571720059353
12104220 1 18413108346579681121
12107698 1 17561079215889966424
12788726 201 18272087154807982001
12838862 33 18335409163549899133
12857493 111 18131632313819280880
13726171 33 17532641327380935037
13914758 101 17821449049972973302
13947920 75 18413670205679669507
13947947 74 18411694354349121045
14068700 675 18342457092897279445
14294032 229 18041275453323451268
14295345 954 18131074822963620084
14394314 77 18339084779430166529
14747282 305 17751355080961136250
15082195 135 18267606709729113076
15131766 46 15215870499578503206
15145343 4 18341320198085584488
15183329 4 16732972176807607670
15274700 242 17895191048532736809
15328829 1 17967527965858411186
19958102 18 18341623572799617086
21236236 1 18342181050790018970
23559900 14 18199463436461910849
4325135 7 18410293592849637444
563151 74 15574709175359955000
7226269 152 18410009961778284083

> <PUBCHEM_SHAPE_MULTIPOLES>
718.04
20.35
3.12
1.8
36.14
0.57
0.01
-2.75
2.57
-3.91
-0.87
-0.76
-0.58
-0.12

> <PUBCHEM_SHAPE_SELFOVERLAP>
1578.557

> <PUBCHEM_SHAPE_VOLUME>
386.6

> <PUBCHEM_COORDINATE_TYPE>
2
5
10

$$$$
