10430040
  -OEChem-03292013303D

 53 54  0     1  0  0  0  0  0999 V2000
   -4.7400    1.0591   -2.1521 O   0  0  0  0  0  0  0  0  0  0  0  0
   -3.2986    2.8042   -1.9968 O   0  0  0  0  0  0  0  0  0  0  0  0
   -1.6391   -0.6642   -1.1211 O   0  0  0  0  0  0  0  0  0  0  0  0
   -2.5575   -5.6225   -0.6961 O   0  0  0  0  0  0  0  0  0  0  0  0
   -2.9884   -4.8083    1.3800 O   0  0  0  0  0  0  0  0  0  0  0  0
   -2.1106    0.2025    0.9823 N   0  0  0  0  0  0  0  0  0  0  0  0
   -1.8135    1.5903    0.6841 C   0  0  1  0  0  0  0  0  0  0  0  0
   -3.1042    2.4170    0.8559 C   0  0  0  0  0  0  0  0  0  0  0  0
   -0.6620    2.0932    1.5731 C   0  0  0  0  0  0  0  0  0  0  0  0
   -4.3101    1.9229    0.0362 C   0  0  1  0  0  0  0  0  0  0  0  0
    0.6924    1.5922    1.1262 C   0  0  0  0  0  0  0  0  0  0  0  0
   -5.5462    2.7684    0.3383 C   0  0  0  0  0  0  0  0  0  0  0  0
   -4.0387    1.9919   -1.4573 C   0  0  0  0  0  0  0  0  0  0  0  0
   -1.9959   -0.8098    0.0449 C   0  0  0  0  0  0  0  0  0  0  0  0
    1.1928    0.3913    1.6297 C   0  0  0  0  0  0  0  0  0  0  0  0
    1.4416    2.3307    0.2102 C   0  0  0  0  0  0  0  0  0  0  0  0
   -2.3733   -2.1563    0.6360 C   0  0  0  0  0  0  0  0  0  0  0  0
    3.1915    0.6673    0.3008 C   0  0  0  0  0  0  0  0  0  0  0  0
    2.4422   -0.0710    1.2169 C   0  0  0  0  0  0  0  0  0  0  0  0
    2.6912    1.8682   -0.2025 C   0  0  0  0  0  0  0  0  0  0  0  0
   -2.2558   -3.2911   -0.3763 C   0  0  0  0  0  0  0  0  0  0  0  0
    4.4874    0.1876   -0.1269 C   0  0  0  0  0  0  0  0  0  0  0  0
    5.6343    0.5548    0.5770 C   0  0  0  0  0  0  0  0  0  0  0  0
    4.5904   -0.6428   -1.2431 C   0  0  0  0  0  0  0  0  0  0  0  0
   -2.6408   -4.6240    0.2218 C   0  0  0  0  0  0  0  0  0  0  0  0
    6.8839    0.0920    0.1650 C   0  0  0  0  0  0  0  0  0  0  0  0
    5.8401   -1.1056   -1.6551 C   0  0  0  0  0  0  0  0  0  0  0  0
    6.9868   -0.7381   -0.9510 C   0  0  0  0  0  0  0  0  0  0  0  0
   -1.4996    1.6655   -0.3637 H   0  0  0  0  0  0  0  0  0  0  0  0
   -2.8864    3.4620    0.5986 H   0  0  0  0  0  0  0  0  0  0  0  0
   -3.3837    2.4127    1.9184 H   0  0  0  0  0  0  0  0  0  0  0  0
   -0.6398    3.1911    1.5603 H   0  0  0  0  0  0  0  0  0  0  0  0
   -0.8305    1.8143    2.6218 H   0  0  0  0  0  0  0  0  0  0  0  0
   -4.5266    0.8810    0.2993 H   0  0  0  0  0  0  0  0  0  0  0  0
   -2.4170   -0.0255    1.9239 H   0  0  0  0  0  0  0  0  0  0  0  0
   -5.8029    2.7186    1.4015 H   0  0  0  0  0  0  0  0  0  0  0  0
   -6.4109    2.4155   -0.2343 H   0  0  0  0  0  0  0  0  0  0  0  0
   -5.3842    3.8193    0.0736 H   0  0  0  0  0  0  0  0  0  0  0  0
    0.6196   -0.1929    2.3445 H   0  0  0  0  0  0  0  0  0  0  0  0
    1.0613    3.2663   -0.1911 H   0  0  0  0  0  0  0  0  0  0  0  0
   -3.4022   -2.0919    1.0111 H   0  0  0  0  0  0  0  0  0  0  0  0
   -1.7204   -2.3506    1.4960 H   0  0  0  0  0  0  0  0  0  0  0  0
    2.8173   -1.0092    1.6191 H   0  0  0  0  0  0  0  0  0  0  0  0
    3.2619    2.4558   -0.9179 H   0  0  0  0  0  0  0  0  0  0  0  0
   -2.9137   -3.0965   -1.2310 H   0  0  0  0  0  0  0  0  0  0  0  0
   -1.2240   -3.3632   -0.7383 H   0  0  0  0  0  0  0  0  0  0  0  0
   -4.5703    1.1177   -3.1164 H   0  0  0  0  0  0  0  0  0  0  0  0
    5.5721    1.2013    1.4493 H   0  0  0  0  0  0  0  0  0  0  0  0
    3.7066   -0.9389   -1.8033 H   0  0  0  0  0  0  0  0  0  0  0  0
    7.7769    0.3781    0.7130 H   0  0  0  0  0  0  0  0  0  0  0  0
    5.9205   -1.7521   -2.5241 H   0  0  0  0  0  0  0  0  0  0  0  0
    7.9598   -1.0985   -1.2719 H   0  0  0  0  0  0  0  0  0  0  0  0
   -2.8071   -6.4911   -0.3146 H   0  0  0  0  0  0  0  0  0  0  0  0
  1 13  1  0  0  0  0
  1 47  1  0  0  0  0
  2 13  2  0  0  0  0
  3 14  2  0  0  0  0
  4 25  1  0  0  0  0
  4 53  1  0  0  0  0
  5 25  2  0  0  0  0
  6  7  1  0  0  0  0
  6 14  1  0  0  0  0
  6 35  1  0  0  0  0
  7  8  1  0  0  0  0
  7  9  1  0  0  0  0
  7 29  1  0  0  0  0
  8 10  1  0  0  0  0
  8 30  1  0  0  0  0
  8 31  1  0  0  0  0
  9 11  1  0  0  0  0
  9 32  1  0  0  0  0
  9 33  1  0  0  0  0
 10 12  1  0  0  0  0
 10 13  1  0  0  0  0
 10 34  1  0  0  0  0
 11 15  2  0  0  0  0
 11 16  1  0  0  0  0
 12 36  1  0  0  0  0
 12 37  1  0  0  0  0
 12 38  1  0  0  0  0
 14 17  1  0  0  0  0
 15 19  1  0  0  0  0
 15 39  1  0  0  0  0
 16 20  2  0  0  0  0
 16 40  1  0  0  0  0
 17 21  1  0  0  0  0
 17 41  1  0  0  0  0
 17 42  1  0  0  0  0
 18 19  2  0  0  0  0
 18 20  1  0  0  0  0
 18 22  1  0  0  0  0
 19 43  1  0  0  0  0
 20 44  1  0  0  0  0
 21 25  1  0  0  0  0
 21 45  1  0  0  0  0
 21 46  1  0  0  0  0
 22 23  2  0  0  0  0
 22 24  1  0  0  0  0
 23 26  1  0  0  0  0
 23 48  1  0  0  0  0
 24 27  2  0  0  0  0
 24 49  1  0  0  0  0
 26 28  2  0  0  0  0
 26 50  1  0  0  0  0
 27 28  1  0  0  0  0
 27 51  1  0  0  0  0
 28 52  1  0  0  0  0
M  END
> <PUBCHEM_COMPOUND_CID>
10430040

> <PUBCHEM_CONFORMER_RMSD>
1

> <PUBCHEM_CONFORMER_DIVERSEORDER>
1
29
44
7
4
52
25
23
32
51
42
48
39
38
9
49
54
36
10
47
30
43
12
19
2
17
58
14
56
55
28
27
53
35
46
11
50
57
24
16
34
40
41
37
13
20
31
18
33
6
3
15
8
21
22
26
45
5

> <PUBCHEM_MMFF94_PARTIAL_CHARGES>
36
1 -0.65
10 0.06
11 -0.14
13 0.66
14 0.57
15 -0.15
16 -0.15
17 0.06
19 -0.15
2 -0.57
20 -0.15
21 0.06
23 -0.15
24 -0.15
25 0.66
26 -0.15
27 -0.15
28 -0.15
3 -0.57
35 0.37
39 0.15
4 -0.65
40 0.15
43 0.15
44 0.15
47 0.5
48 0.15
49 0.15
5 -0.57
50 0.15
51 0.15
52 0.15
53 0.5
6 -0.73
7 0.3
9 0.14

> <PUBCHEM_EFFECTIVE_ROTOR_COUNT>
11

> <PUBCHEM_PHARMACOPHORE_FEATURES>
11
1 1 acceptor
1 12 hydrophobe
1 2 acceptor
1 3 acceptor
1 4 acceptor
1 5 acceptor
1 6 donor
3 1 2 13 anion
3 4 5 25 anion
6 11 15 16 18 19 20 rings
6 22 23 24 26 27 28 rings

> <PUBCHEM_HEAVY_ATOM_COUNT>
28

> <PUBCHEM_ATOM_DEF_STEREO_COUNT>
2

> <PUBCHEM_ATOM_UDEF_STEREO_COUNT>
0

> <PUBCHEM_BOND_DEF_STEREO_COUNT>
0

> <PUBCHEM_BOND_UDEF_STEREO_COUNT>
0

> <PUBCHEM_ISOTOPIC_ATOM_COUNT>
0

> <PUBCHEM_COMPONENT_COUNT>
1

> <PUBCHEM_CACTVS_TAUTO_COUNT>
2

> <PUBCHEM_CONFORMER_ID>
009F265800000001

> <PUBCHEM_MMFF94_ENERGY>
61.0204

> <PUBCHEM_FEATURE_SELFOVERLAP>
55.939

> <PUBCHEM_SHAPE_FINGERPRINT>
10369192 42 14852186004699763736
105312 117 18188770535599807037
107951 10 18341333288702232519
11796584 16 18412826881136715762
11809386 21 18261387901516038418
11991303 11 18259989262537740975
12549972 3 17702932759865120569
12596602 18 13038891210965023230
12643181 29 18339364072578775782
12977781 61 16484123042354437731
13540713 4 18057594559389506008
13690498 29 18190470535073929622
14251757 5 18410572889940071938
14856354 85 16588606260950776849
15183329 4 18337383838592950812
15773216 30 17978787918852759951
16090146 7 18198080109036866689
16993438 75 18201717387811664023
19958102 18 18337665321874311524
22393880 68 18334288799581640032
22849339 104 18411991255676863759
23379529 103 18126294275081463066
23466295 7 18339648965795306499
23516275 137 16342598148996706743
23559900 14 18201714072861737544
25019877 29 14780134981872837137
3383291 50 18342177765361850299
340366 18 18333740121398894228
4015057 19 17489292105923231568
4058900 60 18050291367077073121
4073 2 18343022203688229528
44062 13 18409735096745640530
44802255 64 18041280958911582534
484985 159 18200891628988358795
508706 21 18412259575274618822
513202 73 18190758616206409451
58260988 521 18262540125778098089
59755656 520 18339924818744410813
6009941 240 18413670202186354038

> <PUBCHEM_SHAPE_MULTIPOLES>
541.9
14.68
5.38
1.62
21.25
11.17
0.48
-2.12
5.46
-11.35
-0.38
-0.69
-0.4
2.05

> <PUBCHEM_SHAPE_SELFOVERLAP>
1130.379

> <PUBCHEM_SHAPE_VOLUME>
306.6

> <PUBCHEM_COORDINATE_TYPE>
2
5
10

$$$$
