10430346
  -OEChem-03292013303D

 52 53  0     1  0  0  0  0  0999 V2000
    1.3792   -0.9169   -1.6251 O   0  0  0  0  0  0  0  0  0  0  0  0
    1.6277    1.8511    0.9444 O   0  0  0  0  0  0  0  0  0  0  0  0
    6.6181    0.4197   -0.9169 O   0  0  0  0  0  0  0  0  0  0  0  0
    5.9640    3.0966   -0.5594 O   0  0  0  0  0  0  0  0  0  0  0  0
   -2.6122    0.5777   -0.1382 O   0  0  0  0  0  0  0  0  0  0  0  0
   -6.6202    3.2853    0.6973 O   0  0  0  0  0  0  0  0  0  0  0  0
   -7.6263    1.2909    0.2350 O   0  0  0  0  0  0  0  0  0  0  0  0
    0.3501   -2.5027   -0.0589 C   0  0  2  0  0  0  0  0  0  0  0  0
    0.6862   -3.2867    1.2230 C   0  0  0  0  0  0  0  0  0  0  0  0
    1.0429   -2.3509    2.3740 C   0  0  0  0  0  0  0  0  0  0  0  0
    2.2528   -1.4866    2.0159 C   0  0  0  0  0  0  0  0  0  0  0  0
    2.2105   -0.9347    0.6090 C   0  0  0  0  0  0  0  0  0  0  0  0
    1.3545   -1.3985   -0.3257 C   0  0  0  0  0  0  0  0  0  0  0  0
   -1.0492   -1.9527   -0.0006 C   0  0  0  0  0  0  0  0  0  0  0  0
    3.1859    0.1361    0.3079 C   0  0  0  0  0  0  0  0  0  0  0  0
   -2.0911   -2.2475   -0.8022 C   0  0  0  0  0  0  0  0  0  0  0  0
    2.8571    1.4796    0.4862 C   0  0  0  0  0  0  0  0  0  0  0  0
    4.4505   -0.2163   -0.1630 C   0  0  0  0  0  0  0  0  0  0  0  0
   -2.0492   -3.1699   -1.9883 C   0  0  0  0  0  0  0  0  0  0  0  0
    5.3867    0.7754   -0.4558 C   0  0  0  0  0  0  0  0  0  0  0  0
    3.7933    2.4714    0.1934 C   0  0  0  0  0  0  0  0  0  0  0  0
   -3.3904   -1.6139   -0.6041 C   0  0  0  0  0  0  0  0  0  0  0  0
    5.0580    2.1192   -0.2776 C   0  0  0  0  0  0  0  0  0  0  0  0
   -3.6495   -0.3313   -0.2838 C   0  0  0  0  0  0  0  0  0  0  0  0
   -4.9759    0.2390   -0.1001 C   0  0  0  0  0  0  0  0  0  0  0  0
   -5.2269    1.5177    0.2191 C   0  0  0  0  0  0  0  0  0  0  0  0
   -2.3026    1.1777   -1.3781 C   0  0  0  0  0  0  0  0  0  0  0  0
   -6.6239    1.9714    0.3724 C   0  0  0  0  0  0  0  0  0  0  0  0
    0.4428   -3.2287   -0.8732 H   0  0  0  0  0  0  0  0  0  0  0  0
   -0.1523   -3.9314    1.5143 H   0  0  0  0  0  0  0  0  0  0  0  0
    1.5378   -3.9530    1.0292 H   0  0  0  0  0  0  0  0  0  0  0  0
    0.1898   -1.7104    2.6266 H   0  0  0  0  0  0  0  0  0  0  0  0
    1.2683   -2.9366    3.2728 H   0  0  0  0  0  0  0  0  0  0  0  0
    2.3200   -0.6694    2.7446 H   0  0  0  0  0  0  0  0  0  0  0  0
    3.1653   -2.0869    2.1258 H   0  0  0  0  0  0  0  0  0  0  0  0
   -1.2158   -1.2636    0.8270 H   0  0  0  0  0  0  0  0  0  0  0  0
    0.7012   -1.3915   -2.1355 H   0  0  0  0  0  0  0  0  0  0  0  0
    4.7093   -1.2639   -0.3031 H   0  0  0  0  0  0  0  0  0  0  0  0
   -2.4608   -2.6732   -2.8748 H   0  0  0  0  0  0  0  0  0  0  0  0
   -1.0422   -3.4947   -2.2568 H   0  0  0  0  0  0  0  0  0  0  0  0
   -2.6453   -4.0679   -1.7915 H   0  0  0  0  0  0  0  0  0  0  0  0
    3.5451    3.5212    0.3295 H   0  0  0  0  0  0  0  0  0  0  0  0
   -4.2356   -2.2879   -0.7449 H   0  0  0  0  0  0  0  0  0  0  0  0
    1.5879    2.8212    1.0006 H   0  0  0  0  0  0  0  0  0  0  0  0
    6.6663   -0.5499   -0.9776 H   0  0  0  0  0  0  0  0  0  0  0  0
    6.7825    2.6739   -0.8727 H   0  0  0  0  0  0  0  0  0  0  0  0
   -5.8030   -0.4534   -0.2443 H   0  0  0  0  0  0  0  0  0  0  0  0
   -4.4408    2.2473    0.3806 H   0  0  0  0  0  0  0  0  0  0  0  0
   -1.9271    0.4443   -2.1001 H   0  0  0  0  0  0  0  0  0  0  0  0
   -3.1565    1.7132   -1.8069 H   0  0  0  0  0  0  0  0  0  0  0  0
   -1.5057    1.9086   -1.2086 H   0  0  0  0  0  0  0  0  0  0  0  0
   -7.5285    3.6380    0.8120 H   0  0  0  0  0  0  0  0  0  0  0  0
  1 13  1  0  0  0  0
  1 37  1  0  0  0  0
  2 17  1  0  0  0  0
  2 44  1  0  0  0  0
  3 20  1  0  0  0  0
  3 45  1  0  0  0  0
  4 23  1  0  0  0  0
  4 46  1  0  0  0  0
  5 24  1  0  0  0  0
  5 27  1  0  0  0  0
  6 28  1  0  0  0  0
  6 52  1  0  0  0  0
  7 28  2  0  0  0  0
  8  9  1  0  0  0  0
  8 13  1  0  0  0  0
  8 14  1  0  0  0  0
  8 29  1  0  0  0  0
  9 10  1  0  0  0  0
  9 30  1  0  0  0  0
  9 31  1  0  0  0  0
 10 11  1  0  0  0  0
 10 32  1  0  0  0  0
 10 33  1  0  0  0  0
 11 12  1  0  0  0  0
 11 34  1  0  0  0  0
 11 35  1  0  0  0  0
 12 13  2  0  0  0  0
 12 15  1  0  0  0  0
 14 16  2  0  0  0  0
 14 36  1  0  0  0  0
 15 17  1  0  0  0  0
 15 18  2  0  0  0  0
 16 19  1  0  0  0  0
 16 22  1  0  0  0  0
 17 21  2  0  0  0  0
 18 20  1  0  0  0  0
 18 38  1  0  0  0  0
 19 39  1  0  0  0  0
 19 40  1  0  0  0  0
 19 41  1  0  0  0  0
 20 23  2  0  0  0  0
 21 23  1  0  0  0  0
 21 42  1  0  0  0  0
 22 24  2  0  0  0  0
 22 43  1  0  0  0  0
 24 25  1  0  0  0  0
 25 26  2  0  0  0  0
 25 47  1  0  0  0  0
 26 28  1  0  0  0  0
 26 48  1  0  0  0  0
 27 49  1  0  0  0  0
 27 50  1  0  0  0  0
 27 51  1  0  0  0  0
M  END
> <PUBCHEM_COMPOUND_CID>
10430346

> <PUBCHEM_CONFORMER_RMSD>
0.8

> <PUBCHEM_CONFORMER_DIVERSEORDER>
7
92
103
42
16
54
94
102
11
91
41
74
46
99
8
82
1
36
70
80
77
93
15
25
98
97
101
3
55
45
23
52
53
43
67
95
78
34
64
57
20
104
27
90
51
2
21
66
63
40
72
87
75
18
39
49
68
58
47
71
9
86
89
12
35
76
44
30
100
84
59
48
61
13
69
73
96
60
79
19
22
5
28
4
65
88
33
10
37
38
17
24
83
32
14
56
6
81
85
50
29
31
26
62

> <PUBCHEM_MMFF94_PARTIAL_CHARGES>
37
1 -0.53
11 0.14
12 -0.17
13 -0.06
14 -0.29
15 0.03
16 -0.14
17 0.08
18 -0.15
19 0.14
2 -0.53
20 0.08
21 -0.15
22 -0.15
23 0.08
24 0.08
25 -0.15
26 -0.14
27 0.28
28 0.71
3 -0.53
36 0.15
37 0.45
38 0.15
4 -0.53
42 0.15
43 0.15
44 0.45
45 0.45
46 0.45
47 0.15
48 0.15
5 -0.36
52 0.5
6 -0.65
7 -0.57
8 0.28

> <PUBCHEM_EFFECTIVE_ROTOR_COUNT>
6.8

> <PUBCHEM_PHARMACOPHORE_FEATURES>
11
1 1 donor
1 19 hydrophobe
1 2 donor
1 3 donor
1 4 donor
1 5 acceptor
1 6 acceptor
1 7 acceptor
3 6 7 28 anion
6 15 17 18 20 21 23 rings
6 8 9 10 11 12 13 rings

> <PUBCHEM_HEAVY_ATOM_COUNT>
28

> <PUBCHEM_ATOM_DEF_STEREO_COUNT>
0

> <PUBCHEM_ATOM_UDEF_STEREO_COUNT>
1

> <PUBCHEM_BOND_DEF_STEREO_COUNT>
3

> <PUBCHEM_BOND_UDEF_STEREO_COUNT>
0

> <PUBCHEM_ISOTOPIC_ATOM_COUNT>
0

> <PUBCHEM_COMPONENT_COUNT>
1

> <PUBCHEM_CACTVS_TAUTO_COUNT>
302

> <PUBCHEM_CONFORMER_ID>
009F278A00000007

> <PUBCHEM_MMFF94_ENERGY>
73.1036

> <PUBCHEM_FEATURE_SELFOVERLAP>
55.881

> <PUBCHEM_SHAPE_FINGERPRINT>
10483366 6 18057056713863048414
10674148 151 18413673505153426060
11273773 38 18411420635065423517
11720765 8 17631455566918623438
1200032 147 18340498763819138251
12107183 9 18339633431015232466
12623949 98 11458688488362263808
12788726 201 17702946916526091281
12895836 83 18201435900445312323
12895837 130 18267590284787949709
13885169 86 18336272326853098861
13944108 23 18054512400637533641
14251764 75 18409730673040439753
14257110 125 18412826876593646477
14840074 17 17967531294120553013
15238133 3 18130209485146874482
19438510 23 18334579048923153771
21033648 29 18263360446766397088
21756936 100 18261672696291491370
221357 26 17983854759663256550
23559900 14 17774154596391564183
23569914 152 17914359913320204228
23845131 108 18113337509911560243
25223398 141 16414616302545075855
2838139 119 18272930569803529892
3411729 13 18337393734619197553
3472631 163 18342458140758179487
38570 142 18334863813744897498
4169191 19 18267866091679785069
469060 322 16733816627233308727
5104073 3 17894623777267573066
5252454 2 18337657672875381461
57035037 87 17346303918151342138
57527295 17 18264767835157720754
57724786 102 18338511916264425319
633830 44 18262229036569753878
636775 72 17979069720021034560
7288768 16 17894910771635922515
7808743 9 18342171185419224311

> <PUBCHEM_SHAPE_MULTIPOLES>
535.14
15.75
4.02
1.48
13.13
0.26
0.27
-18.84
-0.58
1.04
0.36
-0.29
1.2
-2.46

> <PUBCHEM_SHAPE_SELFOVERLAP>
1126.942

> <PUBCHEM_SHAPE_VOLUME>
298.6

> <PUBCHEM_COORDINATE_TYPE>
2
5
10

$$$$
