10431604
  -OEChem-03292013303D

 44 45  0     0  0  0  0  0  0999 V2000
   -0.8428   -2.9426    0.1392 S   0  0  0  0  0  0  0  0  0  0  0  0
    0.1117   -1.9312   -1.3818 S   0  0  0  0  0  0  0  0  0  0  0  0
    0.2418   -1.4104    2.5040 S   0  0  0  0  0  0  0  0  0  0  0  0
    2.4661   -3.7799   -0.9884 S   0  0  0  0  0  0  0  0  0  0  0  0
   -5.3818    2.6000   -0.5086 O   0  0  0  0  0  0  0  0  0  0  0  0
    4.5316    3.2432    1.0623 O   0  0  0  0  0  0  0  0  0  0  0  0
   -4.4927    1.2901   -2.1486 O   0  0  0  0  0  0  0  0  0  0  0  0
    2.4056    3.0443    0.2642 O   0  0  0  0  0  0  0  0  0  0  0  0
   -2.0815   -0.9639    1.2918 N   0  0  0  0  0  0  0  0  0  0  0  0
    2.5157   -1.1291   -0.7830 N   0  0  0  0  0  0  0  0  0  0  0  0
   -4.1119    0.7456    0.1762 C   0  0  0  0  0  0  0  0  0  0  0  0
    4.0498    1.3380   -0.2304 C   0  0  0  0  0  0  0  0  0  0  0  0
   -4.0056   -0.7315   -0.2205 C   0  0  0  0  0  0  0  0  0  0  0  0
   -2.7435    1.2977    0.5918 C   0  0  0  0  0  0  0  0  0  0  0  0
    3.8893    0.1925    0.7811 C   0  0  0  0  0  0  0  0  0  0  0  0
    3.3499    1.0597   -1.5703 C   0  0  0  0  0  0  0  0  0  0  0  0
   -3.3492   -1.5559    0.8831 C   0  0  0  0  0  0  0  0  0  0  0  0
   -2.1088    0.4400    1.6827 C   0  0  0  0  0  0  0  0  0  0  0  0
    3.6814   -1.1514    0.0944 C   0  0  0  0  0  0  0  0  0  0  0  0
    2.1458    0.1379   -1.4057 C   0  0  0  0  0  0  0  0  0  0  0  0
   -4.6637    1.5453   -0.9657 C   0  0  0  0  0  0  0  0  0  0  0  0
    3.5454    2.6175    0.3743 C   0  0  0  0  0  0  0  0  0  0  0  0
   -0.9459   -1.7010    1.3708 C   0  0  0  0  0  0  0  0  0  0  0  0
    1.7932   -2.2548   -1.0128 C   0  0  0  0  0  0  0  0  0  0  0  0
   -4.8113    0.8175    1.0200 H   0  0  0  0  0  0  0  0  0  0  0  0
    5.1151    1.4796   -0.4581 H   0  0  0  0  0  0  0  0  0  0  0  0
   -5.0013   -1.1345   -0.4419 H   0  0  0  0  0  0  0  0  0  0  0  0
   -3.4135   -0.8348   -1.1394 H   0  0  0  0  0  0  0  0  0  0  0  0
   -2.0776    1.3258   -0.2812 H   0  0  0  0  0  0  0  0  0  0  0  0
   -2.8414    2.3318    0.9433 H   0  0  0  0  0  0  0  0  0  0  0  0
    4.7751    0.1479    1.4261 H   0  0  0  0  0  0  0  0  0  0  0  0
    3.0381    0.3904    1.4456 H   0  0  0  0  0  0  0  0  0  0  0  0
    3.0461    1.9889   -2.0666 H   0  0  0  0  0  0  0  0  0  0  0  0
    4.0687    0.5708   -2.2419 H   0  0  0  0  0  0  0  0  0  0  0  0
   -3.9928   -1.5316    1.7729 H   0  0  0  0  0  0  0  0  0  0  0  0
   -3.3003   -2.6090    0.6002 H   0  0  0  0  0  0  0  0  0  0  0  0
   -1.1116    0.8415    1.8819 H   0  0  0  0  0  0  0  0  0  0  0  0
   -2.6903    0.5127    2.6098 H   0  0  0  0  0  0  0  0  0  0  0  0
    4.5570   -1.3991   -0.5182 H   0  0  0  0  0  0  0  0  0  0  0  0
    3.5738   -1.9272    0.8601 H   0  0  0  0  0  0  0  0  0  0  0  0
    1.3902    0.6213   -0.7744 H   0  0  0  0  0  0  0  0  0  0  0  0
    1.7130   -0.0339   -2.3977 H   0  0  0  0  0  0  0  0  0  0  0  0
   -5.7506    3.1375   -1.2417 H   0  0  0  0  0  0  0  0  0  0  0  0
    4.2218    4.0824    1.4647 H   0  0  0  0  0  0  0  0  0  0  0  0
  1  2  1  0  0  0  0
  1 23  1  0  0  0  0
  2 24  1  0  0  0  0
  3 23  2  0  0  0  0
  4 24  2  0  0  0  0
  5 21  1  0  0  0  0
  5 43  1  0  0  0  0
  6 22  1  0  0  0  0
  6 44  1  0  0  0  0
  7 21  2  0  0  0  0
  8 22  2  0  0  0  0
  9 17  1  0  0  0  0
  9 18  1  0  0  0  0
  9 23  1  0  0  0  0
 10 19  1  0  0  0  0
 10 20  1  0  0  0  0
 10 24  1  0  0  0  0
 11 13  1  0  0  0  0
 11 14  1  0  0  0  0
 11 21  1  0  0  0  0
 11 25  1  0  0  0  0
 12 15  1  0  0  0  0
 12 16  1  0  0  0  0
 12 22  1  0  0  0  0
 12 26  1  0  0  0  0
 13 17  1  0  0  0  0
 13 27  1  0  0  0  0
 13 28  1  0  0  0  0
 14 18  1  0  0  0  0
 14 29  1  0  0  0  0
 14 30  1  0  0  0  0
 15 19  1  0  0  0  0
 15 31  1  0  0  0  0
 15 32  1  0  0  0  0
 16 20  1  0  0  0  0
 16 33  1  0  0  0  0
 16 34  1  0  0  0  0
 17 35  1  0  0  0  0
 17 36  1  0  0  0  0
 18 37  1  0  0  0  0
 18 38  1  0  0  0  0
 19 39  1  0  0  0  0
 19 40  1  0  0  0  0
 20 41  1  0  0  0  0
 20 42  1  0  0  0  0
M  END
> <PUBCHEM_COMPOUND_CID>
10431604

> <PUBCHEM_CONFORMER_RMSD>
1

> <PUBCHEM_CONFORMER_DIVERSEORDER>
1
116
27
127
37
32
13
82
123
65
40
24
80
3
112
113
126
78
39
7
16
84
115
62
12
20
73
5
44
29
79
88
118
61
54
11
75
103
120
100
47
60
125
41
63
49
90
110
46
122
101
109
35
107
21
121
98
8
15
18
38
25
93
67
42
9
117
114
86
50
106
89
22
91
33
55
59
119
68
108
23
83
6
58
64
96
43
104
71
48
56
76
45
92
53
36
14
30
72
17
99
102
87
69
95
4
51
85
66
19
74
94
10
70
52
97
124
2
34
31
81
77
28
26
111
105
57

> <PUBCHEM_MMFF94_PARTIAL_CHARGES>
22
1 -0.14
10 -0.66
11 0.06
12 0.06
17 0.3
18 0.3
19 0.3
2 -0.14
20 0.3
21 0.66
22 0.66
23 0.58
24 0.58
3 -0.38
4 -0.38
43 0.5
44 0.5
5 -0.65
6 -0.65
7 -0.57
8 -0.57
9 -0.66

> <PUBCHEM_EFFECTIVE_ROTOR_COUNT>
9.4

> <PUBCHEM_PHARMACOPHORE_FEATURES>
10
1 3 acceptor
1 4 acceptor
1 5 acceptor
1 6 acceptor
1 7 acceptor
1 8 acceptor
3 5 7 21 anion
3 6 8 22 anion
6 10 12 15 16 19 20 rings
6 9 11 13 14 17 18 rings

> <PUBCHEM_HEAVY_ATOM_COUNT>
24

> <PUBCHEM_ATOM_DEF_STEREO_COUNT>
0

> <PUBCHEM_ATOM_UDEF_STEREO_COUNT>
0

> <PUBCHEM_BOND_DEF_STEREO_COUNT>
0

> <PUBCHEM_BOND_UDEF_STEREO_COUNT>
0

> <PUBCHEM_ISOTOPIC_ATOM_COUNT>
0

> <PUBCHEM_COMPONENT_COUNT>
1

> <PUBCHEM_CACTVS_TAUTO_COUNT>
1

> <PUBCHEM_CONFORMER_ID>
009F2C7400000001

> <PUBCHEM_MMFF94_ENERGY>
55.8555

> <PUBCHEM_FEATURE_SELFOVERLAP>
50.862

> <PUBCHEM_SHAPE_FINGERPRINT>
10498660 4 17986687067393637322
11370993 70 18341335603578490738
11582403 64 18187354441737710803
11725454 13 18113897152349376483
12422481 6 15142056834688081752
12596602 18 14635449241503109317
12633257 1 16299782256352930322
12788726 201 15868616497729635467
13134695 92 18052554179118606590
13383661 66 14028038976165635457
13583140 156 18261967300846284050
14251757 17 18409452483713535505
14251764 3 18188199918966147613
14251764 38 18339925922255593817
14468879 13 18263935486620285427
14957384 54 18339356495955454058
15848702 68 18408882902583595586
17980427 23 17629207009283487834
192875 21 17985551052416981819
19930381 70 18342465841433963955
20621476 13 18411421674488869212
20715895 44 18266173933818159065
21095088 737 17845655996189913101
21388113 180 18339921631504592140
21475661 188 18259982665061415644
21860390 5 18338801087753997902
22393880 68 18270976729309734310
22749437 52 18339935877889331754
23227448 37 18198346362432980867
23559900 14 18268995293208254914
238 59 18130515153732125430
3187 122 17610358395070443923
328310 1195 18337384929424603261
469060 322 17548154666848153458
6328613 192 17894925044444697628
9981440 41 18268146642257008066

> <PUBCHEM_SHAPE_MULTIPOLES>
475.87
10.37
4.15
1.91
6.18
0.03
0.35
-8.78
-2.23
-3.19
-0.36
0.49
0.32
2.29

> <PUBCHEM_SHAPE_SELFOVERLAP>
926.649

> <PUBCHEM_SHAPE_VOLUME>
288.1

> <PUBCHEM_COORDINATE_TYPE>
2
5
10

$$$$
