10432334
  -OEChem-03292013303D

 55 56  0     1  0  0  0  0  0999 V2000
   -2.3662   -4.1182   -0.3018 S   0  0  0  0  0  0  0  0  0  0  0  0
    8.8061   -0.9871    0.1112 S   0  0  0  0  0  0  0  0  0  0  0  0
   -6.1254   -1.0579   -0.1503 O   0  0  0  0  0  0  0  0  0  0  0  0
   -2.2043    1.4367   -2.2162 O   0  0  0  0  0  0  0  0  0  0  0  0
   -4.9855    0.1340    1.4500 O   0  0  0  0  0  0  0  0  0  0  0  0
   -2.8426    0.5392   -0.1751 N   0  0  0  0  0  0  0  0  0  0  0  0
    4.2001    0.0547    0.3378 N   0  0  0  0  0  0  0  0  0  0  0  0
    6.3576   -2.9079   -0.2060 N   0  0  0  0  0  0  0  0  0  0  0  0
   -3.9178   -0.2786   -0.6786 C   0  0  1  0  0  0  0  0  0  0  0  0
    0.2967    1.5702   -0.1782 C   0  0  0  0  0  0  0  0  0  0  0  0
    1.2796    2.3544    0.4712 C   0  0  0  0  0  0  0  0  0  0  0  0
   -3.4271   -1.6855   -1.0451 C   0  0  0  0  0  0  0  0  0  0  0  0
   -0.9793    2.1022   -0.3308 C   0  0  0  0  0  0  0  0  0  0  0  0
    4.5964   -1.2414   -0.1188 C   0  0  0  0  0  0  0  0  0  0  0  0
    6.0481   -1.5539    0.2774 C   0  0  2  0  0  0  0  0  0  0  0  0
    2.8953    0.5616    0.1654 C   0  0  0  0  0  0  0  0  0  0  0  0
    2.5743    1.8356    0.6351 C   0  0  0  0  0  0  0  0  0  0  0  0
   -2.0650    1.3401   -0.9997 C   0  0  0  0  0  0  0  0  0  0  0  0
    0.6374    0.2901   -0.6447 C   0  0  0  0  0  0  0  0  0  0  0  0
    1.9287   -0.2096   -0.4732 C   0  0  0  0  0  0  0  0  0  0  0  0
   -2.9385   -2.4620    0.1779 C   0  0  0  0  0  0  0  0  0  0  0  0
    0.9388    3.6346    0.9376 C   0  0  0  0  0  0  0  0  0  0  0  0
   -1.3190    3.3631    0.1275 C   0  0  0  0  0  0  0  0  0  0  0  0
    7.0868   -0.6010   -0.3405 C   0  0  0  0  0  0  0  0  0  0  0  0
   -0.3524    4.1343    0.7662 C   0  0  0  0  0  0  0  0  0  0  0  0
   -5.0543   -0.3672    0.3321 C   0  0  0  0  0  0  0  0  0  0  0  0
   -1.8320   -4.6920    1.3266 C   0  0  0  0  0  0  0  0  0  0  0  0
   -7.2364   -1.1882    0.7429 C   0  0  0  0  0  0  0  0  0  0  0  0
   -4.3222    0.2097   -1.5736 H   0  0  0  0  0  0  0  0  0  0  0  0
   -4.2406   -2.2390   -1.5318 H   0  0  0  0  0  0  0  0  0  0  0  0
   -2.6153   -1.6010   -1.7795 H   0  0  0  0  0  0  0  0  0  0  0  0
    3.9450   -2.0069    0.3231 H   0  0  0  0  0  0  0  0  0  0  0  0
    4.4952   -1.2996   -1.2106 H   0  0  0  0  0  0  0  0  0  0  0  0
    6.1388   -1.5358    1.3706 H   0  0  0  0  0  0  0  0  0  0  0  0
    3.3373    2.4318    1.1334 H   0  0  0  0  0  0  0  0  0  0  0  0
   -2.6404    0.5133    0.8206 H   0  0  0  0  0  0  0  0  0  0  0  0
    4.8531    0.6308    0.8568 H   0  0  0  0  0  0  0  0  0  0  0  0
   -0.0873   -0.3443   -1.1495 H   0  0  0  0  0  0  0  0  0  0  0  0
    2.1353   -1.2044   -0.8563 H   0  0  0  0  0  0  0  0  0  0  0  0
   -2.1062   -1.9366    0.6569 H   0  0  0  0  0  0  0  0  0  0  0  0
   -3.7411   -2.5837    0.9114 H   0  0  0  0  0  0  0  0  0  0  0  0
    1.6782    4.2551    1.4398 H   0  0  0  0  0  0  0  0  0  0  0  0
   -2.3216    3.7615   -0.0008 H   0  0  0  0  0  0  0  0  0  0  0  0
    6.8979    0.4269   -0.0153 H   0  0  0  0  0  0  0  0  0  0  0  0
    7.0164   -0.6088   -1.4345 H   0  0  0  0  0  0  0  0  0  0  0  0
   -0.6029    5.1259    1.1317 H   0  0  0  0  0  0  0  0  0  0  0  0
    5.6830   -3.5706    0.1743 H   0  0  0  0  0  0  0  0  0  0  0  0
    6.2525   -2.9472   -1.2194 H   0  0  0  0  0  0  0  0  0  0  0  0
    8.6562   -0.8305    1.4347 H   0  0  0  0  0  0  0  0  0  0  0  0
   -2.6738   -4.6989    2.0238 H   0  0  0  0  0  0  0  0  0  0  0  0
   -1.4446   -5.7106    1.2403 H   0  0  0  0  0  0  0  0  0  0  0  0
   -1.0367   -4.0504    1.7151 H   0  0  0  0  0  0  0  0  0  0  0  0
   -7.6319   -0.2015    1.0020 H   0  0  0  0  0  0  0  0  0  0  0  0
   -6.9362   -1.7340    1.6425 H   0  0  0  0  0  0  0  0  0  0  0  0
   -8.0180   -1.7568    0.2321 H   0  0  0  0  0  0  0  0  0  0  0  0
  1 21  1  0  0  0  0
  1 27  1  0  0  0  0
  2 24  1  0  0  0  0
  2 49  1  0  0  0  0
  3 26  1  0  0  0  0
  3 28  1  0  0  0  0
  4 18  2  0  0  0  0
  5 26  2  0  0  0  0
  6  9  1  0  0  0  0
  6 18  1  0  0  0  0
  6 36  1  0  0  0  0
  7 14  1  0  0  0  0
  7 16  1  0  0  0  0
  7 37  1  0  0  0  0
  8 15  1  0  0  0  0
  8 47  1  0  0  0  0
  8 48  1  0  0  0  0
  9 12  1  0  0  0  0
  9 26  1  0  0  0  0
  9 29  1  0  0  0  0
 10 11  2  0  0  0  0
 10 13  1  0  0  0  0
 10 19  1  0  0  0  0
 11 17  1  0  0  0  0
 11 22  1  0  0  0  0
 12 21  1  0  0  0  0
 12 30  1  0  0  0  0
 12 31  1  0  0  0  0
 13 18  1  0  0  0  0
 13 23  2  0  0  0  0
 14 15  1  0  0  0  0
 14 32  1  0  0  0  0
 14 33  1  0  0  0  0
 15 24  1  0  0  0  0
 15 34  1  0  0  0  0
 16 17  2  0  0  0  0
 16 20  1  0  0  0  0
 17 35  1  0  0  0  0
 19 20  2  0  0  0  0
 19 38  1  0  0  0  0
 20 39  1  0  0  0  0
 21 40  1  0  0  0  0
 21 41  1  0  0  0  0
 22 25  2  0  0  0  0
 22 42  1  0  0  0  0
 23 25  1  0  0  0  0
 23 43  1  0  0  0  0
 24 44  1  0  0  0  0
 24 45  1  0  0  0  0
 25 46  1  0  0  0  0
 27 50  1  0  0  0  0
 27 51  1  0  0  0  0
 27 52  1  0  0  0  0
 28 53  1  0  0  0  0
 28 54  1  0  0  0  0
 28 55  1  0  0  0  0
M  END
> <PUBCHEM_COMPOUND_CID>
10432334

> <PUBCHEM_CONFORMER_RMSD>
1.2

> <PUBCHEM_CONFORMER_DIVERSEORDER>
1
96
44
175
176
105
142
109
99
8
32
67
139
132
153
56
183
125
144
137
47
19
152
7
169
117
80
124
25
91
88
30
35
53
145
178
159
126
83
4
89
164
120
3
42
156
123
138
100
146
2
113
166
77
103
79
49
70
13
122
51
9
110
92
71
181
16
85
69
10
165
17
160
61
173
133
55
162
33
24
12
95
154
127
18
108
58
111
141
73
76
65
158
14
64
52
106
157
147
20
46
174
135
34
118
143
171
129
37
102
140
177
94
29
45
134
39
114
116
93
179
63
112
75
115
119
62
27
121
23
43
167
54
172
161
130
87
151
136
28
48
6
97
38
78
68
74
11
31
170
182
131
26
59
184
104
5
128
22
21
41
40
82
98
15
180
150
107
66
60
90
101
148
163
57
81
36
168
86
155
149
50
84
72

> <PUBCHEM_MMFF94_PARTIAL_CHARGES>
36
1 -0.46
13 0.09
14 0.37
15 0.27
16 0.1
17 -0.15
18 0.54
19 -0.15
2 -0.41
20 -0.15
21 0.23
22 -0.15
23 -0.15
24 0.23
25 -0.15
26 0.66
27 0.23
28 0.28
3 -0.43
35 0.15
36 0.37
37 0.4
38 0.15
39 0.15
4 -0.57
42 0.15
43 0.15
46 0.15
47 0.36
48 0.36
49 0.18
5 -0.57
6 -0.73
7 -0.87
8 -0.99
9 0.36

> <PUBCHEM_EFFECTIVE_ROTOR_COUNT>
12

> <PUBCHEM_PHARMACOPHORE_FEATURES>
10
1 27 hydrophobe
1 4 acceptor
1 5 acceptor
1 6 donor
1 7 cation
1 7 donor
1 8 cation
1 8 donor
6 10 11 13 22 23 25 rings
6 10 11 16 17 19 20 rings

> <PUBCHEM_HEAVY_ATOM_COUNT>
28

> <PUBCHEM_ATOM_DEF_STEREO_COUNT>
2

> <PUBCHEM_ATOM_UDEF_STEREO_COUNT>
0

> <PUBCHEM_BOND_DEF_STEREO_COUNT>
0

> <PUBCHEM_BOND_UDEF_STEREO_COUNT>
0

> <PUBCHEM_ISOTOPIC_ATOM_COUNT>
0

> <PUBCHEM_COMPONENT_COUNT>
1

> <PUBCHEM_CACTVS_TAUTO_COUNT>
2

> <PUBCHEM_CONFORMER_ID>
009F2F4E00000001

> <PUBCHEM_MMFF94_ENERGY>
79.9198

> <PUBCHEM_FEATURE_SELFOVERLAP>
50.771

> <PUBCHEM_SHAPE_FINGERPRINT>
10462674 296 17768798016877010662
11756154 5 18409725171334857890
11756154 67 18335142046354024863
12107183 9 18272942600872531297
12553582 1 18338781373732412827
12633257 1 18342178920829047071
12760667 363 18412542098154180037
12788726 201 18335696079796746882
13402501 40 18411699880800932087
13631057 29 18335419020325750560
13673619 4 18259985981093160157
13690498 29 18186513285309138516
14251757 5 18334573538596787034
14394314 77 18339366245251836217
14420673 8 18408606989679463827
14866123 147 18270121193637129337
15042514 8 18270399369810028388
15064986 96 17559692800077293183
15475509 84 17703798028689161465
15927050 60 17693374443793329629
17492 89 17908139124905347431
17627616 140 18043520612722454154
18335252 98 18412826859931131702
18608769 82 18342731924192196362
19246450 95 18128554682510439057
19611394 137 18342731915665520162
21267235 1 18410294713556500772
23559900 14 18268702999155716985
2838139 119 9223227438628781786
3383291 50 18409166632355639011
463206 1 18335701684465538162
5372103 7 12175352323446285963
54039377 194 18334862710154495950
636775 8 18339931429348069230
6371380 46 18410570683171101981
9896288 288 18055921983112957513
999808 66 18041009444486602099

> <PUBCHEM_SHAPE_MULTIPOLES>
551.37
17.41
5.33
1.1
25.02
1.11
0.16
16.25
-1.52
-2.29
-1.67
-1.02
-0.06
0.93

> <PUBCHEM_SHAPE_SELFOVERLAP>
1117.079

> <PUBCHEM_SHAPE_VOLUME>
326

> <PUBCHEM_COORDINATE_TYPE>
2
5
10

$$$$
