10431325
  -OEChem-03292013303D

 57 60  0     1  0  0  0  0  0999 V2000
    0.4595    0.7200    2.4166 O   0  0  0  0  0  0  0  0  0  0  0  0
   -2.9633   -0.8162    0.6598 O   0  0  0  0  0  0  0  0  0  0  0  0
    0.6789   -2.8616    0.6862 O   0  0  0  0  0  0  0  0  0  0  0  0
    2.8810    1.8389   -0.7955 O   0  0  0  0  0  0  0  0  0  0  0  0
    2.3529    1.8946    2.1349 O   0  0  0  0  0  0  0  0  0  0  0  0
   -1.5609    2.9931    1.5827 O   0  0  0  0  0  0  0  0  0  0  0  0
   -4.0274   -2.7150   -0.1140 O   0  0  0  0  0  0  0  0  0  0  0  0
   -0.6243   -0.1277    0.3432 C   0  0  1  0  0  0  0  0  0  0  0  0
    0.7928   -0.5611   -0.2105 C   0  0  1  0  0  0  0  0  0  0  0  0
    1.9736    0.0542    0.6274 C   0  0  1  0  0  0  0  0  0  0  0  0
   -0.9439    1.3762   -0.1029 C   0  0  1  0  0  0  0  0  0  0  0  0
    1.0205   -2.0887   -0.4625 C   0  0  1  0  0  0  0  0  0  0  0  0
   -1.7893   -1.0587   -0.1247 C   0  0  2  0  0  0  0  0  0  0  0  0
    2.9506   -1.0196    1.1681 C   0  0  0  0  0  0  0  0  0  0  0  0
   -1.5114    1.5950   -1.5595 C   0  0  0  0  0  0  0  0  0  0  0  0
    3.5397   -1.6156   -0.1108 C   0  0  1  0  0  0  0  0  0  0  0  0
   -0.4814   -0.2291    1.8885 C   0  0  0  0  0  0  0  0  0  0  0  0
    2.4728   -2.4293   -0.8674 C   0  0  0  0  0  0  0  0  0  0  0  0
   -2.1618   -0.8794   -1.5957 C   0  0  0  0  0  0  0  0  0  0  0  0
   -2.5932    0.5523   -1.9028 C   0  0  0  0  0  0  0  0  0  0  0  0
    2.9183    0.6881   -0.3926 C   0  0  0  0  0  0  0  0  0  0  0  0
    1.6146    0.9838    1.7677 C   0  0  0  0  0  0  0  0  0  0  0  0
    3.8817   -0.3519   -0.8584 C   0  0  0  0  0  0  0  0  0  0  0  0
   -2.1352    3.0101   -1.7073 C   0  0  0  0  0  0  0  0  0  0  0  0
   -0.3945    1.5425   -2.6307 C   0  0  0  0  0  0  0  0  0  0  0  0
   -1.8728    2.0229    0.9002 C   0  0  0  0  0  0  0  0  0  0  0  0
    4.8709   -0.1215   -1.7217 C   0  0  0  0  0  0  0  0  0  0  0  0
   -4.0467   -1.5801    0.3426 C   0  0  0  0  0  0  0  0  0  0  0  0
   -5.3015   -0.8161    0.6393 C   0  0  0  0  0  0  0  0  0  0  0  0
    0.8715   -0.1442   -1.2139 H   0  0  0  0  0  0  0  0  0  0  0  0
   -0.0183    1.9628   -0.0380 H   0  0  0  0  0  0  0  0  0  0  0  0
    0.3627   -2.4289   -1.2694 H   0  0  0  0  0  0  0  0  0  0  0  0
   -1.5226   -2.1042    0.0508 H   0  0  0  0  0  0  0  0  0  0  0  0
    2.4712   -1.7580    1.8173 H   0  0  0  0  0  0  0  0  0  0  0  0
    3.7459   -0.5606    1.7751 H   0  0  0  0  0  0  0  0  0  0  0  0
    4.4311   -2.2189    0.0895 H   0  0  0  0  0  0  0  0  0  0  0  0
   -1.4293   -0.0258    2.3972 H   0  0  0  0  0  0  0  0  0  0  0  0
   -0.1806   -1.2254    2.2249 H   0  0  0  0  0  0  0  0  0  0  0  0
    2.5895   -2.2852   -1.9492 H   0  0  0  0  0  0  0  0  0  0  0  0
    2.6565   -3.4941   -0.6749 H   0  0  0  0  0  0  0  0  0  0  0  0
   -2.9668   -1.5484   -1.9139 H   0  0  0  0  0  0  0  0  0  0  0  0
   -1.3092   -1.1510   -2.2261 H   0  0  0  0  0  0  0  0  0  0  0  0
   -2.8546    0.6214   -2.9669 H   0  0  0  0  0  0  0  0  0  0  0  0
   -3.5158    0.7808   -1.3572 H   0  0  0  0  0  0  0  0  0  0  0  0
   -1.4119    3.7881   -1.4378 H   0  0  0  0  0  0  0  0  0  0  0  0
   -2.4552    3.1970   -2.7394 H   0  0  0  0  0  0  0  0  0  0  0  0
   -3.0252    3.1383   -1.0820 H   0  0  0  0  0  0  0  0  0  0  0  0
    0.4630    2.1580   -2.3389 H   0  0  0  0  0  0  0  0  0  0  0  0
   -0.0408    0.5322   -2.8400 H   0  0  0  0  0  0  0  0  0  0  0  0
   -0.7545    1.9272   -3.5931 H   0  0  0  0  0  0  0  0  0  0  0  0
   -2.8865    1.6002    0.9820 H   0  0  0  0  0  0  0  0  0  0  0  0
    0.7519   -3.8005    0.4443 H   0  0  0  0  0  0  0  0  0  0  0  0
    5.5569   -0.9144   -2.0000 H   0  0  0  0  0  0  0  0  0  0  0  0
    5.0198    0.8544   -2.1706 H   0  0  0  0  0  0  0  0  0  0  0  0
   -5.3670    0.0638   -0.0043 H   0  0  0  0  0  0  0  0  0  0  0  0
   -5.3171   -0.5236    1.6924 H   0  0  0  0  0  0  0  0  0  0  0  0
   -6.1679   -1.4554    0.4467 H   0  0  0  0  0  0  0  0  0  0  0  0
  1 17  1  0  0  0  0
  1 22  1  0  0  0  0
  2 13  1  0  0  0  0
  2 28  1  0  0  0  0
  3 12  1  0  0  0  0
  3 52  1  0  0  0  0
  4 21  2  0  0  0  0
  5 22  2  0  0  0  0
  6 26  2  0  0  0  0
  7 28  2  0  0  0  0
  8  9  1  0  0  0  0
  8 11  1  0  0  0  0
  8 13  1  0  0  0  0
  8 17  1  0  0  0  0
  9 10  1  0  0  0  0
  9 12  1  0  0  0  0
  9 30  1  0  0  0  0
 10 14  1  0  0  0  0
 10 21  1  0  0  0  0
 10 22  1  0  0  0  0
 11 15  1  0  0  0  0
 11 26  1  0  0  0  0
 11 31  1  0  0  0  0
 12 18  1  0  0  0  0
 12 32  1  0  0  0  0
 13 19  1  0  0  0  0
 13 33  1  0  0  0  0
 14 16  1  0  0  0  0
 14 34  1  0  0  0  0
 14 35  1  0  0  0  0
 15 20  1  0  0  0  0
 15 24  1  0  0  0  0
 15 25  1  0  0  0  0
 16 18  1  0  0  0  0
 16 23  1  0  0  0  0
 16 36  1  0  0  0  0
 17 37  1  0  0  0  0
 17 38  1  0  0  0  0
 18 39  1  0  0  0  0
 18 40  1  0  0  0  0
 19 20  1  0  0  0  0
 19 41  1  0  0  0  0
 19 42  1  0  0  0  0
 20 43  1  0  0  0  0
 20 44  1  0  0  0  0
 21 23  1  0  0  0  0
 23 27  2  0  0  0  0
 24 45  1  0  0  0  0
 24 46  1  0  0  0  0
 24 47  1  0  0  0  0
 25 48  1  0  0  0  0
 25 49  1  0  0  0  0
 25 50  1  0  0  0  0
 26 51  1  0  0  0  0
 27 53  1  0  0  0  0
 27 54  1  0  0  0  0
 28 29  1  0  0  0  0
 29 55  1  0  0  0  0
 29 56  1  0  0  0  0
 29 57  1  0  0  0  0
M  END
> <PUBCHEM_COMPOUND_CID>
10431325

> <PUBCHEM_CONFORMER_RMSD>
0.8

> <PUBCHEM_CONFORMER_DIVERSEORDER>
1
7
3
5
6
4
2

> <PUBCHEM_MMFF94_PARTIAL_CHARGES>
24
1 -0.43
10 0.12
11 0.06
12 0.28
13 0.28
16 0.14
17 0.28
2 -0.43
21 0.49
22 0.66
23 -0.12
26 0.45
27 -0.3
28 0.66
29 0.06
3 -0.68
4 -0.57
5 -0.57
51 0.06
52 0.4
53 0.15
54 0.15
6 -0.57
7 -0.57

> <PUBCHEM_EFFECTIVE_ROTOR_COUNT>
5

> <PUBCHEM_PHARMACOPHORE_FEATURES>
10
1 3 acceptor
1 3 donor
1 4 acceptor
1 5 acceptor
1 6 acceptor
1 7 acceptor
3 15 24 25 hydrophobe
6 1 8 9 10 17 22 rings
6 8 11 13 15 19 20 rings
8 9 10 12 14 16 18 21 23 rings

> <PUBCHEM_HEAVY_ATOM_COUNT>
29

> <PUBCHEM_ATOM_DEF_STEREO_COUNT>
7

> <PUBCHEM_ATOM_UDEF_STEREO_COUNT>
0

> <PUBCHEM_BOND_DEF_STEREO_COUNT>
0

> <PUBCHEM_BOND_UDEF_STEREO_COUNT>
0

> <PUBCHEM_ISOTOPIC_ATOM_COUNT>
0

> <PUBCHEM_COMPONENT_COUNT>
1

> <PUBCHEM_CACTVS_TAUTO_COUNT>
2

> <PUBCHEM_CONFORMER_ID>
009F2B5D00000001

> <PUBCHEM_MMFF94_ENERGY>
122.283

> <PUBCHEM_FEATURE_SELFOVERLAP>
50.774

> <PUBCHEM_SHAPE_FINGERPRINT>
10165383 225 18126569161498999544
10369192 42 17625527266188608824
10498660 4 17676201351545003084
10863032 1 18199196074752385520
11578080 2 18272639169263627441
12107698 1 17676204719226760844
12553582 1 17489584533124217950
12714826 92 17988646259321725320
12788726 201 17603862291600710245
13140716 1 18268983211802446032
13224815 77 18261664917793981591
14178342 30 18196646298877142826
14223421 5 18336541625417807143
14790565 3 17695624443747167401
14955137 171 18044397134548856555
15664445 248 17896319293054262485
16945 1 17988629801197171946
17349148 13 12685084908380123331
17357779 13 18336812170219643015
17492 54 17389951384692274582
1813 80 18041555962058392735
18981168 100 18191006937644460368
19930381 70 18266466596963772916
20600515 1 17824530001575748761
20691752 17 18192975235315101367
21330990 113 18272378555332904555
21731516 1 16343407454306032988
22182313 1 18199447970268509304
22907989 373 18334572404450705637
23352939 185 18041571324945602749
23557571 272 18040150721335878855
23559900 14 18413108385466216073
238 59 17984669338738665326
34934 24 15769209595405578184
350125 39 18410859854285874520

> <PUBCHEM_SHAPE_MULTIPOLES>
555.72
7.41
2.98
2.2
0.57
0.32
-0.29
-2.92
1.47
1.64
0.36
-0.19
1.3
0.67

> <PUBCHEM_SHAPE_SELFOVERLAP>
1202.215

> <PUBCHEM_SHAPE_VOLUME>
297.3

> <PUBCHEM_COORDINATE_TYPE>
2
5
10

$$$$
