10433270
  -OEChem-03292013303D

 55 56  0     1  0  0  0  0  0999 V2000
    4.4173    1.3089   -1.4577 S   0  0  0  0  0  0  0  0  0  0  0  0
    2.1628   -2.3020    1.6856 S   0  0  0  0  0  0  0  0  0  0  0  0
   -3.8856   -1.6757   -2.2503 O   0  0  0  0  0  0  0  0  0  0  0  0
   -4.8364   -0.2850    1.7090 O   0  0  0  0  0  0  0  0  0  0  0  0
    7.3134    0.7675   -1.2314 O   0  0  0  0  0  0  0  0  0  0  0  0
   -1.7308    2.7729    0.4475 O   0  0  0  0  0  0  0  0  0  0  0  0
   -3.6357    3.1985   -0.7859 O   0  0  0  0  0  0  0  0  0  0  0  0
    4.3506   -0.4993    0.3886 N   0  0  0  0  0  0  0  0  0  0  0  0
    0.7147   -1.0092   -0.0215 N   0  0  0  0  0  0  0  0  0  0  0  0
   -4.3583    0.1099   -0.6519 C   0  0  1  0  0  0  0  0  0  0  0  0
   -3.6404   -1.2397   -0.9152 C   0  0  2  0  0  0  0  0  0  0  0  0
   -5.8272    0.0425   -1.0908 C   0  0  0  0  0  0  0  0  0  0  0  0
   -4.2614    0.5750    0.7944 C   0  0  0  0  0  0  0  0  0  0  0  0
   -2.1640   -1.1741   -0.5891 C   0  0  0  0  0  0  0  0  0  0  0  0
    6.5992    0.4490   -0.0081 C   0  0  0  0  0  0  0  0  0  0  0  0
    5.1466    0.3250   -0.2557 C   0  0  0  0  0  0  0  0  0  0  0  0
   -1.5221   -1.9104    0.3351 C   0  0  0  0  0  0  0  0  0  0  0  0
    6.9829    1.5795    0.9868 C   0  0  0  0  0  0  0  0  0  0  0  0
    7.2360   -0.8776    0.4801 C   0  0  0  0  0  0  0  0  0  0  0  0
   -3.6621    1.7341    1.1229 C   0  0  0  0  0  0  0  0  0  0  0  0
   -0.1169   -1.8762    0.6601 C   0  0  0  0  0  0  0  0  0  0  0  0
    3.0660   -0.3497   -0.0966 C   0  0  0  0  0  0  0  0  0  0  0  0
    1.9393   -1.1474    0.4359 C   0  0  0  0  0  0  0  0  0  0  0  0
   -3.7842   -3.0874   -2.3603 C   0  0  0  0  0  0  0  0  0  0  0  0
    2.9052    0.5832   -1.0994 C   0  0  0  0  0  0  0  0  0  0  0  0
    0.4864   -2.6582    1.6227 C   0  0  0  0  0  0  0  0  0  0  0  0
   -3.0501    2.6543    0.1360 C   0  0  0  0  0  0  0  0  0  0  0  0
   -5.8747    0.3606    2.4192 C   0  0  0  0  0  0  0  0  0  0  0  0
   -0.9707    3.6308   -0.4100 C   0  0  0  0  0  0  0  0  0  0  0  0
   -3.8955    0.8318   -1.3340 H   0  0  0  0  0  0  0  0  0  0  0  0
   -4.1087   -1.9690   -0.2369 H   0  0  0  0  0  0  0  0  0  0  0  0
   -6.3668   -0.7567   -0.5707 H   0  0  0  0  0  0  0  0  0  0  0  0
   -5.9122   -0.1422   -2.1670 H   0  0  0  0  0  0  0  0  0  0  0  0
   -6.3413    0.9883   -0.8852 H   0  0  0  0  0  0  0  0  0  0  0  0
   -1.5932   -0.4631   -1.1844 H   0  0  0  0  0  0  0  0  0  0  0  0
   -2.1221   -2.6158    0.9080 H   0  0  0  0  0  0  0  0  0  0  0  0
    8.0686    1.6399    1.1226 H   0  0  0  0  0  0  0  0  0  0  0  0
    6.5147    1.4192    1.9638 H   0  0  0  0  0  0  0  0  0  0  0  0
    6.6578    2.5555    0.6083 H   0  0  0  0  0  0  0  0  0  0  0  0
    6.8158   -1.1942    1.4410 H   0  0  0  0  0  0  0  0  0  0  0  0
    7.0651   -1.6786   -0.2491 H   0  0  0  0  0  0  0  0  0  0  0  0
    8.3221   -0.7812    0.5920 H   0  0  0  0  0  0  0  0  0  0  0  0
   -3.5533    2.0245    2.1635 H   0  0  0  0  0  0  0  0  0  0  0  0
   -2.7806   -3.4365   -2.1008 H   0  0  0  0  0  0  0  0  0  0  0  0
   -4.5328   -3.5815   -1.7328 H   0  0  0  0  0  0  0  0  0  0  0  0
   -3.9801   -3.3608   -3.4009 H   0  0  0  0  0  0  0  0  0  0  0  0
    2.0082    0.8738   -1.6288 H   0  0  0  0  0  0  0  0  0  0  0  0
    8.2605    0.8387   -1.0218 H   0  0  0  0  0  0  0  0  0  0  0  0
    0.0448   -3.3992    2.2746 H   0  0  0  0  0  0  0  0  0  0  0  0
   -5.4762    1.0705    3.1515 H   0  0  0  0  0  0  0  0  0  0  0  0
   -6.5826    0.8620    1.7493 H   0  0  0  0  0  0  0  0  0  0  0  0
   -6.4286   -0.4039    2.9731 H   0  0  0  0  0  0  0  0  0  0  0  0
    0.0641    3.6331   -0.0575 H   0  0  0  0  0  0  0  0  0  0  0  0
   -1.3601    4.6523   -0.3653 H   0  0  0  0  0  0  0  0  0  0  0  0
   -0.9905    3.2532   -1.4368 H   0  0  0  0  0  0  0  0  0  0  0  0
  1 16  1  0  0  0  0
  1 25  1  0  0  0  0
  2 23  1  0  0  0  0
  2 26  1  0  0  0  0
  3 11  1  0  0  0  0
  3 24  1  0  0  0  0
  4 13  1  0  0  0  0
  4 28  1  0  0  0  0
  5 15  1  0  0  0  0
  5 48  1  0  0  0  0
  6 27  1  0  0  0  0
  6 29  1  0  0  0  0
  7 27  2  0  0  0  0
  8 16  2  0  0  0  0
  8 22  1  0  0  0  0
  9 21  1  0  0  0  0
  9 23  2  0  0  0  0
 10 11  1  0  0  0  0
 10 12  1  0  0  0  0
 10 13  1  0  0  0  0
 10 30  1  0  0  0  0
 11 14  1  0  0  0  0
 11 31  1  0  0  0  0
 12 32  1  0  0  0  0
 12 33  1  0  0  0  0
 12 34  1  0  0  0  0
 13 20  2  0  0  0  0
 14 17  2  0  0  0  0
 14 35  1  0  0  0  0
 15 16  1  0  0  0  0
 15 18  1  0  0  0  0
 15 19  1  0  0  0  0
 17 21  1  0  0  0  0
 17 36  1  0  0  0  0
 18 37  1  0  0  0  0
 18 38  1  0  0  0  0
 18 39  1  0  0  0  0
 19 40  1  0  0  0  0
 19 41  1  0  0  0  0
 19 42  1  0  0  0  0
 20 27  1  0  0  0  0
 20 43  1  0  0  0  0
 21 26  2  0  0  0  0
 22 23  1  0  0  0  0
 22 25  2  0  0  0  0
 24 44  1  0  0  0  0
 24 45  1  0  0  0  0
 24 46  1  0  0  0  0
 25 47  1  0  0  0  0
 26 49  1  0  0  0  0
 28 50  1  0  0  0  0
 28 51  1  0  0  0  0
 28 52  1  0  0  0  0
 29 53  1  0  0  0  0
 29 54  1  0  0  0  0
 29 55  1  0  0  0  0
M  END
> <PUBCHEM_COMPOUND_CID>
10433270

> <PUBCHEM_CONFORMER_RMSD>
1

> <PUBCHEM_CONFORMER_DIVERSEORDER>
1
82
57
111
66
103
115
17
22
89
119
70
77
14
19
69
100
15
73
87
31
12
101
30
86
61
121
83
109
25
43
110
38
18
84
94
40
67
71
26
37
52
45
54
50
81
64
21
55
49
106
3
68
65
90
117
16
85
48
20
56
120
63
59
88
28
32
74
8
10
80
46
44
24
91
72
105
6
58
36
95
104
96
79
102
78
53
7
35
98
47
23
39
33
4
116
62
51
76
60
9
108
29
41
13
92
27
99
114
11
118
34
112
113
75
5
107
2
93
42
97

> <PUBCHEM_MMFF94_PARTIAL_CHARGES>
32
1 -0.08
10 0.14
11 0.42
13 -0.06
14 -0.29
15 0.46
16 0.2
17 -0.1
2 -0.08
20 -0.14
21 0.18
22 0.23
23 0.38
24 0.28
25 -0.11
26 -0.11
27 0.71
28 0.28
29 0.28
3 -0.56
35 0.15
36 0.15
4 -0.36
43 0.15
47 0.15
48 0.4
49 0.15
5 -0.68
6 -0.43
7 -0.57
8 -0.57
9 -0.57

> <PUBCHEM_EFFECTIVE_ROTOR_COUNT>
10

> <PUBCHEM_PHARMACOPHORE_FEATURES>
11
1 12 hydrophobe
1 3 acceptor
1 4 acceptor
1 5 acceptor
1 5 donor
1 7 acceptor
1 8 acceptor
1 9 acceptor
3 15 18 19 hydrophobe
5 1 8 16 22 25 rings
5 2 9 21 23 26 rings

> <PUBCHEM_HEAVY_ATOM_COUNT>
29

> <PUBCHEM_ATOM_DEF_STEREO_COUNT>
2

> <PUBCHEM_ATOM_UDEF_STEREO_COUNT>
0

> <PUBCHEM_BOND_DEF_STEREO_COUNT>
2

> <PUBCHEM_BOND_UDEF_STEREO_COUNT>
0

> <PUBCHEM_ISOTOPIC_ATOM_COUNT>
0

> <PUBCHEM_COMPONENT_COUNT>
1

> <PUBCHEM_CACTVS_TAUTO_COUNT>
1

> <PUBCHEM_CONFORMER_ID>
009F32F600000001

> <PUBCHEM_MMFF94_ENERGY>
63.2338

> <PUBCHEM_FEATURE_SELFOVERLAP>
55.825

> <PUBCHEM_SHAPE_FINGERPRINT>
10 15 16515406296070273530
10087517 78 18412258458904627932
10670039 82 18411975854134948362
10871710 139 18338793425922478405
11479125 193 14420701504443237908
12596602 18 16950282905847158880
13947920 75 18131064948459240671
14394314 77 18410295766420405937
14840074 17 18341337717472780545
15183329 4 18272932713657303478
15274700 232 16680628461237088306
15575132 122 18339359652957143085
15876981 60 18341609386490399269
21033648 29 15719945822684845575
21756936 100 18410298020924353963
21864079 5 18262798433089530459
23198884 109 16988851561825526211
2838139 119 18410290320490642410
392239 28 18114764705952288913
4098825 35 17131563742941592094
6299153 45 18189329075180900218
6371009 1 18260261971618270828
6608658 132 18338785793053508695
7226269 152 18334015029739178828

> <PUBCHEM_SHAPE_MULTIPOLES>
565.2
17.99
3.53
1.89
23.58
1.55
-0.11
4.8
-0.05
-3.08
-0.21
-2.44
-0.97
-2.66

> <PUBCHEM_SHAPE_SELFOVERLAP>
1139.174

> <PUBCHEM_SHAPE_VOLUME>
337

> <PUBCHEM_COORDINATE_TYPE>
2
5
10

$$$$
