10431580
  -OEChem-03292013303D

 58 61  0     1  0  0  0  0  0999 V2000
    1.2606    0.5321    1.3330 F   0  0  0  0  0  0  0  0  0  0  0  0
   -3.1102    0.3643    1.9400 O   0  0  0  0  0  0  0  0  0  0  0  0
    0.1543    1.7873   -1.8447 O   0  0  0  0  0  0  0  0  0  0  0  0
    2.7229   -2.5361   -1.5606 O   0  0  0  0  0  0  0  0  0  0  0  0
   -5.4273   -0.2197   -0.2201 O   0  0  0  0  0  0  0  0  0  0  0  0
   -5.6963    2.5009    0.1358 O   0  0  0  0  0  0  0  0  0  0  0  0
    6.1764    0.7600    1.5195 O   0  0  0  0  0  0  0  0  0  0  0  0
   -1.9013    0.1187   -0.1792 C   0  0  1  0  0  0  0  0  0  0  0  0
   -0.9620   -0.9687    0.3859 C   0  0  2  0  0  0  0  0  0  0  0  0
    0.4288   -0.9785   -0.2693 C   0  0  1  0  0  0  0  0  0  0  0  0
    1.1180    0.4107   -0.0416 C   0  0  1  0  0  0  0  0  0  0  0  0
   -3.1985   -0.2018    0.6258 C   0  0  1  0  0  0  0  0  0  0  0  0
   -1.8152   -2.2316    0.3114 C   0  0  0  0  0  0  0  0  0  0  0  0
   -1.2433    1.4834    0.1132 C   0  0  0  0  0  0  0  0  0  0  0  0
   -3.2185   -1.7562    0.7690 C   0  0  2  0  0  0  0  0  0  0  0  0
    0.1948    1.6034   -0.4378 C   0  0  2  0  0  0  0  0  0  0  0  0
    2.5865    0.4431   -0.6242 C   0  0  1  0  0  0  0  0  0  0  0  0
    1.2808   -2.1211    0.3208 C   0  0  0  0  0  0  0  0  0  0  0  0
   -2.1713   -0.0329   -1.7009 C   0  0  0  0  0  0  0  0  0  0  0  0
    2.7163   -2.1244   -0.1972 C   0  0  2  0  0  0  0  0  0  0  0  0
    3.3469   -0.7591   -0.0398 C   0  0  0  0  0  0  0  0  0  0  0  0
   -4.4414    0.4471    0.0905 C   0  0  0  0  0  0  0  0  0  0  0  0
   -4.3158   -2.5029    0.0172 C   0  0  0  0  0  0  0  0  0  0  0  0
    2.6498    0.3739   -2.1677 C   0  0  0  0  0  0  0  0  0  0  0  0
    3.2642    1.7552   -0.2479 C   0  0  0  0  0  0  0  0  0  0  0  0
    4.4912   -0.6431    0.6545 C   0  0  0  0  0  0  0  0  0  0  0  0
   -4.4065    1.9548   -0.0425 C   0  0  0  0  0  0  0  0  0  0  0  0
    4.4035    1.8708    0.4407 C   0  0  0  0  0  0  0  0  0  0  0  0
    5.1126    0.6705    0.9160 C   0  0  0  0  0  0  0  0  0  0  0  0
   -0.8011   -0.7710    1.4585 H   0  0  0  0  0  0  0  0  0  0  0  0
    0.3293   -1.1727   -1.3405 H   0  0  0  0  0  0  0  0  0  0  0  0
   -1.8347   -2.6327   -0.7087 H   0  0  0  0  0  0  0  0  0  0  0  0
   -1.4396   -3.0211    0.9708 H   0  0  0  0  0  0  0  0  0  0  0  0
   -1.1965    1.6592    1.1946 H   0  0  0  0  0  0  0  0  0  0  0  0
   -1.8303    2.2968   -0.3222 H   0  0  0  0  0  0  0  0  0  0  0  0
   -3.3161   -2.0204    1.8311 H   0  0  0  0  0  0  0  0  0  0  0  0
    0.6033    2.5281   -0.0154 H   0  0  0  0  0  0  0  0  0  0  0  0
    0.8109   -3.0820    0.0782 H   0  0  0  0  0  0  0  0  0  0  0  0
    1.2955   -2.0378    1.4156 H   0  0  0  0  0  0  0  0  0  0  0  0
   -2.5484    0.8990   -2.1341 H   0  0  0  0  0  0  0  0  0  0  0  0
   -1.2988   -0.3300   -2.2809 H   0  0  0  0  0  0  0  0  0  0  0  0
   -2.9228   -0.7984   -1.9125 H   0  0  0  0  0  0  0  0  0  0  0  0
    3.2835   -2.8818    0.3573 H   0  0  0  0  0  0  0  0  0  0  0  0
   -4.3729   -2.2387   -1.0420 H   0  0  0  0  0  0  0  0  0  0  0  0
   -4.1112   -3.5804    0.0539 H   0  0  0  0  0  0  0  0  0  0  0  0
   -5.2924   -2.3787    0.4951 H   0  0  0  0  0  0  0  0  0  0  0  0
    2.4139    1.3336   -2.6412 H   0  0  0  0  0  0  0  0  0  0  0  0
    3.6616    0.1151   -2.5075 H   0  0  0  0  0  0  0  0  0  0  0  0
    1.9713   -0.3716   -2.5904 H   0  0  0  0  0  0  0  0  0  0  0  0
   -3.8594    0.0329    2.4646 H   0  0  0  0  0  0  0  0  0  0  0  0
    2.8016    2.6771   -0.5940 H   0  0  0  0  0  0  0  0  0  0  0  0
    0.1745    0.9238   -2.2816 H   0  0  0  0  0  0  0  0  0  0  0  0
    4.9980   -1.5088    1.0685 H   0  0  0  0  0  0  0  0  0  0  0  0
   -4.0554    2.2267   -1.0394 H   0  0  0  0  0  0  0  0  0  0  0  0
   -3.7678    2.4120    0.7149 H   0  0  0  0  0  0  0  0  0  0  0  0
    2.3246   -3.4221   -1.6046 H   0  0  0  0  0  0  0  0  0  0  0  0
    4.8374    2.8404    0.6551 H   0  0  0  0  0  0  0  0  0  0  0  0
   -5.9659    2.3235    1.0532 H   0  0  0  0  0  0  0  0  0  0  0  0
  1 11  1  0  0  0  0
  2 12  1  0  0  0  0
  2 50  1  0  0  0  0
  3 16  1  0  0  0  0
  3 52  1  0  0  0  0
  4 20  1  0  0  0  0
  4 56  1  0  0  0  0
  5 22  2  0  0  0  0
  6 27  1  0  0  0  0
  6 58  1  0  0  0  0
  7 29  2  0  0  0  0
  8  9  1  0  0  0  0
  8 12  1  0  0  0  0
  8 14  1  0  0  0  0
  8 19  1  0  0  0  0
  9 10  1  0  0  0  0
  9 13  1  0  0  0  0
  9 30  1  0  0  0  0
 10 11  1  0  0  0  0
 10 18  1  0  0  0  0
 10 31  1  0  0  0  0
 11 16  1  0  0  0  0
 11 17  1  0  0  0  0
 12 15  1  0  0  0  0
 12 22  1  0  0  0  0
 13 15  1  0  0  0  0
 13 32  1  0  0  0  0
 13 33  1  0  0  0  0
 14 16  1  0  0  0  0
 14 34  1  0  0  0  0
 14 35  1  0  0  0  0
 15 23  1  0  0  0  0
 15 36  1  0  0  0  0
 16 37  1  0  0  0  0
 17 21  1  0  0  0  0
 17 24  1  0  0  0  0
 17 25  1  0  0  0  0
 18 20  1  0  0  0  0
 18 38  1  0  0  0  0
 18 39  1  0  0  0  0
 19 40  1  0  0  0  0
 19 41  1  0  0  0  0
 19 42  1  0  0  0  0
 20 21  1  0  0  0  0
 20 43  1  0  0  0  0
 21 26  2  0  0  0  0
 22 27  1  0  0  0  0
 23 44  1  0  0  0  0
 23 45  1  0  0  0  0
 23 46  1  0  0  0  0
 24 47  1  0  0  0  0
 24 48  1  0  0  0  0
 24 49  1  0  0  0  0
 25 28  2  0  0  0  0
 25 51  1  0  0  0  0
 26 29  1  0  0  0  0
 26 53  1  0  0  0  0
 27 54  1  0  0  0  0
 27 55  1  0  0  0  0
 28 29  1  0  0  0  0
 28 57  1  0  0  0  0
M  END
> <PUBCHEM_COMPOUND_CID>
10431580

> <PUBCHEM_CONFORMER_RMSD>
0.8

> <PUBCHEM_CONFORMER_DIVERSEORDER>
1

> <PUBCHEM_MMFF94_PARTIAL_CHARGES>
26
1 -0.34
11 0.34
12 0.34
16 0.28
17 0.28
2 -0.68
20 0.42
21 -0.28
22 0.45
25 -0.29
26 -0.14
27 0.34
28 -0.14
29 0.54
3 -0.68
4 -0.68
5 -0.57
50 0.4
51 0.15
52 0.4
53 0.15
56 0.4
57 0.15
58 0.4
6 -0.68
7 -0.57

> <PUBCHEM_EFFECTIVE_ROTOR_COUNT>
3.4

> <PUBCHEM_PHARMACOPHORE_FEATURES>
14
1 2 acceptor
1 2 donor
1 3 acceptor
1 3 donor
1 4 acceptor
1 4 donor
1 5 acceptor
1 6 acceptor
1 6 donor
1 7 acceptor
5 8 9 12 13 15 rings
6 10 11 17 18 20 21 rings
6 17 21 25 26 28 29 rings
6 8 9 10 11 14 16 rings

> <PUBCHEM_HEAVY_ATOM_COUNT>
29

> <PUBCHEM_ATOM_DEF_STEREO_COUNT>
9

> <PUBCHEM_ATOM_UDEF_STEREO_COUNT>
0

> <PUBCHEM_BOND_DEF_STEREO_COUNT>
0

> <PUBCHEM_BOND_UDEF_STEREO_COUNT>
0

> <PUBCHEM_ISOTOPIC_ATOM_COUNT>
0

> <PUBCHEM_COMPONENT_COUNT>
1

> <PUBCHEM_CACTVS_TAUTO_COUNT>
3

> <PUBCHEM_CONFORMER_ID>
009F2C5C00000001

> <PUBCHEM_MMFF94_ENERGY>
109.1772

> <PUBCHEM_FEATURE_SELFOVERLAP>
71.153

> <PUBCHEM_SHAPE_FINGERPRINT>
10863032 1 18412554201693909775
10906281 52 17968392212025612380
1100329 8 16749864720593628393
11370993 70 18411982463868265762
11578080 2 17774144817024922457
11961588 58 14117503373138564576
12236239 1 17775281651601767983
12403259 118 18337665425344039912
12403260 363 18117273864005529495
12403814 3 17385439942908178503
12422481 6 18335414652185670578
12553582 1 18189919632376737949
12616971 3 16877665668748407981
12633257 1 16877942771511623738
12788726 201 16343422800123936091
13140716 1 18334575698595994011
13224815 77 18341336668577626670
13583140 156 17846775252109331649
14178342 30 18335705000037501722
14223421 5 18411983525242003094
14790565 3 17974861871667301236
15196674 1 18409168835129808394
15238133 3 16153709769738454869
15375358 24 18411139147018317643
15788980 27 16732977652183502092
15840311 113 18054798287168220817
1601671 61 18408044013396965580
16945 1 18340497702883023086
17349148 13 18188207714405492994
17980427 23 17968656137787181180
1813 80 16732702740354579158
19141452 34 18333450941408336583
20511986 3 18270385131924331387
20691752 17 17240202131521640595
20715895 44 18263922138278777217
21033648 29 18261685762040662489
21421861 104 17677883548891582106
21452121 103 18412260606382721906
21756936 100 17842269561556399288
21859007 373 17388805397566780269
22149856 69 18269580324485117187
22182313 1 18042399132309513692
22393880 68 18341345438864078230
23402539 116 18187638141612494850
23557571 272 18410302436250687854
23559900 14 18270121189036304070
296302 2 17346880070042939486
32027 91 18056488244286139254
335352 9 18335986350465422942
34797466 226 17489595592548668157
34934 24 18412258419959590051
350125 39 18338801246889067419
3633792 109 18269549447796283877
3680242 22 18114460042120261898
392239 28 18129947904759008656
4340502 62 18272088301100032512
460360 51 18336847311214557001
495365 180 17988917830119838058
5104073 3 18335989679550322555
59755656 215 18339646646929710942
9709674 26 18340492174912349743

> <PUBCHEM_SHAPE_MULTIPOLES>
554.32
11.32
2.62
1.37
0.58
0.57
-0.38
-3.04
3.16
1.19
-0.21
-0.75
-0.15
0.53

> <PUBCHEM_SHAPE_SELFOVERLAP>
1207.016

> <PUBCHEM_SHAPE_VOLUME>
301.5

> <PUBCHEM_COORDINATE_TYPE>
2
5
10

$$$$
