10430430
  -OEChem-03292013303D

 59 59  0     1  0  0  0  0  0999 V2000
   -0.5595   -1.0154    2.3397 O   0  0  0  0  0  0  0  0  0  0  0  0
    1.1370    1.5272   -1.0644 O   0  0  0  0  0  0  0  0  0  0  0  0
   -3.9479   -4.1754   -0.1109 O   0  0  0  0  0  0  0  0  0  0  0  0
    1.3430    0.3710    0.9384 N   0  0  0  0  0  0  0  0  0  0  0  0
   -1.2262   -1.9812    0.3353 N   0  0  0  0  0  0  0  0  0  0  0  0
   -4.4913    1.3146   -0.3882 N   0  0  0  0  0  0  0  0  0  0  0  0
   -6.5075    2.4021   -1.1109 N   0  0  0  0  0  0  0  0  0  0  0  0
   -5.0083    3.4918    0.2157 N   0  0  0  0  0  0  0  0  0  0  0  0
    0.9436   -0.9248    0.4403 C   0  0  1  0  0  0  0  0  0  0  0  0
   -2.5372   -2.4169    0.7596 C   0  0  1  0  0  0  0  0  0  0  0  0
    2.0241   -1.9891    0.6636 C   0  0  0  0  0  0  0  0  0  0  0  0
   -3.6277   -1.3694    0.5244 C   0  0  0  0  0  0  0  0  0  0  0  0
   -0.3394   -1.3115    1.1671 C   0  0  0  0  0  0  0  0  0  0  0  0
    2.5186    3.8047    0.0773 C   0  0  0  0  0  0  0  0  0  0  0  0
    1.8221    2.7297    0.9252 C   0  0  0  0  0  0  0  0  0  0  0  0
   -3.8217   -0.9725   -0.9471 C   0  0  0  0  0  0  0  0  0  0  0  0
    1.4061    1.4993    0.1334 C   0  0  0  0  0  0  0  0  0  0  0  0
    3.3305   -1.6447   -0.0093 C   0  0  0  0  0  0  0  0  0  0  0  0
   -4.8848    0.1088   -1.1187 C   0  0  0  0  0  0  0  0  0  0  0  0
    2.8575    5.0189    0.9444 C   0  0  0  0  0  0  0  0  0  0  0  0
    3.7944    3.2626   -0.5724 C   0  0  0  0  0  0  0  0  0  0  0  0
   -2.8153   -3.7400    0.0804 C   0  0  0  0  0  0  0  0  0  0  0  0
    3.5720   -2.0619   -1.3182 C   0  0  0  0  0  0  0  0  0  0  0  0
    4.2962   -0.9088    0.6775 C   0  0  0  0  0  0  0  0  0  0  0  0
    4.7792   -1.7434   -1.9403 C   0  0  0  0  0  0  0  0  0  0  0  0
    5.5034   -0.5903    0.0553 C   0  0  0  0  0  0  0  0  0  0  0  0
    5.7447   -1.0077   -1.2536 C   0  0  0  0  0  0  0  0  0  0  0  0
   -5.3055    2.3224   -0.4437 C   0  0  0  0  0  0  0  0  0  0  0  0
    0.7382   -0.8380   -0.6336 H   0  0  0  0  0  0  0  0  0  0  0  0
   -2.4804   -2.6325    1.8336 H   0  0  0  0  0  0  0  0  0  0  0  0
    2.2013   -2.1308    1.7388 H   0  0  0  0  0  0  0  0  0  0  0  0
    1.6713   -2.9639    0.3014 H   0  0  0  0  0  0  0  0  0  0  0  0
   -3.3766   -0.4781    1.1125 H   0  0  0  0  0  0  0  0  0  0  0  0
   -4.5813   -1.7452    0.9164 H   0  0  0  0  0  0  0  0  0  0  0  0
    1.8394    4.1289   -0.7211 H   0  0  0  0  0  0  0  0  0  0  0  0
    1.5402    0.4560    1.9315 H   0  0  0  0  0  0  0  0  0  0  0  0
   -0.9567   -2.1603   -0.6280 H   0  0  0  0  0  0  0  0  0  0  0  0
    0.9119    3.1418    1.3780 H   0  0  0  0  0  0  0  0  0  0  0  0
    2.4846    2.4266    1.7459 H   0  0  0  0  0  0  0  0  0  0  0  0
   -2.8728   -0.6048   -1.3561 H   0  0  0  0  0  0  0  0  0  0  0  0
   -4.1111   -1.8473   -1.5396 H   0  0  0  0  0  0  0  0  0  0  0  0
   -5.8449   -0.2705   -0.7478 H   0  0  0  0  0  0  0  0  0  0  0  0
   -4.9864    0.3284   -2.1883 H   0  0  0  0  0  0  0  0  0  0  0  0
    3.3262    5.8064    0.3447 H   0  0  0  0  0  0  0  0  0  0  0  0
    1.9519    5.4378    1.3957 H   0  0  0  0  0  0  0  0  0  0  0  0
    3.5473    4.7523    1.7525 H   0  0  0  0  0  0  0  0  0  0  0  0
    4.4954    2.8896    0.1824 H   0  0  0  0  0  0  0  0  0  0  0  0
    4.3014    4.0494   -1.1415 H   0  0  0  0  0  0  0  0  0  0  0  0
    3.5824    2.4455   -1.2682 H   0  0  0  0  0  0  0  0  0  0  0  0
   -1.9364   -4.3695   -0.1445 H   0  0  0  0  0  0  0  0  0  0  0  0
    2.8261   -2.6335   -1.8641 H   0  0  0  0  0  0  0  0  0  0  0  0
    4.1220   -0.5782    1.6980 H   0  0  0  0  0  0  0  0  0  0  0  0
    4.9668   -2.0675   -2.9598 H   0  0  0  0  0  0  0  0  0  0  0  0
    6.2549   -0.0165    0.5897 H   0  0  0  0  0  0  0  0  0  0  0  0
    6.6844   -0.7590   -1.7383 H   0  0  0  0  0  0  0  0  0  0  0  0
   -7.0648    3.2493   -1.0840 H   0  0  0  0  0  0  0  0  0  0  0  0
   -6.8794    1.6285   -1.6503 H   0  0  0  0  0  0  0  0  0  0  0  0
   -5.6311    4.2915    0.1842 H   0  0  0  0  0  0  0  0  0  0  0  0
   -4.1534    3.5873    0.7530 H   0  0  0  0  0  0  0  0  0  0  0  0
  1 13  2  0  0  0  0
  2 17  2  0  0  0  0
  3 22  2  0  0  0  0
  4  9  1  0  0  0  0
  4 17  1  0  0  0  0
  4 36  1  0  0  0  0
  5 10  1  0  0  0  0
  5 13  1  0  0  0  0
  5 37  1  0  0  0  0
  6 19  1  0  0  0  0
  6 28  2  0  0  0  0
  7 28  1  0  0  0  0
  7 56  1  0  0  0  0
  7 57  1  0  0  0  0
  8 28  1  0  0  0  0
  8 58  1  0  0  0  0
  8 59  1  0  0  0  0
  9 11  1  0  0  0  0
  9 13  1  0  0  0  0
  9 29  1  0  0  0  0
 10 12  1  0  0  0  0
 10 22  1  0  0  0  0
 10 30  1  0  0  0  0
 11 18  1  0  0  0  0
 11 31  1  0  0  0  0
 11 32  1  0  0  0  0
 12 16  1  0  0  0  0
 12 33  1  0  0  0  0
 12 34  1  0  0  0  0
 14 15  1  0  0  0  0
 14 20  1  0  0  0  0
 14 21  1  0  0  0  0
 14 35  1  0  0  0  0
 15 17  1  0  0  0  0
 15 38  1  0  0  0  0
 15 39  1  0  0  0  0
 16 19  1  0  0  0  0
 16 40  1  0  0  0  0
 16 41  1  0  0  0  0
 18 23  2  0  0  0  0
 18 24  1  0  0  0  0
 19 42  1  0  0  0  0
 19 43  1  0  0  0  0
 20 44  1  0  0  0  0
 20 45  1  0  0  0  0
 20 46  1  0  0  0  0
 21 47  1  0  0  0  0
 21 48  1  0  0  0  0
 21 49  1  0  0  0  0
 22 50  1  0  0  0  0
 23 25  1  0  0  0  0
 23 51  1  0  0  0  0
 24 26  2  0  0  0  0
 24 52  1  0  0  0  0
 25 27  2  0  0  0  0
 25 53  1  0  0  0  0
 26 27  1  0  0  0  0
 26 54  1  0  0  0  0
 27 55  1  0  0  0  0
M  END
> <PUBCHEM_COMPOUND_CID>
10430430

> <PUBCHEM_CONFORMER_RMSD>
1.2

> <PUBCHEM_CONFORMER_DIVERSEORDER>
1
3
88
67
63
38
123
100
59
15
37
7
9
84
64
48
58
115
82
89
14
19
21
79
11
13
36
117
10
81
42
83
106
76
86
94
121
124
73
97
25
71
119
107
103
91
96
77
92
110
101
23
29
80
68
112
61
27
52
85
47
122
104
39
75
54
24
113
32
98
26
93
70
105
44
74
12
65
57
43
31
49
108
4
45
17
90
40
51
55
56
22
102
78
72
50
125
114
95
87
5
6
116
18
120
62
46
8
30
118
16
69
20
33
53
99
60
66
111
34
28
109
35
2
41

> <PUBCHEM_MMFF94_PARTIAL_CHARGES>
35
1 -0.57
10 0.36
11 0.14
13 0.57
15 0.06
17 0.57
18 -0.14
19 0.25
2 -0.57
22 0.45
23 -0.15
24 -0.15
25 -0.15
26 -0.15
27 -0.15
28 0.55
3 -0.57
36 0.37
37 0.37
4 -0.73
5 -0.73
50 0.06
51 0.15
52 0.15
53 0.15
54 0.15
55 0.15
56 0.4
57 0.4
58 0.4
59 0.4
6 -0.7
7 -0.85
8 -0.85
9 0.36

> <PUBCHEM_EFFECTIVE_ROTOR_COUNT>
14

> <PUBCHEM_PHARMACOPHORE_FEATURES>
10
1 1 acceptor
1 2 acceptor
1 3 acceptor
1 4 donor
1 5 donor
1 7 donor
1 8 donor
3 14 20 21 hydrophobe
4 6 7 8 28 cation
6 18 23 24 25 26 27 rings

> <PUBCHEM_HEAVY_ATOM_COUNT>
28

> <PUBCHEM_ATOM_DEF_STEREO_COUNT>
1

> <PUBCHEM_ATOM_UDEF_STEREO_COUNT>
1

> <PUBCHEM_BOND_DEF_STEREO_COUNT>
0

> <PUBCHEM_BOND_UDEF_STEREO_COUNT>
0

> <PUBCHEM_ISOTOPIC_ATOM_COUNT>
0

> <PUBCHEM_COMPONENT_COUNT>
1

> <PUBCHEM_CACTVS_TAUTO_COUNT>
16

> <PUBCHEM_CONFORMER_ID>
009F27DE00000001

> <PUBCHEM_MMFF94_ENERGY>
59.4063

> <PUBCHEM_FEATURE_SELFOVERLAP>
50.802

> <PUBCHEM_SHAPE_FINGERPRINT>
10675989 125 17904768782084164899
11273773 38 17977102366984748645
13627175 23 18200040521975766145
13944108 23 17540526925817101181
14251757 5 18336552603412056215
14251764 38 18337665442339221257
17349148 13 12535335822887437299
19319366 153 17314790698527231843
20771845 165 17690010350524187116
23559900 14 18342734148114785360
46194498 28 18269838786209715471

> <PUBCHEM_SHAPE_MULTIPOLES>
533.71
13.79
5.97
1.41
10.18
5.64
0.02
2.83
6
0.92
-0.6
-0.58
-0.36
2.53

> <PUBCHEM_SHAPE_SELFOVERLAP>
1067.307

> <PUBCHEM_SHAPE_VOLUME>
310.8

> <PUBCHEM_COORDINATE_TYPE>
2
5
10

$$$$
