10445498
  -OEChem-03292013303D

 34 35  0     1  0  0  0  0  0999 V2000
    0.6773    0.8206   -0.0856 O   0  0  0  0  0  0  0  0  0  0  0  0
   -1.1259   -0.6489    0.0960 O   0  0  0  0  0  0  0  0  0  0  0  0
    3.2932   -2.2693   -0.7756 O   0  0  0  0  0  0  0  0  0  0  0  0
    0.6850   -2.7870    0.4932 O   0  0  0  0  0  0  0  0  0  0  0  0
    4.3044    0.3222    0.0100 O   0  0  0  0  0  0  0  0  0  0  0  0
   -4.0822   -0.5812    0.5615 O   0  0  0  0  0  0  0  0  0  0  0  0
    1.4472    3.4098    0.3690 O   0  0  0  0  0  0  0  0  0  0  0  0
   -4.7281    0.0794   -1.5366 O   0  0  0  0  0  0  0  0  0  0  0  0
    2.5623   -1.3433    0.0297 C   0  0  2  0  0  0  0  0  0  0  0  0
    1.0634   -1.5758   -0.1605 C   0  0  2  0  0  0  0  0  0  0  0  0
    2.9613    0.0702   -0.3947 C   0  0  1  0  0  0  0  0  0  0  0  0
    2.0371    1.1100    0.2433 C   0  0  1  0  0  0  0  0  0  0  0  0
    0.2431   -0.4327    0.4372 C   0  0  1  0  0  0  0  0  0  0  0  0
   -1.9585    0.3847    0.6146 C   0  0  1  0  0  0  0  0  0  0  0  0
    2.3415    2.5186   -0.2569 C   0  0  0  0  0  0  0  0  0  0  0  0
   -2.7313    1.0060   -0.5245 C   0  0  0  0  0  0  0  0  0  0  0  0
   -3.0414   -0.2140    1.4778 C   0  0  0  0  0  0  0  0  0  0  0  0
   -3.9486    0.1306   -0.5978 C   0  0  0  0  0  0  0  0  0  0  0  0
    2.8542   -1.5391    1.0689 H   0  0  0  0  0  0  0  0  0  0  0  0
    0.8307   -1.7037   -1.2243 H   0  0  0  0  0  0  0  0  0  0  0  0
    2.9289    0.1450   -1.4886 H   0  0  0  0  0  0  0  0  0  0  0  0
    2.1384    1.1086    1.3373 H   0  0  0  0  0  0  0  0  0  0  0  0
    0.3244   -0.4320    1.5331 H   0  0  0  0  0  0  0  0  0  0  0  0
   -1.3861    1.1302    1.1785 H   0  0  0  0  0  0  0  0  0  0  0  0
    2.1974    2.5998   -1.3394 H   0  0  0  0  0  0  0  0  0  0  0  0
    3.3635    2.8227   -0.0135 H   0  0  0  0  0  0  0  0  0  0  0  0
   -2.1847    0.9749   -1.4704 H   0  0  0  0  0  0  0  0  0  0  0  0
   -3.0554    2.0234   -0.2872 H   0  0  0  0  0  0  0  0  0  0  0  0
   -2.7114   -1.1084    2.0140 H   0  0  0  0  0  0  0  0  0  0  0  0
   -3.4578    0.5092    2.1864 H   0  0  0  0  0  0  0  0  0  0  0  0
    4.2393   -2.0869   -0.6430 H   0  0  0  0  0  0  0  0  0  0  0  0
    0.8844   -2.6935    1.4404 H   0  0  0  0  0  0  0  0  0  0  0  0
    4.3416    0.2652    0.9801 H   0  0  0  0  0  0  0  0  0  0  0  0
    0.5433    3.1295    0.1452 H   0  0  0  0  0  0  0  0  0  0  0  0
  1 12  1  0  0  0  0
  1 13  1  0  0  0  0
  2 13  1  0  0  0  0
  2 14  1  0  0  0  0
  3  9  1  0  0  0  0
  3 31  1  0  0  0  0
  4 10  1  0  0  0  0
  4 32  1  0  0  0  0
  5 11  1  0  0  0  0
  5 33  1  0  0  0  0
  6 17  1  0  0  0  0
  6 18  1  0  0  0  0
  7 15  1  0  0  0  0
  7 34  1  0  0  0  0
  8 18  2  0  0  0  0
  9 10  1  0  0  0  0
  9 11  1  0  0  0  0
  9 19  1  0  0  0  0
 10 13  1  0  0  0  0
 10 20  1  0  0  0  0
 11 12  1  0  0  0  0
 11 21  1  0  0  0  0
 12 15  1  0  0  0  0
 12 22  1  0  0  0  0
 13 23  1  0  0  0  0
 14 16  1  0  0  0  0
 14 17  1  0  0  0  0
 14 24  1  0  0  0  0
 15 25  1  0  0  0  0
 15 26  1  0  0  0  0
 16 18  1  0  0  0  0
 16 27  1  0  0  0  0
 16 28  1  0  0  0  0
 17 29  1  0  0  0  0
 17 30  1  0  0  0  0
M  END
> <PUBCHEM_COMPOUND_CID>
10445498

> <PUBCHEM_CONFORMER_RMSD>
0.6

> <PUBCHEM_CONFORMER_DIVERSEORDER>
4
61
86
54
90
77
22
14
32
107
31
96
84
80
105
17
37
28
98
103
42
47
7
92
40
74
49
10
89
1
19
106
41
55
48
26
100
69
25
9
101
34
51
95
71
2
33
108
81
104
66
8
56
91
70
87
88
45
63
60
36
16
39
6
13
67
15
78
38
50
94
29
102
12
44
46
72
68
79
83
20
58
3
57
52
5
53
93
65
85
18
59
21
75
97
23
82
99
30
35
64
24
73
62
27
76
43
11

> <PUBCHEM_MMFF94_PARTIAL_CHARGES>
22
1 -0.56
10 0.28
11 0.28
12 0.28
13 0.56
14 0.28
15 0.28
16 0.06
17 0.28
18 0.66
2 -0.56
3 -0.68
31 0.4
32 0.4
33 0.4
34 0.4
4 -0.68
5 -0.68
6 -0.43
7 -0.68
8 -0.57
9 0.28

> <PUBCHEM_EFFECTIVE_ROTOR_COUNT>
5

> <PUBCHEM_PHARMACOPHORE_FEATURES>
13
1 1 acceptor
1 2 acceptor
1 3 acceptor
1 3 donor
1 4 acceptor
1 4 donor
1 5 acceptor
1 5 donor
1 7 acceptor
1 7 donor
1 8 acceptor
5 6 14 16 17 18 rings
6 1 9 10 11 12 13 rings

> <PUBCHEM_HEAVY_ATOM_COUNT>
18

> <PUBCHEM_ATOM_DEF_STEREO_COUNT>
6

> <PUBCHEM_ATOM_UDEF_STEREO_COUNT>
0

> <PUBCHEM_BOND_DEF_STEREO_COUNT>
0

> <PUBCHEM_BOND_UDEF_STEREO_COUNT>
0

> <PUBCHEM_ISOTOPIC_ATOM_COUNT>
0

> <PUBCHEM_COMPONENT_COUNT>
1

> <PUBCHEM_CACTVS_TAUTO_COUNT>
2

> <PUBCHEM_CONFORMER_ID>
009F62BA00000004

> <PUBCHEM_MMFF94_ENERGY>
40.5777

> <PUBCHEM_FEATURE_SELFOVERLAP>
66.036

> <PUBCHEM_SHAPE_FINGERPRINT>
10608611 8 18260829310843275273
10967382 1 18411142450317666760
11471102 20 18409728443730386302
11615757 297 18343869922204175689
12236239 1 17561086899675525473
12654215 9 18188207607126145782
13134695 92 18410571747811256268
13140716 1 18122907792284190232
14250199 8 18412262852582214813
14251717 144 18411416202552964510
16945 1 18412554214515332802
18186145 218 18270411584337744025
18915474 69 17774711043927588087
200 152 18201996617152623317
20233049 118 18187085053262804780
20279233 1 17894916213390809779
20606313 2 18410292493369411190
20645477 56 17822007589364331405
20645477 70 18411134723608425247
20671657 53 18269841904176084919
21524375 3 18266180728292819570
21639500 275 18340204188849451801
22096605 113 18338791325293119333
221490 88 18337399334645128627
22289505 5 18335973164910750989
2255824 54 18342179972616142494
22854114 111 18339929306520959569
22892500 29 18334849515661314149
23402539 116 18128255589050326022
23402655 69 18340763754658684053
23557571 272 17386009507469892365
23559900 14 17385722452502820611
23598291 2 17988086573749183805
2748010 2 18118698835333171250
3060560 45 18411976957989224334
350125 39 17834125512660738984
474 4 18199180874868750672
58051976 378 18341610442762319743
6049 1 17895212012178268345
633830 44 18129404707334073417
7364860 26 18412829109544376968
7471813 234 17988349399883443473
77492 1 17560808718822705897
81228 2 17329146871415931816
9709674 26 18408326609592405011

> <PUBCHEM_SHAPE_MULTIPOLES>
323.48
7.84
2.6
0.97
5.66
0.91
0
-0.06
1.67
-3.1
-0.08
1.03
-0.06
0.53

> <PUBCHEM_SHAPE_SELFOVERLAP>
667.664

> <PUBCHEM_SHAPE_VOLUME>
184.2

> <PUBCHEM_COORDINATE_TYPE>
2
5
10

$$$$
