10448504
  -OEChem-03292013303D

 33 34  0     0  0  0  0  0  0999 V2000
    0.1978   -1.1492   -0.0952 S   0  0  0  0  0  0  0  0  0  0  0  0
    3.0925   -1.9044   -0.2138 O   0  0  0  0  0  0  0  0  0  0  0  0
   -3.1694    2.0280    0.1802 O   0  0  0  0  0  0  0  0  0  0  0  0
    5.7031   -1.5797   -0.1356 O   0  0  0  0  0  0  0  0  0  0  0  0
    7.7833   -0.1653    0.0107 O   0  0  0  0  0  0  0  0  0  0  0  0
    6.5175    1.7474    0.0786 O   0  0  0  0  0  0  0  0  0  0  0  0
   -2.2223   -0.1186    0.0304 N   0  0  0  0  0  0  0  0  0  0  0  0
    1.5570   -0.1113   -0.0096 C   0  0  0  0  0  0  0  0  0  0  0  0
   -0.8553    0.1760    0.0439 C   0  0  0  0  0  0  0  0  0  0  0  0
    1.1909    1.2101    0.1218 C   0  0  0  0  0  0  0  0  0  0  0  0
   -0.2242    1.3729    0.1528 C   0  0  0  0  0  0  0  0  0  0  0  0
    2.8662   -0.6752   -0.0783 C   0  0  0  0  0  0  0  0  0  0  0  0
    4.0982    0.2557   -0.0019 C   0  0  0  0  0  0  0  0  0  0  0  0
   -4.6156    0.2156    0.0336 C   0  0  0  0  0  0  0  0  0  0  0  0
   -3.2831    0.7944    0.0972 C   0  0  0  0  0  0  0  0  0  0  0  0
   -5.6796    0.9679   -0.4644 C   0  0  0  0  0  0  0  0  0  0  0  0
   -4.8298   -1.0917    0.4700 C   0  0  0  0  0  0  0  0  0  0  0  0
    5.4649   -0.3844   -0.0528 C   0  0  0  0  0  0  0  0  0  0  0  0
   -6.9578    0.4128   -0.5258 C   0  0  0  0  0  0  0  0  0  0  0  0
   -6.1080   -1.6469    0.4085 C   0  0  0  0  0  0  0  0  0  0  0  0
   -7.1720   -0.8945   -0.0894 C   0  0  0  0  0  0  0  0  0  0  0  0
    6.6456    0.5404    0.0393 C   0  0  0  0  0  0  0  0  0  0  0  0
    1.8915    2.0324    0.1937 H   0  0  0  0  0  0  0  0  0  0  0  0
   -0.7082    2.3347    0.2520 H   0  0  0  0  0  0  0  0  0  0  0  0
    4.0314    0.9541   -0.8439 H   0  0  0  0  0  0  0  0  0  0  0  0
    4.0322    0.8074    0.9429 H   0  0  0  0  0  0  0  0  0  0  0  0
   -2.4115   -1.1085   -0.0931 H   0  0  0  0  0  0  0  0  0  0  0  0
   -5.5346    1.9865   -0.8149 H   0  0  0  0  0  0  0  0  0  0  0  0
   -4.0425   -1.7032    0.9007 H   0  0  0  0  0  0  0  0  0  0  0  0
   -7.7862    0.9980   -0.9141 H   0  0  0  0  0  0  0  0  0  0  0  0
   -6.2774   -2.6619    0.7563 H   0  0  0  0  0  0  0  0  0  0  0  0
   -8.1675   -1.3262   -0.1356 H   0  0  0  0  0  0  0  0  0  0  0  0
    8.5780    0.4087    0.0445 H   0  0  0  0  0  0  0  0  0  0  0  0
  1  8  1  0  0  0  0
  1  9  1  0  0  0  0
  2 12  2  0  0  0  0
  3 15  2  0  0  0  0
  4 18  2  0  0  0  0
  5 22  1  0  0  0  0
  5 33  1  0  0  0  0
  6 22  2  0  0  0  0
  7  9  1  0  0  0  0
  7 15  1  0  0  0  0
  7 27  1  0  0  0  0
  8 10  2  0  0  0  0
  8 12  1  0  0  0  0
  9 11  2  0  0  0  0
 10 11  1  0  0  0  0
 10 23  1  0  0  0  0
 11 24  1  0  0  0  0
 12 13  1  0  0  0  0
 13 18  1  0  0  0  0
 13 25  1  0  0  0  0
 13 26  1  0  0  0  0
 14 15  1  0  0  0  0
 14 16  2  0  0  0  0
 14 17  1  0  0  0  0
 16 19  1  0  0  0  0
 16 28  1  0  0  0  0
 17 20  2  0  0  0  0
 17 29  1  0  0  0  0
 18 22  1  0  0  0  0
 19 21  2  0  0  0  0
 19 30  1  0  0  0  0
 20 21  1  0  0  0  0
 20 31  1  0  0  0  0
 21 32  1  0  0  0  0
M  END
> <PUBCHEM_COMPOUND_CID>
10448504

> <PUBCHEM_CONFORMER_RMSD>
0.8

> <PUBCHEM_CONFORMER_DIVERSEORDER>
1
135
126
75
44
98
56
53
146
159
121
20
132
29
141
103
107
30
45
71
124
158
47
19
128
144
18
100
88
115
16
111
62
118
136
32
106
14
142
43
125
26
131
73
160
137
63
76
154
97
112
101
31
109
80
82
122
33
52
130
51
161
34
6
164
91
87
120
162
68
110
99
60
156
94
35
61
163
150
54
138
89
4
77
152
96
165
67
148
113
127
10
15
90
85
9
104
157
123
116
93
119
40
149
12
108
69
8
74
5
57
84
25
59
83
7
41
134
155
11
65
50
13
28
143
140
21
72
81
105
49
114
17
78
70
22
48
151
117
145
66
24
153
23
27
129
133
55
3
79
147
2
86
58
139
92
38
36
64
95
37
42
102
46
39

> <PUBCHEM_MMFF94_PARTIAL_CHARGES>
31
1 -0.08
10 -0.15
11 -0.15
12 0.59
13 0.12
14 0.09
15 0.54
16 -0.15
17 -0.15
18 0.51
19 -0.15
2 -0.57
20 -0.15
21 -0.15
22 0.72
23 0.15
24 0.15
27 0.37
28 0.15
29 0.15
3 -0.57
30 0.15
31 0.15
32 0.15
33 0.5
4 -0.57
5 -0.65
6 -0.57
7 -0.49
8 -0.05
9 0.1

> <PUBCHEM_EFFECTIVE_ROTOR_COUNT>
7

> <PUBCHEM_PHARMACOPHORE_FEATURES>
10
1 13 anion
1 2 acceptor
1 3 acceptor
1 4 acceptor
1 5 acceptor
1 6 acceptor
1 7 donor
3 5 6 22 anion
5 1 8 9 10 11 rings
6 14 16 17 19 20 21 rings

> <PUBCHEM_HEAVY_ATOM_COUNT>
22

> <PUBCHEM_ATOM_DEF_STEREO_COUNT>
0

> <PUBCHEM_ATOM_UDEF_STEREO_COUNT>
0

> <PUBCHEM_BOND_DEF_STEREO_COUNT>
0

> <PUBCHEM_BOND_UDEF_STEREO_COUNT>
0

> <PUBCHEM_ISOTOPIC_ATOM_COUNT>
0

> <PUBCHEM_COMPONENT_COUNT>
1

> <PUBCHEM_CACTVS_TAUTO_COUNT>
14

> <PUBCHEM_CONFORMER_ID>
009F6E7800000001

> <PUBCHEM_MMFF94_ENERGY>
49.152

> <PUBCHEM_FEATURE_SELFOVERLAP>
50.828

> <PUBCHEM_SHAPE_FINGERPRINT>
10 15 18339071683942232992
10050765 1 18122061996958602144
10638233 991 16056597694353600656
10835480 77 18337104558761208085
10968037 39 18410292510976528839
11089746 13 14634871963686221799
11315181 36 18272090500962103825
11524674 6 16487253292367225463
11719270 70 18411696574061235778
12091667 2 17312823771552336257
12236239 1 18409730638279254944
12516196 113 18272369776129731216
13073987 5 18341896229743595370
13288520 33 18410856569216180749
13533116 47 14045473202498464516
13885169 127 18335701611920325909
13899415 154 17418375809513113688
14123256 10 18410855460128161805
14170010 4 18342173401670042888
1420 363 18273217490972981359
14251718 22 18335420162275218305
14251732 16 18409730672818289458
14251764 18 18202003235053784721
14251764 46 17490151915520395974
14461889 52 18408882971377120794
14849402 71 17916869148218925144
14856354 85 15482670212915084637
14933364 13 18412545409721755504
15183329 4 15285357314448736851
15716309 27 18131069333615581407
15849732 13 18411138052017916134
17093844 174 18259704489674811649
18006028 8 17989487424466976193
18335252 98 18412830191749788334
18681886 176 18336822087188249097
20238998 120 18259983773137709324
21049683 271 18341896341645867304
21095086 128 16056881329529925862
21150785 3 18410855468718109384
21267235 1 18342181063368939597
21315763 28 18410292485133021416
21365058 27 15985106327255301151
21521721 280 17846779645882143610
21623969 137 18059860549532491831
22224240 67 18040432209730247858
22896161 15 18411701006071177258
23035841 295 12823295693303073188
23402539 116 18186800279872250791
23559900 14 18336823191258880537
23622692 88 16415476069066739557
2838139 119 10809344460264457163
3004659 81 18113897178298437433
34797466 226 17060345141285897884
4073 2 17968100879893528458
4325135 7 18409730668765961028
4340502 62 17167861955006839866
4463277 17 18410855460138724308
5104073 3 18128816352385119155
59682541 35 18201435925888055890
59755656 215 18409730642696048327
59755656 520 17167857604131395427
67856867 119 18188214315981639789
8209 1 18408040710640669124

> <PUBCHEM_SHAPE_MULTIPOLES>
422.27
22.13
1.66
0.65
8.42
0.01
0
1.97
0.88
-0.18
-0.06
-0.3
0.01
0.59

> <PUBCHEM_SHAPE_SELFOVERLAP>
892.189

> <PUBCHEM_SHAPE_VOLUME>
235.1

> <PUBCHEM_COORDINATE_TYPE>
2
5
10

$$$$
