10448566
  -OEChem-03292013303D

 37 39  0     1  0  0  0  0  0999 V2000
    1.4124   -2.0682    0.0971 O   0  0  0  0  0  0  0  0  0  0  0  0
    0.4792    2.4611   -2.0544 O   0  0  0  0  0  0  0  0  0  0  0  0
    4.4993   -0.3989   -0.2196 O   0  0  0  0  0  0  0  0  0  0  0  0
    3.4316   -1.9676   -1.4825 O   0  0  0  0  0  0  0  0  0  0  0  0
   -4.8321   -1.8559   -0.2226 O   0  5  0  0  0  0  0  0  0  0  0  0
   -4.4202    0.2882    0.0064 O   0  0  0  0  0  0  0  0  0  0  0  0
    0.3059    2.0176    0.2594 N   0  0  0  0  0  0  0  0  0  0  0  0
   -4.0301   -0.9006   -0.0871 N   0  3  0  0  0  0  0  0  0  0  0  0
    0.0134    2.7820    1.4469 C   0  0  0  0  0  0  0  0  0  0  0  0
    0.6549    0.7008    0.2957 C   0  0  0  0  0  0  0  0  0  0  0  0
   -0.7146    3.9986    0.9095 C   0  0  0  0  0  0  0  0  0  0  0  0
   -0.1099    4.1998   -0.4737 C   0  0  0  0  0  0  0  0  0  0  0  0
    2.3745   -1.0924    0.5104 C   0  0  1  0  0  0  0  0  0  0  0  0
    0.2484    2.7954   -0.9013 C   0  0  0  0  0  0  0  0  0  0  0  0
   -0.3435   -0.3688    0.1601 C   0  0  0  0  0  0  0  0  0  0  0  0
    1.9332    0.3406    0.4685 C   0  0  0  0  0  0  0  0  0  0  0  0
    0.0946   -1.6983    0.0696 C   0  0  0  0  0  0  0  0  0  0  0  0
    2.9042   -1.4816    1.8870 C   0  0  0  0  0  0  0  0  0  0  0  0
   -1.7256   -0.1239    0.1093 C   0  0  0  0  0  0  0  0  0  0  0  0
    3.4641   -1.2226   -0.5143 C   0  0  0  0  0  0  0  0  0  0  0  0
   -0.8186   -2.7472   -0.0880 C   0  0  0  0  0  0  0  0  0  0  0  0
   -2.6372   -1.1736   -0.0376 C   0  0  0  0  0  0  0  0  0  0  0  0
   -2.1840   -2.4845   -0.1389 C   0  0  0  0  0  0  0  0  0  0  0  0
    0.9598    3.0622    1.9229 H   0  0  0  0  0  0  0  0  0  0  0  0
   -0.6004    2.2109    2.1504 H   0  0  0  0  0  0  0  0  0  0  0  0
   -0.6103    4.8761    1.5535 H   0  0  0  0  0  0  0  0  0  0  0  0
   -1.7847    3.7766    0.8109 H   0  0  0  0  0  0  0  0  0  0  0  0
    0.8050    4.7986   -0.4290 H   0  0  0  0  0  0  0  0  0  0  0  0
   -0.8227    4.6517   -1.1676 H   0  0  0  0  0  0  0  0  0  0  0  0
    2.6819    1.1184    0.6113 H   0  0  0  0  0  0  0  0  0  0  0  0
    2.0917   -1.5060    2.6228 H   0  0  0  0  0  0  0  0  0  0  0  0
    3.3373   -2.4890    1.8680 H   0  0  0  0  0  0  0  0  0  0  0  0
    3.6736   -0.7927    2.2531 H   0  0  0  0  0  0  0  0  0  0  0  0
   -2.0814    0.9016    0.1830 H   0  0  0  0  0  0  0  0  0  0  0  0
   -0.4679   -3.7731   -0.1678 H   0  0  0  0  0  0  0  0  0  0  0  0
   -2.8628   -3.3248   -0.2577 H   0  0  0  0  0  0  0  0  0  0  0  0
    5.2231   -0.4700   -0.8778 H   0  0  0  0  0  0  0  0  0  0  0  0
  1 13  1  0  0  0  0
  1 17  1  0  0  0  0
  2 14  2  0  0  0  0
  3 20  1  0  0  0  0
  3 37  1  0  0  0  0
  4 20  2  0  0  0  0
  5  8  1  0  0  0  0
  6  8  2  0  0  0  0
  7  9  1  0  0  0  0
  7 10  1  0  0  0  0
  7 14  1  0  0  0  0
  8 22  1  0  0  0  0
  9 11  1  0  0  0  0
  9 24  1  0  0  0  0
  9 25  1  0  0  0  0
 10 15  1  0  0  0  0
 10 16  2  0  0  0  0
 11 12  1  0  0  0  0
 11 26  1  0  0  0  0
 11 27  1  0  0  0  0
 12 14  1  0  0  0  0
 12 28  1  0  0  0  0
 12 29  1  0  0  0  0
 13 16  1  0  0  0  0
 13 18  1  0  0  0  0
 13 20  1  0  0  0  0
 15 17  2  0  0  0  0
 15 19  1  0  0  0  0
 16 30  1  0  0  0  0
 17 21  1  0  0  0  0
 18 31  1  0  0  0  0
 18 32  1  0  0  0  0
 18 33  1  0  0  0  0
 19 22  2  0  0  0  0
 19 34  1  0  0  0  0
 21 23  2  0  0  0  0
 21 35  1  0  0  0  0
 22 23  1  0  0  0  0
 23 36  1  0  0  0  0
M  CHG  2   5  -1   8   1
M  END
> <PUBCHEM_COMPOUND_CID>
10448566

> <PUBCHEM_CONFORMER_RMSD>
0.8

> <PUBCHEM_CONFORMER_DIVERSEORDER>
1
2

> <PUBCHEM_MMFF94_PARTIAL_CHARGES>
26
1 -0.36
10 0.08
12 0.06
13 0.48
14 0.57
15 0.03
16 -0.29
17 0.08
19 -0.15
2 -0.57
20 0.66
21 -0.15
22 0.13
23 -0.15
3 -0.65
30 0.15
34 0.15
35 0.15
36 0.15
37 0.5
4 -0.57
5 -0.52
6 -0.52
7 -0.47
8 0.91
9 0.3

> <PUBCHEM_EFFECTIVE_ROTOR_COUNT>
4.2

> <PUBCHEM_PHARMACOPHORE_FEATURES>
11
1 1 acceptor
1 2 acceptor
1 3 acceptor
1 4 acceptor
1 5 acceptor
1 5 anion
1 6 acceptor
3 3 4 20 anion
5 7 9 11 12 14 rings
6 1 10 13 15 16 17 rings
6 15 17 19 21 22 23 rings

> <PUBCHEM_HEAVY_ATOM_COUNT>
23

> <PUBCHEM_ATOM_DEF_STEREO_COUNT>
1

> <PUBCHEM_ATOM_UDEF_STEREO_COUNT>
0

> <PUBCHEM_BOND_DEF_STEREO_COUNT>
0

> <PUBCHEM_BOND_UDEF_STEREO_COUNT>
0

> <PUBCHEM_ISOTOPIC_ATOM_COUNT>
0

> <PUBCHEM_COMPONENT_COUNT>
1

> <PUBCHEM_CACTVS_TAUTO_COUNT>
2

> <PUBCHEM_CONFORMER_ID>
009F6EB600000001

> <PUBCHEM_MMFF94_ENERGY>
87.6121

> <PUBCHEM_FEATURE_SELFOVERLAP>
56.005

> <PUBCHEM_SHAPE_FINGERPRINT>
10165383 225 17260773754165796400
104564 63 18195529190419948185
10871710 139 18118714061493636148
10967382 1 18267300009607566851
11640471 11 15154444314918161821
116883 192 18270687467588834222
12035759 4 18117867480352901684
12553582 1 18410565189164424299
12788726 201 18336829684922222202
12954195 1 17911250420884215198
13132413 78 18411701010519346397
13140716 1 18338503145666653793
13681431 1 18265621055288766360
13878862 14 18192694861020767087
13965767 371 17395263151843303957
14022347 108 18408610240358037258
14790565 3 18339655425231583785
14955137 171 18267049243932385643
15210252 30 18187372025365040620
15420108 30 17554303084673044808
1601671 61 18410857616613460879
16752209 62 18121494653132610242
16945 1 18196367022696749690
17357779 13 18269822156085133421
17980427 23 17697287957241254554
18785283 64 18047758380001714579
20510252 161 18269833117020832410
20600515 1 18269535273707992450
20671657 1 18122348136449137909
21285901 2 17988090976064834830
21524375 3 17040909339864626480
22149856 69 17693943295623445443
22907989 373 18191305962189820100
2334 1 18410567426757508843
23366157 5 17828189227480505819
23419403 2 15901145506076497283
23557571 272 18411700959507175166
23558518 356 17830173502435035858
23559900 14 18196361748941555995
2748010 2 18339906178105999458
283562 15 18337674096972915266
350125 39 17471856277972535721
352729 6 17547277909355743914
5939293 188 18267577095059421522
6443956 14 18339360889074222308
7164475 11 18118961395786113370
7364860 26 18052819444407985832
81228 2 18264496096164332562
84936 182 17765155364416870369
9709674 26 18050282875805818827
9981440 41 16619760841788683218

> <PUBCHEM_SHAPE_MULTIPOLES>
428.15
6.06
4.87
1.21
2.46
5.91
0.03
-5.7
0.47
1.17
0.19
-0.89
0.53
-0.23

> <PUBCHEM_SHAPE_SELFOVERLAP>
940.169

> <PUBCHEM_SHAPE_VOLUME>
232.2

> <PUBCHEM_COORDINATE_TYPE>
2
5
10

$$$$
