104545
  -OEChem-03292013323D

 35 35  0     1  0  0  0  0  0999 V2000
    1.9797   -1.9378    0.5688 O   0  0  0  0  0  0  0  0  0  0  0  0
    3.3008    1.4695   -1.2244 O   0  0  0  0  0  0  0  0  0  0  0  0
    5.4965    1.8825   -0.8363 O   0  0  0  0  0  0  0  0  0  0  0  0
   -3.7408    2.4204   -0.7385 O   0  0  0  0  0  0  0  0  0  0  0  0
   -4.4284    1.8173    1.3424 O   0  0  0  0  0  0  0  0  0  0  0  0
   -4.5959   -2.0973   -1.2176 O   0  5  0  0  0  0  0  0  0  0  0  0
   -5.2260   -0.0708   -0.6562 O   0  0  0  0  0  0  0  0  0  0  0  0
    0.8663    0.0763    1.0317 N   0  0  0  0  0  0  0  0  0  0  0  0
    5.9597   -0.8337   -0.9912 N   0  0  0  0  0  0  0  0  0  0  0  0
   -4.3503   -0.9634   -0.7430 N   0  3  0  0  0  0  0  0  0  0  0  0
    4.5069   -0.6270    0.9837 C   0  0  0  0  0  0  0  0  0  0  0  0
    3.1928   -0.1203    1.5835 C   0  0  0  0  0  0  0  0  0  0  0  0
    4.6456   -0.3798   -0.5255 C   0  0  1  0  0  0  0  0  0  0  0  0
    1.9531   -0.7926    1.0075 C   0  0  0  0  0  0  0  0  0  0  0  0
   -0.4522   -0.1793    0.5857 C   0  0  0  0  0  0  0  0  0  0  0  0
    4.5561    1.0984   -0.8602 C   0  0  0  0  0  0  0  0  0  0  0  0
   -1.4078    0.8181    0.6884 C   0  0  0  0  0  0  0  0  0  0  0  0
   -2.7073    0.5657    0.2489 C   0  0  0  0  0  0  0  0  0  0  0  0
   -0.7591   -1.4216    0.0561 C   0  0  0  0  0  0  0  0  0  0  0  0
   -3.0328   -0.6801   -0.2871 C   0  0  0  0  0  0  0  0  0  0  0  0
   -2.0587   -1.6738   -0.3835 C   0  0  0  0  0  0  0  0  0  0  0  0
   -3.6982    1.6291    0.3666 C   0  0  0  0  0  0  0  0  0  0  0  0
    5.3288   -0.1323    1.5187 H   0  0  0  0  0  0  0  0  0  0  0  0
    4.6046   -1.7019    1.1842 H   0  0  0  0  0  0  0  0  0  0  0  0
    3.1293    0.9679    1.4744 H   0  0  0  0  0  0  0  0  0  0  0  0
    3.1908   -0.3282    2.6607 H   0  0  0  0  0  0  0  0  0  0  0  0
    3.8830   -0.9202   -1.0957 H   0  0  0  0  0  0  0  0  0  0  0  0
    1.0130    1.0055    1.4198 H   0  0  0  0  0  0  0  0  0  0  0  0
    6.6945   -0.3776   -0.4507 H   0  0  0  0  0  0  0  0  0  0  0  0
    6.0579   -1.8313   -0.8042 H   0  0  0  0  0  0  0  0  0  0  0  0
   -1.1522    1.7888    1.1066 H   0  0  0  0  0  0  0  0  0  0  0  0
   -0.0640   -2.2412   -0.0493 H   0  0  0  0  0  0  0  0  0  0  0  0
   -2.2731   -2.6572   -0.7944 H   0  0  0  0  0  0  0  0  0  0  0  0
    3.2520    2.4232   -1.4485 H   0  0  0  0  0  0  0  0  0  0  0  0
   -4.4094    3.1329   -0.6518 H   0  0  0  0  0  0  0  0  0  0  0  0
  1 14  2  0  0  0  0
  2 16  1  0  0  0  0
  2 34  1  0  0  0  0
  3 16  2  0  0  0  0
  4 22  1  0  0  0  0
  4 35  1  0  0  0  0
  5 22  2  0  0  0  0
  6 10  1  0  0  0  0
  7 10  2  0  0  0  0
  8 14  1  0  0  0  0
  8 15  1  0  0  0  0
  8 28  1  0  0  0  0
  9 13  1  0  0  0  0
  9 29  1  0  0  0  0
  9 30  1  0  0  0  0
 10 20  1  0  0  0  0
 11 12  1  0  0  0  0
 11 13  1  0  0  0  0
 11 23  1  0  0  0  0
 11 24  1  0  0  0  0
 12 14  1  0  0  0  0
 12 25  1  0  0  0  0
 12 26  1  0  0  0  0
 13 16  1  0  0  0  0
 13 27  1  0  0  0  0
 15 17  2  0  0  0  0
 15 19  1  0  0  0  0
 17 18  1  0  0  0  0
 17 31  1  0  0  0  0
 18 20  2  0  0  0  0
 18 22  1  0  0  0  0
 19 21  2  0  0  0  0
 19 32  1  0  0  0  0
 20 21  1  0  0  0  0
 21 33  1  0  0  0  0
M  CHG  2   6  -1  10   1
M  END
> <PUBCHEM_COMPOUND_CID>
104545

> <PUBCHEM_CONFORMER_RMSD>
0.8

> <PUBCHEM_CONFORMER_DIVERSEORDER>
2
53
63
41
77
65
45
76
40
71
27
61
74
62
46
56
31
55
18
24
57
73
67
69
68
16
58
50
48
70
47
35
75
29
64
43
15
13
4
60
72
49
12
28
9
52
23
21
42
1
33
54
19
26
11
39
3
44
22
37
36
8
59
51
5
6
34
38
32
17
10
30
66
25
7
20
14

> <PUBCHEM_MMFF94_PARTIAL_CHARGES>
29
1 -0.57
10 0.91
12 0.06
13 0.33
14 0.57
15 0.12
16 0.66
17 -0.15
18 0.09
19 -0.15
2 -0.65
20 0.13
21 -0.15
22 0.63
28 0.37
29 0.36
3 -0.57
30 0.36
31 0.15
32 0.15
33 0.15
34 0.5
35 0.5
4 -0.65
5 -0.57
6 -0.52
7 -0.52
8 -0.55
9 -0.99

> <PUBCHEM_EFFECTIVE_ROTOR_COUNT>
8

> <PUBCHEM_PHARMACOPHORE_FEATURES>
14
1 1 acceptor
1 2 acceptor
1 3 acceptor
1 4 acceptor
1 5 acceptor
1 6 acceptor
1 6 anion
1 7 acceptor
1 8 donor
1 9 cation
1 9 donor
3 2 3 16 anion
3 4 5 22 anion
6 15 17 18 19 20 21 rings

> <PUBCHEM_HEAVY_ATOM_COUNT>
22

> <PUBCHEM_ATOM_DEF_STEREO_COUNT>
1

> <PUBCHEM_ATOM_UDEF_STEREO_COUNT>
0

> <PUBCHEM_BOND_DEF_STEREO_COUNT>
0

> <PUBCHEM_BOND_UDEF_STEREO_COUNT>
0

> <PUBCHEM_ISOTOPIC_ATOM_COUNT>
0

> <PUBCHEM_COMPONENT_COUNT>
1

> <PUBCHEM_CACTVS_TAUTO_COUNT>
2

> <PUBCHEM_CONFORMER_ID>
0001986100000002

> <PUBCHEM_MMFF94_ENERGY>
65.4193

> <PUBCHEM_FEATURE_SELFOVERLAP>
71.253

> <PUBCHEM_SHAPE_FINGERPRINT>
10498660 4 18343298146014158384
10670039 82 18408324359182295476
10912923 1 18260822687713522578
11089746 13 18040433292093518312
11128504 68 18408886269610998286
12236239 1 18260545632411048839
12390115 104 17631741452985003177
12616971 3 18114741534361081736
12633257 1 14490478646740447076
13583140 156 15791451547441311675
14528608 73 18260828219952970876
14573314 32 17632857507913913242
15183329 4 18409452462496862934
17834072 33 18334009501551915903
17844677 252 17131832083644425080
17870717 6 17775286058401685599
1813 80 13973697152082883642
20871999 31 18272371992100578458
21033648 144 17531244006719791878
21267235 1 18200869686955328967
21424621 283 14130158653570210951
22079108 93 16950575379981913433
2297311 6 17988643025818188267
23175994 123 15913323624320506955
23366157 5 18120089472983341075
23557571 272 17917713495801870531
23559900 14 17916854828633747497
23596394 208 16773520984201772390
2838139 119 18040722498143744124
3004659 81 18272371924320481626
32948 21 17989208105980261266
34797466 226 17489310849397510648
474 4 17530968033590795408
4990 188 17418092109590310522
5281201 14 17060331959440098512
542803 24 18113900433656606354
543368 44 18261957456691122092
59755656 215 17775281652055747759
633830 44 17677611956333874027

> <PUBCHEM_SHAPE_MULTIPOLES>
396.72
13.35
2.08
1.27
7.14
0.41
0.14
2.42
-4.14
-1.49
-0.43
0.69
0.1
-1.87

> <PUBCHEM_SHAPE_SELFOVERLAP>
830.131

> <PUBCHEM_SHAPE_VOLUME>
222.3

> <PUBCHEM_COORDINATE_TYPE>
2
5
10

$$$$
