10458156
  -OEChem-03292013303D

 65 70  0     1  0  0  0  0  0999 V2000
    1.6943    1.8291   -1.8258 O   0  0  0  0  0  0  0  0  0  0  0  0
    4.2386   -1.8269    1.9167 O   0  0  0  0  0  0  0  0  0  0  0  0
    0.0920    0.8905   -3.1688 O   0  0  0  0  0  0  0  0  0  0  0  0
   -1.4684   -1.7708    0.6164 O   0  0  0  0  0  0  0  0  0  0  0  0
    3.2606   -0.1854    0.5502 N   0  0  0  0  0  0  0  0  0  0  0  0
    1.6450   -1.3867   -0.4617 N   0  0  0  0  0  0  0  0  0  0  0  0
   -2.0021    0.2898   -0.3518 N   0  0  0  0  0  0  0  0  0  0  0  0
   -1.7885    1.9958   -2.4392 N   0  0  0  0  0  0  0  0  0  0  0  0
   -4.1526    1.2467   -0.0015 N   0  0  0  0  0  0  0  0  0  0  0  0
    1.7037    1.2450   -0.5288 C   0  0  2  0  0  0  0  0  0  0  0  0
    2.3905   -0.1420   -0.5924 C   0  0  1  0  0  0  0  0  0  0  0  0
    0.2864    1.2203    0.0130 C   0  0  0  0  0  0  0  0  0  0  0  0
    2.6523    1.9795    0.4082 C   0  0  0  0  0  0  0  0  0  0  0  0
    2.5768   -2.3417    0.1949 C   0  0  2  0  0  0  0  0  0  0  0  0
    3.5165    1.0780    1.0473 C   0  0  0  0  0  0  0  0  0  0  0  0
    3.5011   -1.4525    1.0209 C   0  0  0  0  0  0  0  0  0  0  0  0
   -0.6535    0.4611   -0.9161 C   0  0  2  0  0  0  0  0  0  0  0  0
    3.3669   -3.1710   -0.8063 C   0  0  0  0  0  0  0  0  0  0  0  0
    2.6847    3.3248    0.7339 C   0  0  0  0  0  0  0  0  0  0  0  0
    2.4985   -4.1484   -1.6182 C   0  0  0  0  0  0  0  0  0  0  0  0
    4.3929    1.4673    2.0404 C   0  0  0  0  0  0  0  0  0  0  0  0
   -0.7496    1.0961   -2.2959 C   0  0  0  0  0  0  0  0  0  0  0  0
   -2.9584    1.2968   -0.5023 C   0  0  0  0  0  0  0  0  0  0  0  0
   -2.5029    2.5156   -1.2888 C   0  0  2  0  0  0  0  0  0  0  0  0
    3.5892    3.7457    1.7137 C   0  0  0  0  0  0  0  0  0  0  0  0
    4.4306    2.8248    2.3641 C   0  0  0  0  0  0  0  0  0  0  0  0
   -2.2695   -0.8679    0.3922 C   0  0  0  0  0  0  0  0  0  0  0  0
    1.7185   -5.1143   -0.7252 C   0  0  0  0  0  0  0  0  0  0  0  0
    1.5278   -3.3667   -2.5064 C   0  0  0  0  0  0  0  0  0  0  0  0
   -3.6507    3.4158   -1.7265 C   0  0  0  0  0  0  0  0  0  0  0  0
   -3.6388   -0.9565    0.9425 C   0  0  0  0  0  0  0  0  0  0  0  0
   -4.5214    0.1050    0.7225 C   0  0  0  0  0  0  0  0  0  0  0  0
   -4.0388   -2.0811    1.6727 C   0  0  0  0  0  0  0  0  0  0  0  0
   -5.8171    0.0253    1.2456 C   0  0  0  0  0  0  0  0  0  0  0  0
   -5.3330   -2.1463    2.1868 C   0  0  0  0  0  0  0  0  0  0  0  0
   -6.2215   -1.0946    1.9738 C   0  0  0  0  0  0  0  0  0  0  0  0
    3.0308   -0.2022   -1.4852 H   0  0  0  0  0  0  0  0  0  0  0  0
   -0.0657    2.2484    0.1491 H   0  0  0  0  0  0  0  0  0  0  0  0
    0.2635    0.7672    1.0134 H   0  0  0  0  0  0  0  0  0  0  0  0
    2.0110   -2.9631    0.8952 H   0  0  0  0  0  0  0  0  0  0  0  0
    1.3026   -1.6434   -1.3651 H   0  0  0  0  0  0  0  0  0  0  0  0
   -0.3297   -0.5520   -1.1231 H   0  0  0  0  0  0  0  0  0  0  0  0
    3.9328   -2.5245   -1.4903 H   0  0  0  0  0  0  0  0  0  0  0  0
    4.1259   -3.7506   -0.2635 H   0  0  0  0  0  0  0  0  0  0  0  0
    1.4660    2.7700   -1.7354 H   0  0  0  0  0  0  0  0  0  0  0  0
    2.0169    4.0366    0.2613 H   0  0  0  0  0  0  0  0  0  0  0  0
    3.1702   -4.7307   -2.2614 H   0  0  0  0  0  0  0  0  0  0  0  0
    5.0408    0.7614    2.5466 H   0  0  0  0  0  0  0  0  0  0  0  0
   -1.8061    3.0974   -0.6797 H   0  0  0  0  0  0  0  0  0  0  0  0
    3.6331    4.7964    1.9889 H   0  0  0  0  0  0  0  0  0  0  0  0
    5.1155    3.1763    3.1314 H   0  0  0  0  0  0  0  0  0  0  0  0
   -1.8673    2.4844   -3.3263 H   0  0  0  0  0  0  0  0  0  0  0  0
    1.2286   -5.8799   -1.3370 H   0  0  0  0  0  0  0  0  0  0  0  0
    2.3891   -5.6263   -0.0273 H   0  0  0  0  0  0  0  0  0  0  0  0
    0.9359   -4.6140   -0.1463 H   0  0  0  0  0  0  0  0  0  0  0  0
    1.9807   -2.4834   -2.9685 H   0  0  0  0  0  0  0  0  0  0  0  0
    1.2620   -4.0170   -3.3522 H   0  0  0  0  0  0  0  0  0  0  0  0
    0.5616   -3.1604   -2.0346 H   0  0  0  0  0  0  0  0  0  0  0  0
   -4.1789    3.8306   -0.8615 H   0  0  0  0  0  0  0  0  0  0  0  0
   -3.2799    4.2523   -2.3288 H   0  0  0  0  0  0  0  0  0  0  0  0
   -4.3790    2.8676   -2.3351 H   0  0  0  0  0  0  0  0  0  0  0  0
   -3.3608   -2.9114    1.8496 H   0  0  0  0  0  0  0  0  0  0  0  0
   -6.5217    0.8384    1.0881 H   0  0  0  0  0  0  0  0  0  0  0  0
   -5.6486   -3.0172    2.7539 H   0  0  0  0  0  0  0  0  0  0  0  0
   -7.2296   -1.1457    2.3748 H   0  0  0  0  0  0  0  0  0  0  0  0
  1 10  1  0  0  0  0
  1 45  1  0  0  0  0
  2 16  2  0  0  0  0
  3 22  2  0  0  0  0
  4 27  2  0  0  0  0
  5 11  1  0  0  0  0
  5 15  1  0  0  0  0
  5 16  1  0  0  0  0
  6 11  1  0  0  0  0
  6 14  1  0  0  0  0
  6 41  1  0  0  0  0
  7 17  1  0  0  0  0
  7 23  1  0  0  0  0
  7 27  1  0  0  0  0
  8 22  1  0  0  0  0
  8 24  1  0  0  0  0
  8 52  1  0  0  0  0
  9 23  2  0  0  0  0
  9 32  1  0  0  0  0
 10 11  1  0  0  0  0
 10 12  1  0  0  0  0
 10 13  1  0  0  0  0
 11 37  1  0  0  0  0
 12 17  1  0  0  0  0
 12 38  1  0  0  0  0
 12 39  1  0  0  0  0
 13 15  1  0  0  0  0
 13 19  2  0  0  0  0
 14 16  1  0  0  0  0
 14 18  1  0  0  0  0
 14 40  1  0  0  0  0
 15 21  2  0  0  0  0
 17 22  1  0  0  0  0
 17 42  1  0  0  0  0
 18 20  1  0  0  0  0
 18 43  1  0  0  0  0
 18 44  1  0  0  0  0
 19 25  1  0  0  0  0
 19 46  1  0  0  0  0
 20 28  1  0  0  0  0
 20 29  1  0  0  0  0
 20 47  1  0  0  0  0
 21 26  1  0  0  0  0
 21 48  1  0  0  0  0
 23 24  1  0  0  0  0
 24 30  1  0  0  0  0
 24 49  1  0  0  0  0
 25 26  2  0  0  0  0
 25 50  1  0  0  0  0
 26 51  1  0  0  0  0
 27 31  1  0  0  0  0
 28 53  1  0  0  0  0
 28 54  1  0  0  0  0
 28 55  1  0  0  0  0
 29 56  1  0  0  0  0
 29 57  1  0  0  0  0
 29 58  1  0  0  0  0
 30 59  1  0  0  0  0
 30 60  1  0  0  0  0
 30 61  1  0  0  0  0
 31 32  1  0  0  0  0
 31 33  2  0  0  0  0
 32 34  2  0  0  0  0
 33 35  1  0  0  0  0
 33 62  1  0  0  0  0
 34 36  1  0  0  0  0
 34 63  1  0  0  0  0
 35 36  2  0  0  0  0
 35 64  1  0  0  0  0
 36 65  1  0  0  0  0
M  END
> <PUBCHEM_COMPOUND_CID>
10458156

> <PUBCHEM_CONFORMER_RMSD>
0.8

> <PUBCHEM_CONFORMER_DIVERSEORDER>
1

> <PUBCHEM_MMFF94_PARTIAL_CHARGES>
41
1 -0.68
10 0.42
11 0.57
13 -0.14
14 0.33
15 0.12
16 0.57
17 0.36
19 -0.15
2 -0.57
21 -0.15
22 0.57
23 0.45
24 0.36
25 -0.15
26 -0.15
27 0.54
3 -0.57
31 0.09
32 0.18
33 -0.15
34 -0.15
35 -0.15
36 -0.15
4 -0.57
41 0.36
45 0.4
46 0.15
48 0.15
5 -0.48
50 0.15
51 0.15
52 0.37
6 -0.9
62 0.15
63 0.15
64 0.15
65 0.15
7 -0.42
8 -0.73
9 -0.63

> <PUBCHEM_EFFECTIVE_ROTOR_COUNT>
5.2

> <PUBCHEM_PHARMACOPHORE_FEATURES>
15
1 1 acceptor
1 1 donor
1 2 acceptor
1 3 acceptor
1 4 acceptor
1 6 cation
1 6 donor
1 8 donor
3 20 28 29 hydrophobe
5 5 10 11 13 15 rings
5 5 6 11 14 16 rings
6 13 15 19 21 25 26 rings
6 31 32 33 34 35 36 rings
6 7 8 17 22 23 24 rings
6 7 9 23 27 31 32 rings

> <PUBCHEM_HEAVY_ATOM_COUNT>
36

> <PUBCHEM_ATOM_DEF_STEREO_COUNT>
5

> <PUBCHEM_ATOM_UDEF_STEREO_COUNT>
0

> <PUBCHEM_BOND_DEF_STEREO_COUNT>
0

> <PUBCHEM_BOND_UDEF_STEREO_COUNT>
0

> <PUBCHEM_ISOTOPIC_ATOM_COUNT>
0

> <PUBCHEM_COMPONENT_COUNT>
1

> <PUBCHEM_CACTVS_TAUTO_COUNT>
2

> <PUBCHEM_CONFORMER_ID>
009F942C00000001

> <PUBCHEM_MMFF94_ENERGY>
146.3702

> <PUBCHEM_FEATURE_SELFOVERLAP>
76.607

> <PUBCHEM_SHAPE_FINGERPRINT>
10369192 42 18195243541337296080
10985338 15 18051705635694834380
1200032 147 16127829589640281976
12128747 34 18268990873945344049
12422481 6 18261664986524014779
12623949 98 18337690671378440703
13583140 156 18342163471320792485
14040221 310 11244744317940026896
14725015 67 18113337475377774651
14955137 171 18271246020070991158
15219462 58 18271246010822193668
15324884 4 17899661701788109604
15351339 4 16533967898898336989
15420108 30 18054507177957041738
15664445 248 17461753806270408437
17913733 40 18201427134306356872
17974551 9 17556574344735940432
1813 80 16588025753445284221
19301679 30 17895767304737738259
19319366 153 17703789279544412120
1979834 28 18264502843647800779
21756936 100 17485357113259339616
21792934 111 18186522112584971473
21796203 349 18200301119000114130
22122407 14 17774995757452772937
23559900 14 18261402100492782797
23572383 38 18114739443276802995
244849 19 18339637824571233949
3178227 256 18343304778150214026
469060 322 17907833434876265269
50150288 127 16914507103597288943
508706 21 17898009032478717207
5104073 3 18408890633598673193
563151 74 18059845169090827697
57527306 92 14656043390860304210
59755656 520 17843399833486508208
6371380 46 17757257194363996061
6523845 18 18199755907050777436
6823239 73 18191038823687699654
7399639 24 18338233885487145033
86090 222 18188790365469659403

> <PUBCHEM_SHAPE_MULTIPOLES>
692.48
11.28
5.41
2.65
12.73
4.08
-0.84
-0.38
9.45
-6.09
-1.36
0.43
-0.55
5.45

> <PUBCHEM_SHAPE_SELFOVERLAP>
1540.843

> <PUBCHEM_SHAPE_VOLUME>
366.6

> <PUBCHEM_COORDINATE_TYPE>
2
5
10

$$$$
