10458124
  -OEChem-03292013303D

 73 79  0     1  0  0  0  0  0999 V2000
    4.6403    1.7573    0.2141 O   0  0  0  0  0  0  0  0  0  0  0  0
   -2.8735    1.3539    1.1607 O   0  0  0  0  0  0  0  0  0  0  0  0
   -4.7273    1.2197   -0.4987 O   0  0  0  0  0  0  0  0  0  0  0  0
    6.9859    0.4075    0.5926 O   0  0  0  0  0  0  0  0  0  0  0  0
    3.2494   -2.9500    0.0974 O   0  0  0  0  0  0  0  0  0  0  0  0
   -4.9878   -1.6641    1.5693 O   0  0  0  0  0  0  0  0  0  0  0  0
   -5.6377    0.9954    1.5530 O   0  0  0  0  0  0  0  0  0  0  0  0
   -0.5123    0.8457    0.6806 C   0  0  1  0  0  0  0  0  0  0  0  0
    1.9037    1.2014   -0.1412 C   0  0  1  0  0  0  0  0  0  0  0  0
    0.4044    1.3484   -0.4511 C   0  0  2  0  0  0  0  0  0  0  0  0
    2.2408   -0.2998    0.1256 C   0  0  1  0  0  0  0  0  0  0  0  0
    4.7258    0.3936   -0.2714 C   0  0  1  0  0  0  0  0  0  0  0  0
    3.7768   -0.5829    0.4480 C   0  0  1  0  0  0  0  0  0  0  0  0
   -1.9137    1.2303    0.1130 C   0  0  1  0  0  0  0  0  0  0  0  0
    4.1872    1.5278   -1.1158 C   0  0  1  0  0  0  0  0  0  0  0  0
    2.7326    1.7280   -1.3168 C   0  0  0  0  0  0  0  0  0  0  0  0
   -0.2247   -0.6510    0.8694 C   0  0  0  0  0  0  0  0  0  0  0  0
    1.2602   -0.9046    1.1802 C   0  0  0  0  0  0  0  0  0  0  0  0
   -0.1428    2.7394   -0.7586 C   0  0  0  0  0  0  0  0  0  0  0  0
   -2.5026    0.2494   -0.9088 C   0  0  1  0  0  0  0  0  0  0  0  0
   -1.6621    2.6168   -0.5385 C   0  0  0  0  0  0  0  0  0  0  0  0
    6.1617   -0.0277   -0.4907 C   0  0  2  0  0  0  0  0  0  0  0  0
   -0.2849    1.5818    2.0336 C   0  0  0  0  0  0  0  0  0  0  0  0
   -2.7613   -1.1547   -0.3306 C   0  0  0  0  0  0  0  0  0  0  0  0
   -3.8572    0.6564   -1.5057 C   0  0  1  0  0  0  0  0  0  0  0  0
   -4.2153   -1.5148   -0.7618 C   0  0  2  0  0  0  0  0  0  0  0  0
    4.0605   -0.5328    1.9658 C   0  0  0  0  0  0  0  0  0  0  0  0
    4.0734   -2.0397   -0.0064 C   0  0  0  0  0  0  0  0  0  0  0  0
   -4.4110   -0.6597   -2.0189 C   0  0  0  0  0  0  0  0  0  0  0  0
   -5.2368   -1.0397    0.3099 C   0  0  2  0  0  0  0  0  0  0  0  0
    6.3592   -1.4869   -0.7182 C   0  0  0  0  0  0  0  0  0  0  0  0
    5.4126   -2.4049   -0.5248 C   0  0  0  0  0  0  0  0  0  0  0  0
   -4.3214   -3.0117   -1.0657 C   0  0  0  0  0  0  0  0  0  0  0  0
   -5.2049    0.4696    0.5303 C   0  0  0  0  0  0  0  0  0  0  0  0
   -6.6971   -1.3974   -0.0196 C   0  0  0  0  0  0  0  0  0  0  0  0
    2.1547    1.7881    0.7499 H   0  0  0  0  0  0  0  0  0  0  0  0
    0.2227    0.7417   -1.3513 H   0  0  0  0  0  0  0  0  0  0  0  0
    2.0215   -0.8210   -0.8202 H   0  0  0  0  0  0  0  0  0  0  0  0
    4.7808    1.9184   -1.9313 H   0  0  0  0  0  0  0  0  0  0  0  0
    2.4359    1.2277   -2.2467 H   0  0  0  0  0  0  0  0  0  0  0  0
    2.5464    2.7988   -1.4582 H   0  0  0  0  0  0  0  0  0  0  0  0
   -0.3879   -1.2099   -0.0508 H   0  0  0  0  0  0  0  0  0  0  0  0
   -0.8217   -1.0793    1.6803 H   0  0  0  0  0  0  0  0  0  0  0  0
    1.4773   -0.5018    2.1744 H   0  0  0  0  0  0  0  0  0  0  0  0
    1.4022   -1.9868    1.2585 H   0  0  0  0  0  0  0  0  0  0  0  0
    0.0829    3.0492   -1.7843 H   0  0  0  0  0  0  0  0  0  0  0  0
    0.2796    3.4940   -0.0855 H   0  0  0  0  0  0  0  0  0  0  0  0
   -1.8065    0.1278   -1.7493 H   0  0  0  0  0  0  0  0  0  0  0  0
   -2.0126    3.4316    0.1064 H   0  0  0  0  0  0  0  0  0  0  0  0
   -2.1787    2.7388   -1.4949 H   0  0  0  0  0  0  0  0  0  0  0  0
    6.5393    0.4865   -1.3834 H   0  0  0  0  0  0  0  0  0  0  0  0
   -0.8893    1.1291    2.8281 H   0  0  0  0  0  0  0  0  0  0  0  0
    0.7533    1.5451    2.3725 H   0  0  0  0  0  0  0  0  0  0  0  0
   -0.5582    2.6408    1.9840 H   0  0  0  0  0  0  0  0  0  0  0  0
   -2.0845   -1.8706   -0.8115 H   0  0  0  0  0  0  0  0  0  0  0  0
   -2.6476   -1.2561    0.7448 H   0  0  0  0  0  0  0  0  0  0  0  0
   -3.7617    1.3879   -2.3129 H   0  0  0  0  0  0  0  0  0  0  0  0
    3.7433    0.4223    2.3983 H   0  0  0  0  0  0  0  0  0  0  0  0
    3.5605   -1.3437    2.5064 H   0  0  0  0  0  0  0  0  0  0  0  0
    5.1294   -0.6454    2.1778 H   0  0  0  0  0  0  0  0  0  0  0  0
   -5.4515   -0.5826   -2.3421 H   0  0  0  0  0  0  0  0  0  0  0  0
   -3.8166   -1.0360   -2.8606 H   0  0  0  0  0  0  0  0  0  0  0  0
   -2.7932    0.5837    1.7472 H   0  0  0  0  0  0  0  0  0  0  0  0
    7.3310   -1.8097   -1.0826 H   0  0  0  0  0  0  0  0  0  0  0  0
    5.6052   -3.4526   -0.7279 H   0  0  0  0  0  0  0  0  0  0  0  0
   -5.2900   -3.2675   -1.5067 H   0  0  0  0  0  0  0  0  0  0  0  0
   -3.5575   -3.3259   -1.7864 H   0  0  0  0  0  0  0  0  0  0  0  0
   -4.1867   -3.6112   -0.1592 H   0  0  0  0  0  0  0  0  0  0  0  0
    7.9031    0.1547    0.3904 H   0  0  0  0  0  0  0  0  0  0  0  0
   -7.0459   -0.9499   -0.9540 H   0  0  0  0  0  0  0  0  0  0  0  0
   -6.8460   -2.4812   -0.0664 H   0  0  0  0  0  0  0  0  0  0  0  0
   -7.3682   -1.0443    0.7742 H   0  0  0  0  0  0  0  0  0  0  0  0
   -4.1992   -1.2654    1.9709 H   0  0  0  0  0  0  0  0  0  0  0  0
  1 12  1  0  0  0  0
  1 15  1  0  0  0  0
  2 14  1  0  0  0  0
  2 63  1  0  0  0  0
  3 25  1  0  0  0  0
  3 34  1  0  0  0  0
  4 22  1  0  0  0  0
  4 69  1  0  0  0  0
  5 28  2  0  0  0  0
  6 30  1  0  0  0  0
  6 73  1  0  0  0  0
  7 34  2  0  0  0  0
  8 10  1  0  0  0  0
  8 14  1  0  0  0  0
  8 17  1  0  0  0  0
  8 23  1  0  0  0  0
  9 10  1  0  0  0  0
  9 11  1  0  0  0  0
  9 16  1  0  0  0  0
  9 36  1  0  0  0  0
 10 19  1  0  0  0  0
 10 37  1  0  0  0  0
 11 13  1  0  0  0  0
 11 18  1  0  0  0  0
 11 38  1  0  0  0  0
 12 13  1  0  0  0  0
 12 15  1  0  0  0  0
 12 22  1  0  0  0  0
 13 27  1  0  0  0  0
 13 28  1  0  0  0  0
 14 20  1  0  0  0  0
 14 21  1  0  0  0  0
 15 16  1  0  0  0  0
 15 39  1  0  0  0  0
 16 40  1  0  0  0  0
 16 41  1  0  0  0  0
 17 18  1  0  0  0  0
 17 42  1  0  0  0  0
 17 43  1  0  0  0  0
 18 44  1  0  0  0  0
 18 45  1  0  0  0  0
 19 21  1  0  0  0  0
 19 46  1  0  0  0  0
 19 47  1  0  0  0  0
 20 24  1  0  0  0  0
 20 25  1  0  0  0  0
 20 48  1  0  0  0  0
 21 49  1  0  0  0  0
 21 50  1  0  0  0  0
 22 31  1  0  0  0  0
 22 51  1  0  0  0  0
 23 52  1  0  0  0  0
 23 53  1  0  0  0  0
 23 54  1  0  0  0  0
 24 26  1  0  0  0  0
 24 55  1  0  0  0  0
 24 56  1  0  0  0  0
 25 29  1  0  0  0  0
 25 57  1  0  0  0  0
 26 29  1  0  0  0  0
 26 30  1  0  0  0  0
 26 33  1  0  0  0  0
 27 58  1  0  0  0  0
 27 59  1  0  0  0  0
 27 60  1  0  0  0  0
 28 32  1  0  0  0  0
 29 61  1  0  0  0  0
 29 62  1  0  0  0  0
 30 34  1  0  0  0  0
 30 35  1  0  0  0  0
 31 32  2  0  0  0  0
 31 64  1  0  0  0  0
 32 65  1  0  0  0  0
 33 66  1  0  0  0  0
 33 67  1  0  0  0  0
 33 68  1  0  0  0  0
 35 70  1  0  0  0  0
 35 71  1  0  0  0  0
 35 72  1  0  0  0  0
M  END
> <PUBCHEM_COMPOUND_CID>
10458124

> <PUBCHEM_CONFORMER_RMSD>
0.8

> <PUBCHEM_CONFORMER_DIVERSEORDER>
1

> <PUBCHEM_MMFF94_PARTIAL_CHARGES>
25
1 -0.3
12 -0.04
13 0.16
14 0.28
15 -0.05
16 0.09
2 -0.68
22 0.51
25 0.28
28 0.49
3 -0.43
30 0.34
31 -0.29
32 -0.14
34 0.66
39 0.1
4 -0.68
5 -0.57
6 -0.68
63 0.4
64 0.15
65 0.15
69 0.4
7 -0.57
73 0.4

> <PUBCHEM_EFFECTIVE_ROTOR_COUNT>
3.6

> <PUBCHEM_PHARMACOPHORE_FEATURES>
14
1 1 acceptor
1 2 acceptor
1 2 donor
1 4 acceptor
1 4 donor
1 5 acceptor
1 6 acceptor
1 6 donor
1 7 acceptor
5 8 10 14 19 21 rings
6 12 13 22 28 31 32 rings
6 8 9 10 11 17 18 rings
7 1 9 11 12 13 15 16 rings
8 3 20 24 25 26 29 30 34 rings

> <PUBCHEM_HEAVY_ATOM_COUNT>
35

> <PUBCHEM_ATOM_DEF_STEREO_COUNT>
13

> <PUBCHEM_ATOM_UDEF_STEREO_COUNT>
0

> <PUBCHEM_BOND_DEF_STEREO_COUNT>
0

> <PUBCHEM_BOND_UDEF_STEREO_COUNT>
0

> <PUBCHEM_ISOTOPIC_ATOM_COUNT>
0

> <PUBCHEM_COMPONENT_COUNT>
1

> <PUBCHEM_CACTVS_TAUTO_COUNT>
1

> <PUBCHEM_CONFORMER_ID>
009F940C00000001

> <PUBCHEM_MMFF94_ENERGY>
153.7848

> <PUBCHEM_FEATURE_SELFOVERLAP>
71.152

> <PUBCHEM_SHAPE_FINGERPRINT>
11089746 13 8718825388390969530
11578080 2 17201342208911370962
117089 54 17976262666798645995
11763715 3 18264789700403831988
11796584 16 17918278653352684246
12166972 35 18409171017543192796
12236239 1 18342182162917841489
12422481 6 18059582334604471471
12633257 1 15482381036518472446
12788726 201 18261948540302281072
13533116 47 18413392055656576628
1361 2 18334577966892243770
13690498 29 18116720608368347804
13782708 43 17917425381444381454
13811026 1 18410004433880814436
14347332 77 18335980853350142060
14394314 77 18342462521303743537
14840074 17 18131630092914409031
14856354 85 17917154987372095959
15001296 14 18115866463489471802
15064986 96 18128839516236314411
15082195 135 17896052091097772276
15142383 8 13326579532079228818
15183329 4 18408039623887641734
15361156 5 17896054181871249148
15537594 2 18130785685090254031
15799311 1 18272101508014152759
16110190 28 18343586243925391439
17349148 13 18040151812357922088
17492 89 18265049133460289622
17857418 61 18411980243871028340
18681886 176 18410851097396366160
20028762 73 18410292502092026610
21033648 29 14333139546391460507
21267235 1 18335426772066343605
22149856 69 18337405910767170937
22393880 68 17895746314357057444
22950370 63 18413671331245813989
23516275 137 17487927569244357878
23522609 53 18126034699826853921
23559900 14 18341601642554003216
23569914 152 17108999376069053918
23569943 247 17975135345083179026
24771293 8 18336259142031656228
2838139 119 8214151754465290367
3004659 81 18259701198911964494
4015057 19 17894920684040899289
4325135 7 18334294283890821399
46194498 28 17386286617989905813
463206 1 18263646319610296318
484989 97 17822867501419252866
497634 4 18342740667548586276
57527293 21 15841538700476248220
6086070 43 16916486083331602985
6669772 16 17909822468765230892
7495541 125 17346590881637463296
999808 66 18187657937876788211

> <PUBCHEM_SHAPE_MULTIPOLES>
679.2
16.47
2.79
1.51
3.27
0.53
-0.28
7.53
1.04
0.12
0.54
-0.78
-0.14
-0.65

> <PUBCHEM_SHAPE_SELFOVERLAP>
1509.111

> <PUBCHEM_SHAPE_VOLUME>
357.9

> <PUBCHEM_COORDINATE_TYPE>
2
5
10

$$$$
