10453870
  -OEChem-03292013303D

 49 52  0     1  0  0  0  0  0999 V2000
   -2.5369   -0.9506   -1.3366 S   0  0  0  0  0  0  0  0  0  0  0  0
   -1.8039    3.7110    0.4425 F   0  0  0  0  0  0  0  0  0  0  0  0
    3.4426    0.4705   -0.4474 O   0  0  0  0  0  0  0  0  0  0  0  0
    1.6805   -1.2980    2.2430 O   0  0  0  0  0  0  0  0  0  0  0  0
    3.0758   -3.4381    0.7908 O   0  0  0  0  0  0  0  0  0  0  0  0
    5.5844   -2.4947   -0.2686 O   0  0  0  0  0  0  0  0  0  0  0  0
    5.6499    1.4688   -1.7419 O   0  0  0  0  0  0  0  0  0  0  0  0
    2.2853   -1.1604    0.9574 C   0  0  2  0  0  0  0  0  0  0  0  0
    3.5079   -2.0793    0.8813 C   0  0  2  0  0  0  0  0  0  0  0  0
    4.3587   -1.7719   -0.3508 C   0  0  1  0  0  0  0  0  0  0  0  0
    2.6885    0.3087    0.7584 C   0  0  2  0  0  0  0  0  0  0  0  0
    4.6609   -0.2749   -0.4422 C   0  0  1  0  0  0  0  0  0  0  0  0
    1.4807    1.2211    0.6713 C   0  0  0  0  0  0  0  0  0  0  0  0
    5.4159    0.0724   -1.7212 C   0  0  0  0  0  0  0  0  0  0  0  0
    0.5250    1.0171   -0.3228 C   0  0  0  0  0  0  0  0  0  0  0  0
    1.3287    2.2622    1.5853 C   0  0  0  0  0  0  0  0  0  0  0  0
   -0.5860    1.8568   -0.4030 C   0  0  0  0  0  0  0  0  0  0  0  0
   -1.6079    1.6374   -1.4673 C   0  0  0  0  0  0  0  0  0  0  0  0
    0.2177    3.1019    1.5053 C   0  0  0  0  0  0  0  0  0  0  0  0
   -0.7396    2.8994    0.5111 C   0  0  0  0  0  0  0  0  0  0  0  0
   -2.7239    0.7006   -1.0491 C   0  0  0  0  0  0  0  0  0  0  0  0
   -3.8908    1.0344   -0.4538 C   0  0  0  0  0  0  0  0  0  0  0  0
   -4.7074   -0.1192   -0.2040 C   0  0  0  0  0  0  0  0  0  0  0  0
   -4.0792   -1.2886   -0.6435 C   0  0  0  0  0  0  0  0  0  0  0  0
   -5.9872   -0.2302    0.3917 C   0  0  0  0  0  0  0  0  0  0  0  0
   -4.6906   -2.5501   -0.5041 C   0  0  0  0  0  0  0  0  0  0  0  0
   -6.5963   -1.4800    0.5312 C   0  0  0  0  0  0  0  0  0  0  0  0
   -5.9530   -2.6265    0.0872 C   0  0  0  0  0  0  0  0  0  0  0  0
    1.5500   -1.4924    0.2160 H   0  0  0  0  0  0  0  0  0  0  0  0
    4.1117   -2.0072    1.7943 H   0  0  0  0  0  0  0  0  0  0  0  0
    3.8345   -2.1160   -1.2508 H   0  0  0  0  0  0  0  0  0  0  0  0
    3.3131    0.6372    1.6007 H   0  0  0  0  0  0  0  0  0  0  0  0
    5.2685    0.0574    0.4106 H   0  0  0  0  0  0  0  0  0  0  0  0
    4.8326   -0.1817   -2.6125 H   0  0  0  0  0  0  0  0  0  0  0  0
    6.3811   -0.4394   -1.7737 H   0  0  0  0  0  0  0  0  0  0  0  0
    0.6484    0.2161   -1.0472 H   0  0  0  0  0  0  0  0  0  0  0  0
    2.3295   -1.0220    2.9125 H   0  0  0  0  0  0  0  0  0  0  0  0
    2.5135   -3.6153    1.5643 H   0  0  0  0  0  0  0  0  0  0  0  0
    6.0613   -2.1888    0.5217 H   0  0  0  0  0  0  0  0  0  0  0  0
    2.0655    2.4327    2.3654 H   0  0  0  0  0  0  0  0  0  0  0  0
   -2.0462    2.6006   -1.7634 H   0  0  0  0  0  0  0  0  0  0  0  0
   -1.1222    1.2689   -2.3815 H   0  0  0  0  0  0  0  0  0  0  0  0
    0.0975    3.9135    2.2169 H   0  0  0  0  0  0  0  0  0  0  0  0
    4.7860    1.9126   -1.6911 H   0  0  0  0  0  0  0  0  0  0  0  0
   -4.1757    2.0472   -0.1963 H   0  0  0  0  0  0  0  0  0  0  0  0
   -6.5037    0.6592    0.7445 H   0  0  0  0  0  0  0  0  0  0  0  0
   -4.1944   -3.4530   -0.8487 H   0  0  0  0  0  0  0  0  0  0  0  0
   -7.5785   -1.5521    0.9899 H   0  0  0  0  0  0  0  0  0  0  0  0
   -6.4346   -3.5940    0.2000 H   0  0  0  0  0  0  0  0  0  0  0  0
  1 21  1  0  0  0  0
  1 24  1  0  0  0  0
  2 20  1  0  0  0  0
  3 11  1  0  0  0  0
  3 12  1  0  0  0  0
  4  8  1  0  0  0  0
  4 37  1  0  0  0  0
  5  9  1  0  0  0  0
  5 38  1  0  0  0  0
  6 10  1  0  0  0  0
  6 39  1  0  0  0  0
  7 14  1  0  0  0  0
  7 44  1  0  0  0  0
  8  9  1  0  0  0  0
  8 11  1  0  0  0  0
  8 29  1  0  0  0  0
  9 10  1  0  0  0  0
  9 30  1  0  0  0  0
 10 12  1  0  0  0  0
 10 31  1  0  0  0  0
 11 13  1  0  0  0  0
 11 32  1  0  0  0  0
 12 14  1  0  0  0  0
 12 33  1  0  0  0  0
 13 15  2  0  0  0  0
 13 16  1  0  0  0  0
 14 34  1  0  0  0  0
 14 35  1  0  0  0  0
 15 17  1  0  0  0  0
 15 36  1  0  0  0  0
 16 19  2  0  0  0  0
 16 40  1  0  0  0  0
 17 18  1  0  0  0  0
 17 20  2  0  0  0  0
 18 21  1  0  0  0  0
 18 41  1  0  0  0  0
 18 42  1  0  0  0  0
 19 20  1  0  0  0  0
 19 43  1  0  0  0  0
 21 22  2  0  0  0  0
 22 23  1  0  0  0  0
 22 45  1  0  0  0  0
 23 24  1  0  0  0  0
 23 25  2  0  0  0  0
 24 26  2  0  0  0  0
 25 27  1  0  0  0  0
 25 46  1  0  0  0  0
 26 28  1  0  0  0  0
 26 47  1  0  0  0  0
 27 28  2  0  0  0  0
 27 48  1  0  0  0  0
 28 49  1  0  0  0  0
M  END
> <PUBCHEM_COMPOUND_CID>
10453870

> <PUBCHEM_CONFORMER_RMSD>
0.8

> <PUBCHEM_CONFORMER_DIVERSEORDER>
1
42
65
85
82
34
179
113
226
66
111
140
50
232
96
185
167
176
107
168
11
207
24
206
73
2
199
36
173
13
138
200
37
105
135
98
141
93
29
204
72
151
39
211
70
228
108
62
32
68
101
215
86
19
218
201
172
143
181
220
100
64
14
112
202
51
210
33
136
30
67
46
225
142
203
194
175
230
119
88
38
214
158
8
148
23
18
16
121
163
104
229
125
26
17
74
116
58
27
81
169
22
90
183
10
178
219
197
180
92
217
47
145
59
44
134
54
193
124
157
61
171
89
71
41
20
146
224
56
205
94
9
21
192
15
139
221
154
45
137
184
209
40
191
99
75
187
196
109
161
189
4
212
31
164
60
28
3
83
170
149
195
48
7
35
79
150
130
128
25
133
6
123
91
188
49
155
55
186
84
115
190
103
160
156
53
87
216
77
127
5
97
76
69
213
223
131
78
162
222
110
227
118
177
208
147
117
152
63
174
144
95
43
57
80
12
120
159
52
198
114
182
166
126
132
231
102
129
122
106
165
153

> <PUBCHEM_MMFF94_PARTIAL_CHARGES>
39
1 -0.08
10 0.28
11 0.42
12 0.28
13 -0.14
14 0.28
15 -0.15
16 -0.15
17 -0.14
18 0.32
19 -0.15
2 -0.19
20 0.19
21 -0.14
22 -0.15
24 0.04
25 -0.15
26 -0.15
27 -0.15
28 -0.15
3 -0.56
36 0.15
37 0.4
38 0.4
39 0.4
4 -0.68
40 0.15
43 0.15
44 0.4
45 0.15
46 0.15
47 0.15
48 0.15
49 0.15
5 -0.68
6 -0.68
7 -0.68
8 0.28
9 0.28

> <PUBCHEM_EFFECTIVE_ROTOR_COUNT>
5.2

> <PUBCHEM_PHARMACOPHORE_FEATURES>
13
1 3 acceptor
1 4 acceptor
1 4 donor
1 5 acceptor
1 5 donor
1 6 acceptor
1 6 donor
1 7 acceptor
1 7 donor
5 1 21 22 23 24 rings
6 13 15 16 17 19 20 rings
6 23 24 25 26 27 28 rings
6 3 8 9 10 11 12 rings

> <PUBCHEM_HEAVY_ATOM_COUNT>
28

> <PUBCHEM_ATOM_DEF_STEREO_COUNT>
5

> <PUBCHEM_ATOM_UDEF_STEREO_COUNT>
0

> <PUBCHEM_BOND_DEF_STEREO_COUNT>
0

> <PUBCHEM_BOND_UDEF_STEREO_COUNT>
0

> <PUBCHEM_ISOTOPIC_ATOM_COUNT>
0

> <PUBCHEM_COMPONENT_COUNT>
1

> <PUBCHEM_CACTVS_TAUTO_COUNT>
1

> <PUBCHEM_CONFORMER_ID>
009F836E00000001

> <PUBCHEM_MMFF94_ENERGY>
69.8779

> <PUBCHEM_FEATURE_SELFOVERLAP>
66.048

> <PUBCHEM_SHAPE_FINGERPRINT>
10622 236 17826780448454461938
10692045 39 13614256874987858141
10763959 59 9655303674068140680
10764073 3 11527406865253955960
10794284 68 17485407522689327344
10928967 22 18270945912777538919
11315621 136 18265338296824346270
11456790 92 17632030728097012563
117089 54 18057052310904820414
11796584 16 18190451671540343773
11991303 11 17899125015575936997
12128747 34 14547639932063336997
12553582 1 18200296780212239013
12633257 1 14620505753199961489
12788726 201 18272093734260230656
13103583 49 18059586780322936313
13135754 10 17273992249978700593
13402501 40 18408040727979475931
13533116 47 18123745624861703935
1361 2 17532101664502549724
13631057 29 18409449172430568724
13690498 29 18333730213309814365
13726171 33 17988375771463111304
13911852 28 18341886394933502743
14251757 5 18408887317203762563
14251764 30 18342176669844502527
14341114 176 18201440350284671153
14420673 8 18412829058542995575
14767858 380 18188219796565313060
14866123 147 18126000461016833761
14951699 99 11599706399358742650
15475509 84 17275109435718985057
15537594 2 18412261765760459871
15721738 202 17968101927527587510
16991981 162 15866295171174585255
17492 89 18196091032757831590
17909252 39 18270959055867841202
1813 80 17676476294420217045
19319366 153 18187075183349571314
20775530 9 18335406972773836011
21033648 29 15626230074614707249
21591331 117 18273219702680581485
21859007 373 12894533013365617403
22950370 63 18411983559322101621
235170 7 15719662183065411151
23522609 53 18193870139259964837
23559900 14 18189047754901957917
3117164 225 18343301501179902649
329604 57 18409167693042891670
3421961 26 18270674389440110097
3737641 26 18411411839019172609
4058900 60 17330549848792291261
437795 51 18197503037589664972
439807 62 18260265218249432623
44880168 125 17132116805679988334
46194498 28 17386004043659796893
463206 1 18337387257366183067
474 4 9583249365822774553
54039377 194 18339645534555085974
57527585 21 16155710863863673980
5912855 24 18270973319100582328
6823239 73 18341884233989699779
7097593 13 17912632799284854957
7970288 3 18341891866242185959
86090 222 17460024296741178659
8863177 126 18341047527495801239

> <PUBCHEM_SHAPE_MULTIPOLES>
543.46
14.68
3.83
1.53
6.46
0.76
-0.04
-12.02
2.85
-0.33
-1.25
-1.34
0.29
-0.4

> <PUBCHEM_SHAPE_SELFOVERLAP>
1172.515

> <PUBCHEM_SHAPE_VOLUME>
302.4

> <PUBCHEM_COORDINATE_TYPE>
2
5
10

$$$$
