10457506
  -OEChem-03292013303D

 53 54  0     1  0  0  0  0  0999 V2000
    4.0801   -1.8457    2.3628 F   0  0  0  0  0  0  0  0  0  0  0  0
    4.0084    0.3223    2.5626 F   0  0  0  0  0  0  0  0  0  0  0  0
    5.7867   -0.6404    1.7467 F   0  0  0  0  0  0  0  0  0  0  0  0
    3.1100    4.3771   -0.4321 F   0  0  0  0  0  0  0  0  0  0  0  0
    4.0471    0.4343   -0.3105 O   0  0  0  0  0  0  0  0  0  0  0  0
    0.1670   -1.7920    0.5012 O   0  0  0  0  0  0  0  0  0  0  0  0
   -2.6720   -2.0343   -1.1877 O   0  0  0  0  0  0  0  0  0  0  0  0
   -7.0689   -1.5216    0.5036 O   0  0  0  0  0  0  0  0  0  0  0  0
   -6.2791    0.5548    1.0839 O   0  0  0  0  0  0  0  0  0  0  0  0
    1.9231   -1.1878   -0.8974 N   0  0  0  0  0  0  0  0  0  0  0  0
   -1.4979   -0.0410   -0.8250 N   0  0  0  0  0  0  0  0  0  0  0  0
   -2.5767    1.7560    0.3200 N   0  0  0  0  0  0  0  0  0  0  0  0
   -4.9450   -1.0037   -0.0098 N   0  0  0  0  0  0  0  0  0  0  0  0
    3.8244   -2.8016   -0.8568 C   0  0  0  0  0  0  0  0  0  0  0  0
    2.9977   -1.7370   -0.1113 C   0  0  1  0  0  0  0  0  0  0  0  0
    4.5633   -2.1837   -2.0482 C   0  0  0  0  0  0  0  0  0  0  0  0
    2.9937   -3.9993   -1.3285 C   0  0  0  0  0  0  0  0  0  0  0  0
    3.8536   -0.5717    0.3726 C   0  0  0  0  0  0  0  0  0  0  0  0
    0.5859   -1.2608   -0.5241 C   0  0  0  0  0  0  0  0  0  0  0  0
   -0.3109   -0.5499   -1.5152 C   0  0  0  0  0  0  0  0  0  0  0  0
    4.4313   -0.6835    1.7563 C   0  0  0  0  0  0  0  0  0  0  0  0
   -1.5313    1.2416   -0.2542 C   0  0  0  0  0  0  0  0  0  0  0  0
   -2.6159   -0.8834   -0.7591 C   0  0  0  0  0  0  0  0  0  0  0  0
   -0.3101    2.0675   -0.3006 C   0  0  0  0  0  0  0  0  0  0  0  0
   -3.7996   -0.2711   -0.1013 C   0  0  0  0  0  0  0  0  0  0  0  0
   -3.6961    0.9742    0.3729 C   0  0  0  0  0  0  0  0  0  0  0  0
    0.6208    1.9950    0.7357 C   0  0  0  0  0  0  0  0  0  0  0  0
   -0.0855    2.9203   -1.3813 C   0  0  0  0  0  0  0  0  0  0  0  0
    1.7761    2.7752    0.6914 C   0  0  0  0  0  0  0  0  0  0  0  0
    1.0699    3.7006   -1.4258 C   0  0  0  0  0  0  0  0  0  0  0  0
    2.0006    3.6280   -0.3894 C   0  0  0  0  0  0  0  0  0  0  0  0
   -6.1109   -0.5489    0.5745 C   0  0  0  0  0  0  0  0  0  0  0  0
   -8.3397   -1.1895    1.0740 C   0  0  0  0  0  0  0  0  0  0  0  0
    4.5875   -3.1814   -0.1642 H   0  0  0  0  0  0  0  0  0  0  0  0
    2.5453   -2.2079    0.7682 H   0  0  0  0  0  0  0  0  0  0  0  0
    2.1681   -0.6795   -1.7420 H   0  0  0  0  0  0  0  0  0  0  0  0
    5.2719   -1.4118   -1.7337 H   0  0  0  0  0  0  0  0  0  0  0  0
    5.1469   -2.9505   -2.5704 H   0  0  0  0  0  0  0  0  0  0  0  0
    3.8745   -1.7464   -2.7780 H   0  0  0  0  0  0  0  0  0  0  0  0
    2.4616   -4.4540   -0.4863 H   0  0  0  0  0  0  0  0  0  0  0  0
    3.6371   -4.7668   -1.7717 H   0  0  0  0  0  0  0  0  0  0  0  0
    2.2539   -3.7058   -2.0805 H   0  0  0  0  0  0  0  0  0  0  0  0
    0.2211    0.2575   -2.0232 H   0  0  0  0  0  0  0  0  0  0  0  0
   -0.6050   -1.2813   -2.2764 H   0  0  0  0  0  0  0  0  0  0  0  0
   -4.4807    1.5222    0.8641 H   0  0  0  0  0  0  0  0  0  0  0  0
    0.4568    1.3328    1.5820 H   0  0  0  0  0  0  0  0  0  0  0  0
   -0.8039    2.9840   -2.1944 H   0  0  0  0  0  0  0  0  0  0  0  0
   -4.9379   -1.9431   -0.3972 H   0  0  0  0  0  0  0  0  0  0  0  0
    2.5018    2.7175    1.4973 H   0  0  0  0  0  0  0  0  0  0  0  0
    1.2452    4.3643   -2.2672 H   0  0  0  0  0  0  0  0  0  0  0  0
   -9.0032   -2.0492    0.9488 H   0  0  0  0  0  0  0  0  0  0  0  0
   -8.7750   -0.3309    0.5540 H   0  0  0  0  0  0  0  0  0  0  0  0
   -8.2319   -0.9815    2.1428 H   0  0  0  0  0  0  0  0  0  0  0  0
  1 21  1  0  0  0  0
  2 21  1  0  0  0  0
  3 21  1  0  0  0  0
  4 31  1  0  0  0  0
  5 18  2  0  0  0  0
  6 19  2  0  0  0  0
  7 23  2  0  0  0  0
  8 32  1  0  0  0  0
  8 33  1  0  0  0  0
  9 32  2  0  0  0  0
 10 15  1  0  0  0  0
 10 19  1  0  0  0  0
 10 36  1  0  0  0  0
 11 20  1  0  0  0  0
 11 22  1  0  0  0  0
 11 23  1  0  0  0  0
 12 22  2  0  0  0  0
 12 26  1  0  0  0  0
 13 25  1  0  0  0  0
 13 32  1  0  0  0  0
 13 48  1  0  0  0  0
 14 15  1  0  0  0  0
 14 16  1  0  0  0  0
 14 17  1  0  0  0  0
 14 34  1  0  0  0  0
 15 18  1  0  0  0  0
 15 35  1  0  0  0  0
 16 37  1  0  0  0  0
 16 38  1  0  0  0  0
 16 39  1  0  0  0  0
 17 40  1  0  0  0  0
 17 41  1  0  0  0  0
 17 42  1  0  0  0  0
 18 21  1  0  0  0  0
 19 20  1  0  0  0  0
 20 43  1  0  0  0  0
 20 44  1  0  0  0  0
 22 24  1  0  0  0  0
 23 25  1  0  0  0  0
 24 27  2  0  0  0  0
 24 28  1  0  0  0  0
 25 26  2  0  0  0  0
 26 45  1  0  0  0  0
 27 29  1  0  0  0  0
 27 46  1  0  0  0  0
 28 30  2  0  0  0  0
 28 47  1  0  0  0  0
 29 31  2  0  0  0  0
 29 49  1  0  0  0  0
 30 31  1  0  0  0  0
 30 50  1  0  0  0  0
 33 51  1  0  0  0  0
 33 52  1  0  0  0  0
 33 53  1  0  0  0  0
M  END
> <PUBCHEM_COMPOUND_CID>
10457506

> <PUBCHEM_CONFORMER_RMSD>
1

> <PUBCHEM_CONFORMER_DIVERSEORDER>
1
156
163
221
57
100
224
213
114
95
116
122
105
189
130
56
136
58
27
99
194
128
23
51
77
26
186
235
216
129
161
226
98
106
141
50
79
145
89
20
113
52
195
47
126
191
165
93
43
81
121
69
96
230
83
167
67
91
131
240
175
62
217
9
86
173
238
198
232
148
74
164
231
6
209
36
239
72
88
34
44
142
111
139
166
82
31
55
212
204
215
202
182
188
45
108
123
229
84
157
21
147
144
92
66
32
205
150
10
218
127
18
17
172
68
76
110
210
234
90
118
16
38
184
8
228
137
97
49
225
112
176
70
22
42
133
214
227
63
199
107
220
40
37
103
46
132
149
124
19
13
35
59
200
85
151
41
53
162
15
154
109
183
102
206
135
197
160
153
169
159
187
237
171
192
78
14
60
223
180
174
208
7
73
134
233
11
143
87
30
12
4
155
5
203
190
125
61
168
94
117
101
178
75
196
236
158
24
140
211
146
54
71
65
104
201
170
152
207
39
64
222
119
33
185
3
28
181
2
138
25
177
115
120
29
48
80
193
219
179

> <PUBCHEM_MMFF94_PARTIAL_CHARGES>
37
1 -0.34
10 -0.73
11 -0.42
12 -0.62
13 -0.54
15 0.36
18 0.45
19 0.57
2 -0.34
20 0.36
21 1.08
22 0.42
23 0.62
24 0.09
25 0.12
26 0.02
27 -0.15
28 -0.15
29 -0.15
3 -0.34
30 -0.15
31 0.19
32 0.78
33 0.28
36 0.37
4 -0.19
45 0.15
46 0.15
47 0.15
48 0.37
49 0.15
5 -0.57
50 0.15
6 -0.57
7 -0.57
8 -0.43
9 -0.57

> <PUBCHEM_EFFECTIVE_ROTOR_COUNT>
11

> <PUBCHEM_PHARMACOPHORE_FEATURES>
9
1 10 donor
1 13 donor
1 5 acceptor
1 6 acceptor
1 7 acceptor
1 9 acceptor
3 14 16 17 hydrophobe
6 11 12 22 23 25 26 rings
6 24 27 28 29 30 31 rings

> <PUBCHEM_HEAVY_ATOM_COUNT>
33

> <PUBCHEM_ATOM_DEF_STEREO_COUNT>
0

> <PUBCHEM_ATOM_UDEF_STEREO_COUNT>
1

> <PUBCHEM_BOND_DEF_STEREO_COUNT>
0

> <PUBCHEM_BOND_UDEF_STEREO_COUNT>
0

> <PUBCHEM_ISOTOPIC_ATOM_COUNT>
0

> <PUBCHEM_COMPONENT_COUNT>
1

> <PUBCHEM_CACTVS_TAUTO_COUNT>
8

> <PUBCHEM_CONFORMER_ID>
009F91A200000001

> <PUBCHEM_MMFF94_ENERGY>
84.1995

> <PUBCHEM_FEATURE_SELFOVERLAP>
45.672

> <PUBCHEM_SHAPE_FINGERPRINT>
10165383 225 17846495968220251730
10169797 241 17825130326451404291
11578080 2 12103027603658523905
11963148 33 17614843342045880931
12107698 1 18334573551861120665
12156800 1 14905406684095410528
12342043 65 17700138690656454334
12422481 6 18271511044547517809
12553582 1 18410847751205347340
131258 43 18052293667993287134
13533116 47 18270969050351502265
13540713 5 18054783159928901295
13673619 4 17702113456747913550
13782708 43 17458625657931750995
13785724 45 18198922317858234511
14955137 171 18201449030133806637
15420108 30 17910383215579076148
15840311 113 17346322553708412379
15927050 60 17982460591587893775
1813 80 18261393316994791037
18393751 57 18270944843968771274
18785283 64 18262799691261799221
19315092 285 16227428700429421266
1979834 28 18202843253553400634
20578428 11 17241900967428788021
21421861 104 18339080496482232221
23559900 14 18411990173492993199
25147074 1 18058446694323789983
3411729 13 18192153908729623925
350125 39 18412553106952451325
5104073 3 17986391096754934867
6287921 2 18200866370591294556

> <PUBCHEM_SHAPE_MULTIPOLES>
600.76
14.26
4.58
1.71
27.32
3.3
-0.62
-10.76
-6.87
-5.52
2
-2.5
-0.42
0.76

> <PUBCHEM_SHAPE_SELFOVERLAP>
1269.271

> <PUBCHEM_SHAPE_VOLUME>
335.3

> <PUBCHEM_COORDINATE_TYPE>
2
5
10

$$$$
