10454661
  -OEChem-03292013303D

 56 59  0     1  0  0  0  0  0999 V2000
   -0.5312   -1.4403    1.4620 S   0  0  0  0  0  0  0  0  0  0  0  0
   -5.9820   -0.6580    0.2611 O   0  0  0  0  0  0  0  0  0  0  0  0
   -5.4126    2.2577   -1.8397 O   0  0  0  0  0  0  0  0  0  0  0  0
   -3.9098   -2.7720   -1.1657 O   0  0  0  0  0  0  0  0  0  0  0  0
   -2.9130   -3.4431    0.7802 O   0  0  0  0  0  0  0  0  0  0  0  0
   -3.7526   -0.2067   -0.3622 N   0  0  0  0  0  0  0  0  0  0  0  0
    2.0748   -0.8270   -1.4704 N   0  0  0  0  0  0  0  0  0  0  0  0
    8.4692    1.6660    1.1444 N   0  0  0  0  0  0  0  0  0  0  0  0
   -3.2138    1.1491   -0.1304 C   0  0  1  0  0  0  0  0  0  0  0  0
   -4.6603    1.5287    0.3181 C   0  0  2  0  0  0  0  0  0  0  0  0
   -1.9684    0.9081    0.7487 C   0  0  2  0  0  0  0  0  0  0  0  0
   -5.0192    0.0486    0.0651 C   0  0  0  0  0  0  0  0  0  0  0  0
   -1.8514   -0.6062    0.7457 C   0  0  0  0  0  0  0  0  0  0  0  0
   -2.9062   -1.1569    0.1294 C   0  0  0  0  0  0  0  0  0  0  0  0
   -5.5128    2.5159   -0.4383 C   0  0  1  0  0  0  0  0  0  0  0  0
   -2.0513    1.5270    2.1344 C   0  0  0  0  0  0  0  0  0  0  0  0
    0.8380   -0.7672    0.4855 C   0  0  1  0  0  0  0  0  0  0  0  0
    2.1917   -1.3583    0.8675 C   0  0  0  0  0  0  0  0  0  0  0  0
    2.9927   -1.3569   -0.4474 C   0  0  2  0  0  0  0  0  0  0  0  0
   -5.0722    3.9507   -0.1670 C   0  0  0  0  0  0  0  0  0  0  0  0
    0.7199   -1.0975   -0.9913 C   0  0  0  0  0  0  0  0  0  0  0  0
   -3.2240   -2.5734   -0.0183 C   0  0  0  0  0  0  0  0  0  0  0  0
    4.2769   -0.5627   -0.3816 C   0  0  0  0  0  0  0  0  0  0  0  0
    5.4993   -1.1893   -0.6273 C   0  0  0  0  0  0  0  0  0  0  0  0
    4.2419    0.7982   -0.0742 C   0  0  0  0  0  0  0  0  0  0  0  0
    6.6846   -0.4566   -0.5655 C   0  0  0  0  0  0  0  0  0  0  0  0
    5.4272    1.5310   -0.0125 C   0  0  0  0  0  0  0  0  0  0  0  0
    6.6487    0.9037   -0.2582 C   0  0  0  0  0  0  0  0  0  0  0  0
    7.9157    1.6874   -0.1922 C   0  0  0  0  0  0  0  0  0  0  0  0
   -2.9249    1.6145   -1.0837 H   0  0  0  0  0  0  0  0  0  0  0  0
   -4.7237    1.7467    1.3942 H   0  0  0  0  0  0  0  0  0  0  0  0
   -1.1057    1.3426    0.2289 H   0  0  0  0  0  0  0  0  0  0  0  0
   -6.5646    2.4027   -0.1520 H   0  0  0  0  0  0  0  0  0  0  0  0
   -1.1090    1.4088    2.6795 H   0  0  0  0  0  0  0  0  0  0  0  0
   -2.2660    2.5986    2.0636 H   0  0  0  0  0  0  0  0  0  0  0  0
   -2.8447    1.0687    2.7350 H   0  0  0  0  0  0  0  0  0  0  0  0
    0.8856    0.3191    0.6312 H   0  0  0  0  0  0  0  0  0  0  0  0
    2.0911   -2.3954    1.2139 H   0  0  0  0  0  0  0  0  0  0  0  0
    2.6583   -0.7869    1.6776 H   0  0  0  0  0  0  0  0  0  0  0  0
    3.2216   -2.4007   -0.7022 H   0  0  0  0  0  0  0  0  0  0  0  0
    0.4643   -2.1494   -1.1689 H   0  0  0  0  0  0  0  0  0  0  0  0
   -0.0030   -0.4636   -1.5129 H   0  0  0  0  0  0  0  0  0  0  0  0
   -4.0386    4.1102   -0.4937 H   0  0  0  0  0  0  0  0  0  0  0  0
   -5.6950    4.6577   -0.7252 H   0  0  0  0  0  0  0  0  0  0  0  0
   -5.1360    4.1905    0.8989 H   0  0  0  0  0  0  0  0  0  0  0  0
    2.2406   -1.2703   -2.3723 H   0  0  0  0  0  0  0  0  0  0  0  0
   -5.9819    2.8999   -2.2969 H   0  0  0  0  0  0  0  0  0  0  0  0
   -4.1409   -3.7162   -1.2977 H   0  0  0  0  0  0  0  0  0  0  0  0
    5.5440   -2.2482   -0.8674 H   0  0  0  0  0  0  0  0  0  0  0  0
    3.3007    1.3051    0.1207 H   0  0  0  0  0  0  0  0  0  0  0  0
    7.6298   -0.9576   -0.7575 H   0  0  0  0  0  0  0  0  0  0  0  0
    5.3856    2.5898    0.2294 H   0  0  0  0  0  0  0  0  0  0  0  0
    8.6499    1.2867   -0.9010 H   0  0  0  0  0  0  0  0  0  0  0  0
    7.7398    2.7246   -0.5011 H   0  0  0  0  0  0  0  0  0  0  0  0
    8.6533    0.7074    1.4371 H   0  0  0  0  0  0  0  0  0  0  0  0
    7.8022    2.0519    1.8112 H   0  0  0  0  0  0  0  0  0  0  0  0
  1 13  1  0  0  0  0
  1 17  1  0  0  0  0
  2 12  2  0  0  0  0
  3 15  1  0  0  0  0
  3 47  1  0  0  0  0
  4 22  1  0  0  0  0
  4 48  1  0  0  0  0
  5 22  2  0  0  0  0
  6  9  1  0  0  0  0
  6 12  1  0  0  0  0
  6 14  1  0  0  0  0
  7 19  1  0  0  0  0
  7 21  1  0  0  0  0
  7 46  1  0  0  0  0
  8 29  1  0  0  0  0
  8 55  1  0  0  0  0
  8 56  1  0  0  0  0
  9 10  1  0  0  0  0
  9 11  1  0  0  0  0
  9 30  1  0  0  0  0
 10 12  1  0  0  0  0
 10 15  1  0  0  0  0
 10 31  1  0  0  0  0
 11 13  1  0  0  0  0
 11 16  1  0  0  0  0
 11 32  1  0  0  0  0
 13 14  2  0  0  0  0
 14 22  1  0  0  0  0
 15 20  1  0  0  0  0
 15 33  1  0  0  0  0
 16 34  1  0  0  0  0
 16 35  1  0  0  0  0
 16 36  1  0  0  0  0
 17 18  1  0  0  0  0
 17 21  1  0  0  0  0
 17 37  1  0  0  0  0
 18 19  1  0  0  0  0
 18 38  1  0  0  0  0
 18 39  1  0  0  0  0
 19 23  1  0  0  0  0
 19 40  1  0  0  0  0
 20 43  1  0  0  0  0
 20 44  1  0  0  0  0
 20 45  1  0  0  0  0
 21 41  1  0  0  0  0
 21 42  1  0  0  0  0
 23 24  2  0  0  0  0
 23 25  1  0  0  0  0
 24 26  1  0  0  0  0
 24 49  1  0  0  0  0
 25 27  2  0  0  0  0
 25 50  1  0  0  0  0
 26 28  2  0  0  0  0
 26 51  1  0  0  0  0
 27 28  1  0  0  0  0
 27 52  1  0  0  0  0
 28 29  1  0  0  0  0
 29 53  1  0  0  0  0
 29 54  1  0  0  0  0
M  END
> <PUBCHEM_COMPOUND_CID>
10454661

> <PUBCHEM_CONFORMER_RMSD>
1

> <PUBCHEM_CONFORMER_DIVERSEORDER>
1
24
4
20
19
9
22
10
14
21
12
11
6
7
15
23
17
5
25
3
18
13
16
8
2

> <PUBCHEM_MMFF94_PARTIAL_CHARGES>
35
1 -0.33
10 0.05
11 0.14
12 0.58
13 -0.04
14 0.12
15 0.28
17 0.23
19 0.41
2 -0.57
21 0.27
22 0.71
23 -0.14
24 -0.15
25 -0.15
26 -0.15
27 -0.15
28 -0.14
29 0.41
3 -0.68
4 -0.65
46 0.36
47 0.4
48 0.5
49 0.15
5 -0.57
50 0.15
51 0.15
52 0.15
55 0.36
56 0.36
6 -0.39
7 -0.9
8 -0.99
9 0.22

> <PUBCHEM_EFFECTIVE_ROTOR_COUNT>
7.4

> <PUBCHEM_PHARMACOPHORE_FEATURES>
13
1 2 acceptor
1 3 acceptor
1 3 donor
1 4 acceptor
1 5 acceptor
1 7 cation
1 7 donor
1 8 cation
1 8 donor
3 4 5 22 anion
5 7 17 18 19 21 rings
6 23 24 25 26 27 28 rings
7 6 9 10 11 12 13 14 rings

> <PUBCHEM_HEAVY_ATOM_COUNT>
29

> <PUBCHEM_ATOM_DEF_STEREO_COUNT>
6

> <PUBCHEM_ATOM_UDEF_STEREO_COUNT>
0

> <PUBCHEM_BOND_DEF_STEREO_COUNT>
0

> <PUBCHEM_BOND_UDEF_STEREO_COUNT>
0

> <PUBCHEM_ISOTOPIC_ATOM_COUNT>
0

> <PUBCHEM_COMPONENT_COUNT>
1

> <PUBCHEM_CACTVS_TAUTO_COUNT>
1

> <PUBCHEM_CONFORMER_ID>
009F868500000001

> <PUBCHEM_MMFF94_ENERGY>
89.9872

> <PUBCHEM_FEATURE_SELFOVERLAP>
66.025

> <PUBCHEM_SHAPE_FINGERPRINT>
10076449 9 17632296826547782135
10087517 78 18260265260982711213
10299344 5 10303820895528954514
10366900 7 16917062214175502987
10411042 1 17976825616941653171
10835480 77 18341330011610595452
10906281 52 17631181801054541025
11135609 201 18267031549231700337
11991303 11 16773797047962705294
12236239 1 18113620040880220611
12633257 1 14274040800456019107
12788726 201 17559676131746716611
12895836 83 18336264531893183841
12895837 130 18333740125593303269
13690498 29 18058440071236715271
13726171 33 18341056203641015401
13782708 43 7925623393651237672
13911987 19 16845576417818422166
15463212 79 18187079521434819387
16126227 98 18338803321443089705
17980427 23 17967821591039243542
18608769 82 18336835294477045771
20511986 3 18113892728490675250
21033648 29 17676215632617307744
21424621 283 18113340782327823674
21756936 100 17749112188466205859
23522609 53 11311228723638737082
23559900 14 18131344237086874272
23569943 247 11886581022160456116
24771293 8 18114181999793397564
2838139 119 18411416254615058348
3472631 163 18336828585326048821
34797466 226 17917440830214670910
4073 2 18187935018970189906
44249763 50 17988065799377442962
465052 167 11241973673033040266
5080951 261 15430603986242641315
5104073 3 17531249413513951466
5283173 99 18411700984744073027
5385378 56 17023183765416733002
53917941 68 18260267434631879587
563151 74 16733555896732061601
5969126 39 18269552922314505119
636775 72 18336263548430712104
636775 8 8358264783217290016
7970288 3 9942649991369254501

> <PUBCHEM_SHAPE_MULTIPOLES>
562.24
20.29
3.31
1.27
31.24
0.7
0.2
13.9
-2.41
-5.29
-0.18
-0.55
0.1
1.25

> <PUBCHEM_SHAPE_SELFOVERLAP>
1194.223

> <PUBCHEM_SHAPE_VOLUME>
317.8

> <PUBCHEM_COORDINATE_TYPE>
2
5
10

$$$$
