10455205
  -OEChem-03292013303D

 56 58  0     1  0  0  0  0  0999 V2000
   -4.0879    1.8384   -1.8654 O   0  0  0  0  0  0  0  0  0  0  0  0
   -7.3856    0.4859    1.6989 O   0  0  0  0  0  0  0  0  0  0  0  0
   -5.3237    0.7589    2.6067 O   0  0  0  0  0  0  0  0  0  0  0  0
   -5.0049   -4.4833    0.2119 O   0  0  0  0  0  0  0  0  0  0  0  0
   -6.1960   -3.5492   -1.4782 O   0  0  0  0  0  0  0  0  0  0  0  0
    6.3625   -1.4171    1.4564 N   0  0  0  0  0  0  0  0  0  0  0  0
    6.2694   -1.9656   -0.9058 N   0  0  0  0  0  0  0  0  0  0  0  0
    5.1717   -0.5448   -2.4510 N   0  0  0  0  0  0  0  0  0  0  0  0
    7.3839   -3.3588    0.6243 N   0  0  0  0  0  0  0  0  0  0  0  0
   -4.1256    0.7848    0.1999 N   0  0  0  0  0  0  0  0  0  0  0  0
    4.4456    1.2936   -0.1245 C   0  0  1  0  0  0  0  0  0  0  0  0
    4.8427    1.8792    1.2504 C   0  0  0  0  0  0  0  0  0  0  0  0
    5.2270    0.0217   -0.1143 C   0  0  0  0  0  0  0  0  0  0  0  0
    2.9469    1.0462   -0.2419 C   0  0  0  0  0  0  0  0  0  0  0  0
    5.1883    0.6914    2.1645 C   0  0  0  0  0  0  0  0  0  0  0  0
    5.6597   -0.3161    1.1566 C   0  0  0  0  0  0  0  0  0  0  0  0
    2.1689    2.3606   -0.2964 C   0  0  0  0  0  0  0  0  0  0  0  0
    5.5555   -0.8405   -1.1270 C   0  0  0  0  0  0  0  0  0  0  0  0
    0.6872    2.1238   -0.4397 C   0  0  0  0  0  0  0  0  0  0  0  0
    6.6326   -2.1875    0.3817 C   0  0  0  0  0  0  0  0  0  0  0  0
   -0.1123    1.9967    0.6962 C   0  0  0  0  0  0  0  0  0  0  0  0
    0.1156    2.0329   -1.7088 C   0  0  0  0  0  0  0  0  0  0  0  0
   -1.4835    1.7787    0.5630 C   0  0  0  0  0  0  0  0  0  0  0  0
   -1.2556    1.8149   -1.8420 C   0  0  0  0  0  0  0  0  0  0  0  0
   -2.0552    1.6878   -0.7061 C   0  0  0  0  0  0  0  0  0  0  0  0
   -5.5347    0.4635    0.1984 C   0  0  1  0  0  0  0  0  0  0  0  0
   -3.4849    1.4602   -0.8454 C   0  0  0  0  0  0  0  0  0  0  0  0
   -5.8326   -0.8907   -0.4566 C   0  0  0  0  0  0  0  0  0  0  0  0
   -5.2150   -2.1156    0.2302 C   0  0  0  0  0  0  0  0  0  0  0  0
   -6.0317    0.5751    1.6251 C   0  0  0  0  0  0  0  0  0  0  0  0
   -5.5280   -3.4250   -0.4611 C   0  0  0  0  0  0  0  0  0  0  0  0
    4.7948    1.9584   -0.9233 H   0  0  0  0  0  0  0  0  0  0  0  0
    4.1001    2.5360    1.7094 H   0  0  0  0  0  0  0  0  0  0  0  0
    5.7505    2.4861    1.1178 H   0  0  0  0  0  0  0  0  0  0  0  0
    2.7301    0.4620   -1.1451 H   0  0  0  0  0  0  0  0  0  0  0  0
    2.5890    0.4359    0.5986 H   0  0  0  0  0  0  0  0  0  0  0  0
    5.9654    0.9468    2.8896 H   0  0  0  0  0  0  0  0  0  0  0  0
    4.2997    0.3149    2.6807 H   0  0  0  0  0  0  0  0  0  0  0  0
    2.5211    2.9707   -1.1383 H   0  0  0  0  0  0  0  0  0  0  0  0
    2.3367    2.9682    0.5992 H   0  0  0  0  0  0  0  0  0  0  0  0
    4.3579    0.0334   -2.6135 H   0  0  0  0  0  0  0  0  0  0  0  0
    5.4377   -1.2072   -3.1688 H   0  0  0  0  0  0  0  0  0  0  0  0
    0.3215    2.0707    1.6899 H   0  0  0  0  0  0  0  0  0  0  0  0
    0.7288    2.1275   -2.6011 H   0  0  0  0  0  0  0  0  0  0  0  0
   -2.0732    1.7165    1.4728 H   0  0  0  0  0  0  0  0  0  0  0  0
   -1.6806    1.7422   -2.8397 H   0  0  0  0  0  0  0  0  0  0  0  0
    7.6817   -3.5718    1.5663 H   0  0  0  0  0  0  0  0  0  0  0  0
    7.6144   -3.9699   -0.1469 H   0  0  0  0  0  0  0  0  0  0  0  0
   -6.0446    1.2489   -0.3737 H   0  0  0  0  0  0  0  0  0  0  0  0
   -5.4864   -0.8642   -1.4984 H   0  0  0  0  0  0  0  0  0  0  0  0
   -6.9202   -1.0329   -0.5047 H   0  0  0  0  0  0  0  0  0  0  0  0
   -3.5790    0.4240    0.9751 H   0  0  0  0  0  0  0  0  0  0  0  0
   -4.1248   -2.0116    0.2589 H   0  0  0  0  0  0  0  0  0  0  0  0
   -5.5890   -2.1864    1.2575 H   0  0  0  0  0  0  0  0  0  0  0  0
   -7.7078    0.5745    2.6213 H   0  0  0  0  0  0  0  0  0  0  0  0
   -5.2207   -5.3357   -0.2232 H   0  0  0  0  0  0  0  0  0  0  0  0
  1 27  2  0  0  0  0
  2 30  1  0  0  0  0
  2 55  1  0  0  0  0
  3 30  2  0  0  0  0
  4 31  1  0  0  0  0
  4 56  1  0  0  0  0
  5 31  2  0  0  0  0
  6 16  1  0  0  0  0
  6 20  2  0  0  0  0
  7 18  2  0  0  0  0
  7 20  1  0  0  0  0
  8 18  1  0  0  0  0
  8 41  1  0  0  0  0
  8 42  1  0  0  0  0
  9 20  1  0  0  0  0
  9 47  1  0  0  0  0
  9 48  1  0  0  0  0
 10 26  1  0  0  0  0
 10 27  1  0  0  0  0
 10 52  1  0  0  0  0
 11 12  1  0  0  0  0
 11 13  1  0  0  0  0
 11 14  1  0  0  0  0
 11 32  1  0  0  0  0
 12 15  1  0  0  0  0
 12 33  1  0  0  0  0
 12 34  1  0  0  0  0
 13 16  2  0  0  0  0
 13 18  1  0  0  0  0
 14 17  1  0  0  0  0
 14 35  1  0  0  0  0
 14 36  1  0  0  0  0
 15 16  1  0  0  0  0
 15 37  1  0  0  0  0
 15 38  1  0  0  0  0
 17 19  1  0  0  0  0
 17 39  1  0  0  0  0
 17 40  1  0  0  0  0
 19 21  2  0  0  0  0
 19 22  1  0  0  0  0
 21 23  1  0  0  0  0
 21 43  1  0  0  0  0
 22 24  2  0  0  0  0
 22 44  1  0  0  0  0
 23 25  2  0  0  0  0
 23 45  1  0  0  0  0
 24 25  1  0  0  0  0
 24 46  1  0  0  0  0
 25 27  1  0  0  0  0
 26 28  1  0  0  0  0
 26 30  1  0  0  0  0
 26 49  1  0  0  0  0
 28 29  1  0  0  0  0
 28 50  1  0  0  0  0
 28 51  1  0  0  0  0
 29 31  1  0  0  0  0
 29 53  1  0  0  0  0
 29 54  1  0  0  0  0
M  END
> <PUBCHEM_COMPOUND_CID>
10455205

> <PUBCHEM_CONFORMER_RMSD>
1

> <PUBCHEM_CONFORMER_DIVERSEORDER>
2
131
62
199
30
178
198
55
188
153
105
46
12
118
166
152
72
175
126
158
154
49
194
106
65
186
165
119
157
197
139
171
102
81
52
201
56
167
162
79
43
181
114
53
196
121
78
174
173
193
142
177
75
129
36
103
182
143
127
69
200
176
50
76
6
163
116
38
169
190
204
141
125
128
151
59
124
98
170
164
20
202
90
205
179
61
110
149
189
183
27
147
159
140
89
80
45
66
192
68
107
58
133
92
71
148
161
41
132
123
70
17
9
18
168
86
97
39
47
180
94
85
33
109
82
57
137
73
145
21
185
191
40
77
160
5
91
37
135
195
111
25
60
67
83
206
122
34
146
101
144
23
108
155
3
31
87
115
48
184
130
99
136
96
187
112
172
44
100
28
64
203
84
120
95
10
24
16
156
1
15
117
134
138
4
11
74
13
104
29
150
35
113
14
22
32
63
88
26
51
54
42
19
8
7
93

> <PUBCHEM_MMFF94_PARTIAL_CHARGES>
39
1 -0.57
10 -0.73
11 0.14
13 -0.14
15 0.14
16 0.17
17 0.14
18 0.41
19 -0.14
2 -0.65
20 0.72
21 -0.15
22 -0.15
23 -0.15
24 -0.15
25 0.09
26 0.36
27 0.54
29 0.06
3 -0.57
30 0.66
31 0.66
4 -0.65
41 0.4
42 0.4
43 0.15
44 0.15
45 0.15
46 0.15
47 0.4
48 0.4
5 -0.57
52 0.37
55 0.5
56 0.5
6 -0.62
7 -0.62
8 -0.9
9 -0.9

> <PUBCHEM_EFFECTIVE_ROTOR_COUNT>
10.6

> <PUBCHEM_PHARMACOPHORE_FEATURES>
14
1 1 acceptor
1 10 donor
1 2 acceptor
1 3 acceptor
1 4 acceptor
1 5 acceptor
1 8 donor
1 9 donor
3 2 3 30 anion
3 4 5 31 anion
4 6 7 9 20 cation
5 11 12 13 15 16 rings
6 19 21 22 23 24 25 rings
6 6 7 13 16 18 20 rings

> <PUBCHEM_HEAVY_ATOM_COUNT>
31

> <PUBCHEM_ATOM_DEF_STEREO_COUNT>
1

> <PUBCHEM_ATOM_UDEF_STEREO_COUNT>
1

> <PUBCHEM_BOND_DEF_STEREO_COUNT>
0

> <PUBCHEM_BOND_UDEF_STEREO_COUNT>
0

> <PUBCHEM_ISOTOPIC_ATOM_COUNT>
0

> <PUBCHEM_COMPONENT_COUNT>
1

> <PUBCHEM_CACTVS_TAUTO_COUNT>
18

> <PUBCHEM_CONFORMER_ID>
009F88A500000002

> <PUBCHEM_MMFF94_ENERGY>
86.5994

> <PUBCHEM_FEATURE_SELFOVERLAP>
71.261

> <PUBCHEM_SHAPE_FINGERPRINT>
10 15 15770059445307315513
11963148 33 18115579328332207394
11991303 11 14346084156698864049
12422481 6 18060144279382721031
12988421 55 13110974119635665717
13553643 44 18265070075346980242
1361 4 18337388356903372670
13782708 43 18261388966277400685
14211702 104 18339922726736557199
15289351 153 10231754475607546524
15352257 5 18412265038398717574
16096371 109 14476696164948170420
16993089 31 17168433783153677547
20691028 202 10807396117070148707
20775438 99 17532658034734520188
21033648 29 11527655419491329060
21130935 74 18342736359727537129
21424621 283 10592049071935094733
21585481 151 18202289061412978950
2303208 19 18333727996811660180
23522609 53 17825422645825372548
24983565 74 18191572074343858826
2748736 6 10807938145562254775
312425 54 18202006538237199953
3504750 166 18411698764868986205
3862424 121 17386586776348926659
397830 11 18200584916573125129
5104073 3 17846777446563780912
5719381 36 18187915162893392562
6712543 237 18202565090297142627
7970288 3 18336824183232412018
86090 222 18200608986292486934
8863177 126 18410290324548265324

> <PUBCHEM_SHAPE_MULTIPOLES>
583.71
23.45
4.09
1.96
1.43
5.13
-0.2
20.58
-6.08
-3.15
0.85
-0.22
-0.5
-0.76

> <PUBCHEM_SHAPE_SELFOVERLAP>
1242.004

> <PUBCHEM_SHAPE_VOLUME>
321.9

> <PUBCHEM_COORDINATE_TYPE>
2
5
10

$$$$
