10469765
  -OEChem-03292013303D

 38 40  0     1  0  0  0  0  0999 V2000
    2.1489   -0.1391   -1.0368 O   0  0  0  0  0  0  0  0  0  0  0  0
    1.7822    0.4008    1.9238 O   0  0  0  0  0  0  0  0  0  0  0  0
    4.5536    1.5956   -0.0399 O   0  0  0  0  0  0  0  0  0  0  0  0
    2.9654   -2.7977   -0.8828 O   0  0  0  0  0  0  0  0  0  0  0  0
    0.2202    1.0665   -0.3351 N   0  0  0  0  0  0  0  0  0  0  0  0
   -1.8738    1.8484   -0.3340 N   0  0  0  0  0  0  0  0  0  0  0  0
   -0.2254   -1.2952    0.0259 N   0  0  0  0  0  0  0  0  0  0  0  0
   -4.2588    0.0028    0.0542 N   0  0  0  0  0  0  0  0  0  0  0  0
   -2.6189   -1.7325    0.2160 N   0  0  0  0  0  0  0  0  0  0  0  0
    2.4091    1.1878    0.9194 C   0  0  2  0  0  0  0  0  0  0  0  0
    1.6764    1.0676   -0.4135 C   0  0  1  0  0  0  0  0  0  0  0  0
    3.7572    0.5865    0.5774 C   0  0  1  0  0  0  0  0  0  0  0  0
    3.4204   -0.4921   -0.4544 C   0  0  1  0  0  0  0  0  0  0  0  0
    3.2870   -1.8828    0.1501 C   0  0  0  0  0  0  0  0  0  0  0  0
   -0.5952   -0.0159   -0.1370 C   0  0  0  0  0  0  0  0  0  0  0  0
   -0.6001    2.1625   -0.4465 C   0  0  0  0  0  0  0  0  0  0  0  0
   -1.8853    0.4899   -0.1403 C   0  0  0  0  0  0  0  0  0  0  0  0
   -2.9192   -0.4225    0.0449 C   0  0  0  0  0  0  0  0  0  0  0  0
   -1.3099   -2.0822    0.1962 C   0  0  0  0  0  0  0  0  0  0  0  0
   -4.6774    1.1533   -0.7172 C   0  0  0  0  0  0  0  0  0  0  0  0
   -5.2563   -0.7018    0.8298 C   0  0  0  0  0  0  0  0  0  0  0  0
    2.4502    2.2266    1.2622 H   0  0  0  0  0  0  0  0  0  0  0  0
    1.9585    1.8912   -1.0819 H   0  0  0  0  0  0  0  0  0  0  0  0
    4.3039    0.1983    1.4423 H   0  0  0  0  0  0  0  0  0  0  0  0
    4.1456   -0.5159   -1.2759 H   0  0  0  0  0  0  0  0  0  0  0  0
    2.4850   -1.9271    0.8923 H   0  0  0  0  0  0  0  0  0  0  0  0
    4.2260   -2.1962    0.6167 H   0  0  0  0  0  0  0  0  0  0  0  0
    2.3251    0.4681    2.7277 H   0  0  0  0  0  0  0  0  0  0  0  0
    5.3980    1.1846   -0.2927 H   0  0  0  0  0  0  0  0  0  0  0  0
   -0.2104    3.1584   -0.6071 H   0  0  0  0  0  0  0  0  0  0  0  0
    2.8891   -3.6767   -0.4740 H   0  0  0  0  0  0  0  0  0  0  0  0
   -1.1061   -3.1385    0.3362 H   0  0  0  0  0  0  0  0  0  0  0  0
   -5.7530    1.1188   -0.9262 H   0  0  0  0  0  0  0  0  0  0  0  0
   -4.1767    1.1935   -1.6912 H   0  0  0  0  0  0  0  0  0  0  0  0
   -4.4824    2.0810   -0.1696 H   0  0  0  0  0  0  0  0  0  0  0  0
   -4.8887   -0.9108    1.8407 H   0  0  0  0  0  0  0  0  0  0  0  0
   -5.5140   -1.6514    0.3491 H   0  0  0  0  0  0  0  0  0  0  0  0
   -6.1769   -0.1177    0.9364 H   0  0  0  0  0  0  0  0  0  0  0  0
  1 11  1  0  0  0  0
  1 13  1  0  0  0  0
  2 10  1  0  0  0  0
  2 28  1  0  0  0  0
  3 12  1  0  0  0  0
  3 29  1  0  0  0  0
  4 14  1  0  0  0  0
  4 31  1  0  0  0  0
  5 11  1  0  0  0  0
  5 15  1  0  0  0  0
  5 16  1  0  0  0  0
  6 16  2  0  0  0  0
  6 17  1  0  0  0  0
  7 15  1  0  0  0  0
  7 19  2  0  0  0  0
  8 18  1  0  0  0  0
  8 20  1  0  0  0  0
  8 21  1  0  0  0  0
  9 18  2  0  0  0  0
  9 19  1  0  0  0  0
 10 11  1  0  0  0  0
 10 12  1  0  0  0  0
 10 22  1  0  0  0  0
 11 23  1  0  0  0  0
 12 13  1  0  0  0  0
 12 24  1  0  0  0  0
 13 14  1  0  0  0  0
 13 25  1  0  0  0  0
 14 26  1  0  0  0  0
 14 27  1  0  0  0  0
 15 17  2  0  0  0  0
 16 30  1  0  0  0  0
 17 18  1  0  0  0  0
 19 32  1  0  0  0  0
 20 33  1  0  0  0  0
 20 34  1  0  0  0  0
 20 35  1  0  0  0  0
 21 36  1  0  0  0  0
 21 37  1  0  0  0  0
 21 38  1  0  0  0  0
M  END
> <PUBCHEM_COMPOUND_CID>
10469765

> <PUBCHEM_CONFORMER_RMSD>
0.6

> <PUBCHEM_CONFORMER_DIVERSEORDER>
3
1
26
23
27
17
12
21
22
28
18
11
13
7
24
16
19
20
5
8
9
2
4
25
14
15
10
6

> <PUBCHEM_MMFF94_PARTIAL_CHARGES>
26
1 -0.56
10 0.28
11 0.54
12 0.28
13 0.28
14 0.28
15 0.11
16 0.04
17 0.23
18 0.41
19 0.47
2 -0.68
20 0.37
21 0.37
28 0.4
29 0.4
3 -0.68
30 0.15
31 0.4
32 0.15
4 -0.68
5 0.05
6 -0.57
7 -0.57
8 -0.84
9 -0.62

> <PUBCHEM_EFFECTIVE_ROTOR_COUNT>
4

> <PUBCHEM_PHARMACOPHORE_FEATURES>
13
1 1 acceptor
1 2 acceptor
1 2 donor
1 3 acceptor
1 3 donor
1 4 acceptor
1 4 donor
3 5 6 16 cation
3 7 9 19 cation
3 8 9 18 cation
5 1 10 11 12 13 rings
5 5 6 15 16 17 rings
6 7 9 15 17 18 19 rings

> <PUBCHEM_HEAVY_ATOM_COUNT>
21

> <PUBCHEM_ATOM_DEF_STEREO_COUNT>
4

> <PUBCHEM_ATOM_UDEF_STEREO_COUNT>
0

> <PUBCHEM_BOND_DEF_STEREO_COUNT>
0

> <PUBCHEM_BOND_UDEF_STEREO_COUNT>
0

> <PUBCHEM_ISOTOPIC_ATOM_COUNT>
0

> <PUBCHEM_COMPONENT_COUNT>
1

> <PUBCHEM_CACTVS_TAUTO_COUNT>
1

> <PUBCHEM_CONFORMER_ID>
009FC18500000003

> <PUBCHEM_MMFF94_ENERGY>
61.9138

> <PUBCHEM_FEATURE_SELFOVERLAP>
66.221

> <PUBCHEM_SHAPE_FINGERPRINT>
10366900 7 17917989516144021128
10616163 171 18265898140988521254
10967382 1 18409730668375687662
11132069 177 18409163333619379113
12236239 1 17240760692440446036
12500047 106 18270675488608690307
12788726 201 17131284475298439001
13140716 1 18049161360643211009
13533116 47 17988926643756888843
13544592 145 18342747299183566574
13675066 3 18261112993512024553
14178342 30 18053087716750680962
14252887 29 18335425685434551024
14866123 147 17262728672427403922
15196674 1 18408604738783856047
15375358 24 18410570725424338780
15536298 74 18412262804963060615
15848702 151 17773884099451177055
16752209 62 18115295692696140069
16945 1 18409451426745210101
17804303 29 18267871588208470550
1813 80 17240488017730055407
19049666 15 18200026236228106760
19141452 34 18343303708286969807
19591789 44 18337110038928454811
19784866 170 18339079414545885048
200 152 16845291657059789621
20028762 73 18124604334695644899
20510252 161 18340767057304444513
20645477 70 18060423495243518006
21267235 1 18336837411542143430
21279426 13 18265613170261762477
21421861 104 18114452371614827850
21521239 73 18199727216927151759
22892500 29 17274536632851564368
23402539 116 18340476842227074477
23559900 14 18411418402061529868
2748010 2 18263917748563361389
3286 77 17703220728721540697
34934 24 18410006680212052606
350125 39 18265900150716405780
465052 167 17749682895425917259
474 4 14188709983857855874
495365 180 17560505283488417266
5104073 3 18337675217879940481
69090 78 18273209815945609887
7364860 26 18413388727035543902
9709674 26 18410014346824011206

> <PUBCHEM_SHAPE_MULTIPOLES>
383.79
9.02
2.32
0.96
4.63
0.79
0.25
0.38
0.59
-0.84
-0.34
-0.37
-0.04
1.03

> <PUBCHEM_SHAPE_SELFOVERLAP>
826.184

> <PUBCHEM_SHAPE_VOLUME>
208.7

> <PUBCHEM_COORDINATE_TYPE>
2
5
10

$$$$
