10477925
  -OEChem-03292013303D

 63 65  0     1  0  0  0  0  0999 V2000
   -2.7152    0.7267   -1.8481 O   0  0  0  0  0  0  0  0  0  0  0  0
    8.0566   -2.7121    0.5375 O   0  0  0  0  0  0  0  0  0  0  0  0
   -2.0865    0.2246    1.7481 O   0  0  0  0  0  0  0  0  0  0  0  0
   -1.9474    3.2312   -1.0864 O   0  0  0  0  0  0  0  0  0  0  0  0
   -6.0016    0.5147   -1.6528 O   0  0  0  0  0  0  0  0  0  0  0  0
   -7.0754   -1.0804    0.5237 O   0  0  0  0  0  0  0  0  0  0  0  0
   -8.3625   -2.9973    0.4450 O   0  0  0  0  0  0  0  0  0  0  0  0
   -2.5391    1.0059   -0.4514 C   0  0  1  0  0  0  0  0  0  0  0  0
   -3.8429    1.2677   -1.1408 C   0  0  2  0  0  0  0  0  0  0  0  0
   -2.4075   -0.1988    0.4200 C   0  0  2  0  0  0  0  0  0  0  0  0
   -1.5830    2.1426   -0.2314 C   0  0  1  0  0  0  0  0  0  0  0  0
   -4.9678    0.3187   -1.0254 C   0  0  0  0  0  0  0  0  0  0  0  0
    7.1869   -2.5285   -0.5871 C   0  0  0  0  0  0  0  0  0  0  0  0
    7.2332   -1.5387    0.5405 C   0  0  2  0  0  0  0  0  0  0  0  0
   -3.6285   -1.0716    0.5061 C   0  0  0  0  0  0  0  0  0  0  0  0
   -4.7928   -0.8638   -0.1308 C   0  0  0  0  0  0  0  0  0  0  0  0
   -0.1471    1.7992   -0.5322 C   0  0  0  0  0  0  0  0  0  0  0  0
    7.9831   -0.2447    0.4450 C   0  0  0  0  0  0  0  0  0  0  0  0
    7.8895   -2.2844   -1.8696 C   0  0  0  0  0  0  0  0  0  0  0  0
    6.0850   -3.5173   -0.6657 C   0  0  0  0  0  0  0  0  0  0  0  0
   -5.9647   -1.7872    0.0027 C   0  0  0  0  0  0  0  0  0  0  0  0
    7.1919    0.8646   -0.2569 C   0  0  0  0  0  0  0  0  0  0  0  0
    0.9193    1.9035    0.2891 C   0  0  0  0  0  0  0  0  0  0  0  0
    5.8854    1.2220    0.4248 C   0  0  0  0  0  0  0  0  0  0  0  0
    2.2417    1.5416   -0.2281 C   0  0  0  0  0  0  0  0  0  0  0  0
    0.8273    2.3566    1.7231 C   0  0  0  0  0  0  0  0  0  0  0  0
    4.6702    1.2146   -0.1595 C   0  0  0  0  0  0  0  0  0  0  0  0
    3.4049    1.5838    0.4439 C   0  0  0  0  0  0  0  0  0  0  0  0
    6.0173    1.6511    1.8653 C   0  0  0  0  0  0  0  0  0  0  0  0
   -8.2229   -1.8085    0.6982 C   0  0  0  0  0  0  0  0  0  0  0  0
   -9.3074   -0.9356    1.2531 C   0  0  0  0  0  0  0  0  0  0  0  0
   -4.1310    2.2889   -1.3574 H   0  0  0  0  0  0  0  0  0  0  0  0
   -1.5681   -0.8072    0.0624 H   0  0  0  0  0  0  0  0  0  0  0  0
   -1.7296    2.5173    0.7825 H   0  0  0  0  0  0  0  0  0  0  0  0
    6.4168   -1.5084    1.2501 H   0  0  0  0  0  0  0  0  0  0  0  0
   -3.5330   -1.9492    1.1429 H   0  0  0  0  0  0  0  0  0  0  0  0
    0.0189    1.4556   -1.5541 H   0  0  0  0  0  0  0  0  0  0  0  0
    8.2518    0.0690    1.4609 H   0  0  0  0  0  0  0  0  0  0  0  0
    8.9385   -0.3769   -0.0754 H   0  0  0  0  0  0  0  0  0  0  0  0
   -1.8707   -0.5682    2.2686 H   0  0  0  0  0  0  0  0  0  0  0  0
    8.0841   -3.2273   -2.3930 H   0  0  0  0  0  0  0  0  0  0  0  0
    7.2768   -1.6590   -2.5270 H   0  0  0  0  0  0  0  0  0  0  0  0
    8.8589   -1.7935   -1.7428 H   0  0  0  0  0  0  0  0  0  0  0  0
    6.4504   -4.4846   -1.0265 H   0  0  0  0  0  0  0  0  0  0  0  0
    5.6157   -3.6859    0.3099 H   0  0  0  0  0  0  0  0  0  0  0  0
    5.3052   -3.1691   -1.3512 H   0  0  0  0  0  0  0  0  0  0  0  0
   -1.3717    3.9842   -0.8677 H   0  0  0  0  0  0  0  0  0  0  0  0
   -5.7276   -2.6265    0.6682 H   0  0  0  0  0  0  0  0  0  0  0  0
   -6.2165   -2.1973   -0.9833 H   0  0  0  0  0  0  0  0  0  0  0  0
    6.9955    0.5661   -1.2939 H   0  0  0  0  0  0  0  0  0  0  0  0
    7.8147    1.7664   -0.3088 H   0  0  0  0  0  0  0  0  0  0  0  0
    2.2642    1.2184   -1.2690 H   0  0  0  0  0  0  0  0  0  0  0  0
    1.4278    3.2601    1.8773 H   0  0  0  0  0  0  0  0  0  0  0  0
   -0.1839    2.5959    2.0542 H   0  0  0  0  0  0  0  0  0  0  0  0
    1.1942    1.5730    2.3957 H   0  0  0  0  0  0  0  0  0  0  0  0
    4.6205    0.9085   -1.2038 H   0  0  0  0  0  0  0  0  0  0  0  0
    3.4086    1.8912    1.4826 H   0  0  0  0  0  0  0  0  0  0  0  0
    5.8977    0.7926    2.5338 H   0  0  0  0  0  0  0  0  0  0  0  0
    7.0087    2.0830    2.0454 H   0  0  0  0  0  0  0  0  0  0  0  0
    5.3120    2.4342    2.1555 H   0  0  0  0  0  0  0  0  0  0  0  0
   -9.5182   -0.1199    0.5570 H   0  0  0  0  0  0  0  0  0  0  0  0
  -10.2183   -1.5268    1.3836 H   0  0  0  0  0  0  0  0  0  0  0  0
   -9.0042   -0.5425    2.2267 H   0  0  0  0  0  0  0  0  0  0  0  0
  1  8  1  0  0  0  0
  1  9  1  0  0  0  0
  2 13  1  0  0  0  0
  2 14  1  0  0  0  0
  3 10  1  0  0  0  0
  3 40  1  0  0  0  0
  4 11  1  0  0  0  0
  4 47  1  0  0  0  0
  5 12  2  0  0  0  0
  6 21  1  0  0  0  0
  6 30  1  0  0  0  0
  7 30  2  0  0  0  0
  8  9  1  0  0  0  0
  8 10  1  0  0  0  0
  8 11  1  0  0  0  0
  9 12  1  0  0  0  0
  9 32  1  0  0  0  0
 10 15  1  0  0  0  0
 10 33  1  0  0  0  0
 11 17  1  0  0  0  0
 11 34  1  0  0  0  0
 12 16  1  0  0  0  0
 13 14  1  0  0  0  0
 13 19  1  0  0  0  0
 13 20  1  0  0  0  0
 14 18  1  0  0  0  0
 14 35  1  0  0  0  0
 15 16  2  0  0  0  0
 15 36  1  0  0  0  0
 16 21  1  0  0  0  0
 17 23  2  0  0  0  0
 17 37  1  0  0  0  0
 18 22  1  0  0  0  0
 18 38  1  0  0  0  0
 18 39  1  0  0  0  0
 19 41  1  0  0  0  0
 19 42  1  0  0  0  0
 19 43  1  0  0  0  0
 20 44  1  0  0  0  0
 20 45  1  0  0  0  0
 20 46  1  0  0  0  0
 21 48  1  0  0  0  0
 21 49  1  0  0  0  0
 22 24  1  0  0  0  0
 22 50  1  0  0  0  0
 22 51  1  0  0  0  0
 23 25  1  0  0  0  0
 23 26  1  0  0  0  0
 24 27  2  0  0  0  0
 24 29  1  0  0  0  0
 25 28  2  0  0  0  0
 25 52  1  0  0  0  0
 26 53  1  0  0  0  0
 26 54  1  0  0  0  0
 26 55  1  0  0  0  0
 27 28  1  0  0  0  0
 27 56  1  0  0  0  0
 28 57  1  0  0  0  0
 29 58  1  0  0  0  0
 29 59  1  0  0  0  0
 29 60  1  0  0  0  0
 30 31  1  0  0  0  0
 31 61  1  0  0  0  0
 31 62  1  0  0  0  0
 31 63  1  0  0  0  0
M  END
> <PUBCHEM_COMPOUND_CID>
10477925

> <PUBCHEM_CONFORMER_RMSD>
1.4

> <PUBCHEM_CONFORMER_DIVERSEORDER>
2
83
13
59
42
74
30
32
66
72
64
62
93
43
16
81
9
90
17
21
46
39
80
75
37
3
55
73
15
88
33
48
28
49
96
69
6
29
45
70
98
24
34
63
51
47
35
8
22
12
52
36
76
85
87
60
68
18
40
95
86
58
41
25
10
57
1
94
97
53
38
5
61
67
7
82
31
27
91
20
84
19
56
89
26
79
92
44
4
11
78
50
77
71
54
99
65
23
14

> <PUBCHEM_MMFF94_PARTIAL_CHARGES>
40
1 -0.3
10 0.51
11 0.51
12 0.56
13 -0.04
14 -0.05
15 -0.29
16 -0.12
17 -0.29
18 0.09
19 0.09
2 -0.3
20 0.09
21 0.42
22 0.14
23 -0.14
24 -0.28
25 -0.15
26 0.14
27 -0.15
28 -0.15
29 0.14
3 -0.68
30 0.66
31 0.06
32 0.1
35 0.1
36 0.15
37 0.15
4 -0.68
40 0.4
47 0.4
5 -0.57
52 0.15
56 0.15
57 0.15
6 -0.43
7 -0.57
8 -0.04
9 0.05

> <PUBCHEM_EFFECTIVE_ROTOR_COUNT>
11

> <PUBCHEM_PHARMACOPHORE_FEATURES>
12
1 1 acceptor
1 2 acceptor
1 26 hydrophobe
1 29 hydrophobe
1 3 acceptor
1 3 donor
1 4 acceptor
1 4 donor
1 5 acceptor
1 7 acceptor
3 13 19 20 hydrophobe
7 1 8 9 10 12 15 16 rings

> <PUBCHEM_HEAVY_ATOM_COUNT>
31

> <PUBCHEM_ATOM_DEF_STEREO_COUNT>
3

> <PUBCHEM_ATOM_UDEF_STEREO_COUNT>
2

> <PUBCHEM_BOND_DEF_STEREO_COUNT>
3

> <PUBCHEM_BOND_UDEF_STEREO_COUNT>
0

> <PUBCHEM_ISOTOPIC_ATOM_COUNT>
0

> <PUBCHEM_COMPONENT_COUNT>
1

> <PUBCHEM_CACTVS_TAUTO_COUNT>
2

> <PUBCHEM_CONFORMER_ID>
009FE16500000002

> <PUBCHEM_MMFF94_ENERGY>
54.1791

> <PUBCHEM_FEATURE_SELFOVERLAP>
60.905

> <PUBCHEM_SHAPE_FINGERPRINT>
10533779 47 18340215189062570579
10740516 88 18115036328454280155
11135609 127 11819279984380502902
11408170 108 18340770442651485119
13383668 40 18342176631701298567
13533116 47 18060411405934024256
13553644 42 18189048707462369314
13668630 136 18259979375517705244
13782708 43 18341325614102180660
13811026 1 18408881828546509135
14040221 275 18196677115906484401
14202775 3 18189621717532413019
14211702 104 18201157638620986996
14216079 64 18410295826195617138
14251757 52 10159701283320428846
15183329 4 16805315583797159736
15198563 99 16516228714009598655
15352257 5 18411417298544935662
15510800 12 18334299777159488786
16067689 302 18411984654644984798
17134984 74 18187643580027736978
18335252 98 18410290350856509544
18643901 69 17748825237611764749
19301679 30 17845947238423726608
19841028 212 18413109463872584730
2026 5 18334290929886048986
21057603 40 18059570257479260494
21267235 1 17822569516999829285
21344244 181 18187082892714894674
23559900 14 18188480405985114853
25122255 55 18408325459031448736
4258327 124 12251904806527361577
439807 62 18409732872216182354
4403749 210 9583508829077074685
44880568 143 17822004277702778948
5470011 282 18040715900657220420
58083652 198 16701721822699755784
6898599 12 12974476361154976896
9831232 110 18334854983908958574

> <PUBCHEM_SHAPE_MULTIPOLES>
596.88
30.85
3.61
1.46
0.64
1.73
-0.05
29.75
3.88
-4.15
-0.22
0.19
-0.3
3.91

> <PUBCHEM_SHAPE_SELFOVERLAP>
1227.97

> <PUBCHEM_SHAPE_VOLUME>
343.1

> <PUBCHEM_COORDINATE_TYPE>
2
5
10

$$$$
