10472648
  -OEChem-03292013303D

 37 38  0     0  0  0  0  0  0999 V2000
    0.0092    0.0051   -0.3782 O   0  0  0  0  0  0  0  0  0  0  0  0
   -1.2672    0.2636   -2.2948 O   0  0  0  0  0  0  0  0  0  0  0  0
    1.2967   -0.2482   -2.2897 O   0  0  0  0  0  0  0  0  0  0  0  0
   -3.5467   -2.8269    0.3058 O   0  5  0  0  0  0  0  0  0  0  0  0
    3.5632    2.8193    0.3233 O   0  5  0  0  0  0  0  0  0  0  0  0
   -1.8607   -2.1315   -0.9161 O   0  0  0  0  0  0  0  0  0  0  0  0
    1.8809    2.1414   -0.9134 O   0  0  0  0  0  0  0  0  0  0  0  0
   -2.8062   -1.9113   -0.1234 N   0  3  0  0  0  0  0  0  0  0  0  0
    2.8188    1.9111   -0.1146 N   0  3  0  0  0  0  0  0  0  0  0  0
   -2.2542    0.4811   -0.1428 C   0  0  0  0  0  0  0  0  0  0  0  0
    2.2656   -0.4810   -0.1324 C   0  0  0  0  0  0  0  0  0  0  0  0
   -2.5139    1.7807    0.2924 C   0  0  0  0  0  0  0  0  0  0  0  0
    2.4951   -1.7801    0.2855 C   0  0  0  0  0  0  0  0  0  0  0  0
   -3.0475   -0.5756    0.3040 C   0  0  0  0  0  0  0  0  0  0  0  0
    3.0467    0.5719    0.3096 C   0  0  0  0  0  0  0  0  0  0  0  0
   -3.5670    2.0234    1.1743 C   0  0  0  0  0  0  0  0  0  0  0  0
    3.5398   -2.0342    1.1742 C   0  0  0  0  0  0  0  0  0  0  0  0
   -1.1491    0.2377   -1.0667 C   0  0  0  0  0  0  0  0  0  0  0  0
    1.1522   -0.2218   -1.0778 C   0  0  0  0  0  0  0  0  0  0  0  0
   -4.1005   -0.3327    1.1859 C   0  0  0  0  0  0  0  0  0  0  0  0
    4.0914    0.3177    1.1982 C   0  0  0  0  0  0  0  0  0  0  0  0
   -1.6831    2.9341   -0.1688 C   0  0  0  0  0  0  0  0  0  0  0  0
    1.6588   -2.9254   -0.1859 C   0  0  0  0  0  0  0  0  0  0  0  0
   -4.3603    0.9668    1.6211 C   0  0  0  0  0  0  0  0  0  0  0  0
    4.3380   -0.9854    1.6305 C   0  0  0  0  0  0  0  0  0  0  0  0
   -3.7830    3.0294    1.5242 H   0  0  0  0  0  0  0  0  0  0  0  0
    3.7453   -3.0431    1.5221 H   0  0  0  0  0  0  0  0  0  0  0  0
   -4.7419   -1.1276    1.5576 H   0  0  0  0  0  0  0  0  0  0  0  0
    4.7362    1.1063    1.5775 H   0  0  0  0  0  0  0  0  0  0  0  0
   -0.6665    2.8523    0.2283 H   0  0  0  0  0  0  0  0  0  0  0  0
   -2.0924    3.8915    0.1723 H   0  0  0  0  0  0  0  0  0  0  0  0
   -1.6454    2.9759   -1.2622 H   0  0  0  0  0  0  0  0  0  0  0  0
    2.0719   -3.8882    0.1347 H   0  0  0  0  0  0  0  0  0  0  0  0
    1.6088   -2.9503   -1.2793 H   0  0  0  0  0  0  0  0  0  0  0  0
    0.6469   -2.8491    0.2240 H   0  0  0  0  0  0  0  0  0  0  0  0
   -5.1801    1.1563    2.3080 H   0  0  0  0  0  0  0  0  0  0  0  0
    5.1513   -1.1836    2.3227 H   0  0  0  0  0  0  0  0  0  0  0  0
  1 18  1  0  0  0  0
  1 19  1  0  0  0  0
  2 18  2  0  0  0  0
  3 19  2  0  0  0  0
  4  8  1  0  0  0  0
  5  9  1  0  0  0  0
  6  8  2  0  0  0  0
  7  9  2  0  0  0  0
  8 14  1  0  0  0  0
  9 15  1  0  0  0  0
 10 12  2  0  0  0  0
 10 14  1  0  0  0  0
 10 18  1  0  0  0  0
 11 13  2  0  0  0  0
 11 15  1  0  0  0  0
 11 19  1  0  0  0  0
 12 16  1  0  0  0  0
 12 22  1  0  0  0  0
 13 17  1  0  0  0  0
 13 23  1  0  0  0  0
 14 20  2  0  0  0  0
 15 21  2  0  0  0  0
 16 24  2  0  0  0  0
 16 26  1  0  0  0  0
 17 25  2  0  0  0  0
 17 27  1  0  0  0  0
 20 24  1  0  0  0  0
 20 28  1  0  0  0  0
 21 25  1  0  0  0  0
 21 29  1  0  0  0  0
 22 30  1  0  0  0  0
 22 31  1  0  0  0  0
 22 32  1  0  0  0  0
 23 33  1  0  0  0  0
 23 34  1  0  0  0  0
 23 35  1  0  0  0  0
 24 36  1  0  0  0  0
 25 37  1  0  0  0  0
M  CHG  4   4  -1   5  -1   8   1   9   1
M  END
> <PUBCHEM_COMPOUND_CID>
10472648

> <PUBCHEM_CONFORMER_RMSD>
0.8

> <PUBCHEM_CONFORMER_DIVERSEORDER>
1
9
8
10
2
4
5
6
7
3

> <PUBCHEM_MMFF94_PARTIAL_CHARGES>
31
1 -0.3
10 0.09
11 0.09
12 -0.14
13 -0.14
14 0.13
15 0.13
16 -0.15
17 -0.15
18 0.63
19 0.63
2 -0.57
20 -0.15
21 -0.15
22 0.14
23 0.14
24 -0.15
25 -0.15
26 0.15
27 0.15
28 0.15
29 0.15
3 -0.57
36 0.15
37 0.15
4 -0.52
5 -0.52
6 -0.52
7 -0.52
8 0.91
9 0.91

> <PUBCHEM_EFFECTIVE_ROTOR_COUNT>
6

> <PUBCHEM_PHARMACOPHORE_FEATURES>
10
1 2 acceptor
1 3 acceptor
1 4 acceptor
1 4 anion
1 5 acceptor
1 5 anion
1 6 acceptor
1 7 acceptor
6 10 12 14 16 20 24 rings
6 11 13 15 17 21 25 rings

> <PUBCHEM_HEAVY_ATOM_COUNT>
25

> <PUBCHEM_ATOM_DEF_STEREO_COUNT>
0

> <PUBCHEM_ATOM_UDEF_STEREO_COUNT>
0

> <PUBCHEM_BOND_DEF_STEREO_COUNT>
0

> <PUBCHEM_BOND_UDEF_STEREO_COUNT>
0

> <PUBCHEM_ISOTOPIC_ATOM_COUNT>
0

> <PUBCHEM_COMPONENT_COUNT>
1

> <PUBCHEM_CACTVS_TAUTO_COUNT>
1

> <PUBCHEM_CONFORMER_ID>
009FCCC800000001

> <PUBCHEM_MMFF94_ENERGY>
99.7875

> <PUBCHEM_FEATURE_SELFOVERLAP>
50.93

> <PUBCHEM_SHAPE_FINGERPRINT>
10165383 225 15552505766318511317
1100329 8 13871226567592541454
11370993 70 18267297634591281859
11552529 35 18341323504492769691
11578080 2 17821997723075945197
12251169 10 18410856520985083933
12363563 72 15430034365845916052
12553582 1 18334863766294327862
12633257 1 18410855430063391098
12788726 201 17488165167061311463
13004483 165 18268982250057039799
13140716 1 18410855468718096466
13224815 77 18410574006626287627
13583140 156 18339350873210630941
13965767 371 17417243209267436784
14178342 30 18410286978441934418
14223421 5 18410856551060443636
14289901 80 18410292535944544739
14341114 176 18411703145376308760
14341114 328 18340773735835736376
14787075 74 17546727517854937421
14849402 71 18264767848111480680
14856354 85 18410015429667492422
17492 89 18409448102472879786
1813 80 16951138269879547822
19050596 39 18410856585414874816
19862831 5 11095876047526503411
20715895 44 17839184009321257081
20739085 24 18259987076684263028
21033648 29 17485344708828669552
21756936 100 17986665086225990968
21859007 373 17533490137361873749
21864079 5 17346028000008276176
23503953 91 18412260614598071563
23559900 14 17915482518221810503
3737641 26 17754451262565753298
3797600 57 17915468409143440384
392239 28 17691127462331076968
6823239 73 18058470749902585358
7097593 13 18337388232243955994
7970288 3 15647345095244521123
90316 7 18335995181551504157

> <PUBCHEM_SHAPE_MULTIPOLES>
463.44
8.77
3.15
1.58
0.08
0
0.4
0.02
-5.28
0
-0.04
-0.01
0
-0.74

> <PUBCHEM_SHAPE_SELFOVERLAP>
1013.773

> <PUBCHEM_SHAPE_VOLUME>
251.3

> <PUBCHEM_COORDINATE_TYPE>
2
5
10

$$$$
