10477191
  -OEChem-03292013303D

 46 49  0     1  0  0  0  0  0999 V2000
   -8.5328   -1.6977    0.8507 Cl  0  0  0  0  0  0  0  0  0  0  0  0
   -6.9565    0.5790   -0.2843 S   0  0  0  0  0  0  0  0  0  0  0  0
    0.9350   -1.5334   -1.0505 O   0  0  0  0  0  0  0  0  0  0  0  0
    3.1568   -2.8423    0.7679 O   0  0  0  0  0  0  0  0  0  0  0  0
    5.6387   -4.0992    0.7521 O   0  0  0  0  0  0  0  0  0  0  0  0
   -1.6234    2.2558   -1.1494 O   0  0  0  0  0  0  0  0  0  0  0  0
    2.8684   -0.3093   -0.6167 N   0  0  0  0  0  0  0  0  0  0  0  0
   -0.7138    0.3804   -0.1830 N   0  0  0  0  0  0  0  0  0  0  0  0
   -4.2644    1.3071   -0.6476 N   0  0  0  0  0  0  0  0  0  0  0  0
    0.6545    0.7672   -0.4102 C   0  0  1  0  0  0  0  0  0  0  0  0
    1.1980    1.5507    0.7695 C   0  0  0  0  0  0  0  0  0  0  0  0
    2.6549    1.8367    0.5548 C   0  0  0  0  0  0  0  0  0  0  0  0
    3.4611    0.8933   -0.1059 C   0  0  0  0  0  0  0  0  0  0  0  0
    1.4764   -0.4867   -0.6865 C   0  0  0  0  0  0  0  0  0  0  0  0
    3.7423   -1.3887   -1.0692 C   0  0  0  0  0  0  0  0  0  0  0  0
    4.2603   -2.2543    0.0779 C   0  0  2  0  0  0  0  0  0  0  0  0
    3.2221    3.0038    1.0875 C   0  0  0  0  0  0  0  0  0  0  0  0
    4.8368    1.1516   -0.2207 C   0  0  0  0  0  0  0  0  0  0  0  0
   -1.7899    1.1754   -0.5803 C   0  0  0  0  0  0  0  0  0  0  0  0
    4.5856    3.2491    0.9533 C   0  0  0  0  0  0  0  0  0  0  0  0
    5.1908   -3.3701   -0.3864 C   0  0  0  0  0  0  0  0  0  0  0  0
    5.3919    2.3234    0.3003 C   0  0  0  0  0  0  0  0  0  0  0  0
   -3.1270    0.6295   -0.3078 C   0  0  0  0  0  0  0  0  0  0  0  0
   -3.4108   -0.5663    0.2893 C   0  0  0  0  0  0  0  0  0  0  0  0
   -4.7991   -0.5898    0.2997 C   0  0  0  0  0  0  0  0  0  0  0  0
   -5.2960    0.5228   -0.2560 C   0  0  0  0  0  0  0  0  0  0  0  0
   -5.7467   -1.5027    0.7549 C   0  0  0  0  0  0  0  0  0  0  0  0
   -7.0131   -0.9854    0.4967 C   0  0  0  0  0  0  0  0  0  0  0  0
    0.7032    1.3788   -1.3214 H   0  0  0  0  0  0  0  0  0  0  0  0
    0.6342    2.4846    0.8848 H   0  0  0  0  0  0  0  0  0  0  0  0
    1.0870    0.9842    1.7032 H   0  0  0  0  0  0  0  0  0  0  0  0
    4.5481   -1.0020   -1.6999 H   0  0  0  0  0  0  0  0  0  0  0  0
    3.1559   -2.0333   -1.7371 H   0  0  0  0  0  0  0  0  0  0  0  0
   -0.8736   -0.4987    0.2971 H   0  0  0  0  0  0  0  0  0  0  0  0
    4.7843   -1.6320    0.8128 H   0  0  0  0  0  0  0  0  0  0  0  0
    2.6027    3.7244    1.6155 H   0  0  0  0  0  0  0  0  0  0  0  0
    5.5238    0.4676   -0.7071 H   0  0  0  0  0  0  0  0  0  0  0  0
    4.6805   -4.0703   -1.0559 H   0  0  0  0  0  0  0  0  0  0  0  0
    6.0669   -2.9631   -0.8998 H   0  0  0  0  0  0  0  0  0  0  0  0
    5.0192    4.1556    1.3646 H   0  0  0  0  0  0  0  0  0  0  0  0
    6.4577    2.5082    0.2000 H   0  0  0  0  0  0  0  0  0  0  0  0
   -2.7325   -1.3185    0.6648 H   0  0  0  0  0  0  0  0  0  0  0  0
   -4.3218    2.2109   -1.0992 H   0  0  0  0  0  0  0  0  0  0  0  0
    3.4959   -3.2266    1.5938 H   0  0  0  0  0  0  0  0  0  0  0  0
   -5.5601   -2.4564    1.2308 H   0  0  0  0  0  0  0  0  0  0  0  0
    4.8851   -4.6148    1.0857 H   0  0  0  0  0  0  0  0  0  0  0  0
  1 28  1  0  0  0  0
  2 26  1  0  0  0  0
  2 28  1  0  0  0  0
  3 14  2  0  0  0  0
  4 16  1  0  0  0  0
  4 44  1  0  0  0  0
  5 21  1  0  0  0  0
  5 46  1  0  0  0  0
  6 19  2  0  0  0  0
  7 13  1  0  0  0  0
  7 14  1  0  0  0  0
  7 15  1  0  0  0  0
  8 10  1  0  0  0  0
  8 19  1  0  0  0  0
  8 34  1  0  0  0  0
  9 23  1  0  0  0  0
  9 26  1  0  0  0  0
  9 43  1  0  0  0  0
 10 11  1  0  0  0  0
 10 14  1  0  0  0  0
 10 29  1  0  0  0  0
 11 12  1  0  0  0  0
 11 30  1  0  0  0  0
 11 31  1  0  0  0  0
 12 13  1  0  0  0  0
 12 17  2  0  0  0  0
 13 18  2  0  0  0  0
 15 16  1  0  0  0  0
 15 32  1  0  0  0  0
 15 33  1  0  0  0  0
 16 21  1  0  0  0  0
 16 35  1  0  0  0  0
 17 20  1  0  0  0  0
 17 36  1  0  0  0  0
 18 22  1  0  0  0  0
 18 37  1  0  0  0  0
 19 23  1  0  0  0  0
 20 22  2  0  0  0  0
 20 40  1  0  0  0  0
 21 38  1  0  0  0  0
 21 39  1  0  0  0  0
 22 41  1  0  0  0  0
 23 24  2  0  0  0  0
 24 25  1  0  0  0  0
 24 42  1  0  0  0  0
 25 26  2  0  0  0  0
 25 27  1  0  0  0  0
 27 28  2  0  0  0  0
 27 45  1  0  0  0  0
M  END
> <PUBCHEM_COMPOUND_CID>
10477191

> <PUBCHEM_CONFORMER_RMSD>
0.8

> <PUBCHEM_CONFORMER_DIVERSEORDER>
3
77
11
14
100
56
79
54
81
78
48
34
74
64
109
57
52
69
84
10
55
98
67
13
53
86
106
89
72
30
59
45
76
105
95
110
24
1
103
27
22
43
65
66
80
70
107
51
68
37
47
62
87
9
7
85
94
8
63
102
21
2
44
25
29
26
92
93
58
32
38
6
99
71
96
31
17
28
20
49
61
97
16
60
4
75
46
83
40
41
108
36
88
50
101
5
73
39
33
42
104
15
23
91
82
18
12
90
19
35

> <PUBCHEM_MMFF94_PARTIAL_CHARGES>
37
1 -0.12
10 0.36
11 0.14
12 -0.14
13 0.12
14 0.57
15 0.3
16 0.28
17 -0.15
18 -0.15
19 0.71
2 -0.08
20 -0.15
21 0.28
22 -0.15
23 -0.24
24 -0.15
26 -0.11
27 -0.15
28 0.16
3 -0.57
34 0.37
36 0.15
37 0.15
4 -0.68
40 0.15
41 0.15
42 0.15
43 0.27
44 0.4
45 0.15
46 0.4
5 -0.68
6 -0.57
7 -0.48
8 -0.73
9 0.03

> <PUBCHEM_EFFECTIVE_ROTOR_COUNT>
6.6

> <PUBCHEM_PHARMACOPHORE_FEATURES>
13
1 3 acceptor
1 4 acceptor
1 4 donor
1 5 acceptor
1 5 donor
1 6 acceptor
1 8 donor
1 9 cation
1 9 donor
5 2 25 26 27 28 rings
5 9 23 24 25 26 rings
6 12 13 17 18 20 22 rings
6 7 10 11 12 13 14 rings

> <PUBCHEM_HEAVY_ATOM_COUNT>
28

> <PUBCHEM_ATOM_DEF_STEREO_COUNT>
1

> <PUBCHEM_ATOM_UDEF_STEREO_COUNT>
1

> <PUBCHEM_BOND_DEF_STEREO_COUNT>
0

> <PUBCHEM_BOND_UDEF_STEREO_COUNT>
0

> <PUBCHEM_ISOTOPIC_ATOM_COUNT>
0

> <PUBCHEM_COMPONENT_COUNT>
1

> <PUBCHEM_CACTVS_TAUTO_COUNT>
3

> <PUBCHEM_CONFORMER_ID>
009FDE8700000003

> <PUBCHEM_MMFF94_ENERGY>
68.3885

> <PUBCHEM_FEATURE_SELFOVERLAP>
66.252

> <PUBCHEM_SHAPE_FINGERPRINT>
10 15 18264484164582271033
10050765 1 18339079276680313385
10165383 225 18267869557359586676
10411042 1 18126005963054653534
10673678 19 18046639072870678452
10835480 77 18411131434149286421
11475781 23 17096622376366278165
117089 54 17767694858431694614
11963148 33 18264484155887120422
12107183 9 17911810072081363401
12236239 1 16200158728653855241
12516196 113 18411139182248961797
12616971 3 17775277249407866351
12623949 98 18341621390649847174
12730499 353 18341051912662789136
13009979 54 17416409762743030240
13073987 5 18341617010300396681
13140716 1 17841148854127672968
13533116 47 18412546513438524171
13540713 4 18189882158745642772
13540713 5 17630583799751971206
13782708 43 18261956245752944439
13955234 65 18271518780369154560
14114211 68 18265067984609855076
14341114 176 18272657882863208661
14347424 109 18272654532867579657
14461889 52 18261955274868406571
14565420 104 18128811040133540216
14910302 57 17894345562666457103
14955137 171 18126843803488859950
15475509 35 17604417510649877290
15510800 12 17532667917755332963
15927050 60 18197775703794297110
16990366 60 18117551839376172762
16991971 28 18128543674535983558
17844677 252 18342182133306861449
20771845 171 17967823773636873700
21033650 10 16371851729922922109
21049683 271 18336834109413822452
21130935 74 18410860975853042611
21344244 78 17988067891211224162
22224240 67 18198901599083990105
23522609 53 17975733564732930893
23559900 14 18113340790664394687
23569943 247 18116435835057987259
239999 70 18272657839934206462
249999 5 18341888619905760768
25147074 1 17631433704870241294
3004659 81 17894633604200140243
3178227 256 18271240634240368928
3411729 13 18342174514250831356
3421961 26 18412260606530427896
345986 75 17418377965117457920
3663271 9 18130797776361663033
4073 2 18264210390734726971
4093350 32 17131843079077181028
4340502 62 18335416911280387384
465052 167 18342460292394707774
5104073 3 18271529706502263513
513532 50 17967810553094436690
5385378 56 18272363214116165304
57527295 17 17971203530335279048
59755656 215 18411703218533664516
7495541 125 18338237064032001958
8863177 126 18408606946102140871
9962374 69 18271794718463549502

> <PUBCHEM_SHAPE_MULTIPOLES>
543.53
20.04
3.84
1
34.3
2.48
0.01
7.55
4.2
-9.81
1
-0.1
-0.06
1.96

> <PUBCHEM_SHAPE_SELFOVERLAP>
1170.664

> <PUBCHEM_SHAPE_VOLUME>
300.8

> <PUBCHEM_COORDINATE_TYPE>
2
5
10

$$$$
