104762
  -OEChem-03292013323D

 31 32  0     1  0  0  0  0  0999 V2000
    1.8038   -0.5758   -0.9384 O   0  0  0  0  0  0  0  0  0  0  0  0
    1.2413    2.3483    1.0750 O   0  0  0  0  0  0  0  0  0  0  0  0
    3.4438    1.9512   -0.4665 O   0  0  0  0  0  0  0  0  0  0  0  0
    3.3714   -2.7983   -0.2557 O   0  0  0  0  0  0  0  0  0  0  0  0
   -1.6479    1.8513   -0.7048 O   0  0  0  0  0  0  0  0  0  0  0  0
   -4.4979    0.9507   -0.2763 O   0  0  0  0  0  0  0  0  0  0  0  0
   -0.3903   -0.0742   -0.1870 N   0  0  0  0  0  0  0  0  0  0  0  0
   -1.9692   -1.5408    0.3612 N   0  0  0  0  0  0  0  0  0  0  0  0
   -4.7666   -1.2014    0.4250 N   0  0  0  0  0  0  0  0  0  0  0  0
    1.6306    1.0169    0.8057 C   0  0  2  0  0  0  0  0  0  0  0  0
    3.0922    0.8916    0.4232 C   0  0  1  0  0  0  0  0  0  0  0  0
    0.9448    0.4652   -0.4348 C   0  0  1  0  0  0  0  0  0  0  0  0
    3.1151   -0.4251   -0.3467 C   0  0  1  0  0  0  0  0  0  0  0  0
    3.3804   -1.6297    0.5455 C   0  0  0  0  0  0  0  0  0  0  0  0
   -1.5812    0.5863   -0.3185 C   0  0  0  0  0  0  0  0  0  0  0  0
   -0.6761   -1.3486    0.2233 C   0  0  0  0  0  0  0  0  0  0  0  0
   -2.5392   -0.3387    0.0245 C   0  0  0  0  0  0  0  0  0  0  0  0
   -3.9551   -0.1289    0.0454 C   0  0  0  0  0  0  0  0  0  0  0  0
    1.4135    0.4027    1.6872 H   0  0  0  0  0  0  0  0  0  0  0  0
    3.7709    0.9342    1.2798 H   0  0  0  0  0  0  0  0  0  0  0  0
    0.8591    1.2094   -1.2342 H   0  0  0  0  0  0  0  0  0  0  0  0
    3.8322   -0.4106   -1.1752 H   0  0  0  0  0  0  0  0  0  0  0  0
    2.6121   -1.7490    1.3159 H   0  0  0  0  0  0  0  0  0  0  0  0
    4.3574   -1.5525    1.0314 H   0  0  0  0  0  0  0  0  0  0  0  0
    1.4860    2.8940    0.3083 H   0  0  0  0  0  0  0  0  0  0  0  0
    4.3705    1.8145   -0.7280 H   0  0  0  0  0  0  0  0  0  0  0  0
    0.0886   -2.0899    0.4108 H   0  0  0  0  0  0  0  0  0  0  0  0
    2.5000   -2.8533   -0.6841 H   0  0  0  0  0  0  0  0  0  0  0  0
   -0.7580    2.2370   -0.7329 H   0  0  0  0  0  0  0  0  0  0  0  0
   -4.3803   -2.1028    0.6869 H   0  0  0  0  0  0  0  0  0  0  0  0
   -5.7765   -1.1081    0.4491 H   0  0  0  0  0  0  0  0  0  0  0  0
  1 12  1  0  0  0  0
  1 13  1  0  0  0  0
  2 10  1  0  0  0  0
  2 25  1  0  0  0  0
  3 11  1  0  0  0  0
  3 26  1  0  0  0  0
  4 14  1  0  0  0  0
  4 28  1  0  0  0  0
  5 15  1  0  0  0  0
  5 29  1  0  0  0  0
  6 18  2  0  0  0  0
  7 12  1  0  0  0  0
  7 15  1  0  0  0  0
  7 16  1  0  0  0  0
  8 16  2  0  0  0  0
  8 17  1  0  0  0  0
  9 18  1  0  0  0  0
  9 30  1  0  0  0  0
  9 31  1  0  0  0  0
 10 11  1  0  0  0  0
 10 12  1  0  0  0  0
 10 19  1  0  0  0  0
 11 13  1  0  0  0  0
 11 20  1  0  0  0  0
 12 21  1  0  0  0  0
 13 14  1  0  0  0  0
 13 22  1  0  0  0  0
 14 23  1  0  0  0  0
 14 24  1  0  0  0  0
 15 17  2  0  0  0  0
 16 27  1  0  0  0  0
 17 18  1  0  0  0  0
M  END
> <PUBCHEM_COMPOUND_CID>
104762

> <PUBCHEM_CONFORMER_RMSD>
0.6

> <PUBCHEM_CONFORMER_DIVERSEORDER>
3
45
43
12
31
51
8
48
6
44
38
36
2
25
18
50
52
22
42
24
29
13
20
39
4
14
35
49
41
37
47
27
46
17
21
16
30
28
1
10
32
33
11
23
9
40
26
5
34
15
19
7

> <PUBCHEM_MMFF94_PARTIAL_CHARGES>
25
1 -0.56
10 0.28
11 0.28
12 0.54
13 0.28
14 0.28
15 -0.09
16 0.04
17 0.14
18 0.72
2 -0.68
25 0.4
26 0.4
27 0.15
28 0.4
29 0.45
3 -0.68
30 0.37
31 0.37
4 -0.68
5 -0.51
6 -0.57
7 0.05
8 -0.57
9 -0.8

> <PUBCHEM_EFFECTIVE_ROTOR_COUNT>
4

> <PUBCHEM_PHARMACOPHORE_FEATURES>
13
1 1 acceptor
1 2 acceptor
1 2 donor
1 3 acceptor
1 3 donor
1 4 acceptor
1 4 donor
1 5 donor
1 6 acceptor
1 9 donor
3 7 8 16 cation
5 1 10 11 12 13 rings
5 7 8 15 16 17 rings

> <PUBCHEM_HEAVY_ATOM_COUNT>
18

> <PUBCHEM_ATOM_DEF_STEREO_COUNT>
4

> <PUBCHEM_ATOM_UDEF_STEREO_COUNT>
0

> <PUBCHEM_BOND_DEF_STEREO_COUNT>
0

> <PUBCHEM_BOND_UDEF_STEREO_COUNT>
0

> <PUBCHEM_ISOTOPIC_ATOM_COUNT>
0

> <PUBCHEM_COMPONENT_COUNT>
1

> <PUBCHEM_CACTVS_TAUTO_COUNT>
5

> <PUBCHEM_CONFORMER_ID>
0001993A00000003

> <PUBCHEM_MMFF94_ENERGY>
36.0369

> <PUBCHEM_FEATURE_SELFOVERLAP>
65.99

> <PUBCHEM_SHAPE_FINGERPRINT>
10130415 120 18342738481710393528
10608611 8 18411133671093654069
1100329 8 16680905537638299019
11471102 20 18272651272496765172
12032990 46 18261116292200103067
12403259 226 18410005507965633525
12500047 106 18337950220040358827
12507560 14 18059289864279582022
13675066 3 18040437707040427667
14178342 30 17979620561785564362
14866123 147 17045708145453292442
15196674 1 18408604760379959813
15219456 202 18412260657611106053
15442244 35 18268995293318518056
15536298 74 18409445877673980315
16945 1 18268980063549050604
17804303 29 18336550417184200479
18186145 218 18130796663448194131
19049666 15 18339071601757689680
200 152 17703501130399415565
20510252 161 18409448085767354793
20559304 39 18413387640255934680
20645477 70 18412263926065790510
21501502 16 18341604983869507526
23402539 116 18411689998423438853
23559900 14 18408602552592728942
31174 14 18341608260792417192
3286 77 18342173354213918677
42 15 18260546701625933443
474 4 16010169798164307780
5104073 3 18409450276168495329
633830 44 18040990731292805479
69090 78 18343297106827329335
7364860 26 18411136948670340806
9709674 26 18334861635948812011

> <PUBCHEM_SHAPE_MULTIPOLES>
320.27
8.02
2.22
0.82
5.6
0.24
0.04
1.55
0.2
-1.85
0.17
-0.27
-0.15
0.52

> <PUBCHEM_SHAPE_SELFOVERLAP>
680.056

> <PUBCHEM_SHAPE_VOLUME>
179.6

> <PUBCHEM_COORDINATE_TYPE>
2
5
10

$$$$
