10479712
  -OEChem-03292013303D

 63 65  0     1  0  0  0  0  0999 V2000
    3.1895    0.7724    0.7869 O   0  0  0  0  0  0  0  0  0  0  0  0
    1.7911   -2.6260    0.3051 O   0  0  0  0  0  0  0  0  0  0  0  0
    4.1462   -2.6490    1.3826 O   0  0  0  0  0  0  0  0  0  0  0  0
    4.9038   -1.1140   -0.2455 O   0  0  0  0  0  0  0  0  0  0  0  0
   -0.2268    6.2253   -0.0556 O   0  0  0  0  0  0  0  0  0  0  0  0
    0.1067   -0.8874   -1.3864 N   0  0  0  0  0  0  0  0  0  0  0  0
   -1.1107    4.0683   -0.4085 N   0  0  0  0  0  0  0  0  0  0  0  0
   -1.2398   -2.4009   -2.6824 N   0  0  0  0  0  0  0  0  0  0  0  0
   -2.0543   -1.4331   -0.6462 N   0  0  0  0  0  0  0  0  0  0  0  0
    0.6529   -2.5772   -4.3104 N   0  0  0  0  0  0  0  0  0  0  0  0
    2.9555   -0.6171    1.0820 C   0  0  1  0  0  0  0  0  0  0  0  0
    2.0520   -1.2557    0.0077 C   0  0  2  0  0  0  0  0  0  0  0  0
    0.7037   -0.5285   -0.1092 C   0  0  1  0  0  0  0  0  0  0  0  0
    4.3482   -1.2721    1.0568 C   0  0  0  0  0  0  0  0  0  0  0  0
    0.8779    0.9658    0.0145 C   0  0  0  0  0  0  0  0  0  0  0  0
    2.4014   -0.7513    2.5118 C   0  0  0  0  0  0  0  0  0  0  0  0
    2.0941    1.5163    0.4385 C   0  0  0  0  0  0  0  0  0  0  0  0
   -0.1928    1.8383   -0.2453 C   0  0  0  0  0  0  0  0  0  0  0  0
    2.2571    2.9031    0.5268 C   0  0  0  0  0  0  0  0  0  0  0  0
   -0.0342    3.2215   -0.1414 C   0  0  0  0  0  0  0  0  0  0  0  0
    1.1942    3.7544    0.2354 C   0  0  0  0  0  0  0  0  0  0  0  0
   -1.0991   -1.5547   -1.5166 C   0  0  0  0  0  0  0  0  0  0  0  0
    5.3451   -3.2627    1.8375 C   0  0  0  0  0  0  0  0  0  0  0  0
    5.4650    0.1745   -0.4572 C   0  0  0  0  0  0  0  0  0  0  0  0
   -3.3001   -2.1590   -0.8349 C   0  0  0  0  0  0  0  0  0  0  0  0
   -1.1455    5.4680   -0.3512 C   0  0  0  0  0  0  0  0  0  0  0  0
   -4.2990   -1.8463    0.2439 C   0  0  0  0  0  0  0  0  0  0  0  0
   -0.2218   -2.4922   -3.5527 C   0  0  0  0  0  0  0  0  0  0  0  0
   -2.5057    6.0089   -0.7142 C   0  0  0  0  0  0  0  0  0  0  0  0
   -4.3309   -2.6136    1.4084 C   0  0  0  0  0  0  0  0  0  0  0  0
   -5.1937   -0.7886    0.0809 C   0  0  0  0  0  0  0  0  0  0  0  0
   -5.2576   -2.3234    2.4097 C   0  0  0  0  0  0  0  0  0  0  0  0
   -6.1203   -0.4983    1.0823 C   0  0  0  0  0  0  0  0  0  0  0  0
   -6.1523   -1.2658    2.2468 C   0  0  0  0  0  0  0  0  0  0  0  0
    2.5570   -1.2229   -0.9664 H   0  0  0  0  0  0  0  0  0  0  0  0
    0.0500   -0.8493    0.7125 H   0  0  0  0  0  0  0  0  0  0  0  0
    5.0047   -0.8102    1.8077 H   0  0  0  0  0  0  0  0  0  0  0  0
    3.0740   -0.2652    3.2289 H   0  0  0  0  0  0  0  0  0  0  0  0
    1.4371   -0.2449    2.6237 H   0  0  0  0  0  0  0  0  0  0  0  0
    2.2681   -1.7911    2.8248 H   0  0  0  0  0  0  0  0  0  0  0  0
    0.6929   -0.7445   -2.2039 H   0  0  0  0  0  0  0  0  0  0  0  0
   -1.1591    1.4322   -0.5378 H   0  0  0  0  0  0  0  0  0  0  0  0
    1.2228   -2.6707    1.0919 H   0  0  0  0  0  0  0  0  0  0  0  0
    3.2100    3.3240    0.8384 H   0  0  0  0  0  0  0  0  0  0  0  0
    1.3967    4.8115    0.3334 H   0  0  0  0  0  0  0  0  0  0  0  0
    6.1277   -3.1929    1.0759 H   0  0  0  0  0  0  0  0  0  0  0  0
    5.6819   -2.7998    2.7700 H   0  0  0  0  0  0  0  0  0  0  0  0
    5.1381   -4.3188    2.0296 H   0  0  0  0  0  0  0  0  0  0  0  0
    4.7601    0.8122   -0.9966 H   0  0  0  0  0  0  0  0  0  0  0  0
    5.8130    0.6558    0.4622 H   0  0  0  0  0  0  0  0  0  0  0  0
    6.3327    0.0481   -1.1124 H   0  0  0  0  0  0  0  0  0  0  0  0
   -1.9748    3.6014   -0.6763 H   0  0  0  0  0  0  0  0  0  0  0  0
   -2.1027   -2.9152   -2.8187 H   0  0  0  0  0  0  0  0  0  0  0  0
   -3.1170   -3.2416   -0.8387 H   0  0  0  0  0  0  0  0  0  0  0  0
   -3.7525   -1.9088   -1.8037 H   0  0  0  0  0  0  0  0  0  0  0  0
   -2.5050    7.0994   -0.6319 H   0  0  0  0  0  0  0  0  0  0  0  0
   -2.7516    5.7298   -1.7425 H   0  0  0  0  0  0  0  0  0  0  0  0
   -3.2602    5.6029   -0.0345 H   0  0  0  0  0  0  0  0  0  0  0  0
   -3.6375   -3.4387    1.5483 H   0  0  0  0  0  0  0  0  0  0  0  0
   -5.1772   -0.1816   -0.8205 H   0  0  0  0  0  0  0  0  0  0  0  0
   -5.2821   -2.9204    3.3167 H   0  0  0  0  0  0  0  0  0  0  0  0
   -6.8165    0.3257    0.9559 H   0  0  0  0  0  0  0  0  0  0  0  0
   -6.8736   -1.0396    3.0266 H   0  0  0  0  0  0  0  0  0  0  0  0
  1 11  1  0  0  0  0
  1 17  1  0  0  0  0
  2 12  1  0  0  0  0
  2 43  1  0  0  0  0
  3 14  1  0  0  0  0
  3 23  1  0  0  0  0
  4 14  1  0  0  0  0
  4 24  1  0  0  0  0
  5 26  2  0  0  0  0
  6 13  1  0  0  0  0
  6 22  1  0  0  0  0
  6 41  1  0  0  0  0
  7 20  1  0  0  0  0
  7 26  1  0  0  0  0
  7 52  1  0  0  0  0
  8 22  1  0  0  0  0
  8 28  1  0  0  0  0
  8 53  1  0  0  0  0
  9 22  2  0  0  0  0
  9 25  1  0  0  0  0
 10 28  3  0  0  0  0
 11 12  1  0  0  0  0
 11 14  1  0  0  0  0
 11 16  1  0  0  0  0
 12 13  1  0  0  0  0
 12 35  1  0  0  0  0
 13 15  1  0  0  0  0
 13 36  1  0  0  0  0
 14 37  1  0  0  0  0
 15 17  2  0  0  0  0
 15 18  1  0  0  0  0
 16 38  1  0  0  0  0
 16 39  1  0  0  0  0
 16 40  1  0  0  0  0
 17 19  1  0  0  0  0
 18 20  2  0  0  0  0
 18 42  1  0  0  0  0
 19 21  2  0  0  0  0
 19 44  1  0  0  0  0
 20 21  1  0  0  0  0
 21 45  1  0  0  0  0
 23 46  1  0  0  0  0
 23 47  1  0  0  0  0
 23 48  1  0  0  0  0
 24 49  1  0  0  0  0
 24 50  1  0  0  0  0
 24 51  1  0  0  0  0
 25 27  1  0  0  0  0
 25 54  1  0  0  0  0
 25 55  1  0  0  0  0
 26 29  1  0  0  0  0
 27 30  2  0  0  0  0
 27 31  1  0  0  0  0
 29 56  1  0  0  0  0
 29 57  1  0  0  0  0
 29 58  1  0  0  0  0
 30 32  1  0  0  0  0
 30 59  1  0  0  0  0
 31 33  2  0  0  0  0
 31 60  1  0  0  0  0
 32 34  2  0  0  0  0
 32 61  1  0  0  0  0
 33 34  1  0  0  0  0
 33 62  1  0  0  0  0
 34 63  1  0  0  0  0
M  END
> <PUBCHEM_COMPOUND_CID>
10479712

> <PUBCHEM_CONFORMER_RMSD>
1

> <PUBCHEM_CONFORMER_DIVERSEORDER>
6
64
24
59
53
29
42
36
47
30
55
63
48
20
9
52
34
37
4
61
25
51
10
50
13
11
66
35
44
38
57
56
31
17
15
58
19
27
40
5
21
26
49
46
33
1
65
14
62
41
12
43
32
7
28
54
3
23
45
2
39
60
22
18
16
8

> <PUBCHEM_MMFF94_PARTIAL_CHARGES>
45
1 -0.36
10 -0.56
11 0.28
12 0.28
13 0.51
14 0.56
15 -0.14
17 0.08
18 -0.15
19 -0.15
2 -0.68
20 0.12
21 -0.15
22 0.55
23 0.28
24 0.28
25 0.39
26 0.57
27 -0.14
28 0.62
29 0.06
3 -0.56
30 -0.15
31 -0.15
32 -0.15
33 -0.15
34 -0.15
4 -0.56
41 0.4
42 0.15
43 0.4
44 0.15
45 0.15
5 -0.57
52 0.37
53 0.4
59 0.15
6 -0.82
60 0.15
61 0.15
62 0.15
63 0.15
7 -0.55
8 -0.51
9 -0.7

> <PUBCHEM_EFFECTIVE_ROTOR_COUNT>
10.8

> <PUBCHEM_PHARMACOPHORE_FEATURES>
14
1 1 acceptor
1 10 acceptor
1 2 acceptor
1 2 donor
1 3 acceptor
1 4 acceptor
1 5 acceptor
1 6 donor
1 7 donor
1 8 donor
4 6 8 9 22 cation
6 1 11 12 13 15 17 rings
6 15 17 18 19 20 21 rings
6 27 30 31 32 33 34 rings

> <PUBCHEM_HEAVY_ATOM_COUNT>
34

> <PUBCHEM_ATOM_DEF_STEREO_COUNT>
3

> <PUBCHEM_ATOM_UDEF_STEREO_COUNT>
0

> <PUBCHEM_BOND_DEF_STEREO_COUNT>
0

> <PUBCHEM_BOND_UDEF_STEREO_COUNT>
0

> <PUBCHEM_ISOTOPIC_ATOM_COUNT>
0

> <PUBCHEM_COMPONENT_COUNT>
1

> <PUBCHEM_CACTVS_TAUTO_COUNT>
6

> <PUBCHEM_CONFORMER_ID>
009FE86000000006

> <PUBCHEM_MMFF94_ENERGY>
128.0923

> <PUBCHEM_FEATURE_SELFOVERLAP>
71.164

> <PUBCHEM_SHAPE_FINGERPRINT>
10074138 170 17759214341929590056
11049842 53 16842223031738959159
11093857 5 17402352381891576241
11991303 11 17684091275319204356
12128747 34 17823119191214555407
12160290 23 17688544379195716020
12422481 6 18060422374299517651
12788726 201 18261668173574215320
13583140 156 18044646745221382767
13590594 115 18409451405450014209
13965767 371 17774713285647204714
15475509 84 18335981974067899449
15775530 1 17481720654063062263
20739085 24 18268717275642716073
21133410 230 17697341528463900870
24771293 8 17912354627259645960
3380486 145 17981286214638258340
3552219 110 17967544467201662604
38570 142 17184770515317835973
513202 73 18197781007641258990
54728670 133 18122610674630483337
550186 83 18270413792156604678
86090 222 16806443807181031803

> <PUBCHEM_SHAPE_MULTIPOLES>
645.45
11.43
7.44
2.7
9.72
17.97
2.82
-11.99
-9
0.93
1.19
0.88
-4.09
0.09

> <PUBCHEM_SHAPE_SELFOVERLAP>
1362.194

> <PUBCHEM_SHAPE_VOLUME>
355.4

> <PUBCHEM_COORDINATE_TYPE>
2
5
10

$$$$
