10474479
  -OEChem-03292013303D

 46 49  0     1  0  0  0  0  0999 V2000
    4.2683    0.6465    0.9961 O   0  0  0  0  0  0  0  0  0  0  0  0
    5.2343   -1.7147   -0.9494 O   0  0  0  0  0  0  0  0  0  0  0  0
    6.0927    0.6035   -2.0989 O   0  0  0  0  0  0  0  0  0  0  0  0
    5.9023    2.8444    1.6857 O   0  0  0  0  0  0  0  0  0  0  0  0
   -8.0632    2.2218   -0.5202 O   0  0  0  0  0  0  0  0  0  0  0  0
    2.1835   -0.2294    0.2743 N   0  0  0  0  0  0  0  0  0  0  0  0
    0.2626    0.8893    0.0836 N   0  0  0  0  0  0  0  0  0  0  0  0
    1.3246   -2.4888    0.5190 N   0  0  0  0  0  0  0  0  0  0  0  0
   -2.4207   -0.5380    0.1715 N   0  0  0  0  0  0  0  0  0  0  0  0
   -1.1147   -2.5238    0.4501 N   0  0  0  0  0  0  0  0  0  0  0  0
    4.2856   -0.6518   -1.0223 C   0  0  1  0  0  0  0  0  0  0  0  0
    3.6256   -0.4707    0.3458 C   0  0  1  0  0  0  0  0  0  0  0  0
    4.9721    0.6828   -1.2444 C   0  0  1  0  0  0  0  0  0  0  0  0
    5.3572    1.0866    0.1681 C   0  0  1  0  0  0  0  0  0  0  0  0
    5.5590    2.5820    0.3364 C   0  0  0  0  0  0  0  0  0  0  0  0
    1.1894   -1.1640    0.3564 C   0  0  0  0  0  0  0  0  0  0  0  0
    1.5753    0.9884    0.1114 C   0  0  0  0  0  0  0  0  0  0  0  0
    0.0076   -0.4505    0.2356 C   0  0  0  0  0  0  0  0  0  0  0  0
   -1.1758   -1.1802    0.2872 C   0  0  0  0  0  0  0  0  0  0  0  0
    0.1137   -3.0863    0.5544 C   0  0  0  0  0  0  0  0  0  0  0  0
   -3.6693   -1.2394    0.2176 C   0  0  0  0  0  0  0  0  0  0  0  0
   -4.8387   -0.3184    0.0214 C   0  0  0  0  0  0  0  0  0  0  0  0
   -5.3163   -0.0781   -1.2612 C   0  0  0  0  0  0  0  0  0  0  0  0
   -5.4314    0.2842    1.1246 C   0  0  0  0  0  0  0  0  0  0  0  0
   -6.4025    0.7777   -1.4436 C   0  0  0  0  0  0  0  0  0  0  0  0
   -6.5177    1.1400    0.9425 C   0  0  0  0  0  0  0  0  0  0  0  0
   -7.0034    1.3867   -0.3417 C   0  0  0  0  0  0  0  0  0  0  0  0
    3.5888   -0.8972   -1.8302 H   0  0  0  0  0  0  0  0  0  0  0  0
    3.7666   -1.3432    0.9941 H   0  0  0  0  0  0  0  0  0  0  0  0
    4.2499    1.3929   -1.6660 H   0  0  0  0  0  0  0  0  0  0  0  0
    6.2590    0.5584    0.5042 H   0  0  0  0  0  0  0  0  0  0  0  0
    6.3656    2.9522   -0.3026 H   0  0  0  0  0  0  0  0  0  0  0  0
    4.6444    3.1399    0.1108 H   0  0  0  0  0  0  0  0  0  0  0  0
    4.7402   -2.5322   -0.7667 H   0  0  0  0  0  0  0  0  0  0  0  0
    6.4903    1.4891   -2.1487 H   0  0  0  0  0  0  0  0  0  0  0  0
    2.1317    1.9106    0.0140 H   0  0  0  0  0  0  0  0  0  0  0  0
    5.1792    2.5094    2.2431 H   0  0  0  0  0  0  0  0  0  0  0  0
   -2.4117    0.4697    0.0551 H   0  0  0  0  0  0  0  0  0  0  0  0
    0.1248   -4.1632    0.6837 H   0  0  0  0  0  0  0  0  0  0  0  0
   -3.7756   -1.7599    1.1784 H   0  0  0  0  0  0  0  0  0  0  0  0
   -3.6951   -2.0208   -0.5533 H   0  0  0  0  0  0  0  0  0  0  0  0
   -4.8546   -0.5454   -2.1267 H   0  0  0  0  0  0  0  0  0  0  0  0
   -5.0599    0.1007    2.1290 H   0  0  0  0  0  0  0  0  0  0  0  0
   -6.7710    0.9622   -2.4491 H   0  0  0  0  0  0  0  0  0  0  0  0
   -6.9811    1.6120    1.8046 H   0  0  0  0  0  0  0  0  0  0  0  0
   -8.2645    2.2769   -1.4702 H   0  0  0  0  0  0  0  0  0  0  0  0
  1 12  1  0  0  0  0
  1 14  1  0  0  0  0
  2 11  1  0  0  0  0
  2 34  1  0  0  0  0
  3 13  1  0  0  0  0
  3 35  1  0  0  0  0
  4 15  1  0  0  0  0
  4 37  1  0  0  0  0
  5 27  1  0  0  0  0
  5 46  1  0  0  0  0
  6 12  1  0  0  0  0
  6 16  1  0  0  0  0
  6 17  1  0  0  0  0
  7 17  2  0  0  0  0
  7 18  1  0  0  0  0
  8 16  2  0  0  0  0
  8 20  1  0  0  0  0
  9 19  1  0  0  0  0
  9 21  1  0  0  0  0
  9 38  1  0  0  0  0
 10 19  1  0  0  0  0
 10 20  2  0  0  0  0
 11 12  1  0  0  0  0
 11 13  1  0  0  0  0
 11 28  1  0  0  0  0
 12 29  1  0  0  0  0
 13 14  1  0  0  0  0
 13 30  1  0  0  0  0
 14 15  1  0  0  0  0
 14 31  1  0  0  0  0
 15 32  1  0  0  0  0
 15 33  1  0  0  0  0
 16 18  1  0  0  0  0
 17 36  1  0  0  0  0
 18 19  2  0  0  0  0
 20 39  1  0  0  0  0
 21 22  1  0  0  0  0
 21 40  1  0  0  0  0
 21 41  1  0  0  0  0
 22 23  2  0  0  0  0
 22 24  1  0  0  0  0
 23 25  1  0  0  0  0
 23 42  1  0  0  0  0
 24 26  2  0  0  0  0
 24 43  1  0  0  0  0
 25 27  2  0  0  0  0
 25 44  1  0  0  0  0
 26 27  1  0  0  0  0
 26 45  1  0  0  0  0
M  END
> <PUBCHEM_COMPOUND_CID>
10474479

> <PUBCHEM_CONFORMER_RMSD>
0.8

> <PUBCHEM_CONFORMER_DIVERSEORDER>
1
135
46
151
149
150
89
79
2
67
137
34
81
96
43
59
146
119
24
103
144
51
4
69
126
106
13
127
145
41
86
80
116
65
142
60
21
74
5
57
92
83
112
35
131
16
12
20
95
68
108
63
8
22
97
17
62
111
104
88
42
49
64
134
26
153
143
58
71
102
148
52
124
75
48
133
140
47
109
128
31
122
117
118
11
90
78
30
14
33
87
40
3
114
147
39
100
38
55
70
121
18
129
50
91
99
32
19
29
105
44
120
45
113
82
28
152
110
139
15
66
138
10
54
53
56
7
25
73
6
9
93
76
36
98
132
130
27
115
101
136
141
37
61
125
84
85
23
123
107
77
94
72

> <PUBCHEM_MMFF94_PARTIAL_CHARGES>
38
1 -0.56
10 -0.62
11 0.28
12 0.54
13 0.28
14 0.28
15 0.28
16 0.11
17 0.04
18 0.23
19 0.41
2 -0.68
20 0.47
21 0.51
22 -0.14
23 -0.15
24 -0.15
25 -0.15
26 -0.15
27 0.08
3 -0.68
34 0.4
35 0.4
36 0.15
37 0.4
38 0.4
39 0.15
4 -0.68
42 0.15
43 0.15
44 0.15
45 0.15
46 0.45
5 -0.53
6 0.05
7 -0.57
8 -0.57
9 -0.87

> <PUBCHEM_EFFECTIVE_ROTOR_COUNT>
6

> <PUBCHEM_PHARMACOPHORE_FEATURES>
17
1 1 acceptor
1 2 acceptor
1 2 donor
1 3 acceptor
1 3 donor
1 4 acceptor
1 4 donor
1 5 donor
1 9 cation
1 9 donor
3 6 7 17 cation
3 6 8 16 cation
3 8 10 20 cation
5 1 11 12 13 14 rings
5 6 7 16 17 18 rings
6 22 23 24 25 26 27 rings
6 8 10 16 18 19 20 rings

> <PUBCHEM_HEAVY_ATOM_COUNT>
27

> <PUBCHEM_ATOM_DEF_STEREO_COUNT>
4

> <PUBCHEM_ATOM_UDEF_STEREO_COUNT>
0

> <PUBCHEM_BOND_DEF_STEREO_COUNT>
0

> <PUBCHEM_BOND_UDEF_STEREO_COUNT>
0

> <PUBCHEM_ISOTOPIC_ATOM_COUNT>
0

> <PUBCHEM_COMPONENT_COUNT>
1

> <PUBCHEM_CACTVS_TAUTO_COUNT>
6

> <PUBCHEM_CONFORMER_ID>
009FD3EF00000001

> <PUBCHEM_MMFF94_ENERGY>
68.8192

> <PUBCHEM_FEATURE_SELFOVERLAP>
86.894

> <PUBCHEM_SHAPE_FINGERPRINT>
10 15 17240490200127342249
10411042 1 17688023111811160634
10554248 39 18189037746995805271
10835480 77 18200591514059259296
10906281 52 17968108503470560073
11475781 23 18272651281513805356
11796584 16 15338832058397821223
12166972 35 12823297922264694715
12236239 1 17989485208838643243
13668630 136 11024101054485507805
13685833 64 10159692500280989767
14123256 34 10591764307419363477
14790565 3 18409453570012940617
15183329 4 17275108301804724879
15716309 27 11674879992343419821
1601671 61 18186238437456175247
17492 89 10374778934757896788
18222031 100 12823023040579676290
20281389 69 18187362130192789945
20715895 44 18337669823670320712
21033648 29 18187364375896228898
21033650 10 15984830277777398227
21150785 3 17131829919271057677
21279426 13 18412834585506684842
23559900 14 18339654451254565942
24771293 8 18264763436546882884
2748736 6 18337100250428864577
2838139 119 18412258411533127303
293599 30 18334297586525733499
29717793 49 17489593333485541390
312425 54 13190339076014102453
3504750 166 11819264560847163459
3663271 9 13839986620828796125
4340502 62 15574712486895771658
465052 167 9007057980476670640
50009960 94 11670131124056331820
5104073 3 18113613521046123498
5718773 13 11383843631914958436
58260988 393 14779542349078023271
59682541 52 17346602941356998054
59755656 215 18337112255041779023
6328613 192 18273496784370368233
8863177 126 12102977086580482581

> <PUBCHEM_SHAPE_MULTIPOLES>
501.4
20.63
2.65
1.26
18.66
0.56
-0.32
-16.47
-3.85
-1.73
0.73
-0.7
-0.41
1.48

> <PUBCHEM_SHAPE_SELFOVERLAP>
1094.135

> <PUBCHEM_SHAPE_VOLUME>
268.2

> <PUBCHEM_COORDINATE_TYPE>
2
5
10

$$$$
