10474035
  -OEChem-03292013303D

 43 45  0     1  0  0  0  0  0999 V2000
   -2.0790    2.6224    0.7538 S   0  0  0  0  0  0  0  0  0  0  0  0
   -2.4448   -2.8513   -0.3157 S   0  0  0  0  0  0  0  0  0  0  0  0
   -1.3056    1.5128   -2.2540 O   0  0  0  0  0  0  0  0  0  0  0  0
   -1.4903   -1.4956    2.2151 O   0  0  0  0  0  0  0  0  0  0  0  0
   -4.7079   -0.8738   -0.7256 O   0  0  0  0  0  0  0  0  0  0  0  0
   -0.6897    0.3133    1.0776 N   0  0  0  0  0  0  0  0  0  0  0  0
   -1.9748   -0.3800   -1.1673 N   0  0  0  0  0  0  0  0  0  0  0  0
    2.7290    0.0674   -2.0812 N   0  0  0  0  0  0  0  0  0  0  0  0
   -0.8839    1.3984    0.1248 C   0  0  2  0  0  0  0  0  0  0  0  0
    0.4542    2.1168   -0.0917 C   0  0  0  0  0  0  0  0  0  0  0  0
   -2.4492   -1.0446    0.0349 C   0  0  2  0  0  0  0  0  0  0  0  0
   -1.3812    0.8619   -1.2108 C   0  0  0  0  0  0  0  0  0  0  0  0
    1.4899    1.1864   -0.6537 C   0  0  0  0  0  0  0  0  0  0  0  0
   -1.4956   -0.7992    1.1988 C   0  0  0  0  0  0  0  0  0  0  0  0
   -3.8753   -0.6333    0.3938 C   0  0  0  0  0  0  0  0  0  0  0  0
    2.3801    0.3945    0.0979 C   0  0  0  0  0  0  0  0  0  0  0  0
    1.7121    0.9786   -1.9811 C   0  0  0  0  0  0  0  0  0  0  0  0
    3.1564   -0.3068   -0.8272 C   0  0  0  0  0  0  0  0  0  0  0  0
    2.6158    0.1929    1.4724 C   0  0  0  0  0  0  0  0  0  0  0  0
   -1.2250    3.0465    2.2879 C   0  0  0  0  0  0  0  0  0  0  0  0
    4.1606   -1.2033   -0.4449 C   0  0  0  0  0  0  0  0  0  0  0  0
   -0.6892   -3.0160   -0.6972 C   0  0  0  0  0  0  0  0  0  0  0  0
    3.6169   -0.7009    1.8695 C   0  0  0  0  0  0  0  0  0  0  0  0
    4.3764   -1.3872    0.9240 C   0  0  0  0  0  0  0  0  0  0  0  0
    0.8701    2.5207    0.8377 H   0  0  0  0  0  0  0  0  0  0  0  0
    0.3443    2.9692   -0.7773 H   0  0  0  0  0  0  0  0  0  0  0  0
   -0.0788    0.4938    1.8664 H   0  0  0  0  0  0  0  0  0  0  0  0
   -2.2969   -0.7623   -2.0509 H   0  0  0  0  0  0  0  0  0  0  0  0
   -3.9445    0.4285    0.6391 H   0  0  0  0  0  0  0  0  0  0  0  0
   -4.2585   -1.1918    1.2562 H   0  0  0  0  0  0  0  0  0  0  0  0
    1.2630    1.3920   -2.8729 H   0  0  0  0  0  0  0  0  0  0  0  0
    3.1130   -0.2787   -2.9496 H   0  0  0  0  0  0  0  0  0  0  0  0
    2.0504    0.7299    2.2279 H   0  0  0  0  0  0  0  0  0  0  0  0
   -1.9142    3.6417    2.8956 H   0  0  0  0  0  0  0  0  0  0  0  0
   -0.3506    3.6746    2.1058 H   0  0  0  0  0  0  0  0  0  0  0  0
   -0.9545    2.1724    2.8830 H   0  0  0  0  0  0  0  0  0  0  0  0
    4.7524   -1.7381   -1.1802 H   0  0  0  0  0  0  0  0  0  0  0  0
   -0.0569   -2.7595    0.1561 H   0  0  0  0  0  0  0  0  0  0  0  0
   -0.4026   -2.4180   -1.5658 H   0  0  0  0  0  0  0  0  0  0  0  0
   -0.4906   -4.0632   -0.9445 H   0  0  0  0  0  0  0  0  0  0  0  0
    3.8060   -0.8572    2.9283 H   0  0  0  0  0  0  0  0  0  0  0  0
   -5.6089   -0.6065   -0.4763 H   0  0  0  0  0  0  0  0  0  0  0  0
    5.1496   -2.0760    1.2546 H   0  0  0  0  0  0  0  0  0  0  0  0
  1  9  1  0  0  0  0
  1 20  1  0  0  0  0
  2 11  1  0  0  0  0
  2 22  1  0  0  0  0
  3 12  2  0  0  0  0
  4 14  2  0  0  0  0
  5 15  1  0  0  0  0
  5 42  1  0  0  0  0
  6  9  1  0  0  0  0
  6 14  1  0  0  0  0
  6 27  1  0  0  0  0
  7 11  1  0  0  0  0
  7 12  1  0  0  0  0
  7 28  1  0  0  0  0
  8 17  1  0  0  0  0
  8 18  1  0  0  0  0
  8 32  1  0  0  0  0
  9 10  1  0  0  0  0
  9 12  1  0  0  0  0
 10 13  1  0  0  0  0
 10 25  1  0  0  0  0
 10 26  1  0  0  0  0
 11 14  1  0  0  0  0
 11 15  1  0  0  0  0
 13 16  1  0  0  0  0
 13 17  2  0  0  0  0
 15 29  1  0  0  0  0
 15 30  1  0  0  0  0
 16 18  1  0  0  0  0
 16 19  2  0  0  0  0
 17 31  1  0  0  0  0
 18 21  2  0  0  0  0
 19 23  1  0  0  0  0
 19 33  1  0  0  0  0
 20 34  1  0  0  0  0
 20 35  1  0  0  0  0
 20 36  1  0  0  0  0
 21 24  1  0  0  0  0
 21 37  1  0  0  0  0
 22 38  1  0  0  0  0
 22 39  1  0  0  0  0
 22 40  1  0  0  0  0
 23 24  2  0  0  0  0
 23 41  1  0  0  0  0
 24 43  1  0  0  0  0
M  END
> <PUBCHEM_COMPOUND_CID>
10474035

> <PUBCHEM_CONFORMER_RMSD>
0.8

> <PUBCHEM_CONFORMER_DIVERSEORDER>
1
12
21
80
89
24
27
44
86
46
92
63
84
82
43
81
52
76
61
14
36
56
49
78
26
88
77
59
40
75
33
57
11
73
85
32
53
94
55
51
42
23
45
58
87
25
69
48
19
41
47
79
2
74
15
8
70
62
28
34
71
91
38
7
64
68
67
65
29
66
16
5
3
60
37
90
39
83
4
72
6
17
30
93
18
35
10
31
13
50
22
54
9
20

> <PUBCHEM_MMFF94_PARTIAL_CHARGES>
32
1 -0.46
10 0.18
11 0.59
12 0.57
13 -0.18
14 0.57
15 0.28
17 -0.3
18 -0.15
19 -0.15
2 -0.46
20 0.23
21 -0.15
22 0.23
23 -0.15
24 -0.15
27 0.37
28 0.37
3 -0.57
31 0.15
32 0.27
33 0.15
37 0.15
4 -0.57
41 0.15
42 0.4
43 0.15
5 -0.68
6 -0.73
7 -0.73
8 0.03
9 0.59

> <PUBCHEM_EFFECTIVE_ROTOR_COUNT>
5.8

> <PUBCHEM_PHARMACOPHORE_FEATURES>
13
1 20 hydrophobe
1 22 hydrophobe
1 3 acceptor
1 4 acceptor
1 5 acceptor
1 5 donor
1 6 donor
1 7 donor
1 8 cation
1 8 donor
5 8 13 16 17 18 rings
6 16 18 19 21 23 24 rings
6 6 7 9 11 12 14 rings

> <PUBCHEM_HEAVY_ATOM_COUNT>
24

> <PUBCHEM_ATOM_DEF_STEREO_COUNT>
0

> <PUBCHEM_ATOM_UDEF_STEREO_COUNT>
2

> <PUBCHEM_BOND_DEF_STEREO_COUNT>
0

> <PUBCHEM_BOND_UDEF_STEREO_COUNT>
0

> <PUBCHEM_ISOTOPIC_ATOM_COUNT>
0

> <PUBCHEM_COMPONENT_COUNT>
1

> <PUBCHEM_CACTVS_TAUTO_COUNT>
4

> <PUBCHEM_CONFORMER_ID>
009FD23300000001

> <PUBCHEM_MMFF94_ENERGY>
78.9554

> <PUBCHEM_FEATURE_SELFOVERLAP>
66.074

> <PUBCHEM_SHAPE_FINGERPRINT>
10366900 7 17060070271493797014
10764073 3 15217257756524621617
10863032 1 16878233085678839511
11578080 2 18041542707515998780
12363563 72 18342174492195544812
12422481 6 18118985602448036873
12553582 1 18198925753520996982
12592029 89 17315348121021110293
12633257 1 17561366201394029778
12788726 201 18272665553405774225
14178342 30 18127414449616928308
14787075 74 17832988622254943348
16752209 62 18409452462164507793
16945 1 18411143558530089893
17492 54 13921932419261832630
18981168 100 12679471897631827352
20600515 1 18271803561959090353
20626108 58 17557972116346900207
21731516 1 18264497345846912486
23227448 37 12463276042621153627
23419403 2 17183564221880304368
23557571 272 18272643550388004690
23559900 14 17988094386173610172
23598291 2 17677350320048525820
23728640 28 18339930290068399122
238 59 16669934099436822122
2637199 183 9222687655702613954
3027735 51 18271242695354918967
35225 105 17698484006864689792
394222 165 15980313762529181865
463206 1 18337379552026302475
81228 2 17917168129645402841

> <PUBCHEM_SHAPE_MULTIPOLES>
469.06
6.97
3.07
2.09
3.29
0.18
-0.04
-3.55
0.82
-2.6
0.74
0.68
0.59
-0.65

> <PUBCHEM_SHAPE_SELFOVERLAP>
985.49

> <PUBCHEM_SHAPE_VOLUME>
268.4

> <PUBCHEM_COORDINATE_TYPE>
2
5
10

$$$$
