10473900
  -OEChem-03292013303D

 46 48  0     1  0  0  0  0  0999 V2000
    5.7599   -0.7445   -1.0522 S   0  0  0  0  0  0  0  0  0  0  0  0
   -1.2304    0.6631    1.9427 O   0  0  0  0  0  0  0  0  0  0  0  0
   -3.1768    2.5690    0.7683 O   0  0  0  0  0  0  0  0  0  0  0  0
    1.5712    1.9648   -2.0389 O   0  0  0  0  0  0  0  0  0  0  0  0
    2.8412   -0.4163    2.5157 O   0  0  0  0  0  0  0  0  0  0  0  0
   -3.9201    0.4548    0.0265 N   0  0  0  0  0  0  0  0  0  0  0  0
    1.2494    0.4783    1.1144 N   0  0  0  0  0  0  0  0  0  0  0  0
    3.0924    0.8112   -0.7533 N   0  0  0  0  0  0  0  0  0  0  0  0
   -0.5764    1.3390   -0.2860 C   0  0  1  0  0  0  0  0  0  0  0  0
   -1.6291    0.6695    0.5856 C   0  0  1  0  0  0  0  0  0  0  0  0
    0.7313    0.5651   -0.2430 C   0  0  1  0  0  0  0  0  0  0  0  0
   -1.9697   -0.7253    0.1459 C   0  0  0  0  0  0  0  0  0  0  0  0
   -2.9852    1.3960    0.4816 C   0  0  0  0  0  0  0  0  0  0  0  0
   -1.0717    1.4695   -1.7265 C   0  0  0  0  0  0  0  0  0  0  0  0
   -3.3267   -0.7992   -0.1722 C   0  0  0  0  0  0  0  0  0  0  0  0
    1.8124    1.2275   -1.0861 C   0  0  0  0  0  0  0  0  0  0  0  0
    3.3280   -0.3133    0.1404 C   0  0  2  0  0  0  0  0  0  0  0  0
   -1.1555   -1.8401    0.0363 C   0  0  0  0  0  0  0  0  0  0  0  0
    2.4948   -0.0651    1.3905 C   0  0  0  0  0  0  0  0  0  0  0  0
   -3.9109   -1.9759   -0.6083 C   0  0  0  0  0  0  0  0  0  0  0  0
   -5.3156    0.7411   -0.2075 C   0  0  0  0  0  0  0  0  0  0  0  0
    4.8061   -0.4614    0.4628 C   0  0  0  0  0  0  0  0  0  0  0  0
   -1.7281   -3.0364   -0.4026 C   0  0  0  0  0  0  0  0  0  0  0  0
   -3.0946   -3.1035   -0.7226 C   0  0  0  0  0  0  0  0  0  0  0  0
    7.4044   -0.8678   -0.3115 C   0  0  0  0  0  0  0  0  0  0  0  0
   -0.4031    2.3532    0.1028 H   0  0  0  0  0  0  0  0  0  0  0  0
    0.6711   -0.4270   -0.6879 H   0  0  0  0  0  0  0  0  0  0  0  0
   -0.8805    0.5655   -2.3154 H   0  0  0  0  0  0  0  0  0  0  0  0
   -2.1426    1.6788   -1.8021 H   0  0  0  0  0  0  0  0  0  0  0  0
   -0.6127    2.3194   -2.2390 H   0  0  0  0  0  0  0  0  0  0  0  0
    0.6261    0.6244    1.9013 H   0  0  0  0  0  0  0  0  0  0  0  0
    2.9391   -1.2197   -0.3418 H   0  0  0  0  0  0  0  0  0  0  0  0
   -1.7599    0.0066    2.4268 H   0  0  0  0  0  0  0  0  0  0  0  0
   -0.1270   -1.8646    0.3700 H   0  0  0  0  0  0  0  0  0  0  0  0
    3.8634    1.1579   -1.3165 H   0  0  0  0  0  0  0  0  0  0  0  0
   -4.9648   -2.0367   -0.8551 H   0  0  0  0  0  0  0  0  0  0  0  0
   -5.9276    0.1037    0.4371 H   0  0  0  0  0  0  0  0  0  0  0  0
   -5.5523    0.5466   -1.2576 H   0  0  0  0  0  0  0  0  0  0  0  0
   -5.5326    1.7888    0.0180 H   0  0  0  0  0  0  0  0  0  0  0  0
    4.9626   -1.3058    1.1427 H   0  0  0  0  0  0  0  0  0  0  0  0
    5.1838    0.4426    0.9544 H   0  0  0  0  0  0  0  0  0  0  0  0
   -1.1170   -3.9322   -0.4748 H   0  0  0  0  0  0  0  0  0  0  0  0
   -3.5209   -4.0457   -1.0564 H   0  0  0  0  0  0  0  0  0  0  0  0
    7.6620    0.0623    0.2017 H   0  0  0  0  0  0  0  0  0  0  0  0
    8.1417   -1.0452   -1.0991 H   0  0  0  0  0  0  0  0  0  0  0  0
    7.4432   -1.7014    0.3944 H   0  0  0  0  0  0  0  0  0  0  0  0
  1 22  1  0  0  0  0
  1 25  1  0  0  0  0
  2 10  1  0  0  0  0
  2 33  1  0  0  0  0
  3 13  2  0  0  0  0
  4 16  2  0  0  0  0
  5 19  2  0  0  0  0
  6 13  1  0  0  0  0
  6 15  1  0  0  0  0
  6 21  1  0  0  0  0
  7 11  1  0  0  0  0
  7 19  1  0  0  0  0
  7 31  1  0  0  0  0
  8 16  1  0  0  0  0
  8 17  1  0  0  0  0
  8 35  1  0  0  0  0
  9 10  1  0  0  0  0
  9 11  1  0  0  0  0
  9 14  1  0  0  0  0
  9 26  1  0  0  0  0
 10 12  1  0  0  0  0
 10 13  1  0  0  0  0
 11 16  1  0  0  0  0
 11 27  1  0  0  0  0
 12 15  1  0  0  0  0
 12 18  2  0  0  0  0
 14 28  1  0  0  0  0
 14 29  1  0  0  0  0
 14 30  1  0  0  0  0
 15 20  2  0  0  0  0
 17 19  1  0  0  0  0
 17 22  1  0  0  0  0
 17 32  1  0  0  0  0
 18 23  1  0  0  0  0
 18 34  1  0  0  0  0
 20 24  1  0  0  0  0
 20 36  1  0  0  0  0
 21 37  1  0  0  0  0
 21 38  1  0  0  0  0
 21 39  1  0  0  0  0
 22 40  1  0  0  0  0
 22 41  1  0  0  0  0
 23 24  2  0  0  0  0
 23 42  1  0  0  0  0
 24 43  1  0  0  0  0
 25 44  1  0  0  0  0
 25 45  1  0  0  0  0
 25 46  1  0  0  0  0
M  END
> <PUBCHEM_COMPOUND_CID>
10473900

> <PUBCHEM_CONFORMER_RMSD>
0.8

> <PUBCHEM_CONFORMER_DIVERSEORDER>
1
7
8
10
3
6
2
9
4
5

> <PUBCHEM_MMFF94_PARTIAL_CHARGES>
30
1 -0.46
10 0.48
11 0.36
12 -0.14
13 0.57
15 0.12
16 0.57
17 0.36
18 -0.15
19 0.57
2 -0.68
20 -0.15
21 0.3
22 0.23
23 -0.15
24 -0.15
25 0.23
3 -0.57
31 0.37
33 0.4
34 0.15
35 0.37
36 0.15
4 -0.57
42 0.15
43 0.15
5 -0.57
6 -0.48
7 -0.73
8 -0.73

> <PUBCHEM_EFFECTIVE_ROTOR_COUNT>
5.2

> <PUBCHEM_PHARMACOPHORE_FEATURES>
12
1 14 hydrophobe
1 2 acceptor
1 2 donor
1 25 hydrophobe
1 3 acceptor
1 4 acceptor
1 5 acceptor
1 7 donor
1 8 donor
5 6 10 12 13 15 rings
6 12 15 18 20 23 24 rings
6 7 8 11 16 17 19 rings

> <PUBCHEM_HEAVY_ATOM_COUNT>
25

> <PUBCHEM_ATOM_DEF_STEREO_COUNT>
4

> <PUBCHEM_ATOM_UDEF_STEREO_COUNT>
0

> <PUBCHEM_BOND_DEF_STEREO_COUNT>
0

> <PUBCHEM_BOND_UDEF_STEREO_COUNT>
0

> <PUBCHEM_ISOTOPIC_ATOM_COUNT>
0

> <PUBCHEM_COMPONENT_COUNT>
1

> <PUBCHEM_CACTVS_TAUTO_COUNT>
4

> <PUBCHEM_CONFORMER_ID>
009FD1AC00000001

> <PUBCHEM_MMFF94_ENERGY>
95.564

> <PUBCHEM_FEATURE_SELFOVERLAP>
61.003

> <PUBCHEM_SHAPE_FINGERPRINT>
10062212 137 18262512706395805635
10366900 7 17203613678962900400
11045977 3 17846492652078023416
11315181 36 18273501174058663512
11524674 6 17417807314836424590
11578080 2 17827885676741782821
11796584 16 18202850937677388734
12236239 1 18113901558732445761
12553582 1 17531236271203947952
12633257 1 17917724521130567513
12788726 201 17896311433274672888
13009979 54 18263932192675378279
13288520 33 18343023285392285948
13583140 156 16988558000736881190
14115302 16 18413389856110964785
14294032 229 18196089946664303641
14840074 17 17749395840785548534
14910302 57 18268991995374647518
15042514 8 18340209704315681051
15537594 2 17822009783533586970
15849732 13 18113903745408785397
16752209 62 18340762758363784899
16945 1 18271811254804335721
17492 89 18048882084706054367
18186145 218 16009020748251512645
19141452 34 18409733941399236718
20600515 1 18059586770963569792
21267235 1 18335707191003871507
21781051 124 18265070162142598795
23419403 2 16897864956029499145
23559900 14 18129936888062704272
23598291 2 18114185292861876540
3004659 81 18189606306228944095
335352 9 18412262835644685781
392239 28 10951471778303166711
5265222 85 18130795616025008582
559249 180 18408886234866566959
57527293 21 16700612531346335759
57527585 21 13263492938874795607
59755656 215 18272651203767012183
602551 16 18342452651885030818
9981440 41 17107355000943798712

> <PUBCHEM_SHAPE_MULTIPOLES>
479.92
11.73
2.58
1.52
18.04
1.52
-0.32
3.58
1.36
-3.36
0.71
1.03
-0.51
-0.87

> <PUBCHEM_SHAPE_SELFOVERLAP>
1019.738

> <PUBCHEM_SHAPE_VOLUME>
271.1

> <PUBCHEM_COORDINATE_TYPE>
2
5
10

$$$$
