10474298
  -OEChem-03292013303D

 52 52  0     1  0  0  0  0  0999 V2000
   -0.2588    1.5024    1.0738 O   0  0  0  0  0  0  0  0  0  0  0  0
    0.6438   -1.1008    1.8152 O   0  0  0  0  0  0  0  0  0  0  0  0
   -2.7032    0.7367   -0.0294 O   0  0  0  0  0  0  0  0  0  0  0  0
    2.3633    0.5962   -0.9148 O   0  0  0  0  0  0  0  0  0  0  0  0
    3.7146    1.7787   -2.2995 O   0  0  0  0  0  0  0  0  0  0  0  0
   -1.0944    2.8915   -0.5721 O   0  0  0  0  0  0  0  0  0  0  0  0
    0.5344   -3.2473    0.9683 O   0  0  0  0  0  0  0  0  0  0  0  0
   -4.1903   -0.3102    1.3951 O   0  0  0  0  0  0  0  0  0  0  0  0
   -0.3217    0.3922    0.1802 C   0  0  1  0  0  0  0  0  0  0  0  0
    0.8262   -0.5815    0.5012 C   0  0  1  0  0  0  0  0  0  0  0  0
   -1.7176   -0.2588    0.2580 C   0  0  2  0  0  0  0  0  0  0  0  0
    2.1867    0.0970    0.4291 C   0  0  1  0  0  0  0  0  0  0  0  0
   -1.9292   -1.4257   -0.7196 C   0  0  0  0  0  0  0  0  0  0  0  0
    3.3096   -0.8648    0.7934 C   0  0  0  0  0  0  0  0  0  0  0  0
   -1.7002   -1.0484   -2.1835 C   0  0  0  0  0  0  0  0  0  0  0  0
   -1.8304   -2.2685   -3.0964 C   0  0  0  0  0  0  0  0  0  0  0  0
    4.6174   -0.2206    0.4811 C   0  0  0  0  0  0  0  0  0  0  0  0
    3.5724    1.0884   -1.2962 C   0  0  0  0  0  0  0  0  0  0  0  0
    4.7320    0.7165   -0.4646 C   0  0  0  0  0  0  0  0  0  0  0  0
   -1.6355   -1.8946   -4.5572 C   0  0  0  0  0  0  0  0  0  0  0  0
   -0.6785    2.6967    0.5620 C   0  0  0  0  0  0  0  0  0  0  0  0
    0.5107   -2.4577    1.9027 C   0  0  0  0  0  0  0  0  0  0  0  0
   -3.8966    0.5837    0.6130 C   0  0  0  0  0  0  0  0  0  0  0  0
   -0.5574    3.7645    1.6065 C   0  0  0  0  0  0  0  0  0  0  0  0
    0.3276   -2.8580    3.3353 C   0  0  0  0  0  0  0  0  0  0  0  0
   -4.8248    1.6922    0.2185 C   0  0  0  0  0  0  0  0  0  0  0  0
   -0.1587    0.7678   -0.8363 H   0  0  0  0  0  0  0  0  0  0  0  0
    0.8106   -1.3651   -0.2664 H   0  0  0  0  0  0  0  0  0  0  0  0
   -1.8581   -0.6182    1.2855 H   0  0  0  0  0  0  0  0  0  0  0  0
    2.2153    0.9554    1.1144 H   0  0  0  0  0  0  0  0  0  0  0  0
   -2.9581   -1.7947   -0.6218 H   0  0  0  0  0  0  0  0  0  0  0  0
   -1.2810   -2.2638   -0.4539 H   0  0  0  0  0  0  0  0  0  0  0  0
    3.2705   -1.1099    1.8604 H   0  0  0  0  0  0  0  0  0  0  0  0
    3.2404   -1.8013    0.2277 H   0  0  0  0  0  0  0  0  0  0  0  0
   -2.4196   -0.2793   -2.4881 H   0  0  0  0  0  0  0  0  0  0  0  0
   -0.6981   -0.6322   -2.3261 H   0  0  0  0  0  0  0  0  0  0  0  0
   -2.8204   -2.7225   -2.9718 H   0  0  0  0  0  0  0  0  0  0  0  0
   -1.0882   -3.0250   -2.8160 H   0  0  0  0  0  0  0  0  0  0  0  0
    5.4942   -0.5312    1.0405 H   0  0  0  0  0  0  0  0  0  0  0  0
    5.6894    1.1705   -0.6922 H   0  0  0  0  0  0  0  0  0  0  0  0
   -0.6420   -1.4660   -4.7234 H   0  0  0  0  0  0  0  0  0  0  0  0
   -1.7336   -2.7811   -5.1916 H   0  0  0  0  0  0  0  0  0  0  0  0
   -2.3838   -1.1628   -4.8781 H   0  0  0  0  0  0  0  0  0  0  0  0
   -1.1940    3.5201    2.4605 H   0  0  0  0  0  0  0  0  0  0  0  0
   -0.8864    4.7200    1.1881 H   0  0  0  0  0  0  0  0  0  0  0  0
    0.4856    3.8614    1.9180 H   0  0  0  0  0  0  0  0  0  0  0  0
    1.2028   -2.5594    3.9177 H   0  0  0  0  0  0  0  0  0  0  0  0
    0.2212   -3.9448    3.3976 H   0  0  0  0  0  0  0  0  0  0  0  0
   -0.5782   -2.3956    3.7356 H   0  0  0  0  0  0  0  0  0  0  0  0
   -4.3955    2.6549    0.5076 H   0  0  0  0  0  0  0  0  0  0  0  0
   -5.7803    1.5669    0.7359 H   0  0  0  0  0  0  0  0  0  0  0  0
   -5.0050    1.6585   -0.8589 H   0  0  0  0  0  0  0  0  0  0  0  0
  1  9  1  0  0  0  0
  1 21  1  0  0  0  0
  2 10  1  0  0  0  0
  2 22  1  0  0  0  0
  3 11  1  0  0  0  0
  3 23  1  0  0  0  0
  4 12  1  0  0  0  0
  4 18  1  0  0  0  0
  5 18  2  0  0  0  0
  6 21  2  0  0  0  0
  7 22  2  0  0  0  0
  8 23  2  0  0  0  0
  9 10  1  0  0  0  0
  9 11  1  0  0  0  0
  9 27  1  0  0  0  0
 10 12  1  0  0  0  0
 10 28  1  0  0  0  0
 11 13  1  0  0  0  0
 11 29  1  0  0  0  0
 12 14  1  0  0  0  0
 12 30  1  0  0  0  0
 13 15  1  0  0  0  0
 13 31  1  0  0  0  0
 13 32  1  0  0  0  0
 14 17  1  0  0  0  0
 14 33  1  0  0  0  0
 14 34  1  0  0  0  0
 15 16  1  0  0  0  0
 15 35  1  0  0  0  0
 15 36  1  0  0  0  0
 16 20  1  0  0  0  0
 16 37  1  0  0  0  0
 16 38  1  0  0  0  0
 17 19  2  0  0  0  0
 17 39  1  0  0  0  0
 18 19  1  0  0  0  0
 19 40  1  0  0  0  0
 20 41  1  0  0  0  0
 20 42  1  0  0  0  0
 20 43  1  0  0  0  0
 21 24  1  0  0  0  0
 22 25  1  0  0  0  0
 23 26  1  0  0  0  0
 24 44  1  0  0  0  0
 24 45  1  0  0  0  0
 24 46  1  0  0  0  0
 25 47  1  0  0  0  0
 25 48  1  0  0  0  0
 25 49  1  0  0  0  0
 26 50  1  0  0  0  0
 26 51  1  0  0  0  0
 26 52  1  0  0  0  0
M  END
> <PUBCHEM_COMPOUND_CID>
10474298

> <PUBCHEM_CONFORMER_RMSD>
1

> <PUBCHEM_CONFORMER_DIVERSEORDER>
1
11
54
24
47
38
76
41
60
36
53
5
14
71
68
9
37
12
64
19
35
33
79
72
70
74
49
8
61
51
66
10
32
58
28
43
44
77
65
56
63
2
48
57
6
4
46
55
62
59
15
78
30
16
21
13
18
34
29
69
52
20
50
17
23
27
39
42
25
3
31
67
75
7
22
26
73
40
45

> <PUBCHEM_MMFF94_PARTIAL_CHARGES>
24
1 -0.43
10 0.28
11 0.28
12 0.28
14 0.14
17 -0.29
18 0.71
19 -0.14
2 -0.43
21 0.66
22 0.66
23 0.66
24 0.06
25 0.06
26 0.06
3 -0.43
39 0.15
4 -0.43
40 0.15
5 -0.57
6 -0.57
7 -0.57
8 -0.57
9 0.28

> <PUBCHEM_EFFECTIVE_ROTOR_COUNT>
12.6

> <PUBCHEM_PHARMACOPHORE_FEATURES>
6
1 20 hydrophobe
1 5 acceptor
1 6 acceptor
1 7 acceptor
1 8 acceptor
6 4 12 14 17 18 19 rings

> <PUBCHEM_HEAVY_ATOM_COUNT>
26

> <PUBCHEM_ATOM_DEF_STEREO_COUNT>
4

> <PUBCHEM_ATOM_UDEF_STEREO_COUNT>
0

> <PUBCHEM_BOND_DEF_STEREO_COUNT>
0

> <PUBCHEM_BOND_UDEF_STEREO_COUNT>
0

> <PUBCHEM_ISOTOPIC_ATOM_COUNT>
0

> <PUBCHEM_COMPONENT_COUNT>
1

> <PUBCHEM_CACTVS_TAUTO_COUNT>
1

> <PUBCHEM_CONFORMER_ID>
009FD33A00000001

> <PUBCHEM_MMFF94_ENERGY>
46.2743

> <PUBCHEM_FEATURE_SELFOVERLAP>
30.448

> <PUBCHEM_SHAPE_FINGERPRINT>
10090160 65 18040155084980369321
12156800 1 16242176578198564392
12788726 201 18269295533298080016
13149001 5 17758100876127070338
14787075 74 18188784953905006259
18915476 22 17024571327326284587
19319366 153 18334853888033083947
20691752 17 18191002685869671224
21033648 29 16702293538981355091
21452121 199 16553374794313390070
22112679 90 17984105293690331139
229495 10 17678438802358326751
23402539 116 18410008862609281272
23419403 2 17182506629222657398
23558518 356 18047774606019043440
23598288 3 18123448511059502169
298252 57 18059584580761811419
34934 24 18341326708859489441
4340502 62 17676500402065894195
469060 322 15217268060308549648
59755656 520 17967540103425381038

> <PUBCHEM_SHAPE_MULTIPOLES>
488.11
7.39
3.7
3.35
2.81
0.58
1.16
2.02
-2.29
-3.39
-2.09
0.61
-3.7
-2.39

> <PUBCHEM_SHAPE_SELFOVERLAP>
977.666

> <PUBCHEM_SHAPE_VOLUME>
284

> <PUBCHEM_COORDINATE_TYPE>
2
5
10

$$$$
