10476270
  -OEChem-03292013303D

 53 53  0     1  0  0  0  0  0999 V2000
   -4.3031   -1.5035    0.4065 O   0  0  0  0  0  0  0  0  0  0  0  0
   -7.0422   -1.0492   -0.0293 O   0  0  0  0  0  0  0  0  0  0  0  0
    1.9614   -1.3143    0.3065 O   0  0  0  0  0  0  0  0  0  0  0  0
    5.4752   -0.4774   -0.0722 O   0  0  0  0  0  0  0  0  0  0  0  0
    4.3453    2.1045   -0.0792 O   0  0  0  0  0  0  0  0  0  0  0  0
    5.1754   -1.7582   -1.8452 O   0  5  0  0  0  0  0  0  0  0  0  0
    7.2368   -1.5609   -1.0185 O   0  0  0  0  0  0  0  0  0  0  0  0
    3.2325    3.2331    1.4642 O   0  5  0  0  0  0  0  0  0  0  0  0
    4.5741    4.3607    0.0858 O   0  0  0  0  0  0  0  0  0  0  0  0
   -4.7831    1.7245   -0.9830 N   0  0  0  0  0  0  0  0  0  0  0  0
    6.0246   -1.3384   -1.0580 N   0  3  0  0  0  0  0  0  0  0  0  0
    4.0323    3.3481    0.5346 N   0  3  0  0  0  0  0  0  0  0  0  0
   -6.0453   -0.4021   -0.8253 C   0  0  1  0  0  0  0  0  0  0  0  0
   -5.7476    0.9631   -0.2008 C   0  0  0  0  0  0  0  0  0  0  0  0
   -4.5606    3.0400   -0.3984 C   0  0  0  0  0  0  0  0  0  0  0  0
   -4.8194   -1.3091   -0.9066 C   0  0  0  0  0  0  0  0  0  0  0  0
   -3.9585    3.9845   -1.4349 C   0  0  0  0  0  0  0  0  0  0  0  0
   -3.6489    2.9078    0.8174 C   0  0  0  0  0  0  0  0  0  0  0  0
    4.0650   -0.2889   -0.2102 C   0  0  1  0  0  0  0  0  0  0  0  0
    3.3673   -1.5006    0.3937 C   0  0  0  0  0  0  0  0  0  0  0  0
   -2.9562   -1.7271    0.5110 C   0  0  0  0  0  0  0  0  0  0  0  0
   -0.2125   -2.1838    0.7242 C   0  0  0  0  0  0  0  0  0  0  0  0
    1.2541   -2.4277    0.8388 C   0  0  0  0  0  0  0  0  0  0  0  0
    3.6709    0.9966    0.5083 C   0  0  0  0  0  0  0  0  0  0  0  0
   -0.9004   -2.5898   -0.4194 C   0  0  0  0  0  0  0  0  0  0  0  0
   -0.8966   -1.5494    1.7612 C   0  0  0  0  0  0  0  0  0  0  0  0
   -2.2722   -2.3615   -0.5260 C   0  0  0  0  0  0  0  0  0  0  0  0
   -2.2684   -1.3210    1.6547 C   0  0  0  0  0  0  0  0  0  0  0  0
   -6.4637   -0.2767   -1.8311 H   0  0  0  0  0  0  0  0  0  0  0  0
   -5.4094    0.8117    0.8303 H   0  0  0  0  0  0  0  0  0  0  0  0
   -6.6932    1.5168   -0.1261 H   0  0  0  0  0  0  0  0  0  0  0  0
   -5.5122    3.4877   -0.0836 H   0  0  0  0  0  0  0  0  0  0  0  0
   -5.1378    1.8239   -1.9341 H   0  0  0  0  0  0  0  0  0  0  0  0
   -5.1156   -2.2875   -1.3031 H   0  0  0  0  0  0  0  0  0  0  0  0
   -4.0863   -0.8490   -1.5805 H   0  0  0  0  0  0  0  0  0  0  0  0
   -3.7946    4.9785   -1.0048 H   0  0  0  0  0  0  0  0  0  0  0  0
   -4.6260    4.1025   -2.2958 H   0  0  0  0  0  0  0  0  0  0  0  0
   -2.9944    3.6148   -1.8022 H   0  0  0  0  0  0  0  0  0  0  0  0
   -3.3952    3.8977    1.2136 H   0  0  0  0  0  0  0  0  0  0  0  0
   -4.1190    2.3519    1.6341 H   0  0  0  0  0  0  0  0  0  0  0  0
   -2.7084    2.4061    0.5616 H   0  0  0  0  0  0  0  0  0  0  0  0
    3.7724   -0.1333   -1.2581 H   0  0  0  0  0  0  0  0  0  0  0  0
    3.6601   -1.6135    1.4459 H   0  0  0  0  0  0  0  0  0  0  0  0
    3.6421   -2.4322   -0.1114 H   0  0  0  0  0  0  0  0  0  0  0  0
    1.5285   -3.3402    0.2946 H   0  0  0  0  0  0  0  0  0  0  0  0
    1.5320   -2.5786    1.8896 H   0  0  0  0  0  0  0  0  0  0  0  0
   -7.8340   -0.4847   -0.0348 H   0  0  0  0  0  0  0  0  0  0  0  0
    2.5863    1.1419    0.4332 H   0  0  0  0  0  0  0  0  0  0  0  0
    3.9663    0.9156    1.5628 H   0  0  0  0  0  0  0  0  0  0  0  0
   -0.3790   -3.0887   -1.2320 H   0  0  0  0  0  0  0  0  0  0  0  0
   -0.3716   -1.2260    2.6562 H   0  0  0  0  0  0  0  0  0  0  0  0
   -2.7742   -2.7192   -1.4201 H   0  0  0  0  0  0  0  0  0  0  0  0
   -2.7963   -0.8249    2.4645 H   0  0  0  0  0  0  0  0  0  0  0  0
  1 16  1  0  0  0  0
  1 21  1  0  0  0  0
  2 13  1  0  0  0  0
  2 47  1  0  0  0  0
  3 20  1  0  0  0  0
  3 23  1  0  0  0  0
  4 11  1  0  0  0  0
  4 19  1  0  0  0  0
  5 12  1  0  0  0  0
  5 24  1  0  0  0  0
  6 11  1  0  0  0  0
  7 11  2  0  0  0  0
  8 12  1  0  0  0  0
  9 12  2  0  0  0  0
 10 14  1  0  0  0  0
 10 15  1  0  0  0  0
 10 33  1  0  0  0  0
 13 14  1  0  0  0  0
 13 16  1  0  0  0  0
 13 29  1  0  0  0  0
 14 30  1  0  0  0  0
 14 31  1  0  0  0  0
 15 17  1  0  0  0  0
 15 18  1  0  0  0  0
 15 32  1  0  0  0  0
 16 34  1  0  0  0  0
 16 35  1  0  0  0  0
 17 36  1  0  0  0  0
 17 37  1  0  0  0  0
 17 38  1  0  0  0  0
 18 39  1  0  0  0  0
 18 40  1  0  0  0  0
 18 41  1  0  0  0  0
 19 20  1  0  0  0  0
 19 24  1  0  0  0  0
 19 42  1  0  0  0  0
 20 43  1  0  0  0  0
 20 44  1  0  0  0  0
 21 27  2  0  0  0  0
 21 28  1  0  0  0  0
 22 23  1  0  0  0  0
 22 25  2  0  0  0  0
 22 26  1  0  0  0  0
 23 45  1  0  0  0  0
 23 46  1  0  0  0  0
 24 48  1  0  0  0  0
 24 49  1  0  0  0  0
 25 27  1  0  0  0  0
 25 50  1  0  0  0  0
 26 28  2  0  0  0  0
 26 51  1  0  0  0  0
 27 52  1  0  0  0  0
 28 53  1  0  0  0  0
M  CHG  4   6  -1   8  -1  11   1  12   1
M  END
> <PUBCHEM_COMPOUND_CID>
10476270

> <PUBCHEM_CONFORMER_RMSD>
1.2

> <PUBCHEM_CONFORMER_DIVERSEORDER>
5
53
8
17
34
67
59
36
20
43
62
35
13
66
63
46
10
48
47
57
55
32
29
65
39
54
58
33
4
25
37
31
45
27
61
26
2
30
11
52
41
24
50
64
23
38
51
56
19
28
3
60
22
9
7
6
18
12
49
21
40
14
16
1
15
42
44

> <PUBCHEM_MMFF94_PARTIAL_CHARGES>
32
1 -0.36
10 -0.9
11 1.03
12 1.03
13 0.28
14 0.27
15 0.27
16 0.28
19 0.28
2 -0.68
20 0.28
21 0.08
22 -0.14
23 0.42
24 0.28
25 -0.15
26 -0.15
27 -0.15
28 -0.15
3 -0.56
33 0.36
4 -0.27
47 0.4
5 -0.27
50 0.15
51 0.15
52 0.15
53 0.15
6 -0.52
7 -0.52
8 -0.52
9 -0.52

> <PUBCHEM_EFFECTIVE_ROTOR_COUNT>
15

> <PUBCHEM_PHARMACOPHORE_FEATURES>
12
1 1 acceptor
1 10 cation
1 10 donor
1 2 acceptor
1 2 donor
1 3 acceptor
1 6 acceptor
1 7 acceptor
1 8 acceptor
1 9 acceptor
3 15 17 18 hydrophobe
6 21 22 25 26 27 28 rings

> <PUBCHEM_HEAVY_ATOM_COUNT>
28

> <PUBCHEM_ATOM_DEF_STEREO_COUNT>
2

> <PUBCHEM_ATOM_UDEF_STEREO_COUNT>
0

> <PUBCHEM_BOND_DEF_STEREO_COUNT>
0

> <PUBCHEM_BOND_UDEF_STEREO_COUNT>
0

> <PUBCHEM_ISOTOPIC_ATOM_COUNT>
0

> <PUBCHEM_COMPONENT_COUNT>
1

> <PUBCHEM_CACTVS_TAUTO_COUNT>
1

> <PUBCHEM_CONFORMER_ID>
009FDAEE00000005

> <PUBCHEM_MMFF94_ENERGY>
71.1983

> <PUBCHEM_FEATURE_SELFOVERLAP>
61.044

> <PUBCHEM_SHAPE_FINGERPRINT>
10670039 82 18337107874243572423
10763959 59 18411422800108235694
10864689 126 17976250249224689204
13627167 48 18267041585757789780
14187579 7 18411975858862796089
14251764 38 18411699863884540489
14739800 52 18041264492582294547
15183329 4 18341613676809935754
15975801 100 17459744805496097556
21033648 144 18198070381014899594
21033648 29 17750515259840254282
21734292 116 18409441510182941545
21859007 373 18339912754392078282
23516275 100 18118956134335989245
23559900 14 17846499283613978570
2838139 119 18408599249768562279
508180 173 18340771438460568256

> <PUBCHEM_SHAPE_MULTIPOLES>
508.46
17.85
5.18
1.35
8.04
7.05
0.07
4.93
-6.67
0.31
0.19
0.29
-0.15
2.54

> <PUBCHEM_SHAPE_SELFOVERLAP>
1014.295

> <PUBCHEM_SHAPE_VOLUME>
300.9

> <PUBCHEM_COORDINATE_TYPE>
2
5
10

$$$$
