10474730
  -OEChem-03292013303D

 43 43  0     1  0  0  0  0  0999 V2000
   -4.0176   -0.2151    0.5663 S   0  0  2  0  0  0  0  0  0  0  0  0
   -6.0877   -2.3719    0.2222 S   0  0  1  0  0  0  0  0  0  0  0  0
   -2.2754    3.3513   -2.0044 O   0  0  0  0  0  0  0  0  0  0  0  0
   -4.6422    0.3616    1.7972 O   0  0  0  0  0  0  0  0  0  0  0  0
   -0.0444    2.1128    1.5945 O   0  0  0  0  0  0  0  0  0  0  0  0
   -5.0669   -3.4678    0.1335 O   0  0  0  0  0  0  0  0  0  0  0  0
    4.6736    1.9122    0.1801 O   0  0  0  0  0  0  0  0  0  0  0  0
    6.7719   -2.0354   -0.8718 O   0  0  0  0  0  0  0  0  0  0  0  0
   -1.1900    1.3166   -0.2619 N   0  0  0  0  0  0  0  0  0  0  0  0
    4.5702   -2.0731   -0.2236 N   0  0  0  0  0  0  0  0  0  0  0  0
    5.7270   -0.0555   -0.3434 N   0  0  0  0  0  0  0  0  0  0  0  0
   -2.4356    1.9975    0.0053 C   0  0  2  0  0  0  0  0  0  0  0  0
   -3.6183    1.1880   -0.5295 C   0  0  0  0  0  0  0  0  0  0  0  0
   -2.3995    3.4078   -0.5889 C   0  0  0  0  0  0  0  0  0  0  0  0
   -5.3471   -0.8697   -0.4829 C   0  0  0  0  0  0  0  0  0  0  0  0
   -0.0904    1.4385    0.5707 C   0  0  0  0  0  0  0  0  0  0  0  0
    1.0697    0.6454    0.0783 C   0  0  0  0  0  0  0  0  0  0  0  0
    3.3789   -0.0944    0.3440 C   0  0  0  0  0  0  0  0  0  0  0  0
    3.4175   -1.4353    0.1876 C   0  0  0  0  0  0  0  0  0  0  0  0
    2.2139    0.6509    0.7641 C   0  0  0  0  0  0  0  0  0  0  0  0
    4.6316    0.6891    0.0605 C   0  0  0  0  0  0  0  0  0  0  0  0
   -7.2752   -2.6313   -1.1183 C   0  0  0  0  0  0  0  0  0  0  0  0
    2.2747   -2.3881    0.4262 C   0  0  0  0  0  0  0  0  0  0  0  0
    5.7613   -1.4340   -0.5060 C   0  0  0  0  0  0  0  0  0  0  0  0
   -2.5312    2.1137    1.0925 H   0  0  0  0  0  0  0  0  0  0  0  0
   -3.4112    0.7934   -1.5302 H   0  0  0  0  0  0  0  0  0  0  0  0
   -4.5182    1.8107   -0.5813 H   0  0  0  0  0  0  0  0  0  0  0  0
   -1.5489    3.9753   -0.1960 H   0  0  0  0  0  0  0  0  0  0  0  0
   -3.3185    3.9511   -0.3447 H   0  0  0  0  0  0  0  0  0  0  0  0
   -1.1161    0.7749   -1.1184 H   0  0  0  0  0  0  0  0  0  0  0  0
   -6.1260   -0.1090   -0.5841 H   0  0  0  0  0  0  0  0  0  0  0  0
   -4.9321   -1.1128   -1.4650 H   0  0  0  0  0  0  0  0  0  0  0  0
    0.9515    0.0687   -0.8337 H   0  0  0  0  0  0  0  0  0  0  0  0
   -2.2613    4.2687   -2.3264 H   0  0  0  0  0  0  0  0  0  0  0  0
    2.3367    1.2546    1.6591 H   0  0  0  0  0  0  0  0  0  0  0  0
    4.5392   -3.0837   -0.3268 H   0  0  0  0  0  0  0  0  0  0  0  0
   -7.8352   -3.5471   -0.9147 H   0  0  0  0  0  0  0  0  0  0  0  0
   -6.7475   -2.7330   -2.0696 H   0  0  0  0  0  0  0  0  0  0  0  0
   -7.9668   -1.7867   -1.1611 H   0  0  0  0  0  0  0  0  0  0  0  0
    1.8889   -2.7622   -0.5280 H   0  0  0  0  0  0  0  0  0  0  0  0
    1.4454   -1.9383    0.9784 H   0  0  0  0  0  0  0  0  0  0  0  0
    2.6097   -3.2460    1.0209 H   0  0  0  0  0  0  0  0  0  0  0  0
    6.5840    0.4535   -0.5406 H   0  0  0  0  0  0  0  0  0  0  0  0
  1  4  2  0  0  0  0
  1 13  1  0  0  0  0
  1 15  1  0  0  0  0
  2  6  2  0  0  0  0
  2 15  1  0  0  0  0
  2 22  1  0  0  0  0
  3 14  1  0  0  0  0
  3 34  1  0  0  0  0
  5 16  2  0  0  0  0
  7 21  2  0  0  0  0
  8 24  2  0  0  0  0
  9 12  1  0  0  0  0
  9 16  1  0  0  0  0
  9 30  1  0  0  0  0
 10 19  1  0  0  0  0
 10 24  1  0  0  0  0
 10 36  1  0  0  0  0
 11 21  1  0  0  0  0
 11 24  1  0  0  0  0
 11 43  1  0  0  0  0
 12 13  1  0  0  0  0
 12 14  1  0  0  0  0
 12 25  1  0  0  0  0
 13 26  1  0  0  0  0
 13 27  1  0  0  0  0
 14 28  1  0  0  0  0
 14 29  1  0  0  0  0
 15 31  1  0  0  0  0
 15 32  1  0  0  0  0
 16 17  1  0  0  0  0
 17 20  2  0  0  0  0
 17 33  1  0  0  0  0
 18 19  2  0  0  0  0
 18 20  1  0  0  0  0
 18 21  1  0  0  0  0
 19 23  1  0  0  0  0
 20 35  1  0  0  0  0
 22 37  1  0  0  0  0
 22 38  1  0  0  0  0
 22 39  1  0  0  0  0
 23 40  1  0  0  0  0
 23 41  1  0  0  0  0
 23 42  1  0  0  0  0
M  END
> <PUBCHEM_COMPOUND_CID>
10474730

> <PUBCHEM_CONFORMER_RMSD>
1

> <PUBCHEM_CONFORMER_DIVERSEORDER>
1
57
149
10
120
46
40
70
145
152
160
130
44
11
23
15
7
38
143
109
67
34
140
12
31
100
138
29
53
8
20
27
65
159
25
116
95
35
37
32
49
94
36
96
58
75
105
101
153
62
41
73
39
108
72
84
155
28
139
150
98
3
146
13
133
151
63
81
6
71
80
51
111
74
88
16
118
132
21
135
18
117
126
14
69
92
9
55
43
30
137
60
68
104
50
26
131
89
110
33
79
107
64
148
52
56
42
156
90
125
124
134
76
17
24
141
144
86
142
5
66
85
87
114
103
19
4
54
48
129
127
61
83
121
91
77
147
112
45
102
154
2
119
106
97
122
158
115
59
136
22
47
78
93
82
157
123
113
128
99

> <PUBCHEM_MMFF94_PARTIAL_CHARGES>
30
1 0.11
10 -0.54
11 -0.49
12 0.3
13 0.19
14 0.28
15 0.39
16 0.62
17 -0.14
18 0.01
19 -0.03
2 0.11
20 -0.15
21 0.62
22 0.19
23 0.14
24 0.69
3 -0.68
30 0.37
33 0.15
34 0.4
35 0.15
36 0.37
4 -0.5
43 0.37
5 -0.57
6 -0.5
7 -0.57
8 -0.57
9 -0.73

> <PUBCHEM_EFFECTIVE_ROTOR_COUNT>
9

> <PUBCHEM_PHARMACOPHORE_FEATURES>
11
1 10 donor
1 11 donor
1 3 acceptor
1 3 donor
1 4 acceptor
1 5 acceptor
1 6 acceptor
1 7 acceptor
1 8 acceptor
1 9 donor
6 10 11 18 19 21 24 rings

> <PUBCHEM_HEAVY_ATOM_COUNT>
24

> <PUBCHEM_ATOM_DEF_STEREO_COUNT>
1

> <PUBCHEM_ATOM_UDEF_STEREO_COUNT>
2

> <PUBCHEM_BOND_DEF_STEREO_COUNT>
1

> <PUBCHEM_BOND_UDEF_STEREO_COUNT>
0

> <PUBCHEM_ISOTOPIC_ATOM_COUNT>
0

> <PUBCHEM_COMPONENT_COUNT>
1

> <PUBCHEM_CACTVS_TAUTO_COUNT>
21

> <PUBCHEM_CONFORMER_ID>
009FD4EA00000001

> <PUBCHEM_MMFF94_ENERGY>
40.3768

> <PUBCHEM_FEATURE_SELFOVERLAP>
55.873

> <PUBCHEM_SHAPE_FINGERPRINT>
11056379 131 18334293115908026541
11393246 34 18342177761167128975
11497681 19 18341615961906052084
12596602 18 17561368400227030707
12616971 3 15625932128386084776
12633257 1 15984264179343429229
13103583 49 17632029593465880321
13402501 40 18411419548739248155
13631057 29 18410292493000347618
14251764 30 18341613741492284329
14931854 50 18040707083284832339
14950920 106 16845293890949322947
15250474 111 18043519526068698635
15880784 105 18272376373193937713
17844677 252 18339648841310443448
20028762 73 18272935999249821246
21054139 6 18187647964661968202
21307412 95 18262510512195525631
22393880 68 18189614935060542344
23522609 53 18055106304325610857
23559900 14 18337101276931823344
2838139 119 8646502799429505715
444735 86 18261101963720348907
465052 167 17846782918662923820
636775 8 18059024887237769526
6431902 208 18408889559725278499
8863177 126 18272367602691591691

> <PUBCHEM_SHAPE_MULTIPOLES>
451.45
18.16
3.99
1.13
2.11
0.42
-0.01
-17.54
3.71
4.39
1.08
0.99
0.51
0.73

> <PUBCHEM_SHAPE_SELFOVERLAP>
880.787

> <PUBCHEM_SHAPE_VOLUME>
272.1

> <PUBCHEM_COORDINATE_TYPE>
2
5
10

$$$$
