10475220
  -OEChem-03292013303D

 46 47  0     0  0  0  0  0  0999 V2000
   -5.1055   -1.9989    0.0784 O   0  0  0  0  0  0  0  0  0  0  0  0
    5.1047   -1.9750   -0.2328 O   0  0  0  0  0  0  0  0  0  0  0  0
   -6.4451    0.4231   -0.1770 O   0  0  0  0  0  0  0  0  0  0  0  0
    6.4362    0.4200    0.2343 O   0  0  0  0  0  0  0  0  0  0  0  0
    1.7232   -0.9883    1.6222 O   0  0  0  0  0  0  0  0  0  0  0  0
   -1.7228   -0.7597   -1.7733 O   0  0  0  0  0  0  0  0  0  0  0  0
    1.9495    1.2683    1.8005 O   0  0  0  0  0  0  0  0  0  0  0  0
   -1.9025    1.5046   -1.7363 O   0  0  0  0  0  0  0  0  0  0  0  0
   -2.5086    0.3484    1.0848 C   0  0  0  0  0  0  0  0  0  0  0  0
    2.5013    0.4428   -1.0350 C   0  0  0  0  0  0  0  0  0  0  0  0
   -0.0080    0.3591    0.7529 C   0  0  0  0  0  0  0  0  0  0  0  0
    0.0002    0.4232   -0.7072 C   0  0  0  0  0  0  0  0  0  0  0  0
   -1.1072    0.3265    1.5343 C   0  0  0  0  0  0  0  0  0  0  0  0
    1.1007    0.4558   -1.4867 C   0  0  0  0  0  0  0  0  0  0  0  0
   -3.1478   -0.8465    0.7924 C   0  0  0  0  0  0  0  0  0  0  0  0
    3.1441   -0.7709   -0.8467 C   0  0  0  0  0  0  0  0  0  0  0  0
   -3.1644    1.5635    0.9616 C   0  0  0  0  0  0  0  0  0  0  0  0
    3.1530    1.6447   -0.8056 C   0  0  0  0  0  0  0  0  0  0  0  0
   -4.4758   -0.8257    0.3663 C   0  0  0  0  0  0  0  0  0  0  0  0
    4.4715   -0.7832   -0.4184 C   0  0  0  0  0  0  0  0  0  0  0  0
   -5.1481    0.3897    0.2379 C   0  0  0  0  0  0  0  0  0  0  0  0
    5.1397    0.4186   -0.1838 C   0  0  0  0  0  0  0  0  0  0  0  0
   -4.4923    1.5844    0.5354 C   0  0  0  0  0  0  0  0  0  0  0  0
    4.4804    1.6326   -0.3773 C   0  0  0  0  0  0  0  0  0  0  0  0
    1.3219    0.2892    1.4244 C   0  0  0  0  0  0  0  0  0  0  0  0
   -1.2977    0.4843   -1.4447 C   0  0  0  0  0  0  0  0  0  0  0  0
   -5.0165   -2.4696   -1.2650 C   0  0  0  0  0  0  0  0  0  0  0  0
    5.0157   -2.5610    1.0644 C   0  0  0  0  0  0  0  0  0  0  0  0
   -0.9951    0.2690    2.6158 H   0  0  0  0  0  0  0  0  0  0  0  0
    0.9953    0.5126   -2.5693 H   0  0  0  0  0  0  0  0  0  0  0  0
   -2.6297   -1.7971    0.8944 H   0  0  0  0  0  0  0  0  0  0  0  0
    2.6303   -1.7109   -1.0345 H   0  0  0  0  0  0  0  0  0  0  0  0
   -2.6645    2.5009    1.1910 H   0  0  0  0  0  0  0  0  0  0  0  0
    2.6506    2.5970   -0.9537 H   0  0  0  0  0  0  0  0  0  0  0  0
   -5.0103    2.5345    0.4370 H   0  0  0  0  0  0  0  0  0  0  0  0
    4.9952    2.5722   -0.1960 H   0  0  0  0  0  0  0  0  0  0  0  0
   -6.7528   -0.4909   -0.3035 H   0  0  0  0  0  0  0  0  0  0  0  0
    6.7462   -0.5007    0.2829 H   0  0  0  0  0  0  0  0  0  0  0  0
   -5.3547   -1.7055   -1.9722 H   0  0  0  0  0  0  0  0  0  0  0  0
   -5.6611   -3.3472   -1.3637 H   0  0  0  0  0  0  0  0  0  0  0  0
   -3.9878   -2.7641   -1.4945 H   0  0  0  0  0  0  0  0  0  0  0  0
    3.9960   -2.9125    1.2491 H   0  0  0  0  0  0  0  0  0  0  0  0
    5.3140   -1.8488    1.8405 H   0  0  0  0  0  0  0  0  0  0  0  0
    5.6920   -3.4195    1.0993 H   0  0  0  0  0  0  0  0  0  0  0  0
    2.5797   -1.0324    2.0984 H   0  0  0  0  0  0  0  0  0  0  0  0
   -2.5691   -0.7378   -2.2689 H   0  0  0  0  0  0  0  0  0  0  0  0
  1 19  1  0  0  0  0
  1 27  1  0  0  0  0
  2 20  1  0  0  0  0
  2 28  1  0  0  0  0
  3 21  1  0  0  0  0
  3 37  1  0  0  0  0
  4 22  1  0  0  0  0
  4 38  1  0  0  0  0
  5 25  1  0  0  0  0
  5 45  1  0  0  0  0
  6 26  1  0  0  0  0
  6 46  1  0  0  0  0
  7 25  2  0  0  0  0
  8 26  2  0  0  0  0
  9 13  1  0  0  0  0
  9 15  2  0  0  0  0
  9 17  1  0  0  0  0
 10 14  1  0  0  0  0
 10 16  2  0  0  0  0
 10 18  1  0  0  0  0
 11 12  1  0  0  0  0
 11 13  2  0  0  0  0
 11 25  1  0  0  0  0
 12 14  2  0  0  0  0
 12 26  1  0  0  0  0
 13 29  1  0  0  0  0
 14 30  1  0  0  0  0
 15 19  1  0  0  0  0
 15 31  1  0  0  0  0
 16 20  1  0  0  0  0
 16 32  1  0  0  0  0
 17 23  2  0  0  0  0
 17 33  1  0  0  0  0
 18 24  2  0  0  0  0
 18 34  1  0  0  0  0
 19 21  2  0  0  0  0
 20 22  2  0  0  0  0
 21 23  1  0  0  0  0
 22 24  1  0  0  0  0
 23 35  1  0  0  0  0
 24 36  1  0  0  0  0
 27 39  1  0  0  0  0
 27 40  1  0  0  0  0
 27 41  1  0  0  0  0
 28 42  1  0  0  0  0
 28 43  1  0  0  0  0
 28 44  1  0  0  0  0
M  END
> <PUBCHEM_COMPOUND_CID>
10475220

> <PUBCHEM_CONFORMER_RMSD>
0.8

> <PUBCHEM_CONFORMER_DIVERSEORDER>
1
3
2

> <PUBCHEM_MMFF94_PARTIAL_CHARGES>
40
1 -0.36
10 0.03
11 0.01
12 0.01
13 -0.18
14 -0.18
15 -0.15
16 -0.15
17 -0.15
18 -0.15
19 0.08
2 -0.36
20 0.08
21 0.08
22 0.08
23 -0.15
24 -0.15
25 0.71
26 0.71
27 0.28
28 0.28
29 0.15
3 -0.53
30 0.15
31 0.15
32 0.15
33 0.15
34 0.15
35 0.15
36 0.15
37 0.45
38 0.45
4 -0.53
45 0.5
46 0.5
5 -0.65
6 -0.65
7 -0.57
8 -0.57
9 0.03

> <PUBCHEM_EFFECTIVE_ROTOR_COUNT>
7

> <PUBCHEM_PHARMACOPHORE_FEATURES>
12
1 1 acceptor
1 2 acceptor
1 3 donor
1 4 donor
1 5 acceptor
1 6 acceptor
1 7 acceptor
1 8 acceptor
3 5 7 25 anion
3 6 8 26 anion
6 10 16 18 20 22 24 rings
6 9 15 17 19 21 23 rings

> <PUBCHEM_HEAVY_ATOM_COUNT>
28

> <PUBCHEM_ATOM_DEF_STEREO_COUNT>
0

> <PUBCHEM_ATOM_UDEF_STEREO_COUNT>
0

> <PUBCHEM_BOND_DEF_STEREO_COUNT>
2

> <PUBCHEM_BOND_UDEF_STEREO_COUNT>
0

> <PUBCHEM_ISOTOPIC_ATOM_COUNT>
0

> <PUBCHEM_COMPONENT_COUNT>
1

> <PUBCHEM_CACTVS_TAUTO_COUNT>
5

> <PUBCHEM_CONFORMER_ID>
009FD6D400000001

> <PUBCHEM_MMFF94_ENERGY>
124.4133

> <PUBCHEM_FEATURE_SELFOVERLAP>
61.014

> <PUBCHEM_SHAPE_FINGERPRINT>
10 15 17060329743622056450
10595046 47 18411425045917208520
10675989 125 15689314348079470217
11796584 16 18272377455436486199
12107183 9 17834120740540753384
12236239 1 18411421708621747691
12596602 18 18202284706347535898
12633257 1 16988296381737254387
12969540 114 16226043414351992371
13140716 1 15554153874113749512
13583140 156 17632576037648940373
14251751 18 18060138764760860603
14294032 229 14563641077859683431
14955137 171 15625954169936253280
15183329 4 18261116240027434530
15788980 27 18335431165897073777
15848702 151 18113909251329868904
1601671 61 13623527978318008638
16752209 62 15791444941866317964
17857418 61 18410293609707792078
19377110 9 18201427130280083078
200 152 17749110010727836757
20511986 3 18411409631253202958
21033648 29 15626223464338181787
21641784 216 13912321235635639662
22224240 67 18334575789982056824
22393880 68 16516244179786313051
23402539 116 17967535696593763253
23536379 177 18409735045063569233
23559900 14 18271801359126028089
23569914 152 16305373002044882479
23569914 2 17833782288471332845
23569943 247 17242449413061536307
3004659 81 18271252634077845350
3633792 109 18114175286574481045
4073 2 18041852821249314002
439807 62 18270964669596013263
5104073 3 18130796654573488617
59755656 215 16588024576497475794
7495541 125 17846782944105926872

> <PUBCHEM_SHAPE_MULTIPOLES>
529.27
14.11
2.03
1.64
0.09
1.05
-0.03
3.96
-0.03
-0.08
-0.04
0.13
-0.04
-1.39

> <PUBCHEM_SHAPE_SELFOVERLAP>
1147.237

> <PUBCHEM_SHAPE_VOLUME>
287.5

> <PUBCHEM_COORDINATE_TYPE>
2
5
10

$$$$
