10479220
  -OEChem-03292013303D

 80 81  0     1  0  0  0  0  0999 V2000
   -1.8181    0.0728    0.0655 O   0  0  0  0  0  0  0  0  0  0  0  0
   -4.0462    0.5817    0.7032 O   0  0  0  0  0  0  0  0  0  0  0  0
   -4.2621    2.0035   -1.8166 O   0  0  0  0  0  0  0  0  0  0  0  0
   -5.5104   -2.1359   -1.3059 O   0  0  0  0  0  0  0  0  0  0  0  0
    2.9240   -1.8170   -1.8521 O   0  0  0  0  0  0  0  0  0  0  0  0
   -4.4860   -0.3606   -3.3671 N   0  0  0  0  0  0  0  0  0  0  0  0
    3.5621   -2.1926    0.3446 N   0  0  0  0  0  0  0  0  0  0  0  0
   -0.9848    0.5375    1.1305 C   0  0  1  0  0  0  0  0  0  0  0  0
   -0.3109   -0.6673    1.8428 C   0  0  2  0  0  0  0  0  0  0  0  0
   -0.0231    1.5759    0.5188 C   0  0  0  0  0  0  0  0  0  0  0  0
    1.9941    3.1942    0.9750 C   0  0  1  0  0  0  0  0  0  0  0  0
    0.8815    2.2755    1.5412 C   0  0  0  0  0  0  0  0  0  0  0  0
   -2.9355    0.9335   -0.1272 C   0  0  2  0  0  0  0  0  0  0  0  0
    0.5373   -1.5311    0.8823 C   0  0  0  0  0  0  0  0  0  0  0  0
   -3.3443    0.9298   -1.6019 C   0  0  1  0  0  0  0  0  0  0  0  0
   -3.9779   -0.4132   -1.9939 C   0  0  1  0  0  0  0  0  0  0  0  0
    3.3662    2.4864    0.8704 C   0  0  0  0  0  0  0  0  0  0  0  0
   -1.3660   -1.5327    2.5482 C   0  0  0  0  0  0  0  0  0  0  0  0
   -5.1002   -0.8006   -1.0199 C   0  0  2  0  0  0  0  0  0  0  0  0
   -4.5945   -0.7110    0.4288 C   0  0  2  0  0  0  0  0  0  0  0  0
    1.6129    3.9142   -0.3177 C   0  0  0  0  0  0  0  0  0  0  0  0
    1.4619   -2.5137    1.6149 C   0  0  0  0  0  0  0  0  0  0  0  0
    3.4418    1.3449   -0.1438 C   0  0  0  0  0  0  0  0  0  0  0  0
    4.7526    0.5588   -0.0262 C   0  0  0  0  0  0  0  0  0  0  0  0
    4.8327   -0.6058   -1.0305 C   0  0  2  0  0  0  0  0  0  0  0  0
    2.5120   -3.1389    0.6932 C   0  0  0  0  0  0  0  0  0  0  0  0
   -2.2067   -0.7025    3.4936 C   0  0  0  0  0  0  0  0  0  0  0  0
   -5.7135   -0.9433    1.4407 C   0  0  0  0  0  0  0  0  0  0  0  0
    2.6330    4.9757   -0.6800 C   0  0  0  0  0  0  0  0  0  0  0  0
    3.6744   -1.5984   -0.9008 C   0  0  0  0  0  0  0  0  0  0  0  0
    6.1701   -1.3359   -0.9128 C   0  0  0  0  0  0  0  0  0  0  0  0
    6.3238   -2.3841   -1.9972 C   0  0  0  0  0  0  0  0  0  0  0  0
   -1.5837    1.0865    1.8660 H   0  0  0  0  0  0  0  0  0  0  0  0
    0.3531   -0.2743    2.6214 H   0  0  0  0  0  0  0  0  0  0  0  0
   -0.6048    2.3462   -0.0006 H   0  0  0  0  0  0  0  0  0  0  0  0
    0.5597    1.1090   -0.2794 H   0  0  0  0  0  0  0  0  0  0  0  0
    2.1387    3.9681    1.7440 H   0  0  0  0  0  0  0  0  0  0  0  0
    0.2304    2.8925    2.1756 H   0  0  0  0  0  0  0  0  0  0  0  0
    1.3453    1.5486    2.2147 H   0  0  0  0  0  0  0  0  0  0  0  0
   -2.6905    1.9669    0.1435 H   0  0  0  0  0  0  0  0  0  0  0  0
   -0.1142   -2.0884    0.1974 H   0  0  0  0  0  0  0  0  0  0  0  0
    1.1486   -0.8821    0.2571 H   0  0  0  0  0  0  0  0  0  0  0  0
   -2.4669    1.1130   -2.2348 H   0  0  0  0  0  0  0  0  0  0  0  0
   -3.2032   -1.1911   -1.9665 H   0  0  0  0  0  0  0  0  0  0  0  0
    3.6086    2.0846    1.8639 H   0  0  0  0  0  0  0  0  0  0  0  0
    4.1588    3.2134    0.6596 H   0  0  0  0  0  0  0  0  0  0  0  0
   -2.0072   -2.0467    1.8255 H   0  0  0  0  0  0  0  0  0  0  0  0
   -0.8685   -2.3126    3.1356 H   0  0  0  0  0  0  0  0  0  0  0  0
   -5.9640   -0.1383   -1.1575 H   0  0  0  0  0  0  0  0  0  0  0  0
   -3.8300   -1.4756    0.6057 H   0  0  0  0  0  0  0  0  0  0  0  0
    0.6429    4.4078   -0.1806 H   0  0  0  0  0  0  0  0  0  0  0  0
    1.5008    3.2171   -1.1547 H   0  0  0  0  0  0  0  0  0  0  0  0
    0.8587   -3.3215    2.0443 H   0  0  0  0  0  0  0  0  0  0  0  0
    1.9660   -2.0053    2.4458 H   0  0  0  0  0  0  0  0  0  0  0  0
    3.3389    1.7364   -1.1616 H   0  0  0  0  0  0  0  0  0  0  0  0
    2.6167    0.6586    0.0309 H   0  0  0  0  0  0  0  0  0  0  0  0
    5.5935    1.2423   -0.1993 H   0  0  0  0  0  0  0  0  0  0  0  0
    4.8598    0.1842    0.9992 H   0  0  0  0  0  0  0  0  0  0  0  0
    4.7629   -0.1743   -2.0391 H   0  0  0  0  0  0  0  0  0  0  0  0
    2.0480   -3.5386   -0.2144 H   0  0  0  0  0  0  0  0  0  0  0  0
    3.0069   -3.9653    1.2141 H   0  0  0  0  0  0  0  0  0  0  0  0
   -1.5872   -0.0732    4.1409 H   0  0  0  0  0  0  0  0  0  0  0  0
   -2.7868   -1.3674    4.1435 H   0  0  0  0  0  0  0  0  0  0  0  0
   -2.9328   -0.0723    2.9782 H   0  0  0  0  0  0  0  0  0  0  0  0
   -5.3298   -0.8572    2.4629 H   0  0  0  0  0  0  0  0  0  0  0  0
   -6.1633   -1.9335    1.3223 H   0  0  0  0  0  0  0  0  0  0  0  0
   -6.4983   -0.1861    1.3352 H   0  0  0  0  0  0  0  0  0  0  0  0
   -4.8571   -1.2731   -3.6285 H   0  0  0  0  0  0  0  0  0  0  0  0
   -3.7187   -0.1651   -4.0086 H   0  0  0  0  0  0  0  0  0  0  0  0
    2.2542    5.5851   -1.5077 H   0  0  0  0  0  0  0  0  0  0  0  0
    3.5782    4.5385   -1.0144 H   0  0  0  0  0  0  0  0  0  0  0  0
    2.8340    5.6471    0.1608 H   0  0  0  0  0  0  0  0  0  0  0  0
   -3.7963    2.8331   -1.6159 H   0  0  0  0  0  0  0  0  0  0  0  0
    6.2824   -1.8108    0.0687 H   0  0  0  0  0  0  0  0  0  0  0  0
    6.9897   -0.6133   -1.0087 H   0  0  0  0  0  0  0  0  0  0  0  0
    4.2383   -1.9674    1.0672 H   0  0  0  0  0  0  0  0  0  0  0  0
   -4.7488   -2.7226   -1.1604 H   0  0  0  0  0  0  0  0  0  0  0  0
    5.6005   -3.1977   -1.8857 H   0  0  0  0  0  0  0  0  0  0  0  0
    7.3237   -2.8278   -1.9481 H   0  0  0  0  0  0  0  0  0  0  0  0
    6.2019   -1.9467   -2.9934 H   0  0  0  0  0  0  0  0  0  0  0  0
  1  8  1  0  0  0  0
  1 13  1  0  0  0  0
  2 13  1  0  0  0  0
  2 20  1  0  0  0  0
  3 15  1  0  0  0  0
  3 73  1  0  0  0  0
  4 19  1  0  0  0  0
  4 77  1  0  0  0  0
  5 30  2  0  0  0  0
  6 16  1  0  0  0  0
  6 68  1  0  0  0  0
  6 69  1  0  0  0  0
  7 26  1  0  0  0  0
  7 30  1  0  0  0  0
  7 76  1  0  0  0  0
  8  9  1  0  0  0  0
  8 10  1  0  0  0  0
  8 33  1  0  0  0  0
  9 14  1  0  0  0  0
  9 18  1  0  0  0  0
  9 34  1  0  0  0  0
 10 12  1  0  0  0  0
 10 35  1  0  0  0  0
 10 36  1  0  0  0  0
 11 12  1  0  0  0  0
 11 17  1  0  0  0  0
 11 21  1  0  0  0  0
 11 37  1  0  0  0  0
 12 38  1  0  0  0  0
 12 39  1  0  0  0  0
 13 15  1  0  0  0  0
 13 40  1  0  0  0  0
 14 22  1  0  0  0  0
 14 41  1  0  0  0  0
 14 42  1  0  0  0  0
 15 16  1  0  0  0  0
 15 43  1  0  0  0  0
 16 19  1  0  0  0  0
 16 44  1  0  0  0  0
 17 23  1  0  0  0  0
 17 45  1  0  0  0  0
 17 46  1  0  0  0  0
 18 27  1  0  0  0  0
 18 47  1  0  0  0  0
 18 48  1  0  0  0  0
 19 20  1  0  0  0  0
 19 49  1  0  0  0  0
 20 28  1  0  0  0  0
 20 50  1  0  0  0  0
 21 29  1  0  0  0  0
 21 51  1  0  0  0  0
 21 52  1  0  0  0  0
 22 26  1  0  0  0  0
 22 53  1  0  0  0  0
 22 54  1  0  0  0  0
 23 24  1  0  0  0  0
 23 55  1  0  0  0  0
 23 56  1  0  0  0  0
 24 25  1  0  0  0  0
 24 57  1  0  0  0  0
 24 58  1  0  0  0  0
 25 30  1  0  0  0  0
 25 31  1  0  0  0  0
 25 59  1  0  0  0  0
 26 60  1  0  0  0  0
 26 61  1  0  0  0  0
 27 62  1  0  0  0  0
 27 63  1  0  0  0  0
 27 64  1  0  0  0  0
 28 65  1  0  0  0  0
 28 66  1  0  0  0  0
 28 67  1  0  0  0  0
 29 70  1  0  0  0  0
 29 71  1  0  0  0  0
 29 72  1  0  0  0  0
 31 32  1  0  0  0  0
 31 74  1  0  0  0  0
 31 75  1  0  0  0  0
 32 78  1  0  0  0  0
 32 79  1  0  0  0  0
 32 80  1  0  0  0  0
M  END
> <PUBCHEM_COMPOUND_CID>
10479220

> <PUBCHEM_CONFORMER_RMSD>
1.2

> <PUBCHEM_CONFORMER_DIVERSEORDER>
1
521
462
18
413
597
104
349
309
34
452
323
172
308
264
583
491
441
302
24
148
514
139
488
49
213
400
241
516
53
312
386
57
153
296
86
332
178
461
19
13
431
215
109
152
339
12
399
26
573
40
7
371
30
351
3
298
106
602
272
450
4
279
228
65
465
365
179
518
163
62
189
496
378
112
539
411
204
240
422
47
270
603
166
327
61
336
9
151
50
553
177
88
122
269
424
29
455
11
280
368
42
90
512
115
600
33
200
170
328
552
502
91
350
159
276
425
66
209
45
515
372
59
501
169
224
490
144
67
540
199
223
211
357
504
20
317
31
230
281
196
217
32
464
373
592
132
22
2
95
201
8
293
195
111
6
69
191
572
253
146
212
256
321
274
35
524
448
391
156
14
427
154
10
79
243
207
46
193
118
81
510
232
331
23
25
117
182
305
70
96

> <PUBCHEM_MMFF94_PARTIAL_CHARGES>
21
1 -0.56
13 0.56
15 0.28
16 0.27
19 0.28
2 -0.56
20 0.28
25 0.06
26 0.3
3 -0.68
30 0.57
4 -0.68
5 -0.57
6 -0.99
68 0.36
69 0.36
7 -0.73
73 0.4
76 0.37
77 0.4
8 0.28

> <PUBCHEM_EFFECTIVE_ROTOR_COUNT>
8.8

> <PUBCHEM_PHARMACOPHORE_FEATURES>
14
1 1 acceptor
1 2 acceptor
1 27 hydrophobe
1 29 hydrophobe
1 3 acceptor
1 3 donor
1 32 hydrophobe
1 4 acceptor
1 4 donor
1 5 acceptor
1 6 cation
1 6 donor
1 7 donor
6 2 13 15 16 19 20 rings

> <PUBCHEM_HEAVY_ATOM_COUNT>
32

> <PUBCHEM_ATOM_DEF_STEREO_COUNT>
5

> <PUBCHEM_ATOM_UDEF_STEREO_COUNT>
4

> <PUBCHEM_BOND_DEF_STEREO_COUNT>
0

> <PUBCHEM_BOND_UDEF_STEREO_COUNT>
0

> <PUBCHEM_ISOTOPIC_ATOM_COUNT>
0

> <PUBCHEM_COMPONENT_COUNT>
1

> <PUBCHEM_CACTVS_TAUTO_COUNT>
2

> <PUBCHEM_CONFORMER_ID>
009FE67400000001

> <PUBCHEM_MMFF94_ENERGY>
63.3094

> <PUBCHEM_FEATURE_SELFOVERLAP>
71.09

> <PUBCHEM_SHAPE_FINGERPRINT>
10556698 54 17608611030771055445
11135926 11 18122933047104081084
12645989 146 17985562065784482190
1361 2 18273213136271814694
13617811 41 16877944962741588367
14114206 34 17831056492503616612
14251757 17 18334009497446807601
14347329 18 17022628572042333110
15163728 17 16154537680661810293
15320294 125 16773804653996357863
15328829 1 17560539330063536051
15775530 1 18042412502738132331
1813 80 17917422078213552035
20775438 99 17913463995257305870
22393880 68 18336815429746243213
23559900 14 17677908991818900652
238 59 18339358673319230872
4015057 19 18337960081359169248
46194498 28 18189611812160973740
463206 1 17988079010259054150
508706 21 17821731645646095505
57527295 17 18261387785171625667
6669772 16 18194957672339405536
7471813 234 17903343820026654274

> <PUBCHEM_SHAPE_MULTIPOLES>
619.24
13.43
4.42
2.71
1.61
4.82
-0.01
-6.96
8.63
-6.43
-0.03
3.06
-1.15
2.02

> <PUBCHEM_SHAPE_SELFOVERLAP>
1218.319

> <PUBCHEM_SHAPE_VOLUME>
367.4

> <PUBCHEM_COORDINATE_TYPE>
2
5
10

$$$$
