10475314
  -OEChem-03292013303D

 56 56  0     1  0  0  0  0  0999 V2000
   -4.6186   -2.2528    0.4343 P   0  0  0  0  0  0  0  0  0  0  0  0
   -3.3340   -1.7578   -0.4053 O   0  0  0  0  0  0  0  0  0  0  0  0
    1.3883   -0.2657   -1.7862 O   0  0  0  0  0  0  0  0  0  0  0  0
   -2.8328    3.3714    1.6256 O   0  0  0  0  0  0  0  0  0  0  0  0
   -5.8501   -1.7928   -0.5075 O   0  0  0  0  0  0  0  0  0  0  0  0
   -4.5987   -3.8606    0.2615 O   0  0  0  0  0  0  0  0  0  0  0  0
   -4.6854   -1.7604    1.8505 O   0  0  0  0  0  0  0  0  0  0  0  0
    0.1592   -0.6935    0.1384 N   0  0  0  0  0  0  0  0  0  0  0  0
   -1.1458   -0.7267   -0.4804 C   0  0  1  0  0  0  0  0  0  0  0  0
   -2.0694   -1.7143    0.2626 C   0  0  2  0  0  0  0  0  0  0  0  0
    5.0588   -0.3016    0.4882 C   0  0  0  0  0  0  0  0  0  0  0  0
    3.8439   -0.2347   -0.4379 C   0  0  0  0  0  0  0  0  0  0  0  0
    6.3613   -0.0831   -0.2851 C   0  0  0  0  0  0  0  0  0  0  0  0
    2.5466   -0.4860    0.3273 C   0  0  0  0  0  0  0  0  0  0  0  0
   -1.7012    0.6786   -0.5771 C   0  0  0  0  0  0  0  0  0  0  0  0
    7.5776   -0.1884    0.6375 C   0  0  0  0  0  0  0  0  0  0  0  0
    1.3261   -0.4634   -0.5758 C   0  0  0  0  0  0  0  0  0  0  0  0
   -1.5354   -3.1431    0.2752 C   0  0  0  0  0  0  0  0  0  0  0  0
    8.9098   -0.0013   -0.0918 C   0  0  0  0  0  0  0  0  0  0  0  0
   -2.0155    1.3860    0.5832 C   0  0  0  0  0  0  0  0  0  0  0  0
   -1.8982    1.2657   -1.8269 C   0  0  0  0  0  0  0  0  0  0  0  0
   -2.5267    2.6807    0.4936 C   0  0  0  0  0  0  0  0  0  0  0  0
   10.1241   -0.1750    0.8074 C   0  0  0  0  0  0  0  0  0  0  0  0
   -2.4095    2.5604   -1.9165 C   0  0  0  0  0  0  0  0  0  0  0  0
   -2.7237    3.2678   -0.7561 C   0  0  0  0  0  0  0  0  0  0  0  0
   -3.3509    4.6907    1.4614 C   0  0  0  0  0  0  0  0  0  0  0  0
   -1.0164   -1.1069   -1.5032 H   0  0  0  0  0  0  0  0  0  0  0  0
   -2.2127   -1.3854    1.2983 H   0  0  0  0  0  0  0  0  0  0  0  0
    4.9652    0.4574    1.2744 H   0  0  0  0  0  0  0  0  0  0  0  0
    5.0872   -1.2795    0.9842 H   0  0  0  0  0  0  0  0  0  0  0  0
    3.9493   -0.9788   -1.2374 H   0  0  0  0  0  0  0  0  0  0  0  0
    3.8021    0.7476   -0.9246 H   0  0  0  0  0  0  0  0  0  0  0  0
    6.4448   -0.8291   -1.0847 H   0  0  0  0  0  0  0  0  0  0  0  0
    6.3470    0.9038   -0.7629 H   0  0  0  0  0  0  0  0  0  0  0  0
    2.4154    0.2787    1.1022 H   0  0  0  0  0  0  0  0  0  0  0  0
    2.5861   -1.4643    0.8213 H   0  0  0  0  0  0  0  0  0  0  0  0
    0.2115   -0.7762    1.1501 H   0  0  0  0  0  0  0  0  0  0  0  0
    7.4965    0.5612    1.4344 H   0  0  0  0  0  0  0  0  0  0  0  0
    7.5741   -1.1708    1.1261 H   0  0  0  0  0  0  0  0  0  0  0  0
   -0.5261   -3.1962    0.6942 H   0  0  0  0  0  0  0  0  0  0  0  0
   -2.1688   -3.7953    0.8834 H   0  0  0  0  0  0  0  0  0  0  0  0
   -1.5175   -3.5652   -0.7355 H   0  0  0  0  0  0  0  0  0  0  0  0
    8.9395    0.9981   -0.5418 H   0  0  0  0  0  0  0  0  0  0  0  0
    8.9772   -0.7224   -0.9151 H   0  0  0  0  0  0  0  0  0  0  0  0
   -1.8611    0.9431    1.5638 H   0  0  0  0  0  0  0  0  0  0  0  0
   -1.6580    0.7283   -2.7403 H   0  0  0  0  0  0  0  0  0  0  0  0
   10.1477   -1.1795    1.2417 H   0  0  0  0  0  0  0  0  0  0  0  0
   11.0455   -0.0289    0.2350 H   0  0  0  0  0  0  0  0  0  0  0  0
   10.1108    0.5525    1.6250 H   0  0  0  0  0  0  0  0  0  0  0  0
   -2.5624    3.0167   -2.8903 H   0  0  0  0  0  0  0  0  0  0  0  0
   -3.1168    4.2687   -0.8983 H   0  0  0  0  0  0  0  0  0  0  0  0
   -6.7667   -1.8970   -0.1743 H   0  0  0  0  0  0  0  0  0  0  0  0
   -5.2653   -4.3976    0.7405 H   0  0  0  0  0  0  0  0  0  0  0  0
   -2.6210    5.3531    0.9835 H   0  0  0  0  0  0  0  0  0  0  0  0
   -4.3116    4.6831    0.9354 H   0  0  0  0  0  0  0  0  0  0  0  0
   -3.5381    5.0914    2.4630 H   0  0  0  0  0  0  0  0  0  0  0  0
  1  2  1  0  0  0  0
  1  5  1  0  0  0  0
  1  6  1  0  0  0  0
  1  7  2  0  0  0  0
  2 10  1  0  0  0  0
  3 17  2  0  0  0  0
  4 22  1  0  0  0  0
  4 26  1  0  0  0  0
  5 52  1  0  0  0  0
  6 53  1  0  0  0  0
  8  9  1  0  0  0  0
  8 17  1  0  0  0  0
  8 37  1  0  0  0  0
  9 10  1  0  0  0  0
  9 15  1  0  0  0  0
  9 27  1  0  0  0  0
 10 18  1  0  0  0  0
 10 28  1  0  0  0  0
 11 12  1  0  0  0  0
 11 13  1  0  0  0  0
 11 29  1  0  0  0  0
 11 30  1  0  0  0  0
 12 14  1  0  0  0  0
 12 31  1  0  0  0  0
 12 32  1  0  0  0  0
 13 16  1  0  0  0  0
 13 33  1  0  0  0  0
 13 34  1  0  0  0  0
 14 17  1  0  0  0  0
 14 35  1  0  0  0  0
 14 36  1  0  0  0  0
 15 20  2  0  0  0  0
 15 21  1  0  0  0  0
 16 19  1  0  0  0  0
 16 38  1  0  0  0  0
 16 39  1  0  0  0  0
 18 40  1  0  0  0  0
 18 41  1  0  0  0  0
 18 42  1  0  0  0  0
 19 23  1  0  0  0  0
 19 43  1  0  0  0  0
 19 44  1  0  0  0  0
 20 22  1  0  0  0  0
 20 45  1  0  0  0  0
 21 24  2  0  0  0  0
 21 46  1  0  0  0  0
 22 25  2  0  0  0  0
 23 47  1  0  0  0  0
 23 48  1  0  0  0  0
 23 49  1  0  0  0  0
 24 25  1  0  0  0  0
 24 50  1  0  0  0  0
 25 51  1  0  0  0  0
 26 54  1  0  0  0  0
 26 55  1  0  0  0  0
 26 56  1  0  0  0  0
M  END
> <PUBCHEM_COMPOUND_CID>
10475314

> <PUBCHEM_CONFORMER_RMSD>
1

> <PUBCHEM_CONFORMER_DIVERSEORDER>
2
169
94
158
145
35
130
213
63
155
17
123
88
95
198
97
192
220
216
159
14
25
206
114
58
205
174
126
225
177
65
100
12
93
149
196
170
195
157
10
164
186
209
86
120
91
71
134
219
29
54
175
222
147
201
69
204
90
124
188
38
7
132
99
108
57
208
171
66
137
51
151
211
85
190
56
223
154
139
185
47
3
184
20
215
166
1
28
180
152
143
178
176
214
92
50
207
102
110
104
127
30
4
43
15
144
168
129
194
150
42
187
182
173
224
11
112
101
148
111
41
119
109
212
39
217
181
26
138
121
75
48
153
6
70
122
81
167
74
133
107
55
140
146
24
103
52
115
199
21
189
128
136
64
84
172
79
163
62
142
45
202
23
113
162
135
40
49
131
118
87
61
98
203
9
210
44
141
76
89
27
179
191
161
165
36
37
77
31
105
82
16
160
193
33
53
125
46
183
80
59
5
78
200
22
34
96
8
67
116
18
218
73
72
117
197
60
106
19
83
221
156
13
68
32

> <PUBCHEM_MMFF94_PARTIAL_CHARGES>
26
1 1.51
10 0.28
14 0.06
15 -0.14
17 0.57
2 -0.55
20 -0.15
21 -0.15
22 0.08
24 -0.15
25 -0.15
26 0.28
3 -0.57
37 0.37
4 -0.36
45 0.15
46 0.15
5 -0.77
50 0.15
51 0.15
52 0.5
53 0.5
6 -0.77
7 -0.7
8 -0.73
9 0.44

> <PUBCHEM_EFFECTIVE_ROTOR_COUNT>
13

> <PUBCHEM_PHARMACOPHORE_FEATURES>
11
1 23 hydrophobe
1 3 acceptor
1 4 acceptor
1 5 acceptor
1 6 acceptor
1 7 acceptor
1 8 donor
3 11 12 14 hydrophobe
3 13 16 19 hydrophobe
4 1 5 6 7 anion
6 15 20 21 22 24 25 rings

> <PUBCHEM_HEAVY_ATOM_COUNT>
26

> <PUBCHEM_ATOM_DEF_STEREO_COUNT>
2

> <PUBCHEM_ATOM_UDEF_STEREO_COUNT>
0

> <PUBCHEM_BOND_DEF_STEREO_COUNT>
0

> <PUBCHEM_BOND_UDEF_STEREO_COUNT>
0

> <PUBCHEM_ISOTOPIC_ATOM_COUNT>
0

> <PUBCHEM_COMPONENT_COUNT>
1

> <PUBCHEM_CACTVS_TAUTO_COUNT>
2

> <PUBCHEM_CONFORMER_ID>
009FD73200000002

> <PUBCHEM_MMFF94_ENERGY>
16.6046

> <PUBCHEM_FEATURE_SELFOVERLAP>
55.868

> <PUBCHEM_SHAPE_FINGERPRINT>
10291535 26 18059574638192278328
10319688 45 18197774607918455134
10411042 1 18119528984510092095
11101153 10 18115876372496398180
11315181 36 18040433309199645078
12082328 90 18343018875231058374
12788726 201 18265916789804702823
13073987 5 18411981326667517082
13540713 4 17844546413170258102
13631057 29 18334288799128218906
14068700 675 18187925156865091158
14118638 360 18335133173315497402
14150022 121 18202291303095660129
15021287 119 16805326579255900580
15131766 46 15767219539620799648
15338160 23 18341337708065493513
17844677 252 18410014373463902156
20600515 1 17914074215873656171
21756936 100 18201718393007772056
21927370 108 17894923961369211673
249057 25 17894921750194368700
283562 15 18408884019270240011
4409770 3 18261382352813703391
5104073 3 18263078830541283146
57634706 229 17985842440463464688
5969126 39 18272080630552270887
81228 2 18262537935044096063

> <PUBCHEM_SHAPE_MULTIPOLES>
498.72
20.1
4.56
1.43
74.78
2.72
-0.17
-4.21
5.34
-13.12
1.67
-1.44
1.06
-0.1

> <PUBCHEM_SHAPE_SELFOVERLAP>
975.408

> <PUBCHEM_SHAPE_VOLUME>
301.1

> <PUBCHEM_COORDINATE_TYPE>
2
5
10

$$$$
