10471757
  -OEChem-03292013303D

 39 40  0     0  0  0  0  0  0999 V2000
    1.1711    0.2092    1.4510 O   0  0  0  0  0  0  0  0  0  0  0  0
    6.1050    1.4918   -0.1510 O   0  0  0  0  0  0  0  0  0  0  0  0
    7.0016   -1.0421    0.5548 O   0  0  0  0  0  0  0  0  0  0  0  0
   -6.0973    0.0911    1.9029 O   0  0  0  0  0  0  0  0  0  0  0  0
   -7.1719   -0.2831   -0.6328 O   0  0  0  0  0  0  0  0  0  0  0  0
    0.9739    2.6251   -0.1173 O   0  0  0  0  0  0  0  0  0  0  0  0
   -1.1323    1.6030   -0.1779 N   0  0  0  0  0  0  0  0  0  0  0  0
    1.6014   -0.2446   -0.8757 C   0  0  0  0  0  0  0  0  0  0  0  0
    3.0461   -0.4546   -0.4936 C   0  0  0  0  0  0  0  0  0  0  0  0
    0.7134    0.0998    0.3114 C   0  0  0  0  0  0  0  0  0  0  0  0
   -0.7603    0.3124    0.0894 C   0  0  0  0  0  0  0  0  0  0  0  0
    3.9144    0.6257   -0.4995 C   0  0  0  0  0  0  0  0  0  0  0  0
    3.4791   -1.7242   -0.1440 C   0  0  0  0  0  0  0  0  0  0  0  0
   -3.0908   -0.5913   -0.0384 C   0  0  0  0  0  0  0  0  0  0  0  0
   -1.6390   -0.7022    0.1681 C   0  0  0  0  0  0  0  0  0  0  0  0
    5.2500    0.4315   -0.1468 C   0  0  0  0  0  0  0  0  0  0  0  0
    4.8145   -1.9183    0.2086 C   0  0  0  0  0  0  0  0  0  0  0  0
    5.7000   -0.8406    0.2073 C   0  0  0  0  0  0  0  0  0  0  0  0
   -3.9123   -0.2999    1.0403 C   0  0  0  0  0  0  0  0  0  0  0  0
   -3.6144   -0.7808   -1.3086 C   0  0  0  0  0  0  0  0  0  0  0  0
   -5.2895   -0.1957    0.8443 C   0  0  0  0  0  0  0  0  0  0  0  0
   -4.9914   -0.6765   -1.5047 C   0  0  0  0  0  0  0  0  0  0  0  0
   -5.8289   -0.3839   -0.4284 C   0  0  0  0  0  0  0  0  0  0  0  0
   -0.2424    2.6482   -0.2594 C   0  0  0  0  0  0  0  0  0  0  0  0
    1.5263    0.5482   -1.6285 H   0  0  0  0  0  0  0  0  0  0  0  0
    1.2101   -1.1581   -1.3406 H   0  0  0  0  0  0  0  0  0  0  0  0
    3.5683    1.6180   -0.7753 H   0  0  0  0  0  0  0  0  0  0  0  0
    2.7965   -2.5691   -0.1378 H   0  0  0  0  0  0  0  0  0  0  0  0
   -1.2862   -1.7069    0.3899 H   0  0  0  0  0  0  0  0  0  0  0  0
    5.1516   -2.9144    0.4830 H   0  0  0  0  0  0  0  0  0  0  0  0
   -3.4906   -0.1537    2.0321 H   0  0  0  0  0  0  0  0  0  0  0  0
   -2.9725   -1.0094   -2.1554 H   0  0  0  0  0  0  0  0  0  0  0  0
   -2.1177    1.8014   -0.3275 H   0  0  0  0  0  0  0  0  0  0  0  0
   -5.4054   -0.8239   -2.4985 H   0  0  0  0  0  0  0  0  0  0  0  0
    6.9852    1.1762    0.1182 H   0  0  0  0  0  0  0  0  0  0  0  0
   -0.7736    3.5880   -0.4851 H   0  0  0  0  0  0  0  0  0  0  0  0
    7.1304   -1.9822    0.7685 H   0  0  0  0  0  0  0  0  0  0  0  0
   -5.5510    0.1882    2.7017 H   0  0  0  0  0  0  0  0  0  0  0  0
   -7.5961   -0.0761    0.2180 H   0  0  0  0  0  0  0  0  0  0  0  0
  1 10  2  0  0  0  0
  2 16  1  0  0  0  0
  2 35  1  0  0  0  0
  3 18  1  0  0  0  0
  3 37  1  0  0  0  0
  4 21  1  0  0  0  0
  4 38  1  0  0  0  0
  5 23  1  0  0  0  0
  5 39  1  0  0  0  0
  6 24  2  0  0  0  0
  7 11  1  0  0  0  0
  7 24  1  0  0  0  0
  7 33  1  0  0  0  0
  8  9  1  0  0  0  0
  8 10  1  0  0  0  0
  8 25  1  0  0  0  0
  8 26  1  0  0  0  0
  9 12  2  0  0  0  0
  9 13  1  0  0  0  0
 10 11  1  0  0  0  0
 11 15  2  0  0  0  0
 12 16  1  0  0  0  0
 12 27  1  0  0  0  0
 13 17  2  0  0  0  0
 13 28  1  0  0  0  0
 14 15  1  0  0  0  0
 14 19  2  0  0  0  0
 14 20  1  0  0  0  0
 15 29  1  0  0  0  0
 16 18  2  0  0  0  0
 17 18  1  0  0  0  0
 17 30  1  0  0  0  0
 19 21  1  0  0  0  0
 19 31  1  0  0  0  0
 20 22  2  0  0  0  0
 20 32  1  0  0  0  0
 21 23  2  0  0  0  0
 22 23  1  0  0  0  0
 22 34  1  0  0  0  0
 24 36  1  0  0  0  0
M  END
> <PUBCHEM_COMPOUND_CID>
10471757

> <PUBCHEM_CONFORMER_RMSD>
0.8

> <PUBCHEM_CONFORMER_DIVERSEORDER>
1
219
307
103
112
39
244
96
270
250
237
189
288
300
297
427
164
171
19
222
285
452
397
400
217
15
273
92
196
310
376
428
267
364
71
366
197
292
439
87
190
13
324
156
57
123
274
385
289
143
311
210
115
247
51
430
332
268
293
73
105
254
337
390
146
326
363
396
320
42
419
388
245
98
399
440
61
111
347
394
16
202
262
442
432
133
10
296
386
433
330
118
429
358
90
62
350
356
108
201
12
418
359
335
45
149
284
375
361
302
392
256
413
86
46
200
372
239
145
208
188
351
53
11
453
367
114
85
241
398
147
120
348
266
340
277
151
101
384
331
198
199
191
106
421
280
162
425
93
407
139
100
206
368
383
370
185
69
176
391
242
443
354
353
17
258
252
362
298
278
130
408
129
411
91
227
304
263
5
102
142
431
380
214
448
338
84
195
20
378
369
253
215
346
157
224
334
404
401
182
327
259
261
318
60
4
279
303
141
382
104
343
415
314
169
437
40
316
144
82
240
321
377
184
52
436
74
2
177
234
121
305
269
181
333
416
43
329
339
260
344
6
379
14
138
7
78
232
426
122
29
451
3
306
444
125
194
236
410
41
35
64
9
160
116
75
249
159
212
449
68
308
168
221
402
192
216
167
282
435
226
301
365
203
299
231
18
63
97
77
204
137
230
8
281
187
243
229
135
163
154
211
95
287
352
246
283
412
395
341
446
65
295
158
403
323
336
441
406
313
183
134
37
172
319
291
54
209
420
110
170
223
24
271
109
150
59
32
88
207
294
238
72
434
179
257
220
315
58
360
79
136
317
165
422
218
38
132
355
49
409
225
70
454
50
235
81
417
445
193
373
55
31
205
248
345
161
180
389
25
290
228
21
99
175
424
48
255
113
414
349
44
309
107
275
80
22
33
56
374
148
328
371
357
47
322
140
34
36
124
438
276
173
447
76
153
83
27
66
325
264
387
174
178
312
28
423
155
30
405
117
251
265
286
67
127
381
152
393
94
119
126
450
213
342
26
23
272
186
128
233
131
89
166

> <PUBCHEM_MMFF94_PARTIAL_CHARGES>
37
1 -0.57
10 0.49
11 0.12
12 -0.15
13 -0.15
14 0.03
15 -0.18
16 0.08
17 -0.15
18 0.08
19 -0.15
2 -0.53
20 -0.15
21 0.08
22 -0.15
23 0.08
24 0.57
27 0.15
28 0.15
29 0.15
3 -0.53
30 0.15
31 0.15
32 0.15
33 0.37
34 0.15
35 0.45
36 0.06
37 0.45
38 0.45
39 0.45
4 -0.53
5 -0.53
6 -0.57
7 -0.54
8 0.2
9 -0.14

> <PUBCHEM_EFFECTIVE_ROTOR_COUNT>
6

> <PUBCHEM_PHARMACOPHORE_FEATURES>
9
1 1 acceptor
1 2 donor
1 3 donor
1 4 donor
1 5 donor
1 6 acceptor
1 7 donor
6 14 19 20 21 22 23 rings
6 9 12 13 16 17 18 rings

> <PUBCHEM_HEAVY_ATOM_COUNT>
24

> <PUBCHEM_ATOM_DEF_STEREO_COUNT>
0

> <PUBCHEM_ATOM_UDEF_STEREO_COUNT>
0

> <PUBCHEM_BOND_DEF_STEREO_COUNT>
1

> <PUBCHEM_BOND_UDEF_STEREO_COUNT>
0

> <PUBCHEM_ISOTOPIC_ATOM_COUNT>
0

> <PUBCHEM_COMPONENT_COUNT>
1

> <PUBCHEM_CACTVS_TAUTO_COUNT>
998

> <PUBCHEM_CONFORMER_ID>
009FC94D00000001

> <PUBCHEM_MMFF94_ENERGY>
70.1884

> <PUBCHEM_FEATURE_SELFOVERLAP>
45.684

> <PUBCHEM_SHAPE_FINGERPRINT>
10299344 5 17988925573893307174
10447042 23 18335134289684760342
10906281 52 18270700743105944886
11315181 36 17489586788430213739
11796584 16 17023186054059178258
12166972 35 17095529491704351356
12236239 1 17918278657674128735
12516196 113 18413669119021060957
12596602 18 16056876935921397634
12760667 363 18409448055253826903
13533116 47 18334012758002647098
13590594 115 18410015429567791729
13685833 64 18408888455934169683
14251764 18 17846500344449015119
14840074 17 18202001040378355086
14848160 23 17676206866510071618
15183329 4 18412545409621561279
15527383 91 18060699502700506185
16120349 18 18201714093945858553
17492 89 18122342372835895266
18006028 8 18411134727507649596
1813 80 18271257048929757757
19784866 140 17967811617850556747
200 152 18260546701994984302
20612939 158 18337392759509115053
21236236 1 18337671910956049597
21267235 1 18337960000619895222
21315763 178 18201999906449271391
21623969 137 18261402143342845947
21641784 216 18114479872169520940
21792934 111 18339349804059264648
22224240 67 16702294659683255126
23402539 116 18411979139573842358
23522609 53 17987541318782272825
23559900 14 18337666550272128121
23622692 88 15410889678295067061
23845131 108 17192082859947405808
3004659 81 17967249789348017918
3009799 131 17967247602608251828
314173 85 18343309140987686351
314194 84 18412263947413857347
3411729 13 16270780408230077410
3545911 37 15285354012241469391
4325135 7 18131350813282651462
5104073 3 18268143163865761224
5283173 99 17968929786822132860
5969126 39 18410567349554216381
59755656 215 16081083749674638610
59755656 520 8286197241301744873
67856867 119 17346030199189521089

> <PUBCHEM_SHAPE_MULTIPOLES>
453.71
17.77
1.8
1.14
1.65
1.18
-0.14
-5.15
-0.95
-1.9
0.16
1.68
-0.13
-0.71

> <PUBCHEM_SHAPE_SELFOVERLAP>
978.352

> <PUBCHEM_SHAPE_VOLUME>
247

> <PUBCHEM_COORDINATE_TYPE>
2
5
10

$$$$
