10474776
  -OEChem-03292013303D

 46 48  0     1  0  0  0  0  0999 V2000
   -3.4364    3.6151    0.3533 O   0  0  0  0  0  0  0  0  0  0  0  0
   -2.2251   -0.3807    1.8407 O   0  0  0  0  0  0  0  0  0  0  0  0
   -4.1359    1.6062   -0.5202 O   0  0  0  0  0  0  0  0  0  0  0  0
    5.3144    1.9178    0.8881 O   0  5  0  0  0  0  0  0  0  0  0  0
    5.1752    0.5613   -0.8323 O   0  0  0  0  0  0  0  0  0  0  0  0
   -1.6425    0.4734   -0.2349 N   0  0  0  0  0  0  0  0  0  0  0  0
    4.6586    1.3865   -0.0405 N   0  3  0  0  0  0  0  0  0  0  0  0
   -1.8159    1.8678    0.1030 C   0  0  1  0  0  0  0  0  0  0  0  0
   -0.8381    2.7576   -0.6787 C   0  0  0  0  0  0  0  0  0  0  0  0
    0.6199    2.3942   -0.5097 C   0  0  0  0  0  0  0  0  0  0  0  0
   -1.6193   -1.9241    0.1827 C   0  0  0  0  0  0  0  0  0  0  0  0
   -0.3663   -2.5495    0.2897 C   0  0  0  0  0  0  0  0  0  0  0  0
   -1.8619   -0.5690    0.6692 C   0  0  0  0  0  0  0  0  0  0  0  0
   -3.2589    2.3281   -0.0569 C   0  0  0  0  0  0  0  0  0  0  0  0
   -0.2055   -3.8657   -0.2047 C   0  0  0  0  0  0  0  0  0  0  0  0
    1.1962    1.4844   -1.3800 C   0  0  0  0  0  0  0  0  0  0  0  0
    1.3488    2.9789    0.5121 C   0  0  0  0  0  0  0  0  0  0  0  0
   -2.6980   -2.5867   -0.4037 C   0  0  0  0  0  0  0  0  0  0  0  0
    0.7306   -1.8976    0.8767 C   0  0  0  0  0  0  0  0  0  0  0  0
   -1.3024   -4.5179   -0.7915 C   0  0  0  0  0  0  0  0  0  0  0  0
    2.5411    1.1495   -1.2241 C   0  0  0  0  0  0  0  0  0  0  0  0
    2.6938    2.6440    0.6680 C   0  0  0  0  0  0  0  0  0  0  0  0
   -2.5400   -3.8812   -0.8896 C   0  0  0  0  0  0  0  0  0  0  0  0
    1.0472   -4.4914   -0.0976 C   0  0  0  0  0  0  0  0  0  0  0  0
    3.2901    1.7294   -0.2001 C   0  0  0  0  0  0  0  0  0  0  0  0
    1.9680   -2.5343    0.9744 C   0  0  0  0  0  0  0  0  0  0  0  0
    2.1261   -3.8287    0.4882 C   0  0  0  0  0  0  0  0  0  0  0  0
   -4.7639    4.1326    0.2184 C   0  0  0  0  0  0  0  0  0  0  0  0
   -1.5947    1.9598    1.1750 H   0  0  0  0  0  0  0  0  0  0  0  0
   -1.0897    2.7257   -1.7484 H   0  0  0  0  0  0  0  0  0  0  0  0
   -0.9738    3.8099   -0.3950 H   0  0  0  0  0  0  0  0  0  0  0  0
   -1.4129    0.2382   -1.1964 H   0  0  0  0  0  0  0  0  0  0  0  0
    0.6244    1.0300   -2.1837 H   0  0  0  0  0  0  0  0  0  0  0  0
    0.8915    3.6899    1.1939 H   0  0  0  0  0  0  0  0  0  0  0  0
   -3.6685   -2.1037   -0.4874 H   0  0  0  0  0  0  0  0  0  0  0  0
    0.6508   -0.8867    1.2695 H   0  0  0  0  0  0  0  0  0  0  0  0
   -1.2017   -5.5299   -1.1781 H   0  0  0  0  0  0  0  0  0  0  0  0
    2.9718    0.4328   -1.9186 H   0  0  0  0  0  0  0  0  0  0  0  0
    3.2459    3.1144    1.4776 H   0  0  0  0  0  0  0  0  0  0  0  0
   -3.3801   -4.3967   -1.3458 H   0  0  0  0  0  0  0  0  0  0  0  0
    1.1938   -5.5028   -0.4709 H   0  0  0  0  0  0  0  0  0  0  0  0
    2.8088   -2.0183    1.4291 H   0  0  0  0  0  0  0  0  0  0  0  0
    3.0900   -4.3235    0.5642 H   0  0  0  0  0  0  0  0  0  0  0  0
   -5.4622    3.5466    0.8234 H   0  0  0  0  0  0  0  0  0  0  0  0
   -5.0661    4.1304   -0.8332 H   0  0  0  0  0  0  0  0  0  0  0  0
   -4.7651    5.1638    0.5815 H   0  0  0  0  0  0  0  0  0  0  0  0
  1 14  1  0  0  0  0
  1 28  1  0  0  0  0
  2 13  2  0  0  0  0
  3 14  2  0  0  0  0
  4  7  1  0  0  0  0
  5  7  2  0  0  0  0
  6  8  1  0  0  0  0
  6 13  1  0  0  0  0
  6 32  1  0  0  0  0
  7 25  1  0  0  0  0
  8  9  1  0  0  0  0
  8 14  1  0  0  0  0
  8 29  1  0  0  0  0
  9 10  1  0  0  0  0
  9 30  1  0  0  0  0
  9 31  1  0  0  0  0
 10 16  2  0  0  0  0
 10 17  1  0  0  0  0
 11 12  1  0  0  0  0
 11 13  1  0  0  0  0
 11 18  2  0  0  0  0
 12 15  1  0  0  0  0
 12 19  2  0  0  0  0
 15 20  1  0  0  0  0
 15 24  2  0  0  0  0
 16 21  1  0  0  0  0
 16 33  1  0  0  0  0
 17 22  2  0  0  0  0
 17 34  1  0  0  0  0
 18 23  1  0  0  0  0
 18 35  1  0  0  0  0
 19 26  1  0  0  0  0
 19 36  1  0  0  0  0
 20 23  2  0  0  0  0
 20 37  1  0  0  0  0
 21 25  2  0  0  0  0
 21 38  1  0  0  0  0
 22 25  1  0  0  0  0
 22 39  1  0  0  0  0
 23 40  1  0  0  0  0
 24 27  1  0  0  0  0
 24 41  1  0  0  0  0
 26 27  2  0  0  0  0
 26 42  1  0  0  0  0
 27 43  1  0  0  0  0
 28 44  1  0  0  0  0
 28 45  1  0  0  0  0
 28 46  1  0  0  0  0
M  CHG  2   4  -1   7   1
M  END
> <PUBCHEM_COMPOUND_CID>
10474776

> <PUBCHEM_CONFORMER_RMSD>
1

> <PUBCHEM_CONFORMER_DIVERSEORDER>
2
37
6
26
24
22
20
17
4
44
43
39
8
28
7
12
36
33
14
47
35
31
45
23
21
5
30
19
38
10
34
32
46
40
18
13
41
27
1
16
11
15
29
48
9
3
25
42

> <PUBCHEM_MMFF94_PARTIAL_CHARGES>
38
1 -0.43
10 -0.14
11 0.09
13 0.54
14 0.66
16 -0.15
17 -0.15
18 -0.15
19 -0.15
2 -0.57
20 -0.15
21 -0.15
22 -0.15
23 -0.15
24 -0.15
25 0.13
26 -0.15
27 -0.15
28 0.28
3 -0.57
32 0.37
33 0.15
34 0.15
35 0.15
36 0.15
37 0.15
38 0.15
39 0.15
4 -0.52
40 0.15
41 0.15
42 0.15
43 0.15
5 -0.52
6 -0.73
7 0.91
8 0.36
9 0.14

> <PUBCHEM_EFFECTIVE_ROTOR_COUNT>
8

> <PUBCHEM_PHARMACOPHORE_FEATURES>
9
1 2 acceptor
1 3 acceptor
1 4 acceptor
1 4 anion
1 5 acceptor
1 6 donor
6 10 16 17 21 22 25 rings
6 11 12 15 18 20 23 rings
6 12 15 19 24 26 27 rings

> <PUBCHEM_HEAVY_ATOM_COUNT>
28

> <PUBCHEM_ATOM_DEF_STEREO_COUNT>
1

> <PUBCHEM_ATOM_UDEF_STEREO_COUNT>
0

> <PUBCHEM_BOND_DEF_STEREO_COUNT>
0

> <PUBCHEM_BOND_UDEF_STEREO_COUNT>
0

> <PUBCHEM_ISOTOPIC_ATOM_COUNT>
0

> <PUBCHEM_COMPONENT_COUNT>
1

> <PUBCHEM_CACTVS_TAUTO_COUNT>
2

> <PUBCHEM_CONFORMER_ID>
009FD51800000002

> <PUBCHEM_MMFF94_ENERGY>
87.1129

> <PUBCHEM_FEATURE_SELFOVERLAP>
45.78

> <PUBCHEM_SHAPE_FINGERPRINT>
10483366 6 18194665194004876575
1100329 8 18266455404658437230
11513181 2 18271238301381953103
12156800 1 16628235971314387486
12553582 1 17183362044800208237
12788726 201 17975142250930959420
13140716 1 18190746323466195035
1361 2 18051122593487886107
138480 1 17473826125994599084
140371 6 16971112346387407201
14363568 33 17835547932445893818
14659021 117 18050565450525772232
14725015 67 18124871519877525906
14866123 147 18410854399688295938
14955137 171 17619073833244600305
15210252 30 16821867459742250367
15420108 30 18337658733853421786
15927050 60 18340487768259774703
17913733 40 18196676024778932641
19611394 137 17684958816106871291
19930381 70 17689993436309270923
20642791 268 17049644410477614689
21133410 32 14353109198961867928
238 59 12851436125800325860
3027735 51 18339635767244956231
463206 1 17398102137667490514
5265222 85 18190485881577862212
5309563 4 17186154267669328869
6287921 2 17765139575889951161
653340 110 18267853072942314664
9709674 26 15815938032290968135

> <PUBCHEM_SHAPE_MULTIPOLES>
536.92
7.87
7.46
1.09
5.49
4.11
0.03
-3.87
-0.4
-8.68
0.14
0.06
0.2
0.93

> <PUBCHEM_SHAPE_SELFOVERLAP>
1165.161

> <PUBCHEM_SHAPE_VOLUME>
293.5

> <PUBCHEM_COORDINATE_TYPE>
2
5
10

$$$$
