10472991
  -OEChem-03292013303D

 44 44  0     1  0  0  0  0  0999 V2000
   -1.6179    2.5677   -0.0085 F   0  0  0  0  0  0  0  0  0  0  0  0
    0.3385   -0.9218    0.6922 O   0  0  0  0  0  0  0  0  0  0  0  0
    1.0836    2.3072   -0.8925 O   0  0  0  0  0  0  0  0  0  0  0  0
   -1.1442   -1.5421   -1.0469 O   0  0  0  0  0  0  0  0  0  0  0  0
    3.0267   -1.2666    0.3131 O   0  0  0  0  0  0  0  0  0  0  0  0
   -3.9945   -0.4619    2.1547 O   0  0  0  0  0  0  0  0  0  0  0  0
    0.6245    4.0906    0.5024 O   0  0  0  0  0  0  0  0  0  0  0  0
   -0.6641   -3.6884   -0.3401 O   0  0  0  0  0  0  0  0  0  0  0  0
    5.0444   -0.5549    1.1847 O   0  0  0  0  0  0  0  0  0  0  0  0
   -3.1497    0.1621    0.0767 N   0  0  0  0  0  0  0  0  0  0  0  0
   -1.7602    0.2700    0.4507 C   0  0  2  0  0  0  0  0  0  0  0  0
    0.4230    1.4218    0.0064 C   0  0  1  0  0  0  0  0  0  0  0  0
   -1.0608    1.3682   -0.3444 C   0  0  2  0  0  0  0  0  0  0  0  0
    1.0632    0.0334   -0.0903 C   0  0  1  0  0  0  0  0  0  0  0  0
   -1.0280   -1.0660    0.2925 C   0  0  2  0  0  0  0  0  0  0  0  0
    2.5013    0.0437    0.4201 C   0  0  0  0  0  0  0  0  0  0  0  0
   -4.1509   -0.1963    0.9658 C   0  0  0  0  0  0  0  0  0  0  0  0
    1.1100    3.6209   -0.5178 C   0  0  0  0  0  0  0  0  0  0  0  0
   -0.9359   -2.8808   -1.2181 C   0  0  0  0  0  0  0  0  0  0  0  0
   -5.5113   -0.2080    0.3217 C   0  0  0  0  0  0  0  0  0  0  0  0
    4.3203   -1.4319    0.7332 C   0  0  0  0  0  0  0  0  0  0  0  0
    1.8333    4.4291   -1.5523 C   0  0  0  0  0  0  0  0  0  0  0  0
   -1.0902   -3.2354   -2.6661 C   0  0  0  0  0  0  0  0  0  0  0  0
    4.7390   -2.8607    0.5626 C   0  0  0  0  0  0  0  0  0  0  0  0
   -1.7250    0.5595    1.5098 H   0  0  0  0  0  0  0  0  0  0  0  0
    0.5233    1.7743    1.0424 H   0  0  0  0  0  0  0  0  0  0  0  0
   -1.2045    1.2462   -1.4243 H   0  0  0  0  0  0  0  0  0  0  0  0
    1.0835   -0.3116   -1.1326 H   0  0  0  0  0  0  0  0  0  0  0  0
   -1.4919   -1.7882    0.9765 H   0  0  0  0  0  0  0  0  0  0  0  0
    3.1146    0.7369   -0.1668 H   0  0  0  0  0  0  0  0  0  0  0  0
    2.5216    0.3438    1.4750 H   0  0  0  0  0  0  0  0  0  0  0  0
   -3.3918    0.3065   -0.8997 H   0  0  0  0  0  0  0  0  0  0  0  0
   -5.4944   -0.8249   -0.5813 H   0  0  0  0  0  0  0  0  0  0  0  0
   -6.2455   -0.6235    1.0173 H   0  0  0  0  0  0  0  0  0  0  0  0
   -5.8019    0.8133    0.0607 H   0  0  0  0  0  0  0  0  0  0  0  0
    1.3120    4.3561   -2.5100 H   0  0  0  0  0  0  0  0  0  0  0  0
    1.8524    5.4785   -1.2448 H   0  0  0  0  0  0  0  0  0  0  0  0
    2.8628    4.0746   -1.6457 H   0  0  0  0  0  0  0  0  0  0  0  0
   -2.1039   -2.9991   -2.9992 H   0  0  0  0  0  0  0  0  0  0  0  0
   -0.9211   -4.3080   -2.7970 H   0  0  0  0  0  0  0  0  0  0  0  0
   -0.3523   -2.6912   -3.2608 H   0  0  0  0  0  0  0  0  0  0  0  0
    4.6852   -3.1385   -0.4930 H   0  0  0  0  0  0  0  0  0  0  0  0
    5.7719   -2.9794    0.9025 H   0  0  0  0  0  0  0  0  0  0  0  0
    4.0972   -3.5087    1.1647 H   0  0  0  0  0  0  0  0  0  0  0  0
  1 13  1  0  0  0  0
  2 14  1  0  0  0  0
  2 15  1  0  0  0  0
  3 12  1  0  0  0  0
  3 18  1  0  0  0  0
  4 15  1  0  0  0  0
  4 19  1  0  0  0  0
  5 16  1  0  0  0  0
  5 21  1  0  0  0  0
  6 17  2  0  0  0  0
  7 18  2  0  0  0  0
  8 19  2  0  0  0  0
  9 21  2  0  0  0  0
 10 11  1  0  0  0  0
 10 17  1  0  0  0  0
 10 32  1  0  0  0  0
 11 13  1  0  0  0  0
 11 15  1  0  0  0  0
 11 25  1  0  0  0  0
 12 13  1  0  0  0  0
 12 14  1  0  0  0  0
 12 26  1  0  0  0  0
 13 27  1  0  0  0  0
 14 16  1  0  0  0  0
 14 28  1  0  0  0  0
 15 29  1  0  0  0  0
 16 30  1  0  0  0  0
 16 31  1  0  0  0  0
 17 20  1  0  0  0  0
 18 22  1  0  0  0  0
 19 23  1  0  0  0  0
 20 33  1  0  0  0  0
 20 34  1  0  0  0  0
 20 35  1  0  0  0  0
 21 24  1  0  0  0  0
 22 36  1  0  0  0  0
 22 37  1  0  0  0  0
 22 38  1  0  0  0  0
 23 39  1  0  0  0  0
 23 40  1  0  0  0  0
 23 41  1  0  0  0  0
 24 42  1  0  0  0  0
 24 43  1  0  0  0  0
 24 44  1  0  0  0  0
M  END
> <PUBCHEM_COMPOUND_CID>
10472991

> <PUBCHEM_CONFORMER_RMSD>
1

> <PUBCHEM_CONFORMER_DIVERSEORDER>
1
51
30
49
31
17
61
8
20
21
27
50
54
46
34
57
39
48
41
28
24
58
9
11
47
29
59
63
43
33
35
7
32
36
19
16
13
44
18
26
64
52
12
53
38
2
37
62
25
60
40
42
45
56
23
22
55
15
3
14
10
4
6
5

> <PUBCHEM_MMFF94_PARTIAL_CHARGES>
25
1 -0.34
10 -0.73
11 0.3
12 0.28
13 0.34
14 0.28
15 0.56
16 0.28
17 0.57
18 0.66
19 0.66
2 -0.56
20 0.06
21 0.66
22 0.06
23 0.06
24 0.06
3 -0.43
32 0.37
4 -0.43
5 -0.43
6 -0.57
7 -0.57
8 -0.57
9 -0.57

> <PUBCHEM_EFFECTIVE_ROTOR_COUNT>
10.2

> <PUBCHEM_PHARMACOPHORE_FEATURES>
7
1 10 donor
1 2 acceptor
1 6 acceptor
1 7 acceptor
1 8 acceptor
1 9 acceptor
6 2 11 12 13 14 15 rings

> <PUBCHEM_HEAVY_ATOM_COUNT>
24

> <PUBCHEM_ATOM_DEF_STEREO_COUNT>
4

> <PUBCHEM_ATOM_UDEF_STEREO_COUNT>
1

> <PUBCHEM_BOND_DEF_STEREO_COUNT>
0

> <PUBCHEM_BOND_UDEF_STEREO_COUNT>
0

> <PUBCHEM_ISOTOPIC_ATOM_COUNT>
0

> <PUBCHEM_COMPONENT_COUNT>
1

> <PUBCHEM_CACTVS_TAUTO_COUNT>
2

> <PUBCHEM_CONFORMER_ID>
009FCE1F00000001

> <PUBCHEM_MMFF94_ENERGY>
39.2196

> <PUBCHEM_FEATURE_SELFOVERLAP>
35.524

> <PUBCHEM_SHAPE_FINGERPRINT>
10756046 70 18341049730623983975
10906281 52 18048882888355503637
12160290 23 17613399322295058040
12507560 14 18413673504367578833
12553582 1 18409161122038444806
12633257 1 17703214153680960010
13004483 165 18336533925047555352
13140716 1 18195526115117921443
133893 2 17464507056574934520
14178342 30 17983875392854990881
14713325 29 17832707864215446258
14943834 7 17982165935393272887
14955137 171 18408892823298945715
15042514 8 18118964685530166944
15842332 3 17983577691132970767
1813 80 18340498772150603148
20739085 24 18055098491758207611
21029758 27 18333735689013256080
21033648 29 17987214690998541265
22182313 1 18054232024982085679
23184049 59 18343023272149097347
23558518 356 17473555023638202204
23559900 14 16950569934459091369
23566358 27 18046630276470641790
25147074 1 18054225711311380687
266924 1 17838049669243702735
2748010 2 18196088837527831165
3380486 145 18192684900216472076
352729 6 17833540203118474860
465052 167 18261969504617810651
59554788 191 18336264544535934469
7097593 13 18267019634205845858
81228 2 18053066714576972250

> <PUBCHEM_SHAPE_MULTIPOLES>
434.7
7.96
5.33
1.53
0.08
4.06
0.68
-4.74
-4.65
-3.7
3.16
0.66
-0.9
-1.98

> <PUBCHEM_SHAPE_SELFOVERLAP>
875.454

> <PUBCHEM_SHAPE_VOLUME>
252.1

> <PUBCHEM_COORDINATE_TYPE>
2
5
10

$$$$
