104780
  -OEChem-03292013323D

 43 46  0     1  0  0  0  0  0999 V2000
    2.6660    1.0507   -1.6822 O   0  0  0  0  0  0  0  0  0  0  0  0
    0.0968   -1.4736   -1.1104 O   0  0  0  0  0  0  0  0  0  0  0  0
    3.2693    0.3466    1.4160 O   0  0  0  0  0  0  0  0  0  0  0  0
    1.9977   -2.6572    0.5505 O   0  0  0  0  0  0  0  0  0  0  0  0
   -0.0578   -0.1224    2.7384 O   0  0  0  0  0  0  0  0  0  0  0  0
   -3.4789    1.5389    0.6235 O   0  0  0  0  0  0  0  0  0  0  0  0
    1.1152    0.8116    0.2711 C   0  0  1  0  0  0  0  0  0  0  0  0
    1.4663    0.4552   -1.1616 C   0  0  2  0  0  0  0  0  0  0  0  0
   -0.4325    0.4336    0.4456 C   0  0  2  0  0  0  0  0  0  0  0  0
    1.4565   -1.0342   -1.2022 C   0  0  1  0  0  0  0  0  0  0  0  0
    2.0213   -0.2373    1.0428 C   0  0  1  0  0  0  0  0  0  0  0  0
    1.4476    1.3538   -2.3746 C   0  0  0  0  0  0  0  0  0  0  0  0
    2.3048   -1.3783    0.0310 C   0  0  1  0  0  0  0  0  0  0  0  0
   -0.6343   -1.0746    0.0641 C   0  0  1  0  0  0  0  0  0  0  0  0
    1.4335    2.2610    0.6560 C   0  0  0  0  0  0  0  0  0  0  0  0
   -1.3480    1.2922   -0.4887 C   0  0  0  0  0  0  0  0  0  0  0  0
   -0.8833    0.6644    1.9137 C   0  0  0  0  0  0  0  0  0  0  0  0
   -2.8347    0.8948   -0.4739 C   0  0  1  0  0  0  0  0  0  0  0  0
   -2.0658   -1.4623   -0.1945 C   0  0  0  0  0  0  0  0  0  0  0  0
   -3.0673   -0.5937   -0.4133 C   0  0  0  0  0  0  0  0  0  0  0  0
   -4.4726   -1.0691   -0.6512 C   0  0  0  0  0  0  0  0  0  0  0  0
    1.8855   -1.4562   -2.1163 H   0  0  0  0  0  0  0  0  0  0  0  0
    1.6675   -0.6814    1.9587 H   0  0  0  0  0  0  0  0  0  0  0  0
    1.2968    0.9004   -3.3459 H   0  0  0  0  0  0  0  0  0  0  0  0
    1.0592    2.3590   -2.2809 H   0  0  0  0  0  0  0  0  0  0  0  0
    3.3681   -1.3798   -0.2399 H   0  0  0  0  0  0  0  0  0  0  0  0
   -0.2994   -1.7164    0.8860 H   0  0  0  0  0  0  0  0  0  0  0  0
    2.4661    2.5351    0.4138 H   0  0  0  0  0  0  0  0  0  0  0  0
    0.8018    2.9754    0.1209 H   0  0  0  0  0  0  0  0  0  0  0  0
    1.3012    2.4286    1.7293 H   0  0  0  0  0  0  0  0  0  0  0  0
   -1.0116    1.1889   -1.5253 H   0  0  0  0  0  0  0  0  0  0  0  0
   -1.2643    2.3528   -0.2259 H   0  0  0  0  0  0  0  0  0  0  0  0
   -1.9114    0.3419    2.0932 H   0  0  0  0  0  0  0  0  0  0  0  0
   -0.7995    1.7147    2.2083 H   0  0  0  0  0  0  0  0  0  0  0  0
   -3.2901    1.2971   -1.3875 H   0  0  0  0  0  0  0  0  0  0  0  0
   -2.2771   -2.5295   -0.1929 H   0  0  0  0  0  0  0  0  0  0  0  0
    3.7149    0.6541    0.6084 H   0  0  0  0  0  0  0  0  0  0  0  0
    2.1084   -3.2997   -0.1710 H   0  0  0  0  0  0  0  0  0  0  0  0
   -0.3353    0.0307    3.6575 H   0  0  0  0  0  0  0  0  0  0  0  0
   -4.5418   -2.1619   -0.6674 H   0  0  0  0  0  0  0  0  0  0  0  0
   -4.8402   -0.7011   -1.6146 H   0  0  0  0  0  0  0  0  0  0  0  0
   -5.1397   -0.7081    0.1378 H   0  0  0  0  0  0  0  0  0  0  0  0
   -4.4388    1.4363    0.5092 H   0  0  0  0  0  0  0  0  0  0  0  0
  1  8  1  0  0  0  0
  1 12  1  0  0  0  0
  2 10  1  0  0  0  0
  2 14  1  0  0  0  0
  3 11  1  0  0  0  0
  3 37  1  0  0  0  0
  4 13  1  0  0  0  0
  4 38  1  0  0  0  0
  5 17  1  0  0  0  0
  5 39  1  0  0  0  0
  6 18  1  0  0  0  0
  6 43  1  0  0  0  0
  7  8  1  0  0  0  0
  7  9  1  0  0  0  0
  7 11  1  0  0  0  0
  7 15  1  0  0  0  0
  8 10  1  0  0  0  0
  8 12  1  0  0  0  0
  9 14  1  0  0  0  0
  9 16  1  0  0  0  0
  9 17  1  0  0  0  0
 10 13  1  0  0  0  0
 10 22  1  0  0  0  0
 11 13  1  0  0  0  0
 11 23  1  0  0  0  0
 12 24  1  0  0  0  0
 12 25  1  0  0  0  0
 13 26  1  0  0  0  0
 14 19  1  0  0  0  0
 14 27  1  0  0  0  0
 15 28  1  0  0  0  0
 15 29  1  0  0  0  0
 15 30  1  0  0  0  0
 16 18  1  0  0  0  0
 16 31  1  0  0  0  0
 16 32  1  0  0  0  0
 17 33  1  0  0  0  0
 17 34  1  0  0  0  0
 18 20  1  0  0  0  0
 18 35  1  0  0  0  0
 19 20  2  0  0  0  0
 19 36  1  0  0  0  0
 20 21  1  0  0  0  0
 21 40  1  0  0  0  0
 21 41  1  0  0  0  0
 21 42  1  0  0  0  0
M  END
> <PUBCHEM_COMPOUND_CID>
104780

> <PUBCHEM_CONFORMER_RMSD>
0.6

> <PUBCHEM_CONFORMER_DIVERSEORDER>
1
4
3
2

> <PUBCHEM_MMFF94_PARTIAL_CHARGES>
25
1 -0.3
10 0.38
11 0.28
12 -0.05
13 0.28
14 0.42
17 0.28
18 0.42
19 -0.29
2 -0.56
20 -0.28
21 0.14
24 0.1
25 0.1
3 -0.68
36 0.15
37 0.4
38 0.4
39 0.4
4 -0.68
43 0.4
5 -0.68
6 -0.68
7 0.09
8 -0.04

> <PUBCHEM_EFFECTIVE_ROTOR_COUNT>
2.4

> <PUBCHEM_PHARMACOPHORE_FEATURES>
12
1 1 acceptor
1 2 acceptor
1 3 acceptor
1 3 donor
1 4 acceptor
1 4 donor
1 5 acceptor
1 5 donor
1 6 acceptor
1 6 donor
6 9 14 16 18 19 20 rings
8 2 7 8 9 10 11 13 14 rings

> <PUBCHEM_HEAVY_ATOM_COUNT>
21

> <PUBCHEM_ATOM_DEF_STEREO_COUNT>
6

> <PUBCHEM_ATOM_UDEF_STEREO_COUNT>
2

> <PUBCHEM_BOND_DEF_STEREO_COUNT>
0

> <PUBCHEM_BOND_UDEF_STEREO_COUNT>
0

> <PUBCHEM_ISOTOPIC_ATOM_COUNT>
0

> <PUBCHEM_COMPONENT_COUNT>
1

> <PUBCHEM_CACTVS_TAUTO_COUNT>
1

> <PUBCHEM_CONFORMER_ID>
0001994C00000001

> <PUBCHEM_MMFF94_ENERGY>
93.1555

> <PUBCHEM_FEATURE_SELFOVERLAP>
60.912

> <PUBCHEM_SHAPE_FINGERPRINT>
10863032 1 18201143365547772602
10948715 1 18126274492203362000
12423570 1 15666497162303791190
12491281 212 17895773879573188197
12654903 92 17898289403031491783
13140716 1 18127410055960518579
13296908 3 16200437948914634301
13299463 15 18058753388467429421
13581323 91 18337379509212668565
14142880 1 15164104611115785005
14181834 199 18260558788091016870
144361 1 18265073421151753908
14817 1 14525764250897150916
16945 1 18270683193948765991
1813 80 17678168309718876498
18186145 218 17775294841694416177
18981168 100 15719971227220605121
20559304 39 18409726283287983527
21501502 16 18411423886650188935
22112679 90 17771656493024460162
22344851 262 18261100877266968142
23419403 2 17406499850982048106
23559900 14 17987519217713542862
2748010 2 18060421287524585607
296302 2 18412258432928823192
3286 77 18340759403803994189
474 4 16879361223015984205
495365 180 14924485555736272671
633830 44 17167870721140390813
7364860 26 18411978091876102684
81228 2 15911938093498007993

> <PUBCHEM_SHAPE_MULTIPOLES>
396.95
5.16
2.03
1.89
4.67
0.32
0.22
0.49
-0.63
-0.42
0
-1.07
-0.51
-0.56

> <PUBCHEM_SHAPE_SELFOVERLAP>
862.719

> <PUBCHEM_SHAPE_VOLUME>
213.1

> <PUBCHEM_COORDINATE_TYPE>
2
5
10

$$$$
