10474175
  -OEChem-03292013303D

 43 46  0     1  0  0  0  0  0999 V2000
   -0.6019   -2.2550   -0.0545 O   0  0  0  0  0  0  0  0  0  0  0  0
   -2.7089   -3.0195   -1.5780 O   0  0  0  0  0  0  0  0  0  0  0  0
    0.4778    2.3414    0.6189 O   0  0  0  0  0  0  0  0  0  0  0  0
    2.0487   -2.6821   -0.0084 O   0  0  0  0  0  0  0  0  0  0  0  0
    4.4975   -1.9741   -0.3250 O   0  0  0  0  0  0  0  0  0  0  0  0
   -4.3083    3.8930    0.4460 O   0  0  0  0  0  0  0  0  0  0  0  0
    5.4421    2.6652   -0.0918 O   0  0  0  0  0  0  0  0  0  0  0  0
   -1.9357   -2.1050    0.4760 C   0  0  1  0  0  0  0  0  0  0  0  0
   -2.5249   -0.7331    0.1861 C   0  0  0  0  0  0  0  0  0  0  0  0
   -1.6487    0.3505   -0.0228 C   0  0  0  0  0  0  0  0  0  0  0  0
   -0.1897    0.1105    0.0810 C   0  0  0  0  0  0  0  0  0  0  0  0
    0.2368   -1.1638    0.0115 C   0  0  0  0  0  0  0  0  0  0  0  0
   -2.7273   -3.2441   -0.1911 C   0  0  0  0  0  0  0  0  0  0  0  0
   -1.8828   -2.3545    1.9922 C   0  0  0  0  0  0  0  0  0  0  0  0
   -3.9143   -0.5176    0.1471 C   0  0  0  0  0  0  0  0  0  0  0  0
   -2.1930    1.6041   -0.3476 C   0  0  0  0  0  0  0  0  0  0  0  0
    0.8060    1.2099    0.2803 C   0  0  0  0  0  0  0  0  0  0  0  0
    1.6819   -1.5121   -0.0040 C   0  0  0  0  0  0  0  0  0  0  0  0
    2.2355    0.9010    0.0992 C   0  0  0  0  0  0  0  0  0  0  0  0
    2.6603   -0.4168   -0.0335 C   0  0  0  0  0  0  0  0  0  0  0  0
   -3.5741    1.7976   -0.4065 C   0  0  0  0  0  0  0  0  0  0  0  0
   -4.4348    0.7402   -0.1468 C   0  0  0  0  0  0  0  0  0  0  0  0
    4.0223   -0.7040   -0.1850 C   0  0  0  0  0  0  0  0  0  0  0  0
    3.1746    1.9403    0.0820 C   0  0  0  0  0  0  0  0  0  0  0  0
   -4.1252    3.1411   -0.7473 C   0  0  0  0  0  0  0  0  0  0  0  0
    4.5314    1.6537   -0.0725 C   0  0  0  0  0  0  0  0  0  0  0  0
    4.9547    0.3332   -0.2057 C   0  0  0  0  0  0  0  0  0  0  0  0
   -3.7636   -3.3157    0.1504 H   0  0  0  0  0  0  0  0  0  0  0  0
   -2.2514   -4.2144   -0.0063 H   0  0  0  0  0  0  0  0  0  0  0  0
   -1.2867   -1.5901    2.5044 H   0  0  0  0  0  0  0  0  0  0  0  0
   -2.8832   -2.3521    2.4388 H   0  0  0  0  0  0  0  0  0  0  0  0
   -1.4066   -3.3169    2.2126 H   0  0  0  0  0  0  0  0  0  0  0  0
   -4.6132   -1.3239    0.3488 H   0  0  0  0  0  0  0  0  0  0  0  0
   -1.5501    2.4491   -0.5772 H   0  0  0  0  0  0  0  0  0  0  0  0
   -5.5122    0.8781   -0.1758 H   0  0  0  0  0  0  0  0  0  0  0  0
    2.8635    2.9771    0.1850 H   0  0  0  0  0  0  0  0  0  0  0  0
   -3.4534    3.6945   -1.4125 H   0  0  0  0  0  0  0  0  0  0  0  0
   -5.0901    3.0595   -1.2586 H   0  0  0  0  0  0  0  0  0  0  0  0
   -1.7803   -2.9993   -1.8658 H   0  0  0  0  0  0  0  0  0  0  0  0
    6.0134    0.1157   -0.3257 H   0  0  0  0  0  0  0  0  0  0  0  0
    5.4653   -1.9523   -0.4175 H   0  0  0  0  0  0  0  0  0  0  0  0
   -3.4865    3.8479    0.9640 H   0  0  0  0  0  0  0  0  0  0  0  0
    6.3313    2.2878   -0.2060 H   0  0  0  0  0  0  0  0  0  0  0  0
  1  8  1  0  0  0  0
  1 12  1  0  0  0  0
  2 13  1  0  0  0  0
  2 39  1  0  0  0  0
  3 17  2  0  0  0  0
  4 18  2  0  0  0  0
  5 23  1  0  0  0  0
  5 41  1  0  0  0  0
  6 25  1  0  0  0  0
  6 42  1  0  0  0  0
  7 26  1  0  0  0  0
  7 43  1  0  0  0  0
  8  9  1  0  0  0  0
  8 13  1  0  0  0  0
  8 14  1  0  0  0  0
  9 10  2  0  0  0  0
  9 15  1  0  0  0  0
 10 11  1  0  0  0  0
 10 16  1  0  0  0  0
 11 12  2  0  0  0  0
 11 17  1  0  0  0  0
 12 18  1  0  0  0  0
 13 28  1  0  0  0  0
 13 29  1  0  0  0  0
 14 30  1  0  0  0  0
 14 31  1  0  0  0  0
 14 32  1  0  0  0  0
 15 22  2  0  0  0  0
 15 33  1  0  0  0  0
 16 21  2  0  0  0  0
 16 34  1  0  0  0  0
 17 19  1  0  0  0  0
 18 20  1  0  0  0  0
 19 20  2  0  0  0  0
 19 24  1  0  0  0  0
 20 23  1  0  0  0  0
 21 22  1  0  0  0  0
 21 25  1  0  0  0  0
 22 35  1  0  0  0  0
 23 27  2  0  0  0  0
 24 26  2  0  0  0  0
 24 36  1  0  0  0  0
 25 37  1  0  0  0  0
 25 38  1  0  0  0  0
 26 27  1  0  0  0  0
 27 40  1  0  0  0  0
M  END
> <PUBCHEM_COMPOUND_CID>
10474175

> <PUBCHEM_CONFORMER_RMSD>
0.6

> <PUBCHEM_CONFORMER_DIVERSEORDER>
6
4
1
5
2
3

> <PUBCHEM_MMFF94_PARTIAL_CHARGES>
35
1 -0.36
10 0.03
11 -0.01
12 0.09
13 0.28
15 -0.15
16 -0.15
17 0.47
18 0.47
19 0.09
2 -0.68
20 0.09
21 -0.14
22 -0.15
23 0.08
24 -0.15
25 0.42
26 0.08
27 -0.15
3 -0.57
33 0.15
34 0.15
35 0.15
36 0.15
39 0.4
4 -0.57
40 0.15
41 0.45
42 0.4
43 0.45
5 -0.53
6 -0.68
7 -0.53
8 0.42
9 -0.14

> <PUBCHEM_EFFECTIVE_ROTOR_COUNT>
2.4

> <PUBCHEM_PHARMACOPHORE_FEATURES>
13
1 1 acceptor
1 2 acceptor
1 2 donor
1 3 acceptor
1 4 acceptor
1 5 donor
1 6 acceptor
1 6 donor
1 7 donor
6 1 8 9 10 11 12 rings
6 11 12 17 18 19 20 rings
6 19 20 23 24 26 27 rings
6 9 10 15 16 21 22 rings

> <PUBCHEM_HEAVY_ATOM_COUNT>
27

> <PUBCHEM_ATOM_DEF_STEREO_COUNT>
0

> <PUBCHEM_ATOM_UDEF_STEREO_COUNT>
1

> <PUBCHEM_BOND_DEF_STEREO_COUNT>
0

> <PUBCHEM_BOND_UDEF_STEREO_COUNT>
0

> <PUBCHEM_ISOTOPIC_ATOM_COUNT>
0

> <PUBCHEM_COMPONENT_COUNT>
1

> <PUBCHEM_CACTVS_TAUTO_COUNT>
12

> <PUBCHEM_CONFORMER_ID>
009FD2BF00000006

> <PUBCHEM_MMFF94_ENERGY>
91.187

> <PUBCHEM_FEATURE_SELFOVERLAP>
66.053

> <PUBCHEM_SHAPE_FINGERPRINT>
10411042 1 17760931045054168587
10616163 171 18338237183995810326
10675989 125 17906730298069900385
10967382 1 18338516339584497690
1100329 8 17114666216365136768
11405975 8 18334010584516664570
12107183 9 18118110382475973986
12390115 104 18268725939056443473
12403259 226 17911235345126655715
12788726 201 18190447441398633539
13140716 1 18408317779371467402
13224815 77 18337392772272489466
13583140 156 17774152547739142696
138480 1 17113254443551181663
13944108 23 17184463223203304509
14363568 33 16748203960157279153
14790565 3 18196095434904189497
15042514 8 18263369256240225483
15196674 1 18410293592722919836
17980427 23 17532374360502563148
19591789 44 18337670794163780073
20715895 44 18266171730389621048
20775438 99 16978940732054562071
21065198 57 18409730664450017892
21236236 1 18267302208535961190
21279426 13 18267587897086605612
21307412 95 17771645459670897902
21421861 104 17678447568513204826
22182313 1 18269012993100362454
22393880 68 18412833508049623014
23227448 37 18411698807127166863
23558518 356 18114748230041399314
23559900 14 18341892932058291298
283562 15 18191299583994755403
335352 9 18265895748981667190
3380486 145 18121234327092070611
34934 24 18410290328394950066
350125 39 18195250133615508689
3680242 22 18118119161241453450
394222 165 17973437699070844267
4073 2 18041284365828125802
4214541 1 18410012152095501972
5104073 3 18261112933045204416
5309563 4 17543355307303996243
633830 44 18196083344671010685
9709674 26 18410015463531215422
9981440 41 18335134327817493402

> <PUBCHEM_SHAPE_MULTIPOLES>
514.56
10.11
4.14
0.89
7.07
0.46
0.15
5.79
-1.07
-3.58
-0.11
-0.62
-0.48
0.38

> <PUBCHEM_SHAPE_SELFOVERLAP>
1158.693

> <PUBCHEM_SHAPE_VOLUME>
268.3

> <PUBCHEM_COORDINATE_TYPE>
2
5
10

$$$$
