10476327
  -OEChem-03292013303D

 49 51  0     1  0  0  0  0  0999 V2000
   -3.1929   -0.2981    1.5734 O   0  0  0  0  0  0  0  0  0  0  0  0
   -1.8747   -2.5755    1.2252 O   0  0  0  0  0  0  0  0  0  0  0  0
   -1.8954    2.0183    1.2425 O   0  0  0  0  0  0  0  0  0  0  0  0
   -3.3287    1.8049   -1.9065 O   0  0  0  0  0  0  0  0  0  0  0  0
    0.1594   -3.9275    0.3832 O   0  0  0  0  0  0  0  0  0  0  0  0
    0.1355    3.3925    0.4210 O   0  0  0  0  0  0  0  0  0  0  0  0
    2.7570    3.3537   -0.2698 O   0  0  0  0  0  0  0  0  0  0  0  0
    4.0706    1.0441   -0.6513 O   0  0  0  0  0  0  0  0  0  0  0  0
    2.7742   -3.8689   -0.3055 O   0  0  0  0  0  0  0  0  0  0  0  0
   -2.1555   -0.2767    0.6047 C   0  0  2  0  0  0  0  0  0  0  0  0
   -2.7784   -0.2822   -0.7929 C   0  0  0  0  0  0  0  0  0  0  0  0
   -1.3575   -1.5512    0.7891 C   0  0  0  0  0  0  0  0  0  0  0  0
   -1.3676    1.0025    0.7998 C   0  0  0  0  0  0  0  0  0  0  0  0
    0.7116   -0.2647    0.2318 C   0  0  0  0  0  0  0  0  0  0  0  0
    0.0724   -1.5099    0.4071 C   0  0  0  0  0  0  0  0  0  0  0  0
    0.0638    0.9741    0.4200 C   0  0  0  0  0  0  0  0  0  0  0  0
   -1.6618   -0.3306   -1.8470 C   0  0  0  0  0  0  0  0  0  0  0  0
   -3.6798   -1.5194   -0.9292 C   0  0  0  0  0  0  0  0  0  0  0  0
   -3.5976    1.0092   -1.0034 C   0  0  0  0  0  0  0  0  0  0  0  0
    2.0816   -0.2583   -0.1305 C   0  0  0  0  0  0  0  0  0  0  0  0
    0.7638   -2.7134    0.2331 C   0  0  0  0  0  0  0  0  0  0  0  0
    0.7475    2.1841    0.2591 C   0  0  0  0  0  0  0  0  0  0  0  0
    2.7598   -1.4742   -0.3113 C   0  0  0  0  0  0  0  0  0  0  0  0
    2.7519    0.9638   -0.2977 C   0  0  0  0  0  0  0  0  0  0  0  0
    2.1058   -2.6914   -0.1296 C   0  0  0  0  0  0  0  0  0  0  0  0
    2.0900    2.1747   -0.1028 C   0  0  0  0  0  0  0  0  0  0  0  0
   -4.7682    1.2842   -0.0892 C   0  0  0  0  0  0  0  0  0  0  0  0
    4.2073   -1.5603   -0.7006 C   0  0  0  0  0  0  0  0  0  0  0  0
    3.4059    3.8963    0.8772 C   0  0  0  0  0  0  0  0  0  0  0  0
   -2.1257   -0.3323   -2.8447 H   0  0  0  0  0  0  0  0  0  0  0  0
   -1.0115    0.5466   -1.8599 H   0  0  0  0  0  0  0  0  0  0  0  0
   -1.0710   -1.2486   -1.8337 H   0  0  0  0  0  0  0  0  0  0  0  0
   -4.3028   -1.4307   -1.8282 H   0  0  0  0  0  0  0  0  0  0  0  0
   -4.3691   -1.6544   -0.0898 H   0  0  0  0  0  0  0  0  0  0  0  0
   -3.1039   -2.4442   -1.0438 H   0  0  0  0  0  0  0  0  0  0  0  0
   -2.7821   -0.2948    2.4551 H   0  0  0  0  0  0  0  0  0  0  0  0
   -4.4376    1.7428    0.8434 H   0  0  0  0  0  0  0  0  0  0  0  0
   -5.4424    1.9873   -0.5896 H   0  0  0  0  0  0  0  0  0  0  0  0
   -5.3434    0.3786    0.1081 H   0  0  0  0  0  0  0  0  0  0  0  0
    4.8426   -1.1069    0.0678 H   0  0  0  0  0  0  0  0  0  0  0  0
    4.5788   -2.5842   -0.8105 H   0  0  0  0  0  0  0  0  0  0  0  0
    4.3743   -1.0924   -1.6767 H   0  0  0  0  0  0  0  0  0  0  0  0
   -0.8001   -3.8221    0.4747 H   0  0  0  0  0  0  0  0  0  0  0  0
    0.7633    4.1000    0.1954 H   0  0  0  0  0  0  0  0  0  0  0  0
    4.3113    1.9754   -0.7927 H   0  0  0  0  0  0  0  0  0  0  0  0
    2.1576   -4.6021   -0.1359 H   0  0  0  0  0  0  0  0  0  0  0  0
    4.1637    3.2052    1.2595 H   0  0  0  0  0  0  0  0  0  0  0  0
    2.6785    4.1222    1.6633 H   0  0  0  0  0  0  0  0  0  0  0  0
    3.9000    4.8262    0.5826 H   0  0  0  0  0  0  0  0  0  0  0  0
  1 10  1  0  0  0  0
  1 36  1  0  0  0  0
  2 12  2  0  0  0  0
  3 13  2  0  0  0  0
  4 19  2  0  0  0  0
  5 21  1  0  0  0  0
  5 43  1  0  0  0  0
  6 22  1  0  0  0  0
  6 44  1  0  0  0  0
  7 26  1  0  0  0  0
  7 29  1  0  0  0  0
  8 24  1  0  0  0  0
  8 45  1  0  0  0  0
  9 25  1  0  0  0  0
  9 46  1  0  0  0  0
 10 11  1  0  0  0  0
 10 12  1  0  0  0  0
 10 13  1  0  0  0  0
 11 17  1  0  0  0  0
 11 18  1  0  0  0  0
 11 19  1  0  0  0  0
 12 15  1  0  0  0  0
 13 16  1  0  0  0  0
 14 15  2  0  0  0  0
 14 16  1  0  0  0  0
 14 20  1  0  0  0  0
 15 21  1  0  0  0  0
 16 22  2  0  0  0  0
 17 30  1  0  0  0  0
 17 31  1  0  0  0  0
 17 32  1  0  0  0  0
 18 33  1  0  0  0  0
 18 34  1  0  0  0  0
 18 35  1  0  0  0  0
 19 27  1  0  0  0  0
 20 23  2  0  0  0  0
 20 24  1  0  0  0  0
 21 25  2  0  0  0  0
 22 26  1  0  0  0  0
 23 25  1  0  0  0  0
 23 28  1  0  0  0  0
 24 26  2  0  0  0  0
 27 37  1  0  0  0  0
 27 38  1  0  0  0  0
 27 39  1  0  0  0  0
 28 40  1  0  0  0  0
 28 41  1  0  0  0  0
 28 42  1  0  0  0  0
 29 47  1  0  0  0  0
 29 48  1  0  0  0  0
 29 49  1  0  0  0  0
M  END
> <PUBCHEM_COMPOUND_CID>
10476327

> <PUBCHEM_CONFORMER_RMSD>
0.8

> <PUBCHEM_CONFORMER_DIVERSEORDER>
5
2
6
1
4
3

> <PUBCHEM_MMFF94_PARTIAL_CHARGES>
30
1 -0.68
10 0.4
11 0.06
12 0.42
13 0.42
15 0.09
16 0.09
19 0.45
2 -0.57
21 0.08
22 0.08
23 -0.14
24 0.08
25 0.08
26 0.08
27 0.06
28 0.14
29 0.28
3 -0.57
36 0.4
4 -0.57
43 0.45
44 0.45
45 0.45
46 0.45
5 -0.53
6 -0.53
7 -0.36
8 -0.53
9 -0.53

> <PUBCHEM_EFFECTIVE_ROTOR_COUNT>
3.2

> <PUBCHEM_PHARMACOPHORE_FEATURES>
14
1 1 acceptor
1 1 donor
1 2 acceptor
1 3 acceptor
1 4 acceptor
1 5 donor
1 6 donor
1 7 acceptor
1 8 donor
1 9 donor
3 11 17 18 hydrophobe
6 10 12 13 14 15 16 rings
6 14 15 20 21 23 25 rings
6 14 16 20 22 24 26 rings

> <PUBCHEM_HEAVY_ATOM_COUNT>
29

> <PUBCHEM_ATOM_DEF_STEREO_COUNT>
0

> <PUBCHEM_ATOM_UDEF_STEREO_COUNT>
1

> <PUBCHEM_BOND_DEF_STEREO_COUNT>
0

> <PUBCHEM_BOND_UDEF_STEREO_COUNT>
0

> <PUBCHEM_ISOTOPIC_ATOM_COUNT>
0

> <PUBCHEM_COMPONENT_COUNT>
1

> <PUBCHEM_CACTVS_TAUTO_COUNT>
642

> <PUBCHEM_CONFORMER_ID>
009FDB2700000005

> <PUBCHEM_MMFF94_ENERGY>
117.6634

> <PUBCHEM_FEATURE_SELFOVERLAP>
71.143

> <PUBCHEM_SHAPE_FINGERPRINT>
10165383 225 17975724948996379452
10411042 1 17834117446312022971
10675989 125 18339912736975839025
10863032 1 18412541029176730837
10967382 1 18338530659475182002
1100329 8 18339365171151192523
11135609 187 18053096513349955945
11370993 70 18193549193385571564
12173636 292 18120936363176500789
12553582 1 18122919633292851090
12730499 353 18335702784562104363
12788726 201 17543064589799932754
13140716 1 18338805644793147490
138480 1 18267021661440907074
13944108 23 16314405331401427069
14223421 5 18263934395772237027
14790565 3 17475241201807820416
16087824 20 17330836816763108941
16945 1 18411144601658542802
17349148 13 18340186584084285602
19591789 44 17762915650477638746
19930381 70 18410579521623031667
20775438 99 17981003631940287871
20905425 154 11204805252880185951
21634736 98 18343016653688610990
221357 26 18119800327663921493
22182313 1 18050581930241193400
22907989 373 17181364232141079796
2334 1 18338527442439065314
23419403 2 17825420460113032891
23557571 272 17313393387099893779
23559900 14 18413385437058953320
238 59 18047154636238056247
25 1 18335133172776920357
2748010 2 18265063607378322754
350125 39 18120106219028445482
4409770 3 17330821939095648012
81228 2 17472409959434154754
9709674 26 18337954592211551662
9862522 239 17834381703123026984
9981440 41 18123457539091406096

> <PUBCHEM_SHAPE_MULTIPOLES>
543.98
7.04
4.58
1.22
1.71
0.04
-0.19
-1.87
-1.78
-4.37
0.74
1.04
-0.11
0.81

> <PUBCHEM_SHAPE_SELFOVERLAP>
1222.186

> <PUBCHEM_SHAPE_VOLUME>
286.6

> <PUBCHEM_COORDINATE_TYPE>
2
5
10

$$$$
