104860
  -OEChem-03292013323D

 42 46  0     1  0  0  0  0  0999 V2000
    0.3291   -1.2048   -1.6401 O   0  0  0  0  0  0  0  0  0  0  0  0
   -2.1326   -2.3625    1.9501 O   0  0  0  0  0  0  0  0  0  0  0  0
   -4.7519   -0.9798   -0.2132 O   0  0  0  0  0  0  0  0  0  0  0  0
    4.8518   -1.2078   -0.4044 O   0  0  0  0  0  0  0  0  0  0  0  0
   -4.7724    1.5877   -0.4832 O   0  0  0  0  0  0  0  0  0  0  0  0
    5.0291    1.2306    0.2291 O   0  0  0  0  0  0  0  0  0  0  0  0
    0.6541   -1.1316   -0.2505 C   0  0  2  0  0  0  0  0  0  0  0  0
   -0.6515   -1.0245    0.6012 C   0  0  1  0  0  0  0  0  0  0  0  0
    1.4979    0.1293   -0.0274 C   0  0  0  0  0  0  0  0  0  0  0  0
   -1.3902    0.2554    0.2156 C   0  0  0  0  0  0  0  0  0  0  0  0
   -1.5693   -2.2667    0.6313 C   0  0  2  0  0  0  0  0  0  0  0  0
    1.4792   -2.3766    0.1297 C   0  0  0  0  0  0  0  0  0  0  0  0
    0.8451    1.3714    0.2071 C   0  0  0  0  0  0  0  0  0  0  0  0
   -0.6339    1.4475    0.1260 C   0  0  0  0  0  0  0  0  0  0  0  0
   -2.7126   -2.2294   -0.3672 C   0  0  0  0  0  0  0  0  0  0  0  0
    2.8095   -2.4188   -0.6052 C   0  0  0  0  0  0  0  0  0  0  0  0
   -2.7697    0.2866   -0.0452 C   0  0  0  0  0  0  0  0  0  0  0  0
    2.9070    0.0785   -0.0383 C   0  0  0  0  0  0  0  0  0  0  0  0
   -3.5263   -0.9749   -0.1807 C   0  0  0  0  0  0  0  0  0  0  0  0
    3.6261   -1.1852   -0.3334 C   0  0  0  0  0  0  0  0  0  0  0  0
    1.6375    2.5011    0.4852 C   0  0  0  0  0  0  0  0  0  0  0  0
   -1.3188    2.6518   -0.1240 C   0  0  0  0  0  0  0  0  0  0  0  0
   -3.4295    1.4944   -0.2796 C   0  0  0  0  0  0  0  0  0  0  0  0
    3.6656    1.2236    0.2232 C   0  0  0  0  0  0  0  0  0  0  0  0
    3.0295    2.4274    0.4955 C   0  0  0  0  0  0  0  0  0  0  0  0
   -2.7027    2.6774   -0.3017 C   0  0  0  0  0  0  0  0  0  0  0  0
   -0.3295   -0.8593    1.6430 H   0  0  0  0  0  0  0  0  0  0  0  0
   -1.0139   -3.1954    0.4899 H   0  0  0  0  0  0  0  0  0  0  0  0
    0.9491   -3.2972   -0.1347 H   0  0  0  0  0  0  0  0  0  0  0  0
    1.6585   -2.3943    1.2129 H   0  0  0  0  0  0  0  0  0  0  0  0
   -3.3786   -3.0831   -0.1945 H   0  0  0  0  0  0  0  0  0  0  0  0
   -2.3589   -2.2708   -1.4019 H   0  0  0  0  0  0  0  0  0  0  0  0
    2.6688   -2.5111   -1.6875 H   0  0  0  0  0  0  0  0  0  0  0  0
    3.3779   -3.2896   -0.2594 H   0  0  0  0  0  0  0  0  0  0  0  0
   -0.1186   -2.0527   -1.7992 H   0  0  0  0  0  0  0  0  0  0  0  0
    1.1874    3.4661    0.7042 H   0  0  0  0  0  0  0  0  0  0  0  0
   -0.7883    3.5962   -0.2139 H   0  0  0  0  0  0  0  0  0  0  0  0
   -1.4008   -2.5269    2.5692 H   0  0  0  0  0  0  0  0  0  0  0  0
   -3.1991    3.6262   -0.4892 H   0  0  0  0  0  0  0  0  0  0  0  0
    3.6006    3.3271    0.7109 H   0  0  0  0  0  0  0  0  0  0  0  0
   -5.1987    0.7285   -0.3437 H   0  0  0  0  0  0  0  0  0  0  0  0
    5.3517    2.1252    0.4320 H   0  0  0  0  0  0  0  0  0  0  0  0
  1  7  1  0  0  0  0
  1 35  1  0  0  0  0
  2 11  1  0  0  0  0
  2 38  1  0  0  0  0
  3 19  2  0  0  0  0
  4 20  2  0  0  0  0
  5 23  1  0  0  0  0
  5 41  1  0  0  0  0
  6 24  1  0  0  0  0
  6 42  1  0  0  0  0
  7  8  1  0  0  0  0
  7  9  1  0  0  0  0
  7 12  1  0  0  0  0
  8 10  1  0  0  0  0
  8 11  1  0  0  0  0
  8 27  1  0  0  0  0
  9 13  2  0  0  0  0
  9 18  1  0  0  0  0
 10 14  2  0  0  0  0
 10 17  1  0  0  0  0
 11 15  1  0  0  0  0
 11 28  1  0  0  0  0
 12 16  1  0  0  0  0
 12 29  1  0  0  0  0
 12 30  1  0  0  0  0
 13 14  1  0  0  0  0
 13 21  1  0  0  0  0
 14 22  1  0  0  0  0
 15 19  1  0  0  0  0
 15 31  1  0  0  0  0
 15 32  1  0  0  0  0
 16 20  1  0  0  0  0
 16 33  1  0  0  0  0
 16 34  1  0  0  0  0
 17 19  1  0  0  0  0
 17 23  2  0  0  0  0
 18 20  1  0  0  0  0
 18 24  2  0  0  0  0
 21 25  2  0  0  0  0
 21 36  1  0  0  0  0
 22 26  2  0  0  0  0
 22 37  1  0  0  0  0
 23 26  1  0  0  0  0
 24 25  1  0  0  0  0
 25 40  1  0  0  0  0
 26 39  1  0  0  0  0
M  END
> <PUBCHEM_COMPOUND_CID>
104860

> <PUBCHEM_CONFORMER_RMSD>
0.6

> <PUBCHEM_CONFORMER_DIVERSEORDER>
1
2

> <PUBCHEM_MMFF94_PARTIAL_CHARGES>
31
1 -0.68
10 -0.14
11 0.28
15 0.06
16 0.06
17 0.09
18 0.09
19 0.42
2 -0.68
20 0.42
21 -0.15
22 -0.15
23 0.08
24 0.08
25 -0.15
26 -0.15
3 -0.57
35 0.4
36 0.15
37 0.15
38 0.4
39 0.15
4 -0.57
40 0.15
41 0.45
42 0.45
5 -0.53
6 -0.53
7 0.42
8 0.14
9 -0.14

> <PUBCHEM_EFFECTIVE_ROTOR_COUNT>
0.8

> <PUBCHEM_PHARMACOPHORE_FEATURES>
13
1 1 acceptor
1 1 donor
1 2 acceptor
1 2 donor
1 3 acceptor
1 4 acceptor
1 5 donor
1 6 donor
6 10 14 17 22 23 26 rings
6 7 8 9 10 13 14 rings
6 7 9 12 16 18 20 rings
6 8 10 11 15 17 19 rings
6 9 13 18 21 24 25 rings

> <PUBCHEM_HEAVY_ATOM_COUNT>
26

> <PUBCHEM_ATOM_DEF_STEREO_COUNT>
3

> <PUBCHEM_ATOM_UDEF_STEREO_COUNT>
0

> <PUBCHEM_BOND_DEF_STEREO_COUNT>
0

> <PUBCHEM_BOND_UDEF_STEREO_COUNT>
0

> <PUBCHEM_ISOTOPIC_ATOM_COUNT>
0

> <PUBCHEM_COMPONENT_COUNT>
1

> <PUBCHEM_CACTVS_TAUTO_COUNT>
198

> <PUBCHEM_CONFORMER_ID>
0001999C00000001

> <PUBCHEM_MMFF94_ENERGY>
89.1093

> <PUBCHEM_FEATURE_SELFOVERLAP>
66.105

> <PUBCHEM_SHAPE_FINGERPRINT>
10608611 8 18411136935131259216
10616163 171 18339360876236598340
10675989 125 15813394105913684852
10863032 1 18341611494907929485
10906281 52 18055935211527618236
10967382 1 18339642355492458496
1100329 8 17616249187303118770
11578080 2 17097472225154341468
11680986 33 18412266146874852416
12011746 2 18339362946653454492
12403259 226 18411978065832388440
12633257 1 18265894653263814320
13140716 1 18339089279631882377
13224815 77 18272655657557985192
13402501 40 18411136943700127276
13944108 23 16533402754502400333
14223421 5 18411420656597398816
14363568 33 17181679779109277417
14790565 3 17764597512321253697
15196674 1 18411980256260233308
16945 1 18411133606510518880
17492 89 18411980239197142799
19591789 44 18269552904732897012
20691752 17 17894910694384143025
20905425 154 18413390946847872844
21267235 1 18411990151902118407
21279426 13 18338233752221781260
221490 88 18411986849309183310
22182313 1 18271820037975409534
23227448 37 18413103957338967039
2334 1 18050572034051039552
23558518 356 18333735714677441529
23559900 14 18413102849575163952
23566358 2 18411978031509222893
2748010 2 18194687192067327608
3178227 256 18049176471166912017
335352 9 18339642218064113404
3380486 145 18194415609007052563
34934 24 18411412899654379590
350125 39 18411705374042634137
3680242 22 18047471119208164962
4280585 95 17909558255673527206
5104073 3 18411981347155384697
59755656 215 18410008857697129348
8809292 202 18409169883133340689
9709674 26 18410576205818432706
9981440 41 18334851753371398490

> <PUBCHEM_SHAPE_MULTIPOLES>
499.85
8.19
3.48
0.89
1.26
0.35
0.11
0.65
-0.77
-0.3
0.25
-0.2
-0.41
1.14

> <PUBCHEM_SHAPE_SELFOVERLAP>
1145.684

> <PUBCHEM_SHAPE_VOLUME>
253.2

> <PUBCHEM_COORDINATE_TYPE>
2
5
10

$$$$
