10492375
  -OEChem-03292013303D

 31 32  0     1  0  0  0  0  0999 V2000
    1.8713    0.2170    1.0234 O   0  0  0  0  0  0  0  0  0  0  0  0
    4.3943   -1.0447   -0.1663 O   0  0  0  0  0  0  0  0  0  0  0  0
    2.0285    3.0004    0.7374 O   0  0  0  0  0  0  0  0  0  0  0  0
   -0.1830   -3.2555    0.2899 O   0  0  0  0  0  0  0  0  0  0  0  0
   -4.0307   -0.7768   -0.1905 O   0  0  0  0  0  0  0  0  0  0  0  0
   -3.7788    1.7689    0.3315 O   0  0  0  0  0  0  0  0  0  0  0  0
   -1.9561    2.6889   -0.6987 O   0  0  0  0  0  0  0  0  0  0  0  0
    0.0149   -0.9309    0.1803 N   0  0  0  0  0  0  0  0  0  0  0  0
   -2.0948   -2.0108    0.0497 N   0  0  0  0  0  0  0  0  0  0  0  0
    3.4172   -0.1731   -0.7313 C   0  0  1  0  0  0  0  0  0  0  0  0
    1.4426   -0.9513    0.3095 C   0  0  1  0  0  0  0  0  0  0  0  0
    2.1561   -0.9493   -1.0327 C   0  0  0  0  0  0  0  0  0  0  0  0
    2.9594    0.8372    0.3113 C   0  0  1  0  0  0  0  0  0  0  0  0
    2.4398    2.1299   -0.3043 C   0  0  0  0  0  0  0  0  0  0  0  0
   -0.6504    0.2834    0.0542 C   0  0  0  0  0  0  0  0  0  0  0  0
   -0.7075   -2.1450    0.1819 C   0  0  0  0  0  0  0  0  0  0  0  0
   -1.9769    0.3964   -0.0711 C   0  0  0  0  0  0  0  0  0  0  0  0
   -2.8093   -0.8290   -0.0790 C   0  0  0  0  0  0  0  0  0  0  0  0
   -2.5364    1.7442   -0.1949 C   0  0  0  0  0  0  0  0  0  0  0  0
    3.8624    0.2918   -1.6159 H   0  0  0  0  0  0  0  0  0  0  0  0
    1.7537   -1.8212    0.8999 H   0  0  0  0  0  0  0  0  0  0  0  0
    1.5681   -0.4178   -1.7908 H   0  0  0  0  0  0  0  0  0  0  0  0
    2.3318   -1.9668   -1.3956 H   0  0  0  0  0  0  0  0  0  0  0  0
    3.7395    1.0570    1.0487 H   0  0  0  0  0  0  0  0  0  0  0  0
    1.5994    1.9710   -0.9840 H   0  0  0  0  0  0  0  0  0  0  0  0
    3.2397    2.6263   -0.8639 H   0  0  0  0  0  0  0  0  0  0  0  0
    4.6167   -1.7086   -0.8413 H   0  0  0  0  0  0  0  0  0  0  0  0
   -0.0425    1.1743    0.0727 H   0  0  0  0  0  0  0  0  0  0  0  0
   -2.6347   -2.8717    0.0484 H   0  0  0  0  0  0  0  0  0  0  0  0
    1.7144    3.8197    0.3183 H   0  0  0  0  0  0  0  0  0  0  0  0
   -4.1889    2.6579    0.2674 H   0  0  0  0  0  0  0  0  0  0  0  0
  1 11  1  0  0  0  0
  1 13  1  0  0  0  0
  2 10  1  0  0  0  0
  2 27  1  0  0  0  0
  3 14  1  0  0  0  0
  3 30  1  0  0  0  0
  4 16  2  0  0  0  0
  5 18  2  0  0  0  0
  6 19  1  0  0  0  0
  6 31  1  0  0  0  0
  7 19  2  0  0  0  0
  8 11  1  0  0  0  0
  8 15  1  0  0  0  0
  8 16  1  0  0  0  0
  9 16  1  0  0  0  0
  9 18  1  0  0  0  0
  9 29  1  0  0  0  0
 10 12  1  0  0  0  0
 10 13  1  0  0  0  0
 10 20  1  0  0  0  0
 11 12  1  0  0  0  0
 11 21  1  0  0  0  0
 12 22  1  0  0  0  0
 12 23  1  0  0  0  0
 13 14  1  0  0  0  0
 13 24  1  0  0  0  0
 14 25  1  0  0  0  0
 14 26  1  0  0  0  0
 15 17  2  0  0  0  0
 15 28  1  0  0  0  0
 17 18  1  0  0  0  0
 17 19  1  0  0  0  0
M  END
> <PUBCHEM_COMPOUND_CID>
10492375

> <PUBCHEM_CONFORMER_RMSD>
0.6

> <PUBCHEM_CONFORMER_DIVERSEORDER>
1
31
25
16
12
28
27
15
6
17
8
20
13
26
18
24
11
30
5
10
19
9
21
7
3
14
23
22
4
2
29

> <PUBCHEM_MMFF94_PARTIAL_CHARGES>
23
1 -0.56
10 0.28
11 0.58
13 0.28
14 0.28
15 -0.04
16 0.69
17 0.03
18 0.62
19 0.71
2 -0.68
27 0.4
28 0.15
29 0.37
3 -0.68
30 0.4
31 0.5
4 -0.57
5 -0.57
6 -0.65
7 -0.57
8 -0.47
9 -0.49

> <PUBCHEM_EFFECTIVE_ROTOR_COUNT>
4

> <PUBCHEM_PHARMACOPHORE_FEATURES>
14
1 1 acceptor
1 17 anion
1 2 acceptor
1 2 donor
1 3 acceptor
1 3 donor
1 4 acceptor
1 5 acceptor
1 6 acceptor
1 7 acceptor
1 9 donor
3 6 7 19 anion
5 1 10 11 12 13 rings
6 8 9 15 16 17 18 rings

> <PUBCHEM_HEAVY_ATOM_COUNT>
19

> <PUBCHEM_ATOM_DEF_STEREO_COUNT>
3

> <PUBCHEM_ATOM_UDEF_STEREO_COUNT>
0

> <PUBCHEM_BOND_DEF_STEREO_COUNT>
0

> <PUBCHEM_BOND_UDEF_STEREO_COUNT>
0

> <PUBCHEM_ISOTOPIC_ATOM_COUNT>
0

> <PUBCHEM_COMPONENT_COUNT>
1

> <PUBCHEM_CACTVS_TAUTO_COUNT>
3

> <PUBCHEM_CONFORMER_ID>
00A019D700000001

> <PUBCHEM_MMFF94_ENERGY>
49.1661

> <PUBCHEM_FEATURE_SELFOVERLAP>
71.453

> <PUBCHEM_SHAPE_FINGERPRINT>
10498660 4 18335696208629687727
10608611 8 18340768242730683560
10967382 1 18410011048093481225
12173636 292 18410008879340848903
12403259 226 18410573989567913214
12403260 363 18411127056785937574
13140716 1 18410295800510514913
15196674 1 18410856568282880996
15375462 6 18051696847774248510
15442244 35 18408601453286887866
15775835 57 18188214186725886344
16945 1 18409442626373226674
17802600 8 18410289224651496108
18186145 218 18271811176740511449
18219364 16 18265061236493565625
19591789 44 18410577318605326627
20233049 118 18262801744709587436
20510252 161 18341333383254530729
21501502 16 18339645658628212348
21524375 3 18261675870150756715
22802520 49 18269002049349521346
23114952 82 18058190460431832964
2334 1 18337669823295780641
23402539 116 18270956839648450110
23557571 272 17904772420221456422
23558518 356 18262521518956339315
23559900 14 18342173418907596298
238 59 17613399326336792573
25 1 18194685869190942215
2748010 2 17978230787567284995
3084891 72 18196371408238342166
3286 77 18408318900099254542
350125 39 18410299120250988257
7364860 26 17978509737198392039
74978 22 18410012169507375906
7832392 63 18340204068516702876
81228 2 18119526793548886915
9709674 26 18270122443092687294
9925002 15 15393158223777988468

> <PUBCHEM_SHAPE_MULTIPOLES>
339.96
6.59
3.11
0.79
0.29
0.53
-0.04
1.27
-0.56
-0.66
0.19
0.35
0.08
0.46

> <PUBCHEM_SHAPE_SELFOVERLAP>
721.852

> <PUBCHEM_SHAPE_VOLUME>
189.2

> <PUBCHEM_COORDINATE_TYPE>
2
5
10

$$$$
