10495590
  -OEChem-03292013303D

 35 37  0     0  0  0  0  0  0999 V2000
    0.7797    2.2930    0.1701 O   0  0  0  0  0  0  0  0  0  0  0  0
    4.8847   -1.3624   -0.3670 O   0  0  0  0  0  0  0  0  0  0  0  0
    2.3151   -2.2732   -0.3092 O   0  0  0  0  0  0  0  0  0  0  0  0
   -0.1922   -1.6566   -0.1554 O   0  0  0  0  0  0  0  0  0  0  0  0
    5.4136    1.3433   -0.1598 O   0  0  0  0  0  0  0  0  0  0  0  0
   -5.2678   -0.1131   -1.9955 O   0  0  0  0  0  0  0  0  0  0  0  0
   -6.4242   -0.6518    0.4741 O   0  0  0  0  0  0  0  0  0  0  0  0
    1.4930   -0.0148   -0.0683 C   0  0  0  0  0  0  0  0  0  0  0  0
   -0.9455    0.5841    0.1302 C   0  0  0  0  0  0  0  0  0  0  0  0
    1.7652    1.3489    0.0362 C   0  0  0  0  0  0  0  0  0  0  0  0
    0.0912   -0.4715   -0.0372 C   0  0  0  0  0  0  0  0  0  0  0  0
    2.5383   -0.9320   -0.2044 C   0  0  0  0  0  0  0  0  0  0  0  0
   -2.3790    0.2611    0.2166 C   0  0  0  0  0  0  0  0  0  0  0  0
    3.8566   -0.4754   -0.2346 C   0  0  0  0  0  0  0  0  0  0  0  0
    3.0840    1.8031    0.0049 C   0  0  0  0  0  0  0  0  0  0  0  0
   -0.5210    1.8537    0.2192 C   0  0  0  0  0  0  0  0  0  0  0  0
    4.1292    0.8893   -0.1304 C   0  0  0  0  0  0  0  0  0  0  0  0
   -3.1599    0.2246   -0.9404 C   0  0  0  0  0  0  0  0  0  0  0  0
   -2.9625   -0.0096    1.4561 C   0  0  0  0  0  0  0  0  0  0  0  0
   -4.5183   -0.0813   -0.8584 C   0  0  0  0  0  0  0  0  0  0  0  0
   -4.3208   -0.3155    1.5382 C   0  0  0  0  0  0  0  0  0  0  0  0
   -5.0987   -0.3514    0.3809 C   0  0  0  0  0  0  0  0  0  0  0  0
    5.4392   -1.8927    0.8342 C   0  0  0  0  0  0  0  0  0  0  0  0
    3.2981    2.8659    0.0858 H   0  0  0  0  0  0  0  0  0  0  0  0
   -1.1829    2.7016    0.3466 H   0  0  0  0  0  0  0  0  0  0  0  0
   -2.7156    0.4330   -1.9115 H   0  0  0  0  0  0  0  0  0  0  0  0
   -2.3692    0.0135    2.3672 H   0  0  0  0  0  0  0  0  0  0  0  0
   -4.7602   -0.5241    2.5099 H   0  0  0  0  0  0  0  0  0  0  0  0
    1.3694   -2.4721   -0.2394 H   0  0  0  0  0  0  0  0  0  0  0  0
    6.0064    0.5857   -0.3031 H   0  0  0  0  0  0  0  0  0  0  0  0
    6.2670   -2.5548    0.5660 H   0  0  0  0  0  0  0  0  0  0  0  0
    4.6894   -2.4748    1.3791 H   0  0  0  0  0  0  0  0  0  0  0  0
    5.8258   -1.0912    1.4718 H   0  0  0  0  0  0  0  0  0  0  0  0
   -6.1822   -0.3407   -1.7529 H   0  0  0  0  0  0  0  0  0  0  0  0
   -6.6485   -0.8087    1.4074 H   0  0  0  0  0  0  0  0  0  0  0  0
  1 10  1  0  0  0  0
  1 16  1  0  0  0  0
  2 14  1  0  0  0  0
  2 23  1  0  0  0  0
  3 12  1  0  0  0  0
  3 29  1  0  0  0  0
  4 11  2  0  0  0  0
  5 17  1  0  0  0  0
  5 30  1  0  0  0  0
  6 20  1  0  0  0  0
  6 34  1  0  0  0  0
  7 22  1  0  0  0  0
  7 35  1  0  0  0  0
  8 10  2  0  0  0  0
  8 11  1  0  0  0  0
  8 12  1  0  0  0  0
  9 11  1  0  0  0  0
  9 13  1  0  0  0  0
  9 16  2  0  0  0  0
 10 15  1  0  0  0  0
 12 14  2  0  0  0  0
 13 18  2  0  0  0  0
 13 19  1  0  0  0  0
 14 17  1  0  0  0  0
 15 17  2  0  0  0  0
 15 24  1  0  0  0  0
 16 25  1  0  0  0  0
 18 20  1  0  0  0  0
 18 26  1  0  0  0  0
 19 21  2  0  0  0  0
 19 27  1  0  0  0  0
 20 22  2  0  0  0  0
 21 22  1  0  0  0  0
 21 28  1  0  0  0  0
 23 31  1  0  0  0  0
 23 32  1  0  0  0  0
 23 33  1  0  0  0  0
M  END
> <PUBCHEM_COMPOUND_CID>
10495590

> <PUBCHEM_CONFORMER_RMSD>
0.6

> <PUBCHEM_CONFORMER_DIVERSEORDER>
2
6
4
5
3
1

> <PUBCHEM_MMFF94_PARTIAL_CHARGES>
32
1 -0.16
10 0.08
11 0.47
12 0.08
13 0.03
14 0.08
15 -0.15
16 -0.07
17 0.08
18 -0.15
19 -0.15
2 -0.36
20 0.08
21 -0.15
22 0.08
23 0.28
24 0.15
25 0.15
26 0.15
27 0.15
28 0.15
29 0.45
3 -0.53
30 0.45
34 0.45
35 0.45
4 -0.57
5 -0.53
6 -0.53
7 -0.53
8 0.09
9 -0.01

> <PUBCHEM_EFFECTIVE_ROTOR_COUNT>
2

> <PUBCHEM_PHARMACOPHORE_FEATURES>
10
1 1 acceptor
1 2 acceptor
1 3 donor
1 4 acceptor
1 5 donor
1 6 donor
1 7 donor
6 1 8 9 10 11 16 rings
6 13 18 19 20 21 22 rings
6 8 10 12 14 15 17 rings

> <PUBCHEM_HEAVY_ATOM_COUNT>
23

> <PUBCHEM_ATOM_DEF_STEREO_COUNT>
0

> <PUBCHEM_ATOM_UDEF_STEREO_COUNT>
0

> <PUBCHEM_BOND_DEF_STEREO_COUNT>
0

> <PUBCHEM_BOND_UDEF_STEREO_COUNT>
0

> <PUBCHEM_ISOTOPIC_ATOM_COUNT>
0

> <PUBCHEM_COMPONENT_COUNT>
1

> <PUBCHEM_CACTVS_TAUTO_COUNT>
120

> <PUBCHEM_CONFORMER_ID>
00A0266600000002

> <PUBCHEM_MMFF94_ENERGY>
81.2077

> <PUBCHEM_FEATURE_SELFOVERLAP>
50.78

> <PUBCHEM_SHAPE_FINGERPRINT>
10 15 18114456890443058512
10447042 23 18410008828075437260
10912923 1 17489591181390440929
11471102 20 18410856577273475900
11796584 16 16877940516822735610
12107183 9 17339302021187734707
12236239 1 17704077300462659921
12403259 415 17821726139782858653
12596602 18 16774074102711178987
12616971 3 18060140946825448837
13140716 1 18269273641912211938
13533116 47 18202563965216099818
13544653 18 18409172103658118301
13685833 64 18335990826506978611
13760787 5 18413110567077402949
13862211 1 18412260606303931846
14386348 63 17967819357782524651
14573314 32 17240198824575858935
14739800 52 16199574931008145816
15196674 1 18411140195328350776
15788980 27 18411980252323936269
15961568 22 16154278358921049084
17349148 13 18202286904748162755
17844677 252 18334019371645562981
1813 80 18129679516242005277
18222031 100 18272650117551300854
19489759 90 16370723738556221177
200 152 18272933821542386561
20028762 73 18131067121687104998
20645477 70 18408042905173947450
21033648 29 18114449146052404309
21033650 10 15286201649306005292
21065201 7 16732983154374290201
21267235 1 18340775849656003950
21279426 13 18188768336407551333
21623969 137 18409458002609367043
21641784 216 18188510002937035852
21682296 61 18268151951021331574
23175994 123 18114467833671367461
23402539 116 18272651212567546729
23557571 272 17240199937352470053
23559900 14 17313101934391746098
2871803 45 18261393321642939344
3004659 81 17894631422973601266
314194 84 18272368672143781391
3411729 13 15625359381590656464
34797466 226 16515696562333057158
4340502 62 17240480338555357482
465052 167 18410017636832178954
5104073 3 18340205185730518096
5283173 99 17822566093452036989
542803 24 17275108331795577665
602551 16 14979666736903603397

> <PUBCHEM_SHAPE_MULTIPOLES>
432.24
13.21
1.88
1.08
5.04
0.13
0.04
-3.71
0.16
-2.77
-0.1
1.65
-0.13
-0.01

> <PUBCHEM_SHAPE_SELFOVERLAP>
963.898

> <PUBCHEM_SHAPE_VOLUME>
229.3

> <PUBCHEM_COORDINATE_TYPE>
2
5
10

$$$$
