10502019
  -OEChem-03292013303D

 54 57  0     1  0  0  0  0  0999 V2000
    3.7840    0.3210   -0.6692 O   0  0  0  0  0  0  0  0  0  0  0  0
    3.7466   -0.5294    1.5477 O   0  0  0  0  0  0  0  0  0  0  0  0
   -5.0929    0.4837    0.8571 O   0  0  0  0  0  0  0  0  0  0  0  0
    6.8304    1.3645    1.1010 O   0  0  0  0  0  0  0  0  0  0  0  0
   -1.0228    1.6032    0.9986 O   0  0  0  0  0  0  0  0  0  0  0  0
    5.0101    1.6093   -2.7834 O   0  0  0  0  0  0  0  0  0  0  0  0
    1.3951    0.9073    0.7830 O   0  0  0  0  0  0  0  0  0  0  0  0
    0.0539   -3.9080   -1.1073 O   0  0  0  0  0  0  0  0  0  0  0  0
   -3.7776    1.0405    0.6658 C   0  0  1  0  0  0  0  0  0  0  0  0
   -2.6896    0.0382    0.3528 C   0  0  0  0  0  0  0  0  0  0  0  0
    5.1413    0.7613   -0.5539 C   0  0  2  0  0  0  0  0  0  0  0  0
    3.5355   -0.8128    0.1634 C   0  0  1  0  0  0  0  0  0  0  0  0
    5.4556    1.0654    0.9164 C   0  0  1  0  0  0  0  0  0  0  0  0
   -0.3413   -0.5605    0.1776 C   0  0  0  0  0  0  0  0  0  0  0  0
   -3.0424   -1.2240   -0.1350 C   0  0  0  0  0  0  0  0  0  0  0  0
    2.1100   -1.2041   -0.0184 C   0  0  0  0  0  0  0  0  0  0  0  0
   -3.8773    2.1151   -0.4172 C   0  0  0  0  0  0  0  0  0  0  0  0
   -1.3362    0.3669    0.5101 C   0  0  0  0  0  0  0  0  0  0  0  0
   -0.6991   -1.8151   -0.3159 C   0  0  0  0  0  0  0  0  0  0  0  0
    5.0957   -0.1370    1.7834 C   0  0  0  0  0  0  0  0  0  0  0  0
    1.0796   -0.1952    0.3495 C   0  0  0  0  0  0  0  0  0  0  0  0
   -2.0494   -2.1493   -0.4744 C   0  0  0  0  0  0  0  0  0  0  0  0
    5.3086    1.9825   -1.4501 C   0  0  0  0  0  0  0  0  0  0  0  0
   -4.9495    3.1420   -0.0750 C   0  0  0  0  0  0  0  0  0  0  0  0
    1.7499   -2.4033   -0.4897 C   0  0  0  0  0  0  0  0  0  0  0  0
   -4.4585   -1.5414   -0.2735 C   0  0  0  0  0  0  0  0  0  0  0  0
    0.3387   -2.7985   -0.6731 C   0  0  0  0  0  0  0  0  0  0  0  0
   -5.3842   -0.7084    0.2276 C   0  0  0  0  0  0  0  0  0  0  0  0
   -5.0661    4.1962   -1.1643 C   0  0  0  0  0  0  0  0  0  0  0  0
   -6.8481   -1.0102    0.1664 C   0  0  0  0  0  0  0  0  0  0  0  0
   -3.5352    1.5162    1.6246 H   0  0  0  0  0  0  0  0  0  0  0  0
    5.7959   -0.0347   -0.9338 H   0  0  0  0  0  0  0  0  0  0  0  0
    4.1997   -1.6339   -0.1402 H   0  0  0  0  0  0  0  0  0  0  0  0
    4.8548    1.9206    1.2511 H   0  0  0  0  0  0  0  0  0  0  0  0
   -4.1319    1.6494   -1.3787 H   0  0  0  0  0  0  0  0  0  0  0  0
   -2.9152    2.6217   -0.5579 H   0  0  0  0  0  0  0  0  0  0  0  0
    5.7670   -0.9843    1.5952 H   0  0  0  0  0  0  0  0  0  0  0  0
    5.2034    0.1138    2.8443 H   0  0  0  0  0  0  0  0  0  0  0  0
   -2.3346   -3.1274   -0.8556 H   0  0  0  0  0  0  0  0  0  0  0  0
    6.3315    2.3682   -1.4201 H   0  0  0  0  0  0  0  0  0  0  0  0
    4.6123    2.7769   -1.1613 H   0  0  0  0  0  0  0  0  0  0  0  0
   -4.7088    3.6317    0.8757 H   0  0  0  0  0  0  0  0  0  0  0  0
   -5.9282    2.6641    0.0436 H   0  0  0  0  0  0  0  0  0  0  0  0
    2.4947   -3.1453   -0.7606 H   0  0  0  0  0  0  0  0  0  0  0  0
   -4.7352   -2.4746   -0.7525 H   0  0  0  0  0  0  0  0  0  0  0  0
    7.0100    2.2172    0.6711 H   0  0  0  0  0  0  0  0  0  0  0  0
   -4.1203    4.7314   -1.2960 H   0  0  0  0  0  0  0  0  0  0  0  0
   -5.3413    3.7431   -2.1221 H   0  0  0  0  0  0  0  0  0  0  0  0
   -5.8361    4.9286   -0.9020 H   0  0  0  0  0  0  0  0  0  0  0  0
   -7.3718   -0.2243   -0.3874 H   0  0  0  0  0  0  0  0  0  0  0  0
   -7.2667   -1.0582    1.1769 H   0  0  0  0  0  0  0  0  0  0  0  0
   -7.0541   -1.9647   -0.3288 H   0  0  0  0  0  0  0  0  0  0  0  0
   -0.0787    1.7910    0.8939 H   0  0  0  0  0  0  0  0  0  0  0  0
    5.1180    2.4030   -3.3347 H   0  0  0  0  0  0  0  0  0  0  0  0
  1 11  1  0  0  0  0
  1 12  1  0  0  0  0
  2 12  1  0  0  0  0
  2 20  1  0  0  0  0
  3  9  1  0  0  0  0
  3 28  1  0  0  0  0
  4 13  1  0  0  0  0
  4 46  1  0  0  0  0
  5 18  1  0  0  0  0
  5 53  1  0  0  0  0
  6 23  1  0  0  0  0
  6 54  1  0  0  0  0
  7 21  2  0  0  0  0
  8 27  2  0  0  0  0
  9 10  1  0  0  0  0
  9 17  1  0  0  0  0
  9 31  1  0  0  0  0
 10 15  1  0  0  0  0
 10 18  2  0  0  0  0
 11 13  1  0  0  0  0
 11 23  1  0  0  0  0
 11 32  1  0  0  0  0
 12 16  1  0  0  0  0
 12 33  1  0  0  0  0
 13 20  1  0  0  0  0
 13 34  1  0  0  0  0
 14 18  1  0  0  0  0
 14 19  2  0  0  0  0
 14 21  1  0  0  0  0
 15 22  2  0  0  0  0
 15 26  1  0  0  0  0
 16 21  1  0  0  0  0
 16 25  2  0  0  0  0
 17 24  1  0  0  0  0
 17 35  1  0  0  0  0
 17 36  1  0  0  0  0
 19 22  1  0  0  0  0
 19 27  1  0  0  0  0
 20 37  1  0  0  0  0
 20 38  1  0  0  0  0
 22 39  1  0  0  0  0
 23 40  1  0  0  0  0
 23 41  1  0  0  0  0
 24 29  1  0  0  0  0
 24 42  1  0  0  0  0
 24 43  1  0  0  0  0
 25 27  1  0  0  0  0
 25 44  1  0  0  0  0
 26 28  2  0  0  0  0
 26 45  1  0  0  0  0
 28 30  1  0  0  0  0
 29 47  1  0  0  0  0
 29 48  1  0  0  0  0
 29 49  1  0  0  0  0
 30 50  1  0  0  0  0
 30 51  1  0  0  0  0
 30 52  1  0  0  0  0
M  END
> <PUBCHEM_COMPOUND_CID>
10502019

> <PUBCHEM_CONFORMER_RMSD>
0.8

> <PUBCHEM_CONFORMER_DIVERSEORDER>
4
11
16
30
13
31
7
12
32
8
5
19
23
17
28
18
3
20
27
26
1
25
24
22
21
2
9
10
29
6
14
15

> <PUBCHEM_MMFF94_PARTIAL_CHARGES>
33
1 -0.56
10 -0.14
11 0.28
12 0.7
13 0.28
14 0.09
15 0.03
16 -0.12
18 0.08
19 0.09
2 -0.56
20 0.28
21 0.47
22 -0.15
23 0.28
25 -0.14
26 -0.18
27 0.47
28 -0.06
3 -0.36
30 0.14
39 0.15
4 -0.68
44 0.15
45 0.15
46 0.4
5 -0.53
53 0.45
54 0.4
6 -0.68
7 -0.57
8 -0.57
9 0.42

> <PUBCHEM_EFFECTIVE_ROTOR_COUNT>
5.6

> <PUBCHEM_PHARMACOPHORE_FEATURES>
15
1 1 acceptor
1 2 acceptor
1 29 hydrophobe
1 3 acceptor
1 4 acceptor
1 4 donor
1 5 donor
1 6 acceptor
1 6 donor
1 7 acceptor
1 8 acceptor
6 1 2 11 12 13 20 rings
6 10 14 15 18 19 22 rings
6 14 16 19 21 25 27 rings
6 3 9 10 15 26 28 rings

> <PUBCHEM_HEAVY_ATOM_COUNT>
30

> <PUBCHEM_ATOM_DEF_STEREO_COUNT>
3

> <PUBCHEM_ATOM_UDEF_STEREO_COUNT>
1

> <PUBCHEM_BOND_DEF_STEREO_COUNT>
0

> <PUBCHEM_BOND_UDEF_STEREO_COUNT>
0

> <PUBCHEM_ISOTOPIC_ATOM_COUNT>
0

> <PUBCHEM_COMPONENT_COUNT>
1

> <PUBCHEM_CACTVS_TAUTO_COUNT>
5

> <PUBCHEM_CONFORMER_ID>
00A03F8300000004

> <PUBCHEM_MMFF94_ENERGY>
76.4761

> <PUBCHEM_FEATURE_SELFOVERLAP>
76.217

> <PUBCHEM_SHAPE_FINGERPRINT>
10 15 18408882962143549427
10290309 65 18272091544360315983
10498660 4 18201442458749447776
10670039 82 18340502101272776636
10906281 52 18338252517535706387
11796584 16 10159700209251764920
12107183 9 17827624855935049762
12236239 1 18187361082136646554
12390115 104 17988657263555452369
12403259 118 18259980453211514312
12403259 415 18270964548555745959
12422481 6 17822291219576225396
12596602 18 17240482550305428315
12969540 114 16773791502368777022
13383661 66 14618223236118137661
13383665 225 18264791904069772837
13540713 4 18196381321339573895
14790565 3 18411140276874421300
14840074 17 17968668227734978164
15001296 14 18193278726415633512
15131766 46 16373549633921737236
15196674 1 18270963436528637387
15575132 122 18408611365749985341
173720 79 18335414695104006786
17980427 23 17894638037096799477
18608769 82 18200312259776222123
19319366 153 18113890602914861858
20691028 202 17910116807406890265
20715895 44 18192987110852254029
21049683 271 18268154331028715033
21279426 13 18130509626510168142
21302155 148 18408603647503928108
21796203 349 17541133147930189187
22122407 14 17604442889311364012
22149856 69 18199767898704586963
23559900 14 17912362022512963983
23569914 152 15834813812288282893
2838139 119 18341884217152604550
3004659 81 18413112737001550246
34797466 226 17418099870659706248
350125 39 18342174501334196785
5104073 3 18268150860183872923
5486654 2 18201722898248961610
550186 72 18411139147831396077
9981440 41 18409451379712177555

> <PUBCHEM_SHAPE_MULTIPOLES>
570.43
15.8
3.66
1.35
4.7
1.15
-0.36
10.38
0.73
-4.06
-1.84
2.27
0.58
-0.14

> <PUBCHEM_SHAPE_SELFOVERLAP>
1241.455

> <PUBCHEM_SHAPE_VOLUME>
307.7

> <PUBCHEM_COORDINATE_TYPE>
2
5
10

$$$$
