10516185
  -OEChem-03292013303D

 32 32  0     0  0  0  0  0  0999 V2000
   -2.7513   -1.3433    0.0839 S   0  0  0  0  0  0  0  0  0  0  0  0
   -3.4974   -1.3138   -1.1642 O   0  0  0  0  0  0  0  0  0  0  0  0
   -2.1057   -2.5734    0.5158 O   0  0  0  0  0  0  0  0  0  0  0  0
    2.7905    1.1789    1.3821 O   0  0  0  0  0  0  0  0  0  0  0  0
   -3.1757    1.5177   -0.8782 N   0  0  0  0  0  0  0  0  0  0  0  0
    2.4948   -1.0054    0.6792 N   0  0  0  0  0  0  0  0  0  0  0  0
    3.5663   -2.6222   -0.7474 N   0  0  0  0  0  0  0  0  0  0  0  0
    3.3312   -0.4563   -1.4236 N   0  0  0  0  0  0  0  0  0  0  0  0
   -1.5494   -0.0715    0.0174 C   0  0  0  0  0  0  0  0  0  0  0  0
   -1.8684    1.2053   -0.4451 C   0  0  0  0  0  0  0  0  0  0  0  0
    0.4101    1.9127   -0.0648 C   0  0  0  0  0  0  0  0  0  0  0  0
    0.7292    0.6360    0.3979 C   0  0  0  0  0  0  0  0  0  0  0  0
   -0.2505   -0.3561    0.4391 C   0  0  0  0  0  0  0  0  0  0  0  0
   -0.8885    2.1973   -0.4864 C   0  0  0  0  0  0  0  0  0  0  0  0
   -3.8458   -0.8415    1.3913 C   0  0  0  0  0  0  0  0  0  0  0  0
    1.4398    2.9937   -0.1180 C   0  0  0  0  0  0  0  0  0  0  0  0
    2.0770    0.3121    0.8453 C   0  0  0  0  0  0  0  0  0  0  0  0
    3.0937   -1.3700   -0.4243 C   0  0  0  0  0  0  0  0  0  0  0  0
   -0.0043   -1.3450    0.8150 H   0  0  0  0  0  0  0  0  0  0  0  0
   -1.1410    3.1923   -0.8462 H   0  0  0  0  0  0  0  0  0  0  0  0
   -4.3356    0.0983    1.1386 H   0  0  0  0  0  0  0  0  0  0  0  0
   -4.5996   -1.6230    1.5139 H   0  0  0  0  0  0  0  0  0  0  0  0
   -3.2696   -0.7408    2.3134 H   0  0  0  0  0  0  0  0  0  0  0  0
    2.3474    2.6613   -0.6315 H   0  0  0  0  0  0  0  0  0  0  0  0
    1.0745    3.8586   -0.6845 H   0  0  0  0  0  0  0  0  0  0  0  0
    1.6803    3.3528    0.8877 H   0  0  0  0  0  0  0  0  0  0  0  0
   -3.8850    0.8035   -0.9585 H   0  0  0  0  0  0  0  0  0  0  0  0
   -3.3777    2.4496   -1.2165 H   0  0  0  0  0  0  0  0  0  0  0  0
    3.4676   -3.4007   -0.1048 H   0  0  0  0  0  0  0  0  0  0  0  0
    4.0215   -2.8043   -1.6351 H   0  0  0  0  0  0  0  0  0  0  0  0
    3.0630    0.5181   -1.3538 H   0  0  0  0  0  0  0  0  0  0  0  0
    3.7958   -0.7350   -2.2814 H   0  0  0  0  0  0  0  0  0  0  0  0
  1  2  2  0  0  0  0
  1  3  2  0  0  0  0
  1  9  1  0  0  0  0
  1 15  1  0  0  0  0
  4 17  2  0  0  0  0
  5 10  1  0  0  0  0
  5 27  1  0  0  0  0
  5 28  1  0  0  0  0
  6 17  1  0  0  0  0
  6 18  2  0  0  0  0
  7 18  1  0  0  0  0
  7 29  1  0  0  0  0
  7 30  1  0  0  0  0
  8 18  1  0  0  0  0
  8 31  1  0  0  0  0
  8 32  1  0  0  0  0
  9 10  2  0  0  0  0
  9 13  1  0  0  0  0
 10 14  1  0  0  0  0
 11 12  1  0  0  0  0
 11 14  2  0  0  0  0
 11 16  1  0  0  0  0
 12 13  2  0  0  0  0
 12 17  1  0  0  0  0
 13 19  1  0  0  0  0
 14 20  1  0  0  0  0
 15 21  1  0  0  0  0
 15 22  1  0  0  0  0
 15 23  1  0  0  0  0
 16 24  1  0  0  0  0
 16 25  1  0  0  0  0
 16 26  1  0  0  0  0
M  END
> <PUBCHEM_COMPOUND_CID>
10516185

> <PUBCHEM_CONFORMER_RMSD>
0.6

> <PUBCHEM_CONFORMER_DIVERSEORDER>
1
30
33
10
9
32
15
23
31
20
8
18
12
22
16
11
21
28
17
24
14
27
26
29
6
25
4
19
2
5
13
7
3

> <PUBCHEM_MMFF94_PARTIAL_CHARGES>
26
1 1.2
10 0.1
11 -0.14
12 0.09
13 -0.15
14 -0.15
15 0.11
16 0.14
17 0.69
18 0.55
19 0.15
2 -0.65
20 0.15
27 0.4
28 0.4
29 0.4
3 -0.65
30 0.4
31 0.4
32 0.4
4 -0.57
5 -0.9
6 -0.66
7 -0.85
8 -0.85
9 -0.01

> <PUBCHEM_EFFECTIVE_ROTOR_COUNT>
3

> <PUBCHEM_PHARMACOPHORE_FEATURES>
9
1 2 acceptor
1 3 acceptor
1 4 acceptor
1 5 cation
1 5 donor
1 6 donor
1 7 donor
1 8 donor
6 9 10 11 12 13 14 rings

> <PUBCHEM_HEAVY_ATOM_COUNT>
18

> <PUBCHEM_ATOM_DEF_STEREO_COUNT>
0

> <PUBCHEM_ATOM_UDEF_STEREO_COUNT>
0

> <PUBCHEM_BOND_DEF_STEREO_COUNT>
0

> <PUBCHEM_BOND_UDEF_STEREO_COUNT>
0

> <PUBCHEM_ISOTOPIC_ATOM_COUNT>
0

> <PUBCHEM_COMPONENT_COUNT>
1

> <PUBCHEM_CACTVS_TAUTO_COUNT>
5

> <PUBCHEM_CONFORMER_ID>
00A076D900000001

> <PUBCHEM_MMFF94_ENERGY>
66.4802

> <PUBCHEM_FEATURE_SELFOVERLAP>
45.82

> <PUBCHEM_SHAPE_FINGERPRINT>
11543360 7 14418132945948001203
116883 192 18410564102811764781
12202030 40 18060127718020267538
12553582 1 18409171012678474386
13140716 1 18265042553100543529
13296908 3 18413100654329683552
13533116 47 18057892540374031467
13583140 156 15123502623330436219
14022347 108 18116706318537815633
14115302 16 18117845391409476836
14252887 29 18338799034347842619
14790565 3 17905618700377909644
16945 1 18263076781171631777
18981168 100 9871478603380846069
19591789 44 17690561884169445481
19766037 51 18262249901061597511
20600515 1 18047445882445193672
20645476 183 17461444611500856917
20645477 70 18120079831071125895
20871998 22 18410294743568381545
20871999 31 18261681380451041654
22802520 49 18269551646254712288
2334 1 18336256911930149817
23557571 272 18410286987495748504
23559900 14 18267016155963058426
2748010 2 18337657659658170144
6049 1 18409448093982463705
7364860 26 18196093459034305088
81228 2 18334849481386406897
8809292 202 18267863878610363702
9709674 26 18338223977177122927

> <PUBCHEM_SHAPE_MULTIPOLES>
336.75
6.39
2.97
1.14
0.45
0.51
-0.05
-3.95
0.45
-0.85
0.46
-0.03
-0.14
1.13

> <PUBCHEM_SHAPE_SELFOVERLAP>
694.341

> <PUBCHEM_SHAPE_VOLUME>
194.2

> <PUBCHEM_COORDINATE_TYPE>
2
5
10

$$$$
