10527469
  -OEChem-03292013303D

 56 61  0     1  0  0  0  0  0999 V2000
   -4.2396   -2.2535    0.3424 S   0  0  0  0  0  0  0  0  0  0  0  0
    6.7648   -2.0178   -1.3155 O   0  0  0  0  0  0  0  0  0  0  0  0
   -1.3970   -1.2381    0.9445 O   0  0  0  0  0  0  0  0  0  0  0  0
   -2.6118    3.2360    0.2446 O   0  0  0  0  0  0  0  0  0  0  0  0
    1.6080    1.9197   -0.0379 N   0  0  2  0  0  0  0  0  0  0  0  0
   -1.9377    1.0184    0.6120 N   0  0  0  0  0  0  0  0  0  0  0  0
   -4.1930    1.6018    0.0059 N   0  0  0  0  0  0  0  0  0  0  0  0
   -6.9504    0.3960   -0.5596 N   0  0  0  0  0  0  0  0  0  0  0  0
    3.8415    2.1861   -0.5767 C   0  0  2  0  0  0  0  0  0  0  0  0
    3.7849    1.3753    0.7349 C   0  0  1  0  0  0  0  0  0  0  0  0
    2.4721    1.9654   -1.2179 C   0  0  0  0  0  0  0  0  0  0  0  0
    2.2938    1.0223    0.8956 C   0  0  0  0  0  0  0  0  0  0  0  0
    5.0221    1.8610   -1.4843 C   0  0  0  0  0  0  0  0  0  0  0  0
    4.6573    0.1416    0.7968 C   0  0  0  0  0  0  0  0  0  0  0  0
    5.2301    0.3612   -1.6597 C   0  0  0  0  0  0  0  0  0  0  0  0
    5.3446   -0.3370   -0.3318 C   0  0  0  0  0  0  0  0  0  0  0  0
    0.2601    1.4700   -0.3530 C   0  0  0  0  0  0  0  0  0  0  0  0
    4.7799   -0.5485    2.0148 C   0  0  0  0  0  0  0  0  0  0  0  0
    6.1111   -1.5079   -0.2318 C   0  0  0  0  0  0  0  0  0  0  0  0
   -0.5934    1.4337    0.9062 C   0  0  0  0  0  0  0  0  0  0  0  0
    5.5570   -1.7026    2.1067 C   0  0  0  0  0  0  0  0  0  0  0  0
    6.2197   -2.1842    0.9823 C   0  0  0  0  0  0  0  0  0  0  0  0
   -2.2324   -0.3805    0.6647 C   0  0  0  0  0  0  0  0  0  0  0  0
   -2.8988    2.0358    0.2840 C   0  0  0  0  0  0  0  0  0  0  0  0
   -3.6082   -0.6811    0.3551 C   0  0  0  0  0  0  0  0  0  0  0  0
    6.0509   -2.9538   -2.1190 C   0  0  0  0  0  0  0  0  0  0  0  0
   -4.5441    0.2662    0.0407 C   0  0  0  0  0  0  0  0  0  0  0  0
   -5.8259   -0.2947   -0.2223 C   0  0  0  0  0  0  0  0  0  0  0  0
   -5.8077   -1.6867   -0.0922 C   0  0  0  0  0  0  0  0  0  0  0  0
   -6.9774   -2.4272   -0.3116 C   0  0  0  0  0  0  0  0  0  0  0  0
   -8.1262   -1.7267   -0.6557 C   0  0  0  0  0  0  0  0  0  0  0  0
   -8.0544   -0.3503   -0.7623 C   0  0  0  0  0  0  0  0  0  0  0  0
    3.9078    3.2526   -0.3132 H   0  0  0  0  0  0  0  0  0  0  0  0
    4.0983    2.0469    1.5469 H   0  0  0  0  0  0  0  0  0  0  0  0
    2.2069    2.7927   -1.8845 H   0  0  0  0  0  0  0  0  0  0  0  0
    2.4322    1.0290   -1.7868 H   0  0  0  0  0  0  0  0  0  0  0  0
    2.1069   -0.0314    0.6469 H   0  0  0  0  0  0  0  0  0  0  0  0
    1.9826    1.1937    1.9318 H   0  0  0  0  0  0  0  0  0  0  0  0
    5.9298    2.2959   -1.0446 H   0  0  0  0  0  0  0  0  0  0  0  0
    4.8898    2.3352   -2.4638 H   0  0  0  0  0  0  0  0  0  0  0  0
    6.1419    0.2212   -2.2520 H   0  0  0  0  0  0  0  0  0  0  0  0
    4.4021   -0.0816   -2.2243 H   0  0  0  0  0  0  0  0  0  0  0  0
    0.2694    0.4813   -0.8313 H   0  0  0  0  0  0  0  0  0  0  0  0
   -0.1925    2.1616   -1.0749 H   0  0  0  0  0  0  0  0  0  0  0  0
    4.2620   -0.1893    2.9011 H   0  0  0  0  0  0  0  0  0  0  0  0
   -0.6122    2.4258    1.3741 H   0  0  0  0  0  0  0  0  0  0  0  0
   -0.1819    0.7424    1.6492 H   0  0  0  0  0  0  0  0  0  0  0  0
    5.6403   -2.2273    3.0538 H   0  0  0  0  0  0  0  0  0  0  0  0
    6.8182   -3.0880    1.0580 H   0  0  0  0  0  0  0  0  0  0  0  0
    6.6825   -3.2277   -2.9684 H   0  0  0  0  0  0  0  0  0  0  0  0
    5.1234   -2.5162   -2.5009 H   0  0  0  0  0  0  0  0  0  0  0  0
    5.8283   -3.8582   -1.5438 H   0  0  0  0  0  0  0  0  0  0  0  0
   -4.9126    2.2776   -0.2317 H   0  0  0  0  0  0  0  0  0  0  0  0
   -6.9911   -3.5081   -0.2175 H   0  0  0  0  0  0  0  0  0  0  0  0
   -9.0589   -2.2498   -0.8366 H   0  0  0  0  0  0  0  0  0  0  0  0
   -8.9401    0.2191   -1.0303 H   0  0  0  0  0  0  0  0  0  0  0  0
  1 25  1  0  0  0  0
  1 29  1  0  0  0  0
  2 19  1  0  0  0  0
  2 26  1  0  0  0  0
  3 23  2  0  0  0  0
  4 24  2  0  0  0  0
  5 11  1  0  0  0  0
  5 12  1  0  0  0  0
  5 17  1  0  0  0  0
  6 20  1  0  0  0  0
  6 23  1  0  0  0  0
  6 24  1  0  0  0  0
  7 24  1  0  0  0  0
  7 27  1  0  0  0  0
  7 53  1  0  0  0  0
  8 28  1  0  0  0  0
  8 32  2  0  0  0  0
  9 10  1  0  0  0  0
  9 11  1  0  0  0  0
  9 13  1  0  0  0  0
  9 33  1  0  0  0  0
 10 12  1  0  0  0  0
 10 14  1  0  0  0  0
 10 34  1  0  0  0  0
 11 35  1  0  0  0  0
 11 36  1  0  0  0  0
 12 37  1  0  0  0  0
 12 38  1  0  0  0  0
 13 15  1  0  0  0  0
 13 39  1  0  0  0  0
 13 40  1  0  0  0  0
 14 16  2  0  0  0  0
 14 18  1  0  0  0  0
 15 16  1  0  0  0  0
 15 41  1  0  0  0  0
 15 42  1  0  0  0  0
 16 19  1  0  0  0  0
 17 20  1  0  0  0  0
 17 43  1  0  0  0  0
 17 44  1  0  0  0  0
 18 21  2  0  0  0  0
 18 45  1  0  0  0  0
 19 22  2  0  0  0  0
 20 46  1  0  0  0  0
 20 47  1  0  0  0  0
 21 22  1  0  0  0  0
 21 48  1  0  0  0  0
 22 49  1  0  0  0  0
 23 25  1  0  0  0  0
 25 27  2  0  0  0  0
 26 50  1  0  0  0  0
 26 51  1  0  0  0  0
 26 52  1  0  0  0  0
 27 28  1  0  0  0  0
 28 29  2  0  0  0  0
 29 30  1  0  0  0  0
 30 31  2  0  0  0  0
 30 54  1  0  0  0  0
 31 32  1  0  0  0  0
 31 55  1  0  0  0  0
 32 56  1  0  0  0  0
M  END
> <PUBCHEM_COMPOUND_CID>
10527469

> <PUBCHEM_CONFORMER_RMSD>
0.8

> <PUBCHEM_CONFORMER_DIVERSEORDER>
1
32
6
36
51
40
25
37
52
16
21
31
10
18
39
27
49
22
12
35
46
9
44
8
34
13
41
47
24
26
50
17
48
33
11
38
14
29
43
23
15
42
20
2
45
5
19
28
3
7
4
30

> <PUBCHEM_MMFF94_PARTIAL_CHARGES>
37
1 -0.08
10 0.14
11 0.27
12 0.27
14 -0.14
15 0.14
16 -0.14
17 0.27
18 -0.15
19 0.08
2 -0.36
20 0.3
21 -0.15
22 -0.15
23 0.71
24 0.69
25 -0.05
26 0.28
27 0.06
28 0.26
29 0.04
3 -0.57
30 -0.15
31 -0.15
32 0.16
4 -0.57
45 0.15
48 0.15
49 0.15
5 -0.81
53 0.37
54 0.15
55 0.15
56 0.15
6 -0.42
7 -0.49
8 -0.57

> <PUBCHEM_EFFECTIVE_ROTOR_COUNT>
5

> <PUBCHEM_PHARMACOPHORE_FEATURES>
12
1 2 acceptor
1 3 acceptor
1 4 acceptor
1 5 cation
1 7 donor
1 8 acceptor
5 1 25 27 28 29 rings
5 5 9 10 11 12 rings
6 14 16 18 19 21 22 rings
6 6 7 23 24 25 27 rings
6 8 28 29 30 31 32 rings
6 9 10 13 14 15 16 rings

> <PUBCHEM_HEAVY_ATOM_COUNT>
32

> <PUBCHEM_ATOM_DEF_STEREO_COUNT>
2

> <PUBCHEM_ATOM_UDEF_STEREO_COUNT>
0

> <PUBCHEM_BOND_DEF_STEREO_COUNT>
0

> <PUBCHEM_BOND_UDEF_STEREO_COUNT>
0

> <PUBCHEM_ISOTOPIC_ATOM_COUNT>
0

> <PUBCHEM_COMPONENT_COUNT>
1

> <PUBCHEM_CACTVS_TAUTO_COUNT>
3

> <PUBCHEM_CONFORMER_ID>
00A0A2ED00000001

> <PUBCHEM_MMFF94_ENERGY>
86.8041

> <PUBCHEM_FEATURE_SELFOVERLAP>
61.226

> <PUBCHEM_SHAPE_FINGERPRINT>
10 15 10303815397675436029
117089 54 17915193317158889822
11719270 70 18202846565026310751
1200032 147 13901612096646810650
12047536 79 16702299040544460680
12166972 35 17967531302874297021
125118 31 9511195048781875783
12522641 33 17896329181414202460
12539765 74 12396842382641664241
12661589 4 18201727254152804894
12664476 115 9727643804182340120
13383661 66 16985206539895725566
13533116 47 18334573585609143496
1361 4 18338517576640983199
13782708 43 17846214492779323657
13914758 101 18113331999626105285
14068700 675 18409164402887582993
14118638 360 18411143562836360148
14251757 52 11674877796797623254
14347332 77 18335135375931957089
14400156 188 13541648400546350916
14461889 52 12247675010817243221
14537116 161 14345788366105804527
15001296 14 18115300214974806826
15082195 135 18042696164033122220
15183329 4 18333452053810225513
15188451 53 18131631175272300608
15475509 35 17418093175285720246
15510800 12 18060143098467148590
1577012 14 18408328787156869209
16126227 98 8646768911556345581
18393751 57 10591775298715947461
19304671 126 12973896892725835814
19377110 9 11959720564934700180
19958102 18 17895184537124866975
20028762 73 18411134710898090354
2026 5 18201158741505332358
20691028 202 9151184151190571131
21033648 29 11747229008428502212
21130935 74 18060139868699045483
21792934 111 13182753524225259483
21814621 53 17130982058435498970
23522609 53 18193870143576388465
23559900 14 18265892639478657425
3004659 81 18260546740512702360
3383291 50 18341889701858425779
3525247 18 12254765800377560038
4073 2 17533219897327902200
42767 46 18261103050478904786
44317340 157 11386359344678987472
504579 68 17894915130758266910
5085150 59 17917710232276254855
5109719 28 9439117710562822127
5372103 7 14129926772797430998
5718773 13 18272090482790425319
5951187 136 11097867285472254938
59682541 52 17167578285137933626
6438161 24 18261101976889405178
6441014 3 17264139359243699870
68570916 9 10087638187345537589
86090 222 16916247502272159494
960060 61 17240491291091460768
9831232 110 18339359665214453598

> <PUBCHEM_SHAPE_MULTIPOLES>
624.86
24.3
3.18
1.53
21.15
0.14
-0.07
16.82
-5.98
-1.76
-0.58
-3.56
0.63
-0.62

> <PUBCHEM_SHAPE_SELFOVERLAP>
1378.556

> <PUBCHEM_SHAPE_VOLUME>
338.2

> <PUBCHEM_COORDINATE_TYPE>
2
5
10

$$$$
