10525258
  -OEChem-03292013303D

 49 52  0     1  0  0  0  0  0999 V2000
    2.8863    0.6399   -0.6341 O   0  0  0  0  0  0  0  0  0  0  0  0
    2.1453   -1.5550   -0.9116 O   0  0  0  0  0  0  0  0  0  0  0  0
    6.6398   -0.6270    0.4489 O   0  0  0  0  0  0  0  0  0  0  0  0
    5.8111    2.0794    1.0355 O   0  0  0  0  0  0  0  0  0  0  0  0
    4.3454   -2.4678    0.6161 O   0  0  0  0  0  0  0  0  0  0  0  0
    2.0223    3.2427   -0.4472 O   0  0  0  0  0  0  0  0  0  0  0  0
   -3.2140   -2.1297    0.3073 O   0  0  0  0  0  0  0  0  0  0  0  0
   -1.8244    1.5919   -0.6725 O   0  0  0  0  0  0  0  0  0  0  0  0
   -4.2477    2.5742   -0.3492 O   0  0  0  0  0  0  0  0  0  0  0  0
    5.2828   -0.2450    0.6786 C   0  0  1  0  0  0  0  0  0  0  0  0
    5.1036    1.1881    0.1774 C   0  0  1  0  0  0  0  0  0  0  0  0
    4.3512   -1.2088   -0.0565 C   0  0  2  0  0  0  0  0  0  0  0  0
    3.6230    1.5749    0.1560 C   0  0  1  0  0  0  0  0  0  0  0  0
    2.9181   -0.6784   -0.0923 C   0  0  1  0  0  0  0  0  0  0  0  0
    3.4094    2.9583   -0.4504 C   0  0  0  0  0  0  0  0  0  0  0  0
    0.8220   -1.6739   -0.6153 C   0  0  0  0  0  0  0  0  0  0  0  0
   -0.0031   -0.5496   -0.6521 C   0  0  0  0  0  0  0  0  0  0  0  0
   -1.3600   -0.6806   -0.3458 C   0  0  0  0  0  0  0  0  0  0  0  0
    0.2939   -2.9194   -0.2743 C   0  0  0  0  0  0  0  0  0  0  0  0
   -1.8929   -1.9235   -0.0050 C   0  0  0  0  0  0  0  0  0  0  0  0
   -1.0618   -3.0452    0.0305 C   0  0  0  0  0  0  0  0  0  0  0  0
   -2.2543    0.4868   -0.3766 C   0  0  0  0  0  0  0  0  0  0  0  0
   -3.6653    0.2452   -0.0386 C   0  0  0  0  0  0  0  0  0  0  0  0
   -4.0640   -1.0516    0.2842 C   0  0  0  0  0  0  0  0  0  0  0  0
   -4.5901    1.2926   -0.0404 C   0  0  0  0  0  0  0  0  0  0  0  0
   -5.3988   -1.3035    0.6081 C   0  0  0  0  0  0  0  0  0  0  0  0
   -5.9221    1.0347    0.2840 C   0  0  0  0  0  0  0  0  0  0  0  0
   -6.3259   -0.2608    0.6077 C   0  0  0  0  0  0  0  0  0  0  0  0
   -3.8301    3.4113    0.7276 C   0  0  0  0  0  0  0  0  0  0  0  0
    5.1212   -0.3093    1.7617 H   0  0  0  0  0  0  0  0  0  0  0  0
    5.5409    1.2811   -0.8243 H   0  0  0  0  0  0  0  0  0  0  0  0
    4.7253   -1.3889   -1.0721 H   0  0  0  0  0  0  0  0  0  0  0  0
    3.2020    1.5812    1.1707 H   0  0  0  0  0  0  0  0  0  0  0  0
    2.5015   -0.6718    0.9261 H   0  0  0  0  0  0  0  0  0  0  0  0
    3.7568    2.9996   -1.4881 H   0  0  0  0  0  0  0  0  0  0  0  0
    3.9215    3.7353    0.1241 H   0  0  0  0  0  0  0  0  0  0  0  0
    7.2050    0.0105    0.9180 H   0  0  0  0  0  0  0  0  0  0  0  0
    5.4257    2.0085    1.9254 H   0  0  0  0  0  0  0  0  0  0  0  0
    3.7363   -3.0528    0.1339 H   0  0  0  0  0  0  0  0  0  0  0  0
    1.5798    2.5540   -0.9720 H   0  0  0  0  0  0  0  0  0  0  0  0
    0.3993    0.4176   -0.9349 H   0  0  0  0  0  0  0  0  0  0  0  0
    0.9351   -3.7963   -0.2441 H   0  0  0  0  0  0  0  0  0  0  0  0
   -1.4629   -4.0201    0.2949 H   0  0  0  0  0  0  0  0  0  0  0  0
   -5.7240   -2.3090    0.8617 H   0  0  0  0  0  0  0  0  0  0  0  0
   -6.6537    1.8384    0.2861 H   0  0  0  0  0  0  0  0  0  0  0  0
   -7.3638   -0.4582    0.8596 H   0  0  0  0  0  0  0  0  0  0  0  0
   -3.0764    2.9188    1.3505 H   0  0  0  0  0  0  0  0  0  0  0  0
   -4.6935    3.6873    1.3408 H   0  0  0  0  0  0  0  0  0  0  0  0
   -3.3958    4.3217    0.3056 H   0  0  0  0  0  0  0  0  0  0  0  0
  1 13  1  0  0  0  0
  1 14  1  0  0  0  0
  2 14  1  0  0  0  0
  2 16  1  0  0  0  0
  3 10  1  0  0  0  0
  3 37  1  0  0  0  0
  4 11  1  0  0  0  0
  4 38  1  0  0  0  0
  5 12  1  0  0  0  0
  5 39  1  0  0  0  0
  6 15  1  0  0  0  0
  6 40  1  0  0  0  0
  7 20  1  0  0  0  0
  7 24  1  0  0  0  0
  8 22  2  0  0  0  0
  9 25  1  0  0  0  0
  9 29  1  0  0  0  0
 10 11  1  0  0  0  0
 10 12  1  0  0  0  0
 10 30  1  0  0  0  0
 11 13  1  0  0  0  0
 11 31  1  0  0  0  0
 12 14  1  0  0  0  0
 12 32  1  0  0  0  0
 13 15  1  0  0  0  0
 13 33  1  0  0  0  0
 14 34  1  0  0  0  0
 15 35  1  0  0  0  0
 15 36  1  0  0  0  0
 16 17  2  0  0  0  0
 16 19  1  0  0  0  0
 17 18  1  0  0  0  0
 17 41  1  0  0  0  0
 18 20  2  0  0  0  0
 18 22  1  0  0  0  0
 19 21  2  0  0  0  0
 19 42  1  0  0  0  0
 20 21  1  0  0  0  0
 21 43  1  0  0  0  0
 22 23  1  0  0  0  0
 23 24  2  0  0  0  0
 23 25  1  0  0  0  0
 24 26  1  0  0  0  0
 25 27  2  0  0  0  0
 26 28  2  0  0  0  0
 26 44  1  0  0  0  0
 27 28  1  0  0  0  0
 27 45  1  0  0  0  0
 28 46  1  0  0  0  0
 29 47  1  0  0  0  0
 29 48  1  0  0  0  0
 29 49  1  0  0  0  0
M  END
> <PUBCHEM_COMPOUND_CID>
10525258

> <PUBCHEM_CONFORMER_RMSD>
0.8

> <PUBCHEM_CONFORMER_DIVERSEORDER>
1
17
81
8
93
82
21
83
3
6
23
5
12
35
58
99
11
76
96
49
92
73
46
80
44
94
47
48
36
57
26
10
18
63
86
64
87
60
90
74
65
4
42
72
28
102
43
70
84
88
7
67
29
31
19
9
105
95
61
71
13
24
2
40
101
98
25
97
53
14
91
45
37
56
39
104
77
41
27
16
22
79
89
51
55
103
50
62
34
78
38
20
68
66
30
54
75
59
100
15
85
69
33
32
52

> <PUBCHEM_MMFF94_PARTIAL_CHARGES>
39
1 -0.56
10 0.28
11 0.28
12 0.28
13 0.28
14 0.56
15 0.28
16 0.08
17 -0.15
18 0.09
19 -0.15
2 -0.36
20 0.08
21 -0.15
22 0.4
23 0.09
24 0.08
25 0.08
26 -0.15
27 -0.15
28 -0.15
29 0.28
3 -0.68
37 0.4
38 0.4
39 0.4
4 -0.68
40 0.4
41 0.15
42 0.15
43 0.15
44 0.15
45 0.15
46 0.15
5 -0.68
6 -0.68
7 -0.17
8 -0.57
9 -0.36

> <PUBCHEM_EFFECTIVE_ROTOR_COUNT>
5.2

> <PUBCHEM_PHARMACOPHORE_FEATURES>
17
1 1 acceptor
1 2 acceptor
1 3 acceptor
1 3 donor
1 4 acceptor
1 4 donor
1 5 acceptor
1 5 donor
1 6 acceptor
1 6 donor
1 7 acceptor
1 8 acceptor
1 9 acceptor
6 1 10 11 12 13 14 rings
6 16 17 18 19 20 21 rings
6 23 24 25 26 27 28 rings
6 7 18 20 22 23 24 rings

> <PUBCHEM_HEAVY_ATOM_COUNT>
29

> <PUBCHEM_ATOM_DEF_STEREO_COUNT>
5

> <PUBCHEM_ATOM_UDEF_STEREO_COUNT>
0

> <PUBCHEM_BOND_DEF_STEREO_COUNT>
0

> <PUBCHEM_BOND_UDEF_STEREO_COUNT>
0

> <PUBCHEM_ISOTOPIC_ATOM_COUNT>
0

> <PUBCHEM_COMPONENT_COUNT>
1

> <PUBCHEM_CACTVS_TAUTO_COUNT>
1

> <PUBCHEM_CONFORMER_ID>
00A09A4A00000001

> <PUBCHEM_MMFF94_ENERGY>
107.495

> <PUBCHEM_FEATURE_SELFOVERLAP>
86.408

> <PUBCHEM_SHAPE_FINGERPRINT>
10 15 18334860540747534258
10939801 23 18337668745924219032
11135609 149 15552783737335651388
12107183 9 18336536137188354282
12596602 18 17240767345318121913
12633257 1 18407755945872140212
12788726 201 17632591452049774296
12925494 130 18267582399888078697
12978246 48 18410859892677420857
13140716 1 18191594249180230055
13402501 40 18411981360040545529
13785724 45 17835801890148160666
14251764 38 18410300206909609561
14341114 176 18409450297659207116
14466204 15 18337107852394059690
14790565 3 18411421695768494339
15238133 3 18333736836502513670
15320467 1 18267304407470585297
15419008 145 18262505997783522984
16760501 71 18410575114923054802
17844677 252 18411144614543366539
1813 80 16587740941220800406
20715895 44 18340769239131603745
21033648 29 17773860052467285818
21033650 10 13686035188624862931
21315763 129 18410857655109885087
21315764 268 18334574633812889069
21792934 111 18260556619918716969
21859007 373 17532638067188904069
23227448 37 18341895242186389495
23559900 14 18053666871758459791
245318 6 17752221727139538909
2838139 119 18273206491472020262
335352 9 18411419514706005646
338550 245 18335143128342664956
350125 39 18409732871657091229
3680242 22 18409737235354322704
392239 28 18411429397388641905
4073 2 18041002903346583162
4144715 1 18336275543509212747
437795 96 17900256408329395061
5081480 168 17342696329594217102
5104073 3 18190187793535424547
6371009 1 18411129238982758469
7808743 9 18341046436094164314
9981440 41 18334583421580286347

> <PUBCHEM_SHAPE_MULTIPOLES>
543.98
15.41
3.77
0.81
3.83
1.41
0.02
5.02
4.28
0.14
0.03
0.18
0.06
0.08

> <PUBCHEM_SHAPE_SELFOVERLAP>
1193.676

> <PUBCHEM_SHAPE_VOLUME>
290.4

> <PUBCHEM_COORDINATE_TYPE>
2
5
10

$$$$
