10529169
  -OEChem-03292013303D

 75 80  0     1  0  0  0  0  0999 V2000
    3.8844    1.4538   -0.0195 O   0  0  0  0  0  0  0  0  0  0  0  0
    5.3594    0.2088    1.3121 O   0  0  0  0  0  0  0  0  0  0  0  0
   -5.2100    1.2356   -0.8359 O   0  0  0  0  0  0  0  0  0  0  0  0
   -5.3899   -1.5884   -1.2405 O   0  0  0  0  0  0  0  0  0  0  0  0
   -5.0263    1.8443    1.8362 O   0  0  0  0  0  0  0  0  0  0  0  0
   -3.5115    3.2325   -0.7410 O   0  0  0  0  0  0  0  0  0  0  0  0
   -5.2668   -2.9426    1.1778 O   0  0  0  0  0  0  0  0  0  0  0  0
   -6.4616   -0.4162    1.0362 O   0  0  0  0  0  0  0  0  0  0  0  0
    1.1817   -0.5777   -0.4573 C   0  0  1  0  0  0  0  0  0  0  0  0
    0.4106    0.6070    0.1734 C   0  0  2  0  0  0  0  0  0  0  0  0
    2.5307   -0.4736    0.3159 C   0  0  2  0  0  0  0  0  0  0  0  0
   -0.9792    0.8185   -0.4359 C   0  0  1  0  0  0  0  0  0  0  0  0
   -1.8253   -0.4803   -0.2208 C   0  0  1  0  0  0  0  0  0  0  0  0
    2.6905    1.0261    0.6228 C   0  0  2  0  0  0  0  0  0  0  0  0
   -3.2917   -0.3369   -0.8171 C   0  0  2  0  0  0  0  0  0  0  0  0
    1.4321    1.7384    0.1263 C   0  0  0  0  0  0  0  0  0  0  0  0
    0.3793   -1.8508   -0.1541 C   0  0  0  0  0  0  0  0  0  0  0  0
   -1.0649   -1.7573   -0.6818 C   0  0  0  0  0  0  0  0  0  0  0  0
    3.8458   -0.8496   -0.3844 C   0  0  1  0  0  0  0  0  0  0  0  0
   -3.9856    0.9254   -0.1688 C   0  0  1  0  0  0  0  0  0  0  0  0
   -1.6653    2.0368    0.1830 C   0  0  0  0  0  0  0  0  0  0  0  0
    4.7957    0.3129   -0.0018 C   0  0  1  0  0  0  0  0  0  0  0  0
    1.3638   -0.4424   -1.9900 C   0  0  0  0  0  0  0  0  0  0  0  0
   -4.1577   -1.6138   -0.5089 C   0  0  1  0  0  0  0  0  0  0  0  0
   -3.0893    2.1611   -0.3041 C   0  0  0  0  0  0  0  0  0  0  0  0
   -4.3215    0.7070    1.3319 C   0  0  2  0  0  0  0  0  0  0  0  0
   -3.2247   -0.1807   -2.3644 C   0  0  0  0  0  0  0  0  0  0  0  0
   -4.4625   -1.7798    0.9892 C   0  0  1  0  0  0  0  0  0  0  0  0
    4.2482   -2.2768   -0.0501 C   0  0  0  0  0  0  0  0  0  0  0  0
   -5.1549   -0.5554    1.5938 C   0  0  2  0  0  0  0  0  0  0  0  0
    5.8639    0.6503   -1.0581 C   0  0  0  0  0  0  0  0  0  0  0  0
    7.1118   -0.2129   -0.9669 C   0  0  0  0  0  0  0  0  0  0  0  0
    6.5499   -0.5651    1.4614 C   0  0  0  0  0  0  0  0  0  0  0  0
    7.5940   -0.1972    0.4515 C   0  0  0  0  0  0  0  0  0  0  0  0
    8.8466    0.1386    0.7898 C   0  0  0  0  0  0  0  0  0  0  0  0
    0.2490    0.3853    1.2425 H   0  0  0  0  0  0  0  0  0  0  0  0
    2.4380   -1.0001    1.2760 H   0  0  0  0  0  0  0  0  0  0  0  0
   -0.8730    1.0165   -1.5065 H   0  0  0  0  0  0  0  0  0  0  0  0
   -1.9205   -0.5962    0.8667 H   0  0  0  0  0  0  0  0  0  0  0  0
    2.8055    1.1801    1.7036 H   0  0  0  0  0  0  0  0  0  0  0  0
    1.5613    2.1552   -0.8778 H   0  0  0  0  0  0  0  0  0  0  0  0
    1.1638    2.5651    0.7920 H   0  0  0  0  0  0  0  0  0  0  0  0
    0.3412   -2.0243    0.9293 H   0  0  0  0  0  0  0  0  0  0  0  0
    0.8720   -2.7286   -0.5890 H   0  0  0  0  0  0  0  0  0  0  0  0
   -1.0497   -1.8217   -1.7734 H   0  0  0  0  0  0  0  0  0  0  0  0
   -1.5919   -2.6503   -0.3291 H   0  0  0  0  0  0  0  0  0  0  0  0
    3.7237   -0.8065   -1.4697 H   0  0  0  0  0  0  0  0  0  0  0  0
   -1.1298    2.9511   -0.0975 H   0  0  0  0  0  0  0  0  0  0  0  0
   -1.6733    1.9875    1.2769 H   0  0  0  0  0  0  0  0  0  0  0  0
    1.8381   -1.3400   -2.4035 H   0  0  0  0  0  0  0  0  0  0  0  0
    0.4187   -0.3278   -2.5266 H   0  0  0  0  0  0  0  0  0  0  0  0
    1.9831    0.4183   -2.2616 H   0  0  0  0  0  0  0  0  0  0  0  0
   -3.6554   -2.5158   -0.8705 H   0  0  0  0  0  0  0  0  0  0  0  0
   -3.4052    0.6276    1.9265 H   0  0  0  0  0  0  0  0  0  0  0  0
   -2.8008   -1.0699   -2.8406 H   0  0  0  0  0  0  0  0  0  0  0  0
   -4.2185   -0.0351   -2.8018 H   0  0  0  0  0  0  0  0  0  0  0  0
   -2.6287    0.6825   -2.6719 H   0  0  0  0  0  0  0  0  0  0  0  0
   -3.5261   -1.9622    1.5275 H   0  0  0  0  0  0  0  0  0  0  0  0
    5.2052   -2.5418   -0.5053 H   0  0  0  0  0  0  0  0  0  0  0  0
    4.3120   -2.4417    1.0297 H   0  0  0  0  0  0  0  0  0  0  0  0
    3.5010   -2.9787   -0.4368 H   0  0  0  0  0  0  0  0  0  0  0  0
   -5.3039   -0.6971    2.6705 H   0  0  0  0  0  0  0  0  0  0  0  0
    6.1665    1.6992   -0.9222 H   0  0  0  0  0  0  0  0  0  0  0  0
    5.4402    0.6044   -2.0688 H   0  0  0  0  0  0  0  0  0  0  0  0
   -5.6494    1.9496   -0.3430 H   0  0  0  0  0  0  0  0  0  0  0  0
    7.8725    0.1690   -1.6577 H   0  0  0  0  0  0  0  0  0  0  0  0
    6.8939   -1.2409   -1.2736 H   0  0  0  0  0  0  0  0  0  0  0  0
   -5.8821   -0.7933   -0.9766 H   0  0  0  0  0  0  0  0  0  0  0  0
    6.3222   -1.6309    1.3948 H   0  0  0  0  0  0  0  0  0  0  0  0
    6.9099   -0.3927    2.4818 H   0  0  0  0  0  0  0  0  0  0  0  0
   -4.4216    2.6049    1.8130 H   0  0  0  0  0  0  0  0  0  0  0  0
   -5.4371   -3.0292    2.1312 H   0  0  0  0  0  0  0  0  0  0  0  0
   -6.8477    0.3981    1.4016 H   0  0  0  0  0  0  0  0  0  0  0  0
    9.1669    0.1494    1.8261 H   0  0  0  0  0  0  0  0  0  0  0  0
    9.5801    0.4089    0.0375 H   0  0  0  0  0  0  0  0  0  0  0  0
  1 14  1  0  0  0  0
  1 22  1  0  0  0  0
  2 22  1  0  0  0  0
  2 33  1  0  0  0  0
  3 20  1  0  0  0  0
  3 65  1  0  0  0  0
  4 24  1  0  0  0  0
  4 68  1  0  0  0  0
  5 26  1  0  0  0  0
  5 71  1  0  0  0  0
  6 25  2  0  0  0  0
  7 28  1  0  0  0  0
  7 72  1  0  0  0  0
  8 30  1  0  0  0  0
  8 73  1  0  0  0  0
  9 10  1  0  0  0  0
  9 11  1  0  0  0  0
  9 17  1  0  0  0  0
  9 23  1  0  0  0  0
 10 12  1  0  0  0  0
 10 16  1  0  0  0  0
 10 36  1  0  0  0  0
 11 14  1  0  0  0  0
 11 19  1  0  0  0  0
 11 37  1  0  0  0  0
 12 13  1  0  0  0  0
 12 21  1  0  0  0  0
 12 38  1  0  0  0  0
 13 15  1  0  0  0  0
 13 18  1  0  0  0  0
 13 39  1  0  0  0  0
 14 16  1  0  0  0  0
 14 40  1  0  0  0  0
 15 20  1  0  0  0  0
 15 24  1  0  0  0  0
 15 27  1  0  0  0  0
 16 41  1  0  0  0  0
 16 42  1  0  0  0  0
 17 18  1  0  0  0  0
 17 43  1  0  0  0  0
 17 44  1  0  0  0  0
 18 45  1  0  0  0  0
 18 46  1  0  0  0  0
 19 22  1  0  0  0  0
 19 29  1  0  0  0  0
 19 47  1  0  0  0  0
 20 25  1  0  0  0  0
 20 26  1  0  0  0  0
 21 25  1  0  0  0  0
 21 48  1  0  0  0  0
 21 49  1  0  0  0  0
 22 31  1  0  0  0  0
 23 50  1  0  0  0  0
 23 51  1  0  0  0  0
 23 52  1  0  0  0  0
 24 28  1  0  0  0  0
 24 53  1  0  0  0  0
 26 30  1  0  0  0  0
 26 54  1  0  0  0  0
 27 55  1  0  0  0  0
 27 56  1  0  0  0  0
 27 57  1  0  0  0  0
 28 30  1  0  0  0  0
 28 58  1  0  0  0  0
 29 59  1  0  0  0  0
 29 60  1  0  0  0  0
 29 61  1  0  0  0  0
 30 62  1  0  0  0  0
 31 32  1  0  0  0  0
 31 63  1  0  0  0  0
 31 64  1  0  0  0  0
 32 34  1  0  0  0  0
 32 66  1  0  0  0  0
 32 67  1  0  0  0  0
 33 34  1  0  0  0  0
 33 69  1  0  0  0  0
 33 70  1  0  0  0  0
 34 35  2  0  0  0  0
 35 74  1  0  0  0  0
 35 75  1  0  0  0  0
M  END
> <PUBCHEM_COMPOUND_CID>
10529169

> <PUBCHEM_CONFORMER_RMSD>
0.8

> <PUBCHEM_CONFORMER_DIVERSEORDER>
1

> <PUBCHEM_MMFF94_PARTIAL_CHARGES>
28
1 -0.56
14 0.28
2 -0.56
20 0.34
21 0.06
22 0.56
24 0.28
25 0.45
26 0.28
28 0.28
3 -0.68
30 0.28
32 0.14
33 0.42
34 -0.28
35 -0.3
4 -0.68
5 -0.68
6 -0.57
65 0.4
68 0.4
7 -0.68
71 0.4
72 0.4
73 0.4
74 0.15
75 0.15
8 -0.68

> <PUBCHEM_EFFECTIVE_ROTOR_COUNT>
2.8

> <PUBCHEM_PHARMACOPHORE_FEATURES>
19
1 1 acceptor
1 2 acceptor
1 3 acceptor
1 3 donor
1 4 acceptor
1 4 donor
1 5 acceptor
1 5 donor
1 6 acceptor
1 7 acceptor
1 7 donor
1 8 acceptor
1 8 donor
5 1 11 14 19 22 rings
5 9 10 11 14 16 rings
6 12 13 15 20 21 25 rings
6 15 20 24 26 28 30 rings
6 2 22 31 32 33 34 rings
6 9 10 12 13 17 18 rings

> <PUBCHEM_HEAVY_ATOM_COUNT>
35

> <PUBCHEM_ATOM_DEF_STEREO_COUNT>
14

> <PUBCHEM_ATOM_UDEF_STEREO_COUNT>
0

> <PUBCHEM_BOND_DEF_STEREO_COUNT>
0

> <PUBCHEM_BOND_UDEF_STEREO_COUNT>
0

> <PUBCHEM_ISOTOPIC_ATOM_COUNT>
0

> <PUBCHEM_COMPONENT_COUNT>
1

> <PUBCHEM_CACTVS_TAUTO_COUNT>
2

> <PUBCHEM_CONFORMER_ID>
00A0A99100000001

> <PUBCHEM_MMFF94_ENERGY>
142.56

> <PUBCHEM_FEATURE_SELFOVERLAP>
96.941

> <PUBCHEM_SHAPE_FINGERPRINT>
10 15 18412823608197653872
10290309 65 18270685246896336679
10299344 5 17821730542277304874
11007060 377 16878224263905626152
11315181 36 17530963596594049813
11578080 2 17024854975809278511
11646440 116 17775568641833698840
11963148 33 18334570249010989450
12107698 1 18259706726276762416
12166972 35 17386009511390762316
12236239 1 17748827423765884292
12422481 6 17917720067133508423
12596602 18 17313105258913061904
13224815 77 18335708234770101581
13782708 43 17385999551688539682
14251764 18 18411418445338165788
14849402 71 18058163007402726288
14856354 85 18335708277261313151
15021287 119 18060413659826659420
15064981 113 13480227550018145555
15183329 4 18410853261853960246
15799311 1 18260563220444869346
15876981 60 16660646224047709029
17093844 174 17989485212632567913
17349148 13 17240773881973470381
18608769 82 18410295852007833410
18927931 339 18409730673129526071
19377110 9 18187365411484624170
20105231 36 18271255980042589862
21033648 29 18129929126840613688
21130935 74 17989204833543002334
21236236 1 18413670210106303999
21267235 1 18411702122820722654
21756936 100 16343707599917218273
23522609 53 18117307863347414460
23559900 14 18412254043298484928
23569914 152 12328398886981062706
23569943 247 15721056304212373952
24771293 8 17773862264681658136
32027 91 17902508182283468714
3383291 50 18338514244205804554
350125 39 18411704300364165668
392239 28 18334866034437772481
4015057 19 13840561690900040718
4073 2 18261956254416803450
4093350 32 16343711976494187358
4169191 19 14763764452431593298
5104073 3 18342175506024449394
7226269 152 17775565325691574392
9953998 17 18343023285387200097

> <PUBCHEM_SHAPE_MULTIPOLES>
673.33
19.64
2.32
1.51
26.92
0.19
-0.17
-1.85
5.44
-3.3
0.1
-1.09
-0.14
0.27

> <PUBCHEM_SHAPE_SELFOVERLAP>
1463.647

> <PUBCHEM_SHAPE_VOLUME>
362

> <PUBCHEM_COORDINATE_TYPE>
2
5
10

$$$$
