10538309
  -OEChem-03292013303D

 28 29  0     1  0  0  0  0  0999 V2000
   -1.4567    0.5590   -1.0314 O   0  0  0  0  0  0  0  0  0  0  0  0
   -3.9293   -1.0768   -0.2578 O   0  0  0  0  0  0  0  0  0  0  0  0
   -1.8864   -2.3449    1.0325 O   0  0  0  0  0  0  0  0  0  0  0  0
   -1.8986    3.2132   -0.2820 O   0  0  0  0  0  0  0  0  0  0  0  0
    2.5107   -1.4862   -0.3627 O   0  0  0  0  0  0  0  0  0  0  0  0
    4.7792    0.0113    0.2099 O   0  0  0  0  0  0  0  0  0  0  0  0
    1.2327    0.3283   -0.0607 N   0  0  0  0  0  0  0  0  0  0  0  0
    1.1917   -1.8953   -0.5968 N   0  0  0  0  0  0  0  0  0  0  0  0
    3.5537    1.9192    0.5513 N   0  0  0  0  0  0  0  0  0  0  0  0
   -3.0547   -0.2625    0.5228 C   0  0  1  0  0  0  0  0  0  0  0  0
   -1.7329   -0.9658    0.7614 C   0  0  2  0  0  0  0  0  0  0  0  0
   -2.6347    0.9527   -0.2937 C   0  0  1  0  0  0  0  0  0  0  0  0
   -0.9879   -0.7209   -0.5474 C   0  0  2  0  0  0  0  0  0  0  0  0
   -2.2775    2.1551    0.5695 C   0  0  0  0  0  0  0  0  0  0  0  0
    0.5078   -0.7706   -0.3989 C   0  0  0  0  0  0  0  0  0  0  0  0
    2.4454   -0.1647   -0.0529 C   0  0  0  0  0  0  0  0  0  0  0  0
    3.6376    0.5488    0.2371 C   0  0  0  0  0  0  0  0  0  0  0  0
   -3.5841   -0.0100    1.4464 H   0  0  0  0  0  0  0  0  0  0  0  0
   -1.2123   -0.4976    1.6061 H   0  0  0  0  0  0  0  0  0  0  0  0
   -3.3915    1.2345   -1.0346 H   0  0  0  0  0  0  0  0  0  0  0  0
   -1.2836   -1.4658   -1.2984 H   0  0  0  0  0  0  0  0  0  0  0  0
   -1.4316    1.9380    1.2295 H   0  0  0  0  0  0  0  0  0  0  0  0
   -3.1343    2.4727    1.1716 H   0  0  0  0  0  0  0  0  0  0  0  0
   -4.0802   -1.8975    0.2415 H   0  0  0  0  0  0  0  0  0  0  0  0
   -0.9972   -2.7313    1.1041 H   0  0  0  0  0  0  0  0  0  0  0  0
   -1.6774    3.9733    0.2826 H   0  0  0  0  0  0  0  0  0  0  0  0
    2.6652    2.4090    0.5816 H   0  0  0  0  0  0  0  0  0  0  0  0
    4.3880    2.4586    0.7572 H   0  0  0  0  0  0  0  0  0  0  0  0
  1 12  1  0  0  0  0
  1 13  1  0  0  0  0
  2 10  1  0  0  0  0
  2 24  1  0  0  0  0
  3 11  1  0  0  0  0
  3 25  1  0  0  0  0
  4 14  1  0  0  0  0
  4 26  1  0  0  0  0
  5  8  1  0  0  0  0
  5 16  1  0  0  0  0
  6 17  2  0  0  0  0
  7 15  1  0  0  0  0
  7 16  2  0  0  0  0
  8 15  2  0  0  0  0
  9 17  1  0  0  0  0
  9 27  1  0  0  0  0
  9 28  1  0  0  0  0
 10 11  1  0  0  0  0
 10 12  1  0  0  0  0
 10 18  1  0  0  0  0
 11 13  1  0  0  0  0
 11 19  1  0  0  0  0
 12 14  1  0  0  0  0
 12 20  1  0  0  0  0
 13 15  1  0  0  0  0
 13 21  1  0  0  0  0
 14 22  1  0  0  0  0
 14 23  1  0  0  0  0
 16 17  1  0  0  0  0
M  END
> <PUBCHEM_COMPOUND_CID>
10538309

> <PUBCHEM_CONFORMER_RMSD>
0.6

> <PUBCHEM_CONFORMER_DIVERSEORDER>
1
48
53
33
24
43
27
25
59
36
2
23
20
61
44
58
51
17
21
34
30
50
28
18
35
22
29
14
38
57
62
7
60
55
49
52
26
54
10
16
9
37
56
42
8
45
15
13
41
5
4
46
11
47
3
19
32
12
40
6
31
39

> <PUBCHEM_MMFF94_PARTIAL_CHARGES>
22
1 -0.56
10 0.28
11 0.28
12 0.28
13 0.46
14 0.28
15 0.34
16 0.39
17 0.71
2 -0.68
24 0.4
25 0.4
26 0.4
27 0.37
28 0.37
3 -0.68
4 -0.68
5 -0.02
6 -0.57
7 -0.57
8 -0.41
9 -0.8

> <PUBCHEM_EFFECTIVE_ROTOR_COUNT>
4

> <PUBCHEM_PHARMACOPHORE_FEATURES>
12
1 1 acceptor
1 2 acceptor
1 2 donor
1 3 acceptor
1 3 donor
1 4 acceptor
1 4 donor
1 6 acceptor
1 9 donor
3 7 8 15 cation
5 1 10 11 12 13 rings
5 5 7 8 15 16 rings

> <PUBCHEM_HEAVY_ATOM_COUNT>
17

> <PUBCHEM_ATOM_DEF_STEREO_COUNT>
4

> <PUBCHEM_ATOM_UDEF_STEREO_COUNT>
0

> <PUBCHEM_BOND_DEF_STEREO_COUNT>
0

> <PUBCHEM_BOND_UDEF_STEREO_COUNT>
0

> <PUBCHEM_ISOTOPIC_ATOM_COUNT>
0

> <PUBCHEM_COMPONENT_COUNT>
1

> <PUBCHEM_CACTVS_TAUTO_COUNT>
2

> <PUBCHEM_CONFORMER_ID>
00A0CD4500000001

> <PUBCHEM_MMFF94_ENERGY>
31.1654

> <PUBCHEM_FEATURE_SELFOVERLAP>
60.914

> <PUBCHEM_SHAPE_FINGERPRINT>
10366900 7 18410295856249819314
10608611 8 18340487759770086036
11615756 256 18341057345685837232
12251169 10 18113901588976506382
13024252 1 12179842801832274655
13764800 53 18409173198842838057
14026960 21 18267588103308494920
15048467 5 17275112709042570451
15219456 202 18340491067042830950
15279308 16 18341614780658183158
15775835 57 17775847934149124182
16945 1 18263099810897062135
17802600 8 18272083924628805680
18186145 218 17489311919060196870
19049666 15 18266467503080163098
200 152 18343009021948561503
20510252 161 18410294679634437153
20528008 55 18333729152036114775
21501502 16 18338234838854047819
21524375 3 18131631227133862822
21652331 79 18340767160510071592
22182937 141 18128543660844031385
22485316 2 8574714598525070668
2306618 200 18131919260192890251
23402539 116 18410285943792549135
23419403 2 17106478673128052007
23557571 272 18412272748033734799
23559900 14 18339920403433725386
27216 239 18341047496998364288
351380 180 18411694404959592624
3524813 1 18130780213571106792
6049 1 18198926750174968870
81228 2 18114760264929795395
90316 7 17168135724390189508
9709674 26 18412549781935581702

> <PUBCHEM_SHAPE_MULTIPOLES>
299.69
7.1
2.45
0.84
5.83
1.33
0.03
1.31
0.88
-1.36
0.2
-0.29
-0.11
0.66

> <PUBCHEM_SHAPE_SELFOVERLAP>
631.296

> <PUBCHEM_SHAPE_VOLUME>
169.4

> <PUBCHEM_COORDINATE_TYPE>
2
5
10

$$$$
