10552003
  -OEChem-03292013303D

 56 60  0     1  0  0  0  0  0999 V2000
   -0.9075    0.4951   -0.2055 O   0  0  0  0  0  0  0  0  0  0  0  0
    4.4511    1.0491   -1.8262 O   0  0  0  0  0  0  0  0  0  0  0  0
   -5.7004    0.0892    0.1348 O   0  0  0  0  0  0  0  0  0  0  0  0
    0.5567    2.8991   -0.6042 O   0  0  0  0  0  0  0  0  0  0  0  0
    4.1817    1.6011    1.7121 O   0  0  0  0  0  0  0  0  0  0  0  0
    5.9932    1.1702    0.3662 O   0  0  0  0  0  0  0  0  0  0  0  0
   -0.4857   -3.5423    0.2318 O   0  0  0  0  0  0  0  0  0  0  0  0
   -3.0846   -3.7989    0.4191 O   0  0  0  0  0  0  0  0  0  0  0  0
    3.7781    1.2718   -0.6011 C   0  0  2  0  0  0  0  0  0  0  0  0
    2.7408    0.2054   -0.3961 C   0  0  0  0  0  0  0  0  0  0  0  0
    1.4437    0.7114   -0.3762 C   0  0  0  0  0  0  0  0  0  0  0  0
    2.9667    2.5831   -0.6620 C   0  0  0  0  0  0  0  0  0  0  0  0
    1.5210    2.1565   -0.5563 C   0  0  0  0  0  0  0  0  0  0  0  0
    0.3257   -0.0926   -0.2144 C   0  0  0  0  0  0  0  0  0  0  0  0
    2.9442   -1.1622   -0.2621 C   0  0  0  0  0  0  0  0  0  0  0  0
    0.5395   -1.4614   -0.0714 C   0  0  0  0  0  0  0  0  0  0  0  0
    1.8375   -2.0003   -0.0953 C   0  0  0  0  0  0  0  0  0  0  0  0
    4.7820    1.3349    0.5111 C   0  0  0  0  0  0  0  0  0  0  0  0
   -2.0230   -0.2957   -0.0456 C   0  0  0  0  0  0  0  0  0  0  0  0
   -1.9488   -1.6832    0.1088 C   0  0  0  0  0  0  0  0  0  0  0  0
   -0.6292   -2.3353    0.1017 C   0  0  0  0  0  0  0  0  0  0  0  0
   -3.2772    0.3433   -0.0403 C   0  0  0  0  0  0  0  0  0  0  0  0
    4.2722   -1.7573   -0.2945 C   0  0  0  0  0  0  0  0  0  0  0  0
   -5.8834    1.5174    0.0586 C   0  0  0  0  0  0  0  0  0  0  0  0
   -4.4347   -0.4271    0.1208 C   0  0  0  0  0  0  0  0  0  0  0  0
   -3.1069   -2.4454    0.2670 C   0  0  0  0  0  0  0  0  0  0  0  0
   -3.4113    1.7861   -0.2025 C   0  0  0  0  0  0  0  0  0  0  0  0
   -4.6298    2.3279   -0.1537 C   0  0  0  0  0  0  0  0  0  0  0  0
   -4.3480   -1.8142    0.2712 C   0  0  0  0  0  0  0  0  0  0  0  0
   -6.8463    1.7624   -1.1093 C   0  0  0  0  0  0  0  0  0  0  0  0
   -6.5476    1.9436    1.3730 C   0  0  0  0  0  0  0  0  0  0  0  0
    4.8563   -2.1798   -1.6300 C   0  0  0  0  0  0  0  0  0  0  0  0
    5.0177   -1.9358    0.8275 C   0  0  0  0  0  0  0  0  0  0  0  0
    5.0564    1.6840    2.8429 C   0  0  0  0  0  0  0  0  0  0  0  0
    3.1062    3.1020   -1.6166 H   0  0  0  0  0  0  0  0  0  0  0  0
    3.1832    3.2752    0.1580 H   0  0  0  0  0  0  0  0  0  0  0  0
    1.9847   -3.0732    0.0123 H   0  0  0  0  0  0  0  0  0  0  0  0
    5.0032    1.8276   -2.0129 H   0  0  0  0  0  0  0  0  0  0  0  0
   -2.5361    2.4061   -0.3540 H   0  0  0  0  0  0  0  0  0  0  0  0
   -4.7285    3.4049   -0.2660 H   0  0  0  0  0  0  0  0  0  0  0  0
   -5.2597   -2.3955    0.3925 H   0  0  0  0  0  0  0  0  0  0  0  0
   -7.7725    1.1905   -0.9785 H   0  0  0  0  0  0  0  0  0  0  0  0
   -7.1079    2.8214   -1.2115 H   0  0  0  0  0  0  0  0  0  0  0  0
   -6.4067    1.4235   -2.0553 H   0  0  0  0  0  0  0  0  0  0  0  0
   -5.8925    1.7350    2.2275 H   0  0  0  0  0  0  0  0  0  0  0  0
   -6.7940    3.0111    1.3816 H   0  0  0  0  0  0  0  0  0  0  0  0
   -7.4695    1.3760    1.5467 H   0  0  0  0  0  0  0  0  0  0  0  0
    4.8143   -1.3683   -2.3606 H   0  0  0  0  0  0  0  0  0  0  0  0
    4.2892   -3.0266   -2.0316 H   0  0  0  0  0  0  0  0  0  0  0  0
    5.9031   -2.4904   -1.5435 H   0  0  0  0  0  0  0  0  0  0  0  0
    6.0088   -2.3750    0.7862 H   0  0  0  0  0  0  0  0  0  0  0  0
    4.6419   -1.6453    1.8037 H   0  0  0  0  0  0  0  0  0  0  0  0
   -3.9939   -4.1306    0.5130 H   0  0  0  0  0  0  0  0  0  0  0  0
    5.5773    0.7333    2.9898 H   0  0  0  0  0  0  0  0  0  0  0  0
    4.4485    1.8912    3.7274 H   0  0  0  0  0  0  0  0  0  0  0  0
    5.7713    2.5011    2.7082 H   0  0  0  0  0  0  0  0  0  0  0  0
  1 14  1  0  0  0  0
  1 19  1  0  0  0  0
  2  9  1  0  0  0  0
  2 38  1  0  0  0  0
  3 24  1  0  0  0  0
  3 25  1  0  0  0  0
  4 13  2  0  0  0  0
  5 18  1  0  0  0  0
  5 34  1  0  0  0  0
  6 18  2  0  0  0  0
  7 21  2  0  0  0  0
  8 26  1  0  0  0  0
  8 53  1  0  0  0  0
  9 10  1  0  0  0  0
  9 12  1  0  0  0  0
  9 18  1  0  0  0  0
 10 11  1  0  0  0  0
 10 15  2  0  0  0  0
 11 13  1  0  0  0  0
 11 14  2  0  0  0  0
 12 13  1  0  0  0  0
 12 35  1  0  0  0  0
 12 36  1  0  0  0  0
 14 16  1  0  0  0  0
 15 17  1  0  0  0  0
 15 23  1  0  0  0  0
 16 17  2  0  0  0  0
 16 21  1  0  0  0  0
 17 37  1  0  0  0  0
 19 20  2  0  0  0  0
 19 22  1  0  0  0  0
 20 21  1  0  0  0  0
 20 26  1  0  0  0  0
 22 25  2  0  0  0  0
 22 27  1  0  0  0  0
 23 32  1  0  0  0  0
 23 33  2  0  0  0  0
 24 28  1  0  0  0  0
 24 30  1  0  0  0  0
 24 31  1  0  0  0  0
 25 29  1  0  0  0  0
 26 29  2  0  0  0  0
 27 28  2  0  0  0  0
 27 39  1  0  0  0  0
 28 40  1  0  0  0  0
 29 41  1  0  0  0  0
 30 42  1  0  0  0  0
 30 43  1  0  0  0  0
 30 44  1  0  0  0  0
 31 45  1  0  0  0  0
 31 46  1  0  0  0  0
 31 47  1  0  0  0  0
 32 48  1  0  0  0  0
 32 49  1  0  0  0  0
 32 50  1  0  0  0  0
 33 51  1  0  0  0  0
 33 52  1  0  0  0  0
 34 54  1  0  0  0  0
 34 55  1  0  0  0  0
 34 56  1  0  0  0  0
M  END
> <PUBCHEM_COMPOUND_CID>
10552003

> <PUBCHEM_CONFORMER_RMSD>
0.8

> <PUBCHEM_CONFORMER_DIVERSEORDER>
1
2

> <PUBCHEM_MMFF94_PARTIAL_CHARGES>
40
1 -0.17
10 -0.14
11 0.09
12 0.06
13 0.42
14 0.08
15 0.03
16 0.09
17 -0.15
18 0.66
19 0.08
2 -0.68
20 0.09
21 0.4
22 0.03
23 -0.17
24 0.42
25 0.08
26 0.08
27 -0.18
28 -0.29
29 -0.15
3 -0.36
32 0.14
33 -0.3
34 0.28
37 0.15
38 0.4
39 0.15
4 -0.57
40 0.15
41 0.15
5 -0.43
51 0.15
52 0.15
53 0.45
6 -0.57
7 -0.57
8 -0.53
9 0.48

> <PUBCHEM_EFFECTIVE_ROTOR_COUNT>
3.8

> <PUBCHEM_PHARMACOPHORE_FEATURES>
14
1 1 acceptor
1 2 acceptor
1 2 donor
1 3 acceptor
1 4 acceptor
1 6 acceptor
1 7 acceptor
1 8 donor
3 24 30 31 hydrophobe
5 9 10 11 12 13 rings
6 1 14 16 19 20 21 rings
6 10 11 14 15 16 17 rings
6 19 20 22 25 26 29 rings
6 3 22 24 25 27 28 rings

> <PUBCHEM_HEAVY_ATOM_COUNT>
34

> <PUBCHEM_ATOM_DEF_STEREO_COUNT>
0

> <PUBCHEM_ATOM_UDEF_STEREO_COUNT>
1

> <PUBCHEM_BOND_DEF_STEREO_COUNT>
0

> <PUBCHEM_BOND_UDEF_STEREO_COUNT>
0

> <PUBCHEM_ISOTOPIC_ATOM_COUNT>
0

> <PUBCHEM_COMPONENT_COUNT>
1

> <PUBCHEM_CACTVS_TAUTO_COUNT>
10

> <PUBCHEM_CONFORMER_ID>
00A102C300000001

> <PUBCHEM_MMFF94_ENERGY>
110.1217

> <PUBCHEM_FEATURE_SELFOVERLAP>
71.221

> <PUBCHEM_SHAPE_FINGERPRINT>
10 15 17895197714174604641
10411042 1 17471855805817381163
10439779 11 18340479088210348064
1100329 8 18336266756016485995
11578080 2 17774709982891116632
12107183 9 18262230006915826122
12422481 6 18187635895249737856
12633257 1 18114174280576584229
13140716 1 18409442566876739194
13402501 40 18334577893682751149
13533116 47 18060137583713224600
13782708 43 12324241668039741977
14790565 3 18337116666189528261
15183329 4 18337677425503718597
15196674 1 18409171021437032127
15238133 3 18187649154362361660
15320467 1 18409452526685080277
1601671 61 18335422408944359300
16112460 7 18270412589708725721
1813 80 16877661275197337788
19301679 30 17973455591953182803
20028762 73 18199748046674739103
20511986 3 18271793640484299243
20691752 17 17240478126684570926
20715895 44 18410572843143883153
21033648 144 18334849507562009775
21033648 29 17916573371311711760
21133410 171 17260694988603417054
21279426 13 18411707560286515751
21421861 104 17749657529433268306
21859007 373 17751060437097880925
22149856 69 18340505408845539563
23559900 14 18413395328152520598
23569914 152 17197723419079512796
249057 3 18338239258544480054
3004659 81 18261682480548322950
3178227 256 18189352173335332161
335352 9 18336550412878885478
338550 245 18260835924850130020
350125 39 18335144150328109861
3680242 22 18260266308938556395
4073 2 18187090597854672018
4093350 32 17489592216509045590
4144715 1 18335151894482062731
460360 51 18190202202512307578
495365 180 17774999103342182190
508706 21 18335420213915260663
5104073 3 18408888442706507035
513532 50 18060146431678112620
5265222 85 17764593505986976904
6086070 43 17131823318069717746

> <PUBCHEM_SHAPE_MULTIPOLES>
652.75
15.45
3.8
1.28
10.65
1.65
0.57
-7.09
1.89
0.4
0.2
-1.88
-0.7
1.33

> <PUBCHEM_SHAPE_SELFOVERLAP>
1474.653

> <PUBCHEM_SHAPE_VOLUME>
345.1

> <PUBCHEM_COORDINATE_TYPE>
2
5
10

$$$$
