10552945
  -OEChem-03292013303D

 65 69  0     1  0  0  0  0  0999 V2000
   -1.4368   -2.6480    0.8938 O   0  0  0  0  0  0  0  0  0  0  0  0
   -1.1746    2.7908    1.2076 O   0  0  0  0  0  0  0  0  0  0  0  0
   -2.4515   -2.6899   -1.7367 O   0  0  0  0  0  0  0  0  0  0  0  0
    2.5234   -2.4569    0.0584 O   0  0  0  0  0  0  0  0  0  0  0  0
    3.9465   -0.4865    0.5358 O   0  0  0  0  0  0  0  0  0  0  0  0
   -0.2352   -2.0508   -1.8641 O   0  0  0  0  0  0  0  0  0  0  0  0
    1.0622   -2.6795    1.7853 O   0  0  0  0  0  0  0  0  0  0  0  0
    5.0221    1.8761   -0.2612 O   0  0  0  0  0  0  0  0  0  0  0  0
    0.9388   -0.8130    0.3912 N   0  0  0  0  0  0  0  0  0  0  0  0
   -2.5918    2.1650   -0.5498 N   0  0  0  0  0  0  0  0  0  0  0  0
   -0.5290   -0.3718    0.4914 C   0  0  1  0  0  0  0  0  0  0  0  0
   -0.5475    1.0197   -0.3746 C   0  0  2  0  0  0  0  0  0  0  0  0
   -1.5661   -1.4819    0.0605 C   0  0  2  0  0  0  0  0  0  0  0  0
   -1.0290    0.9910   -1.8476 C   0  0  0  0  0  0  0  0  0  0  0  0
   -0.8325   -0.1131    2.0130 C   0  0  0  0  0  0  0  0  0  0  0  0
    0.9176    1.3858   -0.3679 C   0  0  0  0  0  0  0  0  0  0  0  0
   -1.4265    2.1249    0.2124 C   0  0  0  0  0  0  0  0  0  0  0  0
    1.7214    0.3125    0.0067 C   0  0  0  0  0  0  0  0  0  0  0  0
   -3.0306   -1.0270    0.2283 C   0  0  0  0  0  0  0  0  0  0  0  0
   -2.4344    1.5715   -1.8554 C   0  0  0  0  0  0  0  0  0  0  0  0
   -3.2535   -0.0598    1.3728 C   0  0  0  0  0  0  0  0  0  0  0  0
   -2.2762    0.2435    2.2483 C   0  0  0  0  0  0  0  0  0  0  0  0
   -3.8697    2.6782   -0.0702 C   0  0  0  0  0  0  0  0  0  0  0  0
   -1.3116   -2.0943   -1.2840 C   0  0  0  0  0  0  0  0  0  0  0  0
   -4.5899    0.6431    1.4366 C   0  0  0  0  0  0  0  0  0  0  0  0
    1.4769    2.6118   -0.7295 C   0  0  0  0  0  0  0  0  0  0  0  0
   -4.8989    1.5692    0.2353 C   0  0  0  0  0  0  0  0  0  0  0  0
    1.4807   -2.0231    0.8356 C   0  0  0  0  0  0  0  0  0  0  0  0
    3.1051    0.4687    0.0542 C   0  0  0  0  0  0  0  0  0  0  0  0
    2.8607    2.7628   -0.7002 C   0  0  0  0  0  0  0  0  0  0  0  0
    3.6706    1.6957   -0.3078 C   0  0  0  0  0  0  0  0  0  0  0  0
   -2.3498   -3.3179   -3.0187 C   0  0  0  0  0  0  0  0  0  0  0  0
    3.1008   -3.7191    0.4134 C   0  0  0  0  0  0  0  0  0  0  0  0
    4.2514   -0.4408    1.9289 C   0  0  0  0  0  0  0  0  0  0  0  0
    5.7569    1.5630   -1.4417 C   0  0  0  0  0  0  0  0  0  0  0  0
   -0.9914    0.0387   -2.3624 H   0  0  0  0  0  0  0  0  0  0  0  0
   -0.4114    1.6509   -2.4736 H   0  0  0  0  0  0  0  0  0  0  0  0
   -0.1931    0.6969    2.3852 H   0  0  0  0  0  0  0  0  0  0  0  0
   -0.5899   -0.9813    2.6355 H   0  0  0  0  0  0  0  0  0  0  0  0
   -3.3991   -0.5933   -0.6968 H   0  0  0  0  0  0  0  0  0  0  0  0
   -3.6855   -1.8890    0.4192 H   0  0  0  0  0  0  0  0  0  0  0  0
   -2.5344    2.3599   -2.6094 H   0  0  0  0  0  0  0  0  0  0  0  0
   -3.2023    0.8253   -2.0551 H   0  0  0  0  0  0  0  0  0  0  0  0
   -2.4750    0.9202    3.0753 H   0  0  0  0  0  0  0  0  0  0  0  0
   -3.6985    3.2713    0.8348 H   0  0  0  0  0  0  0  0  0  0  0  0
   -4.2633    3.3479   -0.8425 H   0  0  0  0  0  0  0  0  0  0  0  0
   -4.6598    1.2437    2.3528 H   0  0  0  0  0  0  0  0  0  0  0  0
   -5.3811   -0.1130    1.5128 H   0  0  0  0  0  0  0  0  0  0  0  0
    0.8499    3.4428   -1.0375 H   0  0  0  0  0  0  0  0  0  0  0  0
   -5.0641    0.9606   -0.6611 H   0  0  0  0  0  0  0  0  0  0  0  0
   -5.8599    2.0579    0.4423 H   0  0  0  0  0  0  0  0  0  0  0  0
   -2.1280   -3.2891    0.6544 H   0  0  0  0  0  0  0  0  0  0  0  0
    3.3031    3.7156   -0.9778 H   0  0  0  0  0  0  0  0  0  0  0  0
   -1.6036   -4.1176   -2.9903 H   0  0  0  0  0  0  0  0  0  0  0  0
   -3.3225   -3.7531   -3.2621 H   0  0  0  0  0  0  0  0  0  0  0  0
   -2.0948   -2.5774   -3.7829 H   0  0  0  0  0  0  0  0  0  0  0  0
    3.4883   -3.6860    1.4360 H   0  0  0  0  0  0  0  0  0  0  0  0
    2.3590   -4.5158    0.3046 H   0  0  0  0  0  0  0  0  0  0  0  0
    3.9312   -3.9157   -0.2700 H   0  0  0  0  0  0  0  0  0  0  0  0
    4.8755    0.4293    2.1547 H   0  0  0  0  0  0  0  0  0  0  0  0
    3.3380   -0.4103    2.5316 H   0  0  0  0  0  0  0  0  0  0  0  0
    4.8097   -1.3450    2.1863 H   0  0  0  0  0  0  0  0  0  0  0  0
    5.6317    0.5080   -1.7056 H   0  0  0  0  0  0  0  0  0  0  0  0
    5.4362    2.1989   -2.2730 H   0  0  0  0  0  0  0  0  0  0  0  0
    6.8162    1.7508   -1.2462 H   0  0  0  0  0  0  0  0  0  0  0  0
  1 13  1  0  0  0  0
  1 52  1  0  0  0  0
  2 17  2  0  0  0  0
  3 24  1  0  0  0  0
  3 32  1  0  0  0  0
  4 28  1  0  0  0  0
  4 33  1  0  0  0  0
  5 29  1  0  0  0  0
  5 34  1  0  0  0  0
  6 24  2  0  0  0  0
  7 28  2  0  0  0  0
  8 31  1  0  0  0  0
  8 35  1  0  0  0  0
  9 11  1  0  0  0  0
  9 18  1  0  0  0  0
  9 28  1  0  0  0  0
 10 17  1  0  0  0  0
 10 20  1  0  0  0  0
 10 23  1  0  0  0  0
 11 12  1  0  0  0  0
 11 13  1  0  0  0  0
 11 15  1  0  0  0  0
 12 14  1  0  0  0  0
 12 16  1  0  0  0  0
 12 17  1  0  0  0  0
 13 19  1  0  0  0  0
 13 24  1  0  0  0  0
 14 20  1  0  0  0  0
 14 36  1  0  0  0  0
 14 37  1  0  0  0  0
 15 22  1  0  0  0  0
 15 38  1  0  0  0  0
 15 39  1  0  0  0  0
 16 18  2  0  0  0  0
 16 26  1  0  0  0  0
 18 29  1  0  0  0  0
 19 21  1  0  0  0  0
 19 40  1  0  0  0  0
 19 41  1  0  0  0  0
 20 42  1  0  0  0  0
 20 43  1  0  0  0  0
 21 22  2  0  0  0  0
 21 25  1  0  0  0  0
 22 44  1  0  0  0  0
 23 27  1  0  0  0  0
 23 45  1  0  0  0  0
 23 46  1  0  0  0  0
 25 27  1  0  0  0  0
 25 47  1  0  0  0  0
 25 48  1  0  0  0  0
 26 30  2  0  0  0  0
 26 49  1  0  0  0  0
 27 50  1  0  0  0  0
 27 51  1  0  0  0  0
 29 31  2  0  0  0  0
 30 31  1  0  0  0  0
 30 53  1  0  0  0  0
 32 54  1  0  0  0  0
 32 55  1  0  0  0  0
 32 56  1  0  0  0  0
 33 57  1  0  0  0  0
 33 58  1  0  0  0  0
 33 59  1  0  0  0  0
 34 60  1  0  0  0  0
 34 61  1  0  0  0  0
 34 62  1  0  0  0  0
 35 63  1  0  0  0  0
 35 64  1  0  0  0  0
 35 65  1  0  0  0  0
M  END
> <PUBCHEM_COMPOUND_CID>
10552945

> <PUBCHEM_CONFORMER_RMSD>
1

> <PUBCHEM_CONFORMER_DIVERSEORDER>
1
2

> <PUBCHEM_MMFF94_PARTIAL_CHARGES>
37
1 -0.68
10 -0.66
11 0.3
12 0.2
13 0.34
15 0.14
16 -0.14
17 0.57
18 0.12
19 0.14
2 -0.57
20 0.3
21 -0.28
22 -0.29
23 0.3
24 0.66
25 0.14
26 -0.15
28 0.78
29 0.08
3 -0.43
30 -0.15
31 0.08
32 0.28
33 0.28
34 0.28
35 0.28
4 -0.43
44 0.15
49 0.15
5 -0.36
52 0.4
53 0.15
6 -0.57
7 -0.57
8 -0.36
9 -0.48

> <PUBCHEM_EFFECTIVE_ROTOR_COUNT>
7.8

> <PUBCHEM_PHARMACOPHORE_FEATURES>
11
1 1 acceptor
1 1 donor
1 2 acceptor
1 5 acceptor
1 6 acceptor
1 7 acceptor
1 8 acceptor
5 10 12 14 17 20 rings
5 9 11 12 16 18 rings
6 11 13 15 19 21 22 rings
6 16 18 26 29 30 31 rings

> <PUBCHEM_HEAVY_ATOM_COUNT>
35

> <PUBCHEM_ATOM_DEF_STEREO_COUNT>
3

> <PUBCHEM_ATOM_UDEF_STEREO_COUNT>
0

> <PUBCHEM_BOND_DEF_STEREO_COUNT>
0

> <PUBCHEM_BOND_UDEF_STEREO_COUNT>
0

> <PUBCHEM_ISOTOPIC_ATOM_COUNT>
0

> <PUBCHEM_COMPONENT_COUNT>
1

> <PUBCHEM_CACTVS_TAUTO_COUNT>
1

> <PUBCHEM_CONFORMER_ID>
00A1067100000001

> <PUBCHEM_MMFF94_ENERGY>
161.8243

> <PUBCHEM_FEATURE_SELFOVERLAP>
55.936

> <PUBCHEM_SHAPE_FINGERPRINT>
10863032 1 18115031788572964889
10930396 42 15395368177357136201
10948715 1 18336830793145265897
11115154 58 17339266137348588679
11421498 54 18053933237151103351
11513181 2 18128821837163987597
11578080 2 15647597957375997143
12035759 4 18195507389503765639
12422481 6 18187923932799346793
12788726 201 18338791350661775622
13140716 1 18046641267181208864
13224815 77 18187362160204988808
13583140 156 17387960985331132171
13911987 19 17104811817568224068
14223421 5 18187376401783526419
14790565 3 17972335155181177044
15484559 13 16384758720468873868
16945 1 18260842526462790073
17980427 26 17532076208072740315
1813 80 13768220410230536041
20600515 1 15141544565459614139
21033648 29 17411025397892360322
22149856 69 17271482066266787051
23227448 37 18335144214816098155
23419403 2 16951112964301868435
23559900 14 18045499707849868416
3027735 51 18264481961337504862
3493558 16 16906370344069394097
350125 39 18187371995727504528
469060 322 17970341727355771341
5265222 85 18044398229824176324
70251023 43 17339557511570554463

> <PUBCHEM_SHAPE_MULTIPOLES>
663.37
8.42
4.09
2.09
5.75
2.14
0.54
-4.09
-0.47
0.49
1.39
-1.2
1.23
-2.16

> <PUBCHEM_SHAPE_SELFOVERLAP>
1454.088

> <PUBCHEM_SHAPE_VOLUME>
357.1

> <PUBCHEM_COORDINATE_TYPE>
2
5
10

$$$$
