10566365
  -OEChem-03292013303D

 38 40  0     0  0  0  0  0  0999 V2000
    1.1358    2.7619   -0.0719 S   0  0  0  0  0  0  0  0  0  0  0  0
   -5.8869   -1.7009   -0.7963 O   0  0  0  0  0  0  0  0  0  0  0  0
   -1.3152   -1.1754    0.3336 O   0  0  0  0  0  0  0  0  0  0  0  0
   -0.9411    1.1460    0.1608 N   0  0  0  0  0  0  0  0  0  0  0  0
    1.3087    0.2385    0.0800 N   0  0  0  0  0  0  0  0  0  0  0  0
    2.6901    2.1441   -0.1290 N   0  0  0  0  0  0  0  0  0  0  0  0
   -3.1590    0.3129    0.3548 C   0  0  0  0  0  0  0  0  0  0  0  0
   -3.7344    0.3653   -1.0611 C   0  0  0  0  0  0  0  0  0  0  0  0
   -3.8798   -0.7244    1.2165 C   0  0  0  0  0  0  0  0  0  0  0  0
   -5.9790   -0.4204   -0.1750 C   0  0  0  0  0  0  0  0  0  0  0  0
   -5.2456    0.6001   -1.0452 C   0  0  0  0  0  0  0  0  0  0  0  0
   -5.3900   -0.4854    1.2348 C   0  0  0  0  0  0  0  0  0  0  0  0
   -1.6984   -0.0116    0.2823 C   0  0  0  0  0  0  0  0  0  0  0  0
    0.4515    1.2099    0.0704 C   0  0  0  0  0  0  0  0  0  0  0  0
    2.5595    0.8208   -0.0353 C   0  0  0  0  0  0  0  0  0  0  0  0
    3.7230   -0.0273   -0.0530 C   0  0  0  0  0  0  0  0  0  0  0  0
    3.5926   -1.3768   -0.3725 C   0  0  0  0  0  0  0  0  0  0  0  0
    4.9739    0.5054    0.2495 C   0  0  0  0  0  0  0  0  0  0  0  0
    4.7197   -2.1983   -0.3892 C   0  0  0  0  0  0  0  0  0  0  0  0
    6.1010   -0.3162    0.2326 C   0  0  0  0  0  0  0  0  0  0  0  0
    5.9738   -1.6682   -0.0869 C   0  0  0  0  0  0  0  0  0  0  0  0
   -3.2938    1.2939    0.8304 H   0  0  0  0  0  0  0  0  0  0  0  0
   -3.5133   -0.5692   -1.5935 H   0  0  0  0  0  0  0  0  0  0  0  0
   -3.2520    1.1648   -1.6369 H   0  0  0  0  0  0  0  0  0  0  0  0
   -3.4933   -0.6938    2.2428 H   0  0  0  0  0  0  0  0  0  0  0  0
   -3.6889   -1.7399    0.8458 H   0  0  0  0  0  0  0  0  0  0  0  0
   -7.0416   -0.1584   -0.1235 H   0  0  0  0  0  0  0  0  0  0  0  0
   -5.4490    1.6109   -0.6712 H   0  0  0  0  0  0  0  0  0  0  0  0
   -5.6183    0.5487   -2.0750 H   0  0  0  0  0  0  0  0  0  0  0  0
   -5.8657   -1.2929    1.8036 H   0  0  0  0  0  0  0  0  0  0  0  0
   -5.6001    0.4540    1.7606 H   0  0  0  0  0  0  0  0  0  0  0  0
   -6.3687   -2.3333   -0.2364 H   0  0  0  0  0  0  0  0  0  0  0  0
   -1.4084    2.0482    0.1255 H   0  0  0  0  0  0  0  0  0  0  0  0
    2.6298   -1.8174   -0.6187 H   0  0  0  0  0  0  0  0  0  0  0  0
    5.1091    1.5520    0.5107 H   0  0  0  0  0  0  0  0  0  0  0  0
    4.6213   -3.2507   -0.6392 H   0  0  0  0  0  0  0  0  0  0  0  0
    7.0776    0.0957    0.4699 H   0  0  0  0  0  0  0  0  0  0  0  0
    6.8514   -2.3080   -0.0999 H   0  0  0  0  0  0  0  0  0  0  0  0
  1  6  1  0  0  0  0
  1 14  1  0  0  0  0
  2 10  1  0  0  0  0
  2 32  1  0  0  0  0
  3 13  2  0  0  0  0
  4 13  1  0  0  0  0
  4 14  1  0  0  0  0
  4 33  1  0  0  0  0
  5 14  2  0  0  0  0
  5 15  1  0  0  0  0
  6 15  2  0  0  0  0
  7  8  1  0  0  0  0
  7  9  1  0  0  0  0
  7 13  1  0  0  0  0
  7 22  1  0  0  0  0
  8 11  1  0  0  0  0
  8 23  1  0  0  0  0
  8 24  1  0  0  0  0
  9 12  1  0  0  0  0
  9 25  1  0  0  0  0
  9 26  1  0  0  0  0
 10 11  1  0  0  0  0
 10 12  1  0  0  0  0
 10 27  1  0  0  0  0
 11 28  1  0  0  0  0
 11 29  1  0  0  0  0
 12 30  1  0  0  0  0
 12 31  1  0  0  0  0
 15 16  1  0  0  0  0
 16 17  2  0  0  0  0
 16 18  1  0  0  0  0
 17 19  1  0  0  0  0
 17 34  1  0  0  0  0
 18 20  2  0  0  0  0
 18 35  1  0  0  0  0
 19 21  2  0  0  0  0
 19 36  1  0  0  0  0
 20 21  1  0  0  0  0
 20 37  1  0  0  0  0
 21 38  1  0  0  0  0
M  END
> <PUBCHEM_COMPOUND_CID>
10566365

> <PUBCHEM_CONFORMER_RMSD>
0.8

> <PUBCHEM_CONFORMER_DIVERSEORDER>
1
17
12
16
15
7
3
9
8
13
14
6
5
2
10
11
4

> <PUBCHEM_MMFF94_PARTIAL_CHARGES>
24
1 0.18
10 0.28
13 0.57
14 0.44
15 0.46
16 0.05
17 -0.15
18 -0.15
19 -0.15
2 -0.68
20 -0.15
21 -0.15
3 -0.57
32 0.4
33 0.37
34 0.15
35 0.15
36 0.15
37 0.15
38 0.15
4 -0.49
5 -0.57
6 -0.51
7 0.06

> <PUBCHEM_EFFECTIVE_ROTOR_COUNT>
5.2

> <PUBCHEM_PHARMACOPHORE_FEATURES>
8
1 2 acceptor
1 2 donor
1 3 acceptor
1 4 donor
3 5 6 15 cation
5 1 5 6 14 15 rings
6 16 17 18 19 20 21 rings
6 7 8 9 10 11 12 rings

> <PUBCHEM_HEAVY_ATOM_COUNT>
21

> <PUBCHEM_ATOM_DEF_STEREO_COUNT>
0

> <PUBCHEM_ATOM_UDEF_STEREO_COUNT>
0

> <PUBCHEM_BOND_DEF_STEREO_COUNT>
0

> <PUBCHEM_BOND_UDEF_STEREO_COUNT>
0

> <PUBCHEM_ISOTOPIC_ATOM_COUNT>
0

> <PUBCHEM_COMPONENT_COUNT>
1

> <PUBCHEM_CACTVS_TAUTO_COUNT>
4

> <PUBCHEM_CONFORMER_ID>
00A13ADD00000001

> <PUBCHEM_MMFF94_ENERGY>
41.0254

> <PUBCHEM_FEATURE_SELFOVERLAP>
40.596

> <PUBCHEM_SHAPE_FINGERPRINT>
10447042 23 18409444761726106550
10670039 82 15864342515811927637
11545043 162 17386013905284334401
11796584 16 17603586339672082034
12166972 35 18202564007638518873
12236239 1 17775568645563877321
12516196 113 18342737416664245936
12555020 224 18408320008401737787
12596602 18 16917351428699196474
12760667 363 18411984624210221024
13402501 40 18333453127373097722
13533116 47 18201720682430952608
13668630 136 18272370871378202775
13685833 64 18408889533364130731
13782708 43 17967818288304422579
13862211 1 18410854335348156562
13911852 28 18268430135973790366
13955234 65 18270116963031331808
14211702 104 18059018401283615215
14251752 14 16732976497095736442
14528608 73 10809346663023114473
14573314 32 17822008696859154399
14848160 23 18335420153738135122
15183329 4 17095519574134318881
15352361 1 18410014312775028424
17349148 13 17918001580933651345
17834072 8 17894909624873839885
17844677 252 18409733967364784389
17857418 61 18201719565612672839
17870717 6 17312824883917120155
1813 80 18200889400079783876
18222031 100 18411976949567958248
19489759 90 17095523981134741831
200 152 18131067126044641145
20028762 73 18131631188205396798
20567600 247 18272363200714428431
20567600 75 18260265226796838335
20645477 70 18335700567947691872
21150785 3 11746938720373903843
21236236 1 18339924797269983601
21267235 1 18340775854066892334
21279426 13 18189613835026616943
21315764 119 15791728560100430786
21623969 137 18341898480517994342
21682296 61 18340211795347536719
22061861 79 18333167271618980887
221357 26 18333445439587288397
2215653 11 18261108573785072103
22224240 67 18131061667874262378
2297311 6 16950566584653651757
2303208 19 17531539766768103489
23198884 109 14923947833829878009
23402539 116 18060420201299091641
23522609 53 18125192452276400904
23559900 14 18187926235149951329
239999 70 18113900481502717696
2838139 119 11386371456344440878
2871803 45 18261111817007646074
3004659 81 17967534558754269356
314194 84 18342740719446480770
3421961 26 18411983589730257896
34797466 226 16588598616119875765
351380 3 18273213084336646214
4015057 19 18338233894615364393
4340502 62 14045743712297320980
46194498 28 17603868931572677852
465052 167 18273217491326422662
5104073 3 17488750107246943875
5207 123 18408605833742326668
59682541 35 18200863046998842650
59755656 215 17749104474488878531
6138700 20 18335421214548019858
8863177 126 17896616157067437827
9971528 1 18411976996580983552

> <PUBCHEM_SHAPE_MULTIPOLES>
409.34
16.82
2.11
0.92
3.71
0.69
-0.03
-8.61
0.9
-2.12
0.2
1.27
-0.12
0.57

> <PUBCHEM_SHAPE_SELFOVERLAP>
864.008

> <PUBCHEM_SHAPE_VOLUME>
231

> <PUBCHEM_COORDINATE_TYPE>
2
5
10

$$$$
