10572099
  -OEChem-03292013303D

 63 63  0     1  0  0  0  0  0999 V2000
   -0.2174   -3.2490    0.6292 O   0  0  0  0  0  0  0  0  0  0  0  0
   -1.2350    2.6026   -0.3331 O   0  0  0  0  0  0  0  0  0  0  0  0
    1.9434    1.4789   -1.8003 O   0  0  0  0  0  0  0  0  0  0  0  0
    2.5248   -1.6198   -1.2368 O   0  0  0  0  0  0  0  0  0  0  0  0
   -2.3644    0.4581    1.7639 O   0  0  0  0  0  0  0  0  0  0  0  0
   -4.5781   -0.0429    1.3800 O   0  0  0  0  0  0  0  0  0  0  0  0
   -1.5840   -0.5287   -0.7206 C   0  0  1  0  0  0  0  0  0  0  0  0
    0.6141   -2.9788   -0.5023 C   0  0  1  0  0  0  0  0  0  0  0  0
   -1.6475   -1.9016   -1.4166 C   0  0  0  0  0  0  0  0  0  0  0  0
   -0.8316    0.5321   -1.5601 C   0  0  0  0  0  0  0  0  0  0  0  0
   -0.3184   -2.6359   -1.7037 C   0  0  0  0  0  0  0  0  0  0  0  0
   -0.2266    1.6625   -0.6948 C   0  0  1  0  0  0  0  0  0  0  0  0
    0.9540    2.4181   -1.3633 C   0  0  1  0  0  0  0  0  0  0  0  0
    1.6079   -1.8275   -0.1626 C   0  0  1  0  0  0  0  0  0  0  0  0
    1.6671    3.3954   -0.3863 C   0  0  0  0  0  0  0  0  0  0  0  0
    2.4357   -2.0368    1.1231 C   0  0  0  0  0  0  0  0  0  0  0  0
    1.3766   -4.2741   -0.8426 C   0  0  0  0  0  0  0  0  0  0  0  0
   -2.9833   -0.0718   -0.4189 C   0  0  0  0  0  0  0  0  0  0  0  0
    0.4970    3.2150   -2.5975 C   0  0  0  0  0  0  0  0  0  0  0  0
    2.0657    2.8567    1.0069 C   0  0  0  0  0  0  0  0  0  0  0  0
    3.3265   -0.8317    1.4991 C   0  0  0  0  0  0  0  0  0  0  0  0
    2.5646    0.4587    1.7408 C   0  0  0  0  0  0  0  0  0  0  0  0
    2.8175    1.5523    0.9925 C   0  0  0  0  0  0  0  0  0  0  0  0
   -3.4284    0.1073    0.9912 C   0  0  0  0  0  0  0  0  0  0  0  0
   -3.8766    0.1901   -1.3842 C   0  0  0  0  0  0  0  0  0  0  0  0
    1.5430    0.4075    2.8450 C   0  0  0  0  0  0  0  0  0  0  0  0
   -2.6465    0.6635    3.1523 C   0  0  0  0  0  0  0  0  0  0  0  0
   -1.0475   -0.6746    0.2172 H   0  0  0  0  0  0  0  0  0  0  0  0
   -2.1588   -1.7993   -2.3837 H   0  0  0  0  0  0  0  0  0  0  0  0
   -2.2792   -2.5757   -0.8210 H   0  0  0  0  0  0  0  0  0  0  0  0
   -0.0188    0.0343   -2.0951 H   0  0  0  0  0  0  0  0  0  0  0  0
   -1.4782    0.9650   -2.3320 H   0  0  0  0  0  0  0  0  0  0  0  0
   -0.6227   -3.5809   -2.1769 H   0  0  0  0  0  0  0  0  0  0  0  0
    0.2488   -2.1100   -2.4803 H   0  0  0  0  0  0  0  0  0  0  0  0
    0.1223    1.1995    0.2306 H   0  0  0  0  0  0  0  0  0  0  0  0
    1.0437   -0.9076   -0.0395 H   0  0  0  0  0  0  0  0  0  0  0  0
    1.0410    4.2832   -0.2286 H   0  0  0  0  0  0  0  0  0  0  0  0
    2.5878    3.7519   -0.8700 H   0  0  0  0  0  0  0  0  0  0  0  0
    3.1058   -2.8956    0.9978 H   0  0  0  0  0  0  0  0  0  0  0  0
    1.7735   -2.2722    1.9638 H   0  0  0  0  0  0  0  0  0  0  0  0
    1.9871   -4.1714   -1.7448 H   0  0  0  0  0  0  0  0  0  0  0  0
    2.0180   -4.5906   -0.0141 H   0  0  0  0  0  0  0  0  0  0  0  0
    0.6748   -5.1023   -0.9999 H   0  0  0  0  0  0  0  0  0  0  0  0
    1.3501    3.7148   -3.0712 H   0  0  0  0  0  0  0  0  0  0  0  0
    0.0758    2.5508   -3.3599 H   0  0  0  0  0  0  0  0  0  0  0  0
   -0.2489    3.9749   -2.3449 H   0  0  0  0  0  0  0  0  0  0  0  0
    1.1577    2.7915    1.6132 H   0  0  0  0  0  0  0  0  0  0  0  0
    2.7014    3.6083    1.4912 H   0  0  0  0  0  0  0  0  0  0  0  0
    4.0849   -0.6945    0.7181 H   0  0  0  0  0  0  0  0  0  0  0  0
    3.8820   -1.0807    2.4124 H   0  0  0  0  0  0  0  0  0  0  0  0
   -0.4394   -2.4114    1.0658 H   0  0  0  0  0  0  0  0  0  0  0  0
    3.6248    1.4993    0.2637 H   0  0  0  0  0  0  0  0  0  0  0  0
   -0.8733    3.1800    0.3595 H   0  0  0  0  0  0  0  0  0  0  0  0
    1.9525    0.7226   -1.1939 H   0  0  0  0  0  0  0  0  0  0  0  0
    3.1658   -2.3502   -1.2392 H   0  0  0  0  0  0  0  0  0  0  0  0
   -3.6342    0.0803   -2.4359 H   0  0  0  0  0  0  0  0  0  0  0  0
   -4.8838    0.5252   -1.1570 H   0  0  0  0  0  0  0  0  0  0  0  0
    1.2458    1.3971    3.2007 H   0  0  0  0  0  0  0  0  0  0  0  0
    1.9523   -0.1201    3.7135 H   0  0  0  0  0  0  0  0  0  0  0  0
    0.6447   -0.1216    2.5124 H   0  0  0  0  0  0  0  0  0  0  0  0
   -3.3786    1.4672    3.2759 H   0  0  0  0  0  0  0  0  0  0  0  0
   -1.7171    0.9565    3.6477 H   0  0  0  0  0  0  0  0  0  0  0  0
   -3.0089   -0.2643    3.6049 H   0  0  0  0  0  0  0  0  0  0  0  0
  1  8  1  0  0  0  0
  1 51  1  0  0  0  0
  2 12  1  0  0  0  0
  2 53  1  0  0  0  0
  3 13  1  0  0  0  0
  3 54  1  0  0  0  0
  4 14  1  0  0  0  0
  4 55  1  0  0  0  0
  5 24  1  0  0  0  0
  5 27  1  0  0  0  0
  6 24  2  0  0  0  0
  7  9  1  0  0  0  0
  7 10  1  0  0  0  0
  7 18  1  0  0  0  0
  7 28  1  0  0  0  0
  8 11  1  0  0  0  0
  8 14  1  0  0  0  0
  8 17  1  0  0  0  0
  9 11  1  0  0  0  0
  9 29  1  0  0  0  0
  9 30  1  0  0  0  0
 10 12  1  0  0  0  0
 10 31  1  0  0  0  0
 10 32  1  0  0  0  0
 11 33  1  0  0  0  0
 11 34  1  0  0  0  0
 12 13  1  0  0  0  0
 12 35  1  0  0  0  0
 13 15  1  0  0  0  0
 13 19  1  0  0  0  0
 14 16  1  0  0  0  0
 14 36  1  0  0  0  0
 15 20  1  0  0  0  0
 15 37  1  0  0  0  0
 15 38  1  0  0  0  0
 16 21  1  0  0  0  0
 16 39  1  0  0  0  0
 16 40  1  0  0  0  0
 17 41  1  0  0  0  0
 17 42  1  0  0  0  0
 17 43  1  0  0  0  0
 18 24  1  0  0  0  0
 18 25  2  0  0  0  0
 19 44  1  0  0  0  0
 19 45  1  0  0  0  0
 19 46  1  0  0  0  0
 20 23  1  0  0  0  0
 20 47  1  0  0  0  0
 20 48  1  0  0  0  0
 21 22  1  0  0  0  0
 21 49  1  0  0  0  0
 21 50  1  0  0  0  0
 22 23  2  0  0  0  0
 22 26  1  0  0  0  0
 23 52  1  0  0  0  0
 25 56  1  0  0  0  0
 25 57  1  0  0  0  0
 26 58  1  0  0  0  0
 26 59  1  0  0  0  0
 26 60  1  0  0  0  0
 27 61  1  0  0  0  0
 27 62  1  0  0  0  0
 27 63  1  0  0  0  0
M  END
> <PUBCHEM_COMPOUND_CID>
10572099

> <PUBCHEM_CONFORMER_RMSD>
0.8

> <PUBCHEM_CONFORMER_DIVERSEORDER>
1
61
73
56
87
79
81
6
38
50
88
24
54
53
45
77
74
46
57
40
42
80
67
89
70
72
75
25
71
86
26
82
64
36
59
69
65
62
13
60
7
31
32
66
11
85
76
55
68
84
37
83
30
3
14
34
52
33
8
47
4
58
41
43
78
9
17
20
27
90
51
10
35
39
48
2
15
63
5
44
49
22
19
23
29
18
28
16
21
12

> <PUBCHEM_MMFF94_PARTIAL_CHARGES>
27
1 -0.68
12 0.28
13 0.28
14 0.28
18 -0.12
2 -0.68
20 0.14
21 0.14
22 -0.28
23 -0.29
24 0.71
25 -0.3
26 0.14
27 0.28
3 -0.68
4 -0.68
5 -0.43
51 0.4
52 0.15
53 0.4
54 0.4
55 0.4
56 0.15
57 0.15
6 -0.57
7 0.14
8 0.28

> <PUBCHEM_EFFECTIVE_ROTOR_COUNT>
5.4

> <PUBCHEM_PHARMACOPHORE_FEATURES>
10
1 1 acceptor
1 1 donor
1 2 acceptor
1 2 donor
1 25 hydrophobe
1 3 acceptor
1 3 donor
1 4 acceptor
1 4 donor
1 6 acceptor

> <PUBCHEM_HEAVY_ATOM_COUNT>
27

> <PUBCHEM_ATOM_DEF_STEREO_COUNT>
5

> <PUBCHEM_ATOM_UDEF_STEREO_COUNT>
0

> <PUBCHEM_BOND_DEF_STEREO_COUNT>
1

> <PUBCHEM_BOND_UDEF_STEREO_COUNT>
0

> <PUBCHEM_ISOTOPIC_ATOM_COUNT>
0

> <PUBCHEM_COMPONENT_COUNT>
1

> <PUBCHEM_CACTVS_TAUTO_COUNT>
1

> <PUBCHEM_CONFORMER_ID>
00A1514300000001

> <PUBCHEM_MMFF94_ENERGY>
79.6333

> <PUBCHEM_FEATURE_SELFOVERLAP>
50.75

> <PUBCHEM_SHAPE_FINGERPRINT>
10064457 181 18129939108644939130
10119406 146 14742109089381124007
10708813 3 18050827103795641624
11244481 83 17458923611790296673
12156800 1 15117367150899490796
12539773 59 17414398931304693574
12633257 1 18128509683657724970
13140716 1 18338789117442799455
13965767 371 18126821864199482058
14840074 17 18261102032924835928
18981168 100 17841174421213164194
19930381 70 16830336920095453900
20397935 3 16008756813631199441
238 59 16974432403230172822
27425 322 12044661343137720934
2818148 4 17751649990252546306
35225 105 17186481316422717801
3797600 57 16950578665964521942
4409770 3 16254767798702833951
469060 322 17687222740713063094
474 4 18272638061225140931
539174 4 17988352672658715323
6287921 2 18059860558159550775
81228 2 17466788173677211373

> <PUBCHEM_SHAPE_MULTIPOLES>
520.43
5.48
4.72
2.76
3.82
2.37
1.34
-1.02
2.82
-3.03
-2.55
0.56
-1.24
-0.76

> <PUBCHEM_SHAPE_SELFOVERLAP>
1030.497

> <PUBCHEM_SHAPE_VOLUME>
307.6

> <PUBCHEM_COORDINATE_TYPE>
2
5
10

$$$$
