10571026
  -OEChem-03292013303D

 43 46  0     1  0  0  0  0  0999 V2000
    2.2352    1.1444   -0.8876 O   0  0  0  0  0  0  0  0  0  0  0  0
   -0.8876   -1.5436    0.0838 O   0  0  0  0  0  0  0  0  0  0  0  0
   -1.8411    2.3600   -0.6039 O   0  0  0  0  0  0  0  0  0  0  0  0
   -4.3921    1.7699   -0.3891 O   0  0  0  0  0  0  0  0  0  0  0  0
    3.4880   -4.0037    0.6460 O   0  0  0  0  0  0  0  0  0  0  0  0
    5.4670   -2.2265   -0.1560 O   0  0  0  0  0  0  0  0  0  0  0  0
   -5.4552   -2.7769    0.4691 O   0  0  0  0  0  0  0  0  0  0  0  0
    0.9579    1.7169   -0.5505 C   0  0  1  0  0  0  0  0  0  0  0  0
   -0.1528    0.7240   -0.3364 C   0  0  0  0  0  0  0  0  0  0  0  0
    0.0771   -0.5787   -0.1200 C   0  0  0  0  0  0  0  0  0  0  0  0
    1.4712   -1.0293   -0.0920 C   0  0  0  0  0  0  0  0  0  0  0  0
    2.4810   -0.1404   -0.4814 C   0  0  0  0  0  0  0  0  0  0  0  0
   -1.5639    1.1883   -0.3848 C   0  0  0  0  0  0  0  0  0  0  0  0
   -2.5965    0.1616   -0.1629 C   0  0  0  0  0  0  0  0  0  0  0  0
   -2.2024   -1.1562    0.0619 C   0  0  0  0  0  0  0  0  0  0  0  0
    1.1601    2.6086    0.6395 C   0  0  0  0  0  0  0  0  0  0  0  0
    1.8301   -2.3311    0.2873 C   0  0  0  0  0  0  0  0  0  0  0  0
    3.8178   -0.5480   -0.5100 C   0  0  0  0  0  0  0  0  0  0  0  0
   -3.9524    0.4983   -0.1762 C   0  0  0  0  0  0  0  0  0  0  0  0
    1.5951    3.8826    0.6644 C   0  0  0  0  0  0  0  0  0  0  0  0
   -3.1620   -2.1461    0.2751 C   0  0  0  0  0  0  0  0  0  0  0  0
    3.1678   -2.7334    0.2712 C   0  0  0  0  0  0  0  0  0  0  0  0
    4.1605   -1.8433   -0.1296 C   0  0  0  0  0  0  0  0  0  0  0  0
   -4.9106   -0.4934    0.0374 C   0  0  0  0  0  0  0  0  0  0  0  0
   -4.5166   -1.8129    0.2627 C   0  0  0  0  0  0  0  0  0  0  0  0
    1.9501    4.5896   -0.6174 C   0  0  0  0  0  0  0  0  0  0  0  0
    1.7744    4.7193    1.8995 C   0  0  0  0  0  0  0  0  0  0  0  0
    0.6730    2.3119   -1.4258 H   0  0  0  0  0  0  0  0  0  0  0  0
    0.9562    2.1486    1.6071 H   0  0  0  0  0  0  0  0  0  0  0  0
    1.0736   -3.0484    0.5982 H   0  0  0  0  0  0  0  0  0  0  0  0
    4.5870    0.1523   -0.8269 H   0  0  0  0  0  0  0  0  0  0  0  0
   -2.8501   -3.1729    0.4495 H   0  0  0  0  0  0  0  0  0  0  0  0
   -5.9679   -0.2390    0.0287 H   0  0  0  0  0  0  0  0  0  0  0  0
    1.2009    5.3562   -0.8411 H   0  0  0  0  0  0  0  0  0  0  0  0
    2.9220    5.0851   -0.5119 H   0  0  0  0  0  0  0  0  0  0  0  0
    2.0364    3.9346   -1.4869 H   0  0  0  0  0  0  0  0  0  0  0  0
    1.4881    4.1700    2.8023 H   0  0  0  0  0  0  0  0  0  0  0  0
    2.8209    5.0211    2.0091 H   0  0  0  0  0  0  0  0  0  0  0  0
    1.1531    5.6189    1.8442 H   0  0  0  0  0  0  0  0  0  0  0  0
   -3.6425    2.3714   -0.5166 H   0  0  0  0  0  0  0  0  0  0  0  0
    4.4524   -4.1102    0.5737 H   0  0  0  0  0  0  0  0  0  0  0  0
    6.0108   -1.4795   -0.4595 H   0  0  0  0  0  0  0  0  0  0  0  0
   -5.0072   -3.6289    0.6077 H   0  0  0  0  0  0  0  0  0  0  0  0
  1  8  1  0  0  0  0
  1 12  1  0  0  0  0
  2 10  1  0  0  0  0
  2 15  1  0  0  0  0
  3 13  2  0  0  0  0
  4 19  1  0  0  0  0
  4 40  1  0  0  0  0
  5 22  1  0  0  0  0
  5 41  1  0  0  0  0
  6 23  1  0  0  0  0
  6 42  1  0  0  0  0
  7 25  1  0  0  0  0
  7 43  1  0  0  0  0
  8  9  1  0  0  0  0
  8 16  1  0  0  0  0
  8 28  1  0  0  0  0
  9 10  2  0  0  0  0
  9 13  1  0  0  0  0
 10 11  1  0  0  0  0
 11 12  1  0  0  0  0
 11 17  2  0  0  0  0
 12 18  2  0  0  0  0
 13 14  1  0  0  0  0
 14 15  1  0  0  0  0
 14 19  2  0  0  0  0
 15 21  2  0  0  0  0
 16 20  2  0  0  0  0
 16 29  1  0  0  0  0
 17 22  1  0  0  0  0
 17 30  1  0  0  0  0
 18 23  1  0  0  0  0
 18 31  1  0  0  0  0
 19 24  1  0  0  0  0
 20 26  1  0  0  0  0
 20 27  1  0  0  0  0
 21 25  1  0  0  0  0
 21 32  1  0  0  0  0
 22 23  2  0  0  0  0
 24 25  2  0  0  0  0
 24 33  1  0  0  0  0
 26 34  1  0  0  0  0
 26 35  1  0  0  0  0
 26 36  1  0  0  0  0
 27 37  1  0  0  0  0
 27 38  1  0  0  0  0
 27 39  1  0  0  0  0
M  END
> <PUBCHEM_COMPOUND_CID>
10571026

> <PUBCHEM_CONFORMER_RMSD>
0.6

> <PUBCHEM_CONFORMER_DIVERSEORDER>
1
2

> <PUBCHEM_MMFF94_PARTIAL_CHARGES>
36
1 -0.36
10 0.05
11 0.03
12 0.08
13 0.47
14 0.09
15 0.08
16 -0.29
17 -0.15
18 -0.15
19 0.08
2 -0.16
20 -0.28
21 -0.15
22 0.08
23 0.08
24 -0.15
25 0.08
26 0.14
27 0.14
29 0.15
3 -0.57
30 0.15
31 0.15
32 0.15
33 0.15
4 -0.53
40 0.45
41 0.45
42 0.45
43 0.45
5 -0.53
6 -0.53
7 -0.53
8 0.56
9 -0.12

> <PUBCHEM_EFFECTIVE_ROTOR_COUNT>
1.4

> <PUBCHEM_PHARMACOPHORE_FEATURES>
12
1 1 acceptor
1 2 acceptor
1 3 acceptor
1 4 donor
1 5 donor
1 6 donor
1 7 donor
3 20 26 27 hydrophobe
6 1 8 9 10 11 12 rings
6 11 12 17 18 22 23 rings
6 14 15 19 21 24 25 rings
6 2 9 10 13 14 15 rings

> <PUBCHEM_HEAVY_ATOM_COUNT>
27

> <PUBCHEM_ATOM_DEF_STEREO_COUNT>
0

> <PUBCHEM_ATOM_UDEF_STEREO_COUNT>
1

> <PUBCHEM_BOND_DEF_STEREO_COUNT>
0

> <PUBCHEM_BOND_UDEF_STEREO_COUNT>
0

> <PUBCHEM_ISOTOPIC_ATOM_COUNT>
0

> <PUBCHEM_COMPONENT_COUNT>
1

> <PUBCHEM_CACTVS_TAUTO_COUNT>
138

> <PUBCHEM_CONFORMER_ID>
00A14D1200000001

> <PUBCHEM_MMFF94_ENERGY>
78.1804

> <PUBCHEM_FEATURE_SELFOVERLAP>
60.982

> <PUBCHEM_SHAPE_FINGERPRINT>
10411042 1 18410295779004179070
10622 236 17628616851287793167
1100329 8 18196376918486717609
11045515 52 18189338965926353004
11070050 100 17484241116739661761
12403259 226 18408319978057210205
12788726 201 18047190739891401738
13004483 165 18121771734531843842
13140716 1 17978506765180964194
13533116 47 18267307706748442091
13540713 4 18189043343944112589
138480 1 18410012156385344004
13955234 65 18196656408929282411
14790565 3 17975984481344423420
14863182 85 17756996966568821685
14866123 147 17042606414440043378
14955137 171 18272375260971669462
15042514 8 18050286964292236070
15131766 46 15622796343083574898
15196674 1 18335423456394127023
15230672 131 16248578635340688550
15475509 84 18200051564051659505
15927050 60 17764873885471986814
16087824 20 17977387136280509733
17492 89 18337110193748023403
17980427 23 17560806476876625585
17980427 26 17983849257826150636
18681886 176 18341891901002935458
18785283 64 18192145112931987832
20028762 73 16613086097122773215
20600515 1 18196944261764142220
20775438 99 17760316255155975165
21033648 29 17488441023608914603
21049683 271 18262248823441713572
21120745 212 18126866901923119956
21133410 127 17751071630078755645
21267235 1 18335431127132280263
21703447 108 18266165305360918707
21796203 349 18122099530567799410
221490 88 18334863843825440835
22149856 69 17829067734179366931
22182313 1 18043231630690523021
23366157 5 18188206631905104828
23557571 272 18126286329423237430
23559900 14 18410003360576989449
3004659 81 18041001675007106558
3091708 16 9212915140504645552
335352 9 18264208020239541581
3421961 26 18337955709203534067
350125 39 18193560197081572284
4409770 3 17756137887041841077
5104073 3 18410576167195538715
57124632 79 18125149687355060880
58807428 26 17836634602232289680
6442390 28 17691125258981841705
6679774 75 17900806461154636912
7364860 26 18340205309909756084
79837 15 17115505139510643624
9709674 26 18262522614690347707
9777508 108 17043732881699079672
9981440 41 17761767772985610265

> <PUBCHEM_SHAPE_MULTIPOLES>
514.56
9.45
5.67
0.9
8.16
4.95
-0.21
-7.49
-0.29
-6.84
-1.85
-0.43
0.77
0.9

> <PUBCHEM_SHAPE_SELFOVERLAP>
1153.579

> <PUBCHEM_SHAPE_VOLUME>
271.4

> <PUBCHEM_COORDINATE_TYPE>
2
5
10

$$$$
