10573961
  -OEChem-03292013303D

 66 69  0     1  0  0  0  0  0999 V2000
   -1.1112   -2.8080   -1.5363 O   0  0  0  0  0  0  0  0  0  0  0  0
   -3.2889   -1.5051    0.1789 O   0  0  0  0  0  0  0  0  0  0  0  0
   -3.5479    2.0209   -0.8019 O   0  0  0  0  0  0  0  0  0  0  0  0
   -5.8578   -0.6970    0.1180 O   0  0  0  0  0  0  0  0  0  0  0  0
   -6.4321    1.0084    2.2613 O   0  0  0  0  0  0  0  0  0  0  0  0
    1.7523   -2.1223   -0.4158 C   0  0  2  0  0  0  0  0  0  0  0  0
    0.9426   -0.8155   -0.7953 C   0  0  1  0  0  0  0  0  0  0  0  0
   -0.4248   -0.9530   -0.0631 C   0  0  2  0  0  0  0  0  0  0  0  0
   -0.6883   -2.4717   -0.2160 C   0  0  2  0  0  0  0  0  0  0  0  0
    0.6653   -3.1483    0.0169 C   0  0  0  0  0  0  0  0  0  0  0  0
    2.7904   -1.9515    0.7414 C   0  0  0  0  0  0  0  0  0  0  0  0
    1.7136    0.4698   -0.6315 C   0  0  0  0  0  0  0  0  0  0  0  0
   -1.5324   -0.1185   -0.7297 C   0  0  0  0  0  0  0  0  0  0  0  0
    2.4965   -2.6398   -1.6665 C   0  0  0  0  0  0  0  0  0  0  0  0
   -0.3768   -0.5639    1.4263 C   0  0  0  0  0  0  0  0  0  0  0  0
    3.5442   -0.6737    0.6807 C   0  0  0  0  0  0  0  0  0  0  0  0
    2.9252    0.4630    0.0338 C   0  0  0  0  0  0  0  0  0  0  0  0
   -2.8673   -0.1539    0.0215 C   0  0  1  0  0  0  0  0  0  0  0  0
    3.7532    1.5816    0.1360 C   0  0  0  0  0  0  0  0  0  0  0  0
    4.7429   -0.2763    1.1445 C   0  0  0  0  0  0  0  0  0  0  0  0
    1.3275    1.6887   -1.1998 C   0  0  0  0  0  0  0  0  0  0  0  0
    5.0067    1.1962    0.8585 C   0  0  0  0  0  0  0  0  0  0  0  0
   -3.9904    0.6733   -0.6431 C   0  0  1  0  0  0  0  0  0  0  0  0
    3.3677    2.7869   -0.4115 C   0  0  0  0  0  0  0  0  0  0  0  0
    2.1400    2.8356   -1.0806 C   0  0  0  0  0  0  0  0  0  0  0  0
    5.7437   -1.0812    1.8938 C   0  0  0  0  0  0  0  0  0  0  0  0
   -5.3703    0.6489    0.0806 C   0  0  2  0  0  0  0  0  0  0  0  0
    4.2238    3.9988   -0.3082 C   0  0  0  0  0  0  0  0  0  0  0  0
   -5.2089    1.1214    1.5407 C   0  0  0  0  0  0  0  0  0  0  0  0
   -6.4385    1.4863   -0.6333 C   0  0  0  0  0  0  0  0  0  0  0  0
    0.7383   -0.8699   -1.8758 H   0  0  0  0  0  0  0  0  0  0  0  0
   -1.4205   -2.8749    0.4879 H   0  0  0  0  0  0  0  0  0  0  0  0
    0.7597   -3.3905    1.0818 H   0  0  0  0  0  0  0  0  0  0  0  0
    0.7474   -4.0916   -0.5353 H   0  0  0  0  0  0  0  0  0  0  0  0
    3.4850   -2.8011    0.7389 H   0  0  0  0  0  0  0  0  0  0  0  0
    2.2935   -1.9874    1.7165 H   0  0  0  0  0  0  0  0  0  0  0  0
   -1.6845   -0.4381   -1.7675 H   0  0  0  0  0  0  0  0  0  0  0  0
   -1.2274    0.9294   -0.7740 H   0  0  0  0  0  0  0  0  0  0  0  0
    3.2352   -1.9135   -2.0221 H   0  0  0  0  0  0  0  0  0  0  0  0
    3.0247   -3.5756   -1.4510 H   0  0  0  0  0  0  0  0  0  0  0  0
    1.8063   -2.8406   -2.4927 H   0  0  0  0  0  0  0  0  0  0  0  0
   -0.3395    0.5240    1.5546 H   0  0  0  0  0  0  0  0  0  0  0  0
   -1.2363   -0.9489    1.9855 H   0  0  0  0  0  0  0  0  0  0  0  0
    0.4983   -0.9663    1.9361 H   0  0  0  0  0  0  0  0  0  0  0  0
   -2.6985    0.2686    1.0151 H   0  0  0  0  0  0  0  0  0  0  0  0
    0.4187    1.7677   -1.7882 H   0  0  0  0  0  0  0  0  0  0  0  0
   -0.4039   -2.6000   -2.1668 H   0  0  0  0  0  0  0  0  0  0  0  0
    5.8859    1.3175    0.2187 H   0  0  0  0  0  0  0  0  0  0  0  0
    5.1174    1.7617    1.7885 H   0  0  0  0  0  0  0  0  0  0  0  0
   -4.1441    0.2644   -1.6504 H   0  0  0  0  0  0  0  0  0  0  0  0
    1.8029    3.7605   -1.5433 H   0  0  0  0  0  0  0  0  0  0  0  0
    5.9336   -0.6334    2.8743 H   0  0  0  0  0  0  0  0  0  0  0  0
    6.6880   -1.1203    1.3420 H   0  0  0  0  0  0  0  0  0  0  0  0
    5.4060   -2.1092    2.0557 H   0  0  0  0  0  0  0  0  0  0  0  0
   -4.0368   -1.5148    0.7991 H   0  0  0  0  0  0  0  0  0  0  0  0
    5.1571    3.8528   -0.8614 H   0  0  0  0  0  0  0  0  0  0  0  0
    3.7266    4.8837   -0.7195 H   0  0  0  0  0  0  0  0  0  0  0  0
    4.4589    4.2136    0.7395 H   0  0  0  0  0  0  0  0  0  0  0  0
   -3.2668    2.3517    0.0676 H   0  0  0  0  0  0  0  0  0  0  0  0
   -4.8848    2.1649    1.5957 H   0  0  0  0  0  0  0  0  0  0  0  0
   -4.4934    0.5073    2.0931 H   0  0  0  0  0  0  0  0  0  0  0  0
   -6.1908    2.5525   -0.6251 H   0  0  0  0  0  0  0  0  0  0  0  0
   -7.4235    1.3542   -0.1718 H   0  0  0  0  0  0  0  0  0  0  0  0
   -6.5435    1.1662   -1.6763 H   0  0  0  0  0  0  0  0  0  0  0  0
   -5.9396   -1.0101   -0.7991 H   0  0  0  0  0  0  0  0  0  0  0  0
   -6.7293    0.0856    2.1847 H   0  0  0  0  0  0  0  0  0  0  0  0
  1  9  1  0  0  0  0
  1 47  1  0  0  0  0
  2 18  1  0  0  0  0
  2 55  1  0  0  0  0
  3 23  1  0  0  0  0
  3 59  1  0  0  0  0
  4 27  1  0  0  0  0
  4 65  1  0  0  0  0
  5 29  1  0  0  0  0
  5 66  1  0  0  0  0
  6  7  1  0  0  0  0
  6 10  1  0  0  0  0
  6 11  1  0  0  0  0
  6 14  1  0  0  0  0
  7  8  1  0  0  0  0
  7 12  1  0  0  0  0
  7 31  1  0  0  0  0
  8  9  1  0  0  0  0
  8 13  1  0  0  0  0
  8 15  1  0  0  0  0
  9 10  1  0  0  0  0
  9 32  1  0  0  0  0
 10 33  1  0  0  0  0
 10 34  1  0  0  0  0
 11 16  1  0  0  0  0
 11 35  1  0  0  0  0
 11 36  1  0  0  0  0
 12 17  2  0  0  0  0
 12 21  1  0  0  0  0
 13 18  1  0  0  0  0
 13 37  1  0  0  0  0
 13 38  1  0  0  0  0
 14 39  1  0  0  0  0
 14 40  1  0  0  0  0
 14 41  1  0  0  0  0
 15 42  1  0  0  0  0
 15 43  1  0  0  0  0
 15 44  1  0  0  0  0
 16 17  1  0  0  0  0
 16 20  2  0  0  0  0
 17 19  1  0  0  0  0
 18 23  1  0  0  0  0
 18 45  1  0  0  0  0
 19 22  1  0  0  0  0
 19 24  2  0  0  0  0
 20 22  1  0  0  0  0
 20 26  1  0  0  0  0
 21 25  2  0  0  0  0
 21 46  1  0  0  0  0
 22 48  1  0  0  0  0
 22 49  1  0  0  0  0
 23 27  1  0  0  0  0
 23 50  1  0  0  0  0
 24 25  1  0  0  0  0
 24 28  1  0  0  0  0
 25 51  1  0  0  0  0
 26 52  1  0  0  0  0
 26 53  1  0  0  0  0
 26 54  1  0  0  0  0
 27 29  1  0  0  0  0
 27 30  1  0  0  0  0
 28 56  1  0  0  0  0
 28 57  1  0  0  0  0
 28 58  1  0  0  0  0
 29 60  1  0  0  0  0
 29 61  1  0  0  0  0
 30 62  1  0  0  0  0
 30 63  1  0  0  0  0
 30 64  1  0  0  0  0
M  END
> <PUBCHEM_COMPOUND_CID>
10573961

> <PUBCHEM_CONFORMER_RMSD>
0.8

> <PUBCHEM_CONFORMER_DIVERSEORDER>
1
5
3
6
2
4

> <PUBCHEM_MMFF94_PARTIAL_CHARGES>
30
1 -0.68
11 0.14
12 -0.14
16 -0.17
17 0.03
18 0.28
19 -0.14
2 -0.68
20 -0.28
21 -0.15
22 0.28
23 0.28
24 -0.14
25 -0.15
26 0.14
27 0.28
28 0.14
29 0.28
3 -0.68
4 -0.68
46 0.15
47 0.4
5 -0.68
51 0.15
55 0.4
59 0.4
65 0.4
66 0.4
7 0.14
9 0.28

> <PUBCHEM_EFFECTIVE_ROTOR_COUNT>
6

> <PUBCHEM_PHARMACOPHORE_FEATURES>
14
1 1 acceptor
1 1 donor
1 2 acceptor
1 2 donor
1 3 acceptor
1 3 donor
1 4 acceptor
1 4 donor
1 5 acceptor
1 5 donor
5 16 17 19 20 22 rings
5 6 7 8 9 10 rings
6 12 17 19 21 24 25 rings
6 6 7 11 12 16 17 rings

> <PUBCHEM_HEAVY_ATOM_COUNT>
30

> <PUBCHEM_ATOM_DEF_STEREO_COUNT>
7

> <PUBCHEM_ATOM_UDEF_STEREO_COUNT>
0

> <PUBCHEM_BOND_DEF_STEREO_COUNT>
0

> <PUBCHEM_BOND_UDEF_STEREO_COUNT>
0

> <PUBCHEM_ISOTOPIC_ATOM_COUNT>
0

> <PUBCHEM_COMPONENT_COUNT>
1

> <PUBCHEM_CACTVS_TAUTO_COUNT>
1

> <PUBCHEM_CONFORMER_ID>
00A1588900000001

> <PUBCHEM_MMFF94_ENERGY>
118.6368

> <PUBCHEM_FEATURE_SELFOVERLAP>
71.358

> <PUBCHEM_SHAPE_FINGERPRINT>
10076449 9 18192440676061000950
10319926 262 16732987514209421449
10411042 1 17833829370329482326
10721379 63 15265962960126907148
10816530 90 18335149700412586252
1100329 8 18337100259487985722
12035758 1 18335689508849899666
12107183 9 18336816546823037554
12403259 118 18338225076430521922
12403260 363 18265883838404696862
12422481 6 18260258651133472405
12633257 1 18260256469543209050
12788726 201 17768242775466154255
12978246 48 18410290298520394785
13075007 39 17676784122931114345
13140716 1 18262510515846186838
13540713 5 18192979646889820046
13583140 156 17459451308794914839
13782708 43 15792002338579870722
13785724 45 18194118513377301986
14020679 6 17676203598272042850
14251764 30 13479402830540061056
14251764 38 18336549330848008201
14251764 75 18193568988832420624
14294032 229 17702109273407640207
14790565 3 18340771541387223937
14955137 171 18261954047083194498
15081414 286 18340206263661333094
15188451 53 15792024411144596995
15238133 3 18040156210673348278
15420108 30 18196361740388103236
15475509 35 16298655106468434200
15475509 8 18270413707069589910
1601671 61 18408882928495596846
16728300 4 17028218339114193090
17844677 252 18266745680234023525
17980427 23 18128513012347238398
19377110 9 18201445796524657707
20157964 124 18410570653111463093
20715895 44 18338793421289933337
21033648 29 18057580136619910832
21033650 10 15841012008557287737
21197605 99 18263086681351070707
21792934 111 17895199866844737433
21859007 373 17241873304182784053
22149856 69 17846235362601032507
22182313 1 18119518847911838438
22950370 63 8934732105828385885
23559900 14 18271540697002060991
23569914 152 9724582622298692505
3178227 256 18260267422105310240
335352 9 18410006642359258918
350125 39 18334853922535506836
3680242 22 18408886226271221352
392239 28 18334579036375952553
4340502 62 18201997720395229231
474 4 18411418410298042891
5104073 3 18261110837005997467
513532 50 17703799089587228942
57527585 21 14690058801694740594
6058803 2 18049425244315066054
7970288 3 8213877945984792841
960060 61 9943805569409740241
9896288 288 17614286989335325122

> <PUBCHEM_SHAPE_MULTIPOLES>
588.04
13.48
3.74
1.48
18.9
0.87
-0.42
7.37
-6.03
-3.85
1.29
0.18
-0.2
-1.01

> <PUBCHEM_SHAPE_SELFOVERLAP>
1268.314

> <PUBCHEM_SHAPE_VOLUME>
325.6

> <PUBCHEM_COORDINATE_TYPE>
2
5
10

$$$$
