10575981
  -OEChem-03292013303D

 68 70  0     1  0  0  0  0  0999 V2000
   -4.0914    4.2413    0.6854 O   0  0  0  0  0  0  0  0  0  0  0  0
   -1.0605    0.7570    1.7419 O   0  0  0  0  0  0  0  0  0  0  0  0
   -2.6925    0.3480   -2.0169 O   0  0  0  0  0  0  0  0  0  0  0  0
    0.6839   -0.5625   -2.1018 O   0  0  0  0  0  0  0  0  0  0  0  0
    2.6553    1.3220   -2.0850 O   0  0  0  0  0  0  0  0  0  0  0  0
    8.4446    1.8114    1.0730 O   0  0  0  0  0  0  0  0  0  0  0  0
   -2.8732   -0.1429    0.5985 N   0  0  0  0  0  0  0  0  0  0  0  0
   -3.7811   -1.5782   -2.6483 N   0  0  0  0  0  0  0  0  0  0  0  0
    0.6141   -0.4732    0.2204 N   0  0  0  0  0  0  0  0  0  0  0  0
   -5.2519    0.1186    0.6793 C   0  0  2  0  0  0  0  0  0  0  0  0
   -3.9332    0.5267    1.3683 C   0  0  2  0  0  0  0  0  0  0  0  0
   -4.9112   -1.2529    0.0828 C   0  0  0  0  0  0  0  0  0  0  0  0
   -3.4365   -1.1444   -0.3053 C   0  0  1  0  0  0  0  0  0  0  0  0
   -5.7770    1.0773   -0.4016 C   0  0  0  0  0  0  0  0  0  0  0  0
   -3.7745    2.0381    1.5591 C   0  0  0  0  0  0  0  0  0  0  0  0
   -4.2003    2.8613    0.3507 C   0  0  1  0  0  0  0  0  0  0  0  0
   -5.6413    2.5409   -0.0217 C   0  0  0  0  0  0  0  0  0  0  0  0
   -1.5338   -0.0883    0.9795 C   0  0  0  0  0  0  0  0  0  0  0  0
   -3.2524   -0.7062   -1.7262 C   0  0  0  0  0  0  0  0  0  0  0  0
   -0.6328   -1.1546    0.4055 C   0  0  2  0  0  0  0  0  0  0  0  0
   -0.5398   -2.3352    1.3640 C   0  0  0  0  0  0  0  0  0  0  0  0
    0.4131   -3.4533    0.8953 C   0  0  0  0  0  0  0  0  0  0  0  0
    1.1806   -0.2278   -1.0288 C   0  0  0  0  0  0  0  0  0  0  0  0
   -0.0059   -4.0519   -0.4481 C   0  0  0  0  0  0  0  0  0  0  0  0
    0.4750   -4.5574    1.9544 C   0  0  0  0  0  0  0  0  0  0  0  0
    2.5171    0.4977   -0.9365 C   0  0  1  0  0  0  0  0  0  0  0  0
    3.6734   -0.5069   -0.9028 C   0  0  0  0  0  0  0  0  0  0  0  0
    4.9464    0.1114   -0.3763 C   0  0  0  0  0  0  0  0  0  0  0  0
    5.8444    0.7162   -1.2557 C   0  0  0  0  0  0  0  0  0  0  0  0
    5.2240    0.0778    0.9903 C   0  0  0  0  0  0  0  0  0  0  0  0
    7.0200    1.2873   -0.7687 C   0  0  0  0  0  0  0  0  0  0  0  0
    6.3996    0.6489    1.4774 C   0  0  0  0  0  0  0  0  0  0  0  0
    7.2977    1.2536    0.5979 C   0  0  0  0  0  0  0  0  0  0  0  0
   -6.0380    0.0198    1.4386 H   0  0  0  0  0  0  0  0  0  0  0  0
   -3.8907    0.0597    2.3623 H   0  0  0  0  0  0  0  0  0  0  0  0
   -5.0131   -2.0088    0.8729 H   0  0  0  0  0  0  0  0  0  0  0  0
   -5.5853   -1.5402   -0.7296 H   0  0  0  0  0  0  0  0  0  0  0  0
   -2.9595   -2.1202   -0.1774 H   0  0  0  0  0  0  0  0  0  0  0  0
   -5.2581    0.9249   -1.3527 H   0  0  0  0  0  0  0  0  0  0  0  0
   -6.8308    0.8479   -0.6029 H   0  0  0  0  0  0  0  0  0  0  0  0
   -2.7623    2.3238    1.8565 H   0  0  0  0  0  0  0  0  0  0  0  0
   -4.4014    2.3388    2.4112 H   0  0  0  0  0  0  0  0  0  0  0  0
   -3.5365    2.6708   -0.5002 H   0  0  0  0  0  0  0  0  0  0  0  0
   -6.3116    2.7826    0.8129 H   0  0  0  0  0  0  0  0  0  0  0  0
   -5.9620    3.1783   -0.8545 H   0  0  0  0  0  0  0  0  0  0  0  0
   -0.9790   -1.4788   -0.5744 H   0  0  0  0  0  0  0  0  0  0  0  0
   -3.1596    4.4194    0.8990 H   0  0  0  0  0  0  0  0  0  0  0  0
   -0.1984   -1.9775    2.3457 H   0  0  0  0  0  0  0  0  0  0  0  0
   -1.5390   -2.7561    1.5347 H   0  0  0  0  0  0  0  0  0  0  0  0
   -3.7245   -1.3823   -3.6422 H   0  0  0  0  0  0  0  0  0  0  0  0
   -4.2226   -2.4525   -2.3823 H   0  0  0  0  0  0  0  0  0  0  0  0
    1.0965   -0.1358    1.0490 H   0  0  0  0  0  0  0  0  0  0  0  0
    1.4243   -3.0418    0.7875 H   0  0  0  0  0  0  0  0  0  0  0  0
    0.6295   -4.9057   -0.7075 H   0  0  0  0  0  0  0  0  0  0  0  0
    0.0896   -3.3250   -1.2597 H   0  0  0  0  0  0  0  0  0  0  0  0
   -1.0440   -4.4001   -0.4208 H   0  0  0  0  0  0  0  0  0  0  0  0
    0.8090   -4.1552    2.9167 H   0  0  0  0  0  0  0  0  0  0  0  0
    1.1805   -5.3413    1.6591 H   0  0  0  0  0  0  0  0  0  0  0  0
   -0.5057   -5.0223    2.1025 H   0  0  0  0  0  0  0  0  0  0  0  0
    2.5180    1.1516   -0.0573 H   0  0  0  0  0  0  0  0  0  0  0  0
    3.8610   -0.9224   -1.9018 H   0  0  0  0  0  0  0  0  0  0  0  0
    3.4157   -1.3653   -0.2683 H   0  0  0  0  0  0  0  0  0  0  0  0
    2.7034    0.7476   -2.8682 H   0  0  0  0  0  0  0  0  0  0  0  0
    5.6392    0.7493   -2.3223 H   0  0  0  0  0  0  0  0  0  0  0  0
    4.5307   -0.3883    1.6855 H   0  0  0  0  0  0  0  0  0  0  0  0
    7.7155    1.7573   -1.4586 H   0  0  0  0  0  0  0  0  0  0  0  0
    6.6039    0.6168    2.5443 H   0  0  0  0  0  0  0  0  0  0  0  0
    8.4740    1.6974    2.0385 H   0  0  0  0  0  0  0  0  0  0  0  0
  1 16  1  0  0  0  0
  1 47  1  0  0  0  0
  2 18  2  0  0  0  0
  3 19  2  0  0  0  0
  4 23  2  0  0  0  0
  5 26  1  0  0  0  0
  5 63  1  0  0  0  0
  6 33  1  0  0  0  0
  6 68  1  0  0  0  0
  7 11  1  0  0  0  0
  7 13  1  0  0  0  0
  7 18  1  0  0  0  0
  8 19  1  0  0  0  0
  8 50  1  0  0  0  0
  8 51  1  0  0  0  0
  9 20  1  0  0  0  0
  9 23  1  0  0  0  0
  9 52  1  0  0  0  0
 10 11  1  0  0  0  0
 10 12  1  0  0  0  0
 10 14  1  0  0  0  0
 10 34  1  0  0  0  0
 11 15  1  0  0  0  0
 11 35  1  0  0  0  0
 12 13  1  0  0  0  0
 12 36  1  0  0  0  0
 12 37  1  0  0  0  0
 13 19  1  0  0  0  0
 13 38  1  0  0  0  0
 14 17  1  0  0  0  0
 14 39  1  0  0  0  0
 14 40  1  0  0  0  0
 15 16  1  0  0  0  0
 15 41  1  0  0  0  0
 15 42  1  0  0  0  0
 16 17  1  0  0  0  0
 16 43  1  0  0  0  0
 17 44  1  0  0  0  0
 17 45  1  0  0  0  0
 18 20  1  0  0  0  0
 20 21  1  0  0  0  0
 20 46  1  0  0  0  0
 21 22  1  0  0  0  0
 21 48  1  0  0  0  0
 21 49  1  0  0  0  0
 22 24  1  0  0  0  0
 22 25  1  0  0  0  0
 22 53  1  0  0  0  0
 23 26  1  0  0  0  0
 24 54  1  0  0  0  0
 24 55  1  0  0  0  0
 24 56  1  0  0  0  0
 25 57  1  0  0  0  0
 25 58  1  0  0  0  0
 25 59  1  0  0  0  0
 26 27  1  0  0  0  0
 26 60  1  0  0  0  0
 27 28  1  0  0  0  0
 27 61  1  0  0  0  0
 27 62  1  0  0  0  0
 28 29  2  0  0  0  0
 28 30  1  0  0  0  0
 29 31  1  0  0  0  0
 29 64  1  0  0  0  0
 30 32  2  0  0  0  0
 30 65  1  0  0  0  0
 31 33  2  0  0  0  0
 31 66  1  0  0  0  0
 32 33  1  0  0  0  0
 32 67  1  0  0  0  0
M  END
> <PUBCHEM_COMPOUND_CID>
10575981

> <PUBCHEM_CONFORMER_RMSD>
1.2

> <PUBCHEM_CONFORMER_DIVERSEORDER>
1
158
93
71
201
240
230
137
53
187
97
211
50
199
174
209
119
110
99
87
122
162
31
168
17
38
161
94
207
144
205
225
208
223
76
177
176
169
111
175
131
46
100
130
22
183
185
206
101
227
190
221
24
32
69
39
83
198
233
124
136
215
44
3
72
102
104
49
134
191
42
135
220
107
192
188
163
212
121
12
172
26
150
196
62
67
173
153
127
239
80
167
218
106
81
63
202
195
193
74
58
68
159
236
28
85
154
217
108
90
113
149
139
79
219
75
132
34
203
228
57
197
157
118
216
14
54
237
229
91
55
178
123
23
77
21
125
103
20
48
126
35
184
36
234
8
98
164
133
194
89
47
142
156
166
105
65
151
171
16
56
115
231
186
15
13
96
224
64
210
18
238
5
152
120
232
145
117
73
92
140
60
40
146
4
214
86
11
200
138
180
88
41
226
160
30
129
165
84
179
9
204
2
19
27
45
51
59
147
25
7
213
29
78
37
95
222
112
189
82
109
235
155
128
6
43
182
66
181
114
61
116
170
10
141
70
143
148
33
52

> <PUBCHEM_MMFF94_PARTIAL_CHARGES>
34
1 -0.68
11 0.3
13 0.36
16 0.28
18 0.57
19 0.57
2 -0.57
20 0.36
23 0.57
26 0.34
27 0.14
28 -0.14
29 -0.15
3 -0.57
30 -0.15
31 -0.15
32 -0.15
33 0.08
4 -0.57
47 0.4
5 -0.68
50 0.37
51 0.37
52 0.37
6 -0.53
63 0.4
64 0.15
65 0.15
66 0.15
67 0.15
68 0.45
7 -0.66
8 -0.8
9 -0.73

> <PUBCHEM_EFFECTIVE_ROTOR_COUNT>
11.4

> <PUBCHEM_PHARMACOPHORE_FEATURES>
14
1 1 acceptor
1 1 donor
1 2 acceptor
1 3 acceptor
1 4 acceptor
1 5 acceptor
1 5 donor
1 6 donor
1 8 donor
1 9 donor
3 22 24 25 hydrophobe
5 7 10 11 12 13 rings
6 10 11 14 15 16 17 rings
6 28 29 30 31 32 33 rings

> <PUBCHEM_HEAVY_ATOM_COUNT>
33

> <PUBCHEM_ATOM_DEF_STEREO_COUNT>
5

> <PUBCHEM_ATOM_UDEF_STEREO_COUNT>
1

> <PUBCHEM_BOND_DEF_STEREO_COUNT>
0

> <PUBCHEM_BOND_UDEF_STEREO_COUNT>
0

> <PUBCHEM_ISOTOPIC_ATOM_COUNT>
0

> <PUBCHEM_COMPONENT_COUNT>
1

> <PUBCHEM_CACTVS_TAUTO_COUNT>
8

> <PUBCHEM_CONFORMER_ID>
00A1606D00000001

> <PUBCHEM_MMFF94_ENERGY>
80.9566

> <PUBCHEM_FEATURE_SELFOVERLAP>
71.222

> <PUBCHEM_SHAPE_FINGERPRINT>
12422481 6 17168991079922022292
12988421 55 18040148513701972682
13726171 33 17702676432607989969
14251764 30 8502657000155356084
14466204 15 18260552181983539412
14739800 52 18269267955196501993
14955137 171 8502360131673316171
15021287 119 16008742559236182910
15183329 4 17603307059740287132
15352257 5 11314301746684241432
15463212 79 18201719531564463599
20511986 3 18271520893023253701
20554085 129 18412256220883548794
21033648 29 18336274474636920464
21424621 283 18410856542860808210
23559900 14 14332824016645706515
4112364 45 18122911923979405849
44249763 50 17560503063222777848
5171179 24 17537996970614086970
6371009 1 18260834816801802357
9981440 41 18260562112374917211

> <PUBCHEM_SHAPE_MULTIPOLES>
628.97
18.01
3.98
1.98
30.2
3.25
0.69
-16.39
-2.19
-3.26
-1.83
-0.18
0.4
-1.23

> <PUBCHEM_SHAPE_SELFOVERLAP>
1312.366

> <PUBCHEM_SHAPE_VOLUME>
355.4

> <PUBCHEM_COORDINATE_TYPE>
2
5
10

$$$$
