10582490
  -OEChem-03292013303D

 32 32  0     1  0  0  0  0  0999 V2000
    0.6669    0.8280   -0.4304 O   0  0  0  0  0  0  0  0  0  0  0  0
   -1.1287   -0.6351   -0.7116 O   0  0  0  0  0  0  0  0  0  0  0  0
    3.3323   -2.2862   -0.1758 O   0  0  0  0  0  0  0  0  0  0  0  0
    4.1022    0.3439    0.7436 O   0  0  0  0  0  0  0  0  0  0  0  0
    0.4613   -2.7460    0.3003 O   0  0  0  0  0  0  0  0  0  0  0  0
    1.3019    3.4499    0.0972 O   0  0  0  0  0  0  0  0  0  0  0  0
   -4.8359    0.1147    1.8468 N   0  0  0  0  0  0  0  0  0  0  0  0
    2.4097   -1.3228    0.3351 C   0  0  1  0  0  0  0  0  0  0  0  0
    2.9324    0.0686   -0.0226 C   0  0  1  0  0  0  0  0  0  0  0  0
    1.0287   -1.5682   -0.2727 C   0  0  2  0  0  0  0  0  0  0  0  0
    1.8752    1.1369    0.2665 C   0  0  1  0  0  0  0  0  0  0  0  0
    0.0838   -0.3986    0.0032 C   0  0  1  0  0  0  0  0  0  0  0  0
    2.3295    2.5193   -0.1910 C   0  0  0  0  0  0  0  0  0  0  0  0
   -2.0622    0.4134   -0.5049 C   0  0  0  0  0  0  0  0  0  0  0  0
   -3.3055    0.1089   -1.2760 C   0  0  0  0  0  0  0  0  0  0  0  0
   -4.5064   -0.0623   -0.7068 C   0  0  0  0  0  0  0  0  0  0  0  0
   -4.6852    0.0357    0.6990 C   0  0  0  0  0  0  0  0  0  0  0  0
    2.3900   -1.4563    1.4239 H   0  0  0  0  0  0  0  0  0  0  0  0
    3.2168    0.0922   -1.0823 H   0  0  0  0  0  0  0  0  0  0  0  0
    1.1110   -1.7426   -1.3529 H   0  0  0  0  0  0  0  0  0  0  0  0
    1.6555    1.1903    1.3415 H   0  0  0  0  0  0  0  0  0  0  0  0
   -0.1543   -0.3452    1.0744 H   0  0  0  0  0  0  0  0  0  0  0  0
    2.5099    2.5450   -1.2708 H   0  0  0  0  0  0  0  0  0  0  0  0
    3.2388    2.8388    0.3261 H   0  0  0  0  0  0  0  0  0  0  0  0
    3.0425   -3.1625    0.1288 H   0  0  0  0  0  0  0  0  0  0  0  0
    4.7444   -0.3624    0.5581 H   0  0  0  0  0  0  0  0  0  0  0  0
    1.0205   -3.4982    0.0432 H   0  0  0  0  0  0  0  0  0  0  0  0
   -2.2305    0.5453    0.5682 H   0  0  0  0  0  0  0  0  0  0  0  0
   -1.6600    1.3560   -0.8950 H   0  0  0  0  0  0  0  0  0  0  0  0
    0.4984    3.1531   -0.3634 H   0  0  0  0  0  0  0  0  0  0  0  0
   -3.2200    0.0245   -2.3562 H   0  0  0  0  0  0  0  0  0  0  0  0
   -5.3711   -0.2814   -1.3239 H   0  0  0  0  0  0  0  0  0  0  0  0
  1 11  1  0  0  0  0
  1 12  1  0  0  0  0
  2 12  1  0  0  0  0
  2 14  1  0  0  0  0
  3  8  1  0  0  0  0
  3 25  1  0  0  0  0
  4  9  1  0  0  0  0
  4 26  1  0  0  0  0
  5 10  1  0  0  0  0
  5 27  1  0  0  0  0
  6 13  1  0  0  0  0
  6 30  1  0  0  0  0
  7 17  3  0  0  0  0
  8  9  1  0  0  0  0
  8 10  1  0  0  0  0
  8 18  1  0  0  0  0
  9 11  1  0  0  0  0
  9 19  1  0  0  0  0
 10 12  1  0  0  0  0
 10 20  1  0  0  0  0
 11 13  1  0  0  0  0
 11 21  1  0  0  0  0
 12 22  1  0  0  0  0
 13 23  1  0  0  0  0
 13 24  1  0  0  0  0
 14 15  1  0  0  0  0
 14 28  1  0  0  0  0
 14 29  1  0  0  0  0
 15 16  2  0  0  0  0
 15 31  1  0  0  0  0
 16 17  1  0  0  0  0
 16 32  1  0  0  0  0
M  END
> <PUBCHEM_COMPOUND_CID>
10582490

> <PUBCHEM_CONFORMER_RMSD>
0.6

> <PUBCHEM_CONFORMER_DIVERSEORDER>
2
128
129
70
103
72
119
108
144
95
155
114
58
30
125
111
156
40
99
139
66
147
143
161
57
36
123
105
47
61
134
131
67
64
151
101
120
27
84
19
146
153
74
71
28
124
42
69
78
44
154
127
152
79
32
149
110
88
17
140
116
137
9
117
130
142
150
35
133
63
34
48
8
62
148
77
51
159
98
89
4
90
82
45
118
22
24
65
23
107
102
87
68
157
6
15
12
104
113
75
141
160
49
73
112
60
7
1
158
83
80
76
138
43
20
126
135
21
92
86
31
29
132
97
37
96
18
121
109
145
11
38
41
10
59
100
26
136
94
3
91
5
33
13
115
25
106
122
54
39
81
56
52
46
14
85
93
55
50
53
16

> <PUBCHEM_MMFF94_PARTIAL_CHARGES>
23
1 -0.56
10 0.28
11 0.28
12 0.56
13 0.28
14 0.42
15 -0.29
16 -0.09
17 0.49
2 -0.56
25 0.4
26 0.4
27 0.4
3 -0.68
30 0.4
31 0.15
32 0.15
4 -0.68
5 -0.68
6 -0.68
7 -0.56
8 0.28
9 0.28

> <PUBCHEM_EFFECTIVE_ROTOR_COUNT>
5.2

> <PUBCHEM_PHARMACOPHORE_FEATURES>
12
1 1 acceptor
1 2 acceptor
1 3 acceptor
1 3 donor
1 4 acceptor
1 4 donor
1 5 acceptor
1 5 donor
1 6 acceptor
1 6 donor
1 7 acceptor
6 1 8 9 10 11 12 rings

> <PUBCHEM_HEAVY_ATOM_COUNT>
17

> <PUBCHEM_ATOM_DEF_STEREO_COUNT>
5

> <PUBCHEM_ATOM_UDEF_STEREO_COUNT>
0

> <PUBCHEM_BOND_DEF_STEREO_COUNT>
1

> <PUBCHEM_BOND_UDEF_STEREO_COUNT>
0

> <PUBCHEM_ISOTOPIC_ATOM_COUNT>
0

> <PUBCHEM_COMPONENT_COUNT>
1

> <PUBCHEM_CACTVS_TAUTO_COUNT>
1

> <PUBCHEM_CONFORMER_ID>
00A179DA00000002

> <PUBCHEM_MMFF94_ENERGY>
37.295

> <PUBCHEM_FEATURE_SELFOVERLAP>
60.961

> <PUBCHEM_SHAPE_FINGERPRINT>
11471102 20 18410282593211467791
11615757 297 18341892987634091527
12236239 1 17775563144053662535
12390115 104 17689446296447795924
12644460 14 18335136518435092368
13140716 1 18120926463598617272
14251717 144 18410282610301659671
14252887 29 18410568449323897498
18186145 218 18342738546050545981
18785283 64 18115593793206644380
20606313 2 18410281498221524134
20645477 70 18266443348653634935
20671657 1 18199743811773720245
21041028 32 18268431235084290100
21503847 285 18202014196095225673
2255824 54 18412824698354319502
22854114 111 18411133671209555893
23598291 2 18060127765491625325
2748010 2 17904477760090532652
2838139 119 15265629984825273328
474 4 18341326803201226113
49207404 50 18115878571323857521
602551 16 16226055526048711635
6049 1 17895191078608057061
633830 44 18129671910208274005

> <PUBCHEM_SHAPE_MULTIPOLES>
309.66
8.69
2.62
1.02
10.44
1
-0.22
0.17
-2.02
-3.47
-0.04
1.42
0.03
0

> <PUBCHEM_SHAPE_SELFOVERLAP>
617.869

> <PUBCHEM_SHAPE_VOLUME>
177.9

> <PUBCHEM_COORDINATE_TYPE>
2
5
10

$$$$
