10594416
  -OEChem-03292013303D

 46 48  0     1  0  0  0  0  0999 V2000
    2.5409    0.3239   -2.0784 O   0  0  0  0  0  0  0  0  0  0  0  0
    1.4357   -1.2155    1.5662 O   0  0  0  0  0  0  0  0  0  0  0  0
   -4.6265   -1.4460    0.4187 O   0  0  0  0  0  0  0  0  0  0  0  0
   -3.2698   -3.5059   -0.8322 O   0  0  0  0  0  0  0  0  0  0  0  0
    3.6929   -0.4543    2.5779 O   0  0  0  0  0  0  0  0  0  0  0  0
    6.7787    1.6050   -0.3813 O   0  0  0  0  0  0  0  0  0  0  0  0
    0.8869   -0.9128   -0.7740 C   0  0  1  0  0  0  0  0  0  0  0  0
   -0.5860   -1.0550   -0.4537 C   0  0  0  0  0  0  0  0  0  0  0  0
    1.1621    0.2752   -1.6962 C   0  0  0  0  0  0  0  0  0  0  0  0
    1.7466   -0.7667    0.4688 C   0  0  0  0  0  0  0  0  0  0  0  0
    3.0528   -0.1017    0.2682 C   0  0  0  0  0  0  0  0  0  0  0  0
   -1.2641   -0.0133    0.1776 C   0  0  0  0  0  0  0  0  0  0  0  0
    3.3840    0.3876   -0.9992 C   0  0  0  0  0  0  0  0  0  0  0  0
   -2.6212   -0.1434    0.4720 C   0  0  0  0  0  0  0  0  0  0  0  0
   -1.2623   -2.2264   -0.7915 C   0  0  0  0  0  0  0  0  0  0  0  0
   -3.2992   -1.3149    0.1346 C   0  0  0  0  0  0  0  0  0  0  0  0
   -3.3316    0.9829    1.1481 C   0  0  0  0  0  0  0  0  0  0  0  0
   -2.6196   -2.3565   -0.4971 C   0  0  0  0  0  0  0  0  0  0  0  0
    3.9643    0.0003    1.3226 C   0  0  0  0  0  0  0  0  0  0  0  0
    4.6429    0.9483   -1.2196 C   0  0  0  0  0  0  0  0  0  0  0  0
    5.2138    0.5804    1.1007 C   0  0  0  0  0  0  0  0  0  0  0  0
    5.5545    1.0488   -0.1684 C   0  0  0  0  0  0  0  0  0  0  0  0
   -3.9312    1.9670    0.1746 C   0  0  0  0  0  0  0  0  0  0  0  0
   -5.2214    2.3339    0.0536 C   0  0  0  0  0  0  0  0  0  0  0  0
   -5.7518    3.3248   -0.9434 C   0  0  0  0  0  0  0  0  0  0  0  0
   -6.2712    1.7345    0.9513 C   0  0  0  0  0  0  0  0  0  0  0  0
    1.2453   -1.8280   -1.2665 H   0  0  0  0  0  0  0  0  0  0  0  0
    0.5781    0.1795   -2.6192 H   0  0  0  0  0  0  0  0  0  0  0  0
    0.8891    1.2396   -1.2471 H   0  0  0  0  0  0  0  0  0  0  0  0
   -0.7382    0.8993    0.4472 H   0  0  0  0  0  0  0  0  0  0  0  0
   -0.7404   -3.0430   -1.2842 H   0  0  0  0  0  0  0  0  0  0  0  0
   -4.0240    0.5972    1.8991 H   0  0  0  0  0  0  0  0  0  0  0  0
   -2.6038    1.5439    1.7524 H   0  0  0  0  0  0  0  0  0  0  0  0
    4.9052    1.3142   -2.2094 H   0  0  0  0  0  0  0  0  0  0  0  0
    5.9348    0.6659    1.9105 H   0  0  0  0  0  0  0  0  0  0  0  0
   -3.2153    2.4400   -0.4975 H   0  0  0  0  0  0  0  0  0  0  0  0
   -5.0296   -0.5849    0.5999 H   0  0  0  0  0  0  0  0  0  0  0  0
   -4.1991   -3.4231   -0.5559 H   0  0  0  0  0  0  0  0  0  0  0  0
    4.4571   -0.2882    3.1559 H   0  0  0  0  0  0  0  0  0  0  0  0
   -4.9561    3.7116   -1.5884 H   0  0  0  0  0  0  0  0  0  0  0  0
   -6.5036    2.8545   -1.5853 H   0  0  0  0  0  0  0  0  0  0  0  0
   -6.2104    4.1763   -0.4307 H   0  0  0  0  0  0  0  0  0  0  0  0
   -5.8943    1.2658    1.8603 H   0  0  0  0  0  0  0  0  0  0  0  0
   -6.9583    2.5192    1.2893 H   0  0  0  0  0  0  0  0  0  0  0  0
   -6.8581    0.9945    0.3971 H   0  0  0  0  0  0  0  0  0  0  0  0
    6.8452    1.8738   -1.3137 H   0  0  0  0  0  0  0  0  0  0  0  0
  1  9  1  0  0  0  0
  1 13  1  0  0  0  0
  2 10  2  0  0  0  0
  3 16  1  0  0  0  0
  3 37  1  0  0  0  0
  4 18  1  0  0  0  0
  4 38  1  0  0  0  0
  5 19  1  0  0  0  0
  5 39  1  0  0  0  0
  6 22  1  0  0  0  0
  6 46  1  0  0  0  0
  7  8  1  0  0  0  0
  7  9  1  0  0  0  0
  7 10  1  0  0  0  0
  7 27  1  0  0  0  0
  8 12  2  0  0  0  0
  8 15  1  0  0  0  0
  9 28  1  0  0  0  0
  9 29  1  0  0  0  0
 10 11  1  0  0  0  0
 11 13  1  0  0  0  0
 11 19  2  0  0  0  0
 12 14  1  0  0  0  0
 12 30  1  0  0  0  0
 13 20  2  0  0  0  0
 14 16  2  0  0  0  0
 14 17  1  0  0  0  0
 15 18  2  0  0  0  0
 15 31  1  0  0  0  0
 16 18  1  0  0  0  0
 17 23  1  0  0  0  0
 17 32  1  0  0  0  0
 17 33  1  0  0  0  0
 19 21  1  0  0  0  0
 20 22  1  0  0  0  0
 20 34  1  0  0  0  0
 21 22  2  0  0  0  0
 21 35  1  0  0  0  0
 23 24  2  0  0  0  0
 23 36  1  0  0  0  0
 24 25  1  0  0  0  0
 24 26  1  0  0  0  0
 25 40  1  0  0  0  0
 25 41  1  0  0  0  0
 25 42  1  0  0  0  0
 26 43  1  0  0  0  0
 26 44  1  0  0  0  0
 26 45  1  0  0  0  0
M  END
> <PUBCHEM_COMPOUND_CID>
10594416

> <PUBCHEM_CONFORMER_RMSD>
0.8

> <PUBCHEM_CONFORMER_DIVERSEORDER>
26
82
29
62
43
58
86
77
16
44
68
37
93
20
6
56
7
38
87
64
40
74
83
4
66
71
90
59
34
28
80
75
9
19
39
53
33
67
65
49
55
78
84
52
50
63
76
11
79
14
10
47
85
42
21
91
3
89
27
51
36
72
60
12
2
17
88
73
31
54
57
18
48
92
13
35
70
45
69
46
23
32
30
61
8
15
25
81
22
5
41
24
1

> <PUBCHEM_MMFF94_PARTIAL_CHARGES>
35
1 -0.36
10 0.42
11 0.09
12 -0.15
13 0.08
14 -0.14
15 -0.15
16 0.08
17 0.28
18 0.08
19 0.08
2 -0.57
20 -0.15
21 -0.15
22 0.08
23 -0.29
24 -0.28
25 0.14
26 0.14
3 -0.53
30 0.15
31 0.15
34 0.15
35 0.15
36 0.15
37 0.45
38 0.45
39 0.45
4 -0.53
46 0.45
5 -0.53
6 -0.53
7 0.2
8 -0.14
9 0.28

> <PUBCHEM_EFFECTIVE_ROTOR_COUNT>
3.6

> <PUBCHEM_PHARMACOPHORE_FEATURES>
10
1 1 acceptor
1 2 acceptor
1 3 donor
1 4 donor
1 5 donor
1 6 donor
3 24 25 26 hydrophobe
6 1 7 9 10 11 13 rings
6 11 13 19 20 21 22 rings
6 8 12 14 15 16 18 rings

> <PUBCHEM_HEAVY_ATOM_COUNT>
26

> <PUBCHEM_ATOM_DEF_STEREO_COUNT>
0

> <PUBCHEM_ATOM_UDEF_STEREO_COUNT>
1

> <PUBCHEM_BOND_DEF_STEREO_COUNT>
0

> <PUBCHEM_BOND_UDEF_STEREO_COUNT>
0

> <PUBCHEM_ISOTOPIC_ATOM_COUNT>
0

> <PUBCHEM_COMPONENT_COUNT>
1

> <PUBCHEM_CACTVS_TAUTO_COUNT>
543

> <PUBCHEM_CONFORMER_ID>
00A1A8700000001A

> <PUBCHEM_MMFF94_ENERGY>
71.0482

> <PUBCHEM_FEATURE_SELFOVERLAP>
50.781

> <PUBCHEM_SHAPE_FINGERPRINT>
10 15 18259993656553029177
10498660 4 18130793338753442041
105312 117 18342738490648552869
10693767 8 13470420911980484364
12107183 9 18192140495952921394
12236239 1 18186799222888685922
12390115 104 18059304188628205451
12403259 118 17895489063623851397
12403259 415 17489587900103985682
12422481 6 17604990308794444413
12596602 18 18113622304644321712
12788726 201 18263640831164916443
12969540 114 16989123141408401687
13540713 4 18198364887487135671
13583140 156 17489584593412106678
14294032 229 18342460340456466519
15238133 3 17531543004894233492
15475509 8 17896057485639583934
16120349 189 18261949640510124445
16988056 13 16392678434500405421
173720 79 18260265214597562811
17980427 23 18261114093023867477
19377110 9 17894638075788187899
20511986 3 17968086508648281385
21033648 29 17489297620802858482
21033650 10 18267049256901144100
21065198 48 18260260858883858290
21065201 7 18201729491403770782
21302155 148 18335141951880302229
21623969 137 14779265319672187544
21792961 116 16916803885763851268
21859007 373 17972036933609449877
22122407 14 17822587095557485365
23557571 272 17988933304797204847
23559900 14 17988377983275537486
23569914 2 17484193683686107136
2748736 6 18265890255793147333
2838139 119 17274535417455122809
312425 54 15357987720239555305
341906 21 18343018891255750296
3472631 163 18413392042196876300
4371632 12 14834116746283081467
5104073 3 17676204671512719696
53917941 68 18343293744257904783
57527295 17 15553893174047038563
6086070 43 17060327527329416466
6327066 14 18337669712064669677
7808743 9 18412546509154405033
9849439 229 18053387596285104769

> <PUBCHEM_SHAPE_MULTIPOLES>
499.85
14.89
2.85
1.58
1.18
0.62
-0.24
-12.6
-1.55
-5.91
0.83
1.61
-0.08
-0.64

> <PUBCHEM_SHAPE_SELFOVERLAP>
1088.778

> <PUBCHEM_SHAPE_VOLUME>
271

> <PUBCHEM_COORDINATE_TYPE>
2
5
10

$$$$
