10597126
  -OEChem-03292013303D

 64 66  0     1  0  0  0  0  0999 V2000
   -0.5712    0.0859   -0.0564 O   0  0  0  0  0  0  0  0  0  0  0  0
    5.7679   -1.1626   -0.6686 O   0  0  0  0  0  0  0  0  0  0  0  0
   -2.6330   -1.0013   -0.1606 O   0  0  0  0  0  0  0  0  0  0  0  0
   -1.8816    2.4411    0.8061 O   0  0  0  0  0  0  0  0  0  0  0  0
   -4.6622    2.5693   -0.1599 O   0  0  0  0  0  0  0  0  0  0  0  0
   -6.0638    0.1190    0.4625 O   0  0  0  0  0  0  0  0  0  0  0  0
   -4.5931   -2.2075   -1.7078 O   0  0  0  0  0  0  0  0  0  0  0  0
    3.7717    0.1450   -0.3291 C   0  0  2  0  0  0  0  0  0  0  0  0
    2.3184    0.1752    0.2192 C   0  0  2  0  0  0  0  0  0  0  0  0
    1.5278   -1.0495   -0.3181 C   0  0  1  0  0  0  0  0  0  0  0  0
    4.5179   -1.1611    0.0351 C   0  0  1  0  0  0  0  0  0  0  0  0
    2.2630   -2.3613    0.0168 C   0  0  0  0  0  0  0  0  0  0  0  0
    3.7062   -2.3638   -0.4725 C   0  0  0  0  0  0  0  0  0  0  0  0
    0.1007   -1.1370    0.2383 C   0  0  0  0  0  0  0  0  0  0  0  0
    4.5149    1.4229    0.0923 C   0  0  0  0  0  0  0  0  0  0  0  0
    1.6602    1.5070   -0.0800 C   0  0  0  0  0  0  0  0  0  0  0  0
    3.8366    2.6608   -0.5012 C   0  0  0  0  0  0  0  0  0  0  0  0
    4.8421   -1.2944    1.5282 C   0  0  0  0  0  0  0  0  0  0  0  0
    2.3327    2.6230   -0.4146 C   0  0  0  0  0  0  0  0  0  0  0  0
    0.1235   -1.3328    1.7512 C   0  0  0  0  0  0  0  0  0  0  0  0
   -0.6665   -2.2650   -0.4433 C   0  0  0  0  0  0  0  0  0  0  0  0
   -1.9112    0.0742    0.4351 C   0  0  2  0  0  0  0  0  0  0  0  0
    1.6262    3.9126   -0.7157 C   0  0  0  0  0  0  0  0  0  0  0  0
   -2.5550    1.4140    0.0787 C   0  0  1  0  0  0  0  0  0  0  0  0
   -4.0412    1.4296    0.4367 C   0  0  2  0  0  0  0  0  0  0  0  0
   -3.9795   -1.0844    0.3096 C   0  0  1  0  0  0  0  0  0  0  0  0
   -4.7490    0.1786   -0.0842 C   0  0  1  0  0  0  0  0  0  0  0  0
   -4.6023   -2.3375   -0.2978 C   0  0  0  0  0  0  0  0  0  0  0  0
    3.7168    0.1787   -1.4298 H   0  0  0  0  0  0  0  0  0  0  0  0
    2.3697    0.1084    1.3128 H   0  0  0  0  0  0  0  0  0  0  0  0
    1.4691   -0.9469   -1.4120 H   0  0  0  0  0  0  0  0  0  0  0  0
    1.8039   -3.2379   -0.4418 H   0  0  0  0  0  0  0  0  0  0  0  0
    2.3114   -2.5565    1.0891 H   0  0  0  0  0  0  0  0  0  0  0  0
    4.1998   -3.3002   -0.1818 H   0  0  0  0  0  0  0  0  0  0  0  0
    3.7091   -2.3709   -1.5713 H   0  0  0  0  0  0  0  0  0  0  0  0
    5.5601    1.3992   -0.2362 H   0  0  0  0  0  0  0  0  0  0  0  0
    4.5251    1.5106    1.1861 H   0  0  0  0  0  0  0  0  0  0  0  0
    0.6181    1.6907    0.1065 H   0  0  0  0  0  0  0  0  0  0  0  0
    4.1205    2.7586   -1.5566 H   0  0  0  0  0  0  0  0  0  0  0  0
    4.2187    3.5478    0.0180 H   0  0  0  0  0  0  0  0  0  0  0  0
    5.3568   -2.2429    1.7227 H   0  0  0  0  0  0  0  0  0  0  0  0
    5.5344   -0.5107    1.8541 H   0  0  0  0  0  0  0  0  0  0  0  0
    3.9534   -1.2573    2.1632 H   0  0  0  0  0  0  0  0  0  0  0  0
   -0.8686   -1.5724    2.1520 H   0  0  0  0  0  0  0  0  0  0  0  0
    0.7288   -2.1716    2.0956 H   0  0  0  0  0  0  0  0  0  0  0  0
    0.4474   -0.4289    2.2784 H   0  0  0  0  0  0  0  0  0  0  0  0
   -1.0533   -1.9778   -1.4291 H   0  0  0  0  0  0  0  0  0  0  0  0
   -1.4466   -2.7063    0.1879 H   0  0  0  0  0  0  0  0  0  0  0  0
   -0.0604   -3.1483   -0.6458 H   0  0  0  0  0  0  0  0  0  0  0  0
    5.5825   -1.0829   -1.6198 H   0  0  0  0  0  0  0  0  0  0  0  0
   -1.9225   -0.0046    1.5273 H   0  0  0  0  0  0  0  0  0  0  0  0
    0.5366    3.8150   -0.6661 H   0  0  0  0  0  0  0  0  0  0  0  0
    1.8813    4.2563   -1.7235 H   0  0  0  0  0  0  0  0  0  0  0  0
    1.9248    4.6848    0.0006 H   0  0  0  0  0  0  0  0  0  0  0  0
   -2.4150    1.6296   -0.9881 H   0  0  0  0  0  0  0  0  0  0  0  0
   -4.1814    1.5301    1.5202 H   0  0  0  0  0  0  0  0  0  0  0  0
   -3.9740   -1.2113    1.4003 H   0  0  0  0  0  0  0  0  0  0  0  0
   -4.8516    0.2591   -1.1729 H   0  0  0  0  0  0  0  0  0  0  0  0
   -5.6317   -2.4836    0.0430 H   0  0  0  0  0  0  0  0  0  0  0  0
   -4.0107   -3.2217   -0.0393 H   0  0  0  0  0  0  0  0  0  0  0  0
   -2.2271    3.2958    0.4983 H   0  0  0  0  0  0  0  0  0  0  0  0
   -4.2641    3.3628    0.2357 H   0  0  0  0  0  0  0  0  0  0  0  0
   -5.9845    0.0487    1.4291 H   0  0  0  0  0  0  0  0  0  0  0  0
   -4.9860   -3.0185   -2.0732 H   0  0  0  0  0  0  0  0  0  0  0  0
  1 14  1  0  0  0  0
  1 22  1  0  0  0  0
  2 11  1  0  0  0  0
  2 50  1  0  0  0  0
  3 22  1  0  0  0  0
  3 26  1  0  0  0  0
  4 24  1  0  0  0  0
  4 61  1  0  0  0  0
  5 25  1  0  0  0  0
  5 62  1  0  0  0  0
  6 27  1  0  0  0  0
  6 63  1  0  0  0  0
  7 28  1  0  0  0  0
  7 64  1  0  0  0  0
  8  9  1  0  0  0  0
  8 11  1  0  0  0  0
  8 15  1  0  0  0  0
  8 29  1  0  0  0  0
  9 10  1  0  0  0  0
  9 16  1  0  0  0  0
  9 30  1  0  0  0  0
 10 12  1  0  0  0  0
 10 14  1  0  0  0  0
 10 31  1  0  0  0  0
 11 13  1  0  0  0  0
 11 18  1  0  0  0  0
 12 13  1  0  0  0  0
 12 32  1  0  0  0  0
 12 33  1  0  0  0  0
 13 34  1  0  0  0  0
 13 35  1  0  0  0  0
 14 20  1  0  0  0  0
 14 21  1  0  0  0  0
 15 17  1  0  0  0  0
 15 36  1  0  0  0  0
 15 37  1  0  0  0  0
 16 19  2  0  0  0  0
 16 38  1  0  0  0  0
 17 19  1  0  0  0  0
 17 39  1  0  0  0  0
 17 40  1  0  0  0  0
 18 41  1  0  0  0  0
 18 42  1  0  0  0  0
 18 43  1  0  0  0  0
 19 23  1  0  0  0  0
 20 44  1  0  0  0  0
 20 45  1  0  0  0  0
 20 46  1  0  0  0  0
 21 47  1  0  0  0  0
 21 48  1  0  0  0  0
 21 49  1  0  0  0  0
 22 24  1  0  0  0  0
 22 51  1  0  0  0  0
 23 52  1  0  0  0  0
 23 53  1  0  0  0  0
 23 54  1  0  0  0  0
 24 25  1  0  0  0  0
 24 55  1  0  0  0  0
 25 27  1  0  0  0  0
 25 56  1  0  0  0  0
 26 27  1  0  0  0  0
 26 28  1  0  0  0  0
 26 57  1  0  0  0  0
 27 58  1  0  0  0  0
 28 59  1  0  0  0  0
 28 60  1  0  0  0  0
M  END
> <PUBCHEM_COMPOUND_CID>
10597126

> <PUBCHEM_CONFORMER_RMSD>
0.8

> <PUBCHEM_CONFORMER_DIVERSEORDER>
1
4
6
5
2
7
3
8

> <PUBCHEM_MMFF94_PARTIAL_CHARGES>
26
1 -0.56
11 0.28
14 0.28
16 -0.29
17 0.14
19 -0.28
2 -0.68
22 0.56
23 0.14
24 0.28
25 0.28
26 0.28
27 0.28
28 0.28
3 -0.56
38 0.15
4 -0.68
5 -0.68
50 0.4
6 -0.68
61 0.4
62 0.4
63 0.4
64 0.4
7 -0.68
9 0.14

> <PUBCHEM_EFFECTIVE_ROTOR_COUNT>
6.4

> <PUBCHEM_PHARMACOPHORE_FEATURES>
16
1 1 acceptor
1 2 acceptor
1 2 donor
1 3 acceptor
1 4 acceptor
1 4 donor
1 5 acceptor
1 5 donor
1 6 acceptor
1 6 donor
1 7 acceptor
1 7 donor
3 14 20 21 hydrophobe
6 3 22 24 25 26 27 rings
6 8 9 10 11 12 13 rings
6 8 9 15 16 17 19 rings

> <PUBCHEM_HEAVY_ATOM_COUNT>
28

> <PUBCHEM_ATOM_DEF_STEREO_COUNT>
9

> <PUBCHEM_ATOM_UDEF_STEREO_COUNT>
0

> <PUBCHEM_BOND_DEF_STEREO_COUNT>
0

> <PUBCHEM_BOND_UDEF_STEREO_COUNT>
0

> <PUBCHEM_ISOTOPIC_ATOM_COUNT>
0

> <PUBCHEM_COMPONENT_COUNT>
1

> <PUBCHEM_CACTVS_TAUTO_COUNT>
1

> <PUBCHEM_CONFORMER_ID>
00A1B30600000001

> <PUBCHEM_MMFF94_ENERGY>
109.8572

> <PUBCHEM_FEATURE_SELFOVERLAP>
81.277

> <PUBCHEM_SHAPE_FINGERPRINT>
10074138 170 15519222012038435266
10411042 1 18049162160262144986
10595046 47 18340768234161984463
11578080 2 17201624774514090034
12107183 9 18051415063333020129
12166972 35 18272373061890417840
12403259 118 18340759386334234410
12403259 415 17603861213204813831
12403260 363 18410005563520750410
12467345 10 18413388739387663479
12616971 3 18412830213704373939
13140716 1 18408317796835926336
13583140 156 18041012712561088603
138480 1 18409451405555859764
14117953 113 18267867168935497925
14251764 38 18335425689824743001
14341114 176 18411987953057814641
15196674 1 18410857672131537624
15238133 3 18114186303139292982
15250474 111 18271235123248753903
15420108 30 17477212626398880176
1601671 61 18338800001274607374
17349148 13 18334574650613131898
17492 89 18411984675766367319
17844677 252 18410864269412307379
18681886 176 18343579664404843442
20028762 73 18343861130232970286
20691752 17 17530681004978810472
20715895 44 18196934362423726233
21033648 144 18041836336906401606
21033648 29 16370995322012382967
21267235 1 18339653260393518946
21709351 56 18410852157504286815
22393880 68 18114452380062200685
23227448 37 18339644546010325183
23402539 116 18412820265974787918
23557571 272 17346041060729074993
23558518 356 18115316707649216819
23559900 14 18342171133700035035
24771293 8 18341884221975443624
249057 3 18339360760942641301
3004659 81 18408606942212952648
335352 9 18337956692935655068
338550 245 18409732893226925356
345986 75 17170933878999516882
350125 39 18411703187888176885
3680242 22 18189618246089990048
4073 2 18113908194536280170
4214541 1 18411702050149085361
474 4 18261675973134805528
508706 21 17458337525180588981
5104073 3 18410576201417886817
513532 50 18202014252610445684
5312544 6 18192996143157642476
6086070 43 17824514470857981191
633830 44 18186518817284875163
67856867 119 18339919415279835704
9709674 26 18335709398126074643
9981440 41 17688308306276405480

> <PUBCHEM_SHAPE_MULTIPOLES>
535.14
12.32
3.75
1
6.77
2.43
-0.16
-1.65
0.61
-1.3
0.73
-0.06
-0.39
-1.26

> <PUBCHEM_SHAPE_SELFOVERLAP>
1115.042

> <PUBCHEM_SHAPE_VOLUME>
300.4

> <PUBCHEM_COORDINATE_TYPE>
2
5
10

$$$$
