10595278
  -OEChem-03292013303D

 57 58  0     1  0  0  0  0  0999 V2000
    3.9961    2.9737    0.9822 O   0  0  0  0  0  0  0  0  0  0  0  0
   -1.9748    1.9569   -1.6092 O   0  0  0  0  0  0  0  0  0  0  0  0
   -1.1505   -0.3920    1.0392 O   0  0  0  0  0  0  0  0  0  0  0  0
   -3.8476    2.7171    0.6822 O   0  0  0  0  0  0  0  0  0  0  0  0
   -1.1584    2.9920    1.4178 O   0  0  0  0  0  0  0  0  0  0  0  0
   -4.8305   -1.4897   -1.7369 O   0  0  0  0  0  0  0  0  0  0  0  0
   -3.9611    0.4246    0.2373 N   0  0  0  0  0  0  0  0  0  0  0  0
    3.7556    1.6225    0.5690 C   0  0  1  0  0  0  0  0  0  0  0  0
    2.9069    2.7582    0.0757 C   0  0  1  0  0  0  0  0  0  0  0  0
    4.8383    1.0577   -0.2994 C   0  0  0  0  0  0  0  0  0  0  0  0
   -1.9488    1.5150   -0.2658 C   0  0  2  0  0  0  0  0  0  0  0  0
   -1.7163   -0.0037   -0.2133 C   0  0  2  0  0  0  0  0  0  0  0  0
    4.2916    0.0181   -1.2793 C   0  0  0  0  0  0  0  0  0  0  0  0
   -3.1199   -0.6098   -0.3202 C   0  0  2  0  0  0  0  0  0  0  0  0
    1.5182    2.8197    0.5025 C   0  0  0  0  0  0  0  0  0  0  0  0
    3.6105   -1.1687   -0.5910 C   0  0  0  0  0  0  0  0  0  0  0  0
   -3.3498    1.6731    0.2879 C   0  0  0  0  0  0  0  0  0  0  0  0
   -0.8864    2.2918    0.4450 C   0  0  0  0  0  0  0  0  0  0  0  0
    3.1314   -2.2419   -1.5720 C   0  0  0  0  0  0  0  0  0  0  0  0
    0.5029    2.1599   -0.0728 C   0  0  0  0  0  0  0  0  0  0  0  0
   -3.5301   -0.9276   -1.7522 C   0  0  0  0  0  0  0  0  0  0  0  0
    2.5038   -3.4569   -0.8810 C   0  0  0  0  0  0  0  0  0  0  0  0
    1.2946   -3.1036   -0.0122 C   0  0  0  0  0  0  0  0  0  0  0  0
    0.7151   -4.3487    0.6633 C   0  0  0  0  0  0  0  0  0  0  0  0
   -0.5159   -4.0046    1.5017 C   0  0  0  0  0  0  0  0  0  0  0  0
   -1.0748   -5.2331    2.2015 C   0  0  0  0  0  0  0  0  0  0  0  0
    3.3908    0.9423    1.3259 H   0  0  0  0  0  0  0  0  0  0  0  0
    3.0656    3.1038   -0.9409 H   0  0  0  0  0  0  0  0  0  0  0  0
    5.3353    1.8533   -0.8679 H   0  0  0  0  0  0  0  0  0  0  0  0
    5.6027    0.5995    0.3389 H   0  0  0  0  0  0  0  0  0  0  0  0
   -1.0524   -0.3607   -1.0087 H   0  0  0  0  0  0  0  0  0  0  0  0
    3.5751    0.4968   -1.9584 H   0  0  0  0  0  0  0  0  0  0  0  0
    5.1200   -0.3481   -1.8976 H   0  0  0  0  0  0  0  0  0  0  0  0
   -3.2449   -1.4944    0.3147 H   0  0  0  0  0  0  0  0  0  0  0  0
    1.3192    3.4630    1.3560 H   0  0  0  0  0  0  0  0  0  0  0  0
    2.7516   -0.7940   -0.0266 H   0  0  0  0  0  0  0  0  0  0  0  0
    4.3042   -1.6186    0.1294 H   0  0  0  0  0  0  0  0  0  0  0  0
   -4.9157    0.2636    0.5430 H   0  0  0  0  0  0  0  0  0  0  0  0
    2.4025   -1.8024   -2.2638 H   0  0  0  0  0  0  0  0  0  0  0  0
    3.9782   -2.5841   -2.1790 H   0  0  0  0  0  0  0  0  0  0  0  0
    0.6740    1.5152   -0.9281 H   0  0  0  0  0  0  0  0  0  0  0  0
   -3.5529   -0.0346   -2.3844 H   0  0  0  0  0  0  0  0  0  0  0  0
   -2.8441   -1.6571   -2.1946 H   0  0  0  0  0  0  0  0  0  0  0  0
    2.2028   -4.1794   -1.6493 H   0  0  0  0  0  0  0  0  0  0  0  0
    3.2653   -3.9500   -0.2641 H   0  0  0  0  0  0  0  0  0  0  0  0
   -2.2089    2.9011   -1.6141 H   0  0  0  0  0  0  0  0  0  0  0  0
    0.5271   -2.6239   -0.6312 H   0  0  0  0  0  0  0  0  0  0  0  0
    1.5755   -2.3926    0.7714 H   0  0  0  0  0  0  0  0  0  0  0  0
   -1.0277   -1.3547    1.0142 H   0  0  0  0  0  0  0  0  0  0  0  0
    0.4430   -5.0888   -0.0990 H   0  0  0  0  0  0  0  0  0  0  0  0
    1.4794   -4.8084    1.3017 H   0  0  0  0  0  0  0  0  0  0  0  0
   -5.0652   -1.6949   -2.6579 H   0  0  0  0  0  0  0  0  0  0  0  0
   -1.2941   -3.5779    0.8588 H   0  0  0  0  0  0  0  0  0  0  0  0
   -0.2580   -3.2502    2.2537 H   0  0  0  0  0  0  0  0  0  0  0  0
   -1.3716   -5.9970    1.4757 H   0  0  0  0  0  0  0  0  0  0  0  0
   -1.9566   -4.9646    2.7917 H   0  0  0  0  0  0  0  0  0  0  0  0
   -0.3336   -5.6707    2.8777 H   0  0  0  0  0  0  0  0  0  0  0  0
  1  8  1  0  0  0  0
  1  9  1  0  0  0  0
  2 11  1  0  0  0  0
  2 46  1  0  0  0  0
  3 12  1  0  0  0  0
  3 49  1  0  0  0  0
  4 17  2  0  0  0  0
  5 18  2  0  0  0  0
  6 21  1  0  0  0  0
  6 52  1  0  0  0  0
  7 14  1  0  0  0  0
  7 17  1  0  0  0  0
  7 38  1  0  0  0  0
  8  9  1  0  0  0  0
  8 10  1  0  0  0  0
  8 27  1  0  0  0  0
  9 15  1  0  0  0  0
  9 28  1  0  0  0  0
 10 13  1  0  0  0  0
 10 29  1  0  0  0  0
 10 30  1  0  0  0  0
 11 12  1  0  0  0  0
 11 17  1  0  0  0  0
 11 18  1  0  0  0  0
 12 14  1  0  0  0  0
 12 31  1  0  0  0  0
 13 16  1  0  0  0  0
 13 32  1  0  0  0  0
 13 33  1  0  0  0  0
 14 21  1  0  0  0  0
 14 34  1  0  0  0  0
 15 20  2  0  0  0  0
 15 35  1  0  0  0  0
 16 19  1  0  0  0  0
 16 36  1  0  0  0  0
 16 37  1  0  0  0  0
 18 20  1  0  0  0  0
 19 22  1  0  0  0  0
 19 39  1  0  0  0  0
 19 40  1  0  0  0  0
 20 41  1  0  0  0  0
 21 42  1  0  0  0  0
 21 43  1  0  0  0  0
 22 23  1  0  0  0  0
 22 44  1  0  0  0  0
 22 45  1  0  0  0  0
 23 24  1  0  0  0  0
 23 47  1  0  0  0  0
 23 48  1  0  0  0  0
 24 25  1  0  0  0  0
 24 50  1  0  0  0  0
 24 51  1  0  0  0  0
 25 26  1  0  0  0  0
 25 53  1  0  0  0  0
 25 54  1  0  0  0  0
 26 55  1  0  0  0  0
 26 56  1  0  0  0  0
 26 57  1  0  0  0  0
M  END
> <PUBCHEM_COMPOUND_CID>
10595278

> <PUBCHEM_CONFORMER_RMSD>
1.2

> <PUBCHEM_CONFORMER_DIVERSEORDER>
1
103
160
82
158
63
148
32
188
61
192
138
130
173
56
57
123
156
164
51
68
35
129
116
94
102
165
174
155
80
178
124
91
52
92
183
115
109
166
184
119
167
74
31
55
137
141
113
64
62
100
185
98
162
53
135
77
65
142
187
7
191
79
118
86
169
153
84
112
186
43
168
66
193
176
27
34
114
182
159
170
146
85
22
136
125
46
107
161
110
40
144
131
181
25
13
197
195
150
96
83
104
76
152
28
14
126
81
60
88
101
67
177
4
37
175
127
69
140
39
145
47
132
59
93
58
73
2
50
147
108
189
172
78
154
72
75
149
134
143
139
171
105
87
41
97
99
121
30
49
54
157
117
190
23
24
128
90
3
179
95
36
70
21
29
120
180
89
12
45
133
106
196
111
42
26
6
33
9
20
17
16
151
44
194
71
48
19
8
122
10
38
163
18
15
5
11

> <PUBCHEM_MMFF94_PARTIAL_CHARGES>
26
1 -0.3
10 0.09
11 0.4
12 0.28
14 0.3
15 -0.19
17 0.57
18 0.49
2 -0.68
20 -0.14
21 0.28
27 0.1
28 0.1
3 -0.68
35 0.15
38 0.37
4 -0.57
41 0.15
46 0.4
49 0.4
5 -0.57
52 0.4
6 -0.68
7 -0.73
8 -0.05
9 0.09

> <PUBCHEM_EFFECTIVE_ROTOR_COUNT>
13.4

> <PUBCHEM_PHARMACOPHORE_FEATURES>
12
1 1 acceptor
1 2 acceptor
1 2 donor
1 26 hydrophobe
1 3 acceptor
1 3 donor
1 4 acceptor
1 5 acceptor
1 6 acceptor
1 6 donor
1 7 donor
5 7 11 12 14 17 rings

> <PUBCHEM_HEAVY_ATOM_COUNT>
26

> <PUBCHEM_ATOM_DEF_STEREO_COUNT>
5

> <PUBCHEM_ATOM_UDEF_STEREO_COUNT>
0

> <PUBCHEM_BOND_DEF_STEREO_COUNT>
1

> <PUBCHEM_BOND_UDEF_STEREO_COUNT>
0

> <PUBCHEM_ISOTOPIC_ATOM_COUNT>
0

> <PUBCHEM_COMPONENT_COUNT>
1

> <PUBCHEM_CACTVS_TAUTO_COUNT>
2

> <PUBCHEM_CONFORMER_ID>
00A1ABCE00000001

> <PUBCHEM_MMFF94_ENERGY>
27.3887

> <PUBCHEM_FEATURE_SELFOVERLAP>
60.907

> <PUBCHEM_SHAPE_FINGERPRINT>
10721379 63 17688540028593942117
114674 6 18267870489124039120
12553582 1 17548138827498258622
13402501 40 18196090177805748654
15403338 16 17832712266377583397
19319366 153 17541975007962523694
19930381 70 18339928086987422826
20764821 26 18122629611247007326
21315764 21 16234783135817417606
23559900 14 18201716245867548336
25265897 201 13191446168306376091
4283 87 18271803476112102476
463206 1 17985539194091100575
9709674 26 18340771562830632888

> <PUBCHEM_SHAPE_MULTIPOLES>
494.87
8.72
6.75
1.6
1.48
8.36
0.11
-3.56
3.04
1.09
-3.93
-0.71
1.33
1.26

> <PUBCHEM_SHAPE_SELFOVERLAP>
990.101

> <PUBCHEM_SHAPE_VOLUME>
292.3

> <PUBCHEM_COORDINATE_TYPE>
2
5
10

$$$$
