10600559
  -OEChem-03292013303D

 69 71  0     1  0  0  0  0  0999 V2000
    0.1053    1.3323   -1.6174 O   0  0  0  0  0  0  0  0  0  0  0  0
   -0.5325    4.2285   -1.7995 O   0  0  0  0  0  0  0  0  0  0  0  0
   -0.4320    3.1542    2.8547 O   0  0  0  0  0  0  0  0  0  0  0  0
    3.6381   -0.2724    2.7382 O   0  0  0  0  0  0  0  0  0  0  0  0
    4.7919   -3.7482   -0.9487 O   0  0  0  0  0  0  0  0  0  0  0  0
    6.7270   -1.5164    0.2183 O   0  0  0  0  0  0  0  0  0  0  0  0
    5.6193    0.1715   -0.8188 O   0  0  0  0  0  0  0  0  0  0  0  0
    3.3064   -0.7021    0.4388 N   0  0  0  0  0  0  0  0  0  0  0  0
   -1.1669    1.8741   -2.0216 C   0  0  2  0  0  0  0  0  0  0  0  0
   -1.4557    3.2323   -1.3492 C   0  0  1  0  0  0  0  0  0  0  0  0
   -1.3751    3.1472    0.1725 C   0  0  0  0  0  0  0  0  0  0  0  0
   -2.2615    0.8368   -1.7159 C   0  0  0  0  0  0  0  0  0  0  0  0
    0.4425    1.4533   -0.3003 C   0  0  0  0  0  0  0  0  0  0  0  0
   -0.2095    2.3013    0.6077 C   0  0  0  0  0  0  0  0  0  0  0  0
    1.5170    0.7042    0.1495 C   0  0  0  0  0  0  0  0  0  0  0  0
   -1.0773    2.0415   -3.5476 C   0  0  0  0  0  0  0  0  0  0  0  0
    2.3857   -0.2526   -0.5976 C   0  0  0  0  0  0  0  0  0  0  0  0
    1.9189    0.7792    1.4834 C   0  0  0  0  0  0  0  0  0  0  0  0
   -1.9283   -0.5038   -2.3547 C   0  0  0  0  0  0  0  0  0  0  0  0
    0.2118    2.3508    1.9570 C   0  0  0  0  0  0  0  0  0  0  0  0
    3.0635   -0.1180    1.6762 C   0  0  0  0  0  0  0  0  0  0  0  0
    1.2883    1.5857    2.4081 C   0  0  0  0  0  0  0  0  0  0  0  0
    4.3498   -1.6634    0.1554 C   0  0  1  0  0  0  0  0  0  0  0  0
   -2.9998   -1.5125   -2.0498 C   0  0  0  0  0  0  0  0  0  0  0  0
    3.9619   -2.5936   -0.9846 C   0  0  0  0  0  0  0  0  0  0  0  0
   -3.0369   -2.3974   -1.0343 C   0  0  0  0  0  0  0  0  0  0  0  0
    5.5989   -0.8829   -0.1970 C   0  0  0  0  0  0  0  0  0  0  0  0
   -4.1356   -3.4172   -0.8190 C   0  0  0  0  0  0  0  0  0  0  0  0
   -1.9075   -2.4490   -0.0377 C   0  0  0  0  0  0  0  0  0  0  0  0
   -4.8808   -3.2545    0.5125 C   0  0  0  0  0  0  0  0  0  0  0  0
   -5.5366   -1.9082    0.6477 C   0  0  0  0  0  0  0  0  0  0  0  0
   -5.3978   -1.0112    1.6423 C   0  0  0  0  0  0  0  0  0  0  0  0
   -4.5056   -1.3113    2.8175 C   0  0  0  0  0  0  0  0  0  0  0  0
   -6.0868    0.3217    1.7138 C   0  0  0  0  0  0  0  0  0  0  0  0
   -2.4519    3.5875   -1.6402 H   0  0  0  0  0  0  0  0  0  0  0  0
   -1.2791    4.1551    0.5936 H   0  0  0  0  0  0  0  0  0  0  0  0
   -2.2923    2.6972    0.5708 H   0  0  0  0  0  0  0  0  0  0  0  0
   -3.2355    1.1988   -2.0703 H   0  0  0  0  0  0  0  0  0  0  0  0
   -2.3571    0.6858   -0.6338 H   0  0  0  0  0  0  0  0  0  0  0  0
   -0.6769    1.1531   -4.0463 H   0  0  0  0  0  0  0  0  0  0  0  0
   -2.0476    2.2965   -3.9861 H   0  0  0  0  0  0  0  0  0  0  0  0
   -0.3708    2.8362   -3.8146 H   0  0  0  0  0  0  0  0  0  0  0  0
    2.9394    0.2440   -1.3988 H   0  0  0  0  0  0  0  0  0  0  0  0
    1.7871   -1.0866   -0.9719 H   0  0  0  0  0  0  0  0  0  0  0  0
   -1.9049   -0.4269   -3.4471 H   0  0  0  0  0  0  0  0  0  0  0  0
   -0.9395   -0.8722   -2.0684 H   0  0  0  0  0  0  0  0  0  0  0  0
    1.6189    1.6204    3.4403 H   0  0  0  0  0  0  0  0  0  0  0  0
   -0.7972    5.0760   -1.4031 H   0  0  0  0  0  0  0  0  0  0  0  0
    4.5528   -2.2174    1.0802 H   0  0  0  0  0  0  0  0  0  0  0  0
   -3.8384   -1.5096   -2.7451 H   0  0  0  0  0  0  0  0  0  0  0  0
    2.9337   -2.9526   -0.8741 H   0  0  0  0  0  0  0  0  0  0  0  0
    4.0717   -2.1191   -1.9659 H   0  0  0  0  0  0  0  0  0  0  0  0
   -0.0106    3.0607    3.7263 H   0  0  0  0  0  0  0  0  0  0  0  0
   -4.8592   -3.3654   -1.6433 H   0  0  0  0  0  0  0  0  0  0  0  0
   -3.6987   -4.4227   -0.8645 H   0  0  0  0  0  0  0  0  0  0  0  0
   -2.2775   -2.2678    0.9753 H   0  0  0  0  0  0  0  0  0  0  0  0
   -1.4419   -3.4403   -0.0569 H   0  0  0  0  0  0  0  0  0  0  0  0
   -1.1142   -1.7180   -0.2018 H   0  0  0  0  0  0  0  0  0  0  0  0
   -4.1995   -3.4920    1.3317 H   0  0  0  0  0  0  0  0  0  0  0  0
   -5.6715   -4.0142    0.5553 H   0  0  0  0  0  0  0  0  0  0  0  0
    4.5168   -4.3210   -1.6848 H   0  0  0  0  0  0  0  0  0  0  0  0
    7.5365   -1.0210   -0.0296 H   0  0  0  0  0  0  0  0  0  0  0  0
   -6.2114   -1.6477   -0.1671 H   0  0  0  0  0  0  0  0  0  0  0  0
   -4.3381   -2.3740    3.0001 H   0  0  0  0  0  0  0  0  0  0  0  0
   -4.9588   -0.9252    3.7381 H   0  0  0  0  0  0  0  0  0  0  0  0
   -3.5375   -0.8161    2.6900 H   0  0  0  0  0  0  0  0  0  0  0  0
   -6.7358    0.3723    2.5938 H   0  0  0  0  0  0  0  0  0  0  0  0
   -5.3491    1.1284    1.7734 H   0  0  0  0  0  0  0  0  0  0  0  0
   -6.7071    0.5013    0.8295 H   0  0  0  0  0  0  0  0  0  0  0  0
  1  9  1  0  0  0  0
  1 13  1  0  0  0  0
  2 10  1  0  0  0  0
  2 48  1  0  0  0  0
  3 20  1  0  0  0  0
  3 53  1  0  0  0  0
  4 21  2  0  0  0  0
  5 25  1  0  0  0  0
  5 61  1  0  0  0  0
  6 27  1  0  0  0  0
  6 62  1  0  0  0  0
  7 27  2  0  0  0  0
  8 17  1  0  0  0  0
  8 21  1  0  0  0  0
  8 23  1  0  0  0  0
  9 10  1  0  0  0  0
  9 12  1  0  0  0  0
  9 16  1  0  0  0  0
 10 11  1  0  0  0  0
 10 35  1  0  0  0  0
 11 14  1  0  0  0  0
 11 36  1  0  0  0  0
 11 37  1  0  0  0  0
 12 19  1  0  0  0  0
 12 38  1  0  0  0  0
 12 39  1  0  0  0  0
 13 14  1  0  0  0  0
 13 15  2  0  0  0  0
 14 20  2  0  0  0  0
 15 17  1  0  0  0  0
 15 18  1  0  0  0  0
 16 40  1  0  0  0  0
 16 41  1  0  0  0  0
 16 42  1  0  0  0  0
 17 43  1  0  0  0  0
 17 44  1  0  0  0  0
 18 21  1  0  0  0  0
 18 22  2  0  0  0  0
 19 24  1  0  0  0  0
 19 45  1  0  0  0  0
 19 46  1  0  0  0  0
 20 22  1  0  0  0  0
 22 47  1  0  0  0  0
 23 25  1  0  0  0  0
 23 27  1  0  0  0  0
 23 49  1  0  0  0  0
 24 26  2  0  0  0  0
 24 50  1  0  0  0  0
 25 51  1  0  0  0  0
 25 52  1  0  0  0  0
 26 28  1  0  0  0  0
 26 29  1  0  0  0  0
 28 30  1  0  0  0  0
 28 54  1  0  0  0  0
 28 55  1  0  0  0  0
 29 56  1  0  0  0  0
 29 57  1  0  0  0  0
 29 58  1  0  0  0  0
 30 31  1  0  0  0  0
 30 59  1  0  0  0  0
 30 60  1  0  0  0  0
 31 32  2  0  0  0  0
 31 63  1  0  0  0  0
 32 33  1  0  0  0  0
 32 34  1  0  0  0  0
 33 64  1  0  0  0  0
 33 65  1  0  0  0  0
 33 66  1  0  0  0  0
 34 67  1  0  0  0  0
 34 68  1  0  0  0  0
 34 69  1  0  0  0  0
M  END
> <PUBCHEM_COMPOUND_CID>
10600559

> <PUBCHEM_CONFORMER_RMSD>
1.2

> <PUBCHEM_CONFORMER_DIVERSEORDER>
1
100
65
79
7
134
135
70
152
146
119
59
37
101
122
36
23
132
9
85
121
39
106
151
142
33
25
103
110
18
14
139
83
19
35
81
48
125
6
111
16
53
118
96
89
46
58
38
143
128
90
124
11
113
73
63
67
27
97
5
150
66
41
32
91
68
130
40
57
127
95
77
131
102
126
12
54
55
31
86
56
80
149
98
140
51
93
26
22
145
17
136
94
92
104
105
148
15
72
137
29
108
84
62
76
28
107
115
42
116
71
60
21
49
147
120
99
129
69
88
52
50
144
43
133
87
10
141
47
123
117
75
20
109
24
78
138
44
82
2
4
112
64
30
61
3
114
45
74
13
34
8

> <PUBCHEM_MMFF94_PARTIAL_CHARGES>
39
1 -0.36
10 0.28
11 0.14
13 0.08
14 -0.14
15 -0.14
17 0.44
18 0.09
19 0.14
2 -0.68
20 0.08
21 0.54
22 -0.15
23 0.36
24 -0.29
25 0.28
26 -0.28
27 0.66
28 0.14
29 0.14
3 -0.53
30 0.14
31 -0.29
32 -0.28
33 0.14
34 0.14
4 -0.57
47 0.15
48 0.4
5 -0.68
50 0.15
53 0.45
6 -0.65
61 0.4
62 0.5
63 0.15
7 -0.57
8 -0.66
9 0.28

> <PUBCHEM_EFFECTIVE_ROTOR_COUNT>
10.2

> <PUBCHEM_PHARMACOPHORE_FEATURES>
16
1 1 acceptor
1 2 acceptor
1 2 donor
1 29 hydrophobe
1 3 donor
1 4 acceptor
1 5 acceptor
1 5 donor
1 6 acceptor
1 7 acceptor
3 32 33 34 hydrophobe
3 6 7 27 anion
4 26 28 30 31 hydrophobe
5 8 15 17 18 21 rings
6 1 9 10 11 13 14 rings
6 13 14 15 18 20 22 rings

> <PUBCHEM_HEAVY_ATOM_COUNT>
34

> <PUBCHEM_ATOM_DEF_STEREO_COUNT>
0

> <PUBCHEM_ATOM_UDEF_STEREO_COUNT>
3

> <PUBCHEM_BOND_DEF_STEREO_COUNT>
1

> <PUBCHEM_BOND_UDEF_STEREO_COUNT>
0

> <PUBCHEM_ISOTOPIC_ATOM_COUNT>
0

> <PUBCHEM_COMPONENT_COUNT>
1

> <PUBCHEM_CACTVS_TAUTO_COUNT>
3

> <PUBCHEM_CONFORMER_ID>
00A1C06F00000001

> <PUBCHEM_MMFF94_ENERGY>
82.7334

> <PUBCHEM_FEATURE_SELFOVERLAP>
81.391

> <PUBCHEM_SHAPE_FINGERPRINT>
10764073 3 17844823490358400303
10794284 68 16844461599238992336
10928967 22 17750780216262429883
11135609 12 18411135806135297594
11374522 58 18272086141375827711
11488393 25 17534896691210347332
12128747 34 17417826019076106443
12156800 1 17767447562623967341
12422481 6 18201164278123903447
12633257 1 17561086925440145341
13103583 49 17775291607357390495
131258 38 18125436668886261035
13135754 10 18263369092577638029
13947920 24 12251909204769103065
14932701 244 16443348697462831972
15320295 40 17060614496186198161
17974551 9 17845090860731427171
20429585 67 17750520757118766444
20775530 9 18264753514771197231
21033648 29 15122970459850058187
21591331 117 17458349658605578843
22440779 20 18410292497644026705
2838139 119 9007061240383605031
3737641 26 18268701891196520900
42767 28 13118543153022519563
469060 322 17532390689408929147
5081480 168 17604711217656282475
513202 73 18263090911630295227
59444896 2 17764074415179383208

> <PUBCHEM_SHAPE_MULTIPOLES>
653.64
12.33
4.74
3.13
3.32
0.93
0.08
-14.81
4.47
-1.47
-1.42
-1.96
1.97
1.36

> <PUBCHEM_SHAPE_SELFOVERLAP>
1375.53

> <PUBCHEM_SHAPE_VOLUME>
368.8

> <PUBCHEM_COORDINATE_TYPE>
2
5
10

$$$$
