10601280
  -OEChem-03292013303D

 85 88  0     1  0  0  0  0  0999 V2000
   -4.6131   -1.7321   -1.3154 O   0  0  0  0  0  0  0  0  0  0  0  0
    0.4665   -1.9128    2.3158 O   0  0  0  0  0  0  0  0  0  0  0  0
   -4.0853   -1.1843    2.2815 O   0  0  0  0  0  0  0  0  0  0  0  0
    1.3507    2.0865    0.5529 O   0  0  0  0  0  0  0  0  0  0  0  0
   -8.0215    0.5453   -0.7009 O   0  0  0  0  0  0  0  0  0  0  0  0
    1.3836    2.9287    2.7040 O   0  0  0  0  0  0  0  0  0  0  0  0
    0.6920   -0.0830   -0.2000 C   0  0  1  0  0  0  0  0  0  0  0  0
   -0.2301   -1.3038    0.0367 C   0  0  2  0  0  0  0  0  0  0  0  0
   -1.6570   -0.9021    0.4401 C   0  0  1  0  0  0  0  0  0  0  0  0
   -2.2709   -0.0249   -0.7037 C   0  0  1  0  0  0  0  0  0  0  0  0
   -3.7581    0.3941   -0.3841 C   0  0  2  0  0  0  0  0  0  0  0  0
    2.0095   -0.8272   -0.5275 C   0  0  2  0  0  0  0  0  0  0  0  0
   -4.5908   -0.9172   -0.1192 C   0  0  2  0  0  0  0  0  0  0  0  0
    0.1082    0.7241   -1.3693 C   0  0  0  0  0  0  0  0  0  0  0  0
   -1.3421    1.1565   -1.0907 C   0  0  0  0  0  0  0  0  0  0  0  0
    0.5953   -2.2290    0.9358 C   0  0  1  0  0  0  0  0  0  0  0  0
   -2.5260   -2.1403    0.7238 C   0  0  0  0  0  0  0  0  0  0  0  0
    2.0573   -1.9673    0.5187 C   0  0  0  0  0  0  0  0  0  0  0  0
   -3.9949   -1.7941    1.0005 C   0  0  1  0  0  0  0  0  0  0  0  0
   -4.3972    1.1244   -1.6064 C   0  0  0  0  0  0  0  0  0  0  0  0
    0.8673    0.8501    1.0240 C   0  0  0  0  0  0  0  0  0  0  0  0
    3.2790    0.0125   -0.5451 C   0  0  1  0  0  0  0  0  0  0  0  0
   -6.0800   -0.6029    0.1205 C   0  0  0  0  0  0  0  0  0  0  0  0
   -3.7871    1.3846    0.8124 C   0  0  0  0  0  0  0  0  0  0  0  0
   -5.8903    1.4107   -1.4219 C   0  0  0  0  0  0  0  0  0  0  0  0
   -6.6938    0.1668   -1.0545 C   0  0  2  0  0  0  0  0  0  0  0  0
    4.5144   -0.8901   -0.3368 C   0  0  0  0  0  0  0  0  0  0  0  0
    3.3592    0.8110   -1.8507 C   0  0  0  0  0  0  0  0  0  0  0  0
    5.8473   -0.1380   -0.4089 C   0  0  0  0  0  0  0  0  0  0  0  0
    1.5713    3.0546    1.5015 C   0  0  0  0  0  0  0  0  0  0  0  0
    7.0732   -1.0508   -0.2730 C   0  0  0  0  0  0  0  0  0  0  0  0
    8.4446   -0.3490   -0.2684 C   0  0  0  0  0  0  0  0  0  0  0  0
    2.0819    4.3085    0.8587 C   0  0  0  0  0  0  0  0  0  0  0  0
    8.6351    0.4184   -1.5801 C   0  0  0  0  0  0  0  0  0  0  0  0
    9.6019   -1.3281   -0.0700 C   0  0  0  0  0  0  0  0  0  0  0  0
   -0.3207   -1.8408   -0.9232 H   0  0  0  0  0  0  0  0  0  0  0  0
   -1.6168   -0.3256    1.3675 H   0  0  0  0  0  0  0  0  0  0  0  0
   -2.3089   -0.6637   -1.5996 H   0  0  0  0  0  0  0  0  0  0  0  0
    1.9044   -1.3134   -1.5100 H   0  0  0  0  0  0  0  0  0  0  0  0
    0.6608    1.6314   -1.6116 H   0  0  0  0  0  0  0  0  0  0  0  0
    0.1170    0.1142   -2.2825 H   0  0  0  0  0  0  0  0  0  0  0  0
   -1.7209    1.6469   -1.9941 H   0  0  0  0  0  0  0  0  0  0  0  0
   -1.3423    1.9147   -0.3013 H   0  0  0  0  0  0  0  0  0  0  0  0
    0.3149   -3.2785    0.7983 H   0  0  0  0  0  0  0  0  0  0  0  0
   -2.1151   -2.6806    1.5850 H   0  0  0  0  0  0  0  0  0  0  0  0
   -2.4738   -2.8235   -0.1334 H   0  0  0  0  0  0  0  0  0  0  0  0
    2.6395   -1.7008    1.4068 H   0  0  0  0  0  0  0  0  0  0  0  0
    2.4939   -2.8690    0.0746 H   0  0  0  0  0  0  0  0  0  0  0  0
   -4.5533   -2.7371    1.0596 H   0  0  0  0  0  0  0  0  0  0  0  0
   -4.2608    0.5241   -2.5150 H   0  0  0  0  0  0  0  0  0  0  0  0
   -3.8930    2.0797   -1.7933 H   0  0  0  0  0  0  0  0  0  0  0  0
   -0.0837    1.0343    1.5304 H   0  0  0  0  0  0  0  0  0  0  0  0
    1.5570    0.4362    1.7678 H   0  0  0  0  0  0  0  0  0  0  0  0
    3.3053    0.7232    0.2848 H   0  0  0  0  0  0  0  0  0  0  0  0
   -6.2321   -0.0500    1.0545 H   0  0  0  0  0  0  0  0  0  0  0  0
   -6.6511   -1.5333    0.2458 H   0  0  0  0  0  0  0  0  0  0  0  0
   -3.2109    1.0379    1.6720 H   0  0  0  0  0  0  0  0  0  0  0  0
   -3.3702    2.3572    0.5278 H   0  0  0  0  0  0  0  0  0  0  0  0
   -4.8005    1.5814    1.1714 H   0  0  0  0  0  0  0  0  0  0  0  0
   -6.2950    1.8435   -2.3456 H   0  0  0  0  0  0  0  0  0  0  0  0
   -6.0381    2.1868   -0.6608 H   0  0  0  0  0  0  0  0  0  0  0  0
   -6.7680   -0.4923   -1.9275 H   0  0  0  0  0  0  0  0  0  0  0  0
   -5.1093   -2.5456   -1.1212 H   0  0  0  0  0  0  0  0  0  0  0  0
    4.4957   -1.3788    0.6414 H   0  0  0  0  0  0  0  0  0  0  0  0
    4.5172   -1.6839   -1.0952 H   0  0  0  0  0  0  0  0  0  0  0  0
    1.0199   -2.5394    2.8124 H   0  0  0  0  0  0  0  0  0  0  0  0
    3.3835    0.1484   -2.7223 H   0  0  0  0  0  0  0  0  0  0  0  0
    4.2540    1.4388   -1.8833 H   0  0  0  0  0  0  0  0  0  0  0  0
    2.5417    1.5131   -1.9762 H   0  0  0  0  0  0  0  0  0  0  0  0
   -3.7287   -1.8098    2.9348 H   0  0  0  0  0  0  0  0  0  0  0  0
    5.9258    0.3671   -1.3738 H   0  0  0  0  0  0  0  0  0  0  0  0
    5.8759    0.6330    0.3700 H   0  0  0  0  0  0  0  0  0  0  0  0
   -8.4007    1.0247   -1.4572 H   0  0  0  0  0  0  0  0  0  0  0  0
    7.0507   -1.7945   -1.0805 H   0  0  0  0  0  0  0  0  0  0  0  0
    6.9769   -1.6168    0.6629 H   0  0  0  0  0  0  0  0  0  0  0  0
    8.4661    0.3715    0.5588 H   0  0  0  0  0  0  0  0  0  0  0  0
    3.0251    4.1026    0.3465 H   0  0  0  0  0  0  0  0  0  0  0  0
    2.2598    5.0652    1.6280 H   0  0  0  0  0  0  0  0  0  0  0  0
    1.3381    4.6921    0.1559 H   0  0  0  0  0  0  0  0  0  0  0  0
    8.5061   -0.2354   -2.4493 H   0  0  0  0  0  0  0  0  0  0  0  0
    7.9304    1.2511   -1.6658 H   0  0  0  0  0  0  0  0  0  0  0  0
    9.6410    0.8496   -1.6317 H   0  0  0  0  0  0  0  0  0  0  0  0
    9.4897   -1.8713    0.8740 H   0  0  0  0  0  0  0  0  0  0  0  0
   10.5608   -0.8000   -0.0410 H   0  0  0  0  0  0  0  0  0  0  0  0
    9.6424   -2.0635   -0.8807 H   0  0  0  0  0  0  0  0  0  0  0  0
  1 13  1  0  0  0  0
  1 63  1  0  0  0  0
  2 16  1  0  0  0  0
  2 66  1  0  0  0  0
  3 19  1  0  0  0  0
  3 70  1  0  0  0  0
  4 21  1  0  0  0  0
  4 30  1  0  0  0  0
  5 26  1  0  0  0  0
  5 73  1  0  0  0  0
  6 30  2  0  0  0  0
  7  8  1  0  0  0  0
  7 12  1  0  0  0  0
  7 14  1  0  0  0  0
  7 21  1  0  0  0  0
  8  9  1  0  0  0  0
  8 16  1  0  0  0  0
  8 36  1  0  0  0  0
  9 10  1  0  0  0  0
  9 17  1  0  0  0  0
  9 37  1  0  0  0  0
 10 11  1  0  0  0  0
 10 15  1  0  0  0  0
 10 38  1  0  0  0  0
 11 13  1  0  0  0  0
 11 20  1  0  0  0  0
 11 24  1  0  0  0  0
 12 18  1  0  0  0  0
 12 22  1  0  0  0  0
 12 39  1  0  0  0  0
 13 19  1  0  0  0  0
 13 23  1  0  0  0  0
 14 15  1  0  0  0  0
 14 40  1  0  0  0  0
 14 41  1  0  0  0  0
 15 42  1  0  0  0  0
 15 43  1  0  0  0  0
 16 18  1  0  0  0  0
 16 44  1  0  0  0  0
 17 19  1  0  0  0  0
 17 45  1  0  0  0  0
 17 46  1  0  0  0  0
 18 47  1  0  0  0  0
 18 48  1  0  0  0  0
 19 49  1  0  0  0  0
 20 25  1  0  0  0  0
 20 50  1  0  0  0  0
 20 51  1  0  0  0  0
 21 52  1  0  0  0  0
 21 53  1  0  0  0  0
 22 27  1  0  0  0  0
 22 28  1  0  0  0  0
 22 54  1  0  0  0  0
 23 26  1  0  0  0  0
 23 55  1  0  0  0  0
 23 56  1  0  0  0  0
 24 57  1  0  0  0  0
 24 58  1  0  0  0  0
 24 59  1  0  0  0  0
 25 26  1  0  0  0  0
 25 60  1  0  0  0  0
 25 61  1  0  0  0  0
 26 62  1  0  0  0  0
 27 29  1  0  0  0  0
 27 64  1  0  0  0  0
 27 65  1  0  0  0  0
 28 67  1  0  0  0  0
 28 68  1  0  0  0  0
 28 69  1  0  0  0  0
 29 31  1  0  0  0  0
 29 71  1  0  0  0  0
 29 72  1  0  0  0  0
 30 33  1  0  0  0  0
 31 32  1  0  0  0  0
 31 74  1  0  0  0  0
 31 75  1  0  0  0  0
 32 34  1  0  0  0  0
 32 35  1  0  0  0  0
 32 76  1  0  0  0  0
 33 77  1  0  0  0  0
 33 78  1  0  0  0  0
 33 79  1  0  0  0  0
 34 80  1  0  0  0  0
 34 81  1  0  0  0  0
 34 82  1  0  0  0  0
 35 83  1  0  0  0  0
 35 84  1  0  0  0  0
 35 85  1  0  0  0  0
M  END
> <PUBCHEM_COMPOUND_CID>
10601280

> <PUBCHEM_CONFORMER_RMSD>
1

> <PUBCHEM_CONFORMER_DIVERSEORDER>
1
9
13
7
11
10
8
4
12
6
3
14
5
2

> <PUBCHEM_MMFF94_PARTIAL_CHARGES>
17
1 -0.68
13 0.28
16 0.28
19 0.28
2 -0.68
21 0.28
26 0.28
3 -0.68
30 0.66
33 0.06
4 -0.43
5 -0.68
6 -0.57
63 0.4
66 0.4
70 0.4
73 0.4

> <PUBCHEM_EFFECTIVE_ROTOR_COUNT>
10.2

> <PUBCHEM_PHARMACOPHORE_FEATURES>
16
1 1 acceptor
1 1 donor
1 2 acceptor
1 2 donor
1 28 hydrophobe
1 3 acceptor
1 3 donor
1 5 acceptor
1 5 donor
1 6 acceptor
3 32 34 35 hydrophobe
5 22 27 29 31 32 hydrophobe
5 7 8 12 16 18 rings
6 11 13 20 23 25 26 rings
6 7 8 9 10 14 15 rings
6 9 10 11 13 17 19 rings

> <PUBCHEM_HEAVY_ATOM_COUNT>
35

> <PUBCHEM_ATOM_DEF_STEREO_COUNT>
11

> <PUBCHEM_ATOM_UDEF_STEREO_COUNT>
0

> <PUBCHEM_BOND_DEF_STEREO_COUNT>
0

> <PUBCHEM_BOND_UDEF_STEREO_COUNT>
0

> <PUBCHEM_ISOTOPIC_ATOM_COUNT>
0

> <PUBCHEM_COMPONENT_COUNT>
1

> <PUBCHEM_CACTVS_TAUTO_COUNT>
1

> <PUBCHEM_CONFORMER_ID>
00A1C34000000001

> <PUBCHEM_MMFF94_ENERGY>
126.8616

> <PUBCHEM_FEATURE_SELFOVERLAP>
81.286

> <PUBCHEM_SHAPE_FINGERPRINT>
10165383 225 18040433261706955191
102385 1 17553472988144345182
10670039 82 17675918786031909533
10674148 151 16081087100529571516
10930396 42 17987213631243925298
11007060 377 17603876649691821944
11315181 36 18411704283574271007
11578080 2 18268708497715935673
12107698 1 17917991672755810121
12166972 35 18260554446523061548
12758862 11 18186803604082284704
13811026 1 18412539942713814552
14856354 85 17704075113723108654
15183329 4 17603586327293692158
15198563 99 18270974427920173532
15439362 3 18055905739789756776
15461852 350 18341331171030453718
15840311 113 16343409696215872984
15849732 13 16917064464912283676
1813 80 17059794255431270716
18393751 57 16327932167278977280
18681886 176 17988632013184593607
20721686 56 18272647987005475088
21033648 29 18262230153350616521
21792961 116 18337111177411156470
22393880 68 18337382842614173295
23559900 14 18188206610931526013
23576562 1 18198335345862537679
249057 3 17917708028261205935
335352 9 17967814954982513559
4073 2 16877952650242853850
5265222 85 17896330276076720926
58083652 198 18131634508626047120
59755656 520 13984666974876224730
6086070 43 18342447175564280259
7226269 152 18408328770282214656

> <PUBCHEM_SHAPE_MULTIPOLES>
685.07
20.86
2.91
1.76
31.71
2.6
0.62
-4.14
-8.63
0.75
1.96
-0.45
0.72
1.4

> <PUBCHEM_SHAPE_SELFOVERLAP>
1419.888

> <PUBCHEM_SHAPE_VOLUME>
387.7

> <PUBCHEM_COORDINATE_TYPE>
2
5
10

$$$$
