10615474
  -OEChem-03292013303D

 37 40  0     1  0  0  0  0  0999 V2000
    1.0978   -2.0591    0.3463 O   0  0  0  0  0  0  0  0  0  0  0  0
    0.0087    1.5796   -1.1494 O   0  0  0  0  0  0  0  0  0  0  0  0
    5.0850    1.6544   -0.1623 O   0  0  0  0  0  0  0  0  0  0  0  0
    5.6690   -0.6691    0.0929 O   0  0  0  0  0  0  0  0  0  0  0  0
   -2.8114   -0.7981   -2.0731 O   0  0  0  0  0  0  0  0  0  0  0  0
   -5.4359   -0.1723   -1.5074 O   0  0  0  0  0  0  0  0  0  0  0  0
   -6.1164    0.7804    1.0015 O   0  0  0  0  0  0  0  0  0  0  0  0
   -0.7166   -0.4980   -0.1517 C   0  0  1  0  0  0  0  0  0  0  0  0
    0.2104    0.7247   -0.0240 C   0  0  1  0  0  0  0  0  0  0  0  0
   -0.1973   -1.6126    0.7596 C   0  0  0  0  0  0  0  0  0  0  0  0
    1.6612    0.3051    0.0226 C   0  0  0  0  0  0  0  0  0  0  0  0
   -2.1681   -0.1612    0.1399 C   0  0  0  0  0  0  0  0  0  0  0  0
    2.0185   -1.0508    0.2046 C   0  0  0  0  0  0  0  0  0  0  0  0
    2.6748    1.2729   -0.0910 C   0  0  0  0  0  0  0  0  0  0  0  0
    3.3606   -1.4494    0.2201 C   0  0  0  0  0  0  0  0  0  0  0  0
    3.9894    0.8536   -0.0571 C   0  0  0  0  0  0  0  0  0  0  0  0
   -3.1469   -0.3264   -0.8382 C   0  0  0  0  0  0  0  0  0  0  0  0
    4.3226   -0.4711    0.0894 C   0  0  0  0  0  0  0  0  0  0  0  0
   -2.5127    0.3192    1.4019 C   0  0  0  0  0  0  0  0  0  0  0  0
   -4.4752   -0.0103   -0.5533 C   0  0  0  0  0  0  0  0  0  0  0  0
   -3.8411    0.6355    1.6869 C   0  0  0  0  0  0  0  0  0  0  0  0
    6.1460    0.6824   -0.0676 C   0  0  0  0  0  0  0  0  0  0  0  0
   -4.8223    0.4707    0.7092 C   0  0  0  0  0  0  0  0  0  0  0  0
   -0.6264   -0.8602   -1.1852 H   0  0  0  0  0  0  0  0  0  0  0  0
    0.0073    1.3052    0.8836 H   0  0  0  0  0  0  0  0  0  0  0  0
   -0.1480   -1.3111    1.8140 H   0  0  0  0  0  0  0  0  0  0  0  0
   -0.8625   -2.4827    0.7099 H   0  0  0  0  0  0  0  0  0  0  0  0
    2.4357    2.3250   -0.2087 H   0  0  0  0  0  0  0  0  0  0  0  0
    3.6362   -2.4916    0.3422 H   0  0  0  0  0  0  0  0  0  0  0  0
   -1.7671    0.4528    2.1805 H   0  0  0  0  0  0  0  0  0  0  0  0
   -0.9030    1.9142   -1.1059 H   0  0  0  0  0  0  0  0  0  0  0  0
   -4.0978    1.0080    2.6749 H   0  0  0  0  0  0  0  0  0  0  0  0
    6.7525    0.7347   -0.9791 H   0  0  0  0  0  0  0  0  0  0  0  0
    6.7785    0.9357    0.7911 H   0  0  0  0  0  0  0  0  0  0  0  0
   -3.6188   -0.8453   -2.6140 H   0  0  0  0  0  0  0  0  0  0  0  0
   -6.2917    0.0962   -1.1303 H   0  0  0  0  0  0  0  0  0  0  0  0
   -6.1668    1.0965    1.9200 H   0  0  0  0  0  0  0  0  0  0  0  0
  1 10  1  0  0  0  0
  1 13  1  0  0  0  0
  2  9  1  0  0  0  0
  2 31  1  0  0  0  0
  3 16  1  0  0  0  0
  3 22  1  0  0  0  0
  4 18  1  0  0  0  0
  4 22  1  0  0  0  0
  5 17  1  0  0  0  0
  5 35  1  0  0  0  0
  6 20  1  0  0  0  0
  6 36  1  0  0  0  0
  7 23  1  0  0  0  0
  7 37  1  0  0  0  0
  8  9  1  0  0  0  0
  8 10  1  0  0  0  0
  8 12  1  0  0  0  0
  8 24  1  0  0  0  0
  9 11  1  0  0  0  0
  9 25  1  0  0  0  0
 10 26  1  0  0  0  0
 10 27  1  0  0  0  0
 11 13  1  0  0  0  0
 11 14  2  0  0  0  0
 12 17  2  0  0  0  0
 12 19  1  0  0  0  0
 13 15  2  0  0  0  0
 14 16  1  0  0  0  0
 14 28  1  0  0  0  0
 15 18  1  0  0  0  0
 15 29  1  0  0  0  0
 16 18  2  0  0  0  0
 17 20  1  0  0  0  0
 19 21  2  0  0  0  0
 19 30  1  0  0  0  0
 20 23  2  0  0  0  0
 21 23  1  0  0  0  0
 21 32  1  0  0  0  0
 22 33  1  0  0  0  0
 22 34  1  0  0  0  0
M  END
> <PUBCHEM_COMPOUND_CID>
10615474

> <PUBCHEM_CONFORMER_RMSD>
0.6

> <PUBCHEM_CONFORMER_DIVERSEORDER>
1
4
5
6
3
2

> <PUBCHEM_MMFF94_PARTIAL_CHARGES>
31
1 -0.36
10 0.28
11 -0.14
12 -0.14
13 0.08
14 -0.15
15 -0.15
16 0.08
17 0.08
18 0.08
19 -0.15
2 -0.68
20 0.08
21 -0.15
22 0.56
23 0.08
28 0.15
29 0.15
3 -0.36
30 0.15
31 0.4
32 0.15
35 0.45
36 0.45
37 0.45
4 -0.36
5 -0.53
6 -0.53
7 -0.53
8 0.14
9 0.42

> <PUBCHEM_EFFECTIVE_ROTOR_COUNT>
2.4

> <PUBCHEM_PHARMACOPHORE_FEATURES>
12
1 1 acceptor
1 2 acceptor
1 2 donor
1 3 acceptor
1 4 acceptor
1 5 donor
1 6 donor
1 7 donor
5 3 4 16 18 22 rings
6 1 8 9 10 11 13 rings
6 11 13 14 15 16 18 rings
6 12 17 19 20 21 23 rings

> <PUBCHEM_HEAVY_ATOM_COUNT>
23

> <PUBCHEM_ATOM_DEF_STEREO_COUNT>
2

> <PUBCHEM_ATOM_UDEF_STEREO_COUNT>
0

> <PUBCHEM_BOND_DEF_STEREO_COUNT>
0

> <PUBCHEM_BOND_UDEF_STEREO_COUNT>
0

> <PUBCHEM_ISOTOPIC_ATOM_COUNT>
0

> <PUBCHEM_COMPONENT_COUNT>
1

> <PUBCHEM_CACTVS_TAUTO_COUNT>
32

> <PUBCHEM_CONFORMER_ID>
00A1FAB200000001

> <PUBCHEM_MMFF94_ENERGY>
68.3455

> <PUBCHEM_FEATURE_SELFOVERLAP>
61.092

> <PUBCHEM_SHAPE_FINGERPRINT>
10 15 17095522950743796764
11089746 13 18131632296306367584
11315181 36 17775002422660922529
11796584 16 15769779052762097206
12035758 1 17167875170636916889
12107183 9 17196309425545906186
12236239 1 18131350804233865159
12403259 415 17603864472984965902
12969540 114 17967800669916018390
13140716 1 18043539519568391160
13533116 47 18201439139220022714
13631057 29 18268986669652617167
14386348 63 17385727984557503665
14528608 73 18131068259942212128
14840074 17 18408606971945408460
15183329 4 16916798353107222718
15196674 1 18335140946852459418
15375358 24 17676205762539738523
15788980 27 16877661275039055490
17834072 33 17847058900154936040
17844677 252 15574720196262087948
18222031 100 9511462186946444094
18785283 64 17097230530096648261
19489759 90 16056883524358485825
200 152 18272365373577009169
20511986 3 18131056126279903336
20645477 70 18187919530980399738
21033648 144 18266167508589600916
21033648 29 17676753349284840228
21033650 10 17058402269589651384
21267235 1 18188493468082474642
21641784 216 17896055273368183300
22224240 67 17894354389077529611
2297311 6 15502380002171524767
23402539 116 16845569812369801681
23402655 69 18272931643872609174
23536379 177 16988566788450880678
23557571 272 16081367406162224895
23559900 14 15482666883745438603
23569914 152 17038633904714660735
23569943 247 18055362331953622462
29717793 49 17632582639214147580
300161 21 17989485212442514216
335352 9 18408324398343370886
34797466 226 15697719324004265600
350125 39 18045793539664092091
4340502 62 16008746905700576650
474 4 18410857693621951680
5104073 3 18261951977045751458
542803 24 18131350808270317696
59755656 520 18335422378352398787
7495541 125 15068632611852260452

> <PUBCHEM_SHAPE_MULTIPOLES>
432.24
13.59
1.47
1.23
1.61
0.24
0.17
-3.11
-0.15
1.29
-0.06
-2.04
-0.01
-0.93

> <PUBCHEM_SHAPE_SELFOVERLAP>
971.753

> <PUBCHEM_SHAPE_VOLUME>
227.2

> <PUBCHEM_COORDINATE_TYPE>
2
5
10

$$$$
