10618042
  -OEChem-03292013303D

 45 48  0     1  0  0  0  0  0999 V2000
    1.8892   -0.2100   -2.9532 O   0  0  0  0  0  0  0  0  0  0  0  0
    2.0154    2.5643    2.1669 O   0  0  0  0  0  0  0  0  0  0  0  0
    3.9596   -0.8186   -2.1984 O   0  0  0  0  0  0  0  0  0  0  0  0
    1.9081    3.5389    0.1313 O   0  0  0  0  0  0  0  0  0  0  0  0
   -2.1079   -1.8548   -0.5969 O   0  0  0  0  0  0  0  0  0  0  0  0
   -0.2576    1.9891   -0.5678 N   0  0  0  0  0  0  0  0  0  0  0  0
    1.4088    0.3255   -0.0928 C   0  0  1  0  0  0  0  0  0  0  0  0
    2.6259    0.6291   -0.8860 C   0  0  1  0  0  0  0  0  0  0  0  0
    2.7432    0.0243    0.4823 C   0  0  0  0  0  0  0  0  0  0  0  0
    0.6276    1.4901    0.4894 C   0  0  2  0  0  0  0  0  0  0  0  0
   -0.1646    1.0612    1.7437 C   0  0  0  0  0  0  0  0  0  0  0  0
    2.9111   -0.2062   -2.0637 C   0  0  0  0  0  0  0  0  0  0  0  0
   -1.1969   -0.0503    1.5134 C   0  0  0  0  0  0  0  0  0  0  0  0
    1.5774    2.6283    0.8828 C   0  0  0  0  0  0  0  0  0  0  0  0
   -2.1770    0.3548    0.4374 C   0  0  0  0  0  0  0  0  0  0  0  0
   -0.5060   -1.3501    1.1740 C   0  0  0  0  0  0  0  0  0  0  0  0
   -2.5848   -0.5668   -0.5330 C   0  0  0  0  0  0  0  0  0  0  0  0
   -1.0072   -2.1758    0.1619 C   0  0  0  0  0  0  0  0  0  0  0  0
   -2.7059    1.6536    0.4029 C   0  0  0  0  0  0  0  0  0  0  0  0
    0.6372   -1.7580    1.8772 C   0  0  0  0  0  0  0  0  0  0  0  0
   -3.5207   -0.2062   -1.5064 C   0  0  0  0  0  0  0  0  0  0  0  0
   -0.3923   -3.3970   -0.1285 C   0  0  0  0  0  0  0  0  0  0  0  0
   -3.6339    2.0163   -0.5741 C   0  0  0  0  0  0  0  0  0  0  0  0
    1.2559   -2.9735    1.5819 C   0  0  0  0  0  0  0  0  0  0  0  0
   -4.0438    1.0855   -1.5261 C   0  0  0  0  0  0  0  0  0  0  0  0
    0.7391   -3.7940    0.5818 C   0  0  0  0  0  0  0  0  0  0  0  0
    0.8042   -0.4240   -0.5765 H   0  0  0  0  0  0  0  0  0  0  0  0
    2.9943    1.6405   -0.9884 H   0  0  0  0  0  0  0  0  0  0  0  0
    3.0718   -1.0081    0.5346 H   0  0  0  0  0  0  0  0  0  0  0  0
    3.1879    0.6248    1.2625 H   0  0  0  0  0  0  0  0  0  0  0  0
    0.5194    0.7700    2.5484 H   0  0  0  0  0  0  0  0  0  0  0  0
   -0.6636    1.9449    2.1664 H   0  0  0  0  0  0  0  0  0  0  0  0
   -1.7659   -0.2125    2.4386 H   0  0  0  0  0  0  0  0  0  0  0  0
   -0.8253    2.7795   -0.2901 H   0  0  0  0  0  0  0  0  0  0  0  0
   -0.7469    1.2870   -1.1047 H   0  0  0  0  0  0  0  0  0  0  0  0
    2.0850   -0.7702   -3.7343 H   0  0  0  0  0  0  0  0  0  0  0  0
    2.6115    3.3114    2.3873 H   0  0  0  0  0  0  0  0  0  0  0  0
   -2.4691    2.3895    1.1664 H   0  0  0  0  0  0  0  0  0  0  0  0
    1.0447   -1.1820    2.7015 H   0  0  0  0  0  0  0  0  0  0  0  0
   -3.8410   -0.9254   -2.2556 H   0  0  0  0  0  0  0  0  0  0  0  0
   -0.7865   -4.0397   -0.9111 H   0  0  0  0  0  0  0  0  0  0  0  0
   -4.0501    3.0195   -0.5816 H   0  0  0  0  0  0  0  0  0  0  0  0
    2.1327   -3.2863    2.1415 H   0  0  0  0  0  0  0  0  0  0  0  0
   -4.7704    1.3660   -2.2828 H   0  0  0  0  0  0  0  0  0  0  0  0
    1.2181   -4.7419    0.3552 H   0  0  0  0  0  0  0  0  0  0  0  0
  1 12  1  0  0  0  0
  1 36  1  0  0  0  0
  2 14  1  0  0  0  0
  2 37  1  0  0  0  0
  3 12  2  0  0  0  0
  4 14  2  0  0  0  0
  5 17  1  0  0  0  0
  5 18  1  0  0  0  0
  6 10  1  0  0  0  0
  6 34  1  0  0  0  0
  6 35  1  0  0  0  0
  7  8  1  0  0  0  0
  7  9  1  0  0  0  0
  7 10  1  0  0  0  0
  7 27  1  0  0  0  0
  8  9  1  0  0  0  0
  8 12  1  0  0  0  0
  8 28  1  0  0  0  0
  9 29  1  0  0  0  0
  9 30  1  0  0  0  0
 10 11  1  0  0  0  0
 10 14  1  0  0  0  0
 11 13  1  0  0  0  0
 11 31  1  0  0  0  0
 11 32  1  0  0  0  0
 13 15  1  0  0  0  0
 13 16  1  0  0  0  0
 13 33  1  0  0  0  0
 15 17  1  0  0  0  0
 15 19  2  0  0  0  0
 16 18  1  0  0  0  0
 16 20  2  0  0  0  0
 17 21  2  0  0  0  0
 18 22  2  0  0  0  0
 19 23  1  0  0  0  0
 19 38  1  0  0  0  0
 20 24  1  0  0  0  0
 20 39  1  0  0  0  0
 21 25  1  0  0  0  0
 21 40  1  0  0  0  0
 22 26  1  0  0  0  0
 22 41  1  0  0  0  0
 23 25  2  0  0  0  0
 23 42  1  0  0  0  0
 24 26  2  0  0  0  0
 24 43  1  0  0  0  0
 25 44  1  0  0  0  0
 26 45  1  0  0  0  0
M  END
> <PUBCHEM_COMPOUND_CID>
10618042

> <PUBCHEM_CONFORMER_RMSD>
0.8

> <PUBCHEM_CONFORMER_DIVERSEORDER>
1
2
4
3

> <PUBCHEM_MMFF94_PARTIAL_CHARGES>
41
1 -0.65
10 0.43
12 0.72
13 0.29
14 0.66
15 -0.14
16 -0.14
17 0.08
18 0.08
19 -0.15
2 -0.65
20 -0.15
21 -0.15
22 -0.15
23 -0.15
24 -0.15
25 -0.15
26 -0.15
27 0.1
28 0.1
29 0.1
3 -0.57
30 0.1
34 0.36
35 0.36
36 0.5
37 0.5
38 0.15
39 0.15
4 -0.57
40 0.15
41 0.15
42 0.15
43 0.15
44 0.15
45 0.15
5 -0.17
6 -0.99
7 -0.19
8 -0.1
9 -0.2

> <PUBCHEM_EFFECTIVE_ROTOR_COUNT>
6

> <PUBCHEM_PHARMACOPHORE_FEATURES>
12
1 1 acceptor
1 2 acceptor
1 3 acceptor
1 4 acceptor
1 5 acceptor
1 6 cation
1 6 donor
3 1 3 12 anion
3 2 4 14 anion
6 15 17 19 21 23 25 rings
6 16 18 20 22 24 26 rings
6 5 13 15 16 17 18 rings

> <PUBCHEM_HEAVY_ATOM_COUNT>
26

> <PUBCHEM_ATOM_DEF_STEREO_COUNT>
3

> <PUBCHEM_ATOM_UDEF_STEREO_COUNT>
0

> <PUBCHEM_BOND_DEF_STEREO_COUNT>
0

> <PUBCHEM_BOND_UDEF_STEREO_COUNT>
0

> <PUBCHEM_ISOTOPIC_ATOM_COUNT>
0

> <PUBCHEM_COMPONENT_COUNT>
1

> <PUBCHEM_CACTVS_TAUTO_COUNT>
1

> <PUBCHEM_CONFORMER_ID>
00A204BA00000001

> <PUBCHEM_MMFF94_ENERGY>
106.4184

> <PUBCHEM_FEATURE_SELFOVERLAP>
61.068

> <PUBCHEM_SHAPE_FINGERPRINT>
10165383 225 17825141205471065177
10871710 139 17113836093544712358
11582403 64 16981475062552454424
11640471 11 16591376063695316936
12035759 4 17908151970825066566
12156800 1 14787378375270663994
12422481 6 17173734321908657240
12788726 201 17322936211325127617
13140716 1 18411131480929404569
13149001 5 18269014118291993196
13294875 104 18337093610446082024
133893 2 16813523257398358702
13681431 1 17755295669782810739
14142880 1 11315443189349240654
14181834 199 17899965050268217899
14713325 29 17097808800113660370
14840074 17 17460012038888470506
15163728 17 16083942432361503358
15324884 4 16326247723922984537
15463212 79 17533513467465131862
16945 1 18413672417661452649
18336668 15 17755002113136917050
18981168 100 13191728987375916836
19591789 44 17904186376746200083
20465049 17 18269570359791412725
20600515 1 17701519737057251280
20905425 154 18049156670675833581
21285901 2 17691968584769715215
22889148 1 17900005976990521342
22907989 373 17606989431255367287
23419403 2 17839495454484234867
23559900 14 16414620562962819481
238 59 18334855004887987375
2748010 2 18191872429610504841
513532 50 17700951285425030661
5262128 65 17775011188673401405
6669772 16 18341039826450446066
81228 2 17470743559468394795
9925002 15 17259621443945602304

> <PUBCHEM_SHAPE_MULTIPOLES>
500.74
5.39
4
2.17
3.27
1.56
-0.86
-2
-3.61
-1.81
1.5
-1.55
-0.23
-0.01

> <PUBCHEM_SHAPE_SELFOVERLAP>
1113.121

> <PUBCHEM_SHAPE_VOLUME>
263.7

> <PUBCHEM_COORDINATE_TYPE>
2
5
10

$$$$
