10612083
  -OEChem-03292013303D

 28 29  0     1  0  0  0  0  0999 V2000
   -0.5494    1.8356   -0.3704 S   0  0  0  0  0  0  0  0  0  0  0  0
   -0.4756    2.7724   -1.4747 O   0  0  0  0  0  0  0  0  0  0  0  0
   -0.2596    2.2694    0.9843 O   0  0  0  0  0  0  0  0  0  0  0  0
   -2.5417   -1.0608    2.1495 O   0  0  0  0  0  0  0  0  0  0  0  0
   -1.4585   -2.5314   -0.9275 O   0  0  0  0  0  0  0  0  0  0  0  0
    0.7882   -2.8045   -0.6560 O   0  0  0  0  0  0  0  0  0  0  0  0
   -1.6635   -0.3299    0.0859 N   0  0  0  0  0  0  0  0  0  0  0  0
    4.9764    0.2574    1.2347 N   0  0  0  0  0  0  0  0  0  0  0  0
   -2.1166    0.9781   -0.4148 C   0  0  1  0  0  0  0  0  0  0  0  0
    0.4708    0.3450   -0.7578 C   0  0  1  0  0  0  0  0  0  0  0  0
   -0.2735   -0.7473    0.0329 C   0  0  2  0  0  0  0  0  0  0  0  0
   -3.0823    1.0203    0.7750 C   0  0  0  0  0  0  0  0  0  0  0  0
   -2.4661   -0.3304    1.1876 C   0  0  0  0  0  0  0  0  0  0  0  0
    0.5034    0.1213   -2.2743 C   0  0  0  0  0  0  0  0  0  0  0  0
    1.8467    0.6216   -0.2376 C   0  0  0  0  0  0  0  0  0  0  0  0
   -0.2231   -2.1278   -0.5426 C   0  0  0  0  0  0  0  0  0  0  0  0
    2.6116   -0.2991    0.3637 C   0  0  0  0  0  0  0  0  0  0  0  0
    3.9129    0.0101    0.8421 C   0  0  0  0  0  0  0  0  0  0  0  0
   -2.5659    0.9150   -1.4098 H   0  0  0  0  0  0  0  0  0  0  0  0
    0.0523   -0.8139    1.0790 H   0  0  0  0  0  0  0  0  0  0  0  0
   -4.1419    0.9557    0.5136 H   0  0  0  0  0  0  0  0  0  0  0  0
   -2.9256    1.8241    1.4977 H   0  0  0  0  0  0  0  0  0  0  0  0
    0.9472    0.9771   -2.7964 H   0  0  0  0  0  0  0  0  0  0  0  0
    1.1007   -0.7580   -2.5401 H   0  0  0  0  0  0  0  0  0  0  0  0
   -0.5029   -0.0193   -2.6836 H   0  0  0  0  0  0  0  0  0  0  0  0
    2.2524    1.6191   -0.4011 H   0  0  0  0  0  0  0  0  0  0  0  0
    2.2783   -1.3121    0.5355 H   0  0  0  0  0  0  0  0  0  0  0  0
   -1.4462   -3.4346   -1.3101 H   0  0  0  0  0  0  0  0  0  0  0  0
  1  2  2  0  0  0  0
  1  3  2  0  0  0  0
  1  9  1  0  0  0  0
  1 10  1  0  0  0  0
  4 13  2  0  0  0  0
  5 16  1  0  0  0  0
  5 28  1  0  0  0  0
  6 16  2  0  0  0  0
  7  9  1  0  0  0  0
  7 11  1  0  0  0  0
  7 13  1  0  0  0  0
  8 18  3  0  0  0  0
  9 12  1  0  0  0  0
  9 19  1  0  0  0  0
 10 11  1  0  0  0  0
 10 14  1  0  0  0  0
 10 15  1  0  0  0  0
 11 16  1  0  0  0  0
 11 20  1  0  0  0  0
 12 13  1  0  0  0  0
 12 21  1  0  0  0  0
 12 22  1  0  0  0  0
 14 23  1  0  0  0  0
 14 24  1  0  0  0  0
 14 25  1  0  0  0  0
 15 17  2  0  0  0  0
 15 26  1  0  0  0  0
 17 18  1  0  0  0  0
 17 27  1  0  0  0  0
M  END
> <PUBCHEM_COMPOUND_CID>
10612083

> <PUBCHEM_CONFORMER_RMSD>
0.6

> <PUBCHEM_CONFORMER_DIVERSEORDER>
2
4
3
5
1

> <PUBCHEM_MMFF94_PARTIAL_CHARGES>
20
1 1.1
10 0.24
11 0.36
12 0.05
13 0.58
15 -0.29
16 0.66
17 -0.09
18 0.49
2 -0.65
26 0.15
27 0.15
28 0.5
3 -0.65
4 -0.57
5 -0.65
6 -0.57
7 -0.59
8 -0.56
9 0.32

> <PUBCHEM_EFFECTIVE_ROTOR_COUNT>
2.6

> <PUBCHEM_PHARMACOPHORE_FEATURES>
9
1 2 acceptor
1 3 acceptor
1 4 acceptor
1 5 acceptor
1 6 acceptor
1 8 acceptor
3 5 6 16 anion
4 7 9 12 13 rings
7 1 7 9 10 11 12 13 rings

> <PUBCHEM_HEAVY_ATOM_COUNT>
18

> <PUBCHEM_ATOM_DEF_STEREO_COUNT>
3

> <PUBCHEM_ATOM_UDEF_STEREO_COUNT>
0

> <PUBCHEM_BOND_DEF_STEREO_COUNT>
1

> <PUBCHEM_BOND_UDEF_STEREO_COUNT>
0

> <PUBCHEM_ISOTOPIC_ATOM_COUNT>
0

> <PUBCHEM_COMPONENT_COUNT>
1

> <PUBCHEM_CACTVS_TAUTO_COUNT>
1

> <PUBCHEM_CONFORMER_ID>
00A1ED7300000002

> <PUBCHEM_MMFF94_ENERGY>
39.8523

> <PUBCHEM_FEATURE_SELFOVERLAP>
49.43

> <PUBCHEM_SHAPE_FINGERPRINT>
11132069 177 18343300375212649068
11680611 10 17834696146041939255
12423570 1 8065313030092335149
12633257 1 18131066069799009704
13024252 1 17895739725824536236
13172582 1 18340780319999306861
14178342 30 18196398990560281939
15207287 21 18260545598362429913
15309172 13 18342735196102636042
15375462 478 17894633660123970202
15852999 172 17826789240141122965
16945 1 18201731659955722309
19930374 2 18334856061138894485
200 152 13767923499584520768
20871998 184 18335417937524512972
22112679 90 18194125346210606510
23402539 116 17987782120845321511
23419403 2 17466494608388746183
2748010 2 18122357773981269063
394222 165 17318776629825240908
568465 68 18270136685214550313
6992083 37 18338233894071830654
81228 2 18054777644948507470

> <PUBCHEM_SHAPE_MULTIPOLES>
334.97
5.15
2.55
1.62
6.29
0.58
0.17
-0.48
-3.67
-0.94
0.82
-0.22
-0.01
0.36

> <PUBCHEM_SHAPE_SELFOVERLAP>
697.617

> <PUBCHEM_SHAPE_VOLUME>
191.3

> <PUBCHEM_COORDINATE_TYPE>
2
5
10

$$$$
