10622134
  -OEChem-03292013303D

 60 61  0     1  0  0  0  0  0999 V2000
   -3.0078   -2.7225   -1.9260 O   0  0  0  0  0  0  0  0  0  0  0  0
   -0.9228   -0.7786   -2.0883 O   0  0  0  0  0  0  0  0  0  0  0  0
    0.6333   -2.2239    1.2886 O   0  0  0  0  0  0  0  0  0  0  0  0
   -5.2320   -2.3464    0.6859 O   0  0  0  0  0  0  0  0  0  0  0  0
   -5.2272   -4.1274   -0.7473 O   0  0  0  0  0  0  0  0  0  0  0  0
   -2.3142    5.9303    0.8474 O   0  0  0  0  0  0  0  0  0  0  0  0
    2.3412   -1.0265    0.2834 N   0  0  0  0  0  0  0  0  0  0  0  0
   -1.2198   -0.5912    0.2137 N   0  0  0  0  0  0  0  0  0  0  0  0
    5.9506   -2.9818    3.0249 N   0  0  0  0  0  0  0  0  0  0  0  0
    3.4296    2.7222   -4.6433 N   0  0  0  0  0  0  0  0  0  0  0  0
   -2.9676   -1.5011   -1.1768 C   0  0  1  0  0  0  0  0  0  0  0  0
   -3.2765   -2.8156   -0.5211 C   0  0  1  0  0  0  0  0  0  0  0  0
    0.0665   -0.0172    0.5388 C   0  0  2  0  0  0  0  0  0  0  0  0
   -1.5965   -0.9199   -1.0743 C   0  0  0  0  0  0  0  0  0  0  0  0
    1.0331   -1.1836    0.7542 C   0  0  0  0  0  0  0  0  0  0  0  0
   -0.0156    0.8469    1.8033 C   0  0  0  0  0  0  0  0  0  0  0  0
    2.8056    0.2042   -0.3462 C   0  0  0  0  0  0  0  0  0  0  0  0
    3.3450   -2.0828    0.3854 C   0  0  0  0  0  0  0  0  0  0  0  0
    2.5984    0.2030   -1.8582 C   0  0  0  0  0  0  0  0  0  0  0  0
   -4.6666   -3.1772   -0.2225 C   0  0  0  0  0  0  0  0  0  0  0  0
    4.1414   -2.0111    1.6851 C   0  0  0  0  0  0  0  0  0  0  0  0
   -0.6282    2.2027    1.5485 C   0  0  0  0  0  0  0  0  0  0  0  0
    3.1067    1.4904   -2.5188 C   0  0  0  0  0  0  0  0  0  0  0  0
    5.2076   -3.1041    1.7755 C   0  0  0  0  0  0  0  0  0  0  0  0
    2.9565    1.4815   -4.0415 C   0  0  0  0  0  0  0  0  0  0  0  0
   -2.0069    2.3782    1.6676 C   0  0  0  0  0  0  0  0  0  0  0  0
    0.1838    3.2801    1.1938 C   0  0  0  0  0  0  0  0  0  0  0  0
   -2.5735    3.6308    1.4323 C   0  0  0  0  0  0  0  0  0  0  0  0
   -0.3827    4.5327    0.9585 C   0  0  0  0  0  0  0  0  0  0  0  0
   -1.7614    4.7080    1.0776 C   0  0  0  0  0  0  0  0  0  0  0  0
   -3.7689   -0.7933   -1.3502 H   0  0  0  0  0  0  0  0  0  0  0  0
   -2.5183   -3.2910    0.0891 H   0  0  0  0  0  0  0  0  0  0  0  0
    0.3492    0.5885   -0.3224 H   0  0  0  0  0  0  0  0  0  0  0  0
   -1.8555   -0.8055    0.9771 H   0  0  0  0  0  0  0  0  0  0  0  0
    0.9883    0.9948    2.2240 H   0  0  0  0  0  0  0  0  0  0  0  0
   -0.5795    0.3314    2.5928 H   0  0  0  0  0  0  0  0  0  0  0  0
    3.8728    0.3247   -0.1213 H   0  0  0  0  0  0  0  0  0  0  0  0
    2.3199    1.0721    0.1069 H   0  0  0  0  0  0  0  0  0  0  0  0
    2.8272   -3.0484    0.3410 H   0  0  0  0  0  0  0  0  0  0  0  0
    4.0086   -2.0364   -0.4857 H   0  0  0  0  0  0  0  0  0  0  0  0
    3.1257   -0.6538   -2.2962 H   0  0  0  0  0  0  0  0  0  0  0  0
    1.5424    0.0641   -2.1059 H   0  0  0  0  0  0  0  0  0  0  0  0
    4.6188   -1.0262    1.7677 H   0  0  0  0  0  0  0  0  0  0  0  0
    3.4528   -2.0914    2.5364 H   0  0  0  0  0  0  0  0  0  0  0  0
    2.5583    2.3452   -2.1024 H   0  0  0  0  0  0  0  0  0  0  0  0
    4.1634    1.6338   -2.2592 H   0  0  0  0  0  0  0  0  0  0  0  0
    5.9046   -3.0192    0.9351 H   0  0  0  0  0  0  0  0  0  0  0  0
    4.7399   -4.0933    1.7245 H   0  0  0  0  0  0  0  0  0  0  0  0
    1.9033    1.3400   -4.3072 H   0  0  0  0  0  0  0  0  0  0  0  0
    3.5174    0.6406   -4.4644 H   0  0  0  0  0  0  0  0  0  0  0  0
   -2.6506    1.5474    1.9441 H   0  0  0  0  0  0  0  0  0  0  0  0
    1.2591    3.1571    1.0970 H   0  0  0  0  0  0  0  0  0  0  0  0
   -6.1610   -2.5939    0.8812 H   0  0  0  0  0  0  0  0  0  0  0  0
   -3.6489    3.7543    1.5285 H   0  0  0  0  0  0  0  0  0  0  0  0
    0.2549    5.3680    0.6821 H   0  0  0  0  0  0  0  0  0  0  0  0
    5.3144   -3.0868    3.8143 H   0  0  0  0  0  0  0  0  0  0  0  0
    6.6212   -3.7460    3.0950 H   0  0  0  0  0  0  0  0  0  0  0  0
    4.4164    2.8544   -4.4250 H   0  0  0  0  0  0  0  0  0  0  0  0
    3.3678    2.6513   -5.6580 H   0  0  0  0  0  0  0  0  0  0  0  0
   -3.2766    5.8698    0.9745 H   0  0  0  0  0  0  0  0  0  0  0  0
  1 11  1  0  0  0  0
  1 12  1  0  0  0  0
  2 14  2  0  0  0  0
  3 15  2  0  0  0  0
  4 20  1  0  0  0  0
  4 53  1  0  0  0  0
  5 20  2  0  0  0  0
  6 30  1  0  0  0  0
  6 60  1  0  0  0  0
  7 15  1  0  0  0  0
  7 17  1  0  0  0  0
  7 18  1  0  0  0  0
  8 13  1  0  0  0  0
  8 14  1  0  0  0  0
  8 34  1  0  0  0  0
  9 24  1  0  0  0  0
  9 56  1  0  0  0  0
  9 57  1  0  0  0  0
 10 25  1  0  0  0  0
 10 58  1  0  0  0  0
 10 59  1  0  0  0  0
 11 12  1  0  0  0  0
 11 14  1  0  0  0  0
 11 31  1  0  0  0  0
 12 20  1  0  0  0  0
 12 32  1  0  0  0  0
 13 15  1  0  0  0  0
 13 16  1  0  0  0  0
 13 33  1  0  0  0  0
 16 22  1  0  0  0  0
 16 35  1  0  0  0  0
 16 36  1  0  0  0  0
 17 19  1  0  0  0  0
 17 37  1  0  0  0  0
 17 38  1  0  0  0  0
 18 21  1  0  0  0  0
 18 39  1  0  0  0  0
 18 40  1  0  0  0  0
 19 23  1  0  0  0  0
 19 41  1  0  0  0  0
 19 42  1  0  0  0  0
 21 24  1  0  0  0  0
 21 43  1  0  0  0  0
 21 44  1  0  0  0  0
 22 26  2  0  0  0  0
 22 27  1  0  0  0  0
 23 25  1  0  0  0  0
 23 45  1  0  0  0  0
 23 46  1  0  0  0  0
 24 47  1  0  0  0  0
 24 48  1  0  0  0  0
 25 49  1  0  0  0  0
 25 50  1  0  0  0  0
 26 28  1  0  0  0  0
 26 51  1  0  0  0  0
 27 29  2  0  0  0  0
 27 52  1  0  0  0  0
 28 30  2  0  0  0  0
 28 54  1  0  0  0  0
 29 30  1  0  0  0  0
 29 55  1  0  0  0  0
M  END
> <PUBCHEM_COMPOUND_CID>
10622134

> <PUBCHEM_CONFORMER_RMSD>
1.2

> <PUBCHEM_CONFORMER_DIVERSEORDER>
1
9
11
22
19
3
8
10
13
7
5
12
15
20
21
17
14
16
18
4
2
6

> <PUBCHEM_MMFF94_PARTIAL_CHARGES>
40
1 -0.3
10 -0.99
11 0.05
12 0.05
13 0.36
14 0.63
15 0.57
16 0.14
17 0.3
18 0.3
2 -0.57
20 0.72
22 -0.14
24 0.27
25 0.27
26 -0.15
27 -0.15
28 -0.15
29 -0.15
3 -0.57
30 0.08
31 0.1
32 0.1
34 0.37
4 -0.65
5 -0.57
51 0.15
52 0.15
53 0.5
54 0.15
55 0.15
56 0.36
57 0.36
58 0.36
59 0.36
6 -0.53
60 0.45
7 -0.66
8 -0.73
9 -0.99

> <PUBCHEM_EFFECTIVE_ROTOR_COUNT>
15.6

> <PUBCHEM_PHARMACOPHORE_FEATURES>
13
1 1 acceptor
1 10 cation
1 10 donor
1 2 acceptor
1 3 acceptor
1 4 acceptor
1 5 acceptor
1 6 donor
1 8 donor
1 9 cation
1 9 donor
3 4 5 20 anion
6 22 26 27 28 29 30 rings

> <PUBCHEM_HEAVY_ATOM_COUNT>
30

> <PUBCHEM_ATOM_DEF_STEREO_COUNT>
3

> <PUBCHEM_ATOM_UDEF_STEREO_COUNT>
0

> <PUBCHEM_BOND_DEF_STEREO_COUNT>
0

> <PUBCHEM_BOND_UDEF_STEREO_COUNT>
0

> <PUBCHEM_ISOTOPIC_ATOM_COUNT>
0

> <PUBCHEM_COMPONENT_COUNT>
1

> <PUBCHEM_CACTVS_TAUTO_COUNT>
4

> <PUBCHEM_CONFORMER_ID>
00A214B600000001

> <PUBCHEM_MMFF94_ENERGY>
44.0155

> <PUBCHEM_FEATURE_SELFOVERLAP>
66.032

> <PUBCHEM_SHAPE_FINGERPRINT>
10074138 170 17837742587624605107
10940486 97 17978535043483408278
11377469 6 18187917344895124970
11763715 3 18411986879664234986
12058002 1 17822283609411050952
12160290 23 17631178489619041633
12293681 160 17686085063905447196
12608794 3 16895369717301354034
12617007 42 17415015821805067655
12633046 712 18265037206674076599
12788726 201 18267890378600719759
13009979 54 18336540539107826082
15664445 248 17842856682619632510
17980427 23 17538583014717675608
1813 80 17630625611137316831
2132832 1 18334289851853934714
26353 1 17628381524921455981
5081480 168 17700989983586893461
9981440 41 17548699582697408649

> <PUBCHEM_SHAPE_MULTIPOLES>
562.25
9.35
7.4
3.57
6.22
5.47
-4.6
-11.23
2.9
-10.61
1.42
6.18
2.23
-8.29

> <PUBCHEM_SHAPE_SELFOVERLAP>
1137.262

> <PUBCHEM_SHAPE_VOLUME>
326.1

> <PUBCHEM_COORDINATE_TYPE>
2
5
10

$$$$
