10624918
  -OEChem-03292013303D

 69 74  0     1  0  0  0  0  0999 V2000
    2.7214   -0.8666   -0.6739 O   0  0  0  0  0  0  0  0  0  0  0  0
    4.0879    2.1848    0.3226 O   0  0  0  0  0  0  0  0  0  0  0  0
    1.2900    0.2825   -2.1214 O   0  0  0  0  0  0  0  0  0  0  0  0
   -2.4021    2.4510    2.0725 O   0  0  0  0  0  0  0  0  0  0  0  0
   -4.4328    0.7831   -1.2698 O   0  0  0  0  0  0  0  0  0  0  0  0
    2.3507    2.9859    1.5969 O   0  0  0  0  0  0  0  0  0  0  0  0
   -1.0985   -4.5439    0.5625 O   0  0  0  0  0  0  0  0  0  0  0  0
   -2.6118   -4.2061   -1.1186 O   0  0  0  0  0  0  0  0  0  0  0  0
   -5.1752    1.5212    0.7896 O   0  0  0  0  0  0  0  0  0  0  0  0
    0.9566    0.0692    1.0427 C   0  0  1  0  0  0  0  0  0  0  0  0
   -0.4495   -0.3274    0.5250 C   0  0  1  0  0  0  0  0  0  0  0  0
    1.7140   -1.4021    1.1650 C   0  0  1  0  0  0  0  0  0  0  0  0
   -0.5796   -1.8424    0.8247 C   0  0  2  0  0  0  0  0  0  0  0  0
   -1.6809    0.3704    1.1319 C   0  0  2  0  0  0  0  0  0  0  0  0
    1.7140    1.1495    0.0762 C   0  0  2  0  0  0  0  0  0  0  0  0
    0.7925   -2.3797    0.4185 C   0  0  0  0  0  0  0  0  0  0  0  0
    3.1315   -1.1426    0.7003 C   0  0  1  0  0  0  0  0  0  0  0  0
   -2.9623   -0.1645    0.4344 C   0  0  1  0  0  0  0  0  0  0  0  0
    2.3046    0.4061   -1.1281 C   0  0  1  0  0  0  0  0  0  0  0  0
   -1.7581    1.8878    0.9248 C   0  0  1  0  0  0  0  0  0  0  0  0
   -3.0956    0.7491   -0.7906 C   0  0  2  0  0  0  0  0  0  0  0  0
    3.5653    1.0589   -1.7242 C   0  0  1  0  0  0  0  0  0  0  0  0
   -2.6569    2.1367   -0.3004 C   0  0  2  0  0  0  0  0  0  0  0  0
   -1.8239   -2.3906    0.1990 C   0  0  0  0  0  0  0  0  0  0  0  0
    4.5315   -1.6190    0.2436 C   0  0  0  0  0  0  0  0  0  0  0  0
    4.5152    1.0710   -0.5327 C   0  0  2  0  0  0  0  0  0  0  0  0
   -2.9135   -1.6225    0.0270 C   0  0  0  0  0  0  0  0  0  0  0  0
    5.4216   -0.2406   -0.2490 C   0  0  0  0  0  0  0  0  0  0  0  0
    2.7341    2.1892    0.7412 C   0  0  0  0  0  0  0  0  0  0  0  0
    3.6120   -0.3804    2.0480 C   0  0  0  0  0  0  0  0  0  0  0  0
    4.1525    0.3509   -2.9446 C   0  0  0  0  0  0  0  0  0  0  0  0
   -1.9282    2.9047   -1.3996 C   0  0  0  0  0  0  0  0  0  0  0  0
   -1.9097   -3.7919   -0.2120 C   0  0  0  0  0  0  0  0  0  0  0  0
   -5.3811    1.1906   -0.3703 C   0  0  0  0  0  0  0  0  0  0  0  0
   -6.7357    1.1775   -1.0114 C   0  0  0  0  0  0  0  0  0  0  0  0
    0.8594    0.5033    2.0452 H   0  0  0  0  0  0  0  0  0  0  0  0
   -0.4697   -0.1837   -0.5609 H   0  0  0  0  0  0  0  0  0  0  0  0
    1.6795   -1.7080    2.2220 H   0  0  0  0  0  0  0  0  0  0  0  0
   -0.6862   -1.9930    1.9108 H   0  0  0  0  0  0  0  0  0  0  0  0
   -1.7249    0.1325    2.2040 H   0  0  0  0  0  0  0  0  0  0  0  0
    0.9440    1.8268   -0.3157 H   0  0  0  0  0  0  0  0  0  0  0  0
    0.9884   -3.3985    0.7628 H   0  0  0  0  0  0  0  0  0  0  0  0
    0.9119   -2.3640   -0.6698 H   0  0  0  0  0  0  0  0  0  0  0  0
   -3.7803   -0.0990    1.1539 H   0  0  0  0  0  0  0  0  0  0  0  0
   -0.7821    2.3686    0.8575 H   0  0  0  0  0  0  0  0  0  0  0  0
   -2.4631    0.4022   -1.6168 H   0  0  0  0  0  0  0  0  0  0  0  0
    3.3107    2.0819   -2.0350 H   0  0  0  0  0  0  0  0  0  0  0  0
   -3.4884    2.7928   -0.0278 H   0  0  0  0  0  0  0  0  0  0  0  0
    4.4850   -2.2932   -0.6221 H   0  0  0  0  0  0  0  0  0  0  0  0
    5.1007   -2.1352    1.0251 H   0  0  0  0  0  0  0  0  0  0  0  0
    5.3548    1.6335   -0.9777 H   0  0  0  0  0  0  0  0  0  0  0  0
   -3.8213   -2.0301   -0.4111 H   0  0  0  0  0  0  0  0  0  0  0  0
    6.1349   -0.0150    0.5520 H   0  0  0  0  0  0  0  0  0  0  0  0
    5.9933   -0.5348   -1.1358 H   0  0  0  0  0  0  0  0  0  0  0  0
    3.8636   -1.1367    2.8050 H   0  0  0  0  0  0  0  0  0  0  0  0
    4.4966    0.2461    1.9353 H   0  0  0  0  0  0  0  0  0  0  0  0
    2.8775    0.2788    2.5133 H   0  0  0  0  0  0  0  0  0  0  0  0
    4.2596   -0.7273   -2.7930 H   0  0  0  0  0  0  0  0  0  0  0  0
    3.5143    0.4968   -3.8223 H   0  0  0  0  0  0  0  0  0  0  0  0
    5.1361    0.7611   -3.1972 H   0  0  0  0  0  0  0  0  0  0  0  0
    1.6919   -0.0179   -2.9510 H   0  0  0  0  0  0  0  0  0  0  0  0
   -1.0422    2.3635   -1.7477 H   0  0  0  0  0  0  0  0  0  0  0  0
   -2.5858    3.0654   -2.2603 H   0  0  0  0  0  0  0  0  0  0  0  0
   -1.6016    3.8847   -1.0359 H   0  0  0  0  0  0  0  0  0  0  0  0
   -3.2790    2.0405    2.1630 H   0  0  0  0  0  0  0  0  0  0  0  0
   -1.1282   -5.4927    0.3151 H   0  0  0  0  0  0  0  0  0  0  0  0
   -6.9821    0.1631   -1.3345 H   0  0  0  0  0  0  0  0  0  0  0  0
   -6.7503    1.8666   -1.8594 H   0  0  0  0  0  0  0  0  0  0  0  0
   -7.4845    1.5035   -0.2839 H   0  0  0  0  0  0  0  0  0  0  0  0
  1 17  1  0  0  0  0
  1 19  1  0  0  0  0
  2 26  1  0  0  0  0
  2 29  1  0  0  0  0
  3 19  1  0  0  0  0
  3 61  1  0  0  0  0
  4 20  1  0  0  0  0
  4 65  1  0  0  0  0
  5 21  1  0  0  0  0
  5 34  1  0  0  0  0
  6 29  2  0  0  0  0
  7 33  1  0  0  0  0
  7 66  1  0  0  0  0
  8 33  2  0  0  0  0
  9 34  2  0  0  0  0
 10 11  1  0  0  0  0
 10 12  1  0  0  0  0
 10 15  1  0  0  0  0
 10 36  1  0  0  0  0
 11 13  1  0  0  0  0
 11 14  1  0  0  0  0
 11 37  1  0  0  0  0
 12 16  1  0  0  0  0
 12 17  1  0  0  0  0
 12 38  1  0  0  0  0
 13 16  1  0  0  0  0
 13 24  1  0  0  0  0
 13 39  1  0  0  0  0
 14 18  1  0  0  0  0
 14 20  1  0  0  0  0
 14 40  1  0  0  0  0
 15 19  1  0  0  0  0
 15 29  1  0  0  0  0
 15 41  1  0  0  0  0
 16 42  1  0  0  0  0
 16 43  1  0  0  0  0
 17 25  1  0  0  0  0
 17 30  1  0  0  0  0
 18 21  1  0  0  0  0
 18 27  1  0  0  0  0
 18 44  1  0  0  0  0
 19 22  1  0  0  0  0
 20 23  1  0  0  0  0
 20 45  1  0  0  0  0
 21 23  1  0  0  0  0
 21 46  1  0  0  0  0
 22 26  1  0  0  0  0
 22 31  1  0  0  0  0
 22 47  1  0  0  0  0
 23 32  1  0  0  0  0
 23 48  1  0  0  0  0
 24 27  2  0  0  0  0
 24 33  1  0  0  0  0
 25 28  1  0  0  0  0
 25 49  1  0  0  0  0
 25 50  1  0  0  0  0
 26 28  1  0  0  0  0
 26 51  1  0  0  0  0
 27 52  1  0  0  0  0
 28 53  1  0  0  0  0
 28 54  1  0  0  0  0
 30 55  1  0  0  0  0
 30 56  1  0  0  0  0
 30 57  1  0  0  0  0
 31 58  1  0  0  0  0
 31 59  1  0  0  0  0
 31 60  1  0  0  0  0
 32 62  1  0  0  0  0
 32 63  1  0  0  0  0
 32 64  1  0  0  0  0
 34 35  1  0  0  0  0
 35 67  1  0  0  0  0
 35 68  1  0  0  0  0
 35 69  1  0  0  0  0
M  END
> <PUBCHEM_COMPOUND_CID>
10624918

> <PUBCHEM_CONFORMER_RMSD>
0.8

> <PUBCHEM_CONFORMER_DIVERSEORDER>
1
3
2

> <PUBCHEM_MMFF94_PARTIAL_CHARGES>
27
1 -0.56
13 0.14
15 0.06
17 0.28
18 0.14
19 0.56
2 -0.43
20 0.28
21 0.28
24 -0.12
26 0.28
27 -0.29
29 0.66
3 -0.68
33 0.71
34 0.66
35 0.06
4 -0.68
5 -0.43
52 0.15
6 -0.57
61 0.4
65 0.4
66 0.5
7 -0.65
8 -0.57
9 -0.57

> <PUBCHEM_EFFECTIVE_ROTOR_COUNT>
4.8

> <PUBCHEM_PHARMACOPHORE_FEATURES>
16
1 1 acceptor
1 3 acceptor
1 3 donor
1 4 acceptor
1 4 donor
1 6 acceptor
1 7 acceptor
1 8 acceptor
1 9 acceptor
3 7 8 33 anion
5 10 11 12 13 16 rings
5 14 18 20 21 23 rings
6 1 10 12 15 17 19 rings
6 11 13 14 18 24 27 rings
6 2 15 19 22 26 29 rings
7 1 17 19 22 25 26 28 rings

> <PUBCHEM_HEAVY_ATOM_COUNT>
35

> <PUBCHEM_ATOM_DEF_STEREO_COUNT>
14

> <PUBCHEM_ATOM_UDEF_STEREO_COUNT>
0

> <PUBCHEM_BOND_DEF_STEREO_COUNT>
0

> <PUBCHEM_BOND_UDEF_STEREO_COUNT>
0

> <PUBCHEM_ISOTOPIC_ATOM_COUNT>
0

> <PUBCHEM_COMPONENT_COUNT>
1

> <PUBCHEM_CACTVS_TAUTO_COUNT>
1

> <PUBCHEM_CONFORMER_ID>
00A21F9600000001

> <PUBCHEM_MMFF94_ENERGY>
269.1813

> <PUBCHEM_FEATURE_SELFOVERLAP>
82.976

> <PUBCHEM_SHAPE_FINGERPRINT>
10498660 4 18335424594671184549
11115154 58 17411321519694935663
11578080 2 18267016344446007256
11640471 11 18040723566814802610
12107698 1 17704065157936668537
12160290 23 18338243768386800227
12166972 35 18116711812064322056
12788726 201 18191301795998391139
13140716 1 18335693979341350899
13224815 77 18041003942253641984
13583140 156 18201153364727457836
13617811 41 18186513311860229421
13782708 43 13182436899669299853
13944108 23 17687737247593780917
14790565 3 18340487760398320977
14840074 17 18041287586690127101
14955137 171 17475822856491242915
17349148 13 18059850611136138440
18681886 176 18264197016100864546
19319366 153 17822007575561798635
20511986 3 17894904157354299884
20715895 44 17897994747528513797
20775438 99 17699252716217196031
21781051 124 18261689120689348283
22149856 69 18265905671052596441
22393880 68 18339932631500815142
23557571 272 18127414664006518987
23559900 14 18272088331660805880
249057 3 18335139752957351346
350125 39 18334857173603924385
469060 322 17679323002922565049
474 4 17313109639621123408
513532 50 17845930745838591028

> <PUBCHEM_SHAPE_MULTIPOLES>
667.46
10.89
4.02
1.81
5.28
3.89
-0.54
-4.88
-2.93
2.69
0.05
-1.36
-0.77
-0.5

> <PUBCHEM_SHAPE_SELFOVERLAP>
1455.72

> <PUBCHEM_SHAPE_VOLUME>
358.3

> <PUBCHEM_COORDINATE_TYPE>
2
5
10

$$$$
