10621011
  -OEChem-03292013303D

 64 67  0     1  0  0  0  0  0999 V2000
    3.5490   -2.4529    0.8296 O   0  0  0  0  0  0  0  0  0  0  0  0
   -0.9755    0.3767   -0.8663 O   0  0  0  0  0  0  0  0  0  0  0  0
   -2.8880   -0.8315   -0.2948 O   0  0  0  0  0  0  0  0  0  0  0  0
   -2.2591    2.7583   -0.0368 O   0  0  0  0  0  0  0  0  0  0  0  0
   -5.1895    2.5698   -0.2778 O   0  0  0  0  0  0  0  0  0  0  0  0
   -6.1589    0.1715    1.0123 O   0  0  0  0  0  0  0  0  0  0  0  0
   -3.7514   -3.2838    0.5983 O   0  0  0  0  0  0  0  0  0  0  0  0
    3.9544    0.2617   -0.3451 C   0  0  1  0  0  0  0  0  0  0  0  0
    4.0104    1.7451   -0.0925 C   0  0  2  0  0  0  0  0  0  0  0  0
    4.8930    0.8115    0.6941 C   0  0  0  0  0  0  0  0  0  0  0  0
    2.6381   -0.3885    0.0244 C   0  0  1  0  0  0  0  0  0  0  0  0
    1.4629    0.4115   -0.6338 C   0  0  2  0  0  0  0  0  0  0  0  0
    2.7996    2.3633    0.5354 C   0  0  0  0  0  0  0  0  0  0  0  0
    1.4964    1.9116   -0.1442 C   0  0  0  0  0  0  0  0  0  0  0  0
    2.6204   -1.9310   -0.1413 C   0  0  2  0  0  0  0  0  0  0  0  0
    0.1211   -0.2444   -0.1998 C   0  0  2  0  0  0  0  0  0  0  0  0
    6.3460    0.8082    0.3475 C   0  0  0  0  0  0  0  0  0  0  0  0
    4.6606    0.6489    2.1581 C   0  0  0  0  0  0  0  0  0  0  0  0
    1.2288   -2.4746    0.2380 C   0  0  0  0  0  0  0  0  0  0  0  0
    0.0813   -1.7538   -0.4590 C   0  0  0  0  0  0  0  0  0  0  0  0
    1.5492    0.4600   -2.1825 C   0  0  0  0  0  0  0  0  0  0  0  0
    3.0734   -2.4890   -1.4946 C   0  0  0  0  0  0  0  0  0  0  0  0
   -2.1503    0.3648   -0.0560 C   0  0  2  0  0  0  0  0  0  0  0  0
   -2.9863    1.5916   -0.4207 C   0  0  1  0  0  0  0  0  0  0  0  0
   -4.3370    1.5770    0.2951 C   0  0  2  0  0  0  0  0  0  0  0  0
   -4.0673   -0.9175    0.5070 C   0  0  1  0  0  0  0  0  0  0  0  0
   -5.0262    0.2203    0.1486 C   0  0  1  0  0  0  0  0  0  0  0  0
   -4.6951   -2.2850    0.2566 C   0  0  0  0  0  0  0  0  0  0  0  0
    4.3539   -0.0658   -1.2958 H   0  0  0  0  0  0  0  0  0  0  0  0
    4.4387    2.3631   -0.8719 H   0  0  0  0  0  0  0  0  0  0  0  0
    2.4761   -0.2477    1.0988 H   0  0  0  0  0  0  0  0  0  0  0  0
    2.8783    3.4548    0.4545 H   0  0  0  0  0  0  0  0  0  0  0  0
    2.7186    2.1713    1.6077 H   0  0  0  0  0  0  0  0  0  0  0  0
    0.6793    2.1025    0.5630 H   0  0  0  0  0  0  0  0  0  0  0  0
    1.3012    2.5861   -0.9882 H   0  0  0  0  0  0  0  0  0  0  0  0
    0.0426   -0.0927    0.8864 H   0  0  0  0  0  0  0  0  0  0  0  0
    6.8043   -0.1490    0.6188 H   0  0  0  0  0  0  0  0  0  0  0  0
    6.5203    0.9635   -0.7232 H   0  0  0  0  0  0  0  0  0  0  0  0
    6.8740    1.6039    0.8841 H   0  0  0  0  0  0  0  0  0  0  0  0
    5.1739   -0.2514    2.5165 H   0  0  0  0  0  0  0  0  0  0  0  0
    5.0852    1.5017    2.7006 H   0  0  0  0  0  0  0  0  0  0  0  0
    3.6251    0.5520    2.4848 H   0  0  0  0  0  0  0  0  0  0  0  0
    1.0856   -2.3919    1.3244 H   0  0  0  0  0  0  0  0  0  0  0  0
    1.1734   -3.5506    0.0287 H   0  0  0  0  0  0  0  0  0  0  0  0
    0.0841   -1.9640   -1.5342 H   0  0  0  0  0  0  0  0  0  0  0  0
   -0.8570   -2.1789   -0.0882 H   0  0  0  0  0  0  0  0  0  0  0  0
    2.5119    0.8495   -2.5277 H   0  0  0  0  0  0  0  0  0  0  0  0
    1.3943   -0.5120   -2.6486 H   0  0  0  0  0  0  0  0  0  0  0  0
    0.7770    1.1176   -2.6003 H   0  0  0  0  0  0  0  0  0  0  0  0
    4.0893   -2.1705   -1.7463 H   0  0  0  0  0  0  0  0  0  0  0  0
    3.1215   -3.5845   -1.4491 H   0  0  0  0  0  0  0  0  0  0  0  0
    2.4090   -2.2340   -2.3184 H   0  0  0  0  0  0  0  0  0  0  0  0
    3.2630   -2.1694    1.7145 H   0  0  0  0  0  0  0  0  0  0  0  0
   -1.8873    0.4303    1.0087 H   0  0  0  0  0  0  0  0  0  0  0  0
   -3.1389    1.6501   -1.5057 H   0  0  0  0  0  0  0  0  0  0  0  0
   -4.2232    1.8388    1.3543 H   0  0  0  0  0  0  0  0  0  0  0  0
   -3.7765   -0.8671    1.5652 H   0  0  0  0  0  0  0  0  0  0  0  0
   -5.3870    0.1156   -0.8829 H   0  0  0  0  0  0  0  0  0  0  0  0
   -1.4166    2.7476   -0.5223 H   0  0  0  0  0  0  0  0  0  0  0  0
   -4.9465   -2.4113   -0.8018 H   0  0  0  0  0  0  0  0  0  0  0  0
   -5.5919   -2.4387    0.8633 H   0  0  0  0  0  0  0  0  0  0  0  0
   -4.7297    3.4237   -0.2047 H   0  0  0  0  0  0  0  0  0  0  0  0
   -6.7149   -0.5748    0.7323 H   0  0  0  0  0  0  0  0  0  0  0  0
   -4.1684   -4.1447    0.4242 H   0  0  0  0  0  0  0  0  0  0  0  0
  1 15  1  0  0  0  0
  1 53  1  0  0  0  0
  2 16  1  0  0  0  0
  2 23  1  0  0  0  0
  3 23  1  0  0  0  0
  3 26  1  0  0  0  0
  4 24  1  0  0  0  0
  4 59  1  0  0  0  0
  5 25  1  0  0  0  0
  5 62  1  0  0  0  0
  6 27  1  0  0  0  0
  6 63  1  0  0  0  0
  7 28  1  0  0  0  0
  7 64  1  0  0  0  0
  8  9  1  0  0  0  0
  8 10  1  0  0  0  0
  8 11  1  0  0  0  0
  8 29  1  0  0  0  0
  9 10  1  0  0  0  0
  9 13  1  0  0  0  0
  9 30  1  0  0  0  0
 10 17  1  0  0  0  0
 10 18  1  0  0  0  0
 11 12  1  0  0  0  0
 11 15  1  0  0  0  0
 11 31  1  0  0  0  0
 12 14  1  0  0  0  0
 12 16  1  0  0  0  0
 12 21  1  0  0  0  0
 13 14  1  0  0  0  0
 13 32  1  0  0  0  0
 13 33  1  0  0  0  0
 14 34  1  0  0  0  0
 14 35  1  0  0  0  0
 15 19  1  0  0  0  0
 15 22  1  0  0  0  0
 16 20  1  0  0  0  0
 16 36  1  0  0  0  0
 17 37  1  0  0  0  0
 17 38  1  0  0  0  0
 17 39  1  0  0  0  0
 18 40  1  0  0  0  0
 18 41  1  0  0  0  0
 18 42  1  0  0  0  0
 19 20  1  0  0  0  0
 19 43  1  0  0  0  0
 19 44  1  0  0  0  0
 20 45  1  0  0  0  0
 20 46  1  0  0  0  0
 21 47  1  0  0  0  0
 21 48  1  0  0  0  0
 21 49  1  0  0  0  0
 22 50  1  0  0  0  0
 22 51  1  0  0  0  0
 22 52  1  0  0  0  0
 23 24  1  0  0  0  0
 23 54  1  0  0  0  0
 24 25  1  0  0  0  0
 24 55  1  0  0  0  0
 25 27  1  0  0  0  0
 25 56  1  0  0  0  0
 26 27  1  0  0  0  0
 26 28  1  0  0  0  0
 26 57  1  0  0  0  0
 27 58  1  0  0  0  0
 28 60  1  0  0  0  0
 28 61  1  0  0  0  0
M  END
> <PUBCHEM_COMPOUND_CID>
10621011

> <PUBCHEM_CONFORMER_RMSD>
0.8

> <PUBCHEM_CONFORMER_DIVERSEORDER>
1
15
16
13
17
7
23
22
5
2
8
12
6
21
18
11
19
10
20
9
14
4
3

> <PUBCHEM_MMFF94_PARTIAL_CHARGES>
29
1 -0.68
10 -0.19
11 0.09
13 0.09
15 0.28
16 0.28
17 0.09
18 0.09
2 -0.56
23 0.56
24 0.28
25 0.28
26 0.28
27 0.28
28 0.28
29 0.1
3 -0.56
30 0.1
4 -0.68
5 -0.68
53 0.4
59 0.4
6 -0.68
62 0.4
63 0.4
64 0.4
7 -0.68
8 -0.19
9 -0.19

> <PUBCHEM_EFFECTIVE_ROTOR_COUNT>
5.6

> <PUBCHEM_PHARMACOPHORE_FEATURES>
16
1 1 acceptor
1 1 donor
1 2 acceptor
1 3 acceptor
1 4 acceptor
1 4 donor
1 5 acceptor
1 5 donor
1 6 acceptor
1 6 donor
1 7 acceptor
1 7 donor
3 10 17 18 hydrophobe
6 11 12 15 16 19 20 rings
6 3 23 24 25 26 27 rings
7 8 9 10 11 12 13 14 rings

> <PUBCHEM_HEAVY_ATOM_COUNT>
28

> <PUBCHEM_ATOM_DEF_STEREO_COUNT>
11

> <PUBCHEM_ATOM_UDEF_STEREO_COUNT>
0

> <PUBCHEM_BOND_DEF_STEREO_COUNT>
0

> <PUBCHEM_BOND_UDEF_STEREO_COUNT>
0

> <PUBCHEM_ISOTOPIC_ATOM_COUNT>
0

> <PUBCHEM_COMPONENT_COUNT>
1

> <PUBCHEM_CACTVS_TAUTO_COUNT>
1

> <PUBCHEM_CONFORMER_ID>
00A2105300000001

> <PUBCHEM_MMFF94_ENERGY>
105.9572

> <PUBCHEM_FEATURE_SELFOVERLAP>
81.268

> <PUBCHEM_SHAPE_FINGERPRINT>
10319926 262 18411127018600620322
1100329 8 17333091919543047976
11578080 2 17242436227748969596
11646440 116 17846501456460917456
12107183 9 17905326221857575569
12422481 6 18337098017373080786
12507560 40 18340206297620190277
12633257 1 16732706077095846130
12925494 130 18270115687594979889
13140716 1 18193832648611133510
13224815 77 18410014321212086231
13583140 156 18272928349653844173
14178342 30 18333170578865157117
14341114 176 18411143498031354017
144659 39 17560802164544642983
14790565 3 18192436492356594796
15196674 1 18410293579806408463
15788980 27 15791724222209471423
15927050 60 16827285247348117301
1601671 61 18409165511495092764
17349148 13 17604149332374676671
17492 89 18410858746127192887
1813 80 16805328759991621477
18608769 82 18340491166143329918
20028762 73 18126845125922348214
20691752 17 17095527266579248358
20775530 9 15071968333195402018
21033648 144 18337383830335274237
21033648 29 17917136299811291696
21065198 57 18409732816265446061
21197605 99 18195251250175766915
21421861 104 17896590688222147472
21452121 103 18342455916007441158
21673915 165 18408604785891690535
21792934 111 18335145246763809841
21859007 373 17388526122072254693
22149856 69 18266765544816191689
22393880 68 18338807723098623150
23559900 14 18269559351157126567
2838139 119 15338829933079801144
29717793 49 11891334248943206683
3411729 13 18409729543838028490
350125 39 18337392759340127948
3545911 37 18413110550071749909
3633792 109 18264478504806859573
392239 28 18340775952286664121
4073 2 18260272970480707978
4093350 32 17060067999361067631
4340502 62 18342736321705801328
465052 167 17749103401232130272
5104073 3 18337116653314942617
5265222 85 18124885809829909932
59755656 215 18410857642272300284
6823239 73 18270691861557091286
9709674 26 18411143519801830079

> <PUBCHEM_SHAPE_MULTIPOLES>
535.14
13.21
3.2
1.21
7.57
1.14
-0.1
-2.72
4.18
1.2
0.07
-1.18
0.07
1.1

> <PUBCHEM_SHAPE_SELFOVERLAP>
1122.467

> <PUBCHEM_SHAPE_VOLUME>
299.1

> <PUBCHEM_COORDINATE_TYPE>
2
5
10

$$$$
