10637614
  -OEChem-03292013303D

 36 35  0     1  0  0  0  0  0999 V2000
   -3.8212    0.2144   -0.0458 S   0  0  0  0  0  0  0  0  0  0  0  0
   -4.5781   -0.7895   -0.7720 O   0  0  0  0  0  0  0  0  0  0  0  0
   -3.9916    0.3802    1.3866 O   0  0  0  0  0  0  0  0  0  0  0  0
   -0.6486    1.8321   -0.6755 O   0  0  0  0  0  0  0  0  0  0  0  0
    0.2231   -1.5360   -1.4196 O   0  0  0  0  0  0  0  0  0  0  0  0
   -1.1699    1.2321    1.4488 O   0  0  0  0  0  0  0  0  0  0  0  0
    2.8810   -0.3830   -1.3269 O   0  0  0  0  0  0  0  0  0  0  0  0
    0.6052   -1.9759    0.8299 N   0  0  0  0  0  0  0  0  0  0  0  0
    2.7949   -0.9833    0.9117 N   0  0  0  0  0  0  0  0  0  0  0  0
    4.8948    1.4118   -0.7395 N   0  0  0  0  0  0  0  0  0  0  0  0
   -2.1026   -0.0539   -0.3672 C   0  0  2  0  0  0  0  0  0  0  0  0
   -1.6341   -1.4304    0.0989 C   0  0  0  0  0  0  0  0  0  0  0  0
   -0.1805   -1.6600   -0.2652 C   0  0  0  0  0  0  0  0  0  0  0  0
   -4.1379    1.7868   -0.8117 C   0  0  0  0  0  0  0  0  0  0  0  0
   -1.2721    1.0514    0.2413 C   0  0  0  0  0  0  0  0  0  0  0  0
    2.0323   -2.2019    0.7323 C   0  0  0  0  0  0  0  0  0  0  0  0
    3.9445    1.0558    0.3120 C   0  0  2  0  0  0  0  0  0  0  0  0
    3.1599   -0.1652   -0.1495 C   0  0  0  0  0  0  0  0  0  0  0  0
    3.0009    2.2143    0.6113 C   0  0  0  0  0  0  0  0  0  0  0  0
   -1.9988   -0.0014   -1.4589 H   0  0  0  0  0  0  0  0  0  0  0  0
   -2.2202   -2.2232   -0.3805 H   0  0  0  0  0  0  0  0  0  0  0  0
   -1.7862   -1.5375    1.1793 H   0  0  0  0  0  0  0  0  0  0  0  0
   -3.5642    2.5624   -0.3023 H   0  0  0  0  0  0  0  0  0  0  0  0
   -5.2054    1.9979   -0.7168 H   0  0  0  0  0  0  0  0  0  0  0  0
   -3.8651    1.7278   -1.8668 H   0  0  0  0  0  0  0  0  0  0  0  0
    0.1866   -2.0270    1.7535 H   0  0  0  0  0  0  0  0  0  0  0  0
    2.3167   -2.8946    1.5292 H   0  0  0  0  0  0  0  0  0  0  0  0
    2.2695   -2.6476   -0.2388 H   0  0  0  0  0  0  0  0  0  0  0  0
    4.5104    0.8085    1.2178 H   0  0  0  0  0  0  0  0  0  0  0  0
    3.0343   -0.7119    1.8606 H   0  0  0  0  0  0  0  0  0  0  0  0
    3.5535    3.0951    0.9550 H   0  0  0  0  0  0  0  0  0  0  0  0
    2.4231    2.4982   -0.2758 H   0  0  0  0  0  0  0  0  0  0  0  0
    2.2833    1.9394    1.3923 H   0  0  0  0  0  0  0  0  0  0  0  0
   -0.1210    2.5426   -0.2524 H   0  0  0  0  0  0  0  0  0  0  0  0
    5.4259    2.2346   -0.4565 H   0  0  0  0  0  0  0  0  0  0  0  0
    5.5744    0.6608   -0.8550 H   0  0  0  0  0  0  0  0  0  0  0  0
  1  2  2  0  0  0  0
  1  3  2  0  0  0  0
  1 11  1  0  0  0  0
  1 14  1  0  0  0  0
  4 15  1  0  0  0  0
  4 34  1  0  0  0  0
  5 13  2  0  0  0  0
  6 15  2  0  0  0  0
  7 18  2  0  0  0  0
  8 13  1  0  0  0  0
  8 16  1  0  0  0  0
  8 26  1  0  0  0  0
  9 16  1  0  0  0  0
  9 18  1  0  0  0  0
  9 30  1  0  0  0  0
 10 17  1  0  0  0  0
 10 35  1  0  0  0  0
 10 36  1  0  0  0  0
 11 12  1  0  0  0  0
 11 15  1  0  0  0  0
 11 20  1  0  0  0  0
 12 13  1  0  0  0  0
 12 21  1  0  0  0  0
 12 22  1  0  0  0  0
 14 23  1  0  0  0  0
 14 24  1  0  0  0  0
 14 25  1  0  0  0  0
 16 27  1  0  0  0  0
 16 28  1  0  0  0  0
 17 18  1  0  0  0  0
 17 19  1  0  0  0  0
 17 29  1  0  0  0  0
 19 31  1  0  0  0  0
 19 32  1  0  0  0  0
 19 33  1  0  0  0  0
M  END
> <PUBCHEM_COMPOUND_CID>
10637614

> <PUBCHEM_CONFORMER_RMSD>
0.8

> <PUBCHEM_CONFORMER_DIVERSEORDER>
7
228
30
337
280
332
142
55
187
87
23
164
28
304
335
19
38
292
58
317
322
11
44
306
145
5
95
272
6
270
252
26
274
29
238
271
117
53
120
34
200
51
85
227
344
281
188
99
39
68
305
126
336
231
333
196
143
42
20
276
76
134
83
37
267
291
75
67
132
224
163
277
266
183
88
294
112
190
295
2
324
204
62
211
343
33
52
315
41
289
31
97
13
303
176
210
4
54
212
232
100
82
273
90
185
160
255
89
108
251
61
73
217
341
296
106
314
131
124
213
310
235
179
250
241
9
114
45
93
64
48
129
205
137
207
158
287
203
127
247
35
282
109
285
81
195
138
149
36
47
135
301
17
197
299
320
115
84
256
248
253
189
116
21
92
216
40
25
283
244
313
154
1
263
174
105
220
65
27
140
57
331
146
264
49
165
122
182
325
234
121
32
236
265
148
72
153
3
80
70
288
290
136
186
46
193
181
157
319
50
104
113
10
219
79
307
293
339
24
173
298
169
103
202
223
329
177
275
240
77
91
94
56
161
199
312
328
286
118
12
166
284
167
96
191
262
326
334
345
259
330
172
268
15
71
110
59
327
242
309
342
237
302
175
18
278
22
243
245
214
123
300
107
209
258
139
111
198
102
74
16
246
311
229
338
151
63
150
180
147
316
144
178
297
257
221
101
119
230
133
170
201
208
233
152
192
60
171
8
98
168
78
254
69
346
194
162
141
226
249
128
321
86
318
130
14
239
225
218
269
279
206
215
308
340
184
66
323
159
260
43
222
156
261
155
125

> <PUBCHEM_MMFF94_PARTIAL_CHARGES>
23
1 1.09
10 -0.99
11 0.17
12 0.06
13 0.57
14 0.11
15 0.66
16 0.6
17 0.33
18 0.57
2 -0.65
26 0.37
3 -0.65
30 0.37
34 0.5
35 0.36
36 0.36
4 -0.65
5 -0.57
6 -0.57
7 -0.57
8 -0.73
9 -0.73

> <PUBCHEM_EFFECTIVE_ROTOR_COUNT>
9

> <PUBCHEM_PHARMACOPHORE_FEATURES>
11
1 10 cation
1 10 donor
1 2 acceptor
1 3 acceptor
1 4 acceptor
1 5 acceptor
1 6 acceptor
1 7 acceptor
1 8 donor
1 9 donor
3 4 6 15 anion

> <PUBCHEM_HEAVY_ATOM_COUNT>
19

> <PUBCHEM_ATOM_DEF_STEREO_COUNT>
2

> <PUBCHEM_ATOM_UDEF_STEREO_COUNT>
0

> <PUBCHEM_BOND_DEF_STEREO_COUNT>
0

> <PUBCHEM_BOND_UDEF_STEREO_COUNT>
0

> <PUBCHEM_ISOTOPIC_ATOM_COUNT>
0

> <PUBCHEM_COMPONENT_COUNT>
1

> <PUBCHEM_CACTVS_TAUTO_COUNT>
4

> <PUBCHEM_CONFORMER_ID>
00A2512E00000007

> <PUBCHEM_MMFF94_ENERGY>
19.6315

> <PUBCHEM_FEATURE_SELFOVERLAP>
55.934

> <PUBCHEM_SHAPE_FINGERPRINT>
10498660 4 18342455945708156896
10681291 71 18335711580475759096
12592029 89 18333733550235581105
14123255 52 18335979848195912912
14787075 74 18270397321231518731
15196674 1 18409163294558420156
15775835 57 18408887343389693560
17802600 8 18335977567705591282
17834072 14 17749108838312339797
1798214 55 18410288151294800536
18186145 218 18272654528008083561
20715895 44 17757816845919606293
21524375 3 18410293605993248970
22959321 54 18409448068281134234
23227448 37 18339076107035776703
23557571 272 18057332892802074414
23559900 14 18048305657377451299
4028521 119 18342178899095806140
44154327 71 18260551151665784892
449060 62 18411700971774833474
474 4 18114181981805983966
537710 114 18413384337162184129

> <PUBCHEM_SHAPE_MULTIPOLES>
344.7
8.93
2.43
1.16
0.21
0.11
0.03
-4.01
-0.82
-1.1
0.16
0.08
0.01
-0.15

> <PUBCHEM_SHAPE_SELFOVERLAP>
662.228

> <PUBCHEM_SHAPE_VOLUME>
210.8

> <PUBCHEM_COORDINATE_TYPE>
2
5
10

$$$$
