10638831
  -OEChem-03292013303D

 42 43  0     1  0  0  0  0  0999 V2000
    1.3526    0.2662    0.5679 O   0  0  0  0  0  0  0  0  0  0  0  0
    2.7115    2.2467   -2.1074 O   0  0  0  0  0  0  0  0  0  0  0  0
    0.3210   -2.1267   -1.7242 O   0  0  0  0  0  0  0  0  0  0  0  0
    3.2077    1.5785    2.2364 O   0  0  0  0  0  0  0  0  0  0  0  0
   -1.7915   -0.6573   -2.0895 O   0  0  0  0  0  0  0  0  0  0  0  0
   -4.6187    1.3927    0.9187 O   0  0  0  0  0  0  0  0  0  0  0  0
   -0.8633    0.2693   -0.1560 N   0  0  0  0  0  0  0  0  0  0  0  0
   -3.1977    0.3646   -0.5906 N   0  0  0  0  0  0  0  0  0  0  0  0
    0.4791   -0.1098   -0.5008 C   0  0  1  0  0  0  0  0  0  0  0  0
    0.9847    0.5637   -1.7677 C   0  0  0  0  0  0  0  0  0  0  0  0
    1.7327    1.7577   -1.2144 C   0  0  1  0  0  0  0  0  0  0  0  0
    2.3372    1.1773    0.0532 C   0  0  1  0  0  0  0  0  0  0  0  0
    0.4964   -1.6020   -0.6220 C   0  0  0  0  0  0  0  0  0  0  0  0
    0.7112   -2.4401    0.6533 C   0  0  0  0  0  0  0  0  0  0  0  0
    2.6635    2.2263    1.1002 C   0  0  0  0  0  0  0  0  0  0  0  0
   -0.4167   -2.1308    1.6454 C   0  0  0  0  0  0  0  0  0  0  0  0
    2.0732   -2.1286    1.2866 C   0  0  0  0  0  0  0  0  0  0  0  0
    0.6686   -3.9360    0.2958 C   0  0  0  0  0  0  0  0  0  0  0  0
   -1.9324   -0.0531   -1.0241 C   0  0  0  0  0  0  0  0  0  0  0  0
   -1.1082    0.9517    1.0295 C   0  0  0  0  0  0  0  0  0  0  0  0
   -2.3199    1.3433    1.4294 C   0  0  0  0  0  0  0  0  0  0  0  0
   -3.4911    1.0464    0.5802 C   0  0  0  0  0  0  0  0  0  0  0  0
    0.2126    0.8712   -2.4794 H   0  0  0  0  0  0  0  0  0  0  0  0
    1.6825   -0.0748   -2.3254 H   0  0  0  0  0  0  0  0  0  0  0  0
    1.0287    2.5667   -0.9868 H   0  0  0  0  0  0  0  0  0  0  0  0
    3.2391    0.5911   -0.1650 H   0  0  0  0  0  0  0  0  0  0  0  0
    1.7700    2.7711    1.4214 H   0  0  0  0  0  0  0  0  0  0  0  0
    3.3985    2.9448    0.7257 H   0  0  0  0  0  0  0  0  0  0  0  0
   -0.2648   -1.1911    2.1790 H   0  0  0  0  0  0  0  0  0  0  0  0
   -1.3982   -2.1187    1.1602 H   0  0  0  0  0  0  0  0  0  0  0  0
   -0.4583   -2.9020    2.4250 H   0  0  0  0  0  0  0  0  0  0  0  0
    2.0413   -1.3223    2.0252 H   0  0  0  0  0  0  0  0  0  0  0  0
    2.8314   -1.8947    0.5310 H   0  0  0  0  0  0  0  0  0  0  0  0
    2.4454   -2.9970    1.8451 H   0  0  0  0  0  0  0  0  0  0  0  0
    1.4614   -4.1954   -0.4156 H   0  0  0  0  0  0  0  0  0  0  0  0
   -0.2884   -4.2056   -0.1663 H   0  0  0  0  0  0  0  0  0  0  0  0
    0.7961   -4.5665    1.1830 H   0  0  0  0  0  0  0  0  0  0  0  0
    3.3371    1.5272   -2.2979 H   0  0  0  0  0  0  0  0  0  0  0  0
   -0.2757    1.1966    1.6771 H   0  0  0  0  0  0  0  0  0  0  0  0
   -3.9811    0.1436   -1.1989 H   0  0  0  0  0  0  0  0  0  0  0  0
   -2.4733    1.8768    2.3594 H   0  0  0  0  0  0  0  0  0  0  0  0
    2.5337    0.9642    2.5740 H   0  0  0  0  0  0  0  0  0  0  0  0
  1  9  1  0  0  0  0
  1 12  1  0  0  0  0
  2 11  1  0  0  0  0
  2 38  1  0  0  0  0
  3 13  2  0  0  0  0
  4 15  1  0  0  0  0
  4 42  1  0  0  0  0
  5 19  2  0  0  0  0
  6 22  2  0  0  0  0
  7  9  1  0  0  0  0
  7 19  1  0  0  0  0
  7 20  1  0  0  0  0
  8 19  1  0  0  0  0
  8 22  1  0  0  0  0
  8 40  1  0  0  0  0
  9 10  1  0  0  0  0
  9 13  1  0  0  0  0
 10 11  1  0  0  0  0
 10 23  1  0  0  0  0
 10 24  1  0  0  0  0
 11 12  1  0  0  0  0
 11 25  1  0  0  0  0
 12 15  1  0  0  0  0
 12 26  1  0  0  0  0
 13 14  1  0  0  0  0
 14 16  1  0  0  0  0
 14 17  1  0  0  0  0
 14 18  1  0  0  0  0
 15 27  1  0  0  0  0
 15 28  1  0  0  0  0
 16 29  1  0  0  0  0
 16 30  1  0  0  0  0
 16 31  1  0  0  0  0
 17 32  1  0  0  0  0
 17 33  1  0  0  0  0
 17 34  1  0  0  0  0
 18 35  1  0  0  0  0
 18 36  1  0  0  0  0
 18 37  1  0  0  0  0
 20 21  2  0  0  0  0
 20 39  1  0  0  0  0
 21 22  1  0  0  0  0
 21 41  1  0  0  0  0
M  END
> <PUBCHEM_COMPOUND_CID>
10638831

> <PUBCHEM_CONFORMER_RMSD>
0.8

> <PUBCHEM_CONFORMER_DIVERSEORDER>
1
7
4
6
5
3
2

> <PUBCHEM_MMFF94_PARTIAL_CHARGES>
23
1 -0.56
11 0.28
12 0.28
13 0.45
14 0.06
15 0.28
19 0.69
2 -0.68
20 -0.04
21 -0.14
22 0.62
3 -0.57
38 0.4
39 0.15
4 -0.68
40 0.37
41 0.15
42 0.4
5 -0.57
6 -0.57
7 -0.47
8 -0.49
9 0.64

> <PUBCHEM_EFFECTIVE_ROTOR_COUNT>
5

> <PUBCHEM_PHARMACOPHORE_FEATURES>
12
1 1 acceptor
1 2 acceptor
1 2 donor
1 3 acceptor
1 4 acceptor
1 4 donor
1 5 acceptor
1 6 acceptor
1 8 donor
4 14 16 17 18 hydrophobe
5 1 9 10 11 12 rings
6 7 8 19 20 21 22 rings

> <PUBCHEM_HEAVY_ATOM_COUNT>
22

> <PUBCHEM_ATOM_DEF_STEREO_COUNT>
3

> <PUBCHEM_ATOM_UDEF_STEREO_COUNT>
0

> <PUBCHEM_BOND_DEF_STEREO_COUNT>
0

> <PUBCHEM_BOND_UDEF_STEREO_COUNT>
0

> <PUBCHEM_ISOTOPIC_ATOM_COUNT>
0

> <PUBCHEM_COMPONENT_COUNT>
1

> <PUBCHEM_CACTVS_TAUTO_COUNT>
3

> <PUBCHEM_CONFORMER_ID>
00A255EF00000001

> <PUBCHEM_MMFF94_ENERGY>
78.0756

> <PUBCHEM_FEATURE_SELFOVERLAP>
60.914

> <PUBCHEM_SHAPE_FINGERPRINT>
11578080 2 13015102279780478985
11640471 11 18201423792663557541
12423570 1 10677905936417712542
12592029 89 17316443401831728247
12716301 132 18050025559855858032
12788726 201 17469611070965519026
13132413 78 17759534269922372996
13681431 1 17974581190636326774
13965767 371 18129096732467552129
14181834 199 18054207865854193309
14787075 74 17899990335010085258
14817 1 12406231322009083550
14955137 171 17985556558770939470
15906896 17 18050577540267866862
16752209 62 17901671797346738490
16945 1 18124289654471394978
17980427 23 17197397946753486321
1813 80 17764037865060208335
18981168 100 17695651905736122756
19765921 60 18201435921703929721
20510252 161 17399218142180192570
20559304 39 17915185607137957737
20600515 1 17043177056737615148
21524375 3 18342189872352430980
2255824 54 18191043217549506487
23419403 2 17024294233142167886
23558518 356 18054784246180872356
23559900 14 18042418928378250553
3286 77 17533230665385860947
35225 105 17976279137247737314
3729539 64 17391114428326126206
394222 165 18130509656495610505
427121 178 18341062898856563481
4340502 62 18335137610031901851
474 4 18409174315692902233
495365 180 18115591423006838505
5845 1 8828350477274606340
59554788 281 18196634405875088984
7364860 26 17986680272391209197
81228 2 17690851480607078750
8272917 22 18116731629233550529
84936 31 18335414608988201139
9981440 41 17342927454885931976

> <PUBCHEM_SHAPE_MULTIPOLES>
407.57
4.87
3.47
2.04
4.83
2.97
-0.27
-3.88
1.62
-2.78
0.51
-0.66
-0.5
-0.66

> <PUBCHEM_SHAPE_SELFOVERLAP>
862.594

> <PUBCHEM_SHAPE_VOLUME>
227.2

> <PUBCHEM_COORDINATE_TYPE>
2
5
10

$$$$
