10645803
  -OEChem-03292013303D

 66 67  0     1  0  0  0  0  0999 V2000
    0.8888   -1.8415    2.9632 O   0  0  0  0  0  0  0  0  0  0  0  0
    2.3040   -1.3124    0.6013 O   0  0  0  0  0  0  0  0  0  0  0  0
   -3.1750   -0.1900   -2.7594 O   0  0  0  0  0  0  0  0  0  0  0  0
    3.9370   -2.4913   -0.5239 O   0  0  0  0  0  0  0  0  0  0  0  0
    4.1891    4.4324   -0.5871 O   0  0  0  0  0  0  0  0  0  0  0  0
    2.9686    2.9541    0.6285 O   0  0  0  0  0  0  0  0  0  0  0  0
   -1.1350   -1.2112   -0.2063 C   0  0  2  0  0  0  0  0  0  0  0  0
   -2.0542    0.0083   -0.6466 C   0  0  1  0  0  0  0  0  0  0  0  0
   -0.5819   -1.0004    1.2332 C   0  0  2  0  0  0  0  0  0  0  0  0
   -0.0108   -1.6152   -1.2166 C   0  0  1  0  0  0  0  0  0  0  0  0
   -2.7816    0.7212    0.5634 C   0  0  1  0  0  0  0  0  0  0  0  0
    0.3122   -2.1642    1.6961 C   0  0  1  0  0  0  0  0  0  0  0  0
    0.8718   -2.7561   -0.6652 C   0  0  0  0  0  0  0  0  0  0  0  0
    1.4413   -2.4441    0.7088 C   0  0  1  0  0  0  0  0  0  0  0  0
   -1.7521   -0.8417    2.1737 C   0  0  0  0  0  0  0  0  0  0  0  0
   -4.1921    1.2432    0.2477 C   0  0  1  0  0  0  0  0  0  0  0  0
   -2.7949   -0.0746    1.8388 C   0  0  0  0  0  0  0  0  0  0  0  0
   -1.2712    1.1013   -1.4049 C   0  0  0  0  0  0  0  0  0  0  0  0
   -3.1033   -0.5494   -1.5853 C   0  0  0  0  0  0  0  0  0  0  0  0
   -0.5550   -2.0797   -2.5759 C   0  0  0  0  0  0  0  0  0  0  0  0
   -4.6919    2.1079    1.4140 C   0  0  0  0  0  0  0  0  0  0  0  0
   -4.1688    1.9978   -1.0787 C   0  0  0  0  0  0  0  0  0  0  0  0
   -4.0521   -1.5669   -1.0119 C   0  0  0  0  0  0  0  0  0  0  0  0
   -6.1110    2.6213    1.2164 C   0  0  0  0  0  0  0  0  0  0  0  0
    3.3575   -1.4530   -0.2528 C   0  0  0  0  0  0  0  0  0  0  0  0
    3.6817   -0.1065   -0.7833 C   0  0  0  0  0  0  0  0  0  0  0  0
    4.5251    0.7708   -0.2076 C   0  0  0  0  0  0  0  0  0  0  0  0
    4.8427    2.1549   -0.7175 C   0  0  0  0  0  0  0  0  0  0  0  0
    5.2197    0.4019    1.0794 C   0  0  0  0  0  0  0  0  0  0  0  0
    3.8911    3.1828   -0.1415 C   0  0  0  0  0  0  0  0  0  0  0  0
   -1.7658   -2.1097   -0.1347 H   0  0  0  0  0  0  0  0  0  0  0  0
    0.0056   -0.0726    1.2767 H   0  0  0  0  0  0  0  0  0  0  0  0
    0.6406   -0.7515   -1.3909 H   0  0  0  0  0  0  0  0  0  0  0  0
   -2.1783    1.6085    0.8177 H   0  0  0  0  0  0  0  0  0  0  0  0
   -0.2862   -3.0735    1.8336 H   0  0  0  0  0  0  0  0  0  0  0  0
    1.6612   -2.9805   -1.3904 H   0  0  0  0  0  0  0  0  0  0  0  0
    0.2677   -3.6710   -0.5916 H   0  0  0  0  0  0  0  0  0  0  0  0
    2.0342   -3.2877    1.0850 H   0  0  0  0  0  0  0  0  0  0  0  0
   -1.7640   -1.3697    3.1224 H   0  0  0  0  0  0  0  0  0  0  0  0
   -4.9129    0.4253    0.1649 H   0  0  0  0  0  0  0  0  0  0  0  0
   -3.6119   -0.0373    2.5475 H   0  0  0  0  0  0  0  0  0  0  0  0
   -1.8234    2.0071   -1.6436 H   0  0  0  0  0  0  0  0  0  0  0  0
   -0.4126    1.4238   -0.8025 H   0  0  0  0  0  0  0  0  0  0  0  0
   -0.8673    0.7508   -2.3589 H   0  0  0  0  0  0  0  0  0  0  0  0
    0.2478   -2.5050   -3.1893 H   0  0  0  0  0  0  0  0  0  0  0  0
   -0.9730   -1.2602   -3.1600 H   0  0  0  0  0  0  0  0  0  0  0  0
   -1.3221   -2.8517   -2.4554 H   0  0  0  0  0  0  0  0  0  0  0  0
   -4.0266    2.9688    1.5574 H   0  0  0  0  0  0  0  0  0  0  0  0
   -4.7095    1.5696    2.3633 H   0  0  0  0  0  0  0  0  0  0  0  0
   -3.9131    1.5468   -2.0161 H   0  0  0  0  0  0  0  0  0  0  0  0
   -5.1897    2.3483   -1.2816 H   0  0  0  0  0  0  0  0  0  0  0  0
   -3.5820    2.9189   -0.9734 H   0  0  0  0  0  0  0  0  0  0  0  0
    1.4569   -1.0617    2.8403 H   0  0  0  0  0  0  0  0  0  0  0  0
   -5.0728   -1.3148   -1.3139 H   0  0  0  0  0  0  0  0  0  0  0  0
   -4.0223   -1.6470    0.0733 H   0  0  0  0  0  0  0  0  0  0  0  0
   -3.7979   -2.5467   -1.4273 H   0  0  0  0  0  0  0  0  0  0  0  0
   -6.4602    3.1141    2.1301 H   0  0  0  0  0  0  0  0  0  0  0  0
   -6.8017    1.8026    0.9914 H   0  0  0  0  0  0  0  0  0  0  0  0
   -6.1677    3.3604    0.4122 H   0  0  0  0  0  0  0  0  0  0  0  0
    3.1713    0.1567   -1.7054 H   0  0  0  0  0  0  0  0  0  0  0  0
    5.8722    2.4311   -0.4664 H   0  0  0  0  0  0  0  0  0  0  0  0
    4.7391    2.1775   -1.8087 H   0  0  0  0  0  0  0  0  0  0  0  0
    4.9585    1.1179    1.8661 H   0  0  0  0  0  0  0  0  0  0  0  0
    6.3055    0.4321    0.9374 H   0  0  0  0  0  0  0  0  0  0  0  0
    4.9732   -0.5942    1.4564 H   0  0  0  0  0  0  0  0  0  0  0  0
    3.5794    5.1065   -0.2181 H   0  0  0  0  0  0  0  0  0  0  0  0
  1 12  1  0  0  0  0
  1 53  1  0  0  0  0
  2 14  1  0  0  0  0
  2 25  1  0  0  0  0
  3 19  2  0  0  0  0
  4 25  2  0  0  0  0
  5 30  1  0  0  0  0
  5 66  1  0  0  0  0
  6 30  2  0  0  0  0
  7  8  1  0  0  0  0
  7  9  1  0  0  0  0
  7 10  1  0  0  0  0
  7 31  1  0  0  0  0
  8 11  1  0  0  0  0
  8 18  1  0  0  0  0
  8 19  1  0  0  0  0
  9 12  1  0  0  0  0
  9 15  1  0  0  0  0
  9 32  1  0  0  0  0
 10 13  1  0  0  0  0
 10 20  1  0  0  0  0
 10 33  1  0  0  0  0
 11 16  1  0  0  0  0
 11 17  1  0  0  0  0
 11 34  1  0  0  0  0
 12 14  1  0  0  0  0
 12 35  1  0  0  0  0
 13 14  1  0  0  0  0
 13 36  1  0  0  0  0
 13 37  1  0  0  0  0
 14 38  1  0  0  0  0
 15 17  2  0  0  0  0
 15 39  1  0  0  0  0
 16 21  1  0  0  0  0
 16 22  1  0  0  0  0
 16 40  1  0  0  0  0
 17 41  1  0  0  0  0
 18 42  1  0  0  0  0
 18 43  1  0  0  0  0
 18 44  1  0  0  0  0
 19 23  1  0  0  0  0
 20 45  1  0  0  0  0
 20 46  1  0  0  0  0
 20 47  1  0  0  0  0
 21 24  1  0  0  0  0
 21 48  1  0  0  0  0
 21 49  1  0  0  0  0
 22 50  1  0  0  0  0
 22 51  1  0  0  0  0
 22 52  1  0  0  0  0
 23 54  1  0  0  0  0
 23 55  1  0  0  0  0
 23 56  1  0  0  0  0
 24 57  1  0  0  0  0
 24 58  1  0  0  0  0
 24 59  1  0  0  0  0
 25 26  1  0  0  0  0
 26 27  2  0  0  0  0
 26 60  1  0  0  0  0
 27 28  1  0  0  0  0
 27 29  1  0  0  0  0
 28 30  1  0  0  0  0
 28 61  1  0  0  0  0
 28 62  1  0  0  0  0
 29 63  1  0  0  0  0
 29 64  1  0  0  0  0
 29 65  1  0  0  0  0
M  END
> <PUBCHEM_COMPOUND_CID>
10645803

> <PUBCHEM_CONFORMER_RMSD>
1

> <PUBCHEM_CONFORMER_DIVERSEORDER>
1
14
9
2
13
6
7
12
10
8
11
15
4
5
3

> <PUBCHEM_MMFF94_PARTIAL_CHARGES>
26
1 -0.68
11 0.14
12 0.28
14 0.28
15 -0.29
17 -0.29
19 0.45
2 -0.43
23 0.06
25 0.71
26 -0.14
27 -0.28
28 0.2
29 0.14
3 -0.57
30 0.66
39 0.15
4 -0.57
41 0.15
5 -0.65
53 0.4
6 -0.57
60 0.15
66 0.5
8 0.06
9 0.14

> <PUBCHEM_EFFECTIVE_ROTOR_COUNT>
9.2

> <PUBCHEM_PHARMACOPHORE_FEATURES>
12
1 1 acceptor
1 1 donor
1 22 hydrophobe
1 24 hydrophobe
1 29 hydrophobe
1 3 acceptor
1 4 acceptor
1 5 acceptor
1 6 acceptor
3 5 6 30 anion
6 7 8 9 11 15 17 rings
6 7 9 10 12 13 14 rings

> <PUBCHEM_HEAVY_ATOM_COUNT>
30

> <PUBCHEM_ATOM_DEF_STEREO_COUNT>
8

> <PUBCHEM_ATOM_UDEF_STEREO_COUNT>
0

> <PUBCHEM_BOND_DEF_STEREO_COUNT>
1

> <PUBCHEM_BOND_UDEF_STEREO_COUNT>
0

> <PUBCHEM_ISOTOPIC_ATOM_COUNT>
0

> <PUBCHEM_COMPONENT_COUNT>
1

> <PUBCHEM_CACTVS_TAUTO_COUNT>
2

> <PUBCHEM_CONFORMER_ID>
00A2712B00000001

> <PUBCHEM_MMFF94_ENERGY>
114.2238

> <PUBCHEM_FEATURE_SELFOVERLAP>
60.971

> <PUBCHEM_SHAPE_FINGERPRINT>
10165383 225 17314251985375006386
10673678 19 17988366966679303993
10928967 22 9006788596340190536
11070050 100 17168433657665559496
11112241 14 18187363263901009093
12633257 1 16950572098795509046
12712778 12 9838829159576806009
13544653 18 9871753494415447498
13590594 115 17833267520182548666
14178342 30 14635716264168173935
14251764 38 18335134358230170024
14932701 244 18121213440207258095
15082195 135 18057582340444457877
15295992 7 18113621179605508922
15840311 113 18268158561382130077
21033648 29 16805885083031927463
21475661 188 18333737909664270800
22122407 14 18121516652367161881
22907989 373 17488186087256237558
23227448 37 18409169926056802339
23559900 14 16951702276538036986
27425 322 18193564372696450355
2838139 119 18408037399421369956
392239 28 17749107772785936697
474 4 18410291402331706058
484985 159 8861295685491432136
57724786 102 18114470037205621524
6034566 193 18270130139452542077
6036956 94 17545322337822284068
633830 44 18408887295749895146
7288768 16 17969787569390348248

> <PUBCHEM_SHAPE_MULTIPOLES>
582.17
11.28
3.98
2.28
1.58
3.01
0.19
11.09
0.47
3.55
-0.25
-1.74
-1.12
-1.67

> <PUBCHEM_SHAPE_SELFOVERLAP>
1198.84

> <PUBCHEM_SHAPE_VOLUME>
330.7

> <PUBCHEM_COORDINATE_TYPE>
2
5
10

$$$$
