10647785
  -OEChem-03292013303D

 63 69  0     1  0  0  0  0  0999 V2000
    0.6488    1.1957    2.2125 O   0  0  0  0  0  0  0  0  0  0  0  0
    2.5233   -2.1297    1.5422 O   0  0  0  0  0  0  0  0  0  0  0  0
    5.3417    2.0448    0.8223 O   0  0  0  0  0  0  0  0  0  0  0  0
    0.2537    2.9230   -0.1756 O   0  0  0  0  0  0  0  0  0  0  0  0
   -5.4069   -1.3952    0.2537 O   0  0  0  0  0  0  0  0  0  0  0  0
    4.2546   -1.1239    0.3600 N   0  0  0  0  0  0  0  0  0  0  0  0
    3.2414    1.1166    1.2681 N   0  0  0  0  0  0  0  0  0  0  0  0
   -1.8819    1.9947   -0.2345 N   0  0  0  0  0  0  0  0  0  0  0  0
    2.2009    0.5338   -0.8094 C   0  0  2  0  0  0  0  0  0  0  0  0
    2.2809    0.1781    0.6968 C   0  0  2  0  0  0  0  0  0  0  0  0
    0.8302    0.0063   -1.2866 C   0  0  0  0  0  0  0  0  0  0  0  0
   -0.0687    0.4450   -0.0526 C   0  0  2  0  0  0  0  0  0  0  0  0
    0.8298    0.2106    1.2060 C   0  0  2  0  0  0  0  0  0  0  0  0
    4.6084    0.0548   -0.4247 C   0  0  2  0  0  0  0  0  0  0  0  0
    3.5263    0.1990   -1.5173 C   0  0  0  0  0  0  0  0  0  0  0  0
    2.9980   -1.1719    0.9453 C   0  0  0  0  0  0  0  0  0  0  0  0
    6.0181   -0.2486   -0.9251 C   0  0  0  0  0  0  0  0  0  0  0  0
    4.4983    1.1776    0.6318 C   0  0  0  0  0  0  0  0  0  0  0  0
   -1.4303   -0.2167    0.0580 C   0  0  0  0  0  0  0  0  0  0  0  0
    0.4279    0.6638   -2.6201 C   0  0  0  0  0  0  0  0  0  0  0  0
    0.8454   -1.5162   -1.5347 C   0  0  0  0  0  0  0  0  0  0  0  0
   -0.4910    1.9537   -0.1616 C   0  0  0  0  0  0  0  0  0  0  0  0
    5.2475   -2.1744    0.2898 C   0  0  0  0  0  0  0  0  0  0  0  0
    6.0853   -1.7803   -0.9192 C   0  0  0  0  0  0  0  0  0  0  0  0
   -2.4449    0.7318   -0.0927 C   0  0  0  0  0  0  0  0  0  0  0  0
   -1.7654   -1.5363    0.3156 C   0  0  0  0  0  0  0  0  0  0  0  0
   -3.7974    0.4091   -0.0491 C   0  0  0  0  0  0  0  0  0  0  0  0
   -3.1154   -1.8923    0.3674 C   0  0  0  0  0  0  0  0  0  0  0  0
   -4.1227   -0.9305    0.1781 C   0  0  0  0  0  0  0  0  0  0  0  0
   -4.8574    1.3889   -0.2100 C   0  0  0  0  0  0  0  0  0  0  0  0
   -6.5014   -0.4835    0.0218 C   0  0  0  0  0  0  0  0  0  0  0  0
   -6.1222    0.9638   -0.1782 C   0  0  0  0  0  0  0  0  0  0  0  0
   -7.2365   -0.9924   -1.2237 C   0  0  0  0  0  0  0  0  0  0  0  0
   -7.4183   -0.5993    1.2455 C   0  0  0  0  0  0  0  0  0  0  0  0
    2.1497    1.6314   -0.8802 H   0  0  0  0  0  0  0  0  0  0  0  0
    0.5673   -0.7432    1.6731 H   0  0  0  0  0  0  0  0  0  0  0  0
    3.7867    1.0065   -2.2120 H   0  0  0  0  0  0  0  0  0  0  0  0
    3.4512   -0.7190   -2.1076 H   0  0  0  0  0  0  0  0  0  0  0  0
    2.9830    1.7927    1.9795 H   0  0  0  0  0  0  0  0  0  0  0  0
    6.2186    0.1681   -1.9169 H   0  0  0  0  0  0  0  0  0  0  0  0
    6.7784    0.1453   -0.2399 H   0  0  0  0  0  0  0  0  0  0  0  0
    1.0802    0.3263   -3.4340 H   0  0  0  0  0  0  0  0  0  0  0  0
    0.5050    1.7550   -2.5909 H   0  0  0  0  0  0  0  0  0  0  0  0
   -0.6020    0.4069   -2.8909 H   0  0  0  0  0  0  0  0  0  0  0  0
   -0.1193   -1.8608   -1.9236 H   0  0  0  0  0  0  0  0  0  0  0  0
    1.0615   -2.0925   -0.6337 H   0  0  0  0  0  0  0  0  0  0  0  0
    1.5891   -1.7954   -2.2877 H   0  0  0  0  0  0  0  0  0  0  0  0
    4.7756   -3.1561    0.1973 H   0  0  0  0  0  0  0  0  0  0  0  0
    5.8335   -2.1399    1.2140 H   0  0  0  0  0  0  0  0  0  0  0  0
    5.6258   -2.1705   -1.8355 H   0  0  0  0  0  0  0  0  0  0  0  0
    7.1091   -2.1602   -0.8637 H   0  0  0  0  0  0  0  0  0  0  0  0
    0.9612    2.0479    1.8653 H   0  0  0  0  0  0  0  0  0  0  0  0
   -2.4224    2.8465   -0.3236 H   0  0  0  0  0  0  0  0  0  0  0  0
   -1.0068   -2.2935    0.4795 H   0  0  0  0  0  0  0  0  0  0  0  0
   -3.3826   -2.9288    0.5604 H   0  0  0  0  0  0  0  0  0  0  0  0
   -4.6243    2.4355   -0.3598 H   0  0  0  0  0  0  0  0  0  0  0  0
   -6.9215    1.6895   -0.3077 H   0  0  0  0  0  0  0  0  0  0  0  0
   -7.5348   -2.0402   -1.1003 H   0  0  0  0  0  0  0  0  0  0  0  0
   -8.1337   -0.4024   -1.4410 H   0  0  0  0  0  0  0  0  0  0  0  0
   -6.5825   -0.9606   -2.1035 H   0  0  0  0  0  0  0  0  0  0  0  0
   -6.8962   -0.2807    2.1558 H   0  0  0  0  0  0  0  0  0  0  0  0
   -8.3248    0.0068    1.1390 H   0  0  0  0  0  0  0  0  0  0  0  0
   -7.7184   -1.6407    1.4117 H   0  0  0  0  0  0  0  0  0  0  0  0
  1 13  1  0  0  0  0
  1 52  1  0  0  0  0
  2 16  2  0  0  0  0
  3 18  2  0  0  0  0
  4 22  2  0  0  0  0
  5 29  1  0  0  0  0
  5 31  1  0  0  0  0
  6 14  1  0  0  0  0
  6 16  1  0  0  0  0
  6 23  1  0  0  0  0
  7 10  1  0  0  0  0
  7 18  1  0  0  0  0
  7 39  1  0  0  0  0
  8 22  1  0  0  0  0
  8 25  1  0  0  0  0
  8 53  1  0  0  0  0
  9 10  1  0  0  0  0
  9 11  1  0  0  0  0
  9 15  1  0  0  0  0
  9 35  1  0  0  0  0
 10 13  1  0  0  0  0
 10 16  1  0  0  0  0
 11 12  1  0  0  0  0
 11 20  1  0  0  0  0
 11 21  1  0  0  0  0
 12 13  1  0  0  0  0
 12 19  1  0  0  0  0
 12 22  1  0  0  0  0
 13 36  1  0  0  0  0
 14 15  1  0  0  0  0
 14 17  1  0  0  0  0
 14 18  1  0  0  0  0
 15 37  1  0  0  0  0
 15 38  1  0  0  0  0
 17 24  1  0  0  0  0
 17 40  1  0  0  0  0
 17 41  1  0  0  0  0
 19 25  2  0  0  0  0
 19 26  1  0  0  0  0
 20 42  1  0  0  0  0
 20 43  1  0  0  0  0
 20 44  1  0  0  0  0
 21 45  1  0  0  0  0
 21 46  1  0  0  0  0
 21 47  1  0  0  0  0
 23 24  1  0  0  0  0
 23 48  1  0  0  0  0
 23 49  1  0  0  0  0
 24 50  1  0  0  0  0
 24 51  1  0  0  0  0
 25 27  1  0  0  0  0
 26 28  2  0  0  0  0
 26 54  1  0  0  0  0
 27 29  2  0  0  0  0
 27 30  1  0  0  0  0
 28 29  1  0  0  0  0
 28 55  1  0  0  0  0
 30 32  2  0  0  0  0
 30 56  1  0  0  0  0
 31 32  1  0  0  0  0
 31 33  1  0  0  0  0
 31 34  1  0  0  0  0
 32 57  1  0  0  0  0
 33 58  1  0  0  0  0
 33 59  1  0  0  0  0
 33 60  1  0  0  0  0
 34 61  1  0  0  0  0
 34 62  1  0  0  0  0
 34 63  1  0  0  0  0
M  END
> <PUBCHEM_COMPOUND_CID>
10647785

> <PUBCHEM_CONFORMER_RMSD>
0.8

> <PUBCHEM_CONFORMER_DIVERSEORDER>
1

> <PUBCHEM_MMFF94_PARTIAL_CHARGES>
32
1 -0.68
10 0.36
12 0.2
13 0.28
14 0.36
16 0.57
18 0.57
19 -0.14
2 -0.57
22 0.57
23 0.3
25 0.12
26 -0.15
27 0.03
28 -0.15
29 0.08
3 -0.57
30 -0.18
31 0.42
32 -0.29
39 0.37
4 -0.57
5 -0.36
52 0.4
53 0.37
54 0.15
55 0.15
56 0.15
57 0.15
6 -0.66
7 -0.73
8 -0.55

> <PUBCHEM_EFFECTIVE_ROTOR_COUNT>
2

> <PUBCHEM_PHARMACOPHORE_FEATURES>
16
1 1 acceptor
1 1 donor
1 2 acceptor
1 3 acceptor
1 4 acceptor
1 5 acceptor
1 7 donor
1 8 donor
3 11 20 21 hydrophobe
3 31 33 34 hydrophobe
5 6 14 17 23 24 rings
5 8 12 19 22 25 rings
5 9 10 11 12 13 rings
6 19 25 26 27 28 29 rings
6 5 27 29 30 31 32 rings
8 6 7 9 10 14 15 16 18 rings

> <PUBCHEM_HEAVY_ATOM_COUNT>
34

> <PUBCHEM_ATOM_DEF_STEREO_COUNT>
5

> <PUBCHEM_ATOM_UDEF_STEREO_COUNT>
0

> <PUBCHEM_BOND_DEF_STEREO_COUNT>
0

> <PUBCHEM_BOND_UDEF_STEREO_COUNT>
0

> <PUBCHEM_ISOTOPIC_ATOM_COUNT>
0

> <PUBCHEM_COMPONENT_COUNT>
1

> <PUBCHEM_CACTVS_TAUTO_COUNT>
4

> <PUBCHEM_CONFORMER_ID>
00A278E900000001

> <PUBCHEM_MMFF94_ENERGY>
159.8061

> <PUBCHEM_FEATURE_SELFOVERLAP>
81.48

> <PUBCHEM_SHAPE_FINGERPRINT>
11578080 2 15696565966798819802
117089 54 17555467128602260078
11719270 70 16200436857729425119
11796584 16 18411706482408350022
11963148 33 18343576326799342231
12166972 35 18344149206827232521
12236239 1 17603588508583112661
12516196 113 18410572898799317705
12741549 16 17274819117298869984
13533116 47 18335983073790751042
13692114 37 16450342480653741829
13782708 43 17989481935904908295
14294032 229 17460309950811174389
14341114 176 18341614827871330889
15131766 46 16771524425863433632
15183329 4 16950278499595639839
15788980 27 18113903758214435737
15849732 13 17675927603610473263
16090146 7 17386591079726432530
17349148 13 18201720665656972557
18365409 1 17823430472563414218
19319366 153 17603577539126499931
2026 5 17771636655289056790
20511986 3 18187914080677086839
21033648 29 17845643871560605667
21130935 74 18201722877312500611
21267235 1 18334303058814910275
21641784 216 13912603793139359318
23522609 53 17986981672207386833
23559900 14 18409728469800987312
23569943 247 18270117890765717267
3004659 81 18040154006843370270
335352 9 18407758137091223885
3383291 50 18113904905430368283
3411729 13 17916013758474500712
34797466 226 18410862091943107332
4073 2 18188212129690175482
4093350 32 17203332230109726768
4340502 62 18336822074382364570
465052 167 18202565060073947286
5104073 3 18272646801752445416
59755656 215 18335423430577240182
6086070 43 18059278887276993369
70251023 43 15070005777938460592

> <PUBCHEM_SHAPE_MULTIPOLES>
655.41
16.6
2.15
1.52
16.12
0.23
0.32
-5.13
0.17
-0.91
-0.26
-0.79
0.04
0.48

> <PUBCHEM_SHAPE_SELFOVERLAP>
1491.16

> <PUBCHEM_SHAPE_VOLUME>
343

> <PUBCHEM_COORDINATE_TYPE>
2
5
10

$$$$
