10643000
  -OEChem-03292013303D

 46 49  0     1  0  0  0  0  0999 V2000
    0.8206    1.6417   -1.5062 O   0  0  0  0  0  0  0  0  0  0  0  0
   -0.3241   -2.4697   -0.1281 O   0  0  0  0  0  0  0  0  0  0  0  0
   -1.5324    1.6147    1.8057 O   0  0  0  0  0  0  0  0  0  0  0  0
   -1.5958    0.4172   -2.0279 O   0  0  0  0  0  0  0  0  0  0  0  0
    1.5695    3.0715    0.6062 O   0  0  0  0  0  0  0  0  0  0  0  0
    2.2976   -0.9688    1.8034 O   0  0  0  0  0  0  0  0  0  0  0  0
   -1.7474    2.8992   -0.1019 O   0  0  0  0  0  0  0  0  0  0  0  0
   -3.3982    0.3037   -0.1161 O   0  0  0  0  0  0  0  0  0  0  0  0
    0.3237   -2.7788    2.0051 O   0  0  0  0  0  0  0  0  0  0  0  0
   -3.0042   -1.9476   -0.4528 O   0  0  0  0  0  0  0  0  0  0  0  0
    1.6911   -0.4317   -0.5466 C   0  0  2  0  0  0  0  0  0  0  0  0
    0.8964    0.8916   -0.2733 C   0  0  2  0  0  0  0  0  0  0  0  0
   -0.5458    0.6029    0.1826 C   0  0  1  0  0  0  0  0  0  0  0  0
    3.0925    0.1726   -0.8722 C   0  0  1  0  0  0  0  0  0  0  0  0
    1.0205   -1.1648   -1.7122 C   0  0  0  0  0  0  0  0  0  0  0  0
   -1.2662   -0.3269   -0.8459 C   0  0  2  0  0  0  0  0  0  0  0  0
    1.8288    1.6765    0.6520 C   0  0  1  0  0  0  0  0  0  0  0  0
   -0.3891   -1.5453   -1.2373 C   0  0  2  0  0  0  0  0  0  0  0  0
    3.2440    1.3622    0.1145 C   0  0  0  0  0  0  0  0  0  0  0  0
    1.7859   -1.4906    0.5917 C   0  0  2  0  0  0  0  0  0  0  0  0
   -0.8402    0.3461    1.6910 C   0  0  0  0  0  0  0  0  0  0  0  0
   -1.3615    1.9191    0.4948 C   0  0  0  0  0  0  0  0  0  0  0  0
    4.2948   -0.7620   -0.8554 C   0  0  0  0  0  0  0  0  0  0  0  0
    0.5246   -2.2688    0.9058 C   0  0  0  0  0  0  0  0  0  0  0  0
   -2.6421   -0.7788   -0.4559 C   0  0  0  0  0  0  0  0  0  0  0  0
   -4.7431    0.0148    0.2789 C   0  0  0  0  0  0  0  0  0  0  0  0
    3.0661    0.5812   -1.8919 H   0  0  0  0  0  0  0  0  0  0  0  0
    1.5877   -2.0688   -1.9674 H   0  0  0  0  0  0  0  0  0  0  0  0
    0.9724   -0.5538   -2.6201 H   0  0  0  0  0  0  0  0  0  0  0  0
    1.7557    1.3767    1.6983 H   0  0  0  0  0  0  0  0  0  0  0  0
   -0.8662   -2.0955   -2.0583 H   0  0  0  0  0  0  0  0  0  0  0  0
    3.9000    1.1012    0.9532 H   0  0  0  0  0  0  0  0  0  0  0  0
    3.6999    2.2228   -0.3883 H   0  0  0  0  0  0  0  0  0  0  0  0
    2.4893   -2.2708    0.2710 H   0  0  0  0  0  0  0  0  0  0  0  0
   -1.5114   -0.4837    1.9322 H   0  0  0  0  0  0  0  0  0  0  0  0
    0.0092    0.3061    2.3756 H   0  0  0  0  0  0  0  0  0  0  0  0
    4.1353   -1.6155   -1.5217 H   0  0  0  0  0  0  0  0  0  0  0  0
    5.1894   -0.2321   -1.2003 H   0  0  0  0  0  0  0  0  0  0  0  0
    4.5125   -1.1407    0.1478 H   0  0  0  0  0  0  0  0  0  0  0  0
    1.6782    2.0354   -1.7280 H   0  0  0  0  0  0  0  0  0  0  0  0
   -1.8567   -0.2078   -2.7259 H   0  0  0  0  0  0  0  0  0  0  0  0
    1.6806    3.3804   -0.3078 H   0  0  0  0  0  0  0  0  0  0  0  0
    2.5172   -1.7189    2.3821 H   0  0  0  0  0  0  0  0  0  0  0  0
   -4.7470   -0.6224    1.1683 H   0  0  0  0  0  0  0  0  0  0  0  0
   -5.2848   -0.4632   -0.5427 H   0  0  0  0  0  0  0  0  0  0  0  0
   -5.2358    0.9599    0.5220 H   0  0  0  0  0  0  0  0  0  0  0  0
  1 12  1  0  0  0  0
  1 40  1  0  0  0  0
  2 18  1  0  0  0  0
  2 24  1  0  0  0  0
  3 21  1  0  0  0  0
  3 22  1  0  0  0  0
  4 16  1  0  0  0  0
  4 41  1  0  0  0  0
  5 17  1  0  0  0  0
  5 42  1  0  0  0  0
  6 20  1  0  0  0  0
  6 43  1  0  0  0  0
  7 22  2  0  0  0  0
  8 25  1  0  0  0  0
  8 26  1  0  0  0  0
  9 24  2  0  0  0  0
 10 25  2  0  0  0  0
 11 12  1  0  0  0  0
 11 14  1  0  0  0  0
 11 15  1  0  0  0  0
 11 20  1  0  0  0  0
 12 13  1  0  0  0  0
 12 17  1  0  0  0  0
 13 16  1  0  0  0  0
 13 21  1  0  0  0  0
 13 22  1  0  0  0  0
 14 19  1  0  0  0  0
 14 23  1  0  0  0  0
 14 27  1  0  0  0  0
 15 18  1  0  0  0  0
 15 28  1  0  0  0  0
 15 29  1  0  0  0  0
 16 18  1  0  0  0  0
 16 25  1  0  0  0  0
 17 19  1  0  0  0  0
 17 30  1  0  0  0  0
 18 31  1  0  0  0  0
 19 32  1  0  0  0  0
 19 33  1  0  0  0  0
 20 24  1  0  0  0  0
 20 34  1  0  0  0  0
 21 35  1  0  0  0  0
 21 36  1  0  0  0  0
 23 37  1  0  0  0  0
 23 38  1  0  0  0  0
 23 39  1  0  0  0  0
 26 44  1  0  0  0  0
 26 45  1  0  0  0  0
 26 46  1  0  0  0  0
M  END
> <PUBCHEM_COMPOUND_CID>
10643000

> <PUBCHEM_CONFORMER_RMSD>
0.8

> <PUBCHEM_CONFORMER_DIVERSEORDER>
1
2

> <PUBCHEM_MMFF94_PARTIAL_CHARGES>
25
1 -0.68
10 -0.57
12 0.28
13 0.05
16 0.34
17 0.28
18 0.28
2 -0.43
20 0.34
21 0.26
22 0.67
24 0.66
25 0.66
26 0.28
3 -0.41
4 -0.68
40 0.4
41 0.4
42 0.4
43 0.4
5 -0.68
6 -0.68
7 -0.57
8 -0.43
9 -0.57

> <PUBCHEM_EFFECTIVE_ROTOR_COUNT>
3.8

> <PUBCHEM_PHARMACOPHORE_FEATURES>
15
1 1 acceptor
1 1 donor
1 10 acceptor
1 4 acceptor
1 4 donor
1 5 acceptor
1 5 donor
1 6 acceptor
1 6 donor
1 7 acceptor
1 9 acceptor
4 3 13 21 22 rings
5 11 12 14 17 19 rings
6 11 12 13 15 16 18 rings
6 2 11 15 18 20 24 rings

> <PUBCHEM_HEAVY_ATOM_COUNT>
26

> <PUBCHEM_ATOM_DEF_STEREO_COUNT>
8

> <PUBCHEM_ATOM_UDEF_STEREO_COUNT>
0

> <PUBCHEM_BOND_DEF_STEREO_COUNT>
0

> <PUBCHEM_BOND_UDEF_STEREO_COUNT>
0

> <PUBCHEM_ISOTOPIC_ATOM_COUNT>
0

> <PUBCHEM_COMPONENT_COUNT>
1

> <PUBCHEM_CACTVS_TAUTO_COUNT>
1

> <PUBCHEM_CONFORMER_ID>
00A2663800000001

> <PUBCHEM_MMFF94_ENERGY>
96.5164

> <PUBCHEM_FEATURE_SELFOVERLAP>
77.752

> <PUBCHEM_SHAPE_FINGERPRINT>
10064457 181 17969227892149518619
10863032 1 17773880989472530031
10948715 1 18053379082941712832
10967382 1 18343868822413193973
12592029 89 17894910715463425347
13140716 1 18270394039407058234
13583140 156 18044680623907934289
14223421 5 18341896255655836965
144361 1 18131075977856102770
14787075 74 17907009939121020575
14817 1 12757430484434135386
15209289 33 18337681836524821526
16752209 62 18129649791184565765
16945 1 18271226296911060214
18186145 218 18335975462860256719
18981168 100 16772373033605628307
20691752 17 17970051434943070791
20905425 154 18124319302698919060
21421861 104 18190749622480951155
22344851 341 18048864492730538730
2334 1 17840300352344558053
23419403 2 16098505863551202918
23493267 7 18200313200014590815
23558518 356 18270132308516658088
23559900 14 18130789014401941036
2748010 2 17621890107397958356
34934 24 18201996664228711997
350125 39 18130796646158087824
4340502 62 18263084469611406771
5845 1 16958989702077968074
9981440 41 17338139146102996416

> <PUBCHEM_SHAPE_MULTIPOLES>
476.37
5.36
2.84
1.64
1.64
0.52
-0.25
0.09
0.62
-0.1
-0.75
-0.15
-0.45
-0.29

> <PUBCHEM_SHAPE_SELFOVERLAP>
1055.091

> <PUBCHEM_SHAPE_VOLUME>
249.8

> <PUBCHEM_COORDINATE_TYPE>
2
5
10

$$$$
