10659377
  -OEChem-03292013303D

 33 36  0     1  0  0  0  0  0999 V2000
    0.9684   -0.3627    1.5568 O   0  0  0  0  0  0  0  0  0  0  0  0
    3.3620   -0.5723    0.3328 O   0  0  0  0  0  0  0  0  0  0  0  0
    2.8226    1.0052   -1.3236 O   0  0  0  0  0  0  0  0  0  0  0  0
    0.1524    1.4549   -1.5515 O   0  0  0  0  0  0  0  0  0  0  0  0
   -0.0388   -2.2040   -1.4679 O   0  0  0  0  0  0  0  0  0  0  0  0
   -2.4238    2.5702    0.0741 O   0  0  0  0  0  0  0  0  0  0  0  0
    1.1927    0.3227    0.3028 C   0  0  2  0  0  0  0  0  0  0  0  0
    1.0926   -1.1437    0.3553 C   0  0  2  0  0  0  0  0  0  0  0  0
    2.6355    0.6496    0.0439 C   0  0  1  0  0  0  0  0  0  0  0  0
    0.0378    1.1544   -0.1629 C   0  0  2  0  0  0  0  0  0  0  0  0
   -0.1469   -1.8412   -0.0933 C   0  0  1  0  0  0  0  0  0  0  0  0
    2.4585   -1.6846    0.1340 C   0  0  0  0  0  0  0  0  0  0  0  0
   -1.2901    0.4434    0.0119 C   0  0  0  0  0  0  0  0  0  0  0  0
   -1.3774   -0.9664    0.0394 C   0  0  0  0  0  0  0  0  0  0  0  0
    3.1532    1.7569    0.9507 C   0  0  0  0  0  0  0  0  0  0  0  0
   -2.4640    1.2068    0.1130 C   0  0  0  0  0  0  0  0  0  0  0  0
   -2.6365   -1.5746    0.1657 C   0  0  0  0  0  0  0  0  0  0  0  0
   -3.7061    0.5872    0.2465 C   0  0  0  0  0  0  0  0  0  0  0  0
   -3.7922   -0.8017    0.2724 C   0  0  0  0  0  0  0  0  0  0  0  0
    0.0676    2.0908    0.4038 H   0  0  0  0  0  0  0  0  0  0  0  0
   -0.2791   -2.7552    0.4980 H   0  0  0  0  0  0  0  0  0  0  0  0
    2.7151   -2.4759    0.8437 H   0  0  0  0  0  0  0  0  0  0  0  0
    2.6016   -2.0527   -0.8864 H   0  0  0  0  0  0  0  0  0  0  0  0
    4.2168    1.9391    0.7602 H   0  0  0  0  0  0  0  0  0  0  0  0
    2.6230    2.6977    0.7696 H   0  0  0  0  0  0  0  0  0  0  0  0
    3.0510    1.4921    2.0083 H   0  0  0  0  0  0  0  0  0  0  0  0
    2.2256    0.4624   -1.8653 H   0  0  0  0  0  0  0  0  0  0  0  0
   -0.0155    0.6422   -2.0591 H   0  0  0  0  0  0  0  0  0  0  0  0
    0.6023   -2.9323   -1.5300 H   0  0  0  0  0  0  0  0  0  0  0  0
   -2.7223   -2.6585    0.1805 H   0  0  0  0  0  0  0  0  0  0  0  0
   -4.6117    1.1827    0.3250 H   0  0  0  0  0  0  0  0  0  0  0  0
   -4.7601   -1.2842    0.3717 H   0  0  0  0  0  0  0  0  0  0  0  0
   -1.6144    2.8691   -0.3699 H   0  0  0  0  0  0  0  0  0  0  0  0
  1  7  1  0  0  0  0
  1  8  1  0  0  0  0
  2  9  1  0  0  0  0
  2 12  1  0  0  0  0
  3  9  1  0  0  0  0
  3 27  1  0  0  0  0
  4 10  1  0  0  0  0
  4 28  1  0  0  0  0
  5 11  1  0  0  0  0
  5 29  1  0  0  0  0
  6 16  1  0  0  0  0
  6 33  1  0  0  0  0
  7  8  1  0  0  0  0
  7  9  1  0  0  0  0
  7 10  1  0  0  0  0
  8 11  1  0  0  0  0
  8 12  1  0  0  0  0
  9 15  1  0  0  0  0
 10 13  1  0  0  0  0
 10 20  1  0  0  0  0
 11 14  1  0  0  0  0
 11 21  1  0  0  0  0
 12 22  1  0  0  0  0
 12 23  1  0  0  0  0
 13 14  2  0  0  0  0
 13 16  1  0  0  0  0
 14 17  1  0  0  0  0
 15 24  1  0  0  0  0
 15 25  1  0  0  0  0
 15 26  1  0  0  0  0
 16 18  2  0  0  0  0
 17 19  2  0  0  0  0
 17 30  1  0  0  0  0
 18 19  1  0  0  0  0
 18 31  1  0  0  0  0
 19 32  1  0  0  0  0
M  END
> <PUBCHEM_COMPOUND_CID>
10659377

> <PUBCHEM_CONFORMER_RMSD>
0.6

> <PUBCHEM_CONFORMER_DIVERSEORDER>
1
2

> <PUBCHEM_MMFF94_PARTIAL_CHARGES>
25
1 -0.3
10 0.52
11 0.52
12 0.38
13 -0.14
14 -0.14
16 0.08
17 -0.15
18 -0.15
19 -0.15
2 -0.56
27 0.4
28 0.4
29 0.4
3 -0.68
30 0.15
31 0.15
32 0.15
33 0.45
4 -0.68
5 -0.68
6 -0.53
7 -0.04
8 -0.04
9 0.65

> <PUBCHEM_EFFECTIVE_ROTOR_COUNT>
1.2

> <PUBCHEM_PHARMACOPHORE_FEATURES>
12
1 1 acceptor
1 2 acceptor
1 3 acceptor
1 3 donor
1 4 acceptor
1 4 donor
1 5 acceptor
1 5 donor
1 6 donor
6 1 2 7 8 9 12 rings
6 13 14 16 17 18 19 rings
7 1 7 8 10 11 13 14 rings

> <PUBCHEM_HEAVY_ATOM_COUNT>
19

> <PUBCHEM_ATOM_DEF_STEREO_COUNT>
5

> <PUBCHEM_ATOM_UDEF_STEREO_COUNT>
0

> <PUBCHEM_BOND_DEF_STEREO_COUNT>
0

> <PUBCHEM_BOND_UDEF_STEREO_COUNT>
0

> <PUBCHEM_ISOTOPIC_ATOM_COUNT>
0

> <PUBCHEM_COMPONENT_COUNT>
1

> <PUBCHEM_CACTVS_TAUTO_COUNT>
3

> <PUBCHEM_CONFORMER_ID>
00A2A63100000001

> <PUBCHEM_MMFF94_ENERGY>
55.2061

> <PUBCHEM_FEATURE_SELFOVERLAP>
61.248

> <PUBCHEM_SHAPE_FINGERPRINT>
10411042 1 15600043753964388763
10498660 4 18411414046843482685
10608611 8 18411978023024991081
10863032 1 18412546509054015803
10948715 1 18342457075411032888
10967382 1 18338516477245036281
11132069 177 18334570256972247393
12251169 10 18336260133171400659
12491281 212 18337685147475121640
13140716 1 18265048046432169809
13221675 6 18335983159478684635
14223421 5 18410855447517703065
14787075 74 17173222271470671099
15196674 1 18410011040031125923
15309172 13 18271812345404470547
15442244 35 18264767645192268090
15536298 74 18412263943440383586
15775835 57 18272654588237839659
16945 1 18263650738888706450
17804303 29 18339929194946748782
18186145 218 17846226561220674728
19422 9 18260270737076263954
20510252 161 18343865532753179617
21267235 1 18335711532835947819
21501502 16 18338237059552502587
2334 1 18408603660430560099
23388829 49 18336826515251954429
23419403 2 15321339601314923299
23463225 33 18335138657044007883
23559900 14 18342735221983527960
238 59 17181051498624731509
2748010 2 18409727331164960711
296302 2 17022905696069207109
335352 9 17977945679005764839
350125 39 18410295765828691664
474 4 17386575798428192692
5104073 3 18409731751213875347
633830 44 17275113816405855489
69090 78 18201715210246757318
7097593 13 17754439180126177099
7364860 26 18342457006934435138
81228 2 17411029031408805191
84936 31 16628553579803739862
90525 40 18412829088069495279
9709674 26 18412266116588866451

> <PUBCHEM_SHAPE_MULTIPOLES>
355.8
5.73
2.28
1.03
1.2
0.06
0.19
1.03
-0.81
0.22
0.26
-0.47
0.06
0.03

> <PUBCHEM_SHAPE_SELFOVERLAP>
799.857

> <PUBCHEM_SHAPE_VOLUME>
189

> <PUBCHEM_COORDINATE_TYPE>
2
5
10

$$$$
