10666340
  -OEChem-03292013303D

 41 45  0     0  0  0  0  0  0999 V2000
   -0.2691   -0.0010    2.0324 O   0  0  0  0  0  0  0  0  0  0  0  0
    2.6249    0.0019   -0.8376 O   0  0  0  0  0  0  0  0  0  0  0  0
   -2.1928   -0.0010    3.3203 O   0  0  0  0  0  0  0  0  0  0  0  0
    3.0547    4.7078   -0.5811 O   0  0  0  0  0  0  0  0  0  0  0  0
    3.0633   -4.7033   -0.5801 O   0  0  0  0  0  0  0  0  0  0  0  0
   -3.3069   -0.0017   -3.0918 N   0  0  0  0  0  0  0  0  0  0  0  0
   -5.3130   -0.0039   -1.0765 N   0  0  0  0  0  0  0  0  0  0  0  0
    0.0900   -0.0002    0.6142 C   0  0  0  0  0  0  0  0  0  0  0  0
   -1.2556   -0.0008   -0.0365 C   0  0  0  0  0  0  0  0  0  0  0  0
    0.8840    1.2591    0.3282 C   0  0  0  0  0  0  0  0  0  0  0  0
    0.8858   -1.2582    0.3274 C   0  0  0  0  0  0  0  0  0  0  0  0
   -2.2440   -0.0019    0.9311 C   0  0  0  0  0  0  0  0  0  0  0  0
    2.0829    1.1820   -0.3896 C   0  0  0  0  0  0  0  0  0  0  0  0
    2.0847   -1.1793   -0.3900 C   0  0  0  0  0  0  0  0  0  0  0  0
   -1.6238   -0.0017    2.2471 C   0  0  0  0  0  0  0  0  0  0  0  0
   -1.5959   -0.0005   -1.3801 C   0  0  0  0  0  0  0  0  0  0  0  0
    0.4336    2.5259    0.7397 C   0  0  0  0  0  0  0  0  0  0  0  0
    0.4370   -2.5259    0.7384 C   0  0  0  0  0  0  0  0  0  0  0  0
   -3.5920   -0.0025    0.6234 C   0  0  0  0  0  0  0  0  0  0  0  0
   -2.9511   -0.0013   -1.7225 C   0  0  0  0  0  0  0  0  0  0  0  0
   -3.9425   -0.0020   -0.7269 C   0  0  0  0  0  0  0  0  0  0  0  0
    2.8079    2.3380   -0.6984 C   0  0  0  0  0  0  0  0  0  0  0  0
    2.8118   -2.3340   -0.6986 C   0  0  0  0  0  0  0  0  0  0  0  0
    1.1606    3.6787    0.4377 C   0  0  0  0  0  0  0  0  0  0  0  0
    1.1660   -3.6775    0.4366 C   0  0  0  0  0  0  0  0  0  0  0  0
    2.3469    3.5847   -0.2831 C   0  0  0  0  0  0  0  0  0  0  0  0
    2.3527   -3.5816   -0.2836 C   0  0  0  0  0  0  0  0  0  0  0  0
   -0.8241    0.0002   -2.1438 H   0  0  0  0  0  0  0  0  0  0  0  0
   -0.4945    2.6300    1.2963 H   0  0  0  0  0  0  0  0  0  0  0  0
   -0.4910   -2.6314    1.2947 H   0  0  0  0  0  0  0  0  0  0  0  0
   -4.3447   -0.0034    1.4048 H   0  0  0  0  0  0  0  0  0  0  0  0
    3.7354    2.2574   -1.2607 H   0  0  0  0  0  0  0  0  0  0  0  0
    3.7403   -2.2590   -1.2598 H   0  0  0  0  0  0  0  0  0  0  0  0
    0.7920    4.6470    0.7654 H   0  0  0  0  0  0  0  0  0  0  0  0
    0.7932   -4.6432    0.7672 H   0  0  0  0  0  0  0  0  0  0  0  0
   -4.2739   -0.0019   -3.3806 H   0  0  0  0  0  0  0  0  0  0  0  0
   -2.5799   -0.0005   -3.7955 H   0  0  0  0  0  0  0  0  0  0  0  0
   -6.0135   -0.0024   -0.3464 H   0  0  0  0  0  0  0  0  0  0  0  0
   -5.6062   -0.0004   -2.0423 H   0  0  0  0  0  0  0  0  0  0  0  0
    3.8482    4.4565   -1.0844 H   0  0  0  0  0  0  0  0  0  0  0  0
    2.5991   -5.4763   -0.2153 H   0  0  0  0  0  0  0  0  0  0  0  0
  1  8  1  0  0  0  0
  1 15  1  0  0  0  0
  2 13  1  0  0  0  0
  2 14  1  0  0  0  0
  3 15  2  0  0  0  0
  4 26  1  0  0  0  0
  4 40  1  0  0  0  0
  5 27  1  0  0  0  0
  5 41  1  0  0  0  0
  6 20  1  0  0  0  0
  6 36  1  0  0  0  0
  6 37  1  0  0  0  0
  7 21  1  0  0  0  0
  7 38  1  0  0  0  0
  7 39  1  0  0  0  0
  8  9  1  0  0  0  0
  8 10  1  0  0  0  0
  8 11  1  0  0  0  0
  9 12  1  0  0  0  0
  9 16  2  0  0  0  0
 10 13  2  0  0  0  0
 10 17  1  0  0  0  0
 11 14  2  0  0  0  0
 11 18  1  0  0  0  0
 12 15  1  0  0  0  0
 12 19  2  0  0  0  0
 13 22  1  0  0  0  0
 14 23  1  0  0  0  0
 16 20  1  0  0  0  0
 16 28  1  0  0  0  0
 17 24  2  0  0  0  0
 17 29  1  0  0  0  0
 18 25  2  0  0  0  0
 18 30  1  0  0  0  0
 19 21  1  0  0  0  0
 19 31  1  0  0  0  0
 20 21  2  0  0  0  0
 22 26  2  0  0  0  0
 22 32  1  0  0  0  0
 23 27  2  0  0  0  0
 23 33  1  0  0  0  0
 24 26  1  0  0  0  0
 24 34  1  0  0  0  0
 25 27  1  0  0  0  0
 25 35  1  0  0  0  0
M  END
> <PUBCHEM_COMPOUND_CID>
10666340

> <PUBCHEM_CONFORMER_RMSD>
0.6

> <PUBCHEM_CONFORMER_DIVERSEORDER>
1

> <PUBCHEM_MMFF94_PARTIAL_CHARGES>
41
1 -0.43
10 -0.14
11 -0.14
12 0.09
13 0.08
14 0.08
15 0.63
16 -0.15
17 -0.15
18 -0.15
19 -0.15
2 -0.17
20 0.1
21 0.1
22 -0.15
23 -0.15
24 -0.15
25 -0.15
26 0.08
27 0.08
28 0.15
29 0.15
3 -0.57
30 0.15
31 0.15
32 0.15
33 0.15
34 0.15
35 0.15
36 0.4
37 0.4
38 0.4
39 0.4
4 -0.53
40 0.45
41 0.45
5 -0.53
6 -0.9
7 -0.9
8 0.71
9 -0.14

> <PUBCHEM_EFFECTIVE_ROTOR_COUNT>
0.4

> <PUBCHEM_PHARMACOPHORE_FEATURES>
13
1 2 acceptor
1 3 acceptor
1 4 donor
1 5 donor
1 6 cation
1 6 donor
1 7 cation
1 7 donor
5 1 8 9 12 15 rings
6 10 13 17 22 24 26 rings
6 11 14 18 23 25 27 rings
6 2 8 10 11 13 14 rings
6 9 12 16 19 20 21 rings

> <PUBCHEM_HEAVY_ATOM_COUNT>
27

> <PUBCHEM_ATOM_DEF_STEREO_COUNT>
0

> <PUBCHEM_ATOM_UDEF_STEREO_COUNT>
0

> <PUBCHEM_BOND_DEF_STEREO_COUNT>
0

> <PUBCHEM_BOND_UDEF_STEREO_COUNT>
0

> <PUBCHEM_ISOTOPIC_ATOM_COUNT>
0

> <PUBCHEM_COMPONENT_COUNT>
1

> <PUBCHEM_CACTVS_TAUTO_COUNT>
40

> <PUBCHEM_CONFORMER_ID>
00A2C16400000001

> <PUBCHEM_MMFF94_ENERGY>
103.2729

> <PUBCHEM_FEATURE_SELFOVERLAP>
66.124

> <PUBCHEM_SHAPE_FINGERPRINT>
10165383 225 17468807216349446684
105312 117 17831582342224359524
11101153 10 18121223070410471062
11578080 2 17243618292885242485
11582403 64 17317853053063675153
11725454 13 17605539145189834121
12553582 1 18050874142330721786
12730499 353 18263084478195916921
12788726 201 17181655074414874554
13004483 165 17836348368284108846
13009979 54 17488747770310331223
13140716 1 17979950355671518512
13681431 1 18265319634473325048
13911987 19 18189921780594083798
14817 1 15246158917606972257
15219462 58 17759853352128684817
15324884 4 17679039315584145481
16087824 20 17184758991899890673
16945 1 18338818761253822360
17980427 26 17981645729012540329
1813 80 17915179014136721231
18219364 16 18047769357505885792
18915476 22 18336273447960245979
19930381 70 18337111271578573181
20101258 96 17834690292296900938
20602899 9 17837490022098928849
20905425 154 12208843008951074250
21304303 282 16902943647245453676
22112679 90 17630899204595623763
22907989 373 16895392287311841996
23419403 2 17824291282829748963
23598288 3 17184783202503034806
23728640 28 16753531583409479674
238 59 18335973268126667727
266924 78 18267603440546784913
350125 39 17833289875291703842
376196 1 17607491860919917085
3886686 26 17767102565798984984
4409770 3 17187555586749351478
46194498 28 18189596316488006831
497634 4 16251977895543412068
57359948 33 16971318814376801239
57527295 17 17752482058435167099
59025328 239 17766803218360640014
59755656 520 17694814073496303480
6438718 38 17043738915927598986
6677587 24 17109248149433558341
70251023 43 18266180526551052595
81228 2 17396693191047056736

> <PUBCHEM_SHAPE_MULTIPOLES>
516.34
6.2
5.14
1.99
6.43
0.02
-0.51
-0.02
3.03
-9.26
0.49
2.58
0
0

> <PUBCHEM_SHAPE_SELFOVERLAP>
1190.413

> <PUBCHEM_SHAPE_VOLUME>
264.8

> <PUBCHEM_COORDINATE_TYPE>
2
5
10

$$$$
