10668706
  -OEChem-03292013303D

 64 65  0     1  0  0  0  0  0999 V2000
    1.1412    1.6091    0.4064 O   0  0  0  0  0  0  0  0  0  0  0  0
   -1.8441    0.2918    0.3322 O   0  0  0  0  0  0  0  0  0  0  0  0
    3.1834   -0.4401   -0.3574 O   0  0  0  0  0  0  0  0  0  0  0  0
   -1.3141    0.4092   -1.9112 O   0  0  0  0  0  0  0  0  0  0  0  0
    0.7541   -4.2282    0.3574 O   0  0  0  0  0  0  0  0  0  0  0  0
   -5.8360   -0.5341    1.3332 O   0  0  0  0  0  0  0  0  0  0  0  0
    4.1230   -1.7124    1.3188 O   0  0  0  0  0  0  0  0  0  0  0  0
   -0.0198    2.4231    0.7011 C   0  0  1  0  0  0  0  0  0  0  0  0
    2.3171    2.4212    0.5168 C   0  0  2  0  0  0  0  0  0  0  0  0
    0.5101    3.8253    0.9932 C   0  0  0  0  0  0  0  0  0  0  0  0
    1.8373    3.8406    0.2774 C   0  0  0  0  0  0  0  0  0  0  0  0
   -0.9854    2.3445   -0.4983 C   0  0  1  0  0  0  0  0  0  0  0  0
    3.3954    1.9852   -0.4758 C   0  0  0  0  0  0  0  0  0  0  0  0
    4.0726    0.6633   -0.0779 C   0  0  2  0  0  0  0  0  0  0  0  0
   -2.2522   -1.0900    0.2448 C   0  0  1  0  0  0  0  0  0  0  0  0
   -1.3871    0.9075   -0.7946 C   0  0  0  0  0  0  0  0  0  0  0  0
   -2.2582    3.1681   -0.3124 C   0  0  0  0  0  0  0  0  0  0  0  0
   -1.1439   -1.9874    0.8144 C   0  0  0  0  0  0  0  0  0  0  0  0
    0.1357   -1.9442   -0.0333 C   0  0  0  0  0  0  0  0  0  0  0  0
    1.2214   -2.8849    0.5014 C   0  0  2  0  0  0  0  0  0  0  0  0
   -3.5303   -1.2247    1.0646 C   0  0  0  0  0  0  0  0  0  0  0  0
    2.5787   -2.7517   -0.2149 C   0  0  2  0  0  0  0  0  0  0  0  0
    5.3461    0.4589   -0.8982 C   0  0  0  0  0  0  0  0  0  0  0  0
   -4.6822   -0.3791    0.5109 C   0  0  1  0  0  0  0  0  0  0  0  0
    3.3866   -1.5913    0.3456 C   0  0  0  0  0  0  0  0  0  0  0  0
    2.4952   -2.7333   -1.7422 C   0  0  0  0  0  0  0  0  0  0  0  0
   -5.0380   -0.8184   -0.9138 C   0  0  0  0  0  0  0  0  0  0  0  0
   -6.2066   -0.0279   -1.4883 C   0  0  0  0  0  0  0  0  0  0  0  0
   -0.4941    2.0126    1.6002 H   0  0  0  0  0  0  0  0  0  0  0  0
    2.6887    2.3267    1.5451 H   0  0  0  0  0  0  0  0  0  0  0  0
    0.6818    3.9285    2.0723 H   0  0  0  0  0  0  0  0  0  0  0  0
   -0.1474    4.6429    0.6923 H   0  0  0  0  0  0  0  0  0  0  0  0
    1.6807    4.0299   -0.7912 H   0  0  0  0  0  0  0  0  0  0  0  0
    2.5278    4.5943    0.6657 H   0  0  0  0  0  0  0  0  0  0  0  0
   -0.4602    2.6974   -1.3960 H   0  0  0  0  0  0  0  0  0  0  0  0
    2.9457    1.8731   -1.4705 H   0  0  0  0  0  0  0  0  0  0  0  0
    4.1558    2.7740   -0.5283 H   0  0  0  0  0  0  0  0  0  0  0  0
    4.3254    0.6919    0.9891 H   0  0  0  0  0  0  0  0  0  0  0  0
   -2.4259   -1.3907   -0.7925 H   0  0  0  0  0  0  0  0  0  0  0  0
   -2.0501    4.2414   -0.3375 H   0  0  0  0  0  0  0  0  0  0  0  0
   -2.9810    2.9567   -1.1086 H   0  0  0  0  0  0  0  0  0  0  0  0
   -2.7452    2.9369    0.6414 H   0  0  0  0  0  0  0  0  0  0  0  0
   -1.5198   -3.0148    0.8723 H   0  0  0  0  0  0  0  0  0  0  0  0
   -0.8966   -1.6653    1.8337 H   0  0  0  0  0  0  0  0  0  0  0  0
   -0.1307   -2.2279   -1.0586 H   0  0  0  0  0  0  0  0  0  0  0  0
    0.5248   -0.9238   -0.0542 H   0  0  0  0  0  0  0  0  0  0  0  0
    1.3685   -2.7060    1.5741 H   0  0  0  0  0  0  0  0  0  0  0  0
   -3.3456   -0.9109    2.1008 H   0  0  0  0  0  0  0  0  0  0  0  0
   -3.8423   -2.2755    1.1209 H   0  0  0  0  0  0  0  0  0  0  0  0
    3.1683   -3.6489    0.0258 H   0  0  0  0  0  0  0  0  0  0  0  0
    5.8377   -0.4814   -0.6275 H   0  0  0  0  0  0  0  0  0  0  0  0
    5.1153    0.3965   -1.9675 H   0  0  0  0  0  0  0  0  0  0  0  0
    6.0572    1.2753   -0.7387 H   0  0  0  0  0  0  0  0  0  0  0  0
   -4.4193    0.6847    0.5160 H   0  0  0  0  0  0  0  0  0  0  0  0
    1.9874   -3.6282   -2.1162 H   0  0  0  0  0  0  0  0  0  0  0  0
    1.9610   -1.8553   -2.1196 H   0  0  0  0  0  0  0  0  0  0  0  0
    3.5000   -2.7091   -2.1788 H   0  0  0  0  0  0  0  0  0  0  0  0
   -5.3086   -1.8812   -0.9220 H   0  0  0  0  0  0  0  0  0  0  0  0
   -4.1936   -0.6824   -1.5948 H   0  0  0  0  0  0  0  0  0  0  0  0
    0.0985   -4.3924    1.0558 H   0  0  0  0  0  0  0  0  0  0  0  0
   -6.4027   -0.3412   -2.5188 H   0  0  0  0  0  0  0  0  0  0  0  0
   -7.1224   -0.1888   -0.9111 H   0  0  0  0  0  0  0  0  0  0  0  0
   -5.9868    1.0445   -1.4961 H   0  0  0  0  0  0  0  0  0  0  0  0
   -5.5965   -0.2459    2.2304 H   0  0  0  0  0  0  0  0  0  0  0  0
  1  8  1  0  0  0  0
  1  9  1  0  0  0  0
  2 15  1  0  0  0  0
  2 16  1  0  0  0  0
  3 14  1  0  0  0  0
  3 25  1  0  0  0  0
  4 16  2  0  0  0  0
  5 20  1  0  0  0  0
  5 60  1  0  0  0  0
  6 24  1  0  0  0  0
  6 64  1  0  0  0  0
  7 25  2  0  0  0  0
  8 10  1  0  0  0  0
  8 12  1  0  0  0  0
  8 29  1  0  0  0  0
  9 11  1  0  0  0  0
  9 13  1  0  0  0  0
  9 30  1  0  0  0  0
 10 11  1  0  0  0  0
 10 31  1  0  0  0  0
 10 32  1  0  0  0  0
 11 33  1  0  0  0  0
 11 34  1  0  0  0  0
 12 16  1  0  0  0  0
 12 17  1  0  0  0  0
 12 35  1  0  0  0  0
 13 14  1  0  0  0  0
 13 36  1  0  0  0  0
 13 37  1  0  0  0  0
 14 23  1  0  0  0  0
 14 38  1  0  0  0  0
 15 18  1  0  0  0  0
 15 21  1  0  0  0  0
 15 39  1  0  0  0  0
 17 40  1  0  0  0  0
 17 41  1  0  0  0  0
 17 42  1  0  0  0  0
 18 19  1  0  0  0  0
 18 43  1  0  0  0  0
 18 44  1  0  0  0  0
 19 20  1  0  0  0  0
 19 45  1  0  0  0  0
 19 46  1  0  0  0  0
 20 22  1  0  0  0  0
 20 47  1  0  0  0  0
 21 24  1  0  0  0  0
 21 48  1  0  0  0  0
 21 49  1  0  0  0  0
 22 25  1  0  0  0  0
 22 26  1  0  0  0  0
 22 50  1  0  0  0  0
 23 51  1  0  0  0  0
 23 52  1  0  0  0  0
 23 53  1  0  0  0  0
 24 27  1  0  0  0  0
 24 54  1  0  0  0  0
 26 55  1  0  0  0  0
 26 56  1  0  0  0  0
 26 57  1  0  0  0  0
 27 28  1  0  0  0  0
 27 58  1  0  0  0  0
 27 59  1  0  0  0  0
 28 61  1  0  0  0  0
 28 62  1  0  0  0  0
 28 63  1  0  0  0  0
M  END
> <PUBCHEM_COMPOUND_CID>
10668706

> <PUBCHEM_CONFORMER_RMSD>
0.8

> <PUBCHEM_CONFORMER_DIVERSEORDER>
2
157
100
136
81
27
46
53
96
90
153
112
155
138
77
151
145
165
122
160
75
17
38
118
80
119
141
56
60
68
37
121
23
102
107
74
63
48
111
156
6
113
144
146
162
98
149
73
71
33
127
124
67
115
39
152
43
11
79
123
161
65
87
95
94
89
106
54
135
45
52
82
131
130
88
31
50
69
86
21
42
132
120
148
92
109
59
66
93
126
128
158
57
72
28
101
26
83
110
47
16
58
97
117
129
22
64
142
13
139
105
78
134
159
9
20
91
163
10
49
147
61
164
8
30
140
150
3
1
84
104
19
143
70
154
133
14
51
35
5
62
114
24
34
76
55
116
44
15
85
12
108
18
7
137
25
29
103
32
125
40
41
4
36
99

> <PUBCHEM_MMFF94_PARTIAL_CHARGES>
19
1 -0.56
12 0.06
14 0.28
15 0.28
16 0.66
2 -0.43
20 0.28
22 0.06
24 0.28
25 0.66
3 -0.43
4 -0.57
5 -0.68
6 -0.68
60 0.4
64 0.4
7 -0.57
8 0.28
9 0.28

> <PUBCHEM_EFFECTIVE_ROTOR_COUNT>
5.6

> <PUBCHEM_PHARMACOPHORE_FEATURES>
9
1 1 acceptor
1 28 hydrophobe
1 4 acceptor
1 5 acceptor
1 5 donor
1 6 acceptor
1 6 donor
1 7 acceptor
5 1 8 9 10 11 rings

> <PUBCHEM_HEAVY_ATOM_COUNT>
28

> <PUBCHEM_ATOM_DEF_STEREO_COUNT>
8

> <PUBCHEM_ATOM_UDEF_STEREO_COUNT>
0

> <PUBCHEM_BOND_DEF_STEREO_COUNT>
0

> <PUBCHEM_BOND_UDEF_STEREO_COUNT>
0

> <PUBCHEM_ISOTOPIC_ATOM_COUNT>
0

> <PUBCHEM_COMPONENT_COUNT>
1

> <PUBCHEM_CACTVS_TAUTO_COUNT>
1

> <PUBCHEM_CONFORMER_ID>
00A2CAA200000002

> <PUBCHEM_MMFF94_ENERGY>
55.0315

> <PUBCHEM_FEATURE_SELFOVERLAP>
45.673

> <PUBCHEM_SHAPE_FINGERPRINT>
10816530 90 17971733499398955685
1100329 8 18267587004086731776
11014199 57 17834393415451785930
11513181 2 17773331044880795063
11578080 2 17459460053643391645
12107698 1 18268994176907193902
12156800 1 15246332254387714530
12553582 1 18342170077312244324
12596602 18 16558750160764502521
12633257 1 18337102488328333082
12717326 120 15938962157518315859
12769317 202 18408880763104611931
12788726 201 18410297977963793504
12838862 33 18339065103957681856
13122387 1 18050291358476121288
13140716 1 17906446989626866680
13402501 40 18336270136456129530
1361 2 18272931656684126135
14114211 80 18052005758843614950
14117953 113 18271519797606815671
14725015 67 18263348231773723834
14784336 7 17772464836546314153
14787075 74 18408042900858004767
14790565 3 17904490953619162565
14931854 50 18336555954019265036
15081414 286 18341063959687196067
16728300 4 17606652783593353802
17093844 170 18266174114207253392
17492 54 18334304192781124456
19591789 44 18193559097611466899
19930381 70 18410294670575160019
20764821 26 18121224181751108466
21279426 13 18263358110673569981
21585483 110 18335699477263226349
22121540 332 17460845477276149543
23419403 2 18115290229624106895
23559900 14 18263078984548416077
238 59 18122592154789330958
3014063 31 18410293618281753129
3298306 158 18337386153548246221
345986 75 17988926652162305265
3882209 13 17613405893083649490
460360 51 18265070058683490953
463206 1 18270115841474557415
532947 4 18339077211306647059
59755656 215 18335417980278961804
6443956 14 18410295808920899749

> <PUBCHEM_SHAPE_MULTIPOLES>
535.14
10.32
5.07
1.28
10.2
1.21
0.31
-2.26
1.65
-3.78
-0.79
0.63
-0.29
0.61

> <PUBCHEM_SHAPE_SELFOVERLAP>
1071.023

> <PUBCHEM_SHAPE_VOLUME>
315.3

> <PUBCHEM_COORDINATE_TYPE>
2
5
10

$$$$
