10666709
  -OEChem-03292013303D

 47 50  0     1  0  0  0  0  0999 V2000
    0.2433   -0.4701   -0.2055 O   0  0  0  0  0  0  0  0  0  0  0  0
   -3.9813    1.6857    0.1107 O   0  0  0  0  0  0  0  0  0  0  0  0
   -3.8523   -3.0496    0.2089 O   0  0  0  0  0  0  0  0  0  0  0  0
   -1.5186   -4.1725   -0.0657 O   0  0  0  0  0  0  0  0  0  0  0  0
    1.3418    3.0805    2.2730 O   0  0  0  0  0  0  0  0  0  0  0  0
   -0.2878    2.1428    1.0099 N   0  0  0  0  0  0  0  0  0  0  0  0
    0.7977    4.1511    0.3529 N   0  0  0  0  0  0  0  0  0  0  0  0
   -1.1555    1.9362   -0.1582 C   0  0  1  0  0  0  0  0  0  0  0  0
   -0.3660    2.0428   -1.4712 C   0  0  0  0  0  0  0  0  0  0  0  0
   -1.8553    0.5890   -0.0556 C   0  0  0  0  0  0  0  0  0  0  0  0
   -1.1162   -0.5946   -0.0796 C   0  0  0  0  0  0  0  0  0  0  0  0
   -0.0383    3.4784   -1.8882 C   0  0  0  0  0  0  0  0  0  0  0  0
    0.9587   -1.6043    0.3089 C   0  0  1  0  0  0  0  0  0  0  0  0
   -1.7738   -1.8260   -0.0050 C   0  0  0  0  0  0  0  0  0  0  0  0
    0.4913   -2.8959   -0.3595 C   0  0  0  0  0  0  0  0  0  0  0  0
   -0.0556    4.5016   -0.7646 C   0  0  0  0  0  0  0  0  0  0  0  0
   -3.2435    0.5402    0.0750 C   0  0  0  0  0  0  0  0  0  0  0  0
   -0.9849   -3.0706   -0.1139 C   0  0  0  0  0  0  0  0  0  0  0  0
   -3.1636   -1.8771    0.1271 C   0  0  0  0  0  0  0  0  0  0  0  0
    2.4390   -1.3784    0.0851 C   0  0  0  0  0  0  0  0  0  0  0  0
    0.6405    3.1270    1.2551 C   0  0  0  0  0  0  0  0  0  0  0  0
   -3.8953   -0.6897    0.1711 C   0  0  0  0  0  0  0  0  0  0  0  0
    3.3667   -1.8876    0.9936 C   0  0  0  0  0  0  0  0  0  0  0  0
    2.8742   -0.6619   -1.0294 C   0  0  0  0  0  0  0  0  0  0  0  0
    4.7306   -1.6798    0.7875 C   0  0  0  0  0  0  0  0  0  0  0  0
    4.2380   -0.4543   -1.2355 C   0  0  0  0  0  0  0  0  0  0  0  0
    5.1662   -0.9633   -0.3270 C   0  0  0  0  0  0  0  0  0  0  0  0
   -1.9043    2.7322   -0.1221 H   0  0  0  0  0  0  0  0  0  0  0  0
   -0.9138    1.5697   -2.2967 H   0  0  0  0  0  0  0  0  0  0  0  0
    0.5901    1.5151   -1.3959 H   0  0  0  0  0  0  0  0  0  0  0  0
    0.9415    3.4854   -2.3824 H   0  0  0  0  0  0  0  0  0  0  0  0
   -0.7624    3.7992   -2.6477 H   0  0  0  0  0  0  0  0  0  0  0  0
    0.7759   -1.6407    1.3932 H   0  0  0  0  0  0  0  0  0  0  0  0
    1.0234   -3.7583    0.0569 H   0  0  0  0  0  0  0  0  0  0  0  0
    0.6475   -2.8727   -1.4444 H   0  0  0  0  0  0  0  0  0  0  0  0
   -0.3766    1.4567    1.7543 H   0  0  0  0  0  0  0  0  0  0  0  0
    0.3029    5.4637   -1.1479 H   0  0  0  0  0  0  0  0  0  0  0  0
   -1.0675    4.6733   -0.3842 H   0  0  0  0  0  0  0  0  0  0  0  0
   -4.9779   -0.7205    0.2731 H   0  0  0  0  0  0  0  0  0  0  0  0
    1.5300    4.8193    0.5733 H   0  0  0  0  0  0  0  0  0  0  0  0
    3.0396   -2.4491    1.8646 H   0  0  0  0  0  0  0  0  0  0  0  0
    2.1747   -0.2727   -1.7634 H   0  0  0  0  0  0  0  0  0  0  0  0
   -4.9217    1.4564    0.2045 H   0  0  0  0  0  0  0  0  0  0  0  0
   -4.8028   -2.8629    0.2942 H   0  0  0  0  0  0  0  0  0  0  0  0
    5.4534   -2.0767    1.4943 H   0  0  0  0  0  0  0  0  0  0  0  0
    4.5778    0.0995   -2.1058 H   0  0  0  0  0  0  0  0  0  0  0  0
    6.2281   -0.8027   -0.4882 H   0  0  0  0  0  0  0  0  0  0  0  0
  1 11  1  0  0  0  0
  1 13  1  0  0  0  0
  2 17  1  0  0  0  0
  2 43  1  0  0  0  0
  3 19  1  0  0  0  0
  3 44  1  0  0  0  0
  4 18  2  0  0  0  0
  5 21  2  0  0  0  0
  6  8  1  0  0  0  0
  6 21  1  0  0  0  0
  6 36  1  0  0  0  0
  7 16  1  0  0  0  0
  7 21  1  0  0  0  0
  7 40  1  0  0  0  0
  8  9  1  0  0  0  0
  8 10  1  0  0  0  0
  8 28  1  0  0  0  0
  9 12  1  0  0  0  0
  9 29  1  0  0  0  0
  9 30  1  0  0  0  0
 10 11  2  0  0  0  0
 10 17  1  0  0  0  0
 11 14  1  0  0  0  0
 12 16  1  0  0  0  0
 12 31  1  0  0  0  0
 12 32  1  0  0  0  0
 13 15  1  0  0  0  0
 13 20  1  0  0  0  0
 13 33  1  0  0  0  0
 14 18  1  0  0  0  0
 14 19  2  0  0  0  0
 15 18  1  0  0  0  0
 15 34  1  0  0  0  0
 15 35  1  0  0  0  0
 16 37  1  0  0  0  0
 16 38  1  0  0  0  0
 17 22  2  0  0  0  0
 19 22  1  0  0  0  0
 20 23  2  0  0  0  0
 20 24  1  0  0  0  0
 22 39  1  0  0  0  0
 23 25  1  0  0  0  0
 23 41  1  0  0  0  0
 24 26  2  0  0  0  0
 24 42  1  0  0  0  0
 25 27  2  0  0  0  0
 25 45  1  0  0  0  0
 26 27  1  0  0  0  0
 26 46  1  0  0  0  0
 27 47  1  0  0  0  0
M  END
> <PUBCHEM_COMPOUND_CID>
10666709

> <PUBCHEM_CONFORMER_RMSD>
0.8

> <PUBCHEM_CONFORMER_DIVERSEORDER>
1
11
18
6
5
2
22
9
15
7
12
20
17
3
16
10
8
4
13
21
14
19

> <PUBCHEM_MMFF94_PARTIAL_CHARGES>
35
1 -0.36
10 -0.14
11 0.08
13 0.42
14 0.09
15 0.06
16 0.3
17 0.08
18 0.42
19 0.08
2 -0.53
20 -0.14
21 0.69
22 -0.15
23 -0.15
24 -0.15
25 -0.15
26 -0.15
27 -0.15
3 -0.53
36 0.37
39 0.15
4 -0.57
40 0.37
41 0.15
42 0.15
43 0.45
44 0.45
45 0.15
46 0.15
47 0.15
5 -0.57
6 -0.73
7 -0.73
8 0.44

> <PUBCHEM_EFFECTIVE_ROTOR_COUNT>
3.8

> <PUBCHEM_PHARMACOPHORE_FEATURES>
11
1 1 acceptor
1 2 donor
1 3 donor
1 4 acceptor
1 5 acceptor
1 6 donor
1 7 donor
6 1 11 13 14 15 18 rings
6 10 11 14 17 19 22 rings
6 20 23 24 25 26 27 rings
7 6 7 8 9 12 16 21 rings

> <PUBCHEM_HEAVY_ATOM_COUNT>
27

> <PUBCHEM_ATOM_DEF_STEREO_COUNT>
1

> <PUBCHEM_ATOM_UDEF_STEREO_COUNT>
1

> <PUBCHEM_BOND_DEF_STEREO_COUNT>
0

> <PUBCHEM_BOND_UDEF_STEREO_COUNT>
0

> <PUBCHEM_ISOTOPIC_ATOM_COUNT>
0

> <PUBCHEM_COMPONENT_COUNT>
1

> <PUBCHEM_CACTVS_TAUTO_COUNT>
63

> <PUBCHEM_CONFORMER_ID>
00A2C2D500000001

> <PUBCHEM_MMFF94_ENERGY>
80.4837

> <PUBCHEM_FEATURE_SELFOVERLAP>
55.889

> <PUBCHEM_SHAPE_FINGERPRINT>
10006869 2 17264972793441386089
10165383 225 16828162090738592956
10670039 82 18193852440279447958
1100329 8 18411709798401969313
11578080 2 17606650738402255094
11680986 33 18050001392280988307
12788726 201 18261679182066589770
13140716 1 18410292493016054914
133893 2 17977685404198532969
138480 1 15383306908651464428
14068700 675 18129930265856052015
14790565 3 18124607379115015689
14955137 171 18123222119318321219
15420108 30 16830693681892324683
15927050 60 17402344057780563927
17818456 19 18193267491293091946
20510252 161 18124313805304238712
20600515 1 18271262529144659477
20642791 105 17902215729327339584
20642791 178 18189637032541147757
20642791 239 18045808894177450164
20715895 44 17465090545104527605
20905425 154 17837226130718302438
22182313 1 18046040904390183703
23366157 5 17829885791160126930
23419403 2 18197476593074876565
23557571 272 18128264393717309590
23559900 14 18050850223546405053
283562 15 18122905330608364331
3178227 256 18264507139358629225
350125 39 18337965592566775955
43471831 8 17329991807468497955
4409770 3 18046048385505651990
469060 322 18194696860244920552
474 4 16465005417139020824
57527358 35 15432001229187507613
59755656 215 17690277531553778991
6287921 2 17907291409797359442
9981440 41 17616796752704544890

> <PUBCHEM_SHAPE_MULTIPOLES>
516.34
7.22
5.88
1.27
7.47
3.61
0.12
-4.07
0.11
-3.45
0.04
0.61
1.41
0.19

> <PUBCHEM_SHAPE_SELFOVERLAP>
1134.646

> <PUBCHEM_SHAPE_VOLUME>
274

> <PUBCHEM_COORDINATE_TYPE>
2
5
10

$$$$
