10669942
  -OEChem-03292013303D

 72 75  0     1  0  0  0  0  0999 V2000
    1.9635    3.4254   -2.1333 O   0  0  0  0  0  0  0  0  0  0  0  0
   -3.1656   -2.7254   -0.1961 O   0  0  0  0  0  0  0  0  0  0  0  0
   -4.7150   -0.7018   -1.4290 O   0  0  0  0  0  0  0  0  0  0  0  0
   -3.6567    1.5767    0.0321 O   0  0  0  0  0  0  0  0  0  0  0  0
   -6.1887    2.6731    0.4993 O   0  0  0  0  0  0  0  0  0  0  0  0
    2.5497    0.8541    0.4421 C   0  0  2  0  0  0  0  0  0  0  0  0
    1.0341    0.7086    0.1355 C   0  0  2  0  0  0  0  0  0  0  0  0
    0.6044   -0.5878   -0.6208 C   0  0  1  0  0  0  0  0  0  0  0  0
    1.6870   -1.6984   -0.8764 C   0  0  2  0  0  0  0  0  0  0  0  0
   -0.6013   -1.3352    0.0484 C   0  0  2  0  0  0  0  0  0  0  0  0
    3.1031    1.8608   -0.6350 C   0  0  2  0  0  0  0  0  0  0  0  0
    3.2735   -0.4593    0.6083 C   0  0  0  0  0  0  0  0  0  0  0  0
    0.7132    1.9613   -0.6933 C   0  0  0  0  0  0  0  0  0  0  0  0
    2.7801    1.4458    1.8565 C   0  0  0  0  0  0  0  0  0  0  0  0
    0.9520   -3.0420   -0.6135 C   0  0  0  0  0  0  0  0  0  0  0  0
    1.9279    2.1180   -1.5877 C   0  0  1  0  0  0  0  0  0  0  0  0
   -0.5312   -2.7050   -0.6411 C   0  0  0  0  0  0  0  0  0  0  0  0
    2.8944   -1.5965    0.0134 C   0  0  0  0  0  0  0  0  0  0  0  0
    4.3124   -0.3949    1.7080 C   0  0  2  0  0  0  0  0  0  0  0  0
    4.2170    1.0539    2.1900 C   0  0  0  0  0  0  0  0  0  0  0  0
   -1.9372   -0.6462   -0.2577 C   0  0  0  0  0  0  0  0  0  0  0  0
    2.1501   -1.6889   -2.3455 C   0  0  0  0  0  0  0  0  0  0  0  0
   -0.4771   -1.5145    1.5767 C   0  0  0  0  0  0  0  0  0  0  0  0
    4.3680    1.4695   -1.3938 C   0  0  0  0  0  0  0  0  0  0  0  0
    5.7254   -0.8000    1.3141 C   0  0  0  0  0  0  0  0  0  0  0  0
   -3.1590   -1.3891    0.2965 C   0  0  1  0  0  0  0  0  0  0  0  0
   -4.5095   -0.7068   -0.0166 C   0  0  1  0  0  0  0  0  0  0  0  0
   -4.6904    0.7329    0.5518 C   0  0  2  0  0  0  0  0  0  0  0  0
   -6.0403    1.3181    0.0865 C   0  0  0  0  0  0  0  0  0  0  0  0
   -4.5839    0.7937    2.0805 C   0  0  0  0  0  0  0  0  0  0  0  0
    0.4552    0.7993    1.0586 H   0  0  0  0  0  0  0  0  0  0  0  0
    0.2455   -0.2837   -1.6156 H   0  0  0  0  0  0  0  0  0  0  0  0
    3.3378    2.8200   -0.1513 H   0  0  0  0  0  0  0  0  0  0  0  0
   -0.2173    1.8865   -1.2657 H   0  0  0  0  0  0  0  0  0  0  0  0
    0.6043    2.8374   -0.0402 H   0  0  0  0  0  0  0  0  0  0  0  0
    2.1024    0.9900    2.5916 H   0  0  0  0  0  0  0  0  0  0  0  0
    2.6300    2.5291    1.9082 H   0  0  0  0  0  0  0  0  0  0  0  0
    1.2127   -3.4594    0.3679 H   0  0  0  0  0  0  0  0  0  0  0  0
    1.1914   -3.8141   -1.3536 H   0  0  0  0  0  0  0  0  0  0  0  0
    1.9104    1.3998   -2.4130 H   0  0  0  0  0  0  0  0  0  0  0  0
   -0.8825   -2.6561   -1.6792 H   0  0  0  0  0  0  0  0  0  0  0  0
   -1.0641   -3.5072   -0.1241 H   0  0  0  0  0  0  0  0  0  0  0  0
    3.4480   -2.5100    0.2178 H   0  0  0  0  0  0  0  0  0  0  0  0
    3.9784   -1.0476    2.5265 H   0  0  0  0  0  0  0  0  0  0  0  0
    4.9257    1.7049    1.6652 H   0  0  0  0  0  0  0  0  0  0  0  0
    4.4205    1.1399    3.2624 H   0  0  0  0  0  0  0  0  0  0  0  0
   -2.0362   -0.5340   -1.3441 H   0  0  0  0  0  0  0  0  0  0  0  0
   -1.8650    0.3532    0.1713 H   0  0  0  0  0  0  0  0  0  0  0  0
    2.6041   -0.7364   -2.6252 H   0  0  0  0  0  0  0  0  0  0  0  0
    2.8913   -2.4746   -2.5356 H   0  0  0  0  0  0  0  0  0  0  0  0
    1.3094   -1.8608   -3.0277 H   0  0  0  0  0  0  0  0  0  0  0  0
   -0.7910   -0.6179    2.1223 H   0  0  0  0  0  0  0  0  0  0  0  0
   -1.0891   -2.3470    1.9412 H   0  0  0  0  0  0  0  0  0  0  0  0
    0.5528   -1.7291    1.8794 H   0  0  0  0  0  0  0  0  0  0  0  0
    5.2349    1.4653   -0.7292 H   0  0  0  0  0  0  0  0  0  0  0  0
    4.2890    0.4872   -1.8637 H   0  0  0  0  0  0  0  0  0  0  0  0
    4.5786    2.1966   -2.1860 H   0  0  0  0  0  0  0  0  0  0  0  0
    6.4109   -0.6652    2.1576 H   0  0  0  0  0  0  0  0  0  0  0  0
    5.7636   -1.8542    1.0199 H   0  0  0  0  0  0  0  0  0  0  0  0
    6.1062   -0.2093    0.4768 H   0  0  0  0  0  0  0  0  0  0  0  0
   -3.0772   -1.4666    1.3847 H   0  0  0  0  0  0  0  0  0  0  0  0
    1.1529    3.5457   -2.6570 H   0  0  0  0  0  0  0  0  0  0  0  0
   -5.3084   -1.3408    0.3884 H   0  0  0  0  0  0  0  0  0  0  0  0
   -3.9252   -3.1833    0.2021 H   0  0  0  0  0  0  0  0  0  0  0  0
   -4.0814   -0.0859   -1.8312 H   0  0  0  0  0  0  0  0  0  0  0  0
   -6.8762    0.7380    0.4921 H   0  0  0  0  0  0  0  0  0  0  0  0
   -6.1137    1.3210   -1.0059 H   0  0  0  0  0  0  0  0  0  0  0  0
   -5.3288    0.1493    2.5579 H   0  0  0  0  0  0  0  0  0  0  0  0
   -4.7221    1.8164    2.4490 H   0  0  0  0  0  0  0  0  0  0  0  0
   -3.5883    0.4910    2.4217 H   0  0  0  0  0  0  0  0  0  0  0  0
   -3.7993    1.6833   -0.9232 H   0  0  0  0  0  0  0  0  0  0  0  0
   -7.0566    2.9749    0.1809 H   0  0  0  0  0  0  0  0  0  0  0  0
  1 16  1  0  0  0  0
  1 62  1  0  0  0  0
  2 26  1  0  0  0  0
  2 64  1  0  0  0  0
  3 27  1  0  0  0  0
  3 65  1  0  0  0  0
  4 28  1  0  0  0  0
  4 71  1  0  0  0  0
  5 29  1  0  0  0  0
  5 72  1  0  0  0  0
  6  7  1  0  0  0  0
  6 11  1  0  0  0  0
  6 12  1  0  0  0  0
  6 14  1  0  0  0  0
  7  8  1  0  0  0  0
  7 13  1  0  0  0  0
  7 31  1  0  0  0  0
  8  9  1  0  0  0  0
  8 10  1  0  0  0  0
  8 32  1  0  0  0  0
  9 15  1  0  0  0  0
  9 18  1  0  0  0  0
  9 22  1  0  0  0  0
 10 17  1  0  0  0  0
 10 21  1  0  0  0  0
 10 23  1  0  0  0  0
 11 16  1  0  0  0  0
 11 24  1  0  0  0  0
 11 33  1  0  0  0  0
 12 18  2  0  0  0  0
 12 19  1  0  0  0  0
 13 16  1  0  0  0  0
 13 34  1  0  0  0  0
 13 35  1  0  0  0  0
 14 20  1  0  0  0  0
 14 36  1  0  0  0  0
 14 37  1  0  0  0  0
 15 17  1  0  0  0  0
 15 38  1  0  0  0  0
 15 39  1  0  0  0  0
 16 40  1  0  0  0  0
 17 41  1  0  0  0  0
 17 42  1  0  0  0  0
 18 43  1  0  0  0  0
 19 20  1  0  0  0  0
 19 25  1  0  0  0  0
 19 44  1  0  0  0  0
 20 45  1  0  0  0  0
 20 46  1  0  0  0  0
 21 26  1  0  0  0  0
 21 47  1  0  0  0  0
 21 48  1  0  0  0  0
 22 49  1  0  0  0  0
 22 50  1  0  0  0  0
 22 51  1  0  0  0  0
 23 52  1  0  0  0  0
 23 53  1  0  0  0  0
 23 54  1  0  0  0  0
 24 55  1  0  0  0  0
 24 56  1  0  0  0  0
 24 57  1  0  0  0  0
 25 58  1  0  0  0  0
 25 59  1  0  0  0  0
 25 60  1  0  0  0  0
 26 27  1  0  0  0  0
 26 61  1  0  0  0  0
 27 28  1  0  0  0  0
 27 63  1  0  0  0  0
 28 29  1  0  0  0  0
 28 30  1  0  0  0  0
 29 66  1  0  0  0  0
 29 67  1  0  0  0  0
 30 68  1  0  0  0  0
 30 69  1  0  0  0  0
 30 70  1  0  0  0  0
M  END
> <PUBCHEM_COMPOUND_CID>
10669942

> <PUBCHEM_CONFORMER_RMSD>
0.8

> <PUBCHEM_CONFORMER_DIVERSEORDER>
2
3
9
6
4
7
5
10
8
1

> <PUBCHEM_MMFF94_PARTIAL_CHARGES>
21
1 -0.68
12 -0.28
16 0.28
18 -0.29
19 0.14
2 -0.68
26 0.28
27 0.28
28 0.28
29 0.28
3 -0.68
4 -0.68
43 0.15
5 -0.68
6 0.14
62 0.4
64 0.4
65 0.4
71 0.4
72 0.4
9 0.14

> <PUBCHEM_EFFECTIVE_ROTOR_COUNT>
6.8

> <PUBCHEM_PHARMACOPHORE_FEATURES>
14
1 1 acceptor
1 1 donor
1 2 acceptor
1 2 donor
1 3 acceptor
1 3 donor
1 4 acceptor
1 4 donor
1 5 acceptor
1 5 donor
5 6 12 14 19 20 rings
5 6 7 11 13 16 rings
5 8 9 10 15 17 rings
6 6 7 8 9 12 18 rings

> <PUBCHEM_HEAVY_ATOM_COUNT>
30

> <PUBCHEM_ATOM_DEF_STEREO_COUNT>
11

> <PUBCHEM_ATOM_UDEF_STEREO_COUNT>
0

> <PUBCHEM_BOND_DEF_STEREO_COUNT>
0

> <PUBCHEM_BOND_UDEF_STEREO_COUNT>
0

> <PUBCHEM_ISOTOPIC_ATOM_COUNT>
0

> <PUBCHEM_COMPONENT_COUNT>
1

> <PUBCHEM_CACTVS_TAUTO_COUNT>
1

> <PUBCHEM_CONFORMER_ID>
00A2CF7600000002

> <PUBCHEM_MMFF94_ENERGY>
127.413

> <PUBCHEM_FEATURE_SELFOVERLAP>
71.416

> <PUBCHEM_SHAPE_FINGERPRINT>
10764073 3 18128523891626149022
10906281 52 18260840310481217802
10928967 22 8646774374512568681
11069576 57 11383572052496041796
11387372 6 15873303368227578496
11578080 2 18056751260115637672
12107183 9 18260822674728497867
12160290 23 17197430235985750198
12403259 118 18335978774491376203
12403260 363 18264480861984483351
12422481 6 18338504262537381688
12633257 1 17967807267106805371
12644460 14 17749389329826098028
12778500 126 15502941809758864029
12788726 201 17614842241732360914
13140716 1 18336262435236811427
13224815 77 18271537467592127787
13911987 19 13181883934701984546
13965767 371 18267844195218221826
14117953 113 18263076627017468573
14251764 38 18263086659949690947
14294032 229 17986963028128608335
14739800 52 17909822481460411120
14790565 3 18120101838373333220
14950920 106 16950573194524243025
15238133 3 18411698811939111712
15420108 30 18201137893829074670
1601671 61 18336269024254954284
17349148 13 18411135870237884697
17818456 19 18340481257189593624
17980427 23 18339911723241516828
20691752 17 17749107807198779871
20715895 44 18342172207731983553
20739085 24 18261110785962326476
21033648 29 18058431236240652162
21304253 335 18272928327941520302
21421861 104 17749105569884601000
22121540 332 18129379294361139588
22149856 69 18057908934749458651
22182313 1 18192421970591606156
22393880 68 17704078429638320871
22950370 63 11458696167161992523
23419403 2 17629480796943394310
235170 7 14836129874980456697
23559900 14 18271541817866822702
3052486 1 17823980022349954884
34797466 226 15984820476213277897
3737641 26 13768750275845265704
439807 62 11312056539713491821
44280116 191 13893237914803766233
474 4 18408327692013580971
508706 21 18261671476958174605
5104073 3 18114460175105869201
513202 73 17825650176782231578
513532 50 17060343994170479412
57724786 102 17967819378761794508
5895379 119 18411708676904276200
59755656 215 18200875063304382392
6328613 192 18340205306274321496
653340 110 18051972520171781137
7064713 232 18341608235259964249
79837 15 18338794640998147835
8509985 295 17968089832899655648

> <PUBCHEM_SHAPE_MULTIPOLES>
588.04
11.86
3.24
1.94
14.52
0.07
0.09
-5.54
3.97
0.28
-1.34
-1.94
-0.64
-0.96

> <PUBCHEM_SHAPE_SELFOVERLAP>
1243.464

> <PUBCHEM_SHAPE_VOLUME>
334.6

> <PUBCHEM_COORDINATE_TYPE>
2
5
10

$$$$
