1067700
  -OEChem-03292013313D

 44 46  0     0  0  0  0  0  0999 V2000
   -1.7315    1.8606   -0.4520 S   0  0  0  0  0  0  0  0  0  0  0  0
    0.9140    2.8190    1.1807 S   0  0  0  0  0  0  0  0  0  0  0  0
   -5.6167    0.9930   -0.8369 O   0  0  0  0  0  0  0  0  0  0  0  0
   -0.1087   -2.2119    0.3683 O   0  0  0  0  0  0  0  0  0  0  0  0
   -2.2353   -2.9855    0.3737 O   0  0  0  0  0  0  0  0  0  0  0  0
    2.6965   -1.0975   -0.6413 O   0  0  0  0  0  0  0  0  0  0  0  0
    0.4060    0.3812   -0.0598 N   0  0  0  0  0  0  0  0  0  0  0  0
    2.6560    1.0220    0.3578 N   0  0  0  0  0  0  0  0  0  0  0  0
   -5.7060   -0.1404    0.0545 C   0  0  0  0  0  0  0  0  0  0  0  0
   -4.4559   -1.0418   -0.1163 C   0  0  0  0  0  0  0  0  0  0  0  0
   -3.2087   -0.2220   -0.1692 C   0  0  0  0  0  0  0  0  0  0  0  0
   -3.2674    1.1320   -0.4198 C   0  0  0  0  0  0  0  0  0  0  0  0
   -4.5279    1.9033   -0.6009 C   0  0  0  0  0  0  0  0  0  0  0  0
   -5.9028    0.3081    1.5116 C   0  0  0  0  0  0  0  0  0  0  0  0
   -6.9522   -0.9214   -0.3846 C   0  0  0  0  0  0  0  0  0  0  0  0
   -1.8658   -0.6698   -0.0089 C   0  0  0  0  0  0  0  0  0  0  0  0
   -0.9604    0.3621   -0.1385 C   0  0  0  0  0  0  0  0  0  0  0  0
   -1.4612   -2.0281    0.2533 C   0  0  0  0  0  0  0  0  0  0  0  0
    1.2888    1.3555    0.4456 C   0  0  0  0  0  0  0  0  0  0  0  0
    3.2740   -0.1300   -0.1548 C   0  0  0  0  0  0  0  0  0  0  0  0
    4.7585   -0.1220   -0.1228 C   0  0  0  0  0  0  0  0  0  0  0  0
    5.4305   -1.3253   -0.0556 C   0  0  0  0  0  0  0  0  0  0  0  0
    5.4199    1.0885   -0.1619 C   0  0  0  0  0  0  0  0  0  0  0  0
    6.8250   -1.3179   -0.0258 C   0  0  0  0  0  0  0  0  0  0  0  0
    6.8145    1.0957   -0.1322 C   0  0  0  0  0  0  0  0  0  0  0  0
    7.5169   -0.1075   -0.0642 C   0  0  0  0  0  0  0  0  0  0  0  0
   -4.5199   -1.5917   -1.0645 H   0  0  0  0  0  0  0  0  0  0  0  0
   -4.4200   -1.7779    0.6940 H   0  0  0  0  0  0  0  0  0  0  0  0
   -4.7535    2.5168    0.2774 H   0  0  0  0  0  0  0  0  0  0  0  0
   -4.4653    2.5648   -1.4709 H   0  0  0  0  0  0  0  0  0  0  0  0
   -5.0222    0.8219    1.9099 H   0  0  0  0  0  0  0  0  0  0  0  0
   -6.7374    1.0143    1.5886 H   0  0  0  0  0  0  0  0  0  0  0  0
   -6.1088   -0.5458    2.1659 H   0  0  0  0  0  0  0  0  0  0  0  0
   -6.8813   -1.2107   -1.4395 H   0  0  0  0  0  0  0  0  0  0  0  0
   -7.0946   -1.8267    0.2147 H   0  0  0  0  0  0  0  0  0  0  0  0
   -7.8515   -0.3008   -0.2964 H   0  0  0  0  0  0  0  0  0  0  0  0
    0.8285   -0.5344   -0.1850 H   0  0  0  0  0  0  0  0  0  0  0  0
    0.1158   -3.1501    0.5462 H   0  0  0  0  0  0  0  0  0  0  0  0
    3.2525    1.7280    0.7785 H   0  0  0  0  0  0  0  0  0  0  0  0
    4.9063   -2.2756   -0.0200 H   0  0  0  0  0  0  0  0  0  0  0  0
    4.9168    2.0449   -0.2571 H   0  0  0  0  0  0  0  0  0  0  0  0
    7.3721   -2.2546    0.0279 H   0  0  0  0  0  0  0  0  0  0  0  0
    7.3543    2.0374   -0.1718 H   0  0  0  0  0  0  0  0  0  0  0  0
    8.6028   -0.1019   -0.0431 H   0  0  0  0  0  0  0  0  0  0  0  0
  1 12  1  0  0  0  0
  1 17  1  0  0  0  0
  2 19  2  0  0  0  0
  3  9  1  0  0  0  0
  3 13  1  0  0  0  0
  4 18  1  0  0  0  0
  4 38  1  0  0  0  0
  5 18  2  0  0  0  0
  6 20  2  0  0  0  0
  7 17  1  0  0  0  0
  7 19  1  0  0  0  0
  7 37  1  0  0  0  0
  8 19  1  0  0  0  0
  8 20  1  0  0  0  0
  8 39  1  0  0  0  0
  9 10  1  0  0  0  0
  9 14  1  0  0  0  0
  9 15  1  0  0  0  0
 10 11  1  0  0  0  0
 10 27  1  0  0  0  0
 10 28  1  0  0  0  0
 11 12  2  0  0  0  0
 11 16  1  0  0  0  0
 12 13  1  0  0  0  0
 13 29  1  0  0  0  0
 13 30  1  0  0  0  0
 14 31  1  0  0  0  0
 14 32  1  0  0  0  0
 14 33  1  0  0  0  0
 15 34  1  0  0  0  0
 15 35  1  0  0  0  0
 15 36  1  0  0  0  0
 16 17  2  0  0  0  0
 16 18  1  0  0  0  0
 20 21  1  0  0  0  0
 21 22  2  0  0  0  0
 21 23  1  0  0  0  0
 22 24  1  0  0  0  0
 22 40  1  0  0  0  0
 23 25  2  0  0  0  0
 23 41  1  0  0  0  0
 24 26  2  0  0  0  0
 24 42  1  0  0  0  0
 25 26  1  0  0  0  0
 25 43  1  0  0  0  0
 26 44  1  0  0  0  0
M  END
> <PUBCHEM_COMPOUND_CID>
1067700

> <PUBCHEM_CONFORMER_RMSD>
0.8

> <PUBCHEM_CONFORMER_DIVERSEORDER>
1
23
8
7
12
15
17
24
5
19
13
22
4
14
21
10
16
3
2
9
25
11
20
6
18

> <PUBCHEM_MMFF94_PARTIAL_CHARGES>
32
1 -0.08
10 0.18
11 -0.18
12 -0.14
13 0.46
16 -0.09
17 0.1
18 0.81
19 0.5
2 -0.38
20 0.54
21 0.09
22 -0.15
23 -0.15
24 -0.15
25 -0.15
26 -0.15
3 -0.56
37 0.37
38 0.5
39 0.37
4 -0.65
40 0.15
41 0.15
42 0.15
43 0.15
44 0.15
5 -0.57
6 -0.57
7 -0.49
8 -0.49
9 0.28

> <PUBCHEM_EFFECTIVE_ROTOR_COUNT>
6.8

> <PUBCHEM_PHARMACOPHORE_FEATURES>
12
1 2 acceptor
1 3 acceptor
1 4 acceptor
1 5 acceptor
1 6 acceptor
1 7 donor
1 8 donor
3 4 5 18 anion
3 9 14 15 hydrophobe
5 1 11 12 16 17 rings
6 21 22 23 24 25 26 rings
6 3 9 10 11 12 13 rings

> <PUBCHEM_HEAVY_ATOM_COUNT>
26

> <PUBCHEM_ATOM_DEF_STEREO_COUNT>
0

> <PUBCHEM_ATOM_UDEF_STEREO_COUNT>
0

> <PUBCHEM_BOND_DEF_STEREO_COUNT>
0

> <PUBCHEM_BOND_UDEF_STEREO_COUNT>
0

> <PUBCHEM_ISOTOPIC_ATOM_COUNT>
0

> <PUBCHEM_COMPONENT_COUNT>
1

> <PUBCHEM_CACTVS_TAUTO_COUNT>
11

> <PUBCHEM_CONFORMER_ID>
00104AB400000001

> <PUBCHEM_MMFF94_ENERGY>
89.6355

> <PUBCHEM_FEATURE_SELFOVERLAP>
61.054

> <PUBCHEM_SHAPE_FINGERPRINT>
10299344 5 18343586243693126596
10411042 1 17975135654742758299
10835480 77 18340481270818872000
10906281 52 18059031530729008964
11315181 36 17846781831651309944
11524674 6 17131832088066298495
11646440 116 18202568375556637112
11719270 70 18272366443989808446
12166972 35 18260270742031225196
12236239 1 17313383413795442212
12516196 113 18059853974312003736
12788726 201 18129658578677377200
12838862 33 18336528478496397268
13402501 40 18413107255931736014
13533116 47 18131069282603747698
13685833 64 18413389839073487832
14251752 14 18334010575657600360
14251764 18 18272653462829709997
14617045 38 18410295809242737618
14849402 71 18059015106674499193
14933364 13 18408041806137092940
15021287 119 17312828199146764853
15183329 4 18409164398634235650
15849732 13 17603586335160849815
18608769 82 18335423512751162267
21236236 1 18342177717906518441
21267235 1 18410859866859799885
21279426 13 18267585702031204879
22224240 67 16128649752816883102
23198884 109 16443066084225069096
23522609 53 18126875830379991377
23559900 14 18270110352511978721
3004659 81 18333731300310774218
3178227 256 18335715944220548177
335352 9 18411134762521334071
3383291 50 18411980273620016147
34797466 226 17988650718463649804
350125 39 18409166597995360925
3545911 37 18409449185389258644
4073 2 17968099780946227570
4325135 7 18261395568538686924
437815 12 18202847664331956496
5283173 99 18336825299998346636
59755656 215 18410857625330178174
59755656 520 16515683363946374042
6138700 20 18410855443296575695
7226269 152 18272090470058796625
999808 66 18040727978136379099

> <PUBCHEM_SHAPE_MULTIPOLES>
509.33
19.53
2.43
0.86
15.79
0.07
-0.17
2.4
1.14
-0.55
-0.41
-0.72
-0.26
0.56

> <PUBCHEM_SHAPE_SELFOVERLAP>
1074.014

> <PUBCHEM_SHAPE_VOLUME>
287.7

> <PUBCHEM_COORDINATE_TYPE>
2
5
10

$$$$
