10672322
  -OEChem-03292013303D

 76 81  0     1  0  0  0  0  0999 V2000
    3.8688    0.7995   -0.2769 O   0  0  0  0  0  0  0  0  0  0  0  0
   -5.2405    1.1027   -0.9686 O   0  0  0  0  0  0  0  0  0  0  0  0
    5.2658   -0.3401    1.2946 O   0  0  0  0  0  0  0  0  0  0  0  0
   -2.9747    2.0690   -2.1900 O   0  0  0  0  0  0  0  0  0  0  0  0
   -5.6583   -1.6833   -0.6295 O   0  0  0  0  0  0  0  0  0  0  0  0
   -4.8431    2.3760    1.4959 O   0  0  0  0  0  0  0  0  0  0  0  0
   -6.5297    0.1736    1.3126 O   0  0  0  0  0  0  0  0  0  0  0  0
    1.0079   -1.0553   -0.2372 C   0  0  1  0  0  0  0  0  0  0  0  0
    0.3424    0.2994    0.1098 C   0  0  2  0  0  0  0  0  0  0  0  0
   -1.0392    0.4750   -0.5314 C   0  0  1  0  0  0  0  0  0  0  0  0
   -1.9770   -0.6671   -0.0114 C   0  0  1  0  0  0  0  0  0  0  0  0
    2.3708   -0.8906    0.4994 C   0  0  2  0  0  0  0  0  0  0  0  0
   -3.4499   -0.5461   -0.5866 C   0  0  2  0  0  0  0  0  0  0  0  0
    2.6571    0.6248    0.4502 C   0  0  2  0  0  0  0  0  0  0  0  0
    1.4481    1.3054   -0.1924 C   0  0  0  0  0  0  0  0  0  0  0  0
    0.1133   -2.1627    0.3370 C   0  0  0  0  0  0  0  0  0  0  0  0
   -3.9966    0.9112   -0.2760 C   0  0  1  0  0  0  0  0  0  0  0  0
   -1.3293   -2.0696   -0.1960 C   0  0  0  0  0  0  0  0  0  0  0  0
    3.6374   -1.5200   -0.0916 C   0  0  1  0  0  0  0  0  0  0  0  0
   -1.6186    1.8661   -0.2301 C   0  0  0  0  0  0  0  0  0  0  0  0
   -3.0399    2.0308   -0.7636 C   0  0  1  0  0  0  0  0  0  0  0  0
    4.6696   -0.3769   -0.0094 C   0  0  1  0  0  0  0  0  0  0  0  0
   -4.4071   -1.6139    0.0645 C   0  0  1  0  0  0  0  0  0  0  0  0
    1.1801   -1.2800   -1.7611 C   0  0  0  0  0  0  0  0  0  0  0  0
   -4.2829    1.0835    1.2507 C   0  0  2  0  0  0  0  0  0  0  0  0
   -3.4488   -0.8446   -2.1147 C   0  0  0  0  0  0  0  0  0  0  0  0
   -4.6888   -1.3837    1.5538 C   0  0  0  0  0  0  0  0  0  0  0  0
   -5.2143    0.0212    1.8418 C   0  0  2  0  0  0  0  0  0  0  0  0
    4.0324   -2.8077    0.6212 C   0  0  0  0  0  0  0  0  0  0  0  0
    5.7645   -0.5070   -1.0865 C   0  0  0  0  0  0  0  0  0  0  0  0
    7.1015    0.1148   -0.6698 C   0  0  0  0  0  0  0  0  0  0  0  0
    6.0785    0.8175    1.5320 C   0  0  0  0  0  0  0  0  0  0  0  0
    6.8833    1.2123    0.3251 C   0  0  0  0  0  0  0  0  0  0  0  0
    7.3170    2.4658    0.1340 C   0  0  0  0  0  0  0  0  0  0  0  0
    0.1836    0.3386    1.2013 H   0  0  0  0  0  0  0  0  0  0  0  0
   -0.9339    0.4021   -1.6175 H   0  0  0  0  0  0  0  0  0  0  0  0
   -2.0396   -0.5333    1.0766 H   0  0  0  0  0  0  0  0  0  0  0  0
    2.2493   -1.1749    1.5538 H   0  0  0  0  0  0  0  0  0  0  0  0
    2.8067    1.0112    1.4666 H   0  0  0  0  0  0  0  0  0  0  0  0
    1.5897    1.4744   -1.2647 H   0  0  0  0  0  0  0  0  0  0  0  0
    1.2582    2.2791    0.2704 H   0  0  0  0  0  0  0  0  0  0  0  0
    0.0819   -2.0925    1.4322 H   0  0  0  0  0  0  0  0  0  0  0  0
    0.5280   -3.1510    0.1043 H   0  0  0  0  0  0  0  0  0  0  0  0
   -1.3410   -2.3599   -1.2509 H   0  0  0  0  0  0  0  0  0  0  0  0
   -1.9150   -2.8251    0.3378 H   0  0  0  0  0  0  0  0  0  0  0  0
    3.4966   -1.7598   -1.1483 H   0  0  0  0  0  0  0  0  0  0  0  0
   -1.5965    2.0563    0.8490 H   0  0  0  0  0  0  0  0  0  0  0  0
   -0.9780    2.6245   -0.6975 H   0  0  0  0  0  0  0  0  0  0  0  0
   -3.4175    3.0162   -0.4676 H   0  0  0  0  0  0  0  0  0  0  0  0
   -3.9819   -2.6154   -0.0460 H   0  0  0  0  0  0  0  0  0  0  0  0
    1.8680   -0.5588   -2.2136 H   0  0  0  0  0  0  0  0  0  0  0  0
    1.5690   -2.2850   -1.9622 H   0  0  0  0  0  0  0  0  0  0  0  0
    0.2413   -1.2064   -2.3154 H   0  0  0  0  0  0  0  0  0  0  0  0
   -3.3459    1.0518    1.8144 H   0  0  0  0  0  0  0  0  0  0  0  0
   -3.2926   -1.9124   -2.3062 H   0  0  0  0  0  0  0  0  0  0  0  0
   -4.3987   -0.5782   -2.5896 H   0  0  0  0  0  0  0  0  0  0  0  0
   -2.6625   -0.3145   -2.6551 H   0  0  0  0  0  0  0  0  0  0  0  0
   -3.7777   -1.5600    2.1359 H   0  0  0  0  0  0  0  0  0  0  0  0
   -5.4396   -2.1119    1.8853 H   0  0  0  0  0  0  0  0  0  0  0  0
   -5.3057    0.1681    2.9235 H   0  0  0  0  0  0  0  0  0  0  0  0
    4.1662   -2.6555    1.6973 H   0  0  0  0  0  0  0  0  0  0  0  0
    3.2570   -3.5694    0.4881 H   0  0  0  0  0  0  0  0  0  0  0  0
    4.9682   -3.2069    0.2179 H   0  0  0  0  0  0  0  0  0  0  0  0
    5.4202   -0.0445   -2.0203 H   0  0  0  0  0  0  0  0  0  0  0  0
    5.9584   -1.5622   -1.3151 H   0  0  0  0  0  0  0  0  0  0  0  0
   -5.4992    2.0353   -0.8765 H   0  0  0  0  0  0  0  0  0  0  0  0
   -3.8849    2.1574   -2.5203 H   0  0  0  0  0  0  0  0  0  0  0  0
   -5.9618   -0.7817   -0.8170 H   0  0  0  0  0  0  0  0  0  0  0  0
    7.6430    0.4582   -1.5589 H   0  0  0  0  0  0  0  0  0  0  0  0
    7.7295   -0.6548   -0.2024 H   0  0  0  0  0  0  0  0  0  0  0  0
   -5.7460    2.3883    1.1372 H   0  0  0  0  0  0  0  0  0  0  0  0
    6.7490    0.5688    2.3610 H   0  0  0  0  0  0  0  0  0  0  0  0
    5.4240    1.6327    1.8608 H   0  0  0  0  0  0  0  0  0  0  0  0
   -6.4835    0.5698    0.4294 H   0  0  0  0  0  0  0  0  0  0  0  0
    7.1225    3.2441    0.8643 H   0  0  0  0  0  0  0  0  0  0  0  0
    7.8760    2.7399   -0.7543 H   0  0  0  0  0  0  0  0  0  0  0  0
  1 14  1  0  0  0  0
  1 22  1  0  0  0  0
  2 17  1  0  0  0  0
  2 66  1  0  0  0  0
  3 22  1  0  0  0  0
  3 32  1  0  0  0  0
  4 21  1  0  0  0  0
  4 67  1  0  0  0  0
  5 23  1  0  0  0  0
  5 68  1  0  0  0  0
  6 25  1  0  0  0  0
  6 71  1  0  0  0  0
  7 28  1  0  0  0  0
  7 74  1  0  0  0  0
  8  9  1  0  0  0  0
  8 12  1  0  0  0  0
  8 16  1  0  0  0  0
  8 24  1  0  0  0  0
  9 10  1  0  0  0  0
  9 15  1  0  0  0  0
  9 35  1  0  0  0  0
 10 11  1  0  0  0  0
 10 20  1  0  0  0  0
 10 36  1  0  0  0  0
 11 13  1  0  0  0  0
 11 18  1  0  0  0  0
 11 37  1  0  0  0  0
 12 14  1  0  0  0  0
 12 19  1  0  0  0  0
 12 38  1  0  0  0  0
 13 17  1  0  0  0  0
 13 23  1  0  0  0  0
 13 26  1  0  0  0  0
 14 15  1  0  0  0  0
 14 39  1  0  0  0  0
 15 40  1  0  0  0  0
 15 41  1  0  0  0  0
 16 18  1  0  0  0  0
 16 42  1  0  0  0  0
 16 43  1  0  0  0  0
 17 21  1  0  0  0  0
 17 25  1  0  0  0  0
 18 44  1  0  0  0  0
 18 45  1  0  0  0  0
 19 22  1  0  0  0  0
 19 29  1  0  0  0  0
 19 46  1  0  0  0  0
 20 21  1  0  0  0  0
 20 47  1  0  0  0  0
 20 48  1  0  0  0  0
 21 49  1  0  0  0  0
 22 30  1  0  0  0  0
 23 27  1  0  0  0  0
 23 50  1  0  0  0  0
 24 51  1  0  0  0  0
 24 52  1  0  0  0  0
 24 53  1  0  0  0  0
 25 28  1  0  0  0  0
 25 54  1  0  0  0  0
 26 55  1  0  0  0  0
 26 56  1  0  0  0  0
 26 57  1  0  0  0  0
 27 28  1  0  0  0  0
 27 58  1  0  0  0  0
 27 59  1  0  0  0  0
 28 60  1  0  0  0  0
 29 61  1  0  0  0  0
 29 62  1  0  0  0  0
 29 63  1  0  0  0  0
 30 31  1  0  0  0  0
 30 64  1  0  0  0  0
 30 65  1  0  0  0  0
 31 33  1  0  0  0  0
 31 69  1  0  0  0  0
 31 70  1  0  0  0  0
 32 33  1  0  0  0  0
 32 72  1  0  0  0  0
 32 73  1  0  0  0  0
 33 34  2  0  0  0  0
 34 75  1  0  0  0  0
 34 76  1  0  0  0  0
M  END
> <PUBCHEM_COMPOUND_CID>
10672322

> <PUBCHEM_CONFORMER_RMSD>
0.8

> <PUBCHEM_CONFORMER_DIVERSEORDER>
1
2

> <PUBCHEM_MMFF94_PARTIAL_CHARGES>
25
1 -0.56
14 0.28
17 0.28
2 -0.68
21 0.28
22 0.56
23 0.28
25 0.28
28 0.28
3 -0.56
31 0.14
32 0.42
33 -0.28
34 -0.3
4 -0.68
5 -0.68
6 -0.68
66 0.4
67 0.4
68 0.4
7 -0.68
71 0.4
74 0.4
75 0.15
76 0.15

> <PUBCHEM_EFFECTIVE_ROTOR_COUNT>
3

> <PUBCHEM_PHARMACOPHORE_FEATURES>
18
1 1 acceptor
1 2 acceptor
1 2 donor
1 3 acceptor
1 4 acceptor
1 4 donor
1 5 acceptor
1 5 donor
1 6 acceptor
1 6 donor
1 7 acceptor
1 7 donor
5 1 12 14 19 22 rings
5 8 9 12 14 15 rings
6 10 11 13 17 20 21 rings
6 13 17 23 25 27 28 rings
6 3 22 30 31 32 33 rings
6 8 9 10 11 16 18 rings

> <PUBCHEM_HEAVY_ATOM_COUNT>
34

> <PUBCHEM_ATOM_DEF_STEREO_COUNT>
14

> <PUBCHEM_ATOM_UDEF_STEREO_COUNT>
0

> <PUBCHEM_BOND_DEF_STEREO_COUNT>
0

> <PUBCHEM_BOND_UDEF_STEREO_COUNT>
0

> <PUBCHEM_ISOTOPIC_ATOM_COUNT>
0

> <PUBCHEM_COMPONENT_COUNT>
1

> <PUBCHEM_CACTVS_TAUTO_COUNT>
1

> <PUBCHEM_CONFORMER_ID>
00A2D8C200000001

> <PUBCHEM_MMFF94_ENERGY>
150.2095

> <PUBCHEM_FEATURE_SELFOVERLAP>
91.846

> <PUBCHEM_SHAPE_FINGERPRINT>
10 15 18186519925834843552
10290309 65 18263081028799972019
10369192 42 17988928898461576484
10675989 125 16747595350328381285
10906281 52 18336837489305001574
11007060 377 18335700580516063595
11315181 36 18272369798168959449
11497681 19 17843675806267202167
12107698 1 17240488030478339597
12236239 1 17917996083444376602
12403259 415 18413103948870455336
12422481 6 18269281170700030135
12788726 201 17417535696735233624
13224815 77 18411700959438544823
13782708 43 17168700813875880898
14068700 675 14635162269453257523
14341114 176 18335707096050029498
14849402 71 18199471146171125232
14856354 85 16917067810617869925
14933364 13 18131636690537712280
15081414 286 18412266108552391148
15183329 4 18408600358165263894
15461852 350 16702299062578439349
15788980 27 18113617850509943151
16110190 28 18411986891979690748
17349148 13 16226059863680927771
17980427 23 18410575119366079836
18608769 82 18335704991637575490
18927931 339 18114185241949983615
19377110 9 17458063764012250522
21033648 29 17749662991777353725
21130935 74 18272653446025212162
21236236 1 18413387648513507903
22149856 69 18189354401985879401
23198884 109 16343983602741388609
23522609 53 18196963082601249536
23559900 14 18269825557915879760
23569914 2 16196446657086653456
23569943 247 17844536492091859478
24771293 8 18057311985645381488
2747138 104 18041857188914491010
32027 91 17462551820127616906
34797466 226 18202288048201363996
350125 39 18409729586060045532
392239 28 18113343020016288913
4015057 19 8790588300291102151
4073 2 18187366527791148842
4093350 32 17203616960982624574
4169191 19 18338796836021497020
4340502 62 17603304852343472682
44317340 157 18060702780519902884
5104073 3 18262234405056932154
550186 72 18260546710395963788
59755656 520 14979958102936737327
6328613 192 18272653471957981296
7226269 152 17846786195385627281

> <PUBCHEM_SHAPE_MULTIPOLES>
658.62
18.14
2.47
1.53
16.47
0.01
0.14
-5.31
-3.9
0.03
-0.01
-1.56
-0.13
0.21

> <PUBCHEM_SHAPE_SELFOVERLAP>
1426.457

> <PUBCHEM_SHAPE_VOLUME>
355.5

> <PUBCHEM_COORDINATE_TYPE>
2
5
10

$$$$
