10693462
  -OEChem-03292013303D

 36 36  0     1  0  0  0  0  0999 V2000
   -0.2656   -1.7584    1.7828 Br  0  0  0  0  0  0  0  0  0  0  0  0
    1.3962    3.2294   -0.5303 Br  0  0  0  0  0  0  0  0  0  0  0  0
   -0.4621    1.1949    0.8783 O   0  0  0  0  0  0  0  0  0  0  0  0
    4.7344   -1.0770   -1.7791 O   0  0  0  0  0  0  0  0  0  0  0  0
   -5.8700    0.0777    0.8357 O   0  0  0  0  0  0  0  0  0  0  0  0
   -4.2864    0.3181   -0.8558 N   0  0  0  0  0  0  0  0  0  0  0  0
    7.0246   -0.8617   -0.0450 N   0  0  0  0  0  0  0  0  0  0  0  0
   -5.6997   -2.8050   -0.8991 N   0  0  0  0  0  0  0  0  0  0  0  0
    4.5681   -1.0543   -0.3552 C   0  0  2  0  0  0  0  0  0  0  0  0
    3.2394   -0.4600   -0.0303 C   0  0  0  0  0  0  0  0  0  0  0  0
   -2.7394    1.7636    0.4013 C   0  0  0  0  0  0  0  0  0  0  0  0
   -1.4786    1.0756   -0.1082 C   0  0  0  0  0  0  0  0  0  0  0  0
    5.7303   -0.2694    0.2851 C   0  0  0  0  0  0  0  0  0  0  0  0
    0.7583    0.6486    0.5772 C   0  0  0  0  0  0  0  0  0  0  0  0
    2.2681   -1.2314    0.6077 C   0  0  0  0  0  0  0  0  0  0  0  0
    2.9677    0.8670   -0.3638 C   0  0  0  0  0  0  0  0  0  0  0  0
   -3.8988    1.6750   -0.5822 C   0  0  0  0  0  0  0  0  0  0  0  0
    1.0252   -0.6762    0.9120 C   0  0  0  0  0  0  0  0  0  0  0  0
    1.7248    1.4223   -0.0595 C   0  0  0  0  0  0  0  0  0  0  0  0
   -5.2415   -0.3619   -0.1191 C   0  0  0  0  0  0  0  0  0  0  0  0
   -5.4947   -1.7167   -0.5524 C   0  0  0  0  0  0  0  0  0  0  0  0
    4.6065   -2.0973   -0.0157 H   0  0  0  0  0  0  0  0  0  0  0  0
   -3.0253    1.3199    1.3636 H   0  0  0  0  0  0  0  0  0  0  0  0
   -2.5162    2.8167    0.6117 H   0  0  0  0  0  0  0  0  0  0  0  0
   -1.6755    0.0169   -0.3087 H   0  0  0  0  0  0  0  0  0  0  0  0
   -1.1556    1.5423   -1.0458 H   0  0  0  0  0  0  0  0  0  0  0  0
    5.6155   -0.2423    1.3746 H   0  0  0  0  0  0  0  0  0  0  0  0
    5.7544    0.7671   -0.0676 H   0  0  0  0  0  0  0  0  0  0  0  0
    2.4820   -2.2657    0.8674 H   0  0  0  0  0  0  0  0  0  0  0  0
    3.7174    1.4676   -0.8732 H   0  0  0  0  0  0  0  0  0  0  0  0
   -4.7617    2.2185   -0.1817 H   0  0  0  0  0  0  0  0  0  0  0  0
   -3.6257    2.1359   -1.5374 H   0  0  0  0  0  0  0  0  0  0  0  0
   -3.8296   -0.1569   -1.6294 H   0  0  0  0  0  0  0  0  0  0  0  0
    5.5247   -1.6093   -1.9717 H   0  0  0  0  0  0  0  0  0  0  0  0
    7.0204   -1.8513    0.1987 H   0  0  0  0  0  0  0  0  0  0  0  0
    7.1780   -0.8181   -1.0512 H   0  0  0  0  0  0  0  0  0  0  0  0
  1 18  1  0  0  0  0
  2 19  1  0  0  0  0
  3 12  1  0  0  0  0
  3 14  1  0  0  0  0
  4  9  1  0  0  0  0
  4 34  1  0  0  0  0
  5 20  2  0  0  0  0
  6 17  1  0  0  0  0
  6 20  1  0  0  0  0
  6 33  1  0  0  0  0
  7 13  1  0  0  0  0
  7 35  1  0  0  0  0
  7 36  1  0  0  0  0
  8 21  3  0  0  0  0
  9 10  1  0  0  0  0
  9 13  1  0  0  0  0
  9 22  1  0  0  0  0
 10 15  2  0  0  0  0
 10 16  1  0  0  0  0
 11 12  1  0  0  0  0
 11 17  1  0  0  0  0
 11 23  1  0  0  0  0
 11 24  1  0  0  0  0
 12 25  1  0  0  0  0
 12 26  1  0  0  0  0
 13 27  1  0  0  0  0
 13 28  1  0  0  0  0
 14 18  2  0  0  0  0
 14 19  1  0  0  0  0
 15 18  1  0  0  0  0
 15 29  1  0  0  0  0
 16 19  2  0  0  0  0
 16 30  1  0  0  0  0
 17 31  1  0  0  0  0
 17 32  1  0  0  0  0
 20 21  1  0  0  0  0
M  END
> <PUBCHEM_COMPOUND_CID>
10693462

> <PUBCHEM_CONFORMER_RMSD>
0.8

> <PUBCHEM_CONFORMER_DIVERSEORDER>
1
124
215
188
237
30
148
100
117
165
52
110
146
156
198
85
138
25
204
214
24
91
183
23
218
115
208
36
76
153
35
212
184
205
169
43
75
4
185
225
88
172
230
213
102
175
87
224
40
235
140
109
104
63
108
163
33
139
186
19
221
47
136
202
77
133
164
151
129
29
53
200
18
195
81
180
82
128
220
6
99
177
236
119
187
64
155
46
93
50
141
130
45
107
8
211
190
67
127
28
203
143
98
170
132
126
227
222
194
101
134
61
86
193
226
55
174
171
135
66
159
154
57
95
192
166
149
5
176
60
7
157
105
158
131
78
26
44
70
206
123
80
196
145
27
173
228
197
160
103
58
147
142
11
92
181
71
162
96
189
21
201
22
83
161
144
59
191
90
125
13
16
74
229
216
37
51
38
73
89
116
219
79
34
182
150
207
167
20
39
178
15
62
97
168
152
10
106
114
234
94
3
120
233
118
232
137
122
121
12
231
209
2
223
14
49
199
72
65
48
54
17
41
217
111
238
56
42
32
210
84
31
179
112
113
9
68
69

> <PUBCHEM_MMFF94_PARTIAL_CHARGES>
26
1 -0.11
10 -0.14
12 0.28
13 0.27
14 0.08
15 -0.15
16 -0.15
17 0.3
18 0.11
19 0.11
2 -0.11
20 0.74
21 0.45
29 0.15
3 -0.36
30 0.15
33 0.37
34 0.4
35 0.36
36 0.36
4 -0.68
5 -0.57
6 -0.73
7 -0.99
8 -0.56
9 0.42

> <PUBCHEM_EFFECTIVE_ROTOR_COUNT>
8

> <PUBCHEM_PHARMACOPHORE_FEATURES>
11
1 1 hydrophobe
1 2 hydrophobe
1 3 acceptor
1 4 acceptor
1 4 donor
1 5 acceptor
1 6 donor
1 7 cation
1 7 donor
1 8 acceptor
6 10 14 15 16 18 19 rings

> <PUBCHEM_HEAVY_ATOM_COUNT>
21

> <PUBCHEM_ATOM_DEF_STEREO_COUNT>
0

> <PUBCHEM_ATOM_UDEF_STEREO_COUNT>
1

> <PUBCHEM_BOND_DEF_STEREO_COUNT>
0

> <PUBCHEM_BOND_UDEF_STEREO_COUNT>
0

> <PUBCHEM_ISOTOPIC_ATOM_COUNT>
0

> <PUBCHEM_COMPONENT_COUNT>
1

> <PUBCHEM_CACTVS_TAUTO_COUNT>
2

> <PUBCHEM_CONFORMER_ID>
00A32B5600000001

> <PUBCHEM_MMFF94_ENERGY>
40.0552

> <PUBCHEM_FEATURE_SELFOVERLAP>
55.823

> <PUBCHEM_SHAPE_FINGERPRINT>
11089746 13 11458430149651046267
11315621 136 18263924504932176119
11961588 58 16877952684591717420
13862211 1 18260547776063862576
14251751 18 18272933838490075983
14251764 18 12463279328629753257
14350574 20 18333453140489926265
14576447 43 18335134276240513714
14931854 50 18041825316959972623
15188451 53 15194985212185223821
15475509 84 8501283692868142342
15537594 2 18334011667091289187
17780758 139 17418376887871424203
19784866 170 10879992449718803976
20028762 73 18342173392573933510
20621476 21 17775014457127852582
20739085 24 12463272731228067770
21054139 6 18260825994949376258
21267235 1 18410297999174775257
21298829 104 9655312432113898139
21315763 191 18131078147342042945
21623969 137 16845577504244811926
21709351 56 17967810535867399725
221490 88 18262242226208234457
22393880 68 18187915171651657565
23379529 103 18201162139082536431
23402539 116 18335983056695108868
23559900 14 18411407432815698345
23569914 2 13770460287099653054
2838139 119 15357982230885501742
2871803 45 18187917422446252321
3004659 81 18334848446910756765
33382 64 17060061385312158318
4340502 62 16558744595299146726
7495541 125 17632573898354573425

> <PUBCHEM_SHAPE_MULTIPOLES>
411.5
14.84
2.75
1.17
4.97
1.11
-0.02
-8.19
4.73
1.52
0.22
0.04
-0.55
-0.64

> <PUBCHEM_SHAPE_SELFOVERLAP>
809.151

> <PUBCHEM_SHAPE_VOLUME>
250.8

> <PUBCHEM_COORDINATE_TYPE>
2
5
10

$$$$
