10693132
  -OEChem-03292013303D

 67 68  0     1  0  0  0  0  0999 V2000
    0.7547   -1.5778   -0.4002 O   0  0  0  0  0  0  0  0  0  0  0  0
   -1.9750   -0.1848   -0.1553 O   0  0  0  0  0  0  0  0  0  0  0  0
    2.9826    0.5078    0.1745 O   0  0  0  0  0  0  0  0  0  0  0  0
   -1.7738   -0.5711    2.1091 O   0  0  0  0  0  0  0  0  0  0  0  0
    2.1343    2.6273    1.6988 O   0  0  0  0  0  0  0  0  0  0  0  0
   -5.6907    1.1106   -1.6210 O   0  0  0  0  0  0  0  0  0  0  0  0
    2.5545    0.5520   -2.0868 O   0  0  0  0  0  0  0  0  0  0  0  0
   -0.3989   -2.4074   -0.6755 C   0  0  1  0  0  0  0  0  0  0  0  0
    1.9413   -2.3787   -0.4894 C   0  0  2  0  0  0  0  0  0  0  0  0
    0.1495   -3.7975   -0.9880 C   0  0  0  0  0  0  0  0  0  0  0  0
    1.4720   -3.8045   -0.2632 C   0  0  0  0  0  0  0  0  0  0  0  0
   -1.3407   -2.3645    0.5467 C   0  0  1  0  0  0  0  0  0  0  0  0
    2.9872   -1.9294    0.5312 C   0  0  0  0  0  0  0  0  0  0  0  0
    3.7810   -0.6911    0.0849 C   0  0  2  0  0  0  0  0  0  0  0  0
   -2.2839    1.2131    0.0286 C   0  0  1  0  0  0  0  0  0  0  0  0
   -1.7082   -0.9427    0.9434 C   0  0  0  0  0  0  0  0  0  0  0  0
   -2.6358   -3.1449    0.3335 C   0  0  0  0  0  0  0  0  0  0  0  0
   -1.0313    2.0470   -0.2769 C   0  0  0  0  0  0  0  0  0  0  0  0
    4.9756   -0.4678    1.0098 C   0  0  0  0  0  0  0  0  0  0  0  0
    0.0636    1.8679    0.7795 C   0  0  0  0  0  0  0  0  0  0  0  0
    1.2858    2.7684    0.5588 C   0  0  2  0  0  0  0  0  0  0  0  0
    2.0567    2.5041   -0.7530 C   0  0  2  0  0  0  0  0  0  0  0  0
   -3.4050    1.5461   -0.9494 C   0  0  0  0  0  0  0  0  0  0  0  0
    2.5223    1.0694   -0.9759 C   0  0  0  0  0  0  0  0  0  0  0  0
   -4.6941    0.7694   -0.6608 C   0  0  1  0  0  0  0  0  0  0  0  0
    5.7590    0.7679    0.6119 C   0  0  0  0  0  0  0  0  0  0  0  0
    3.2776    3.4154   -0.8984 C   0  0  0  0  0  0  0  0  0  0  0  0
   -5.2278    1.1091    0.7354 C   0  0  0  0  0  0  0  0  0  0  0  0
   -6.5322    0.3868    1.0478 C   0  0  0  0  0  0  0  0  0  0  0  0
   -0.9026   -1.9981   -1.5590 H   0  0  0  0  0  0  0  0  0  0  0  0
    2.3330   -2.2813   -1.5097 H   0  0  0  0  0  0  0  0  0  0  0  0
    0.3294   -3.8815   -2.0673 H   0  0  0  0  0  0  0  0  0  0  0  0
   -0.4998   -4.6270   -0.7016 H   0  0  0  0  0  0  0  0  0  0  0  0
    1.3119   -4.0039    0.8030 H   0  0  0  0  0  0  0  0  0  0  0  0
    2.1726   -4.5485   -0.6524 H   0  0  0  0  0  0  0  0  0  0  0  0
   -0.8057   -2.7803    1.4110 H   0  0  0  0  0  0  0  0  0  0  0  0
    2.4898   -1.7132    1.4852 H   0  0  0  0  0  0  0  0  0  0  0  0
    3.6932   -2.7537    0.6907 H   0  0  0  0  0  0  0  0  0  0  0  0
    4.1554   -0.8367   -0.9364 H   0  0  0  0  0  0  0  0  0  0  0  0
   -2.5909    1.4250    1.0568 H   0  0  0  0  0  0  0  0  0  0  0  0
   -2.4511   -4.2189    0.2455 H   0  0  0  0  0  0  0  0  0  0  0  0
   -3.3233   -2.9986    1.1743 H   0  0  0  0  0  0  0  0  0  0  0  0
   -3.1536   -2.8114   -0.5726 H   0  0  0  0  0  0  0  0  0  0  0  0
   -1.3011    3.1084   -0.3318 H   0  0  0  0  0  0  0  0  0  0  0  0
   -0.6389    1.7503   -1.2565 H   0  0  0  0  0  0  0  0  0  0  0  0
    5.6379   -1.3407    0.9772 H   0  0  0  0  0  0  0  0  0  0  0  0
    4.6402   -0.3468    2.0471 H   0  0  0  0  0  0  0  0  0  0  0  0
   -0.3533    2.0892    1.7710 H   0  0  0  0  0  0  0  0  0  0  0  0
    0.3859    0.8236    0.8316 H   0  0  0  0  0  0  0  0  0  0  0  0
    0.9417    3.8106    0.5574 H   0  0  0  0  0  0  0  0  0  0  0  0
    1.3772    2.7307   -1.5846 H   0  0  0  0  0  0  0  0  0  0  0  0
   -3.0893    1.3129   -1.9752 H   0  0  0  0  0  0  0  0  0  0  0  0
   -3.6175    2.6228   -0.9385 H   0  0  0  0  0  0  0  0  0  0  0  0
   -4.5216   -0.3100   -0.7392 H   0  0  0  0  0  0  0  0  0  0  0  0
    5.9991    0.7684   -0.4558 H   0  0  0  0  0  0  0  0  0  0  0  0
    5.2091    1.6802    0.8518 H   0  0  0  0  0  0  0  0  0  0  0  0
    6.7013    0.8066    1.1687 H   0  0  0  0  0  0  0  0  0  0  0  0
    2.9779    4.4680   -0.8601 H   0  0  0  0  0  0  0  0  0  0  0  0
    4.0181    3.2481   -0.1136 H   0  0  0  0  0  0  0  0  0  0  0  0
    3.7780    3.2452   -1.8584 H   0  0  0  0  0  0  0  0  0  0  0  0
   -5.4079    2.1879    0.8160 H   0  0  0  0  0  0  0  0  0  0  0  0
   -4.5128    0.8295    1.5136 H   0  0  0  0  0  0  0  0  0  0  0  0
    2.7671    3.3648    1.6923 H   0  0  0  0  0  0  0  0  0  0  0  0
   -6.8583    0.6219    2.0661 H   0  0  0  0  0  0  0  0  0  0  0  0
   -7.3317    0.6882    0.3639 H   0  0  0  0  0  0  0  0  0  0  0  0
   -6.4055   -0.6981    0.9746 H   0  0  0  0  0  0  0  0  0  0  0  0
   -5.3403    0.8839   -2.4993 H   0  0  0  0  0  0  0  0  0  0  0  0
  1  8  1  0  0  0  0
  1  9  1  0  0  0  0
  2 15  1  0  0  0  0
  2 16  1  0  0  0  0
  3 14  1  0  0  0  0
  3 24  1  0  0  0  0
  4 16  2  0  0  0  0
  5 21  1  0  0  0  0
  5 63  1  0  0  0  0
  6 25  1  0  0  0  0
  6 67  1  0  0  0  0
  7 24  2  0  0  0  0
  8 10  1  0  0  0  0
  8 12  1  0  0  0  0
  8 30  1  0  0  0  0
  9 11  1  0  0  0  0
  9 13  1  0  0  0  0
  9 31  1  0  0  0  0
 10 11  1  0  0  0  0
 10 32  1  0  0  0  0
 10 33  1  0  0  0  0
 11 34  1  0  0  0  0
 11 35  1  0  0  0  0
 12 16  1  0  0  0  0
 12 17  1  0  0  0  0
 12 36  1  0  0  0  0
 13 14  1  0  0  0  0
 13 37  1  0  0  0  0
 13 38  1  0  0  0  0
 14 19  1  0  0  0  0
 14 39  1  0  0  0  0
 15 18  1  0  0  0  0
 15 23  1  0  0  0  0
 15 40  1  0  0  0  0
 17 41  1  0  0  0  0
 17 42  1  0  0  0  0
 17 43  1  0  0  0  0
 18 20  1  0  0  0  0
 18 44  1  0  0  0  0
 18 45  1  0  0  0  0
 19 26  1  0  0  0  0
 19 46  1  0  0  0  0
 19 47  1  0  0  0  0
 20 21  1  0  0  0  0
 20 48  1  0  0  0  0
 20 49  1  0  0  0  0
 21 22  1  0  0  0  0
 21 50  1  0  0  0  0
 22 24  1  0  0  0  0
 22 27  1  0  0  0  0
 22 51  1  0  0  0  0
 23 25  1  0  0  0  0
 23 52  1  0  0  0  0
 23 53  1  0  0  0  0
 25 28  1  0  0  0  0
 25 54  1  0  0  0  0
 26 55  1  0  0  0  0
 26 56  1  0  0  0  0
 26 57  1  0  0  0  0
 27 58  1  0  0  0  0
 27 59  1  0  0  0  0
 27 60  1  0  0  0  0
 28 29  1  0  0  0  0
 28 61  1  0  0  0  0
 28 62  1  0  0  0  0
 29 64  1  0  0  0  0
 29 65  1  0  0  0  0
 29 66  1  0  0  0  0
M  END
> <PUBCHEM_COMPOUND_CID>
10693132

> <PUBCHEM_CONFORMER_RMSD>
0.8

> <PUBCHEM_CONFORMER_DIVERSEORDER>
1
46
83
64
48
122
159
188
45
121
168
34
141
131
44
127
104
26
183
99
143
180
2
119
154
166
62
170
117
144
178
49
76
128
91
96
179
146
186
20
74
165
151
156
81
54
25
53
136
137
184
138
173
167
164
135
32
71
106
70
24
95
61
171
30
185
40
163
140
9
50
132
75
149
89
103
15
175
105
27
68
161
29
150
112
92
182
177
87
63
153
33
190
107
73
139
10
134
98
72
19
130
43
124
169
36
79
78
160
111
123
133
59
118
56
110
31
155
148
17
88
37
93
85
109
176
84
60
57
129
51
69
125
142
145
189
16
82
126
187
158
18
181
162
80
11
23
86
41
116
65
100
21
120
77
147
157
3
102
66
90
101
7
14
172
13
97
42
94
47
67
114
152
58
38
115
52
6
12
55
108
28
4
174
22
39
5
35
8
113

> <PUBCHEM_MMFF94_PARTIAL_CHARGES>
19
1 -0.56
12 0.06
14 0.28
15 0.28
16 0.66
2 -0.43
21 0.28
22 0.06
24 0.66
25 0.28
3 -0.43
4 -0.57
5 -0.68
6 -0.68
63 0.4
67 0.4
7 -0.57
8 0.28
9 0.28

> <PUBCHEM_EFFECTIVE_ROTOR_COUNT>
6.6

> <PUBCHEM_PHARMACOPHORE_FEATURES>
10
1 1 acceptor
1 26 hydrophobe
1 29 hydrophobe
1 4 acceptor
1 5 acceptor
1 5 donor
1 6 acceptor
1 6 donor
1 7 acceptor
5 1 8 9 10 11 rings

> <PUBCHEM_HEAVY_ATOM_COUNT>
29

> <PUBCHEM_ATOM_DEF_STEREO_COUNT>
8

> <PUBCHEM_ATOM_UDEF_STEREO_COUNT>
0

> <PUBCHEM_BOND_DEF_STEREO_COUNT>
0

> <PUBCHEM_BOND_UDEF_STEREO_COUNT>
0

> <PUBCHEM_ISOTOPIC_ATOM_COUNT>
0

> <PUBCHEM_COMPONENT_COUNT>
1

> <PUBCHEM_CACTVS_TAUTO_COUNT>
1

> <PUBCHEM_CONFORMER_ID>
00A32A0C00000001

> <PUBCHEM_MMFF94_ENERGY>
55.6457

> <PUBCHEM_FEATURE_SELFOVERLAP>
50.748

> <PUBCHEM_SHAPE_FINGERPRINT>
1100329 8 18340481261943522548
11578080 2 17843393240089249736
11646440 116 18343586205075383712
12035758 1 18408046204220307073
12156800 1 16750918310789940518
12422481 6 18118987986397979779
12788726 201 17917727780922055457
12838862 33 18267563793962573568
13140716 1 18340768259657481784
13402501 40 18336262353627235977
1361 2 18341045216740189975
13692114 37 18270390716099838427
14117953 113 18339082592721243390
14863182 85 18339084774796809790
15403338 16 17097474419978056122
16728300 4 17390203959182847034
18785283 64 18334585650404295405
19930381 70 18122624946938767511
20715895 44 18336257947365317349
20764821 26 18338795740308490301
20905425 154 17622449763411923300
21197605 99 18264498441644315659
22113638 7 18410847746751961876
23227448 37 18410572886173242655
23419403 2 17754777929229738473
23559900 14 18337104661392354736
238 59 18411140212476194917
3298306 158 18408884010505712589
338550 245 18264486359135920684
340366 18 18187363272248435228
350125 39 18266179611432796794
3680242 22 18336270020370823491
463206 1 18271799116862832143
469060 322 16533991637541447906
484989 97 18335989752665440815
513532 50 17916876703255815470
59554788 191 18336824285979610050
70251023 43 17484820215770303927

> <PUBCHEM_SHAPE_MULTIPOLES>
555.72
10.77
4.68
1.39
9.24
2.56
0.02
-4.89
1.4
-2.23
-0.78
0.21
-0.34
0.31

> <PUBCHEM_SHAPE_SELFOVERLAP>
1111.334

> <PUBCHEM_SHAPE_VOLUME>
326.9

> <PUBCHEM_COORDINATE_TYPE>
2
5
10

$$$$
