10696525
  -OEChem-03292013303D

 66 68  0     1  0  0  0  0  0999 V2000
    2.4308    5.5618    0.6458 O   0  0  0  0  0  0  0  0  0  0  0  0
    2.0992    4.6773   -2.0731 O   0  0  0  0  0  0  0  0  0  0  0  0
    3.5426    3.2346    2.7451 O   0  0  0  0  0  0  0  0  0  0  0  0
    3.6214    0.2077   -1.0404 O   0  0  0  0  0  0  0  0  0  0  0  0
   -7.2603   -2.9770   -1.5063 O   0  0  0  0  0  0  0  0  0  0  0  0
   -9.1858   -0.8866    2.2334 O   0  0  0  0  0  0  0  0  0  0  0  0
   -6.0047   -0.8232   -1.5618 O   0  0  0  0  0  0  0  0  0  0  0  0
    4.3575    1.7075    0.5832 N   0  0  0  0  0  0  0  0  0  0  0  0
   -6.7308   -0.9760    0.6464 N   0  0  0  0  0  0  0  0  0  0  0  0
    1.3422    4.7485    0.1806 C   0  0  2  0  0  0  0  0  0  0  0  0
    2.0020    4.4912    1.5029 C   0  0  1  0  0  0  0  0  0  0  0  0
    1.6535    3.8514   -0.9886 C   0  0  2  0  0  0  0  0  0  0  0  0
    3.0179    3.4316    1.6559 C   0  0  0  0  0  0  0  0  0  0  0  0
    2.7633    2.8523   -0.7319 C   0  0  0  0  0  0  0  0  0  0  0  0
    3.3747    2.6443    0.4444 C   0  0  0  0  0  0  0  0  0  0  0  0
    0.4279    3.1120   -1.4597 C   0  0  0  0  0  0  0  0  0  0  0  0
   -0.5174    2.6399   -0.6333 C   0  0  0  0  0  0  0  0  0  0  0  0
    4.4184    0.5454   -0.1704 C   0  0  0  0  0  0  0  0  0  0  0  0
   -1.6917    1.9003   -1.0414 C   0  0  0  0  0  0  0  0  0  0  0  0
    5.5990   -0.2873    0.1967 C   0  0  0  0  0  0  0  0  0  0  0  0
   -2.6356    1.4295   -0.2115 C   0  0  0  0  0  0  0  0  0  0  0  0
    5.8233   -1.4516   -0.4281 C   0  0  0  0  0  0  0  0  0  0  0  0
   -3.7774    0.6671   -0.6692 C   0  0  0  0  0  0  0  0  0  0  0  0
    7.9267   -5.7666    0.0474 C   0  0  0  0  0  0  0  0  0  0  0  0
   -9.4899   -3.2129   -0.4554 C   0  0  0  0  0  0  0  0  0  0  0  0
  -10.1430   -2.5503    0.7580 C   0  0  0  0  0  0  0  0  0  0  0  0
    8.3525   -4.3602   -0.4147 C   0  0  0  0  0  0  0  0  0  0  0  0
   -7.8647   -1.7039    0.4299 C   0  0  0  0  0  0  0  0  0  0  0  0
    6.9514   -2.3006   -0.1153 C   0  0  0  0  0  0  0  0  0  0  0  0
   -8.1289   -2.6003   -0.5184 C   0  0  0  0  0  0  0  0  0  0  0  0
   -9.0728   -1.6192    1.2624 C   0  0  0  0  0  0  0  0  0  0  0  0
    7.1857   -3.4676   -0.7340 C   0  0  0  0  0  0  0  0  0  0  0  0
   -4.7168    0.1997    0.1649 C   0  0  0  0  0  0  0  0  0  0  0  0
    9.1302   -6.6753    0.3116 C   0  0  0  0  0  0  0  0  0  0  0  0
    7.0700   -5.6628    1.3113 C   0  0  0  0  0  0  0  0  0  0  0  0
   -5.8704   -0.5807   -0.3664 C   0  0  0  0  0  0  0  0  0  0  0  0
    0.3798    5.2415    0.1379 H   0  0  0  0  0  0  0  0  0  0  0  0
    1.4433    4.7570    2.3929 H   0  0  0  0  0  0  0  0  0  0  0  0
    3.0839    2.3239   -1.6264 H   0  0  0  0  0  0  0  0  0  0  0  0
    0.3321    2.9282   -2.5286 H   0  0  0  0  0  0  0  0  0  0  0  0
    2.2836    4.1143   -2.8448 H   0  0  0  0  0  0  0  0  0  0  0  0
    4.9467    1.7853    1.4089 H   0  0  0  0  0  0  0  0  0  0  0  0
   -0.4171    2.7921    0.4392 H   0  0  0  0  0  0  0  0  0  0  0  0
   -1.7854    1.7165   -2.1106 H   0  0  0  0  0  0  0  0  0  0  0  0
    6.2648    0.0742    0.9742 H   0  0  0  0  0  0  0  0  0  0  0  0
   -2.5514    1.6062    0.8584 H   0  0  0  0  0  0  0  0  0  0  0  0
    5.1489   -1.8007   -1.2059 H   0  0  0  0  0  0  0  0  0  0  0  0
   -3.8475    0.4843   -1.7384 H   0  0  0  0  0  0  0  0  0  0  0  0
    7.3207   -6.2327   -0.7405 H   0  0  0  0  0  0  0  0  0  0  0  0
   -9.4305   -4.2982   -0.3232 H   0  0  0  0  0  0  0  0  0  0  0  0
  -10.0599   -3.0067   -1.3672 H   0  0  0  0  0  0  0  0  0  0  0  0
  -11.0315   -1.9804    0.4720 H   0  0  0  0  0  0  0  0  0  0  0  0
  -10.3937   -3.2854    1.5280 H   0  0  0  0  0  0  0  0  0  0  0  0
    8.9646   -4.4513   -1.3207 H   0  0  0  0  0  0  0  0  0  0  0  0
    8.9951   -3.9002    0.3470 H   0  0  0  0  0  0  0  0  0  0  0  0
    7.6284   -1.9634    0.6657 H   0  0  0  0  0  0  0  0  0  0  0  0
    6.5155   -3.8097   -1.5196 H   0  0  0  0  0  0  0  0  0  0  0  0
   -4.6595    0.3738    1.2350 H   0  0  0  0  0  0  0  0  0  0  0  0
    8.8050   -7.6771    0.6110 H   0  0  0  0  0  0  0  0  0  0  0  0
    9.7417   -6.7766   -0.5911 H   0  0  0  0  0  0  0  0  0  0  0  0
    9.7651   -6.2710    1.1072 H   0  0  0  0  0  0  0  0  0  0  0  0
    6.8067   -6.6603    1.6804 H   0  0  0  0  0  0  0  0  0  0  0  0
    6.1299   -5.1346    1.1237 H   0  0  0  0  0  0  0  0  0  0  0  0
    7.6030   -5.1402    2.1131 H   0  0  0  0  0  0  0  0  0  0  0  0
   -6.6393   -0.5465    1.5639 H   0  0  0  0  0  0  0  0  0  0  0  0
   -7.7129   -3.6408   -2.0550 H   0  0  0  0  0  0  0  0  0  0  0  0
  1 10  1  0  0  0  0
  1 11  1  0  0  0  0
  2 12  1  0  0  0  0
  2 41  1  0  0  0  0
  3 13  2  0  0  0  0
  4 18  2  0  0  0  0
  5 30  1  0  0  0  0
  5 66  1  0  0  0  0
  6 31  2  0  0  0  0
  7 36  2  0  0  0  0
  8 15  1  0  0  0  0
  8 18  1  0  0  0  0
  8 42  1  0  0  0  0
  9 28  1  0  0  0  0
  9 36  1  0  0  0  0
  9 65  1  0  0  0  0
 10 11  1  0  0  0  0
 10 12  1  0  0  0  0
 10 37  1  0  0  0  0
 11 13  1  0  0  0  0
 11 38  1  0  0  0  0
 12 14  1  0  0  0  0
 12 16  1  0  0  0  0
 13 15  1  0  0  0  0
 14 15  2  0  0  0  0
 14 39  1  0  0  0  0
 16 17  2  0  0  0  0
 16 40  1  0  0  0  0
 17 19  1  0  0  0  0
 17 43  1  0  0  0  0
 18 20  1  0  0  0  0
 19 21  2  0  0  0  0
 19 44  1  0  0  0  0
 20 22  2  0  0  0  0
 20 45  1  0  0  0  0
 21 23  1  0  0  0  0
 21 46  1  0  0  0  0
 22 29  1  0  0  0  0
 22 47  1  0  0  0  0
 23 33  2  0  0  0  0
 23 48  1  0  0  0  0
 24 27  1  0  0  0  0
 24 34  1  0  0  0  0
 24 35  1  0  0  0  0
 24 49  1  0  0  0  0
 25 26  1  0  0  0  0
 25 30  1  0  0  0  0
 25 50  1  0  0  0  0
 25 51  1  0  0  0  0
 26 31  1  0  0  0  0
 26 52  1  0  0  0  0
 26 53  1  0  0  0  0
 27 32  1  0  0  0  0
 27 54  1  0  0  0  0
 27 55  1  0  0  0  0
 28 30  2  0  0  0  0
 28 31  1  0  0  0  0
 29 32  2  0  0  0  0
 29 56  1  0  0  0  0
 32 57  1  0  0  0  0
 33 36  1  0  0  0  0
 33 58  1  0  0  0  0
 34 59  1  0  0  0  0
 34 60  1  0  0  0  0
 34 61  1  0  0  0  0
 35 62  1  0  0  0  0
 35 63  1  0  0  0  0
 35 64  1  0  0  0  0
M  END
> <PUBCHEM_COMPOUND_CID>
10696525

> <PUBCHEM_CONFORMER_RMSD>
1.2

> <PUBCHEM_CONFORMER_DIVERSEORDER>
1
4
8
20
18
10
27
14
12
15
24
17
9
26
2
6
28
3
16
25
13
23
19
11
7
22
21
5

> <PUBCHEM_MMFF94_PARTIAL_CHARGES>
50
1 -0.3
10 -0.05
11 0.05
12 0.65
13 0.56
14 -0.29
15 0.12
16 -0.29
17 -0.15
18 0.62
19 -0.15
2 -0.68
20 -0.14
21 -0.15
22 -0.15
23 -0.15
25 0.14
26 0.06
27 0.14
28 0.12
29 -0.15
3 -0.57
30 -0.06
31 0.49
32 -0.29
33 -0.14
36 0.62
37 0.1
38 0.1
39 0.15
4 -0.57
40 0.15
41 0.4
42 0.37
43 0.15
44 0.15
45 0.15
46 0.15
47 0.15
48 0.15
5 -0.53
56 0.15
57 0.15
58 0.15
6 -0.57
65 0.37
66 0.45
7 -0.57
8 -0.54
9 -0.54

> <PUBCHEM_EFFECTIVE_ROTOR_COUNT>
12.8

> <PUBCHEM_PHARMACOPHORE_FEATURES>
13
1 1 acceptor
1 2 acceptor
1 2 donor
1 3 acceptor
1 4 acceptor
1 5 donor
1 6 acceptor
1 7 acceptor
1 8 donor
1 9 donor
3 24 34 35 hydrophobe
5 25 26 28 30 31 rings
7 1 10 11 12 13 14 15 rings

> <PUBCHEM_HEAVY_ATOM_COUNT>
36

> <PUBCHEM_ATOM_DEF_STEREO_COUNT>
3

> <PUBCHEM_ATOM_UDEF_STEREO_COUNT>
0

> <PUBCHEM_BOND_DEF_STEREO_COUNT>
5

> <PUBCHEM_BOND_UDEF_STEREO_COUNT>
0

> <PUBCHEM_ISOTOPIC_ATOM_COUNT>
0

> <PUBCHEM_COMPONENT_COUNT>
1

> <PUBCHEM_CACTVS_TAUTO_COUNT>
40

> <PUBCHEM_CONFORMER_ID>
00A3374D00000001

> <PUBCHEM_MMFF94_ENERGY>
73.4521

> <PUBCHEM_FEATURE_SELFOVERLAP>
65.978

> <PUBCHEM_SHAPE_FINGERPRINT>
11621639 254 7923897164485544448
117089 54 18335705997013213850
11761917 87 18187940499463900419
12013929 27 18115593622288862830
12975358 362 10519125135886632046
13533116 47 18266742566167138173
14400156 188 18413111671591035934
15152005 1 18337953377306389934
16990366 60 18339356375812569998
20165401 70 18341612685204935447
2026 5 18407759223096347199
20609170 94 9510590292455695297
21057603 238 17894906279885517221
21057603 293 9904966983675050384
21130935 74 18196094572342886219
21360442 33 18339361975938234137
21362267 313 18129394838733272609
22899556 105 18267600035772382892
23523788 1 18195218149796468240
23569943 247 18411143537546292835
2835820 82 18408604790228829911
393628 194 9799104354505883858
3991529 202 18412552011851173115

> <PUBCHEM_SHAPE_MULTIPOLES>
689.82
35.51
10.74
1.6
53.84
3.61
0.53
83.98
6.07
-28.77
1.49
0.7
-1.27
0.75

> <PUBCHEM_SHAPE_SELFOVERLAP>
1441.769

> <PUBCHEM_SHAPE_VOLUME>
387.3

> <PUBCHEM_COORDINATE_TYPE>
2
5
10

$$$$
