10692595
  -OEChem-03292013303D

 61 62  0     1  0  0  0  0  0999 V2000
    2.7225   -1.6000    1.2956 O   0  0  0  0  0  0  0  0  0  0  0  0
    3.7633   -3.8835   -0.0307 O   0  0  0  0  0  0  0  0  0  0  0  0
   -6.0951   -1.1145    1.2269 O   0  0  0  0  0  0  0  0  0  0  0  0
   -1.7472   -1.3957    1.4105 O   0  0  0  0  0  0  0  0  0  0  0  0
   -2.2704    1.6679   -2.2567 O   0  0  0  0  0  0  0  0  0  0  0  0
   -7.0829    0.2403   -0.3687 O   0  0  0  0  0  0  0  0  0  0  0  0
    3.4238   -1.4883    0.0541 C   0  0  2  0  0  0  0  0  0  0  0  0
    3.2129   -2.7862   -0.7662 C   0  0  0  0  0  0  0  0  0  0  0  0
    4.8969   -1.1545    0.3500 C   0  0  0  0  0  0  0  0  0  0  0  0
    5.1050    0.1103    1.2007 C   0  0  0  0  0  0  0  0  0  0  0  0
    1.7177   -3.0649   -0.9711 C   0  0  0  0  0  0  0  0  0  0  0  0
    3.9155   -2.7289   -2.1254 C   0  0  0  0  0  0  0  0  0  0  0  0
    4.5409    1.3935    0.6172 C   0  0  0  0  0  0  0  0  0  0  0  0
    3.5814    2.0668    1.2833 C   0  0  0  0  0  0  0  0  0  0  0  0
    2.9524    3.3875    0.9347 C   0  0  0  0  0  0  0  0  0  0  0  0
    1.4202    3.3338    0.8600 C   0  0  0  0  0  0  0  0  0  0  0  0
    5.1634    1.8377   -0.6776 C   0  0  0  0  0  0  0  0  0  0  0  0
    0.8822    2.3434   -0.1540 C   0  0  0  0  0  0  0  0  0  0  0  0
   -1.9850    0.1372   -0.4250 C   0  0  0  0  0  0  0  0  0  0  0  0
   -0.4868    0.2194   -0.5772 C   0  0  0  0  0  0  0  0  0  0  0  0
   -3.9130   -0.7279    0.6846 C   0  0  0  0  0  0  0  0  0  0  0  0
    0.1079    1.3194    0.2546 C   0  0  0  0  0  0  0  0  0  0  0  0
   -2.5361   -0.6747    0.5714 C   0  0  0  0  0  0  0  0  0  0  0  0
   -4.7142    0.0040   -0.1678 C   0  0  0  0  0  0  0  0  0  0  0  0
   -4.7525   -1.4870    1.6286 C   0  0  0  0  0  0  0  0  0  0  0  0
   -2.8126    0.8778   -1.2863 C   0  0  0  0  0  0  0  0  0  0  0  0
   -4.2010    0.8155   -1.1625 C   0  0  0  0  0  0  0  0  0  0  0  0
    1.2977    2.5902   -1.5763 C   0  0  0  0  0  0  0  0  0  0  0  0
   -6.1068   -0.2385    0.1732 C   0  0  0  0  0  0  0  0  0  0  0  0
    2.9672   -0.6543   -0.4915 H   0  0  0  0  0  0  0  0  0  0  0  0
    5.3563   -1.9884    0.8958 H   0  0  0  0  0  0  0  0  0  0  0  0
    5.4543   -1.0445   -0.5861 H   0  0  0  0  0  0  0  0  0  0  0  0
    6.1833    0.2504    1.3535 H   0  0  0  0  0  0  0  0  0  0  0  0
    4.6941   -0.0707    2.2024 H   0  0  0  0  0  0  0  0  0  0  0  0
    1.2383   -2.2655   -1.5441 H   0  0  0  0  0  0  0  0  0  0  0  0
    1.5682   -4.0073   -1.5110 H   0  0  0  0  0  0  0  0  0  0  0  0
    1.1944   -3.1794   -0.0157 H   0  0  0  0  0  0  0  0  0  0  0  0
    5.0048   -2.7161   -2.0159 H   0  0  0  0  0  0  0  0  0  0  0  0
    3.6062   -1.8504   -2.7008 H   0  0  0  0  0  0  0  0  0  0  0  0
    3.6887   -3.6230   -2.7182 H   0  0  0  0  0  0  0  0  0  0  0  0
    3.2259    1.6459    2.2237 H   0  0  0  0  0  0  0  0  0  0  0  0
    3.3426    3.8018    0.0017 H   0  0  0  0  0  0  0  0  0  0  0  0
    3.2306    4.1053    1.7168 H   0  0  0  0  0  0  0  0  0  0  0  0
    3.0993   -2.3557    1.7781 H   0  0  0  0  0  0  0  0  0  0  0  0
    3.6295   -4.6933   -0.5522 H   0  0  0  0  0  0  0  0  0  0  0  0
    1.0428    4.3328    0.6060 H   0  0  0  0  0  0  0  0  0  0  0  0
    1.0270    3.1154    1.8618 H   0  0  0  0  0  0  0  0  0  0  0  0
    6.2554    1.8269   -0.5930 H   0  0  0  0  0  0  0  0  0  0  0  0
    4.8746    1.1619   -1.4890 H   0  0  0  0  0  0  0  0  0  0  0  0
    4.8826    2.8488   -0.9769 H   0  0  0  0  0  0  0  0  0  0  0  0
   -0.0338   -0.7247   -0.2531 H   0  0  0  0  0  0  0  0  0  0  0  0
   -0.2237    0.2898   -1.6366 H   0  0  0  0  0  0  0  0  0  0  0  0
   -0.1026    1.2394    1.3212 H   0  0  0  0  0  0  0  0  0  0  0  0
   -4.6425   -2.5687    1.5147 H   0  0  0  0  0  0  0  0  0  0  0  0
   -4.6022   -1.1804    2.6671 H   0  0  0  0  0  0  0  0  0  0  0  0
   -4.8554    1.3797   -1.8181 H   0  0  0  0  0  0  0  0  0  0  0  0
    1.1942    3.6531   -1.8202 H   0  0  0  0  0  0  0  0  0  0  0  0
    0.6900    2.0484   -2.3039 H   0  0  0  0  0  0  0  0  0  0  0  0
    2.3408    2.3011   -1.7311 H   0  0  0  0  0  0  0  0  0  0  0  0
   -2.3038   -1.8949    2.0313 H   0  0  0  0  0  0  0  0  0  0  0  0
   -2.9876    2.1014   -2.7504 H   0  0  0  0  0  0  0  0  0  0  0  0
  1  7  1  0  0  0  0
  1 44  1  0  0  0  0
  2  8  1  0  0  0  0
  2 45  1  0  0  0  0
  3 25  1  0  0  0  0
  3 29  1  0  0  0  0
  4 23  1  0  0  0  0
  4 60  1  0  0  0  0
  5 26  1  0  0  0  0
  5 61  1  0  0  0  0
  6 29  2  0  0  0  0
  7  8  1  0  0  0  0
  7  9  1  0  0  0  0
  7 30  1  0  0  0  0
  8 11  1  0  0  0  0
  8 12  1  0  0  0  0
  9 10  1  0  0  0  0
  9 31  1  0  0  0  0
  9 32  1  0  0  0  0
 10 13  1  0  0  0  0
 10 33  1  0  0  0  0
 10 34  1  0  0  0  0
 11 35  1  0  0  0  0
 11 36  1  0  0  0  0
 11 37  1  0  0  0  0
 12 38  1  0  0  0  0
 12 39  1  0  0  0  0
 12 40  1  0  0  0  0
 13 14  2  0  0  0  0
 13 17  1  0  0  0  0
 14 15  1  0  0  0  0
 14 41  1  0  0  0  0
 15 16  1  0  0  0  0
 15 42  1  0  0  0  0
 15 43  1  0  0  0  0
 16 18  1  0  0  0  0
 16 46  1  0  0  0  0
 16 47  1  0  0  0  0
 17 48  1  0  0  0  0
 17 49  1  0  0  0  0
 17 50  1  0  0  0  0
 18 22  2  0  0  0  0
 18 28  1  0  0  0  0
 19 20  1  0  0  0  0
 19 23  1  0  0  0  0
 19 26  2  0  0  0  0
 20 22  1  0  0  0  0
 20 51  1  0  0  0  0
 20 52  1  0  0  0  0
 21 23  2  0  0  0  0
 21 24  1  0  0  0  0
 21 25  1  0  0  0  0
 22 53  1  0  0  0  0
 24 27  2  0  0  0  0
 24 29  1  0  0  0  0
 25 54  1  0  0  0  0
 25 55  1  0  0  0  0
 26 27  1  0  0  0  0
 27 56  1  0  0  0  0
 28 57  1  0  0  0  0
 28 58  1  0  0  0  0
 28 59  1  0  0  0  0
M  END
> <PUBCHEM_COMPOUND_CID>
10692595

> <PUBCHEM_CONFORMER_RMSD>
1.2

> <PUBCHEM_CONFORMER_DIVERSEORDER>
1
16
34
534
332
35
442
656
478
51
217
352
250
452
436
36
264
200
53
45
707
290
102
563
33
57
176
103
625
172
667
31
542
353
265
692
554
75
64
41
289
624
161
146
709
3
311
351
143
21
225
27
299
455
412
52
669
431
240
229
42
316
334
134
123
55
275
136
404
494
504
43
11
215
65
348
70
516
61
544
294
44
517
693
253
40
62
301
336
600
460
28
37
448
122
697
337
18
522
390
170
185
523
391
578
90
630
12
685
456
317
305
135
694
528
93
710
419
411
166
7
81
306
735
615
533
270
369
441
434
430
148
138
87
114
171
139
462
324
76
173
672
203
695
445
401
241
117
623
17
13
258
190
342
50
107
247
276
109
619
14
79
526
381
552
277
677
99
704
2
29
216
133
647
15
382
645
433
513
120
723
607
32
622
125
175
453
150
344
511
92
8
23
100
239
725
66
604
132
409
110
88
130
292
266
520
119
527
213
20
535
85
321
471
545
483
25
440
252
39
5
314
187
297
628
129
72
68
509
343
245
726
121
350
124
467
236
641
315
67
104
189
364
24
60
223
230
406
571
422
69
49
74
657
142
108
570
89
58
177
361
696
4
128
152
127
664
714
163
583
106
101
105
521
98
248
665
10
602
48
739
506
246
56
587
256
367

> <PUBCHEM_MMFF94_PARTIAL_CHARGES>
33
1 -0.68
10 0.14
13 -0.28
14 -0.29
15 0.14
16 0.14
17 0.14
18 -0.28
19 -0.14
2 -0.68
20 0.28
21 -0.14
22 -0.29
23 0.08
24 0.09
25 0.42
26 0.08
27 -0.15
28 0.14
29 0.63
3 -0.43
4 -0.53
41 0.15
44 0.4
45 0.4
5 -0.53
53 0.15
56 0.15
6 -0.57
60 0.45
61 0.45
7 0.28
8 0.28

> <PUBCHEM_EFFECTIVE_ROTOR_COUNT>
9.4

> <PUBCHEM_PHARMACOPHORE_FEATURES>
13
1 1 acceptor
1 1 donor
1 17 hydrophobe
1 2 acceptor
1 2 donor
1 28 hydrophobe
1 4 donor
1 5 donor
1 6 acceptor
3 8 11 12 hydrophobe
4 14 15 16 18 hydrophobe
5 3 21 24 25 29 rings
6 19 21 23 24 26 27 rings

> <PUBCHEM_HEAVY_ATOM_COUNT>
29

> <PUBCHEM_ATOM_DEF_STEREO_COUNT>
0

> <PUBCHEM_ATOM_UDEF_STEREO_COUNT>
1

> <PUBCHEM_BOND_DEF_STEREO_COUNT>
2

> <PUBCHEM_BOND_UDEF_STEREO_COUNT>
0

> <PUBCHEM_ISOTOPIC_ATOM_COUNT>
0

> <PUBCHEM_COMPONENT_COUNT>
1

> <PUBCHEM_CACTVS_TAUTO_COUNT>
9

> <PUBCHEM_CONFORMER_ID>
00A327F300000001

> <PUBCHEM_MMFF94_ENERGY>
58.9963

> <PUBCHEM_FEATURE_SELFOVERLAP>
66.089

> <PUBCHEM_SHAPE_FINGERPRINT>
10864689 126 18263366884849098343
11595378 159 16487264235553212729
12128747 34 18339920407924307053
12596602 18 16558457716604763464
13402501 40 18260545641069497074
13533116 47 18273498966007668985
1361 2 18343299266726763983
13617811 41 16443061691143243831
14251757 17 18188482476179554240
14840074 17 17775846808909819621
15328829 1 16988266673527356125
17844677 252 18200596878320275115
1979834 28 18272362088628544256
20429552 37 18411699881021880393
20511986 3 16701727362838113569
21033650 10 16589718838027335468
21285901 2 18040710347053516412
21623969 137 18410854373875995410
22182313 1 18041548196678517733
23559900 14 18041005055219539685
25222932 49 17822560716121275730
3178227 256 18340764936339498424
3298306 158 18338234976625050988
345986 75 17560799888370264240
3633792 109 18412256221964774737
394071 54 18202008724016948394
404807 14 17838063598218795587
4093350 32 18272088284442500427
437795 51 18339934804759411940
4435113 14 18041292044370172155
460360 51 18267597826861739113
46194498 28 17822289132591702884
5265222 85 17975706296560503580
5309563 4 18270681940229843694
59755656 215 18334293210075332857
6823239 73 18187366506711801538
70251023 43 18057333773513132070
9995097 60 18335979861197080457

> <PUBCHEM_SHAPE_MULTIPOLES>
561.59
14.55
4.11
1.65
15.67
0.85
-0.41
3.19
2.48
-7.38
-0.52
0.12
0.05
2.64

> <PUBCHEM_SHAPE_SELFOVERLAP>
1161.661

> <PUBCHEM_SHAPE_VOLUME>
324.1

> <PUBCHEM_COORDINATE_TYPE>
2
5
10

$$$$
