10718956
  -OEChem-03292013303D

 52 55  0     1  0  0  0  0  0999 V2000
    3.3891    2.2374    0.7079 S   0  0  0  0  0  0  0  0  0  0  0  0
    0.5415    1.5980    0.8682 S   0  0  0  0  0  0  0  0  0  0  0  0
    5.6540   -0.0768   -1.9676 O   0  0  0  0  0  0  0  0  0  0  0  0
    4.2889    2.8664   -0.2392 O   0  0  0  0  0  0  0  0  0  0  0  0
    3.0734    2.8624    1.9775 O   0  0  0  0  0  0  0  0  0  0  0  0
    6.4431    0.2814    0.1288 O   0  0  0  0  0  0  0  0  0  0  0  0
    3.8996    0.6289    0.9940 N   0  0  0  0  0  0  0  0  0  0  0  0
    0.7176   -2.2034    2.0741 N   0  0  0  0  0  0  0  0  0  0  0  0
    3.8244   -1.7246    0.2163 C   0  0  0  0  0  0  0  0  0  0  0  0
    4.0882   -0.2560   -0.1780 C   0  0  2  0  0  0  0  0  0  0  0  0
    2.4569   -1.9783    0.7134 C   0  0  0  0  0  0  0  0  0  0  0  0
    1.3262   -2.3486   -0.0672 C   0  0  0  0  0  0  0  0  0  0  0  0
    0.2484   -2.4834    0.8105 C   0  0  0  0  0  0  0  0  0  0  0  0
    2.0512   -1.8971    2.0257 C   0  0  0  0  0  0  0  0  0  0  0  0
    1.1156   -2.5825   -1.4406 C   0  0  0  0  0  0  0  0  0  0  0  0
    5.5134    0.0059   -0.6178 C   0  0  0  0  0  0  0  0  0  0  0  0
   -1.0345   -2.8417    0.3816 C   0  0  0  0  0  0  0  0  0  0  0  0
    1.8040    2.1493   -0.1246 C   0  0  0  0  0  0  0  0  0  0  0  0
   -0.1623   -2.9423   -1.8841 C   0  0  0  0  0  0  0  0  0  0  0  0
   -1.2193   -3.0693   -0.9851 C   0  0  0  0  0  0  0  0  0  0  0  0
    1.4270    2.4388   -1.3923 C   0  0  0  0  0  0  0  0  0  0  0  0
    0.0341    2.2021   -1.5767 C   0  0  0  0  0  0  0  0  0  0  0  0
   -0.5693    1.7426   -0.4269 C   0  0  0  0  0  0  0  0  0  0  0  0
   -1.9511    1.4186   -0.3053 C   0  0  0  0  0  0  0  0  0  0  0  0
   -4.5110    0.8167   -0.0816 C   0  0  0  0  0  0  0  0  0  0  0  0
   -7.2151    0.1798    0.1567 C   0  0  0  0  0  0  0  0  0  0  0  0
   -3.1236    1.1433   -0.2025 C   0  0  0  0  0  0  0  0  0  0  0  0
   -5.4496    1.8286    0.1145 C   0  0  0  0  0  0  0  0  0  0  0  0
   -4.9223   -0.5133   -0.1588 C   0  0  0  0  0  0  0  0  0  0  0  0
   -6.8023    1.5100    0.2339 C   0  0  0  0  0  0  0  0  0  0  0  0
   -6.2750   -0.8319   -0.0396 C   0  0  0  0  0  0  0  0  0  0  0  0
   -8.6613   -0.1611    0.2850 C   0  0  0  0  0  0  0  0  0  0  0  0
    4.0358   -2.3672   -0.6481 H   0  0  0  0  0  0  0  0  0  0  0  0
    4.5504   -2.0284    0.9834 H   0  0  0  0  0  0  0  0  0  0  0  0
    3.4017    0.0372   -0.9794 H   0  0  0  0  0  0  0  0  0  0  0  0
    4.5552    0.4693    1.7701 H   0  0  0  0  0  0  0  0  0  0  0  0
    2.5893   -1.6488    2.9299 H   0  0  0  0  0  0  0  0  0  0  0  0
    0.1578   -2.2210    2.9153 H   0  0  0  0  0  0  0  0  0  0  0  0
    1.9281   -2.4856   -2.1551 H   0  0  0  0  0  0  0  0  0  0  0  0
   -1.8587   -2.9389    1.0802 H   0  0  0  0  0  0  0  0  0  0  0  0
   -0.3308   -3.1229   -2.9424 H   0  0  0  0  0  0  0  0  0  0  0  0
   -2.2042   -3.3477   -1.3511 H   0  0  0  0  0  0  0  0  0  0  0  0
    2.0938    2.8001   -2.1640 H   0  0  0  0  0  0  0  0  0  0  0  0
    6.5759    0.1033   -2.2503 H   0  0  0  0  0  0  0  0  0  0  0  0
   -0.4892    2.3635   -2.5114 H   0  0  0  0  0  0  0  0  0  0  0  0
   -5.1432    2.8700    0.1765 H   0  0  0  0  0  0  0  0  0  0  0  0
   -4.2013   -1.3127   -0.3117 H   0  0  0  0  0  0  0  0  0  0  0  0
   -7.5253    2.3072    0.3850 H   0  0  0  0  0  0  0  0  0  0  0  0
   -6.5843   -1.8718   -0.1030 H   0  0  0  0  0  0  0  0  0  0  0  0
   -8.7955   -1.1499    0.7368 H   0  0  0  0  0  0  0  0  0  0  0  0
   -9.1815    0.5575    0.9275 H   0  0  0  0  0  0  0  0  0  0  0  0
   -9.1367   -0.1583   -0.7009 H   0  0  0  0  0  0  0  0  0  0  0  0
  1  4  2  0  0  0  0
  1  5  2  0  0  0  0
  1  7  1  0  0  0  0
  1 18  1  0  0  0  0
  2 18  1  0  0  0  0
  2 23  1  0  0  0  0
  3 16  1  0  0  0  0
  3 44  1  0  0  0  0
  6 16  2  0  0  0  0
  7 10  1  0  0  0  0
  7 36  1  0  0  0  0
  8 13  1  0  0  0  0
  8 14  1  0  0  0  0
  8 38  1  0  0  0  0
  9 10  1  0  0  0  0
  9 11  1  0  0  0  0
  9 33  1  0  0  0  0
  9 34  1  0  0  0  0
 10 16  1  0  0  0  0
 10 35  1  0  0  0  0
 11 12  1  0  0  0  0
 11 14  2  0  0  0  0
 12 13  1  0  0  0  0
 12 15  2  0  0  0  0
 13 17  2  0  0  0  0
 14 37  1  0  0  0  0
 15 19  1  0  0  0  0
 15 39  1  0  0  0  0
 17 20  1  0  0  0  0
 17 40  1  0  0  0  0
 18 21  2  0  0  0  0
 19 20  2  0  0  0  0
 19 41  1  0  0  0  0
 20 42  1  0  0  0  0
 21 22  1  0  0  0  0
 21 43  1  0  0  0  0
 22 23  2  0  0  0  0
 22 45  1  0  0  0  0
 23 24  1  0  0  0  0
 24 27  3  0  0  0  0
 25 27  1  0  0  0  0
 25 28  2  0  0  0  0
 25 29  1  0  0  0  0
 26 30  2  0  0  0  0
 26 31  1  0  0  0  0
 26 32  1  0  0  0  0
 28 30  1  0  0  0  0
 28 46  1  0  0  0  0
 29 31  2  0  0  0  0
 29 47  1  0  0  0  0
 30 48  1  0  0  0  0
 31 49  1  0  0  0  0
 32 50  1  0  0  0  0
 32 51  1  0  0  0  0
 32 52  1  0  0  0  0
M  END
> <PUBCHEM_COMPOUND_CID>
10718956

> <PUBCHEM_CONFORMER_RMSD>
0.8

> <PUBCHEM_CONFORMER_DIVERSEORDER>
1
210
169
233
11
164
223
236
231
140
213
145
66
99
229
176
93
26
245
7
242
27
165
239
138
129
206
158
113
95
202
120
37
19
203
153
100
211
74
76
72
240
67
227
147
3
198
161
156
201
152
102
80
238
69
60
36
224
166
215
162
50
197
43
173
178
157
5
52
98
150
81
47
83
199
207
21
146
54
139
105
137
86
23
101
141
205
187
226
85
22
155
111
244
186
55
35
172
123
122
222
4
184
243
237
183
2
250
208
220
8
44
125
114
171
40
56
110
75
31
174
9
121
106
209
192
18
116
108
127
232
30
185
46
58
12
39
214
136
71
190
191
63
168
126
48
92
219
241
49
170
45
247
68
200
234
59
78
117
235
90
6
51
193
104
61
248
62
128
82
194
124
149
91
221
249
57
29
216
167
163
89
217
148
64
119
65
41
53
103
112
42
13
10
189
212
109
175
246
77
154
131
177
32
179
107
33
132
230
79
24
96
25
142
225
20
73
151
159
218
84
14
97
188
87
70
135
94
181
15
88
38
160
16
133
115
228
195
34
204
180
130
196
144
28
182
118
143
17
134

> <PUBCHEM_MMFF94_PARTIAL_CHARGES>
45
1 1.5
10 0.42
11 -0.18
13 -0.15
14 -0.3
15 -0.15
16 0.66
17 -0.15
18 -0.02
19 -0.15
2 -0.08
20 -0.15
21 -0.15
22 -0.15
23 0.06
24 -0.02
25 0.07
26 -0.14
27 -0.07
28 -0.15
29 -0.15
3 -0.65
30 -0.15
31 -0.15
32 0.14
36 0.42
37 0.15
38 0.27
39 0.15
4 -0.65
40 0.15
41 0.15
42 0.15
43 0.15
44 0.5
45 0.15
46 0.15
47 0.15
48 0.15
49 0.15
5 -0.65
6 -0.57
7 -0.91
8 0.03
9 0.18

> <PUBCHEM_EFFECTIVE_ROTOR_COUNT>
6

> <PUBCHEM_PHARMACOPHORE_FEATURES>
12
1 3 acceptor
1 4 acceptor
1 5 acceptor
1 6 acceptor
1 7 donor
1 8 cation
1 8 donor
3 3 6 16 anion
5 2 18 21 22 23 rings
5 8 11 12 13 14 rings
6 12 13 15 17 19 20 rings
6 25 26 28 29 30 31 rings

> <PUBCHEM_HEAVY_ATOM_COUNT>
32

> <PUBCHEM_ATOM_DEF_STEREO_COUNT>
1

> <PUBCHEM_ATOM_UDEF_STEREO_COUNT>
0

> <PUBCHEM_BOND_DEF_STEREO_COUNT>
0

> <PUBCHEM_BOND_UDEF_STEREO_COUNT>
0

> <PUBCHEM_ISOTOPIC_ATOM_COUNT>
0

> <PUBCHEM_COMPONENT_COUNT>
1

> <PUBCHEM_CACTVS_TAUTO_COUNT>
1

> <PUBCHEM_CONFORMER_ID>
00A38EEC00000001

> <PUBCHEM_MMFF94_ENERGY>
46.733

> <PUBCHEM_FEATURE_SELFOVERLAP>
61.064

> <PUBCHEM_SHAPE_FINGERPRINT>
10316853 100 18333733532823388800
10816530 23 17130136748663274372
11421498 54 17274545304374561649
11578080 2 17201335590350989202
12422481 6 18336256937932075411
131258 38 17676755492890701242
13402501 40 18334577919272901219
1361 2 18260267468828133153
13617811 41 17967537882310838981
13692114 37 18270958059329952751
14114211 68 17968394363994586822
14840074 17 18409444757262100613
15001296 14 18339632456104407697
15297060 5 17846492647250987879
15721738 202 18271810090904973209
15968369 153 18053663857023350295
17492 54 18261972760170878382
19315092 285 16010986472973182282
19319366 153 17967529048095724194
20465049 17 18341616992988268838
21133410 90 17560239244576722392
21197605 99 18337956800526647691
21344244 181 17917441878466617342
21716022 299 15050348700019429575
25223398 141 14202266949486500361
338550 245 18189618413604270245
3411729 13 18409167723413611221
394071 54 18269281158548325353
4093350 32 17346880057258400852
4340502 62 18271236209500783841
437795 51 18343863329234554817
463206 1 18338514253000479635
58260988 647 16701196157763054534
59521120 56 17059766845852347791
59755656 215 18334858303591968065

> <PUBCHEM_SHAPE_MULTIPOLES>
632.8
16.25
4.14
1.53
29.84
1.14
0.04
-4.91
0.68
-2.64
-0.28
-1.62
0.45
-0.05

> <PUBCHEM_SHAPE_SELFOVERLAP>
1351.613

> <PUBCHEM_SHAPE_VOLUME>
350.7

> <PUBCHEM_COORDINATE_TYPE>
2
5
10

$$$$
