10713650
  -OEChem-03292013303D

 44 45  0     1  0  0  0  0  0999 V2000
   -0.2102   -2.6322    0.7766 O   0  0  0  0  0  0  0  0  0  0  0  0
    2.4933   -2.2561   -0.4206 O   0  0  0  0  0  0  0  0  0  0  0  0
    0.3977   -1.7095   -2.3315 O   0  0  0  0  0  0  0  0  0  0  0  0
   -2.8533   -1.0497    1.9129 O   0  0  0  0  0  0  0  0  0  0  0  0
   -4.1994    0.7854    0.0323 O   0  0  0  0  0  0  0  0  0  0  0  0
    4.1060   -2.1219    1.2280 O   0  0  0  0  0  0  0  0  0  0  0  0
   -6.4088    0.7441   -0.6417 O   0  0  0  0  0  0  0  0  0  0  0  0
    3.4987    5.9114   -0.3087 O   0  0  0  0  0  0  0  0  0  0  0  0
    0.2669   -1.5156    0.0113 C   0  0  1  0  0  0  0  0  0  0  0  0
   -0.6450   -1.3255    1.1830 C   0  0  1  0  0  0  0  0  0  0  0  0
    1.7258   -1.2448    0.2403 C   0  0  2  0  0  0  0  0  0  0  0  0
   -0.2828   -1.4394   -1.3496 C   0  0  0  0  0  0  0  0  0  0  0  0
   -2.0799   -1.0765    0.9639 C   0  0  0  0  0  0  0  0  0  0  0  0
   -2.5277   -0.8474   -0.4417 C   0  0  0  0  0  0  0  0  0  0  0  0
   -1.6966   -1.0169   -1.4812 C   0  0  0  0  0  0  0  0  0  0  0  0
    2.1921    0.0870   -0.2879 C   0  0  0  0  0  0  0  0  0  0  0  0
   -3.9603   -0.4451   -0.6250 C   0  0  0  0  0  0  0  0  0  0  0  0
    2.2865    1.2561    0.3804 C   0  0  0  0  0  0  0  0  0  0  0  0
    3.6644   -2.5951    0.1896 C   0  0  0  0  0  0  0  0  0  0  0  0
    1.9724    1.4088    1.8462 C   0  0  0  0  0  0  0  0  0  0  0  0
    2.7348    2.4468   -0.3458 C   0  0  0  0  0  0  0  0  0  0  0  0
    4.3560   -3.6582   -0.6089 C   0  0  0  0  0  0  0  0  0  0  0  0
   -5.4764    1.2751   -0.0537 C   0  0  0  0  0  0  0  0  0  0  0  0
    2.8823    3.6770    0.1651 C   0  0  0  0  0  0  0  0  0  0  0  0
   -5.5809    2.5749    0.6850 C   0  0  0  0  0  0  0  0  0  0  0  0
    3.3442    4.7672   -0.7185 C   0  0  0  0  0  0  0  0  0  0  0  0
   -0.2382   -0.9382    2.1089 H   0  0  0  0  0  0  0  0  0  0  0  0
    1.9212   -1.3141    1.3161 H   0  0  0  0  0  0  0  0  0  0  0  0
   -2.0470   -0.8677   -2.4984 H   0  0  0  0  0  0  0  0  0  0  0  0
    2.4446    0.0816   -1.3493 H   0  0  0  0  0  0  0  0  0  0  0  0
   -4.2028   -0.3375   -1.6897 H   0  0  0  0  0  0  0  0  0  0  0  0
   -4.6127   -1.2220   -0.2071 H   0  0  0  0  0  0  0  0  0  0  0  0
    1.1537    2.1229    1.9895 H   0  0  0  0  0  0  0  0  0  0  0  0
    2.8518    1.7687    2.3920 H   0  0  0  0  0  0  0  0  0  0  0  0
    1.6657    0.4806    2.3305 H   0  0  0  0  0  0  0  0  0  0  0  0
    2.9624    2.2943   -1.4004 H   0  0  0  0  0  0  0  0  0  0  0  0
    3.7250   -4.5487   -0.6655 H   0  0  0  0  0  0  0  0  0  0  0  0
    5.2954   -3.9274   -0.1175 H   0  0  0  0  0  0  0  0  0  0  0  0
    4.5821   -3.2817   -1.6097 H   0  0  0  0  0  0  0  0  0  0  0  0
    2.6808    3.9294    1.1989 H   0  0  0  0  0  0  0  0  0  0  0  0
   -4.9039    3.3085    0.2404 H   0  0  0  0  0  0  0  0  0  0  0  0
   -6.6041    2.9539    0.6100 H   0  0  0  0  0  0  0  0  0  0  0  0
   -5.3427    2.4208    1.7404 H   0  0  0  0  0  0  0  0  0  0  0  0
    3.5437    4.4956   -1.7685 H   0  0  0  0  0  0  0  0  0  0  0  0
  1  9  1  0  0  0  0
  1 10  1  0  0  0  0
  2 11  1  0  0  0  0
  2 19  1  0  0  0  0
  3 12  2  0  0  0  0
  4 13  2  0  0  0  0
  5 17  1  0  0  0  0
  5 23  1  0  0  0  0
  6 19  2  0  0  0  0
  7 23  2  0  0  0  0
  8 26  2  0  0  0  0
  9 10  1  0  0  0  0
  9 11  1  0  0  0  0
  9 12  1  0  0  0  0
 10 13  1  0  0  0  0
 10 27  1  0  0  0  0
 11 16  1  0  0  0  0
 11 28  1  0  0  0  0
 12 15  1  0  0  0  0
 13 14  1  0  0  0  0
 14 15  2  0  0  0  0
 14 17  1  0  0  0  0
 15 29  1  0  0  0  0
 16 18  2  0  0  0  0
 16 30  1  0  0  0  0
 17 31  1  0  0  0  0
 17 32  1  0  0  0  0
 18 20  1  0  0  0  0
 18 21  1  0  0  0  0
 19 22  1  0  0  0  0
 20 33  1  0  0  0  0
 20 34  1  0  0  0  0
 20 35  1  0  0  0  0
 21 24  2  0  0  0  0
 21 36  1  0  0  0  0
 22 37  1  0  0  0  0
 22 38  1  0  0  0  0
 22 39  1  0  0  0  0
 23 25  1  0  0  0  0
 24 26  1  0  0  0  0
 24 40  1  0  0  0  0
 25 41  1  0  0  0  0
 25 42  1  0  0  0  0
 25 43  1  0  0  0  0
 26 44  1  0  0  0  0
M  END
> <PUBCHEM_COMPOUND_CID>
10713650

> <PUBCHEM_CONFORMER_RMSD>
1

> <PUBCHEM_CONFORMER_DIVERSEORDER>
1
234
86
235
161
17
240
122
134
72
248
66
186
38
145
75
64
148
254
45
33
233
253
82
111
201
219
193
44
81
207
77
175
53
100
165
39
144
249
57
34
150
59
156
51
48
237
184
106
222
41
127
250
9
252
85
8
169
76
238
91
87
261
110
58
93
136
259
90
190
205
255
89
56
241
47
94
202
27
217
96
204
113
206
31
73
67
188
36
146
197
196
88
80
54
60
137
265
46
198
74
126
164
108
37
260
103
138
230
194
121
43
220
256
116
117
216
62
52
242
24
132
123
209
112
208
30
12
257
125
10
244
32
266
19
213
99
35
229
40
105
227
199
63
70
128
192
23
109
172
7
26
231
185
228
118
115
218
65
170
101
25
157
120
68
141
92
140
176
83
215
182
104
114
153
13
151
133
16
29
224
4
226
95
214
5
79
173
262
55
6
181
124
129
174
97
50
203
159
147
84
98
135
21
225
28
3
180
61
223
78
179
247
154
15
142
177
11
171
195
158
2
246
166
49
22
200
14
143
18
263
239
107
211
71
212
42
130
245
20
167
232
236
189
119
187
69
149
139
102
155
168
131
160
191
251
210
264
183
243
163
258
162
178
152
221

> <PUBCHEM_MMFF94_PARTIAL_CHARGES>
32
1 -0.3
10 0.05
11 0.51
12 0.56
13 0.56
14 -0.12
15 -0.14
16 -0.29
17 0.42
18 -0.14
19 0.66
2 -0.43
20 0.14
21 -0.15
22 0.06
23 0.66
24 -0.14
25 0.06
26 0.5
27 0.1
29 0.15
3 -0.57
30 0.15
36 0.15
4 -0.57
40 0.15
44 0.06
5 -0.43
6 -0.57
7 -0.57
8 -0.57
9 0.05

> <PUBCHEM_EFFECTIVE_ROTOR_COUNT>
9.2

> <PUBCHEM_PHARMACOPHORE_FEATURES>
8
1 1 acceptor
1 20 hydrophobe
1 3 acceptor
1 4 acceptor
1 6 acceptor
1 7 acceptor
1 8 acceptor
7 1 9 10 12 13 14 15 rings

> <PUBCHEM_HEAVY_ATOM_COUNT>
26

> <PUBCHEM_ATOM_DEF_STEREO_COUNT>
0

> <PUBCHEM_ATOM_UDEF_STEREO_COUNT>
3

> <PUBCHEM_BOND_DEF_STEREO_COUNT>
2

> <PUBCHEM_BOND_UDEF_STEREO_COUNT>
0

> <PUBCHEM_ISOTOPIC_ATOM_COUNT>
0

> <PUBCHEM_COMPONENT_COUNT>
1

> <PUBCHEM_CACTVS_TAUTO_COUNT>
2

> <PUBCHEM_CONFORMER_ID>
00A37A3200000001

> <PUBCHEM_MMFF94_ENERGY>
40.5098

> <PUBCHEM_FEATURE_SELFOVERLAP>
40.601

> <PUBCHEM_SHAPE_FINGERPRINT>
10937287 8 18050846920817437260
11578080 2 17678486192616247662
12166972 35 18059288747746230515
12173636 292 17616814774666912732
12549972 3 17749970923826383371
12633257 1 17604410990414702889
12788726 201 17757550751436969274
13134695 92 18338235960315493502
13590594 115 18122631547902705065
13965767 371 17823685559455724132
14028597 1 17317603180989553738
14251764 38 18411140234326045393
14251764 75 18270412701758157465
14849402 71 18409453561386329477
15163728 17 18120658199756939532
15238133 3 18121792633700151743
15295992 7 18187374194677037259
15463212 79 17182768313554915144
15849732 13 17703499983569989766
17980427 26 18189035607922730374
21304253 335 17631997677089383586
21475661 188 18335415751660641257
21521721 280 7924185270701836518
22224240 67 8357381818411636318
23559900 14 18335700524898149699
345986 75 17318434398621119250
463206 1 10590116147832018173
474 4 18408598176300791521
57724786 102 18409445890775302857
7288768 16 17679857390906091905
9981440 41 17977940508070947120

> <PUBCHEM_SHAPE_MULTIPOLES>
488.11
10.72
5.88
1.46
15.85
9.45
-0.02
5.76
0.02
-11.34
0.97
0.15
-0.54
-0.66

> <PUBCHEM_SHAPE_SELFOVERLAP>
1014.417

> <PUBCHEM_SHAPE_VOLUME>
274.8

> <PUBCHEM_COORDINATE_TYPE>
2
5
10

$$$$
