10735833
  -OEChem-03292013303D

 44 44  0     1  0  0  0  0  0999 V2000
    4.1529    1.2396   -1.3468 S   0  0  0  0  0  0  0  0  0  0  0  0
   -2.1214    1.9067    2.1509 O   0  0  0  0  0  0  0  0  0  0  0  0
   -3.0673    0.7734   -1.8906 O   0  0  0  0  0  0  0  0  0  0  0  0
   -0.7363   -2.4069   -0.0043 O   0  0  0  0  0  0  0  0  0  0  0  0
   -2.8642   -3.2682    0.2443 O   0  0  0  0  0  0  0  0  0  0  0  0
    5.6827   -0.9681    0.0816 O   0  0  0  0  0  0  0  0  0  0  0  0
    2.3441    0.2812    0.2319 N   0  0  0  0  0  0  0  0  0  0  0  0
   -2.8531    0.2731    0.4889 C   0  0  1  0  0  0  0  0  0  0  0  0
   -1.8822    1.4345    0.8272 C   0  0  2  0  0  0  0  0  0  0  0  0
   -4.3004    0.6539    0.8284 C   0  0  0  0  0  0  0  0  0  0  0  0
   -2.7567   -0.1949   -0.9565 C   0  0  0  0  0  0  0  0  0  0  0  0
   -0.4352    1.0534    0.6007 C   0  0  0  0  0  0  0  0  0  0  0  0
   -2.3990   -1.4545   -1.2666 C   0  0  0  0  0  0  0  0  0  0  0  0
    0.4136    1.6382   -0.2630 C   0  0  0  0  0  0  0  0  0  0  0  0
   -1.3418    3.0577    2.4384 C   0  0  0  0  0  0  0  0  0  0  0  0
    1.7979    1.3029   -0.4926 C   0  0  0  0  0  0  0  0  0  0  0  0
   -2.0704   -2.4899   -0.2591 C   0  0  0  0  0  0  0  0  0  0  0  0
   -1.9697    1.0112   -2.7494 C   0  0  0  0  0  0  0  0  0  0  0  0
    2.5918    1.9483   -1.3913 C   0  0  0  0  0  0  0  0  0  0  0  0
    3.5991    0.1545   -0.1382 C   0  0  0  0  0  0  0  0  0  0  0  0
    4.4779   -0.8206    0.4142 C   0  0  0  0  0  0  0  0  0  0  0  0
    3.9721   -1.7857    1.4939 C   0  0  0  0  0  0  0  0  0  0  0  0
   -0.2344   -3.3400    0.9581 C   0  0  0  0  0  0  0  0  0  0  0  0
   -2.6116   -0.5456    1.1791 H   0  0  0  0  0  0  0  0  0  0  0  0
   -2.1339    2.2645    0.1505 H   0  0  0  0  0  0  0  0  0  0  0  0
   -4.6152    1.5549    0.2900 H   0  0  0  0  0  0  0  0  0  0  0  0
   -4.9903   -0.1554    0.5634 H   0  0  0  0  0  0  0  0  0  0  0  0
   -4.4210    0.8436    1.9002 H   0  0  0  0  0  0  0  0  0  0  0  0
   -0.0756    0.2317    1.2180 H   0  0  0  0  0  0  0  0  0  0  0  0
   -2.3462   -1.7790   -2.3011 H   0  0  0  0  0  0  0  0  0  0  0  0
    0.0231    2.4661   -0.8530 H   0  0  0  0  0  0  0  0  0  0  0  0
   -1.4652    3.8281    1.6704 H   0  0  0  0  0  0  0  0  0  0  0  0
   -1.6932    3.4704    3.3888 H   0  0  0  0  0  0  0  0  0  0  0  0
   -0.2853    2.8028    2.5627 H   0  0  0  0  0  0  0  0  0  0  0  0
   -1.9151    2.0860   -2.9473 H   0  0  0  0  0  0  0  0  0  0  0  0
   -1.0014    0.6855   -2.3591 H   0  0  0  0  0  0  0  0  0  0  0  0
   -2.1478    0.5037   -3.7034 H   0  0  0  0  0  0  0  0  0  0  0  0
    2.3629    2.7700   -2.0557 H   0  0  0  0  0  0  0  0  0  0  0  0
    3.5460   -1.2180    2.3254 H   0  0  0  0  0  0  0  0  0  0  0  0
    4.8023   -2.3896    1.8712 H   0  0  0  0  0  0  0  0  0  0  0  0
    3.2179   -2.4477    1.0618 H   0  0  0  0  0  0  0  0  0  0  0  0
   -0.3947   -4.3653    0.6114 H   0  0  0  0  0  0  0  0  0  0  0  0
    0.8393   -3.1701    1.0680 H   0  0  0  0  0  0  0  0  0  0  0  0
   -0.7162   -3.1790    1.9272 H   0  0  0  0  0  0  0  0  0  0  0  0
  1 19  1  0  0  0  0
  1 20  1  0  0  0  0
  2  9  1  0  0  0  0
  2 15  1  0  0  0  0
  3 11  1  0  0  0  0
  3 18  1  0  0  0  0
  4 17  1  0  0  0  0
  4 23  1  0  0  0  0
  5 17  2  0  0  0  0
  6 21  2  0  0  0  0
  7 16  1  0  0  0  0
  7 20  2  0  0  0  0
  8  9  1  0  0  0  0
  8 10  1  0  0  0  0
  8 11  1  0  0  0  0
  8 24  1  0  0  0  0
  9 12  1  0  0  0  0
  9 25  1  0  0  0  0
 10 26  1  0  0  0  0
 10 27  1  0  0  0  0
 10 28  1  0  0  0  0
 11 13  2  0  0  0  0
 12 14  2  0  0  0  0
 12 29  1  0  0  0  0
 13 17  1  0  0  0  0
 13 30  1  0  0  0  0
 14 16  1  0  0  0  0
 14 31  1  0  0  0  0
 15 32  1  0  0  0  0
 15 33  1  0  0  0  0
 15 34  1  0  0  0  0
 16 19  2  0  0  0  0
 18 35  1  0  0  0  0
 18 36  1  0  0  0  0
 18 37  1  0  0  0  0
 19 38  1  0  0  0  0
 20 21  1  0  0  0  0
 21 22  1  0  0  0  0
 22 39  1  0  0  0  0
 22 40  1  0  0  0  0
 22 41  1  0  0  0  0
 23 42  1  0  0  0  0
 23 43  1  0  0  0  0
 23 44  1  0  0  0  0
M  END
> <PUBCHEM_COMPOUND_CID>
10735833

> <PUBCHEM_CONFORMER_RMSD>
1

> <PUBCHEM_CONFORMER_DIVERSEORDER>
1
7
29
56
95
82
86
69
64
23
101
53
89
72
11
111
71
92
90
103
47
65
98
46
36
106
84
76
18
96
45
74
51
61
21
12
80
85
16
19
41
6
44
55
70
26
35
20
48
14
75
17
8
42
2
58
33
100
79
28
30
3
81
67
31
9
54
104
109
97
102
5
25
83
105
38
37
15
88
110
78
59
57
10
39
66
40
49
108
93
27
13
91
73
87
99
68
52
22
94
63
60
107
50
77
43
62
4
32
34
24

> <PUBCHEM_MMFF94_PARTIAL_CHARGES>
26
1 -0.08
11 -0.06
12 -0.29
13 -0.14
14 -0.1
15 0.28
16 0.18
17 0.71
18 0.28
19 -0.11
2 -0.56
20 0.29
21 0.59
22 0.06
23 0.28
29 0.15
3 -0.36
30 0.15
31 0.15
38 0.15
4 -0.43
5 -0.57
6 -0.57
7 -0.57
8 0.14
9 0.42

> <PUBCHEM_EFFECTIVE_ROTOR_COUNT>
9

> <PUBCHEM_PHARMACOPHORE_FEATURES>
7
1 10 hydrophobe
1 2 acceptor
1 3 acceptor
1 5 acceptor
1 6 acceptor
1 7 acceptor
5 1 7 16 19 20 rings

> <PUBCHEM_HEAVY_ATOM_COUNT>
23

> <PUBCHEM_ATOM_DEF_STEREO_COUNT>
2

> <PUBCHEM_ATOM_UDEF_STEREO_COUNT>
0

> <PUBCHEM_BOND_DEF_STEREO_COUNT>
2

> <PUBCHEM_BOND_UDEF_STEREO_COUNT>
0

> <PUBCHEM_ISOTOPIC_ATOM_COUNT>
0

> <PUBCHEM_COMPONENT_COUNT>
1

> <PUBCHEM_CACTVS_TAUTO_COUNT>
2

> <PUBCHEM_CONFORMER_ID>
00A3D0D900000001

> <PUBCHEM_MMFF94_ENERGY>
56.9711

> <PUBCHEM_FEATURE_SELFOVERLAP>
35.524

> <PUBCHEM_SHAPE_FINGERPRINT>
11578080 2 18266155323757696160
12363563 72 17560511931976615157
12539773 59 18128231455233613807
12553582 1 18131359617343680992
12633257 1 18408606963323929166
12788726 201 18058748973283636969
12824470 246 18192996139099779151
13631057 29 17832994115316986070
14251751 93 17822280284489067463
17349148 13 18271517624737731846
17977361 122 18341609295990194939
20645477 70 17385731279451904704
20775438 99 16472293581472649247
20775530 9 18119239812340096358
20832881 197 18128812144203755503
23559900 14 18272927267707318112
23728640 28 18130794447102982547
469060 322 16883594428776777576
81228 2 17560256759643837153

> <PUBCHEM_SHAPE_MULTIPOLES>
442.85
8.8
3.52
2.07
9.96
2.49
0.18
1.53
0.22
-1.52
-1.41
-1.33
-1.51
-2.14

> <PUBCHEM_SHAPE_SELFOVERLAP>
883.767

> <PUBCHEM_SHAPE_VOLUME>
265

> <PUBCHEM_COORDINATE_TYPE>
2
5
10

$$$$
