107352
  -OEChem-03292013323D

 27 26  0     1  0  0  0  0  0999 V2000
   -0.5010   -0.4757    1.0190 S   0  0  0  0  0  0  0  0  0  0  0  0
   -1.2545    2.6870   -1.0966 O   0  0  0  0  0  0  0  0  0  0  0  0
    1.3120    0.6281   -1.9341 O   0  0  0  0  0  0  0  0  0  0  0  0
   -0.7892    2.5137    1.1137 O   0  0  0  0  0  0  0  0  0  0  0  0
    1.1026   -1.5902   -1.5259 O   0  0  0  0  0  0  0  0  0  0  0  0
   -3.9110   -1.6213    1.2568 O   0  0  0  0  0  0  0  0  0  0  0  0
    4.2828   -1.3697    0.1267 O   0  0  0  0  0  0  0  0  0  0  0  0
   -3.2602   -1.7929   -0.9128 O   0  0  0  0  0  0  0  0  0  0  0  0
    4.0051    0.8221    0.6548 O   0  0  0  0  0  0  0  0  0  0  0  0
   -1.5286    0.5305   -0.1113 C   0  0  1  0  0  0  0  0  0  0  0  0
    1.1156   -0.0251    0.3530 C   0  0  1  0  0  0  0  0  0  0  0  0
   -3.0071    0.3300    0.2144 C   0  0  0  0  0  0  0  0  0  0  0  0
    2.2169   -0.7289    1.1431 C   0  0  0  0  0  0  0  0  0  0  0  0
   -1.1369    1.9882    0.0641 C   0  0  0  0  0  0  0  0  0  0  0  0
    1.1585   -0.4410   -1.1078 C   0  0  0  0  0  0  0  0  0  0  0  0
   -3.3866   -1.1283    0.1078 C   0  0  0  0  0  0  0  0  0  0  0  0
    3.5816   -0.3266    0.6353 C   0  0  0  0  0  0  0  0  0  0  0  0
   -1.3367    0.2149   -1.1413 H   0  0  0  0  0  0  0  0  0  0  0  0
    1.2744    1.0551    0.4301 H   0  0  0  0  0  0  0  0  0  0  0  0
   -3.2431    0.7019    1.2197 H   0  0  0  0  0  0  0  0  0  0  0  0
   -3.6434    0.8964   -0.4758 H   0  0  0  0  0  0  0  0  0  0  0  0
    2.1807   -0.4736    2.2091 H   0  0  0  0  0  0  0  0  0  0  0  0
    2.1254   -1.8203    1.0698 H   0  0  0  0  0  0  0  0  0  0  0  0
   -1.0185    3.6318   -0.9792 H   0  0  0  0  0  0  0  0  0  0  0  0
    1.3565    0.3578   -2.8761 H   0  0  0  0  0  0  0  0  0  0  0  0
   -4.1639   -2.5650    1.1687 H   0  0  0  0  0  0  0  0  0  0  0  0
    5.1605   -1.0911   -0.2111 H   0  0  0  0  0  0  0  0  0  0  0  0
  1 10  1  0  0  0  0
  1 11  1  0  0  0  0
  2 14  1  0  0  0  0
  2 24  1  0  0  0  0
  3 15  1  0  0  0  0
  3 25  1  0  0  0  0
  4 14  2  0  0  0  0
  5 15  2  0  0  0  0
  6 16  1  0  0  0  0
  6 26  1  0  0  0  0
  7 17  1  0  0  0  0
  7 27  1  0  0  0  0
  8 16  2  0  0  0  0
  9 17  2  0  0  0  0
 10 12  1  0  0  0  0
 10 14  1  0  0  0  0
 10 18  1  0  0  0  0
 11 13  1  0  0  0  0
 11 15  1  0  0  0  0
 11 19  1  0  0  0  0
 12 16  1  0  0  0  0
 12 20  1  0  0  0  0
 12 21  1  0  0  0  0
 13 17  1  0  0  0  0
 13 22  1  0  0  0  0
 13 23  1  0  0  0  0
M  END
> <PUBCHEM_COMPOUND_CID>
107352

> <PUBCHEM_CONFORMER_RMSD>
0.8

> <PUBCHEM_CONFORMER_DIVERSEORDER>
2
20
65
11
49
36
59
29
57
5
61
38
3
63
52
34
6
54
27
37
41
1
19
64
43
28
68
14
33
58
50
55
40
24
51
53
16
26
8
56
30
44
67
45
42
48
60
39
13
46
12
18
47
10
35
4
22
15
7
23
66
17
9
62
25
21
31
32

> <PUBCHEM_MMFF94_PARTIAL_CHARGES>
21
1 -0.46
10 0.29
11 0.29
12 0.06
13 0.06
14 0.66
15 0.66
16 0.66
17 0.66
2 -0.65
24 0.5
25 0.5
26 0.5
27 0.5
3 -0.65
4 -0.57
5 -0.57
6 -0.65
7 -0.65
8 -0.57
9 -0.57

> <PUBCHEM_EFFECTIVE_ROTOR_COUNT>
8

> <PUBCHEM_PHARMACOPHORE_FEATURES>
13
1 2 acceptor
1 3 acceptor
1 4 acceptor
1 5 acceptor
1 6 acceptor
1 7 acceptor
1 8 acceptor
1 9 acceptor
3 2 4 14 anion
3 3 5 15 anion
3 6 8 16 anion
3 7 9 17 anion
5 1 10 11 12 13 hydrophobe

> <PUBCHEM_HEAVY_ATOM_COUNT>
17

> <PUBCHEM_ATOM_DEF_STEREO_COUNT>
0

> <PUBCHEM_ATOM_UDEF_STEREO_COUNT>
2

> <PUBCHEM_BOND_DEF_STEREO_COUNT>
0

> <PUBCHEM_BOND_UDEF_STEREO_COUNT>
0

> <PUBCHEM_ISOTOPIC_ATOM_COUNT>
0

> <PUBCHEM_COMPONENT_COUNT>
1

> <PUBCHEM_CACTVS_TAUTO_COUNT>
1

> <PUBCHEM_CONFORMER_ID>
0001A35800000002

> <PUBCHEM_MMFF94_ENERGY>
29.3465

> <PUBCHEM_FEATURE_SELFOVERLAP>
66.215

> <PUBCHEM_SHAPE_FINGERPRINT>
11132069 177 18060126678480017450
13296909 8 18114738218541197636
13583140 156 17841397429338099802
14787075 74 18117834623974198408
15375462 478 18334288782042886070
15375462 6 18342452634678670906
16945 1 18190438550452008840
17834072 14 17313095384566749764
17844478 74 17846779581109409296
18175812 5 17917701413979765305
18534176 82 18127958716199160297
192875 21 17603308154487371444
20279233 1 17846502513296820847
20671657 53 16950277425184012958
20711985 327 18201438146676077011
21061003 4 17489861648555863345
22112679 90 18189354423418608253
232386 152 18336549403851434943
23402539 116 18409441496791416635
23419403 2 17973132253460310805
23557571 272 18340489967446631657
23559900 14 18336535015953521898
57100710 210 18337099086482086878
81228 2 18266755588507408233

> <PUBCHEM_SHAPE_MULTIPOLES>
306.75
6.72
2.22
1.41
2.38
1.33
-0.42
-3.33
1.4
-1.61
-0.15
0.24
-0.08
0.21

> <PUBCHEM_SHAPE_SELFOVERLAP>
595.822

> <PUBCHEM_SHAPE_VOLUME>
184.5

> <PUBCHEM_COORDINATE_TYPE>
2
5
10

$$$$
