10732876
  -OEChem-03292013303D

 34 36  0     1  0  0  0  0  0999 V2000
    1.7797    0.4184    0.8868 O   0  0  0  0  0  0  0  0  0  0  0  0
    4.5177   -0.8461    0.3611 O   0  0  0  0  0  0  0  0  0  0  0  0
   -0.4562    0.0751   -1.7349 O   0  0  0  0  0  0  0  0  0  0  0  0
    1.7748    3.0275   -0.1359 O   0  0  0  0  0  0  0  0  0  0  0  0
   -0.0867   -3.3450    0.7938 O   0  0  0  0  0  0  0  0  0  0  0  0
   -4.2265   -0.6473   -0.7999 O   0  0  0  0  0  0  0  0  0  0  0  0
    0.1332   -1.0969    0.2026 N   0  0  0  0  0  0  0  0  0  0  0  0
   -1.9030   -2.0474    0.1930 N   0  0  0  0  0  0  0  0  0  0  0  0
   -0.7692    1.1749    0.4510 N   0  0  0  0  0  0  0  0  0  0  0  0
   -3.1043    1.2322    0.0431 N   0  0  0  0  0  0  0  0  0  0  0  0
   -2.0489    3.0040    1.1401 N   0  0  0  0  0  0  0  0  0  0  0  0
    1.5302   -0.9349    0.4811 C   0  0  1  0  0  0  0  0  0  0  0  0
    2.4086   -1.2148   -0.7274 C   0  0  0  0  0  0  0  0  0  0  0  0
    3.5624   -0.2609   -0.5209 C   0  0  1  0  0  0  0  0  0  0  0  0
    2.9037    0.9367    0.1496 C   0  0  1  0  0  0  0  0  0  0  0  0
   -0.7025   -0.0470   -0.3433 C   0  0  1  0  0  0  0  0  0  0  0  0
    2.3774    1.9596   -0.8488 C   0  0  0  0  0  0  0  0  0  0  0  0
   -1.9693   -0.8135   -0.1815 C   0  0  0  0  0  0  0  0  0  0  0  0
   -0.5642   -2.2782    0.4274 C   0  0  0  0  0  0  0  0  0  0  0  0
   -3.2397   -0.0760   -0.3752 C   0  0  0  0  0  0  0  0  0  0  0  0
   -1.9174    1.7796    0.5383 C   0  0  0  0  0  0  0  0  0  0  0  0
    1.8136   -1.5921    1.3116 H   0  0  0  0  0  0  0  0  0  0  0  0
    1.9000   -0.9719   -1.6654 H   0  0  0  0  0  0  0  0  0  0  0  0
    2.7030   -2.2683   -0.7713 H   0  0  0  0  0  0  0  0  0  0  0  0
    4.0840   -0.0032   -1.4476 H   0  0  0  0  0  0  0  0  0  0  0  0
    3.5648    1.4233    0.8753 H   0  0  0  0  0  0  0  0  0  0  0  0
    1.6266    1.5352   -1.5180 H   0  0  0  0  0  0  0  0  0  0  0  0
    3.1969    2.3655   -1.4505 H   0  0  0  0  0  0  0  0  0  0  0  0
    4.8723   -1.6379   -0.0782 H   0  0  0  0  0  0  0  0  0  0  0  0
   -0.2960   -0.8182   -2.0833 H   0  0  0  0  0  0  0  0  0  0  0  0
   -3.9387    1.8114    0.0602 H   0  0  0  0  0  0  0  0  0  0  0  0
    1.4529    3.6662   -0.7948 H   0  0  0  0  0  0  0  0  0  0  0  0
   -2.9492    3.4658    1.2093 H   0  0  0  0  0  0  0  0  0  0  0  0
   -1.2472    3.4832    1.5355 H   0  0  0  0  0  0  0  0  0  0  0  0
  1 12  1  0  0  0  0
  1 15  1  0  0  0  0
  2 14  1  0  0  0  0
  2 29  1  0  0  0  0
  3 16  1  0  0  0  0
  3 30  1  0  0  0  0
  4 17  1  0  0  0  0
  4 32  1  0  0  0  0
  5 19  2  0  0  0  0
  6 20  2  0  0  0  0
  7 12  1  0  0  0  0
  7 16  1  0  0  0  0
  7 19  1  0  0  0  0
  8 18  2  0  0  0  0
  8 19  1  0  0  0  0
  9 16  1  0  0  0  0
  9 21  2  0  0  0  0
 10 20  1  0  0  0  0
 10 21  1  0  0  0  0
 10 31  1  0  0  0  0
 11 21  1  0  0  0  0
 11 33  1  0  0  0  0
 11 34  1  0  0  0  0
 12 13  1  0  0  0  0
 12 22  1  0  0  0  0
 13 14  1  0  0  0  0
 13 23  1  0  0  0  0
 13 24  1  0  0  0  0
 14 15  1  0  0  0  0
 14 25  1  0  0  0  0
 15 17  1  0  0  0  0
 15 26  1  0  0  0  0
 16 18  1  0  0  0  0
 17 27  1  0  0  0  0
 17 28  1  0  0  0  0
 18 20  1  0  0  0  0
M  END
> <PUBCHEM_COMPOUND_CID>
10732876

> <PUBCHEM_CONFORMER_RMSD>
0.6

> <PUBCHEM_CONFORMER_DIVERSEORDER>
2
16
20
8
24
9
14
10
4
21
25
12
3
1
18
19
22
23
13
7
11
6
17
15
5

> <PUBCHEM_MMFF94_PARTIAL_CHARGES>
26
1 -0.56
10 -0.49
11 -0.85
12 0.58
14 0.28
15 0.28
16 0.89
17 0.28
18 0.39
19 0.84
2 -0.68
20 0.63
21 0.56
29 0.4
3 -0.68
30 0.4
31 0.37
32 0.4
33 0.4
34 0.4
4 -0.68
5 -0.57
6 -0.57
7 -0.66
8 -0.66
9 -0.7

> <PUBCHEM_EFFECTIVE_ROTOR_COUNT>
3.4

> <PUBCHEM_PHARMACOPHORE_FEATURES>
16
1 1 acceptor
1 10 donor
1 11 donor
1 2 acceptor
1 2 donor
1 3 acceptor
1 3 donor
1 4 acceptor
1 4 donor
1 5 acceptor
1 6 acceptor
1 8 acceptor
1 8 donor
5 1 12 13 14 15 rings
5 7 8 16 18 19 rings
6 9 10 16 18 20 21 rings

> <PUBCHEM_HEAVY_ATOM_COUNT>
21

> <PUBCHEM_ATOM_DEF_STEREO_COUNT>
3

> <PUBCHEM_ATOM_UDEF_STEREO_COUNT>
1

> <PUBCHEM_BOND_DEF_STEREO_COUNT>
0

> <PUBCHEM_BOND_UDEF_STEREO_COUNT>
0

> <PUBCHEM_ISOTOPIC_ATOM_COUNT>
0

> <PUBCHEM_COMPONENT_COUNT>
1

> <PUBCHEM_CACTVS_TAUTO_COUNT>
5

> <PUBCHEM_CONFORMER_ID>
00A3C54C00000002

> <PUBCHEM_MMFF94_ENERGY>
49.5382

> <PUBCHEM_FEATURE_SELFOVERLAP>
81.464

> <PUBCHEM_SHAPE_FINGERPRINT>
10382601 240 17333115034666664928
10608611 8 18265334100102506414
10967382 1 18410012147620959274
12491281 212 18335435529504666704
13027679 85 17617666891830652621
13140716 1 18265339576006811939
13583140 156 16877937274153945233
14223421 5 17975700811432851320
14787075 74 18192991745807554303
15309172 13 18187651253931293739
15442244 35 18410294684034899224
15775835 57 17748541541767820214
16945 1 18339654398602030874
1813 80 16806999932827213810
18186145 218 18335693945034106359
18219364 16 18114742616513881837
192875 21 18340477932943039100
20510252 161 18264775539542670163
21501502 16 18264211485982899342
21524375 3 18340487755369662695
2334 1 17977948217289342482
23402539 116 18341601578276874990
23419403 2 16390372260073127014
23557571 272 17346883333811967517
23558518 356 18269283378360426555
23559900 14 18340763853506118186
2748010 2 16175655330334016411
352729 6 18336834189863289730
474 4 18335989653675139865
7364860 26 18270679900062622064
74978 22 18334859467448685170
7832392 63 18053388695083938932
9709674 26 18272094898333674102
9981440 41 17468476367025079864

> <PUBCHEM_SHAPE_MULTIPOLES>
372.05
6.07
3.04
0.98
1.28
0.46
-0.16
0.55
-0.71
-0.43
0.84
-0.05
0.11
-0.59

> <PUBCHEM_SHAPE_SELFOVERLAP>
811.108

> <PUBCHEM_SHAPE_VOLUME>
201.7

> <PUBCHEM_COORDINATE_TYPE>
2
5
10

$$$$
