10739389
  -OEChem-03292013303D

 54 58  0     1  0  0  0  0  0999 V2000
   -1.2787    1.6047   -1.7999 O   0  0  0  0  0  0  0  0  0  0  0  0
   -0.4631   -2.7936    0.1348 O   0  0  0  0  0  0  0  0  0  0  0  0
   -0.3451    2.9616   -0.1173 O   0  0  0  0  0  0  0  0  0  0  0  0
   -3.8975    0.8389   -1.2347 O   0  0  0  0  0  0  0  0  0  0  0  0
   -2.1119    1.8499    1.7636 O   0  0  0  0  0  0  0  0  0  0  0  0
    1.8163    2.4697    1.2195 O   0  0  0  0  0  0  0  0  0  0  0  0
   -1.4880   -3.6492    1.9354 O   0  0  0  0  0  0  0  0  0  0  0  0
    4.3847    1.7988    1.4101 O   0  0  0  0  0  0  0  0  0  0  0  0
   -1.0326   -0.5412   -0.8002 C   0  0  2  0  0  0  0  0  0  0  0  0
   -0.2036    0.4907    0.0048 C   0  0  1  0  0  0  0  0  0  0  0  0
    1.3724    0.4821   -0.2421 C   0  0  2  0  0  0  0  0  0  0  0  0
   -2.4355   -0.7691   -0.1301 C   0  0  2  0  0  0  0  0  0  0  0  0
   -1.0242    1.7474   -0.3861 C   0  0  2  0  0  0  0  0  0  0  0  0
   -0.3812   -1.9054   -1.0115 C   0  0  1  0  0  0  0  0  0  0  0  0
   -3.2765    0.5458    0.0338 C   0  0  1  0  0  0  0  0  0  0  0  0
    1.8676   -1.0143   -0.2819 C   0  0  1  0  0  0  0  0  0  0  0  0
   -1.2230    0.2066   -2.1279 C   0  0  0  0  0  0  0  0  0  0  0  0
   -2.3844    1.7668    0.3645 C   0  0  1  0  0  0  0  0  0  0  0  0
    1.1097   -1.8237   -1.3526 C   0  0  0  0  0  0  0  0  0  0  0  0
    2.1067    1.1035    0.9965 C   0  0  1  0  0  0  0  0  0  0  0  0
   -2.2660   -1.5332    1.1825 C   0  0  0  0  0  0  0  0  0  0  0  0
    1.8017    1.2456   -1.5273 C   0  0  0  0  0  0  0  0  0  0  0  0
    3.3890   -1.1367   -0.3316 C   0  0  0  0  0  0  0  0  0  0  0  0
   -4.4522    0.4090    1.0140 C   0  0  0  0  0  0  0  0  0  0  0  0
   -1.3987   -2.7524    1.0987 C   0  0  0  0  0  0  0  0  0  0  0  0
    3.6218    0.9713    0.9136 C   0  0  0  0  0  0  0  0  0  0  0  0
    4.1888   -0.2167    0.2322 C   0  0  0  0  0  0  0  0  0  0  0  0
    4.0035   -2.3567   -0.9607 C   0  0  0  0  0  0  0  0  0  0  0  0
   -0.3086    0.3018    1.0782 H   0  0  0  0  0  0  0  0  0  0  0  0
   -2.9980   -1.4318   -0.8063 H   0  0  0  0  0  0  0  0  0  0  0  0
   -0.8882   -2.4375   -1.8264 H   0  0  0  0  0  0  0  0  0  0  0  0
    1.6022   -1.4715    0.6848 H   0  0  0  0  0  0  0  0  0  0  0  0
   -0.4130    0.0549   -2.8423 H   0  0  0  0  0  0  0  0  0  0  0  0
   -2.1351   -0.0828   -2.6595 H   0  0  0  0  0  0  0  0  0  0  0  0
   -2.9285    2.6808    0.0913 H   0  0  0  0  0  0  0  0  0  0  0  0
    1.2658   -1.4046   -2.3510 H   0  0  0  0  0  0  0  0  0  0  0  0
    1.4931   -2.8508   -1.3853 H   0  0  0  0  0  0  0  0  0  0  0  0
    1.8019    0.5647    1.9039 H   0  0  0  0  0  0  0  0  0  0  0  0
   -3.2492   -1.8886    1.5140 H   0  0  0  0  0  0  0  0  0  0  0  0
   -1.8611   -0.8968    1.9752 H   0  0  0  0  0  0  0  0  0  0  0  0
    2.8891    1.2781   -1.6473 H   0  0  0  0  0  0  0  0  0  0  0  0
    1.4254    0.7929   -2.4427 H   0  0  0  0  0  0  0  0  0  0  0  0
    1.4793    2.2891   -1.5162 H   0  0  0  0  0  0  0  0  0  0  0  0
   -5.0773    1.3097    0.9905 H   0  0  0  0  0  0  0  0  0  0  0  0
   -5.1043   -0.4239    0.7264 H   0  0  0  0  0  0  0  0  0  0  0  0
   -4.1270    0.2541    2.0468 H   0  0  0  0  0  0  0  0  0  0  0  0
   -0.9959    3.6825   -0.0935 H   0  0  0  0  0  0  0  0  0  0  0  0
   -4.4730    0.0907   -1.4687 H   0  0  0  0  0  0  0  0  0  0  0  0
   -1.5544    2.6334    1.9080 H   0  0  0  0  0  0  0  0  0  0  0  0
    5.2697   -0.3066    0.2200 H   0  0  0  0  0  0  0  0  0  0  0  0
    2.1877    2.7154    2.0841 H   0  0  0  0  0  0  0  0  0  0  0  0
    5.0947   -2.3682   -0.8627 H   0  0  0  0  0  0  0  0  0  0  0  0
    3.7750   -2.3957   -2.0304 H   0  0  0  0  0  0  0  0  0  0  0  0
    3.6266   -3.2652   -0.4798 H   0  0  0  0  0  0  0  0  0  0  0  0
  1 13  1  0  0  0  0
  1 17  1  0  0  0  0
  2 14  1  0  0  0  0
  2 25  1  0  0  0  0
  3 13  1  0  0  0  0
  3 47  1  0  0  0  0
  4 15  1  0  0  0  0
  4 48  1  0  0  0  0
  5 18  1  0  0  0  0
  5 49  1  0  0  0  0
  6 20  1  0  0  0  0
  6 51  1  0  0  0  0
  7 25  2  0  0  0  0
  8 26  2  0  0  0  0
  9 10  1  0  0  0  0
  9 12  1  0  0  0  0
  9 14  1  0  0  0  0
  9 17  1  0  0  0  0
 10 11  1  0  0  0  0
 10 13  1  0  0  0  0
 10 29  1  0  0  0  0
 11 16  1  0  0  0  0
 11 20  1  0  0  0  0
 11 22  1  0  0  0  0
 12 15  1  0  0  0  0
 12 21  1  0  0  0  0
 12 30  1  0  0  0  0
 13 18  1  0  0  0  0
 14 19  1  0  0  0  0
 14 31  1  0  0  0  0
 15 18  1  0  0  0  0
 15 24  1  0  0  0  0
 16 19  1  0  0  0  0
 16 23  1  0  0  0  0
 16 32  1  0  0  0  0
 17 33  1  0  0  0  0
 17 34  1  0  0  0  0
 18 35  1  0  0  0  0
 19 36  1  0  0  0  0
 19 37  1  0  0  0  0
 20 26  1  0  0  0  0
 20 38  1  0  0  0  0
 21 25  1  0  0  0  0
 21 39  1  0  0  0  0
 21 40  1  0  0  0  0
 22 41  1  0  0  0  0
 22 42  1  0  0  0  0
 22 43  1  0  0  0  0
 23 27  2  0  0  0  0
 23 28  1  0  0  0  0
 24 44  1  0  0  0  0
 24 45  1  0  0  0  0
 24 46  1  0  0  0  0
 26 27  1  0  0  0  0
 27 50  1  0  0  0  0
 28 52  1  0  0  0  0
 28 53  1  0  0  0  0
 28 54  1  0  0  0  0
M  END
> <PUBCHEM_COMPOUND_CID>
10739389

> <PUBCHEM_CONFORMER_RMSD>
0.6

> <PUBCHEM_CONFORMER_DIVERSEORDER>
1
2

> <PUBCHEM_MMFF94_PARTIAL_CHARGES>
26
1 -0.56
13 0.56
14 0.28
15 0.28
16 0.14
17 0.28
18 0.28
2 -0.43
20 0.34
21 0.06
23 -0.28
25 0.66
26 0.49
27 -0.14
28 0.14
3 -0.68
4 -0.68
47 0.4
48 0.4
49 0.4
5 -0.68
50 0.15
51 0.4
6 -0.68
7 -0.57
8 -0.57

> <PUBCHEM_EFFECTIVE_ROTOR_COUNT>
1.6

> <PUBCHEM_PHARMACOPHORE_FEATURES>
15
1 1 acceptor
1 3 acceptor
1 3 donor
1 4 acceptor
1 4 donor
1 5 acceptor
1 5 donor
1 6 acceptor
1 6 donor
1 7 acceptor
1 8 acceptor
6 11 16 20 23 26 27 rings
6 2 9 12 14 21 25 rings
6 9 10 11 14 16 19 rings
8 1 9 10 12 13 15 17 18 rings

> <PUBCHEM_HEAVY_ATOM_COUNT>
28

> <PUBCHEM_ATOM_DEF_STEREO_COUNT>
10

> <PUBCHEM_ATOM_UDEF_STEREO_COUNT>
0

> <PUBCHEM_BOND_DEF_STEREO_COUNT>
0

> <PUBCHEM_BOND_UDEF_STEREO_COUNT>
0

> <PUBCHEM_ISOTOPIC_ATOM_COUNT>
0

> <PUBCHEM_COMPONENT_COUNT>
1

> <PUBCHEM_CACTVS_TAUTO_COUNT>
13

> <PUBCHEM_CONFORMER_ID>
00A3DEBD00000001

> <PUBCHEM_MMFF94_ENERGY>
122.8386

> <PUBCHEM_FEATURE_SELFOVERLAP>
76.367

> <PUBCHEM_SHAPE_FINGERPRINT>
10165383 225 17395871868488008820
10366900 7 18343581858758325292
10863032 1 17703779362312009279
10948715 1 18131349666020078469
10967382 1 18272926112065475756
11370993 70 18412259515102339329
11578080 2 16270496729323759378
11640471 11 15769784549856167374
11680986 33 18412548742663837046
12011746 2 18336834069767300759
12035758 1 18408893944612230715
12156800 1 15398035197818543700
12422481 6 18047222845305066619
12553582 1 17543082624098849402
12633257 1 18411137996173006210
12788726 201 17478336332226423078
13140716 1 18336832003977825314
13224815 77 18410294743974634956
14223421 5 18268148849848514088
14787075 74 18272643576363633721
15209289 33 18197503921988515358
15295992 7 18202009815028292946
16945 1 17976263761497036151
19930381 70 17987512619831600958
20600515 1 17895473755774774871
20691752 17 18336543824535910709
20905425 154 17692252936983643439
21033648 29 18187917340088188589
21330990 113 18115316566036641043
23419403 2 17033286369735631575
23558518 356 18342747273603933161
23559900 14 18336272271482371230
238 59 17762865832898693964
2748010 2 18340779246263076342
3493558 16 14902293820136293865
350125 39 18270408170071196572
35225 105 17313403221973843003
392239 28 18340782442230272499
4340502 62 18410013209274485977
70251023 43 17839732674402732327
81228 2 18188207731406397431
9709674 26 18341330076103657086
9981440 41 17340366674839863448

> <PUBCHEM_SHAPE_MULTIPOLES>
529.27
6.76
3.28
1.68
2.74
1.38
0.15
-0.82
-1.51
0.01
-1.12
-0.35
0.05
1.58

> <PUBCHEM_SHAPE_SELFOVERLAP>
1170.115

> <PUBCHEM_SHAPE_VOLUME>
274.9

> <PUBCHEM_COORDINATE_TYPE>
2
5
10

$$$$
