10743861
  -OEChem-03292013303D

 68 70  0     1  0  0  0  0  0999 V2000
    2.3284   -4.5714    0.8850 O   0  0  0  0  0  0  0  0  0  0  0  0
    1.5723   -2.6536   -2.1686 O   0  0  0  0  0  0  0  0  0  0  0  0
    5.5663   -4.0087    0.8003 O   0  0  0  0  0  0  0  0  0  0  0  0
    3.8613    0.5187    0.7385 O   0  0  0  0  0  0  0  0  0  0  0  0
   -7.8470    2.3525    1.7707 O   0  0  0  0  0  0  0  0  0  0  0  0
  -10.0138    0.2086   -1.8032 O   0  0  0  0  0  0  0  0  0  0  0  0
   -6.2693    0.4518    1.4292 O   0  0  0  0  0  0  0  0  0  0  0  0
    5.1956   -1.3229    0.2336 N   0  0  0  0  0  0  0  0  0  0  0  0
   -7.3730    0.6202   -0.6155 N   0  0  0  0  0  0  0  0  0  0  0  0
    2.1044   -4.2241   -0.4911 C   0  0  2  0  0  0  0  0  0  0  0  0
    3.4571   -4.6472    0.0014 C   0  0  1  0  0  0  0  0  0  0  0  0
    1.8337   -2.7675   -0.7603 C   0  0  1  0  0  0  0  0  0  0  0  0
    4.5012   -3.6524    0.3116 C   0  0  0  0  0  0  0  0  0  0  0  0
    3.0046   -1.8509   -0.4730 C   0  0  0  0  0  0  0  0  0  0  0  0
    4.2004   -2.2284    0.0046 C   0  0  0  0  0  0  0  0  0  0  0  0
    0.6030   -2.2858   -0.0379 C   0  0  0  0  0  0  0  0  0  0  0  0
   -0.5320   -1.9326   -0.6597 C   0  0  0  0  0  0  0  0  0  0  0  0
    4.9620   -0.0025    0.5871 C   0  0  0  0  0  0  0  0  0  0  0  0
   -1.7242   -1.4377   -0.0068 C   0  0  0  0  0  0  0  0  0  0  0  0
    7.4032    2.9524    1.3414 C   0  0  2  0  0  0  0  0  0  0  0  0
    6.2351    0.7516    0.7703 C   0  0  0  0  0  0  0  0  0  0  0  0
    7.5222    4.2076    0.4502 C   0  0  0  0  0  0  0  0  0  0  0  0
    6.2095    2.0474    1.1146 C   0  0  0  0  0  0  0  0  0  0  0  0
    7.5136    3.8844   -1.0490 C   0  0  0  0  0  0  0  0  0  0  0  0
   -2.8580   -1.0852   -0.6325 C   0  0  0  0  0  0  0  0  0  0  0  0
    7.4192    3.3808    2.8130 C   0  0  0  0  0  0  0  0  0  0  0  0
    7.5269    5.1619   -1.8896 C   0  0  0  0  0  0  0  0  0  0  0  0
   -4.0140   -0.5654    0.0662 C   0  0  0  0  0  0  0  0  0  0  0  0
    7.4623    4.8509   -3.3766 C   0  0  0  0  0  0  0  0  0  0  0  0
  -10.2305    2.2644    1.1055 C   0  0  0  0  0  0  0  0  0  0  0  0
  -10.9636    1.5793   -0.0482 C   0  0  0  0  0  0  0  0  0  0  0  0
   -8.5563    1.1235   -0.1585 C   0  0  0  0  0  0  0  0  0  0  0  0
   -8.7977    1.8958    0.8989 C   0  0  0  0  0  0  0  0  0  0  0  0
   -9.8579    0.8843   -0.7974 C   0  0  0  0  0  0  0  0  0  0  0  0
   -5.1436   -0.2152   -0.5645 C   0  0  0  0  0  0  0  0  0  0  0  0
   -6.3015    0.3154    0.2101 C   0  0  0  0  0  0  0  0  0  0  0  0
    1.5090   -4.9116   -1.0771 H   0  0  0  0  0  0  0  0  0  0  0  0
    3.8011   -5.6341   -0.2854 H   0  0  0  0  0  0  0  0  0  0  0  0
    2.8223   -0.8200   -0.7668 H   0  0  0  0  0  0  0  0  0  0  0  0
    0.6594   -2.2182    1.0474 H   0  0  0  0  0  0  0  0  0  0  0  0
    2.3667   -2.9457   -2.6488 H   0  0  0  0  0  0  0  0  0  0  0  0
    6.1359   -1.6967    0.3390 H   0  0  0  0  0  0  0  0  0  0  0  0
   -0.6114   -1.9984   -1.7419 H   0  0  0  0  0  0  0  0  0  0  0  0
   -1.6641   -1.3433    1.0763 H   0  0  0  0  0  0  0  0  0  0  0  0
    8.3118    2.3574    1.1726 H   0  0  0  0  0  0  0  0  0  0  0  0
    7.1777    0.2360    0.6219 H   0  0  0  0  0  0  0  0  0  0  0  0
    6.6883    4.8862    0.6732 H   0  0  0  0  0  0  0  0  0  0  0  0
    8.4450    4.7475    0.6977 H   0  0  0  0  0  0  0  0  0  0  0  0
    5.2468    2.5377    1.2525 H   0  0  0  0  0  0  0  0  0  0  0  0
    8.3837    3.2645   -1.2965 H   0  0  0  0  0  0  0  0  0  0  0  0
    6.6189    3.3044   -1.3033 H   0  0  0  0  0  0  0  0  0  0  0  0
   -2.9289   -1.1738   -1.7143 H   0  0  0  0  0  0  0  0  0  0  0  0
    7.4123    2.5098    3.4782 H   0  0  0  0  0  0  0  0  0  0  0  0
    6.5494    4.0002    3.0599 H   0  0  0  0  0  0  0  0  0  0  0  0
    8.3207    3.9606    3.0398 H   0  0  0  0  0  0  0  0  0  0  0  0
    6.6735    5.7952   -1.6204 H   0  0  0  0  0  0  0  0  0  0  0  0
    8.4366    5.7360   -1.6789 H   0  0  0  0  0  0  0  0  0  0  0  0
    6.5447    4.3080   -3.6246 H   0  0  0  0  0  0  0  0  0  0  0  0
    8.3171    4.2415   -3.6869 H   0  0  0  0  0  0  0  0  0  0  0  0
    7.4763    5.7777   -3.9586 H   0  0  0  0  0  0  0  0  0  0  0  0
   -3.9312   -0.4684    1.1457 H   0  0  0  0  0  0  0  0  0  0  0  0
  -10.5975    1.9025    2.0715 H   0  0  0  0  0  0  0  0  0  0  0  0
  -10.3701    3.3497    1.0677 H   0  0  0  0  0  0  0  0  0  0  0  0
  -11.4560    2.3084   -0.6978 H   0  0  0  0  0  0  0  0  0  0  0  0
  -11.6874    0.8456    0.3179 H   0  0  0  0  0  0  0  0  0  0  0  0
   -5.2406   -0.3058   -1.6420 H   0  0  0  0  0  0  0  0  0  0  0  0
   -7.3698    0.2744   -1.5720 H   0  0  0  0  0  0  0  0  0  0  0  0
   -8.3015    2.8897    2.4425 H   0  0  0  0  0  0  0  0  0  0  0  0
  1 10  1  0  0  0  0
  1 11  1  0  0  0  0
  2 12  1  0  0  0  0
  2 41  1  0  0  0  0
  3 13  2  0  0  0  0
  4 18  2  0  0  0  0
  5 33  1  0  0  0  0
  5 68  1  0  0  0  0
  6 34  2  0  0  0  0
  7 36  2  0  0  0  0
  8 15  1  0  0  0  0
  8 18  1  0  0  0  0
  8 42  1  0  0  0  0
  9 32  1  0  0  0  0
  9 36  1  0  0  0  0
  9 67  1  0  0  0  0
 10 11  1  0  0  0  0
 10 12  1  0  0  0  0
 10 37  1  0  0  0  0
 11 13  1  0  0  0  0
 11 38  1  0  0  0  0
 12 14  1  0  0  0  0
 12 16  1  0  0  0  0
 13 15  1  0  0  0  0
 14 15  2  0  0  0  0
 14 39  1  0  0  0  0
 16 17  2  0  0  0  0
 16 40  1  0  0  0  0
 17 19  1  0  0  0  0
 17 43  1  0  0  0  0
 18 21  1  0  0  0  0
 19 25  2  0  0  0  0
 19 44  1  0  0  0  0
 20 22  1  0  0  0  0
 20 23  1  0  0  0  0
 20 26  1  0  0  0  0
 20 45  1  0  0  0  0
 21 23  2  0  0  0  0
 21 46  1  0  0  0  0
 22 24  1  0  0  0  0
 22 47  1  0  0  0  0
 22 48  1  0  0  0  0
 23 49  1  0  0  0  0
 24 27  1  0  0  0  0
 24 50  1  0  0  0  0
 24 51  1  0  0  0  0
 25 28  1  0  0  0  0
 25 52  1  0  0  0  0
 26 53  1  0  0  0  0
 26 54  1  0  0  0  0
 26 55  1  0  0  0  0
 27 29  1  0  0  0  0
 27 56  1  0  0  0  0
 27 57  1  0  0  0  0
 28 35  2  0  0  0  0
 28 61  1  0  0  0  0
 29 58  1  0  0  0  0
 29 59  1  0  0  0  0
 29 60  1  0  0  0  0
 30 31  1  0  0  0  0
 30 33  1  0  0  0  0
 30 62  1  0  0  0  0
 30 63  1  0  0  0  0
 31 34  1  0  0  0  0
 31 64  1  0  0  0  0
 31 65  1  0  0  0  0
 32 33  2  0  0  0  0
 32 34  1  0  0  0  0
 35 36  1  0  0  0  0
 35 66  1  0  0  0  0
M  END
> <PUBCHEM_COMPOUND_CID>
10743861

> <PUBCHEM_CONFORMER_RMSD>
1.2

> <PUBCHEM_CONFORMER_DIVERSEORDER>
1
11
26
18
25
24
9
19
15
12
16
10
27
6
3
17
14
20
13
2
22
7
4
23
8
5
21

> <PUBCHEM_MMFF94_PARTIAL_CHARGES>
46
1 -0.3
10 -0.05
11 0.05
12 0.65
13 0.56
14 -0.29
15 0.12
16 -0.29
17 -0.15
18 0.62
19 -0.15
2 -0.68
20 0.14
21 -0.14
23 -0.29
25 -0.15
28 -0.15
3 -0.57
30 0.14
31 0.06
32 0.12
33 -0.06
34 0.49
35 -0.14
36 0.62
37 0.1
38 0.1
39 0.15
4 -0.57
40 0.15
41 0.4
42 0.37
43 0.15
44 0.15
46 0.15
49 0.15
5 -0.53
52 0.15
6 -0.57
61 0.15
66 0.15
67 0.37
68 0.45
7 -0.57
8 -0.54
9 -0.54

> <PUBCHEM_EFFECTIVE_ROTOR_COUNT>
13.8

> <PUBCHEM_PHARMACOPHORE_FEATURES>
15
1 1 acceptor
1 2 acceptor
1 2 donor
1 26 hydrophobe
1 29 hydrophobe
1 3 acceptor
1 4 acceptor
1 5 donor
1 6 acceptor
1 7 acceptor
1 8 donor
1 9 donor
5 20 22 23 24 27 hydrophobe
5 30 31 32 33 34 rings
7 1 10 11 12 13 14 15 rings

> <PUBCHEM_HEAVY_ATOM_COUNT>
36

> <PUBCHEM_ATOM_DEF_STEREO_COUNT>
3

> <PUBCHEM_ATOM_UDEF_STEREO_COUNT>
1

> <PUBCHEM_BOND_DEF_STEREO_COUNT>
4

> <PUBCHEM_BOND_UDEF_STEREO_COUNT>
0

> <PUBCHEM_ISOTOPIC_ATOM_COUNT>
0

> <PUBCHEM_COMPONENT_COUNT>
1

> <PUBCHEM_CACTVS_TAUTO_COUNT>
40

> <PUBCHEM_CONFORMER_ID>
00A3F03500000001

> <PUBCHEM_MMFF94_ENERGY>
69.9771

> <PUBCHEM_FEATURE_SELFOVERLAP>
76.129

> <PUBCHEM_SHAPE_FINGERPRINT>
10533779 1 18200021971706046760
11135609 127 18343576322345670658
11374522 174 18262807401413664396
12522641 24 18189331260455000410
14142895 15 18201714055876663383
14400156 96 18408600374733106452
14617042 71 18413952789327920881
15131766 46 18130211752947446551
15419008 91 17895465918287297319
15604295 49 18338511921509595181
15773879 343 18272088322702561465
15840311 113 18343019956444927030
16067689 134 18193279826666168924
19304671 126 17917717924736209244
20609170 45 18342187666591127884
21362267 2 18338221663124219741
21895439 516 10591749996726081365
23523787 8 15195288690057657780
23523788 1 13985479446046448778
23569914 152 17773623602197072956
3525247 18 17483095421951850080
4073 2 18410854374446649691
45270241 37 18343022164126740671
4760202 70 18200861943181639599
54583773 228 18130500929961062199
57676310 115 18042977652781120916

> <PUBCHEM_SHAPE_MULTIPOLES>
689.82
39.81
7.74
1.92
99.96
0.59
-0.63
-59.91
2.07
-25.8
-2.04
-4.06
-3.04
-4.62

> <PUBCHEM_SHAPE_SELFOVERLAP>
1434.147

> <PUBCHEM_SHAPE_VOLUME>
389.5

> <PUBCHEM_COORDINATE_TYPE>
2
5
10

$$$$
