10765968
  -OEChem-03292013303D

 69 71  0     1  0  0  0  0  0999 V2000
    1.2945   -0.2774    0.3522 O   0  0  0  0  0  0  0  0  0  0  0  0
   -2.2352    0.6648    0.8372 O   0  0  0  0  0  0  0  0  0  0  0  0
    2.9760    0.6216   -1.0062 O   0  0  0  0  0  0  0  0  0  0  0  0
   -3.5514    0.0315   -0.9931 O   0  0  0  0  0  0  0  0  0  0  0  0
   -0.5090    2.7418    0.2413 O   0  0  0  0  0  0  0  0  0  0  0  0
    6.2677    0.5772    0.6364 O   0  0  0  0  0  0  0  0  0  0  0  0
    3.3072   -2.1498   -0.2546 O   0  0  0  0  0  0  0  0  0  0  0  0
   -6.9272   -0.1115    1.3685 O   0  0  0  0  0  0  0  0  0  0  0  0
   -6.9226   -1.4263   -1.2055 O   0  0  0  0  0  0  0  0  0  0  0  0
    7.8196   -1.1422    0.9801 O   0  0  0  0  0  0  0  0  0  0  0  0
   -1.0312    0.3856    0.1342 C   0  0  1  0  0  0  0  0  0  0  0  0
   -0.6141    1.6320   -0.6515 C   0  0  2  0  0  0  0  0  0  0  0  0
    0.0864   -0.0561    1.0905 C   0  0  1  0  0  0  0  0  0  0  0  0
    0.7378    1.3952   -1.3178 C   0  0  0  0  0  0  0  0  0  0  0  0
    1.7692    0.8994   -0.3017 C   0  0  1  0  0  0  0  0  0  0  0  0
    3.9949    0.1527   -0.1269 C   0  0  1  0  0  0  0  0  0  0  0  0
   -3.3020   -0.1697    0.3980 C   0  0  2  0  0  0  0  0  0  0  0  0
    4.3949   -1.2695   -0.5241 C   0  0  1  0  0  0  0  0  0  0  0  0
    5.2052    1.0943   -0.1703 C   0  0  1  0  0  0  0  0  0  0  0  0
   -4.5436    0.1925    1.2040 C   0  0  0  0  0  0  0  0  0  0  0  0
   -5.7510   -0.6149    0.7415 C   0  0  2  0  0  0  0  0  0  0  0  0
   -5.9142   -0.5152   -0.7764 C   0  0  1  0  0  0  0  0  0  0  0  0
   -4.5904   -0.8171   -1.4904 C   0  0  1  0  0  0  0  0  0  0  0  0
    5.6202   -1.7203    0.2628 C   0  0  0  0  0  0  0  0  0  0  0  0
   -0.2489   -1.3603    1.8069 C   0  0  0  0  0  0  0  0  0  0  0  0
    6.7380   -0.6884    0.1730 C   0  0  1  0  0  0  0  0  0  0  0  0
    4.8569    2.4818    0.3593 C   0  0  0  0  0  0  0  0  0  0  0  0
   -4.6970   -0.5833   -2.9941 C   0  0  0  0  0  0  0  0  0  0  0  0
   -0.5839    3.9755   -0.4564 C   0  0  0  0  0  0  0  0  0  0  0  0
    3.4087   -3.3459   -1.0128 C   0  0  0  0  0  0  0  0  0  0  0  0
   -7.0552   -0.5980    2.6962 C   0  0  0  0  0  0  0  0  0  0  0  0
   -1.1670   -0.4242   -0.5984 H   0  0  0  0  0  0  0  0  0  0  0  0
   -1.3840    1.8454   -1.4040 H   0  0  0  0  0  0  0  0  0  0  0  0
    0.2666    0.7074    1.8580 H   0  0  0  0  0  0  0  0  0  0  0  0
    1.1240    2.2863   -1.8223 H   0  0  0  0  0  0  0  0  0  0  0  0
    0.6168    0.6328   -2.0991 H   0  0  0  0  0  0  0  0  0  0  0  0
    1.9670    1.6792    0.4453 H   0  0  0  0  0  0  0  0  0  0  0  0
    3.6380    0.1141    0.9135 H   0  0  0  0  0  0  0  0  0  0  0  0
   -3.0311   -1.2186    0.5776 H   0  0  0  0  0  0  0  0  0  0  0  0
    4.6110   -1.2754   -1.6015 H   0  0  0  0  0  0  0  0  0  0  0  0
    5.5616    1.2113   -1.2023 H   0  0  0  0  0  0  0  0  0  0  0  0
   -4.3446    0.0465    2.2716 H   0  0  0  0  0  0  0  0  0  0  0  0
   -4.7581    1.2647    1.0962 H   0  0  0  0  0  0  0  0  0  0  0  0
   -5.6212   -1.6735    1.0062 H   0  0  0  0  0  0  0  0  0  0  0  0
   -6.2619    0.4934   -1.0321 H   0  0  0  0  0  0  0  0  0  0  0  0
   -4.3010   -1.8651   -1.3367 H   0  0  0  0  0  0  0  0  0  0  0  0
    5.9877   -2.6925   -0.0843 H   0  0  0  0  0  0  0  0  0  0  0  0
    5.3415   -1.8781    1.3138 H   0  0  0  0  0  0  0  0  0  0  0  0
   -1.1363   -1.2566    2.4381 H   0  0  0  0  0  0  0  0  0  0  0  0
    0.5901   -1.6738    2.4377 H   0  0  0  0  0  0  0  0  0  0  0  0
   -0.4196   -2.1692    1.0881 H   0  0  0  0  0  0  0  0  0  0  0  0
    7.0984   -0.5957   -0.8590 H   0  0  0  0  0  0  0  0  0  0  0  0
    4.0928    2.9691   -0.2533 H   0  0  0  0  0  0  0  0  0  0  0  0
    5.7482    3.1188    0.3687 H   0  0  0  0  0  0  0  0  0  0  0  0
    4.4995    2.4286    1.3935 H   0  0  0  0  0  0  0  0  0  0  0  0
   -5.4491   -1.2327   -3.4518 H   0  0  0  0  0  0  0  0  0  0  0  0
   -3.7327   -0.7752   -3.4772 H   0  0  0  0  0  0  0  0  0  0  0  0
   -4.9533    0.4597   -3.2106 H   0  0  0  0  0  0  0  0  0  0  0  0
   -6.6198   -2.3269   -0.9985 H   0  0  0  0  0  0  0  0  0  0  0  0
   -0.5788    4.7804    0.2846 H   0  0  0  0  0  0  0  0  0  0  0  0
   -1.5153    4.0487   -1.0267 H   0  0  0  0  0  0  0  0  0  0  0  0
    0.2768    4.1238   -1.1129 H   0  0  0  0  0  0  0  0  0  0  0  0
    8.6272   -0.7239    0.6365 H   0  0  0  0  0  0  0  0  0  0  0  0
    3.4383   -3.1293   -2.0853 H   0  0  0  0  0  0  0  0  0  0  0  0
    4.2808   -3.9353   -0.7188 H   0  0  0  0  0  0  0  0  0  0  0  0
    2.5164   -3.9464   -0.8137 H   0  0  0  0  0  0  0  0  0  0  0  0
   -7.0807   -1.6921    2.7126 H   0  0  0  0  0  0  0  0  0  0  0  0
   -6.2537   -0.2263    3.3395 H   0  0  0  0  0  0  0  0  0  0  0  0
   -8.0041   -0.2317    3.0988 H   0  0  0  0  0  0  0  0  0  0  0  0
  1 13  1  0  0  0  0
  1 15  1  0  0  0  0
  2 11  1  0  0  0  0
  2 17  1  0  0  0  0
  3 15  1  0  0  0  0
  3 16  1  0  0  0  0
  4 17  1  0  0  0  0
  4 23  1  0  0  0  0
  5 12  1  0  0  0  0
  5 29  1  0  0  0  0
  6 19  1  0  0  0  0
  6 26  1  0  0  0  0
  7 18  1  0  0  0  0
  7 30  1  0  0  0  0
  8 21  1  0  0  0  0
  8 31  1  0  0  0  0
  9 22  1  0  0  0  0
  9 59  1  0  0  0  0
 10 26  1  0  0  0  0
 10 63  1  0  0  0  0
 11 12  1  0  0  0  0
 11 13  1  0  0  0  0
 11 32  1  0  0  0  0
 12 14  1  0  0  0  0
 12 33  1  0  0  0  0
 13 25  1  0  0  0  0
 13 34  1  0  0  0  0
 14 15  1  0  0  0  0
 14 35  1  0  0  0  0
 14 36  1  0  0  0  0
 15 37  1  0  0  0  0
 16 18  1  0  0  0  0
 16 19  1  0  0  0  0
 16 38  1  0  0  0  0
 17 20  1  0  0  0  0
 17 39  1  0  0  0  0
 18 24  1  0  0  0  0
 18 40  1  0  0  0  0
 19 27  1  0  0  0  0
 19 41  1  0  0  0  0
 20 21  1  0  0  0  0
 20 42  1  0  0  0  0
 20 43  1  0  0  0  0
 21 22  1  0  0  0  0
 21 44  1  0  0  0  0
 22 23  1  0  0  0  0
 22 45  1  0  0  0  0
 23 28  1  0  0  0  0
 23 46  1  0  0  0  0
 24 26  1  0  0  0  0
 24 47  1  0  0  0  0
 24 48  1  0  0  0  0
 25 49  1  0  0  0  0
 25 50  1  0  0  0  0
 25 51  1  0  0  0  0
 26 52  1  0  0  0  0
 27 53  1  0  0  0  0
 27 54  1  0  0  0  0
 27 55  1  0  0  0  0
 28 56  1  0  0  0  0
 28 57  1  0  0  0  0
 28 58  1  0  0  0  0
 29 60  1  0  0  0  0
 29 61  1  0  0  0  0
 29 62  1  0  0  0  0
 30 64  1  0  0  0  0
 30 65  1  0  0  0  0
 30 66  1  0  0  0  0
 31 67  1  0  0  0  0
 31 68  1  0  0  0  0
 31 69  1  0  0  0  0
M  END
> <PUBCHEM_COMPOUND_CID>
10765968

> <PUBCHEM_CONFORMER_RMSD>
1

> <PUBCHEM_CONFORMER_DIVERSEORDER>
1
170
151
173
107
41
129
115
42
211
199
86
142
114
213
73
169
202
78
29
79
147
92
65
105
49
200
27
110
40
120
134
16
140
180
30
59
204
214
87
124
62
207
150
13
39
158
154
70
163
26
176
123
22
168
201
106
122
146
113
19
121
34
188
109
198
156
215
152
83
55
15
71
222
67
90
77
119
130
145
187
102
185
25
58
98
189
52
11
160
68
88
148
46
84
143
171
43
127
8
157
184
33
112
6
209
5
203
153
132
85
186
193
149
80
4
7
91
36
183
135
53
206
95
172
99
166
97
139
218
159
197
103
126
104
64
220
219
212
37
72
47
61
21
181
161
128
2
118
116
57
141
63
74
208
20
12
175
191
45
10
75
179
164
44
56
165
216
131
111
117
81
101
35
178
69
162
32
48
125
174
196
94
136
66
82
3
23
194
31
192
54
138
205
9
210
38
133
93
89
155
190
177
96
100
144
221
18
167
50
51
17
137
182
76
60
28
195
108
217
24
14

> <PUBCHEM_MMFF94_PARTIAL_CHARGES>
27
1 -0.56
10 -0.68
11 0.28
12 0.28
13 0.28
15 0.56
16 0.28
17 0.56
18 0.28
19 0.28
2 -0.56
21 0.28
22 0.28
23 0.28
26 0.56
29 0.28
3 -0.56
30 0.28
31 0.28
4 -0.56
5 -0.56
59 0.4
6 -0.56
63 0.4
7 -0.56
8 -0.56
9 -0.68

> <PUBCHEM_EFFECTIVE_ROTOR_COUNT>
10.6

> <PUBCHEM_PHARMACOPHORE_FEATURES>
15
1 1 acceptor
1 10 acceptor
1 10 donor
1 2 acceptor
1 3 acceptor
1 4 acceptor
1 5 acceptor
1 6 acceptor
1 7 acceptor
1 8 acceptor
1 9 acceptor
1 9 donor
6 1 11 12 13 14 15 rings
6 4 17 20 21 22 23 rings
6 6 16 18 19 24 26 rings

> <PUBCHEM_HEAVY_ATOM_COUNT>
31

> <PUBCHEM_ATOM_DEF_STEREO_COUNT>
12

> <PUBCHEM_ATOM_UDEF_STEREO_COUNT>
0

> <PUBCHEM_BOND_DEF_STEREO_COUNT>
0

> <PUBCHEM_BOND_UDEF_STEREO_COUNT>
0

> <PUBCHEM_ISOTOPIC_ATOM_COUNT>
0

> <PUBCHEM_COMPONENT_COUNT>
1

> <PUBCHEM_CACTVS_TAUTO_COUNT>
1

> <PUBCHEM_CONFORMER_ID>
00A4469000000001

> <PUBCHEM_MMFF94_ENERGY>
94.1656

> <PUBCHEM_FEATURE_SELFOVERLAP>
76.273

> <PUBCHEM_SHAPE_FINGERPRINT>
10 15 13973962108114401718
10299344 5 17775567550162925222
10319926 262 15482666893105863635
10670039 82 14056714639198158487
11135926 11 18334009476320780283
11646440 116 18187653517426765761
12166972 35 17240208750361727836
12236239 1 18131636703396168841
12516196 113 18411418431730811277
12596602 18 16630804413813986426
13533116 47 18410014343119627800
13590594 115 18411422826158335537
1361 2 18341893039120958030
13685833 64 18259992582372971873
14251764 18 17418375809718763535
14394314 77 17846502509096546273
14840074 17 18202002131279020751
15021287 119 18342182194006031377
15119646 104 18272370862672190966
15183329 4 18408037416216584959
15419008 47 17385718110333434029
17492 89 18125440809445431750
1813 80 18272381862452649653
18335252 114 8574438590540944875
19377110 9 17846502512890476858
21315763 178 17917992759013264535
21623969 137 18334019388593375299
21792961 116 17458618991635618019
22224240 67 11527951175334220709
23516275 137 17130454361210952119
23522609 53 17631191834056635497
23536364 44 17968087574274762597
23559900 14 18115027523844896264
23569914 152 17108433136355481983
23569943 247 18339075982609274467
24771750 20 17319316580160552277
283562 15 18115304462608090408
3004659 81 15647054876405523652
4325135 7 17917709098156461558
4340502 62 17632580440148888814
46194498 28 17095814325181866357
463206 1 18338234976293352510
58083652 198 18410287038904065337
5969126 39 18338789039980602365
59755656 215 17676200260897895474
6004065 56 18338232790128007529
6009941 240 17822848676809846133

> <PUBCHEM_SHAPE_MULTIPOLES>
579.27
19.81
2.75
1.83
2.71
1.54
0.25
-8.86
-3.94
-3.22
0.58
4.26
-0.63
0.04

> <PUBCHEM_SHAPE_SELFOVERLAP>
1175.714

> <PUBCHEM_SHAPE_VOLUME>
333.9

> <PUBCHEM_COORDINATE_TYPE>
2
5
10

$$$$
