107650
  -OEChem-03292013323D

 43 42  0     1  0  0  0  0  0999 V2000
    1.7045    2.0582    0.1194 S   0  0  0  0  0  0  0  0  0  0  0  0
   -1.5321   -0.7125   -2.1572 O   0  0  0  0  0  0  0  0  0  0  0  0
    1.8636   -1.6037    1.0685 O   0  0  0  0  0  0  0  0  0  0  0  0
   -4.6099    0.2786    2.2686 O   0  0  0  0  0  0  0  0  0  0  0  0
   -5.8589    1.3964    0.7417 O   0  0  0  0  0  0  0  0  0  0  0  0
    4.8260    0.3575    0.7025 O   0  0  0  0  0  0  0  0  0  0  0  0
    6.3416   -1.2149    1.3179 O   0  0  0  0  0  0  0  0  0  0  0  0
   -0.2117   -0.5227   -0.2557 N   0  0  0  0  0  0  0  0  0  0  0  0
    3.3392   -1.2762   -0.6916 N   0  0  0  0  0  0  0  0  0  0  0  0
   -6.3677   -0.9937   -0.5333 N   0  0  0  0  0  0  0  0  0  0  0  0
    1.0669   -0.4744   -0.9263 C   0  0  1  0  0  0  0  0  0  0  0  0
   -3.9349   -0.7835   -0.7151 C   0  0  0  0  0  0  0  0  0  0  0  0
   -2.5972   -0.6557    0.0165 C   0  0  0  0  0  0  0  0  0  0  0  0
   -5.1297   -0.8747    0.2407 C   0  0  1  0  0  0  0  0  0  0  0  0
    1.4700    0.9515   -1.3099 C   0  0  0  0  0  0  0  0  0  0  0  0
   -1.4145   -0.6389   -0.9371 C   0  0  0  0  0  0  0  0  0  0  0  0
    2.1058   -1.1859   -0.0621 C   0  0  0  0  0  0  0  0  0  0  0  0
   -5.2611    0.3827    1.0809 C   0  0  0  0  0  0  0  0  0  0  0  0
    2.0697    3.5756   -0.7900 C   0  0  0  0  0  0  0  0  0  0  0  0
    4.4901   -1.8851   -0.0666 C   0  0  0  0  0  0  0  0  0  0  0  0
    2.3209    4.7239    0.1688 C   0  0  0  0  0  0  0  0  0  0  0  0
    5.3194   -0.9026    0.7195 C   0  0  0  0  0  0  0  0  0  0  0  0
    0.9756   -1.0594   -1.8513 H   0  0  0  0  0  0  0  0  0  0  0  0
   -4.0534    0.0785   -1.3862 H   0  0  0  0  0  0  0  0  0  0  0  0
   -3.9113   -1.6752   -1.3556 H   0  0  0  0  0  0  0  0  0  0  0  0
   -2.5618    0.2745    0.5944 H   0  0  0  0  0  0  0  0  0  0  0  0
   -2.4672   -1.4952    0.7097 H   0  0  0  0  0  0  0  0  0  0  0  0
   -5.0423   -1.7459    0.8993 H   0  0  0  0  0  0  0  0  0  0  0  0
    0.6888    1.3871   -1.9433 H   0  0  0  0  0  0  0  0  0  0  0  0
    2.3982    0.9498   -1.8898 H   0  0  0  0  0  0  0  0  0  0  0  0
   -0.2245   -0.4442    0.7575 H   0  0  0  0  0  0  0  0  0  0  0  0
    3.4505   -0.9215   -1.6362 H   0  0  0  0  0  0  0  0  0  0  0  0
   -6.3236   -1.8251   -1.1216 H   0  0  0  0  0  0  0  0  0  0  0  0
   -7.1537   -1.1370    0.0999 H   0  0  0  0  0  0  0  0  0  0  0  0
    1.2249    3.8212   -1.4410 H   0  0  0  0  0  0  0  0  0  0  0  0
    2.9551    3.4198   -1.4144 H   0  0  0  0  0  0  0  0  0  0  0  0
    5.1088   -2.3031   -0.8656 H   0  0  0  0  0  0  0  0  0  0  0  0
    4.1577   -2.6795    0.6082 H   0  0  0  0  0  0  0  0  0  0  0  0
    1.4449    4.9245    0.7950 H   0  0  0  0  0  0  0  0  0  0  0  0
    3.1773    4.5230    0.8217 H   0  0  0  0  0  0  0  0  0  0  0  0
    2.5413    5.6375   -0.3934 H   0  0  0  0  0  0  0  0  0  0  0  0
   -4.6872    1.0989    2.8009 H   0  0  0  0  0  0  0  0  0  0  0  0
    5.3822    0.9772    1.2211 H   0  0  0  0  0  0  0  0  0  0  0  0
  1 15  1  0  0  0  0
  1 19  1  0  0  0  0
  2 16  2  0  0  0  0
  3 17  2  0  0  0  0
  4 18  1  0  0  0  0
  4 42  1  0  0  0  0
  5 18  2  0  0  0  0
  6 22  1  0  0  0  0
  6 43  1  0  0  0  0
  7 22  2  0  0  0  0
  8 11  1  0  0  0  0
  8 16  1  0  0  0  0
  8 31  1  0  0  0  0
  9 17  1  0  0  0  0
  9 20  1  0  0  0  0
  9 32  1  0  0  0  0
 10 14  1  0  0  0  0
 10 33  1  0  0  0  0
 10 34  1  0  0  0  0
 11 15  1  0  0  0  0
 11 17  1  0  0  0  0
 11 23  1  0  0  0  0
 12 13  1  0  0  0  0
 12 14  1  0  0  0  0
 12 24  1  0  0  0  0
 12 25  1  0  0  0  0
 13 16  1  0  0  0  0
 13 26  1  0  0  0  0
 13 27  1  0  0  0  0
 14 18  1  0  0  0  0
 14 28  1  0  0  0  0
 15 29  1  0  0  0  0
 15 30  1  0  0  0  0
 19 21  1  0  0  0  0
 19 35  1  0  0  0  0
 19 36  1  0  0  0  0
 20 22  1  0  0  0  0
 20 37  1  0  0  0  0
 20 38  1  0  0  0  0
 21 39  1  0  0  0  0
 21 40  1  0  0  0  0
 21 41  1  0  0  0  0
M  END
> <PUBCHEM_COMPOUND_CID>
107650

> <PUBCHEM_CONFORMER_RMSD>
1

> <PUBCHEM_CONFORMER_DIVERSEORDER>
1
30
102
72
82
48
45
67
95
11
103
60
69
14
8
85
54
38
86
107
80
64
74
96
33
53
43
91
17
40
21
56
25
22
98
99
51
6
49
101
29
62
42
71
70
36
100
34
68
15
59
32
9
73
57
24
65
52
35
97
84
89
26
90
44
87
2
94
31
106
78
66
63
79
10
27
23
81
92
7
39
55
19
93
37
76
13
61
58
41
47
88
16
5
18
20
75
104
105
83
3
12
4
28
50
46
77

> <PUBCHEM_MMFF94_PARTIAL_CHARGES>
26
1 -0.46
10 -0.99
11 0.36
13 0.06
14 0.33
15 0.23
16 0.57
17 0.57
18 0.66
19 0.23
2 -0.57
20 0.36
22 0.66
3 -0.57
31 0.37
32 0.37
33 0.36
34 0.36
4 -0.65
42 0.5
43 0.5
5 -0.57
6 -0.65
7 -0.57
8 -0.73
9 -0.73

> <PUBCHEM_EFFECTIVE_ROTOR_COUNT>
13

> <PUBCHEM_PHARMACOPHORE_FEATURES>
13
1 10 cation
1 10 donor
1 2 acceptor
1 21 hydrophobe
1 3 acceptor
1 4 acceptor
1 5 acceptor
1 6 acceptor
1 7 acceptor
1 8 donor
1 9 donor
3 4 5 18 anion
3 6 7 22 anion

> <PUBCHEM_HEAVY_ATOM_COUNT>
22

> <PUBCHEM_ATOM_DEF_STEREO_COUNT>
2

> <PUBCHEM_ATOM_UDEF_STEREO_COUNT>
0

> <PUBCHEM_BOND_DEF_STEREO_COUNT>
0

> <PUBCHEM_BOND_UDEF_STEREO_COUNT>
0

> <PUBCHEM_ISOTOPIC_ATOM_COUNT>
0

> <PUBCHEM_COMPONENT_COUNT>
1

> <PUBCHEM_CACTVS_TAUTO_COUNT>
4

> <PUBCHEM_CONFORMER_ID>
0001A48200000001

> <PUBCHEM_MMFF94_ENERGY>
28.9349

> <PUBCHEM_FEATURE_SELFOVERLAP>
66.091

> <PUBCHEM_SHAPE_FINGERPRINT>
11089746 13 18334574621434220511
11405975 8 18335989778276761659
12236239 1 18131068221177152391
12403259 118 18202571670492793829
12507557 5 18343305834527675489
12596602 18 18201999906829287803
12616971 3 18271822228603928857
13257819 101 14261345830527536648
13590594 115 18337114470870870496
13899415 154 18408328800515946804
14466204 15 18265616481391416489
14528608 73 9295283937149661278
14739800 52 17487330688579318913
14849402 71 18263649622514383260
14955137 171 18411706448216858262
15048467 5 17203601593468709810
15238133 3 18338248084633311861
15527383 91 18260829310431598103
17138139 8 12108084338733232888
17980427 23 17561071523360706076
17980427 26 17981034529919093692
1813 80 18341057320068586022
18785283 64 18115870879011556828
21033648 29 17631148823958019459
21041028 32 18409443666177487748
21304253 13 18341609313782234176
21521721 280 17603876615474696362
23622692 88 18202560687507278334
25147074 1 17915731183837858655
5104073 3 18264219165648266523
5895379 119 17201948984073134273
59755656 215 9799698125001708866
67856867 119 18270961362127738737
6823239 73 15864355787039591989
7495541 125 16153715327357836902

> <PUBCHEM_SHAPE_MULTIPOLES>
406.44
14.56
3.43
1.43
12.03
6.5
-0.09
-4.96
-6.21
-5.53
0.01
0.79
-0.11
-1.56

> <PUBCHEM_SHAPE_SELFOVERLAP>
775.246

> <PUBCHEM_SHAPE_VOLUME>
248.9

> <PUBCHEM_COORDINATE_TYPE>
2
5
10

$$$$
