107602
  -OEChem-03292013323D

 43 45  0     1  0  0  0  0  0999 V2000
    1.2442    1.1864   -0.6162 S   0  0  1  0  0  0  0  0  0  0  0  0
    1.0108    1.9042   -1.9126 O   0  0  0  0  0  0  0  0  0  0  0  0
    2.6250   -2.5789    1.3758 O   0  0  0  0  0  0  0  0  0  0  0  0
    5.5353    1.1231    1.4891 O   0  0  0  0  0  0  0  0  0  0  0  0
    5.6022   -0.7035    0.1271 O   0  0  0  0  0  0  0  0  0  0  0  0
   -1.2709   -1.1841   -1.9621 O   0  0  0  0  0  0  0  0  0  0  0  0
   -3.6229   -0.9216   -0.6715 O   0  0  0  0  0  0  0  0  0  0  0  0
    2.9535   -0.7734   -0.1065 N   0  0  0  0  0  0  0  0  0  0  0  0
   -0.1099   -1.6239    0.0027 N   0  0  0  0  0  0  0  0  0  0  0  0
    1.9011   -0.5125   -1.0956 C   0  0  1  0  0  0  0  0  0  0  0  0
    2.9857    1.6324   -0.0028 C   0  0  0  0  0  0  0  0  0  0  0  0
    3.4879    0.3315    0.6616 C   0  0  2  0  0  0  0  0  0  0  0  0
    1.2150   -1.7947   -0.5999 C   0  0  1  0  0  0  0  0  0  0  0  0
    2.3703   -1.8908    0.4135 C   0  0  0  0  0  0  0  0  0  0  0  0
    3.8359    2.0980   -1.1950 C   0  0  0  0  0  0  0  0  0  0  0  0
    2.8462    2.7651    1.0171 C   0  0  0  0  0  0  0  0  0  0  0  0
    4.9732    0.1686    0.7080 C   0  0  0  0  0  0  0  0  0  0  0  0
   -1.2527   -1.3294   -0.7428 C   0  0  0  0  0  0  0  0  0  0  0  0
   -2.4894   -1.2061    0.1205 C   0  0  0  0  0  0  0  0  0  0  0  0
   -4.6280   -0.1868   -0.0880 C   0  0  0  0  0  0  0  0  0  0  0  0
   -4.8377   -0.2811    1.2807 C   0  0  0  0  0  0  0  0  0  0  0  0
   -5.4184    0.6369   -0.8774 C   0  0  0  0  0  0  0  0  0  0  0  0
   -5.8584    0.4635    1.8719 C   0  0  0  0  0  0  0  0  0  0  0  0
   -6.4389    1.3817   -0.2861 C   0  0  0  0  0  0  0  0  0  0  0  0
   -6.6589    1.2950    1.0886 C   0  0  0  0  0  0  0  0  0  0  0  0
    2.2716   -0.5617   -2.1248 H   0  0  0  0  0  0  0  0  0  0  0  0
    3.1023    0.2253    1.6842 H   0  0  0  0  0  0  0  0  0  0  0  0
    1.2275   -2.6195   -1.3219 H   0  0  0  0  0  0  0  0  0  0  0  0
    3.9447    1.3156   -1.9535 H   0  0  0  0  0  0  0  0  0  0  0  0
    3.3886    2.9695   -1.6870 H   0  0  0  0  0  0  0  0  0  0  0  0
    4.8409    2.3958   -0.8774 H   0  0  0  0  0  0  0  0  0  0  0  0
    2.2223    2.4663    1.8674 H   0  0  0  0  0  0  0  0  0  0  0  0
    3.8190    3.0775    1.4091 H   0  0  0  0  0  0  0  0  0  0  0  0
    2.3753    3.6468    0.5666 H   0  0  0  0  0  0  0  0  0  0  0  0
   -0.2186   -1.7236    1.0095 H   0  0  0  0  0  0  0  0  0  0  0  0
    6.5113    1.0339    1.5317 H   0  0  0  0  0  0  0  0  0  0  0  0
   -2.6398   -2.1545    0.6488 H   0  0  0  0  0  0  0  0  0  0  0  0
   -2.2772   -0.4043    0.8405 H   0  0  0  0  0  0  0  0  0  0  0  0
   -4.2548   -0.9372    1.9195 H   0  0  0  0  0  0  0  0  0  0  0  0
   -5.2497    0.7065   -1.9480 H   0  0  0  0  0  0  0  0  0  0  0  0
   -6.0345    0.3915    2.9413 H   0  0  0  0  0  0  0  0  0  0  0  0
   -7.0625    2.0288   -0.8961 H   0  0  0  0  0  0  0  0  0  0  0  0
   -7.4545    1.8737    1.5488 H   0  0  0  0  0  0  0  0  0  0  0  0
  1  2  2  0  0  0  0
  1 10  1  0  0  0  0
  1 11  1  0  0  0  0
  3 14  2  0  0  0  0
  4 17  1  0  0  0  0
  4 36  1  0  0  0  0
  5 17  2  0  0  0  0
  6 18  2  0  0  0  0
  7 19  1  0  0  0  0
  7 20  1  0  0  0  0
  8 10  1  0  0  0  0
  8 12  1  0  0  0  0
  8 14  1  0  0  0  0
  9 13  1  0  0  0  0
  9 18  1  0  0  0  0
  9 35  1  0  0  0  0
 10 13  1  0  0  0  0
 10 26  1  0  0  0  0
 11 12  1  0  0  0  0
 11 15  1  0  0  0  0
 11 16  1  0  0  0  0
 12 17  1  0  0  0  0
 12 27  1  0  0  0  0
 13 14  1  0  0  0  0
 13 28  1  0  0  0  0
 15 29  1  0  0  0  0
 15 30  1  0  0  0  0
 15 31  1  0  0  0  0
 16 32  1  0  0  0  0
 16 33  1  0  0  0  0
 16 34  1  0  0  0  0
 18 19  1  0  0  0  0
 19 37  1  0  0  0  0
 19 38  1  0  0  0  0
 20 21  2  0  0  0  0
 20 22  1  0  0  0  0
 21 23  1  0  0  0  0
 21 39  1  0  0  0  0
 22 24  2  0  0  0  0
 22 40  1  0  0  0  0
 23 25  2  0  0  0  0
 23 41  1  0  0  0  0
 24 25  1  0  0  0  0
 24 42  1  0  0  0  0
 25 43  1  0  0  0  0
M  END
> <PUBCHEM_COMPOUND_CID>
107602

> <PUBCHEM_CONFORMER_RMSD>
0.8

> <PUBCHEM_CONFORMER_DIVERSEORDER>
2
66
107
53
102
105
111
86
46
43
88
45
67
62
114
50
7
63
68
93
94
21
11
32
13
29
9
31
106
119
30
120
109
35
39
52
48
89
118
103
49
117
54
108
95
74
115
79
8
58
91
83
113
22
57
80
121
1
104
110
78
112
37
90
25
5
16
92
40
71
72
36
27
4
3
84
69
24
42
85
41
100
82
73
55
51
70
101
56
17
98
20
26
99
10
96
59
61
64
47
87
81
116
34
28
19
77
6
65
44
23
60
38
12
33
14
15
76
18
75
97

> <PUBCHEM_MMFF94_PARTIAL_CHARGES>
30
1 0.13
10 0.4
11 0.19
12 0.36
13 0.28
14 0.58
17 0.66
18 0.57
19 0.34
2 -0.5
20 0.08
21 -0.15
22 -0.15
23 -0.15
24 -0.15
25 -0.15
3 -0.57
35 0.37
36 0.5
39 0.15
4 -0.65
40 0.15
41 0.15
42 0.15
43 0.15
5 -0.57
6 -0.57
7 -0.36
8 -0.59
9 -0.65

> <PUBCHEM_EFFECTIVE_ROTOR_COUNT>
6.6

> <PUBCHEM_PHARMACOPHORE_FEATURES>
12
1 2 acceptor
1 3 acceptor
1 4 acceptor
1 5 acceptor
1 6 acceptor
1 7 acceptor
1 9 donor
3 11 15 16 hydrophobe
3 4 5 17 anion
4 8 10 13 14 rings
6 20 21 22 23 24 25 rings
7 1 8 10 11 12 13 14 rings

> <PUBCHEM_HEAVY_ATOM_COUNT>
25

> <PUBCHEM_ATOM_DEF_STEREO_COUNT>
3

> <PUBCHEM_ATOM_UDEF_STEREO_COUNT>
1

> <PUBCHEM_BOND_DEF_STEREO_COUNT>
0

> <PUBCHEM_BOND_UDEF_STEREO_COUNT>
0

> <PUBCHEM_ISOTOPIC_ATOM_COUNT>
0

> <PUBCHEM_COMPONENT_COUNT>
1

> <PUBCHEM_CACTVS_TAUTO_COUNT>
2

> <PUBCHEM_CONFORMER_ID>
0001A45200000002

> <PUBCHEM_MMFF94_ENERGY>
66.249

> <PUBCHEM_FEATURE_SELFOVERLAP>
64.592

> <PUBCHEM_SHAPE_FINGERPRINT>
10319926 262 17312830364332352171
10670039 82 17059511655210006361
10674148 151 18341625862792581140
10906281 52 18192426601658516800
10928967 22 12829492592994265121
11069576 57 12246864602160646516
11089746 13 17917704729715675117
11545043 162 14996274830303488199
11578080 2 14491627640602239684
11724838 91 18412262861720918551
11961588 58 14979950410824330806
12236239 1 18059851774882657207
12422481 6 18334002887334123692
12633257 1 17531241815922499843
13140716 1 18044923817919873034
13464513 79 8574715706442036186
13878862 14 18264187168078731445
14251764 30 14418124110836555745
14251764 75 18124320655646077729
14767858 380 9439117706563410146
14790565 3 17537451986551408116
15142383 8 17313096419854380325
15188451 53 16371298835273541035
15238133 3 18342180007297822660
15348495 7 17749116612371977027
15475509 84 18194111915779612024
20511986 3 18059561504007693937
20567600 247 7925908167326407481
20739085 24 17895194450099544196
21315763 76 18131628981029413033
21421861 104 17968925410619411442
21774942 28 16343711980287904080
22122407 14 18342749485976230401
23559900 14 17916596332212794023
2838139 119 18059852862020917097
3178227 256 17967812743891676098
3472631 163 17275101768890520081
34797466 226 13254781440287091667
351380 3 12251903698525843659
3737641 26 14201939204241189841
439807 62 11023828362706459029
465052 167 12685098072613271427
5104073 3 18116145752391100418
513532 50 17346328076582811124
57724786 102 18115589395481874012
6328613 192 18338803437401925436
7970288 3 12468355765241423153
960060 61 10447927257194095355

> <PUBCHEM_SHAPE_MULTIPOLES>
473.16
15.81
2.49
1.54
20.46
0.28
0.04
6.84
-5.65
-2.28
-0.08
0.37
0.26
-0.65

> <PUBCHEM_SHAPE_SELFOVERLAP>
989.724

> <PUBCHEM_SHAPE_VOLUME>
268.3

> <PUBCHEM_COORDINATE_TYPE>
2
5
10

$$$$
