10765018
  -OEChem-03292013303D

 49 52  0     0  0  0  0  0  0999 V2000
    1.5617   -1.9338   -0.2742 S   0  0  0  0  0  0  0  0  0  0  0  0
    1.2514   -2.5771    0.9840 O   0  0  0  0  0  0  0  0  0  0  0  0
    1.6003   -2.6360   -1.5386 O   0  0  0  0  0  0  0  0  0  0  0  0
   -1.3709    0.2611    0.4545 O   0  0  0  0  0  0  0  0  0  0  0  0
    1.0466    1.8680   -0.4364 O   0  0  0  0  0  0  0  0  0  0  0  0
    6.6344   -1.2851    0.4135 O   0  0  0  0  0  0  0  0  0  0  0  0
   -5.2395    2.8131    0.0664 O   0  0  0  0  0  0  0  0  0  0  0  0
    0.6727   -0.4696   -0.4313 N   0  0  0  0  0  0  0  0  0  0  0  0
   -5.4162    0.4715    0.0746 N   0  0  0  0  0  0  0  0  0  0  0  0
   -3.4202   -0.8242    0.2746 N   0  0  0  0  0  0  0  0  0  0  0  0
    2.8665    0.3227   -0.1468 C   0  0  0  0  0  0  0  0  0  0  0  0
    3.0563   -1.0578   -0.0880 C   0  0  0  0  0  0  0  0  0  0  0  0
    3.9429    1.1831   -0.0174 C   0  0  0  0  0  0  0  0  0  0  0  0
    3.8033    2.6653   -0.0712 C   0  0  0  0  0  0  0  0  0  0  0  0
    1.4617    0.7270   -0.3509 C   0  0  0  0  0  0  0  0  0  0  0  0
    4.2961   -1.6337    0.0972 C   0  0  0  0  0  0  0  0  0  0  0  0
    5.2112    0.6241    0.1718 C   0  0  0  0  0  0  0  0  0  0  0  0
   -0.7832   -0.4454   -0.6327 C   0  0  0  0  0  0  0  0  0  0  0  0
    5.3856   -0.7713    0.2284 C   0  0  0  0  0  0  0  0  0  0  0  0
    4.5739    3.2885   -1.2515 C   0  0  0  0  0  0  0  0  0  0  0  0
    4.2265    3.3465    1.2448 C   0  0  0  0  0  0  0  0  0  0  0  0
   -2.7166    0.3501    0.3275 C   0  0  0  0  0  0  0  0  0  0  0  0
    6.7494   -2.7055    0.4625 C   0  0  0  0  0  0  0  0  0  0  0  0
   -3.2691    1.5663    0.2625 C   0  0  0  0  0  0  0  0  0  0  0  0
   -4.7115   -0.7391    0.1532 C   0  0  0  0  0  0  0  0  0  0  0  0
   -4.7380    1.6925    0.1246 C   0  0  0  0  0  0  0  0  0  0  0  0
   -5.5165   -1.9956    0.0920 C   0  0  0  0  0  0  0  0  0  0  0  0
   -6.8006    0.4758   -0.0537 C   0  0  0  0  0  0  0  0  0  0  0  0
   -6.8459   -1.9256   -0.0320 C   0  0  0  0  0  0  0  0  0  0  0  0
   -7.5124   -0.6556   -0.1073 C   0  0  0  0  0  0  0  0  0  0  0  0
    2.7796    2.9907   -0.2213 H   0  0  0  0  0  0  0  0  0  0  0  0
    4.3581   -2.7138    0.1309 H   0  0  0  0  0  0  0  0  0  0  0  0
    6.0876    1.2596    0.2787 H   0  0  0  0  0  0  0  0  0  0  0  0
   -1.0025    0.0518   -1.5856 H   0  0  0  0  0  0  0  0  0  0  0  0
   -1.1541   -1.4763   -0.6758 H   0  0  0  0  0  0  0  0  0  0  0  0
    5.6558    3.1485   -1.1558 H   0  0  0  0  0  0  0  0  0  0  0  0
    4.3837    4.3660   -1.3096 H   0  0  0  0  0  0  0  0  0  0  0  0
    4.2589    2.8404   -2.2005 H   0  0  0  0  0  0  0  0  0  0  0  0
    3.6616    2.9402    2.0912 H   0  0  0  0  0  0  0  0  0  0  0  0
    4.0347    4.4243    1.1996 H   0  0  0  0  0  0  0  0  0  0  0  0
    5.2926    3.2089    1.4546 H   0  0  0  0  0  0  0  0  0  0  0  0
    7.8083   -2.9392    0.6148 H   0  0  0  0  0  0  0  0  0  0  0  0
    6.4541   -3.1666   -0.4862 H   0  0  0  0  0  0  0  0  0  0  0  0
    6.2043   -3.1247    1.3151 H   0  0  0  0  0  0  0  0  0  0  0  0
   -2.6787    2.4742    0.3073 H   0  0  0  0  0  0  0  0  0  0  0  0
   -4.9992   -2.9461    0.1501 H   0  0  0  0  0  0  0  0  0  0  0  0
   -7.2944    1.4396   -0.1098 H   0  0  0  0  0  0  0  0  0  0  0  0
   -7.4488   -2.8254   -0.0784 H   0  0  0  0  0  0  0  0  0  0  0  0
   -8.5913   -0.6383   -0.2074 H   0  0  0  0  0  0  0  0  0  0  0  0
  1  2  2  0  0  0  0
  1  3  2  0  0  0  0
  1  8  1  0  0  0  0
  1 12  1  0  0  0  0
  4 18  1  0  0  0  0
  4 22  1  0  0  0  0
  5 15  2  0  0  0  0
  6 19  1  0  0  0  0
  6 23  1  0  0  0  0
  7 26  2  0  0  0  0
  8 15  1  0  0  0  0
  8 18  1  0  0  0  0
  9 25  1  0  0  0  0
  9 26  1  0  0  0  0
  9 28  1  0  0  0  0
 10 22  1  0  0  0  0
 10 25  2  0  0  0  0
 11 12  1  0  0  0  0
 11 13  2  0  0  0  0
 11 15  1  0  0  0  0
 12 16  2  0  0  0  0
 13 14  1  0  0  0  0
 13 17  1  0  0  0  0
 14 20  1  0  0  0  0
 14 21  1  0  0  0  0
 14 31  1  0  0  0  0
 16 19  1  0  0  0  0
 16 32  1  0  0  0  0
 17 19  2  0  0  0  0
 17 33  1  0  0  0  0
 18 34  1  0  0  0  0
 18 35  1  0  0  0  0
 20 36  1  0  0  0  0
 20 37  1  0  0  0  0
 20 38  1  0  0  0  0
 21 39  1  0  0  0  0
 21 40  1  0  0  0  0
 21 41  1  0  0  0  0
 22 24  2  0  0  0  0
 23 42  1  0  0  0  0
 23 43  1  0  0  0  0
 23 44  1  0  0  0  0
 24 26  1  0  0  0  0
 24 45  1  0  0  0  0
 25 27  1  0  0  0  0
 27 29  2  0  0  0  0
 27 46  1  0  0  0  0
 28 30  2  0  0  0  0
 28 47  1  0  0  0  0
 29 30  1  0  0  0  0
 29 48  1  0  0  0  0
 30 49  1  0  0  0  0
M  END
> <PUBCHEM_COMPOUND_CID>
10765018

> <PUBCHEM_CONFORMER_RMSD>
0.8

> <PUBCHEM_CONFORMER_DIVERSEORDER>
1
106
63
83
10
42
71
117
2
32
111
60
11
107
102
78
104
29
20
61
30
65
90
6
24
38
75
128
120
41
55
118
87
131
81
122
72
115
33
26
44
129
17
132
34
62
80
66
95
4
70
37
49
19
91
76
64
51
67
121
84
130
28
126
27
92
125
8
74
21
79
56
12
99
3
105
7
124
94
45
13
116
110
86
82
40
113
23
43
100
53
54
112
77
48
36
119
85
14
22
114
9
97
123
98
59
52
5
57
127
103
96
109
46
93
89
35
58
68
31
88
47
73
69
18
50
25
15
108
101
39
16

> <PUBCHEM_MMFF94_PARTIAL_CHARGES>
35
1 1.45
10 -0.62
11 0.09
12 -0.01
13 -0.14
14 0.14
15 0.72
16 -0.15
17 -0.15
18 0.64
19 0.08
2 -0.65
22 0.25
23 0.28
24 -0.14
25 0.5
26 0.62
27 -0.14
28 -0.04
29 -0.15
3 -0.65
30 -0.15
32 0.15
33 0.15
4 -0.36
45 0.15
46 0.15
47 0.15
48 0.15
49 0.15
5 -0.57
6 -0.36
7 -0.57
8 -0.73
9 -0.23

> <PUBCHEM_EFFECTIVE_ROTOR_COUNT>
5.2

> <PUBCHEM_PHARMACOPHORE_FEATURES>
11
1 2 acceptor
1 3 acceptor
1 4 acceptor
1 5 acceptor
1 6 acceptor
1 7 acceptor
3 14 20 21 hydrophobe
5 1 8 11 12 15 rings
6 11 12 13 16 17 19 rings
6 9 10 22 24 25 26 rings
6 9 25 27 28 29 30 rings

> <PUBCHEM_HEAVY_ATOM_COUNT>
30

> <PUBCHEM_ATOM_DEF_STEREO_COUNT>
0

> <PUBCHEM_ATOM_UDEF_STEREO_COUNT>
0

> <PUBCHEM_BOND_DEF_STEREO_COUNT>
0

> <PUBCHEM_BOND_UDEF_STEREO_COUNT>
0

> <PUBCHEM_ISOTOPIC_ATOM_COUNT>
0

> <PUBCHEM_COMPONENT_COUNT>
1

> <PUBCHEM_CACTVS_TAUTO_COUNT>
1

> <PUBCHEM_CONFORMER_ID>
00A442DA00000001

> <PUBCHEM_MMFF94_ENERGY>
92.4537

> <PUBCHEM_FEATURE_SELFOVERLAP>
55.942

> <PUBCHEM_SHAPE_FINGERPRINT>
10050765 1 18265898154311493806
10411042 1 18265051320300211250
10595046 47 18410294735669543217
10835480 77 18411413995800013773
11719270 70 18273494559261090214
12107183 9 17760646963300555659
12166972 35 18408606976177701681
12236239 1 18343582940699752187
12616971 3 17988916795022099340
13383668 362 18269259327240148922
13533116 47 18410012173686370152
13692114 37 18338789125991146842
13782708 43 18040151794850998874
14849402 71 18409731798712274300
14955137 171 18271243808194345854
15183329 4 18186517679376848915
15475509 35 17095784548658978138
15849732 13 18131348580242834790
17844677 252 18411426098527067929
18681886 176 18343297055430088394
20028762 73 18342175540564081022
21130935 74 18410857707003083283
21197605 99 18339928237153665839
21267235 1 18411423890570979950
21315763 129 18410293575358570749
21315763 28 18410572881867394339
21315764 268 18409725192409105437
21709351 56 18410005507691171398
22149856 69 17274559671705421683
23522609 53 17898037679557855564
23559900 14 18337384946525273073
239999 70 18271813388944594574
3004659 81 18333730212760980048
3178227 256 18409445874112391914
335352 9 18409172113239492230
34797466 226 17703519869231263717
4073 2 18041005076082933819
4325135 7 18412824681749742375
439807 62 18413389848069494281
45377200 153 16414081996250888743
5104073 3 18411425016147700905
513532 50 18200327601668169764
67856867 119 18411138030559137209
9849439 229 18050845826197246008

> <PUBCHEM_SHAPE_MULTIPOLES>
571.08
20.14
3.55
0.86
20.69
1.36
0.08
-3.26
-1.66
-4.43
-0.03
-0.69
0.11
-0.52

> <PUBCHEM_SHAPE_SELFOVERLAP>
1234.572

> <PUBCHEM_SHAPE_VOLUME>
316.4

> <PUBCHEM_COORDINATE_TYPE>
2
5
10

$$$$
