107730
  -OEChem-03292013323D

 25 25  0     1  0  0  0  0  0999 V2000
    0.3833    2.7354   -0.1871 F   0  0  0  0  0  0  0  0  0  0  0  0
    2.4519   -2.3070    0.4907 O   0  0  0  0  0  0  0  0  0  0  0  0
   -1.9015   -1.5932   -1.2553 O   0  0  0  0  0  0  0  0  0  0  0  0
    4.0227   -0.2833   -0.5869 O   0  0  0  0  0  0  0  0  0  0  0  0
   -3.5989   -1.4913    0.2461 O   0  0  0  0  0  0  0  0  0  0  0  0
   -3.5559    1.2454    0.0486 N   0  0  0  0  0  0  0  0  0  0  0  0
   -1.3136    0.7667    0.9192 C   0  0  0  0  0  0  0  0  0  0  0  0
   -2.3142    0.5244   -0.2217 C   0  0  1  0  0  0  0  0  0  0  0  0
    0.1156    0.4844    0.5167 C   0  0  0  0  0  0  0  0  0  0  0  0
    0.6269   -0.7908    0.6922 C   0  0  0  0  0  0  0  0  0  0  0  0
    0.8850    1.5039   -0.0188 C   0  0  0  0  0  0  0  0  0  0  0  0
    1.9453   -1.0540    0.3212 C   0  0  0  0  0  0  0  0  0  0  0  0
   -2.6840   -0.9429   -0.3552 C   0  0  0  0  0  0  0  0  0  0  0  0
    2.2036    1.2405   -0.3899 C   0  0  0  0  0  0  0  0  0  0  0  0
    2.7339   -0.0384   -0.2198 C   0  0  0  0  0  0  0  0  0  0  0  0
   -1.5718    0.1593    1.7976 H   0  0  0  0  0  0  0  0  0  0  0  0
   -1.3687    1.8090    1.2630 H   0  0  0  0  0  0  0  0  0  0  0  0
   -1.9292    0.8801   -1.1843 H   0  0  0  0  0  0  0  0  0  0  0  0
    0.0170   -1.5843    1.1155 H   0  0  0  0  0  0  0  0  0  0  0  0
    2.8062    2.0410   -0.8105 H   0  0  0  0  0  0  0  0  0  0  0  0
   -3.3652    2.2456    0.1010 H   0  0  0  0  0  0  0  0  0  0  0  0
   -3.9158    0.9835    0.9662 H   0  0  0  0  0  0  0  0  0  0  0  0
    3.3744   -2.3085    0.1813 H   0  0  0  0  0  0  0  0  0  0  0  0
   -2.1546   -2.5367   -1.3453 H   0  0  0  0  0  0  0  0  0  0  0  0
    4.4122    0.5348   -0.9404 H   0  0  0  0  0  0  0  0  0  0  0  0
  1 11  1  0  0  0  0
  2 12  1  0  0  0  0
  2 23  1  0  0  0  0
  3 13  1  0  0  0  0
  3 24  1  0  0  0  0
  4 15  1  0  0  0  0
  4 25  1  0  0  0  0
  5 13  2  0  0  0  0
  6  8  1  0  0  0  0
  6 21  1  0  0  0  0
  6 22  1  0  0  0  0
  7  8  1  0  0  0  0
  7  9  1  0  0  0  0
  7 16  1  0  0  0  0
  7 17  1  0  0  0  0
  8 13  1  0  0  0  0
  8 18  1  0  0  0  0
  9 10  2  0  0  0  0
  9 11  1  0  0  0  0
 10 12  1  0  0  0  0
 10 19  1  0  0  0  0
 11 14  2  0  0  0  0
 12 15  2  0  0  0  0
 14 15  1  0  0  0  0
 14 20  1  0  0  0  0
M  END
> <PUBCHEM_COMPOUND_CID>
107730

> <PUBCHEM_CONFORMER_RMSD>
0.6

> <PUBCHEM_CONFORMER_DIVERSEORDER>
1
9
14
15
13
8
4
5
11
10
2
7
6
3
12

> <PUBCHEM_MMFF94_PARTIAL_CHARGES>
22
1 -0.19
10 -0.15
11 0.19
12 0.08
13 0.66
14 -0.15
15 0.08
19 0.15
2 -0.53
20 0.15
21 0.36
22 0.36
23 0.45
24 0.5
25 0.45
3 -0.65
4 -0.53
5 -0.57
6 -0.99
7 0.14
8 0.33
9 -0.14

> <PUBCHEM_EFFECTIVE_ROTOR_COUNT>
3

> <PUBCHEM_PHARMACOPHORE_FEATURES>
8
1 2 donor
1 3 acceptor
1 4 donor
1 5 acceptor
1 6 cation
1 6 donor
3 3 5 13 anion
6 9 10 11 12 14 15 rings

> <PUBCHEM_HEAVY_ATOM_COUNT>
15

> <PUBCHEM_ATOM_DEF_STEREO_COUNT>
1

> <PUBCHEM_ATOM_UDEF_STEREO_COUNT>
0

> <PUBCHEM_BOND_DEF_STEREO_COUNT>
0

> <PUBCHEM_BOND_UDEF_STEREO_COUNT>
0

> <PUBCHEM_ISOTOPIC_ATOM_COUNT>
0

> <PUBCHEM_COMPONENT_COUNT>
1

> <PUBCHEM_CACTVS_TAUTO_COUNT>
12

> <PUBCHEM_CONFORMER_ID>
0001A4D200000001

> <PUBCHEM_MMFF94_ENERGY>
27.0209

> <PUBCHEM_FEATURE_SELFOVERLAP>
40.658

> <PUBCHEM_SHAPE_FINGERPRINT>
14128692 85 18272369814567957544
14576447 43 18410852200332848014
14993402 34 18270961245905185021
15375462 189 18410018723263395043
15757776 16 18408882945258948782
15775835 57 18334299738430566229
16945 1 18265327502784858979
18186145 218 16950564341968683738
18619055 16 18265607697877087621
19422 9 18410015437924714603
20645476 183 18412263930640241839
20645477 70 18271240650981946463
21634736 98 17982164827365693822
221490 88 18191033506301552195
23402539 116 18334574621281304454
23402655 69 18260831449436444965
23463225 33 18340205185287158735
23552423 10 18267580389483758825
23559900 14 17988921150973381978
25 1 17968095283344964801
3312278 4 18412547591438483057
34934 24 18336823091820420408
58051976 100 18410294718415795253
63268167 104 18335703814621143064
7364860 26 18057601173248816080
7832392 63 18410572868766429025
90525 40 18273497849485107071

> <PUBCHEM_SHAPE_MULTIPOLES>
272.96
5.78
2.14
0.85
1.24
0.22
0.02
-1.55
0.85
-0.15
0.06
0.11
-0.14
-0.54

> <PUBCHEM_SHAPE_SELFOVERLAP>
572.034

> <PUBCHEM_SHAPE_VOLUME>
154.3

> <PUBCHEM_COORDINATE_TYPE>
2
5
10

$$$$
