107776
  -OEChem-03292013323D

 41 40  0     1  0  0  0  0  0999 V2000
    0.9203    4.2267    0.0682 Cl  0  0  0  0  0  0  0  0  0  0  0  0
    4.1003    4.7678   -0.4592 Cl  0  0  0  0  0  0  0  0  0  0  0  0
    1.6149    1.4211    0.6870 S   0  0  0  0  0  0  0  0  0  0  0  0
   -1.7801   -0.4280   -2.2094 O   0  0  0  0  0  0  0  0  0  0  0  0
    1.3905   -2.3572    0.7830 O   0  0  0  0  0  0  0  0  0  0  0  0
   -4.9168   -0.1494    2.2769 O   0  0  0  0  0  0  0  0  0  0  0  0
   -5.9954    1.4023    1.0239 O   0  0  0  0  0  0  0  0  0  0  0  0
    4.5370   -0.6727    0.9181 O   0  0  0  0  0  0  0  0  0  0  0  0
    5.8725   -2.4875    1.1846 O   0  0  0  0  0  0  0  0  0  0  0  0
   -0.5212   -0.8034   -0.2939 N   0  0  0  0  0  0  0  0  0  0  0  0
    2.9565   -1.7939   -0.8334 N   0  0  0  0  0  0  0  0  0  0  0  0
   -6.6790   -0.5774   -0.7680 N   0  0  0  0  0  0  0  0  0  0  0  0
    0.7809   -0.7350   -0.9159 C   0  0  1  0  0  0  0  0  0  0  0  0
   -4.2321   -0.5780   -0.8590 C   0  0  0  0  0  0  0  0  0  0  0  0
   -2.9171   -0.7529   -0.0965 C   0  0  0  0  0  0  0  0  0  0  0  0
   -5.4657   -0.7603    0.0323 C   0  0  1  0  0  0  0  0  0  0  0  0
   -1.7027   -0.6420   -1.0028 C   0  0  0  0  0  0  0  0  0  0  0  0
    1.3314    0.6925   -0.9596 C   0  0  0  0  0  0  0  0  0  0  0  0
    1.7141   -1.7231   -0.2193 C   0  0  0  0  0  0  0  0  0  0  0  0
   -5.5096    0.2834    1.1337 C   0  0  0  0  0  0  0  0  0  0  0  0
    4.0200   -2.6402   -0.3448 C   0  0  0  0  0  0  0  0  0  0  0  0
    2.1384    3.0023    0.2053 C   0  0  0  0  0  0  0  0  0  0  0  0
    4.9080   -1.9476    0.6566 C   0  0  0  0  0  0  0  0  0  0  0  0
    3.4350    3.2523   -0.0078 C   0  0  0  0  0  0  0  0  0  0  0  0
    0.6701   -1.0855   -1.9507 H   0  0  0  0  0  0  0  0  0  0  0  0
   -4.2686   -1.3011   -1.6847 H   0  0  0  0  0  0  0  0  0  0  0  0
   -4.2428    0.4199   -1.3187 H   0  0  0  0  0  0  0  0  0  0  0  0
   -2.8937   -1.7352    0.3901 H   0  0  0  0  0  0  0  0  0  0  0  0
   -2.8160    0.0156    0.6778 H   0  0  0  0  0  0  0  0  0  0  0  0
   -5.4864   -1.7612    0.4773 H   0  0  0  0  0  0  0  0  0  0  0  0
   -0.5651   -0.9531    0.7103 H   0  0  0  0  0  0  0  0  0  0  0  0
    2.2745    0.7265   -1.5148 H   0  0  0  0  0  0  0  0  0  0  0  0
    0.6211    1.3339   -1.4948 H   0  0  0  0  0  0  0  0  0  0  0  0
    3.1370   -1.2492   -1.6709 H   0  0  0  0  0  0  0  0  0  0  0  0
   -7.4987   -0.7790   -0.1962 H   0  0  0  0  0  0  0  0  0  0  0  0
   -6.6914   -1.2558   -1.5288 H   0  0  0  0  0  0  0  0  0  0  0  0
    4.6264   -2.9284   -1.2080 H   0  0  0  0  0  0  0  0  0  0  0  0
    3.5885   -3.5280    0.1269 H   0  0  0  0  0  0  0  0  0  0  0  0
   -4.9364    0.5341    2.9801 H   0  0  0  0  0  0  0  0  0  0  0  0
    4.2146    2.5055    0.0864 H   0  0  0  0  0  0  0  0  0  0  0  0
    5.1292   -0.2439    1.5721 H   0  0  0  0  0  0  0  0  0  0  0  0
  1 22  1  0  0  0  0
  2 24  1  0  0  0  0
  3 18  1  0  0  0  0
  3 22  1  0  0  0  0
  4 17  2  0  0  0  0
  5 19  2  0  0  0  0
  6 20  1  0  0  0  0
  6 39  1  0  0  0  0
  7 20  2  0  0  0  0
  8 23  1  0  0  0  0
  8 41  1  0  0  0  0
  9 23  2  0  0  0  0
 10 13  1  0  0  0  0
 10 17  1  0  0  0  0
 10 31  1  0  0  0  0
 11 19  1  0  0  0  0
 11 21  1  0  0  0  0
 11 34  1  0  0  0  0
 12 16  1  0  0  0  0
 12 35  1  0  0  0  0
 12 36  1  0  0  0  0
 13 18  1  0  0  0  0
 13 19  1  0  0  0  0
 13 25  1  0  0  0  0
 14 15  1  0  0  0  0
 14 16  1  0  0  0  0
 14 26  1  0  0  0  0
 14 27  1  0  0  0  0
 15 17  1  0  0  0  0
 15 28  1  0  0  0  0
 15 29  1  0  0  0  0
 16 20  1  0  0  0  0
 16 30  1  0  0  0  0
 18 32  1  0  0  0  0
 18 33  1  0  0  0  0
 21 23  1  0  0  0  0
 21 37  1  0  0  0  0
 21 38  1  0  0  0  0
 22 24  2  3  0  0  0
 24 40  1  0  0  0  0
M  END
> <PUBCHEM_COMPOUND_CID>
107776

> <PUBCHEM_CONFORMER_RMSD>
1

> <PUBCHEM_CONFORMER_DIVERSEORDER>
1
67
102
64
97
111
29
52
87
75
47
98
38
34
50
94
59
58
69
73
84
61
51
25
43
36
89
81
49
33
57
24
19
106
85
30
113
117
114
60
55
11
9
105
10
96
2
62
45
103
56
13
76
112
20
125
127
93
44
54
126
121
88
26
32
23
18
80
27
104
99
5
41
35
91
82
86
92
118
108
90
4
46
7
120
95
42
107
16
124
101
21
15
109
78
65
53
63
116
115
17
39
28
6
77
40
71
83
100
70
37
68
14
8
12
122
110
66
74
119
22
123
48
3
31
79
72

> <PUBCHEM_MMFF94_PARTIAL_CHARGES>
30
1 -0.14
10 -0.73
11 -0.73
12 -0.99
13 0.36
15 0.06
16 0.33
17 0.57
18 0.23
19 0.57
2 -0.14
20 0.66
21 0.36
22 0.24
23 0.66
24 -0.01
3 -0.33
31 0.37
34 0.37
35 0.36
36 0.36
39 0.5
4 -0.57
40 0.15
41 0.5
5 -0.57
6 -0.65
7 -0.57
8 -0.65
9 -0.57

> <PUBCHEM_EFFECTIVE_ROTOR_COUNT>
13

> <PUBCHEM_PHARMACOPHORE_FEATURES>
12
1 10 donor
1 11 donor
1 12 cation
1 12 donor
1 4 acceptor
1 5 acceptor
1 6 acceptor
1 7 acceptor
1 8 acceptor
1 9 acceptor
3 6 7 20 anion
3 8 9 23 anion

> <PUBCHEM_HEAVY_ATOM_COUNT>
24

> <PUBCHEM_ATOM_DEF_STEREO_COUNT>
2

> <PUBCHEM_ATOM_UDEF_STEREO_COUNT>
0

> <PUBCHEM_BOND_DEF_STEREO_COUNT>
0

> <PUBCHEM_BOND_UDEF_STEREO_COUNT>
1

> <PUBCHEM_ISOTOPIC_ATOM_COUNT>
0

> <PUBCHEM_COMPONENT_COUNT>
1

> <PUBCHEM_CACTVS_TAUTO_COUNT>
4

> <PUBCHEM_CONFORMER_ID>
0001A50000000001

> <PUBCHEM_MMFF94_ENERGY>
32.7373

> <PUBCHEM_FEATURE_SELFOVERLAP>
61.017

> <PUBCHEM_SHAPE_FINGERPRINT>
10675989 125 18195253432884589620
13540713 5 18057027223926471758
13590594 115 18339367340131087841
13785724 45 18270688541721243414
13899415 154 18409454670263215710
14739800 52 17417238987082574201
14790565 3 17906177604382506429
14849402 71 18337114557070565436
15840311 113 17489581268901243242
15842332 3 17773862280843065279
15927050 60 17979073009975721046
1813 80 18201444610565330886
18785283 64 18335419127415089844
21033648 29 17676200291637679197
21041028 32 18339636746587202988
249057 25 17989486334293966285
25147074 1 17916572280300380399
3411729 13 18337951324290065660
38570 142 18127146383275480300
474 4 18196935693805403277
5104073 3 18336556014207257915
5385378 56 18266174110149766588
67856867 119 18201433714370041315
9841814 1 18410017615557718262

> <PUBCHEM_SHAPE_MULTIPOLES>
451.34
14.31
4.94
1.38
20.17
6.07
-0.11
-2.19
-4.34
-11.74
-0.18
1.23
-0.27
-1.9

> <PUBCHEM_SHAPE_SELFOVERLAP>
856.374

> <PUBCHEM_SHAPE_VOLUME>
277.5

> <PUBCHEM_COORDINATE_TYPE>
2
5
10

$$$$
