107753
  -OEChem-03292013323D

 68 71  0     1  0  0  0  0  0999 V2000
    1.9998   -2.0188   -2.3785 O   0  0  0  0  0  0  0  0  0  0  0  0
    1.8750   -2.5507    0.6143 O   0  0  0  0  0  0  0  0  0  0  0  0
    4.0439    1.2227   -0.3017 O   0  0  0  0  0  0  0  0  0  0  0  0
    3.8894   -1.2041    2.0387 O   0  0  0  0  0  0  0  0  0  0  0  0
   -0.3292    1.7235   -0.2266 O   0  0  0  0  0  0  0  0  0  0  0  0
   -2.6326   -0.4623    0.0522 O   0  0  0  0  0  0  0  0  0  0  0  0
    4.5678    2.0806    1.7784 O   0  0  0  0  0  0  0  0  0  0  0  0
   -1.0950    3.1928    1.3835 O   0  0  0  0  0  0  0  0  0  0  0  0
   -3.5411   -0.6941   -2.0570 O   0  0  0  0  0  0  0  0  0  0  0  0
   -5.2735   -0.0299    1.3878 O   0  0  0  0  0  0  0  0  0  0  0  0
    1.9544   -0.0476   -0.7477 C   0  0  1  0  0  0  0  0  0  0  0  0
    2.5769   -1.3186   -1.2877 C   0  0  1  0  0  0  0  0  0  0  0  0
    0.6152   -0.4546    0.0402 C   0  0  2  0  0  0  0  0  0  0  0  0
    3.0256   -2.0806   -0.0946 C   0  0  1  0  0  0  0  0  0  0  0  0
    3.0930    0.3396    0.2938 C   0  0  1  0  0  0  0  0  0  0  0  0
    3.2992   -1.4488   -2.6116 C   0  0  0  0  0  0  0  0  0  0  0  0
    3.8193   -0.9898    0.6430 C   0  0  1  0  0  0  0  0  0  0  0  0
    0.9606   -1.5538    1.1010 C   0  0  1  0  0  0  0  0  0  0  0  0
    1.7198    1.0398   -1.8009 C   0  0  0  0  0  0  0  0  0  0  0  0
   -0.4870   -1.0240   -0.9135 C   0  0  0  0  0  0  0  0  0  0  0  0
    0.0145    0.7856    0.7635 C   0  0  0  0  0  0  0  0  0  0  0  0
   -1.7468   -1.5502   -0.2026 C   0  0  1  0  0  0  0  0  0  0  0  0
   -0.2311   -2.3083    1.6286 C   0  0  0  0  0  0  0  0  0  0  0  0
   -1.4550   -2.2971    1.0741 C   0  0  0  0  0  0  0  0  0  0  0  0
    4.7112    2.0403    0.5639 C   0  0  0  0  0  0  0  0  0  0  0  0
   -2.5928   -3.0675    1.6817 C   0  0  0  0  0  0  0  0  0  0  0  0
   -0.8821    2.9018    0.2142 C   0  0  0  0  0  0  0  0  0  0  0  0
    5.6701    2.9050   -0.1970 C   0  0  0  0  0  0  0  0  0  0  0  0
   -3.4818   -0.1380   -0.9679 C   0  0  0  0  0  0  0  0  0  0  0  0
   -1.1952    3.7995   -0.9444 C   0  0  0  0  0  0  0  0  0  0  0  0
   -4.3443    1.0408   -0.5755 C   0  0  0  0  0  0  0  0  0  0  0  0
   -5.6233    0.6279    0.1682 C   0  0  0  0  0  0  0  0  0  0  0  0
   -6.4864   -0.3348   -0.6489 C   0  0  0  0  0  0  0  0  0  0  0  0
   -6.4384    1.8739    0.5291 C   0  0  0  0  0  0  0  0  0  0  0  0
    3.6534   -2.9462   -0.3265 H   0  0  0  0  0  0  0  0  0  0  0  0
    2.6713    0.8101    1.1837 H   0  0  0  0  0  0  0  0  0  0  0  0
    4.1349   -2.1346   -2.6798 H   0  0  0  0  0  0  0  0  0  0  0  0
    3.3525   -0.6250   -3.3074 H   0  0  0  0  0  0  0  0  0  0  0  0
    4.8462   -0.9685    0.2560 H   0  0  0  0  0  0  0  0  0  0  0  0
    1.4181   -1.0764    1.9752 H   0  0  0  0  0  0  0  0  0  0  0  0
    0.8892    0.8116   -2.4730 H   0  0  0  0  0  0  0  0  0  0  0  0
    2.5972    1.1651   -2.4447 H   0  0  0  0  0  0  0  0  0  0  0  0
    1.5793    2.0286   -1.3579 H   0  0  0  0  0  0  0  0  0  0  0  0
   -0.7735   -0.2858   -1.6690 H   0  0  0  0  0  0  0  0  0  0  0  0
   -0.0842   -1.8811   -1.4590 H   0  0  0  0  0  0  0  0  0  0  0  0
   -0.8636    0.5314    1.3648 H   0  0  0  0  0  0  0  0  0  0  0  0
    0.7301    1.2367    1.4565 H   0  0  0  0  0  0  0  0  0  0  0  0
   -2.2302   -2.2692   -0.8791 H   0  0  0  0  0  0  0  0  0  0  0  0
   -0.0622   -2.8888    2.5332 H   0  0  0  0  0  0  0  0  0  0  0  0
    4.3511   -0.4425    2.4286 H   0  0  0  0  0  0  0  0  0  0  0  0
   -3.3878   -2.3870    1.9993 H   0  0  0  0  0  0  0  0  0  0  0  0
   -2.2802   -3.6430    2.5594 H   0  0  0  0  0  0  0  0  0  0  0  0
   -3.0067   -3.7733    0.9544 H   0  0  0  0  0  0  0  0  0  0  0  0
    6.4043    2.2799   -0.7113 H   0  0  0  0  0  0  0  0  0  0  0  0
    6.1981    3.5618    0.5001 H   0  0  0  0  0  0  0  0  0  0  0  0
    5.1228    3.5243   -0.9121 H   0  0  0  0  0  0  0  0  0  0  0  0
   -0.2712    4.0749   -1.4584 H   0  0  0  0  0  0  0  0  0  0  0  0
   -1.8805    3.2932   -1.6289 H   0  0  0  0  0  0  0  0  0  0  0  0
   -1.6793    4.7094   -0.5786 H   0  0  0  0  0  0  0  0  0  0  0  0
   -4.5805    1.5992   -1.4895 H   0  0  0  0  0  0  0  0  0  0  0  0
   -3.7333    1.7080    0.0455 H   0  0  0  0  0  0  0  0  0  0  0  0
   -6.7641    0.0967   -1.6161 H   0  0  0  0  0  0  0  0  0  0  0  0
   -7.4061   -0.5850   -0.1070 H   0  0  0  0  0  0  0  0  0  0  0  0
   -5.9751   -1.2874   -0.8252 H   0  0  0  0  0  0  0  0  0  0  0  0
   -5.8527    2.5511    1.1613 H   0  0  0  0  0  0  0  0  0  0  0  0
   -7.3285    1.6043    1.1089 H   0  0  0  0  0  0  0  0  0  0  0  0
   -6.7572    2.4209   -0.3641 H   0  0  0  0  0  0  0  0  0  0  0  0
   -4.8247   -0.8622    1.1646 H   0  0  0  0  0  0  0  0  0  0  0  0
  1 12  1  0  0  0  0
  1 16  1  0  0  0  0
  2 14  1  0  0  0  0
  2 18  1  0  0  0  0
  3 15  1  0  0  0  0
  3 25  1  0  0  0  0
  4 17  1  0  0  0  0
  4 50  1  0  0  0  0
  5 21  1  0  0  0  0
  5 27  1  0  0  0  0
  6 22  1  0  0  0  0
  6 29  1  0  0  0  0
  7 25  2  0  0  0  0
  8 27  2  0  0  0  0
  9 29  2  0  0  0  0
 10 32  1  0  0  0  0
 10 68  1  0  0  0  0
 11 12  1  0  0  0  0
 11 13  1  0  0  0  0
 11 15  1  0  0  0  0
 11 19  1  0  0  0  0
 12 14  1  0  0  0  0
 12 16  1  0  0  0  0
 13 18  1  0  0  0  0
 13 20  1  0  0  0  0
 13 21  1  0  0  0  0
 14 17  1  0  0  0  0
 14 35  1  0  0  0  0
 15 17  1  0  0  0  0
 15 36  1  0  0  0  0
 16 37  1  0  0  0  0
 16 38  1  0  0  0  0
 17 39  1  0  0  0  0
 18 23  1  0  0  0  0
 18 40  1  0  0  0  0
 19 41  1  0  0  0  0
 19 42  1  0  0  0  0
 19 43  1  0  0  0  0
 20 22  1  0  0  0  0
 20 44  1  0  0  0  0
 20 45  1  0  0  0  0
 21 46  1  0  0  0  0
 21 47  1  0  0  0  0
 22 24  1  0  0  0  0
 22 48  1  0  0  0  0
 23 24  2  0  0  0  0
 23 49  1  0  0  0  0
 24 26  1  0  0  0  0
 25 28  1  0  0  0  0
 26 51  1  0  0  0  0
 26 52  1  0  0  0  0
 26 53  1  0  0  0  0
 27 30  1  0  0  0  0
 28 54  1  0  0  0  0
 28 55  1  0  0  0  0
 28 56  1  0  0  0  0
 29 31  1  0  0  0  0
 30 57  1  0  0  0  0
 30 58  1  0  0  0  0
 30 59  1  0  0  0  0
 31 32  1  0  0  0  0
 31 60  1  0  0  0  0
 31 61  1  0  0  0  0
 32 33  1  0  0  0  0
 32 34  1  0  0  0  0
 33 62  1  0  0  0  0
 33 63  1  0  0  0  0
 33 64  1  0  0  0  0
 34 65  1  0  0  0  0
 34 66  1  0  0  0  0
 34 67  1  0  0  0  0
M  END
> <PUBCHEM_COMPOUND_CID>
107753

> <PUBCHEM_CONFORMER_RMSD>
1

> <PUBCHEM_CONFORMER_DIVERSEORDER>
1
13
24
28
22
33
20
17
30
5
34
10
19
31
18
8
29
9
15
35
32
4
7
26
6
11
25
21
14
27
16
23
2
12
3

> <PUBCHEM_MMFF94_PARTIAL_CHARGES>
34
1 -0.3
10 -0.68
11 0.09
12 -0.04
14 0.38
15 0.28
16 -0.05
17 0.28
18 0.42
2 -0.56
21 0.28
22 0.42
23 -0.29
24 -0.28
25 0.66
26 0.14
27 0.66
28 0.06
29 0.66
3 -0.43
30 0.06
31 0.06
32 0.28
37 0.1
38 0.1
4 -0.68
49 0.15
5 -0.43
50 0.4
6 -0.43
68 0.4
7 -0.57
8 -0.57
9 -0.57

> <PUBCHEM_EFFECTIVE_ROTOR_COUNT>
10.4

> <PUBCHEM_PHARMACOPHORE_FEATURES>
12
1 1 acceptor
1 10 acceptor
1 10 donor
1 2 acceptor
1 4 acceptor
1 4 donor
1 7 acceptor
1 8 acceptor
1 9 acceptor
3 32 33 34 hydrophobe
6 13 18 20 22 23 24 rings
8 2 11 12 13 14 15 17 18 rings

> <PUBCHEM_HEAVY_ATOM_COUNT>
34

> <PUBCHEM_ATOM_DEF_STEREO_COUNT>
6

> <PUBCHEM_ATOM_UDEF_STEREO_COUNT>
2

> <PUBCHEM_BOND_DEF_STEREO_COUNT>
0

> <PUBCHEM_BOND_UDEF_STEREO_COUNT>
0

> <PUBCHEM_ISOTOPIC_ATOM_COUNT>
0

> <PUBCHEM_COMPONENT_COUNT>
1

> <PUBCHEM_CACTVS_TAUTO_COUNT>
1

> <PUBCHEM_CONFORMER_ID>
0001A4E900000001

> <PUBCHEM_MMFF94_ENERGY>
112.4862

> <PUBCHEM_FEATURE_SELFOVERLAP>
60.912

> <PUBCHEM_SHAPE_FINGERPRINT>
10006869 2 18341041952459712408
10190108 129 17757865254859561377
10675989 125 18261954038044587819
10906281 52 18338806722524412036
11578080 2 18335148638922693410
12107698 1 18271521980045884950
12788726 201 18339654325577271301
13140716 1 18187362142614183226
140371 6 18338811111833516245
14787075 74 18340476837721376629
14790565 3 18338798893252731745
15081414 286 18343028800062339361
15324884 4 17982761819747147182
16112460 7 18129114337955561937
17349148 13 17459475459258662441
17980427 23 17024306542929856486
19319366 153 18187634774896835259
20600515 1 18113898303215950644
21285901 2 18130510725921368255
22149856 69 17822589226910303635
23559900 14 18334588931912440174
34934 24 18342454884745571079
350125 39 18410570648763890944
392239 28 18336543799045825113
4093350 32 17846506911174286501
4340502 62 18187080667700125867
46194498 28 17917157083131481542
469060 322 17898024447180197717
5104073 3 18040430022864316827
56638632 10 17194605625115793593
57527573 199 18334575801954595364
59755656 215 18411987957843671884
70251023 43 17702116780593573534
7226269 152 18335130973357863627

> <PUBCHEM_SHAPE_MULTIPOLES>
641.01
11.87
3.81
1.89
11.38
1.9
0.62
5.77
-0.78
-1.1
-1.03
-1.06
-0.81
1

> <PUBCHEM_SHAPE_SELFOVERLAP>
1356.371

> <PUBCHEM_SHAPE_VOLUME>
352.6

> <PUBCHEM_COORDINATE_TYPE>
2
5
10

$$$$
