107777
  -OEChem-03292013323D

 41 42  0     1  0  0  0  0  0999 V2000
   -3.1534   -1.3201    0.5098 O   0  0  0  0  0  0  0  0  0  0  0  0
   -2.1302    2.6299    0.0286 O   0  0  0  0  0  0  0  0  0  0  0  0
    2.4758    0.8402   -1.5260 O   0  0  0  0  0  0  0  0  0  0  0  0
    5.8118    1.2953    1.1925 O   0  0  0  0  0  0  0  0  0  0  0  0
    0.3166    1.9831   -0.5235 N   0  0  0  0  0  0  0  0  0  0  0  0
    5.5969   -1.4425    0.3391 N   0  0  0  0  0  0  0  0  0  0  0  0
   -4.1728   -0.3468    0.2243 C   0  0  0  0  0  0  0  0  0  0  0  0
   -3.7872    1.0466    0.7330 C   0  0  0  0  0  0  0  0  0  0  0  0
   -1.4612    0.3692    0.0198 C   0  0  0  0  0  0  0  0  0  0  0  0
   -2.4344    1.4581    0.2169 C   0  0  0  0  0  0  0  0  0  0  0  0
   -1.8730   -0.9520    0.1991 C   0  0  0  0  0  0  0  0  0  0  0  0
   -4.4934   -0.3537   -1.2801 C   0  0  0  0  0  0  0  0  0  0  0  0
   -5.4211   -0.8202    0.9846 C   0  0  0  0  0  0  0  0  0  0  0  0
   -0.1344    0.6588   -0.3114 C   0  0  0  0  0  0  0  0  0  0  0  0
    0.7848   -0.3814   -0.4495 C   0  0  0  0  0  0  0  0  0  0  0  0
   -0.9439   -1.9869    0.0755 C   0  0  0  0  0  0  0  0  0  0  0  0
    3.2748   -1.0894   -0.3136 C   0  0  0  0  0  0  0  0  0  0  0  0
    0.3821   -1.7018   -0.2521 C   0  0  0  0  0  0  0  0  0  0  0  0
    2.1761   -0.1311   -0.8078 C   0  0  0  0  0  0  0  0  0  0  0  0
    4.6351   -0.4146   -0.0754 C   0  0  1  0  0  0  0  0  0  0  0  0
    4.5510    0.6594    1.0160 C   0  0  0  0  0  0  0  0  0  0  0  0
   -3.7212    1.0618    1.8280 H   0  0  0  0  0  0  0  0  0  0  0  0
   -4.5291    1.7898    0.4197 H   0  0  0  0  0  0  0  0  0  0  0  0
   -4.7541   -1.3645   -1.6147 H   0  0  0  0  0  0  0  0  0  0  0  0
   -5.3289    0.3147   -1.5135 H   0  0  0  0  0  0  0  0  0  0  0  0
   -3.6349   -0.0442   -1.8851 H   0  0  0  0  0  0  0  0  0  0  0  0
   -5.2209   -0.8860    2.0604 H   0  0  0  0  0  0  0  0  0  0  0  0
   -6.2697   -0.1455    0.8304 H   0  0  0  0  0  0  0  0  0  0  0  0
   -5.7151   -1.8269    0.6650 H   0  0  0  0  0  0  0  0  0  0  0  0
   -1.2493   -3.0203    0.2181 H   0  0  0  0  0  0  0  0  0  0  0  0
    3.3735   -1.8783   -1.0698 H   0  0  0  0  0  0  0  0  0  0  0  0
    2.9467   -1.5547    0.6245 H   0  0  0  0  0  0  0  0  0  0  0  0
    1.0675   -2.5365   -0.3689 H   0  0  0  0  0  0  0  0  0  0  0  0
    5.0025    0.0419   -1.0022 H   0  0  0  0  0  0  0  0  0  0  0  0
    1.2909    2.1772   -0.7078 H   0  0  0  0  0  0  0  0  0  0  0  0
   -0.3184    2.7623   -0.4243 H   0  0  0  0  0  0  0  0  0  0  0  0
    3.8271    1.4353    0.7484 H   0  0  0  0  0  0  0  0  0  0  0  0
    4.2470    0.2256    1.9756 H   0  0  0  0  0  0  0  0  0  0  0  0
    6.5128   -1.0165    0.4751 H   0  0  0  0  0  0  0  0  0  0  0  0
    5.7064   -2.1289   -0.4064 H   0  0  0  0  0  0  0  0  0  0  0  0
    5.6996    1.9620    1.8915 H   0  0  0  0  0  0  0  0  0  0  0  0
  1  7  1  0  0  0  0
  1 11  1  0  0  0  0
  2 10  2  0  0  0  0
  3 19  2  0  0  0  0
  4 21  1  0  0  0  0
  4 41  1  0  0  0  0
  5 14  1  0  0  0  0
  5 35  1  0  0  0  0
  5 36  1  0  0  0  0
  6 20  1  0  0  0  0
  6 39  1  0  0  0  0
  6 40  1  0  0  0  0
  7  8  1  0  0  0  0
  7 12  1  0  0  0  0
  7 13  1  0  0  0  0
  8 10  1  0  0  0  0
  8 22  1  0  0  0  0
  8 23  1  0  0  0  0
  9 10  1  0  0  0  0
  9 11  2  0  0  0  0
  9 14  1  0  0  0  0
 11 16  1  0  0  0  0
 12 24  1  0  0  0  0
 12 25  1  0  0  0  0
 12 26  1  0  0  0  0
 13 27  1  0  0  0  0
 13 28  1  0  0  0  0
 13 29  1  0  0  0  0
 14 15  2  0  0  0  0
 15 18  1  0  0  0  0
 15 19  1  0  0  0  0
 16 18  2  0  0  0  0
 16 30  1  0  0  0  0
 17 19  1  0  0  0  0
 17 20  1  0  0  0  0
 17 31  1  0  0  0  0
 17 32  1  0  0  0  0
 18 33  1  0  0  0  0
 20 21  1  0  0  0  0
 20 34  1  0  0  0  0
 21 37  1  0  0  0  0
 21 38  1  0  0  0  0
M  END
> <PUBCHEM_COMPOUND_CID>
107777

> <PUBCHEM_CONFORMER_RMSD>
0.8

> <PUBCHEM_CONFORMER_DIVERSEORDER>
1
44
52
51
15
41
24
39
40
32
46
10
25
23
42
48
27
35
37
12
4
31
29
50
49
18
28
14
20
45
8
30
9
34
47
3
6
13
26
53
22
7
36
33
21
17
16
19
11
5
43
2
38

> <PUBCHEM_MMFF94_PARTIAL_CHARGES>
26
1 -0.36
10 0.42
11 0.08
14 0.1
15 0.09
16 -0.15
17 0.06
18 -0.15
19 0.42
2 -0.57
20 0.27
21 0.28
3 -0.57
30 0.15
33 0.15
35 0.4
36 0.4
39 0.36
4 -0.68
40 0.36
41 0.4
5 -0.9
6 -0.99
7 0.28
8 0.06
9 0.09

> <PUBCHEM_EFFECTIVE_ROTOR_COUNT>
4.6

> <PUBCHEM_PHARMACOPHORE_FEATURES>
12
1 1 acceptor
1 2 acceptor
1 3 acceptor
1 4 acceptor
1 4 donor
1 5 cation
1 5 donor
1 6 cation
1 6 donor
3 7 12 13 hydrophobe
6 1 7 8 9 10 11 rings
6 9 11 14 15 16 18 rings

> <PUBCHEM_HEAVY_ATOM_COUNT>
21

> <PUBCHEM_ATOM_DEF_STEREO_COUNT>
0

> <PUBCHEM_ATOM_UDEF_STEREO_COUNT>
1

> <PUBCHEM_BOND_DEF_STEREO_COUNT>
0

> <PUBCHEM_BOND_UDEF_STEREO_COUNT>
0

> <PUBCHEM_ISOTOPIC_ATOM_COUNT>
0

> <PUBCHEM_COMPONENT_COUNT>
1

> <PUBCHEM_CACTVS_TAUTO_COUNT>
20

> <PUBCHEM_CONFORMER_ID>
0001A50100000001

> <PUBCHEM_MMFF94_ENERGY>
70.3272

> <PUBCHEM_FEATURE_SELFOVERLAP>
60.927

> <PUBCHEM_SHAPE_FINGERPRINT>
10 15 18339349873627905440
10319926 262 18267291055323682074
11132069 177 18409174277000825213
11401426 45 18412261740248930335
11595378 159 18114727270964933632
12236239 1 17603590716386180886
12403259 415 18271811181341667692
12403260 363 18410856564067015645
12507557 5 18113336427362750197
12507560 40 18342453725906130708
12592029 89 15140952955025805562
12596602 18 17530961419256907080
12670546 56 18409161083040886810
13140716 1 18194690486734713091
13533116 47 18340769252507518666
13675066 3 18408889537965358286
13862211 1 18408889559746273279
14178342 30 18194414302946980637
14341114 176 18342740728442688504
14420673 8 17831014633932561682
14787075 74 17988918998356068136
15042514 8 18337116782006471851
15048467 5 15410621371972883787
15196674 1 18410297969083455023
15209294 21 17988094279094742561
15788980 27 16588025710099920207
16945 1 18410583881447262655
17349148 13 18260833695609200431
17862501 102 18260832574717603486
1813 80 16950282889110173718
18222031 100 17385726881262605158
18522853 276 18410015433418620815
192875 21 18334579052996815029
19489759 90 16877938322078407983
200 152 18410571778203010055
20510252 161 18272092647417155737
20645477 70 13262672622196307360
21033648 29 18059841849482106184
21267235 1 18262533527685269071
21792934 111 18409451397651286097
21859007 373 17532067471835415445
22854114 59 17989489610684191074
23175994 123 13695593251931671975
23402539 116 18412540999022451495
23557571 272 18200887188171190980
23559900 14 18270701808932983694
2748010 2 18049459045338095903
296302 2 16559037086149676495
3009799 131 18262222383733497341
34797466 226 16415205619286901956
351380 180 18343298175978455480
4325135 7 16988838414682609461
4340502 62 15482675675559591174
5104073 3 18339084761352830034
53917941 68 18117264862546004909
542803 24 16056881333919929082
69090 78 18131631192367968718
9709674 26 18341342088890060822

> <PUBCHEM_SHAPE_MULTIPOLES>
398.73
11.67
1.97
1.03
8.55
0.5
-0.09
-0.62
3.42
-0.29
0.09
0.1
0.12
0.41

> <PUBCHEM_SHAPE_SELFOVERLAP>
845.979

> <PUBCHEM_SHAPE_VOLUME>
222.6

> <PUBCHEM_COORDINATE_TYPE>
2
5
10

$$$$
