10783458
  -OEChem-03292013303D

 46 46  0     1  0  0  0  0  0999 V2000
   -2.8054   -0.3119   -0.5362 O   0  0  0  0  0  0  0  0  0  0  0  0
    2.6058   -1.5576   -0.4829 O   0  0  0  0  0  0  0  0  0  0  0  0
   -0.5394    2.1961   -0.5251 O   0  0  0  0  0  0  0  0  0  0  0  0
   -2.4576   -3.9253    0.0613 O   0  0  0  0  0  0  0  0  0  0  0  0
    5.1379    1.0831   -0.0724 O   0  0  0  0  0  0  0  0  0  0  0  0
   -3.8358    0.8277    1.1885 O   0  0  0  0  0  0  0  0  0  0  0  0
    1.6923   -1.6588    1.6398 O   0  0  0  0  0  0  0  0  0  0  0  0
    0.6596    2.8668    1.3366 O   0  0  0  0  0  0  0  0  0  0  0  0
   -3.1565   -1.5948    0.0360 C   0  0  2  0  0  0  0  0  0  0  0  0
   -2.0658   -2.6144   -0.3430 C   0  0  1  0  0  0  0  0  0  0  0  0
   -1.7600    2.8106   -0.0569 C   0  0  2  0  0  0  0  0  0  0  0  0
    3.8494   -0.9861   -0.0096 C   0  0  2  0  0  0  0  0  0  0  0  0
   -2.9251    2.0448   -0.6827 C   0  0  0  0  0  0  0  0  0  0  0  0
    3.8929    0.4937   -0.4378 C   0  0  1  0  0  0  0  0  0  0  0  0
   -4.5231   -1.9975   -0.5198 C   0  0  0  0  0  0  0  0  0  0  0  0
   -3.2483    0.8026    0.1140 C   0  0  0  0  0  0  0  0  0  0  0  0
   -0.7613   -2.2935    0.3354 C   0  0  0  0  0  0  0  0  0  0  0  0
   -1.7671    4.2674   -0.5088 C   0  0  0  0  0  0  0  0  0  0  0  0
    4.9797   -1.7923   -0.6434 C   0  0  0  0  0  0  0  0  0  0  0  0
    2.7814    1.2805    0.2067 C   0  0  0  0  0  0  0  0  0  0  0  0
    0.3906   -2.1137   -0.3243 C   0  0  0  0  0  0  0  0  0  0  0  0
    1.6689    1.6283   -0.4544 C   0  0  0  0  0  0  0  0  0  0  0  0
    1.6174   -1.7710    0.4267 C   0  0  0  0  0  0  0  0  0  0  0  0
    0.5694    2.3152    0.2522 C   0  0  0  0  0  0  0  0  0  0  0  0
   -3.2294   -1.5246    1.1295 H   0  0  0  0  0  0  0  0  0  0  0  0
   -1.9341   -2.6286   -1.4316 H   0  0  0  0  0  0  0  0  0  0  0  0
   -1.8124    2.7586    1.0376 H   0  0  0  0  0  0  0  0  0  0  0  0
    3.9456   -1.0754    1.0801 H   0  0  0  0  0  0  0  0  0  0  0  0
   -2.7110    1.7659   -1.7214 H   0  0  0  0  0  0  0  0  0  0  0  0
   -3.8409    2.6480   -0.6954 H   0  0  0  0  0  0  0  0  0  0  0  0
    3.7994    0.5665   -1.5293 H   0  0  0  0  0  0  0  0  0  0  0  0
   -4.4899   -2.0793   -1.6118 H   0  0  0  0  0  0  0  0  0  0  0  0
   -4.8636   -2.9511   -0.1059 H   0  0  0  0  0  0  0  0  0  0  0  0
   -5.2755   -1.2369   -0.2854 H   0  0  0  0  0  0  0  0  0  0  0  0
   -0.7888   -2.2112    1.4198 H   0  0  0  0  0  0  0  0  0  0  0  0
   -1.6764    4.3395   -1.5983 H   0  0  0  0  0  0  0  0  0  0  0  0
   -2.6854    4.7747   -0.1979 H   0  0  0  0  0  0  0  0  0  0  0  0
   -0.9145    4.8094   -0.0864 H   0  0  0  0  0  0  0  0  0  0  0  0
    4.8666   -2.8552   -0.4029 H   0  0  0  0  0  0  0  0  0  0  0  0
    4.9535   -1.7137   -1.7358 H   0  0  0  0  0  0  0  0  0  0  0  0
    5.9614   -1.4647   -0.2894 H   0  0  0  0  0  0  0  0  0  0  0  0
    2.8932    1.5173    1.2620 H   0  0  0  0  0  0  0  0  0  0  0  0
    0.4438   -2.1915   -1.4047 H   0  0  0  0  0  0  0  0  0  0  0  0
    1.5277    1.3642   -1.4973 H   0  0  0  0  0  0  0  0  0  0  0  0
   -2.6521   -3.9020    1.0141 H   0  0  0  0  0  0  0  0  0  0  0  0
    5.8155    0.7457   -0.6823 H   0  0  0  0  0  0  0  0  0  0  0  0
  1  9  1  0  0  0  0
  1 16  1  0  0  0  0
  2 12  1  0  0  0  0
  2 23  1  0  0  0  0
  3 11  1  0  0  0  0
  3 24  1  0  0  0  0
  4 10  1  0  0  0  0
  4 45  1  0  0  0  0
  5 14  1  0  0  0  0
  5 46  1  0  0  0  0
  6 16  2  0  0  0  0
  7 23  2  0  0  0  0
  8 24  2  0  0  0  0
  9 10  1  0  0  0  0
  9 15  1  0  0  0  0
  9 25  1  0  0  0  0
 10 17  1  0  0  0  0
 10 26  1  0  0  0  0
 11 13  1  0  0  0  0
 11 18  1  0  0  0  0
 11 27  1  0  0  0  0
 12 14  1  0  0  0  0
 12 19  1  0  0  0  0
 12 28  1  0  0  0  0
 13 16  1  0  0  0  0
 13 29  1  0  0  0  0
 13 30  1  0  0  0  0
 14 20  1  0  0  0  0
 14 31  1  0  0  0  0
 15 32  1  0  0  0  0
 15 33  1  0  0  0  0
 15 34  1  0  0  0  0
 17 21  2  0  0  0  0
 17 35  1  0  0  0  0
 18 36  1  0  0  0  0
 18 37  1  0  0  0  0
 18 38  1  0  0  0  0
 19 39  1  0  0  0  0
 19 40  1  0  0  0  0
 19 41  1  0  0  0  0
 20 22  2  0  0  0  0
 20 42  1  0  0  0  0
 21 23  1  0  0  0  0
 21 43  1  0  0  0  0
 22 24  1  0  0  0  0
 22 44  1  0  0  0  0
M  END
> <PUBCHEM_COMPOUND_CID>
10783458

> <PUBCHEM_CONFORMER_RMSD>
0.6

> <PUBCHEM_CONFORMER_DIVERSEORDER>
1

> <PUBCHEM_MMFF94_PARTIAL_CHARGES>
27
1 -0.43
10 0.42
11 0.28
12 0.28
13 0.06
14 0.42
16 0.66
17 -0.29
2 -0.43
20 -0.29
21 -0.14
22 -0.14
23 0.71
24 0.71
3 -0.43
35 0.15
4 -0.68
42 0.15
43 0.15
44 0.15
45 0.4
46 0.4
5 -0.68
6 -0.57
7 -0.57
8 -0.57
9 0.28

> <PUBCHEM_EFFECTIVE_ROTOR_COUNT>
1.8

> <PUBCHEM_PHARMACOPHORE_FEATURES>
7
1 4 acceptor
1 4 donor
1 5 acceptor
1 5 donor
1 6 acceptor
1 7 acceptor
1 8 acceptor

> <PUBCHEM_HEAVY_ATOM_COUNT>
24

> <PUBCHEM_ATOM_DEF_STEREO_COUNT>
5

> <PUBCHEM_ATOM_UDEF_STEREO_COUNT>
0

> <PUBCHEM_BOND_DEF_STEREO_COUNT>
2

> <PUBCHEM_BOND_UDEF_STEREO_COUNT>
0

> <PUBCHEM_ISOTOPIC_ATOM_COUNT>
0

> <PUBCHEM_COMPONENT_COUNT>
1

> <PUBCHEM_CACTVS_TAUTO_COUNT>
1

> <PUBCHEM_CONFORMER_ID>
00A48AE200000001

> <PUBCHEM_MMFF94_ENERGY>
41.9951

> <PUBCHEM_FEATURE_SELFOVERLAP>
35.525

> <PUBCHEM_SHAPE_FINGERPRINT>
10498660 4 18336822005315000871
10616163 171 18120094983230722124
10759866 29 17825111398519545258
107951 10 17242178946771825977
108634 29 18341616958597155238
11014199 57 18122349235607825003
11513181 2 17697024847808647991
12038231 1 18266176325866938543
12293681 4 18043814401802393122
12553582 1 18337101354409630425
12596599 1 17916888844859023343
12645989 146 18272370892822021310
12788726 201 18334011735604849256
13122387 1 18194116318173564711
13402501 40 18412263947614038183
138480 1 16104448041004631365
14081887 123 18340473522127781248
14117953 113 16895101419425848796
14251745 187 18339355387437244920
14251751 93 18336825278027209364
14251757 5 18338536165649857014
14363568 33 17181397204657660744
14765038 42 18200335275999455768
14790565 3 18052545374404183025
14931854 50 18336261327167112718
15196674 1 18411138034906722166
17093844 170 17979345692321056769
19591789 44 18338237042499201374
19930381 70 16969138722725626079
20621476 13 17689424310593687863
20775438 99 17121369277620236735
20905425 154 18412263947408251540
21141583 151 18343022151478689352
21673915 165 18411136948343501148
221357 26 18412544348738596894
23352939 185 18272091643012207907
23559900 14 17979909742223909981
3014063 31 18338510958364996375
5047190 48 16900446734113195656
6438718 38 18060414707640203575

> <PUBCHEM_SHAPE_MULTIPOLES>
446.95
8.68
5.03
0.92
5.54
1.53
0.22
-2.57
-1.12
-3.83
-0.17
0.01
0.08
0.12

> <PUBCHEM_SHAPE_SELFOVERLAP>
896.619

> <PUBCHEM_SHAPE_VOLUME>
260.1

> <PUBCHEM_COORDINATE_TYPE>
2
5
10

$$$$
