107849
  -OEChem-03292013323D

 37 41  0     1  0  0  0  0  0999 V2000
   -5.2432    0.6986   -0.9171 O   0  0  0  0  0  0  0  0  0  0  0  0
   -3.6290    1.7896    0.4671 O   0  0  0  0  0  0  0  0  0  0  0  0
   -1.5433   -2.3813    0.4386 O   0  0  0  0  0  0  0  0  0  0  0  0
    0.9939   -2.4597    0.1793 O   0  0  0  0  0  0  0  0  0  0  0  0
    1.3492    2.8724    0.0025 O   0  0  0  0  0  0  0  0  0  0  0  0
    3.5307   -2.7205   -0.0352 O   0  0  0  0  0  0  0  0  0  0  0  0
    6.1028    1.2426   -0.3735 O   0  0  0  0  0  0  0  0  0  0  0  0
   -3.9451   -0.6260    0.6094 C   0  0  1  0  0  0  0  0  0  0  0  0
   -4.6152    0.7347    0.3792 C   0  0  2  0  0  0  0  0  0  0  0  0
   -4.5431   -1.5034   -0.4642 C   0  0  0  0  0  0  0  0  0  0  0  0
   -2.5243   -0.2358    0.4280 C   0  0  0  0  0  0  0  0  0  0  0  0
   -4.8741   -0.5220   -1.5684 C   0  0  0  0  0  0  0  0  0  0  0  0
   -2.4232    1.1444    0.3812 C   0  0  0  0  0  0  0  0  0  0  0  0
   -1.3943   -1.0321    0.3548 C   0  0  0  0  0  0  0  0  0  0  0  0
   -0.1458   -0.4063    0.2237 C   0  0  0  0  0  0  0  0  0  0  0  0
   -1.2055    1.7870    0.2616 C   0  0  0  0  0  0  0  0  0  0  0  0
   -0.0520    0.9956    0.1782 C   0  0  0  0  0  0  0  0  0  0  0  0
    1.0725   -1.2380    0.1396 C   0  0  0  0  0  0  0  0  0  0  0  0
    1.2652    1.6510    0.0437 C   0  0  0  0  0  0  0  0  0  0  0  0
    2.3866   -0.5775    0.0058 C   0  0  0  0  0  0  0  0  0  0  0  0
    2.4795    0.8147   -0.0407 C   0  0  0  0  0  0  0  0  0  0  0  0
    3.5467   -1.3575   -0.0749 C   0  0  0  0  0  0  0  0  0  0  0  0
    3.7323    1.4270   -0.1682 C   0  0  0  0  0  0  0  0  0  0  0  0
    4.8855    0.6460   -0.2484 C   0  0  0  0  0  0  0  0  0  0  0  0
    4.7930   -0.7435   -0.2020 C   0  0  0  0  0  0  0  0  0  0  0  0
   -4.1016   -1.0038    1.6249 H   0  0  0  0  0  0  0  0  0  0  0  0
   -5.3995    0.9307    1.1187 H   0  0  0  0  0  0  0  0  0  0  0  0
   -5.4770   -1.9370   -0.0858 H   0  0  0  0  0  0  0  0  0  0  0  0
   -3.9124   -2.3220   -0.8185 H   0  0  0  0  0  0  0  0  0  0  0  0
   -4.0045   -0.3223   -2.2040 H   0  0  0  0  0  0  0  0  0  0  0  0
   -5.6972   -0.8642   -2.2018 H   0  0  0  0  0  0  0  0  0  0  0  0
   -1.1632    2.8707    0.2300 H   0  0  0  0  0  0  0  0  0  0  0  0
   -2.4336   -2.6001    0.7584 H   0  0  0  0  0  0  0  0  0  0  0  0
    3.8177    2.5103   -0.2057 H   0  0  0  0  0  0  0  0  0  0  0  0
    5.6946   -1.3481   -0.2651 H   0  0  0  0  0  0  0  0  0  0  0  0
    2.6253   -3.0520    0.0570 H   0  0  0  0  0  0  0  0  0  0  0  0
    5.9819    2.2076   -0.3894 H   0  0  0  0  0  0  0  0  0  0  0  0
  1  9  1  0  0  0  0
  1 12  1  0  0  0  0
  2  9  1  0  0  0  0
  2 13  1  0  0  0  0
  3 14  1  0  0  0  0
  3 33  1  0  0  0  0
  4 18  2  0  0  0  0
  5 19  2  0  0  0  0
  6 22  1  0  0  0  0
  6 36  1  0  0  0  0
  7 24  1  0  0  0  0
  7 37  1  0  0  0  0
  8  9  1  0  0  0  0
  8 10  1  0  0  0  0
  8 11  1  0  0  0  0
  8 26  1  0  0  0  0
  9 27  1  0  0  0  0
 10 12  1  0  0  0  0
 10 28  1  0  0  0  0
 10 29  1  0  0  0  0
 11 13  2  0  0  0  0
 11 14  1  0  0  0  0
 12 30  1  0  0  0  0
 12 31  1  0  0  0  0
 13 16  1  0  0  0  0
 14 15  2  0  0  0  0
 15 17  1  0  0  0  0
 15 18  1  0  0  0  0
 16 17  2  0  0  0  0
 16 32  1  0  0  0  0
 17 19  1  0  0  0  0
 18 20  1  0  0  0  0
 19 21  1  0  0  0  0
 20 21  2  0  0  0  0
 20 22  1  0  0  0  0
 21 23  1  0  0  0  0
 22 25  2  0  0  0  0
 23 24  2  0  0  0  0
 23 34  1  0  0  0  0
 24 25  1  0  0  0  0
 25 35  1  0  0  0  0
M  END
> <PUBCHEM_COMPOUND_CID>
107849

> <PUBCHEM_CONFORMER_RMSD>
0.6

> <PUBCHEM_CONFORMER_DIVERSEORDER>
1

> <PUBCHEM_MMFF94_PARTIAL_CHARGES>
30
1 -0.56
11 -0.14
12 0.28
13 0.08
14 0.08
15 0.09
16 -0.15
17 0.09
18 0.4
19 0.4
2 -0.36
20 0.09
21 0.09
22 0.08
23 -0.15
24 0.08
25 -0.15
3 -0.53
32 0.15
33 0.45
34 0.15
35 0.15
36 0.45
37 0.45
4 -0.57
5 -0.57
6 -0.53
7 -0.53
8 0.14
9 0.56

> <PUBCHEM_EFFECTIVE_ROTOR_COUNT>
0.8

> <PUBCHEM_PHARMACOPHORE_FEATURES>
12
1 1 acceptor
1 2 acceptor
1 3 donor
1 4 acceptor
1 5 acceptor
1 6 donor
1 7 donor
5 1 8 9 10 12 rings
5 2 8 9 11 13 rings
6 11 13 14 15 16 17 rings
6 15 17 18 19 20 21 rings
6 20 21 22 23 24 25 rings

> <PUBCHEM_HEAVY_ATOM_COUNT>
25

> <PUBCHEM_ATOM_DEF_STEREO_COUNT>
2

> <PUBCHEM_ATOM_UDEF_STEREO_COUNT>
0

> <PUBCHEM_BOND_DEF_STEREO_COUNT>
0

> <PUBCHEM_BOND_UDEF_STEREO_COUNT>
0

> <PUBCHEM_ISOTOPIC_ATOM_COUNT>
0

> <PUBCHEM_COMPONENT_COUNT>
1

> <PUBCHEM_CACTVS_TAUTO_COUNT>
57

> <PUBCHEM_CONFORMER_ID>
0001A54900000001

> <PUBCHEM_MMFF94_ENERGY>
80.8525

> <PUBCHEM_FEATURE_SELFOVERLAP>
61.666

> <PUBCHEM_SHAPE_FINGERPRINT>
10411042 1 17472702420853806218
10906281 52 18339943548648142424
10967382 1 18410298003923293354
11471102 20 18409165510809050088
11578080 2 17096918062598668615
12011746 2 18410012147805731716
12107183 9 17693383234968438104
12236239 1 17918276445665660052
12788726 201 17774735146809592216
12838862 33 18338501024475353848
13140716 1 18122919886273694937
13862211 1 18411134732156090218
14528608 73 18413671322682194822
14787075 74 18412826889119988680
14790565 3 18338244768903170168
15099037 51 18408886260588611949
15196674 1 18410859828278707018
15536298 74 18341896272772409136
1601671 61 18408042931355220852
17349148 13 18273498974370737153
18681886 176 18341609382364561056
18769570 83 15357688652960073941
19591789 44 18337955576017629274
200 152 18202280312485124641
20028762 73 18200025141249654958
20511986 3 18340471314213598652
20775438 99 16260339609112125575
21029758 11 18413388735003356737
21033648 29 17677038114644317069
21267235 1 18411430504730873594
21279426 13 18264208019643500925
21857420 4 12847998055861607252
221357 26 18409719665397670741
221490 88 18336834211738507291
22393880 68 18261096483905782215
23402539 116 18342737412210964621
23557571 272 14261085242029371977
23559900 14 18340763857400704880
2871803 45 18335701615930073228
3004659 81 18187647964835735962
335352 9 18337956692518923525
34797466 226 16415197918458019632
34934 24 18410009953446818866
350125 39 18265060300464631427
3545911 37 18408889567718568298
4214541 1 18411703162298020097
4280585 95 17337604349391746886
4340502 62 16515688844756816090
474 4 17894919563549462662
5104073 3 18410579448392076690
59755656 215 18409454661794639462
602551 16 15410320161183423189
7495541 125 16415472787722047792
9709674 26 18411991247060782515

> <PUBCHEM_SHAPE_MULTIPOLES>
473.4
11.6
2.49
0.81
0.98
0.31
0.17
-0.28
2.65
1.02
-0.15
-0.81
0.05
-0.4

> <PUBCHEM_SHAPE_SELFOVERLAP>
1098.071

> <PUBCHEM_SHAPE_VOLUME>
239.1

> <PUBCHEM_COORDINATE_TYPE>
2
5
10

$$$$
