107864
  -OEChem-03292013323D

 63 65  0     1  0  0  0  0  0999 V2000
    1.1174   -0.7425   -1.7416 O   0  0  0  0  0  0  0  0  0  0  0  0
   -8.9202   -0.9086   -0.8015 O   0  0  0  0  0  0  0  0  0  0  0  0
    4.8199   -1.1200    0.6588 O   0  0  0  0  0  0  0  0  0  0  0  0
    1.6831    0.7940    2.4584 O   0  0  0  0  0  0  0  0  0  0  0  0
   -6.5528   -1.1419    0.7557 O   0  0  0  0  0  0  0  0  0  0  0  0
    2.8094    2.3149   -1.7978 O   0  0  0  0  0  0  0  0  0  0  0  0
    1.9343   -1.9032    0.0753 N   0  0  0  0  0  0  0  0  0  0  0  0
    0.5880    1.0072    0.4194 N   0  0  0  0  0  0  0  0  0  0  0  0
    4.1636   -0.3154   -1.4143 N   0  0  0  0  0  0  0  0  0  0  0  0
    3.4590    2.0872    0.4205 N   0  0  0  0  0  0  0  0  0  0  0  0
    3.1509   -2.3639   -0.5941 C   0  0  2  0  0  0  0  0  0  0  0  0
    3.5116   -3.6549    0.1331 C   0  0  0  0  0  0  0  0  0  0  0  0
    1.7384   -2.5852    1.3518 C   0  0  0  0  0  0  0  0  0  0  0  0
    2.9754   -3.4499    1.5465 C   0  0  0  0  0  0  0  0  0  0  0  0
    0.0269   -0.3395    0.3557 C   0  0  2  0  0  0  0  0  0  0  0  0
    1.0357   -1.0464   -0.5467 C   0  0  0  0  0  0  0  0  0  0  0  0
   -1.3589   -0.3240   -0.2690 C   0  0  0  0  0  0  0  0  0  0  0  0
    4.1693   -1.2408   -0.3773 C   0  0  0  0  0  0  0  0  0  0  0  0
   -2.3794    0.3494    0.6484 C   0  0  0  0  0  0  0  0  0  0  0  0
   -3.7656    0.3929    0.0023 C   0  0  0  0  0  0  0  0  0  0  0  0
   -4.7774    1.1026    0.9068 C   0  0  0  0  0  0  0  0  0  0  0  0
    4.7783    1.0023   -1.3029 C   0  0  2  0  0  0  0  0  0  0  0  0
   -6.1652    1.1882    0.2778 C   0  0  0  0  0  0  0  0  0  0  0  0
   -7.6775   -0.3020   -1.1408 C   0  0  2  0  0  0  0  0  0  0  0  0
    1.4598    1.4162    1.4218 C   0  0  0  0  0  0  0  0  0  0  0  0
    2.2567    2.6533    1.0247 C   0  0  1  0  0  0  0  0  0  0  0  0
   -6.7697   -0.1745    0.0352 C   0  0  0  0  0  0  0  0  0  0  0  0
   -8.9462    0.4766   -1.1696 C   0  0  0  0  0  0  0  0  0  0  0  0
    3.6016    1.9061   -0.9501 C   0  0  0  0  0  0  0  0  0  0  0  0
    5.4263    1.4104   -2.6158 C   0  0  0  0  0  0  0  0  0  0  0  0
    2.6074    3.5113    2.2291 C   0  0  0  0  0  0  0  0  0  0  0  0
    2.9794   -2.5287   -1.6628 H   0  0  0  0  0  0  0  0  0  0  0  0
    2.9838   -4.4972   -0.3309 H   0  0  0  0  0  0  0  0  0  0  0  0
    4.5829   -3.8769    0.1236 H   0  0  0  0  0  0  0  0  0  0  0  0
    1.6245   -1.8676    2.1672 H   0  0  0  0  0  0  0  0  0  0  0  0
    0.8274   -3.1882    1.2762 H   0  0  0  0  0  0  0  0  0  0  0  0
    3.7128   -2.9180    2.1582 H   0  0  0  0  0  0  0  0  0  0  0  0
    2.7485   -4.3929    2.0526 H   0  0  0  0  0  0  0  0  0  0  0  0
   -0.0128   -0.7660    1.3586 H   0  0  0  0  0  0  0  0  0  0  0  0
   -1.3418    0.1939   -1.2368 H   0  0  0  0  0  0  0  0  0  0  0  0
   -1.6772   -1.3543   -0.4726 H   0  0  0  0  0  0  0  0  0  0  0  0
   -2.0595    1.3727    0.8787 H   0  0  0  0  0  0  0  0  0  0  0  0
   -2.4346   -0.1934    1.5999 H   0  0  0  0  0  0  0  0  0  0  0  0
   -3.7063    0.9191   -0.9583 H   0  0  0  0  0  0  0  0  0  0  0  0
   -4.0916   -0.6311   -0.2115 H   0  0  0  0  0  0  0  0  0  0  0  0
    0.4830    1.5934   -0.4040 H   0  0  0  0  0  0  0  0  0  0  0  0
   -4.4260    2.1197    1.1187 H   0  0  0  0  0  0  0  0  0  0  0  0
   -4.8365    0.5797    1.8694 H   0  0  0  0  0  0  0  0  0  0  0  0
    3.5728   -0.4892   -2.2227 H   0  0  0  0  0  0  0  0  0  0  0  0
    5.5230    1.0036   -0.5002 H   0  0  0  0  0  0  0  0  0  0  0  0
   -6.8416    1.7410    0.9386 H   0  0  0  0  0  0  0  0  0  0  0  0
   -6.1055    1.7295   -0.6732 H   0  0  0  0  0  0  0  0  0  0  0  0
   -7.2193   -0.5928   -2.0770 H   0  0  0  0  0  0  0  0  0  0  0  0
    1.7093    3.2476    0.2857 H   0  0  0  0  0  0  0  0  0  0  0  0
   -9.1467    1.1965   -0.3868 H   0  0  0  0  0  0  0  0  0  0  0  0
   -9.3697    0.7285   -2.1334 H   0  0  0  0  0  0  0  0  0  0  0  0
    4.1467    1.6746    1.0445 H   0  0  0  0  0  0  0  0  0  0  0  0
    4.7114    1.3927   -3.4463 H   0  0  0  0  0  0  0  0  0  0  0  0
    6.2437    0.7278   -2.8715 H   0  0  0  0  0  0  0  0  0  0  0  0
    5.8325    2.4250   -2.5481 H   0  0  0  0  0  0  0  0  0  0  0  0
    1.7002    3.8826    2.7170 H   0  0  0  0  0  0  0  0  0  0  0  0
    3.1815    2.9510    2.9759 H   0  0  0  0  0  0  0  0  0  0  0  0
    3.2137    4.3717    1.9268 H   0  0  0  0  0  0  0  0  0  0  0  0
  1 16  2  0  0  0  0
  2 24  1  0  0  0  0
  2 28  1  0  0  0  0
  3 18  2  0  0  0  0
  4 25  2  0  0  0  0
  5 27  2  0  0  0  0
  6 29  2  0  0  0  0
  7 11  1  0  0  0  0
  7 13  1  0  0  0  0
  7 16  1  0  0  0  0
  8 15  1  0  0  0  0
  8 25  1  0  0  0  0
  8 46  1  0  0  0  0
  9 18  1  0  0  0  0
  9 22  1  0  0  0  0
  9 49  1  0  0  0  0
 10 26  1  0  0  0  0
 10 29  1  0  0  0  0
 10 57  1  0  0  0  0
 11 12  1  0  0  0  0
 11 18  1  0  0  0  0
 11 32  1  0  0  0  0
 12 14  1  0  0  0  0
 12 33  1  0  0  0  0
 12 34  1  0  0  0  0
 13 14  1  0  0  0  0
 13 35  1  0  0  0  0
 13 36  1  0  0  0  0
 14 37  1  0  0  0  0
 14 38  1  0  0  0  0
 15 16  1  0  0  0  0
 15 17  1  0  0  0  0
 15 39  1  0  0  0  0
 17 19  1  0  0  0  0
 17 40  1  0  0  0  0
 17 41  1  0  0  0  0
 19 20  1  0  0  0  0
 19 42  1  0  0  0  0
 19 43  1  0  0  0  0
 20 21  1  0  0  0  0
 20 44  1  0  0  0  0
 20 45  1  0  0  0  0
 21 23  1  0  0  0  0
 21 47  1  0  0  0  0
 21 48  1  0  0  0  0
 22 29  1  0  0  0  0
 22 30  1  0  0  0  0
 22 50  1  0  0  0  0
 23 27  1  0  0  0  0
 23 51  1  0  0  0  0
 23 52  1  0  0  0  0
 24 27  1  0  0  0  0
 24 28  1  0  0  0  0
 24 53  1  0  0  0  0
 25 26  1  0  0  0  0
 26 31  1  0  0  0  0
 26 54  1  0  0  0  0
 28 55  1  0  0  0  0
 28 56  1  0  0  0  0
 30 58  1  0  0  0  0
 30 59  1  0  0  0  0
 30 60  1  0  0  0  0
 31 61  1  0  0  0  0
 31 62  1  0  0  0  0
 31 63  1  0  0  0  0
M  END
> <PUBCHEM_COMPOUND_CID>
107864

> <PUBCHEM_CONFORMER_RMSD>
1

> <PUBCHEM_CONFORMER_DIVERSEORDER>
1
239
179
170
184
246
80
144
260
29
254
64
82
233
240
21
27
278
72
62
259
119
143
68
206
57
103
158
117
102
81
192
40
269
200
222
193
251
23
86
70
51
98
198
171
112
96
25
284
181
166
28
130
32
187
227
91
236
63
37
163
140
61
54
261
275
180
277
279
256
66
92
85
38
257
283
229
132
116
76
190
159
115
218
46
39
126
145
258
108
185
56
74
253
71
123
155
247
221
244
58
203
142
50
285
182
230
156
31
248
214
136
238
212
234
128
225
249
15
105
183
266
104
209
250
177
167
273
77
73
114
150
263
153
169
53
118
18
47
195
280
154
226
235
19
34
162
216
252
165
175
101
49
270
164
36
35
141
211
219
241
282
8
161
138
168
100
199
43
83
191
7
17
262
151
121
99
94
228
65
133
205
137
127
52
213
59
89
48
97
33
93
173
231
267
113
11
3
87
84
125
157
79
178
60
45
111
160
41
243
272
204
129
271
107
135
201
75
131
264
268
274
245
13
5
242
147
42
202
149
146
210
2
55
12
281
224
188
186
172
95
196
44
207
139
9
110
152
174
120
6
67
106
220
88
30
69
265
4
24
223
122
109
176
276
215
232
124
197
134
90
148
217
10
194
255
208
189
20
237
16
78
22
14
26

> <PUBCHEM_MMFF94_PARTIAL_CHARGES>
29
1 -0.57
10 -0.73
11 0.36
13 0.3
15 0.36
16 0.57
18 0.57
2 -0.3
22 0.36
23 0.06
24 0.05
25 0.57
26 0.36
27 0.51
28 -0.05
29 0.57
3 -0.57
4 -0.57
46 0.37
49 0.37
5 -0.57
53 0.1
55 0.1
56 0.1
57 0.37
6 -0.57
7 -0.66
8 -0.73
9 -0.73

> <PUBCHEM_EFFECTIVE_ROTOR_COUNT>
9.4

> <PUBCHEM_PHARMACOPHORE_FEATURES>
11
1 1 acceptor
1 10 donor
1 2 acceptor
1 3 acceptor
1 4 acceptor
1 5 acceptor
1 6 acceptor
1 8 donor
1 9 donor
5 17 19 20 21 23 hydrophobe
5 7 11 12 13 14 rings

> <PUBCHEM_HEAVY_ATOM_COUNT>
31

> <PUBCHEM_ATOM_DEF_STEREO_COUNT>
4

> <PUBCHEM_ATOM_UDEF_STEREO_COUNT>
1

> <PUBCHEM_BOND_DEF_STEREO_COUNT>
0

> <PUBCHEM_BOND_UDEF_STEREO_COUNT>
0

> <PUBCHEM_ISOTOPIC_ATOM_COUNT>
0

> <PUBCHEM_COMPONENT_COUNT>
1

> <PUBCHEM_CACTVS_TAUTO_COUNT>
24

> <PUBCHEM_CONFORMER_ID>
0001A55800000001

> <PUBCHEM_MMFF94_ENERGY>
70.9852

> <PUBCHEM_FEATURE_SELFOVERLAP>
55.828

> <PUBCHEM_SHAPE_FINGERPRINT>
10165383 225 18186808019593417724
10675989 125 18272097140597415944
11408170 132 18341040828186116037
13533116 47 18410852149504981315
14068700 675 17976540512437820994
15183329 4 17703796933735295885
18681886 176 17203896262104756300
21344244 78 18195794186145754210
23081809 10 18271811177753257465
23522609 53 18055662576047758209
23559900 14 18186525402171100259
255183 451 18050573945919038158
27425 322 15864927580646913744
3004659 81 17561081406839615273
376196 1 16841331371212719112
397830 11 10519690242788842069
4073 2 17895204333104161187
504579 68 18202565073708214773
57527452 28 14835859361103703964
59682541 52 18335700525266804179

> <PUBCHEM_SHAPE_MULTIPOLES>
582.83
19.56
3.61
1.94
64.4
0.99
-0.09
0.75
-8.81
-7.26
1.71
-2.48
-1.05
-1.18

> <PUBCHEM_SHAPE_SELFOVERLAP>
1191.537

> <PUBCHEM_SHAPE_VOLUME>
335.4

> <PUBCHEM_COORDINATE_TYPE>
2
5
10

$$$$
