10789299
  -OEChem-03292013303D

 46 49  0     1  0  0  0  0  0999 V2000
   -2.0128    4.2532    0.5748 Cl  0  0  0  0  0  0  0  0  0  0  0  0
    5.7683   -2.4701   -0.3721 Cl  0  0  0  0  0  0  0  0  0  0  0  0
   -2.7113    1.5706   -2.2057 O   0  0  0  0  0  0  0  0  0  0  0  0
   -3.6756   -1.0729   -2.5616 O   0  0  0  0  0  0  0  0  0  0  0  0
   -4.8146   -2.1126   -0.0184 O   0  0  0  0  0  0  0  0  0  0  0  0
    0.3581   -0.1398   -0.0533 O   0  0  0  0  0  0  0  0  0  0  0  0
   -2.4153   -3.1268    2.0502 O   0  0  0  0  0  0  0  0  0  0  0  0
    3.5651    2.4394    0.3357 O   0  0  0  0  0  0  0  0  0  0  0  0
    5.1876    0.4064    0.0437 O   0  0  0  0  0  0  0  0  0  0  0  0
   -0.9468    1.8206    0.2251 N   0  0  0  0  0  0  0  0  0  0  0  0
   -2.2676    1.1640    0.1238 C   0  0  1  0  0  0  0  0  0  0  0  0
   -2.4579    0.5230   -1.2645 C   0  0  1  0  0  0  0  0  0  0  0  0
   -3.6443   -0.4419   -1.2775 C   0  0  2  0  0  0  0  0  0  0  0  0
   -3.5227   -1.5259   -0.1973 C   0  0  1  0  0  0  0  0  0  0  0  0
   -2.4889    0.2101    1.2695 C   0  0  0  0  0  0  0  0  0  0  0  0
   -3.0306   -1.0127    1.1347 C   0  0  0  0  0  0  0  0  0  0  0  0
    0.2462    1.1720    0.1365 C   0  0  0  0  0  0  0  0  0  0  0  0
   -0.7212    3.1581    0.4204 C   0  0  0  0  0  0  0  0  0  0  0  0
    1.2530    2.0987    0.2752 C   0  0  0  0  0  0  0  0  0  0  0  0
   -3.1436   -1.9428    2.3104 C   0  0  0  0  0  0  0  0  0  0  0  0
    0.6446    3.3608    0.4557 C   0  0  0  0  0  0  0  0  0  0  0  0
    2.6279    1.6646    0.2186 C   0  0  0  0  0  0  0  0  0  0  0  0
    1.6513   -0.6320   -0.1199 C   0  0  0  0  0  0  0  0  0  0  0  0
    2.7902    0.1945    0.0046 C   0  0  0  0  0  0  0  0  0  0  0  0
    1.7984   -2.0038   -0.3186 C   0  0  0  0  0  0  0  0  0  0  0  0
    4.0673   -0.3633   -0.0717 C   0  0  0  0  0  0  0  0  0  0  0  0
    3.0781   -2.5542   -0.3936 C   0  0  0  0  0  0  0  0  0  0  0  0
    4.2061   -1.7384   -0.2713 C   0  0  0  0  0  0  0  0  0  0  0  0
    0.6110   -2.8988   -0.4532 C   0  0  0  0  0  0  0  0  0  0  0  0
   -3.0270    1.9438    0.2349 H   0  0  0  0  0  0  0  0  0  0  0  0
   -1.5620    0.0020   -1.6185 H   0  0  0  0  0  0  0  0  0  0  0  0
   -4.5876    0.1110   -1.1827 H   0  0  0  0  0  0  0  0  0  0  0  0
   -2.8536   -2.3187   -0.5551 H   0  0  0  0  0  0  0  0  0  0  0  0
   -2.1698    0.5449    2.2545 H   0  0  0  0  0  0  0  0  0  0  0  0
   -4.1868   -2.1959    2.5261 H   0  0  0  0  0  0  0  0  0  0  0  0
   -2.7280   -1.4959    3.2196 H   0  0  0  0  0  0  0  0  0  0  0  0
   -2.8616    1.1532   -3.0712 H   0  0  0  0  0  0  0  0  0  0  0  0
    1.1395    4.3121    0.5962 H   0  0  0  0  0  0  0  0  0  0  0  0
   -4.4235   -1.6945   -2.5604 H   0  0  0  0  0  0  0  0  0  0  0  0
   -4.6905   -2.9989    0.3612 H   0  0  0  0  0  0  0  0  0  0  0  0
   -2.9233   -3.6613    1.4169 H   0  0  0  0  0  0  0  0  0  0  0  0
    3.1996   -3.6244   -0.5482 H   0  0  0  0  0  0  0  0  0  0  0  0
   -0.0239   -2.5702   -1.2829 H   0  0  0  0  0  0  0  0  0  0  0  0
    0.8996   -3.9360   -0.6537 H   0  0  0  0  0  0  0  0  0  0  0  0
    0.0254   -2.8913    0.4715 H   0  0  0  0  0  0  0  0  0  0  0  0
    5.9692   -0.1670   -0.0369 H   0  0  0  0  0  0  0  0  0  0  0  0
  1 18  1  0  0  0  0
  2 28  1  0  0  0  0
  3 12  1  0  0  0  0
  3 37  1  0  0  0  0
  4 13  1  0  0  0  0
  4 39  1  0  0  0  0
  5 14  1  0  0  0  0
  5 40  1  0  0  0  0
  6 17  1  0  0  0  0
  6 23  1  0  0  0  0
  7 20  1  0  0  0  0
  7 41  1  0  0  0  0
  8 22  2  0  0  0  0
  9 26  1  0  0  0  0
  9 46  1  0  0  0  0
 10 11  1  0  0  0  0
 10 17  1  0  0  0  0
 10 18  1  0  0  0  0
 11 12  1  0  0  0  0
 11 15  1  0  0  0  0
 11 30  1  0  0  0  0
 12 13  1  0  0  0  0
 12 31  1  0  0  0  0
 13 14  1  0  0  0  0
 13 32  1  0  0  0  0
 14 16  1  0  0  0  0
 14 33  1  0  0  0  0
 15 16  2  0  0  0  0
 15 34  1  0  0  0  0
 16 20  1  0  0  0  0
 17 19  2  0  0  0  0
 18 21  2  0  0  0  0
 19 21  1  0  0  0  0
 19 22  1  0  0  0  0
 20 35  1  0  0  0  0
 20 36  1  0  0  0  0
 21 38  1  0  0  0  0
 22 24  1  0  0  0  0
 23 24  2  0  0  0  0
 23 25  1  0  0  0  0
 24 26  1  0  0  0  0
 25 27  2  0  0  0  0
 25 29  1  0  0  0  0
 26 28  2  0  0  0  0
 27 28  1  0  0  0  0
 27 42  1  0  0  0  0
 29 43  1  0  0  0  0
 29 44  1  0  0  0  0
 29 45  1  0  0  0  0
M  END
> <PUBCHEM_COMPOUND_CID>
10789299

> <PUBCHEM_CONFORMER_RMSD>
0.8

> <PUBCHEM_CONFORMER_DIVERSEORDER>
1
2
5
3
4

> <PUBCHEM_MMFF94_PARTIAL_CHARGES>
37
1 -0.12
10 0.05
11 0.39
12 0.28
13 0.28
14 0.42
15 -0.29
16 -0.28
17 -0.09
18 -0.03
19 -0.09
2 -0.18
20 0.42
21 -0.15
22 0.57
23 0.08
24 0.09
25 -0.14
26 0.08
27 -0.15
28 0.18
29 0.14
3 -0.68
34 0.15
37 0.4
38 0.15
39 0.4
4 -0.68
40 0.4
41 0.4
42 0.15
46 0.45
5 -0.68
6 -0.15
7 -0.68
8 -0.57
9 -0.53

> <PUBCHEM_EFFECTIVE_ROTOR_COUNT>
2.8

> <PUBCHEM_PHARMACOPHORE_FEATURES>
16
1 10 cation
1 3 acceptor
1 3 donor
1 4 acceptor
1 4 donor
1 5 acceptor
1 5 donor
1 6 acceptor
1 7 acceptor
1 7 donor
1 8 acceptor
1 9 donor
5 10 17 18 19 21 rings
6 11 12 13 14 15 16 rings
6 23 24 25 26 27 28 rings
6 6 17 19 22 23 24 rings

> <PUBCHEM_HEAVY_ATOM_COUNT>
29

> <PUBCHEM_ATOM_DEF_STEREO_COUNT>
4

> <PUBCHEM_ATOM_UDEF_STEREO_COUNT>
0

> <PUBCHEM_BOND_DEF_STEREO_COUNT>
0

> <PUBCHEM_BOND_UDEF_STEREO_COUNT>
0

> <PUBCHEM_ISOTOPIC_ATOM_COUNT>
0

> <PUBCHEM_COMPONENT_COUNT>
1

> <PUBCHEM_CACTVS_TAUTO_COUNT>
5

> <PUBCHEM_CONFORMER_ID>
00A4A1B300000001

> <PUBCHEM_MMFF94_ENERGY>
61.3463

> <PUBCHEM_FEATURE_SELFOVERLAP>
81.348

> <PUBCHEM_SHAPE_FINGERPRINT>
10616163 171 18126285238311432086
10675989 125 17397526624718905620
10967382 1 18268992171135763040
1100329 8 17183346119045969074
11582403 64 16244267987376468733
12553582 1 18340498810583717130
12596599 1 17417821668105034799
12788726 201 18051683352802589801
13140716 1 18271530780307689704
13224815 77 18342177743686455886
13402501 40 18188770686097871883
13544653 18 18409735066543557004
13911987 19 17976821213803609548
14790565 3 17329161672111545776
15324884 4 17394428635428954909
17357779 13 18335698351417344318
18927931 339 18199474260095657062
19591789 44 17834688466951773712
21133410 171 17473485462454319687
221490 88 18411422783044040680
23558518 356 18264214625488253584
23559900 14 18339350873648578424
238 59 17977915163648229455
3380486 145 18119820363259024323
34934 24 17763745386788377776
46194498 28 17678448886820394221
463206 1 18196644305891173519
5104073 3 18198902518681512040
5309563 4 18340491174390542067
57527452 28 16199282349514825149
70251023 43 18200579363580857279
9709674 26 18408323289213049840

> <PUBCHEM_SHAPE_MULTIPOLES>
554.48
9.34
4.55
1.5
8.1
2.61
-0.18
-6.26
-1.09
-1.27
1.14
-2.54
-0.9
1.06

> <PUBCHEM_SHAPE_SELFOVERLAP>
1208.679

> <PUBCHEM_SHAPE_VOLUME>
303

> <PUBCHEM_COORDINATE_TYPE>
2
5
10

$$$$
