107823
  -OEChem-03292013323D

 54 56  0     1  0  0  0  0  0999 V2000
   -0.3643   -0.7998   -1.7174 O   0  0  0  0  0  0  0  0  0  0  0  0
   -3.4299    0.0800   -1.8772 O   0  0  0  0  0  0  0  0  0  0  0  0
    1.9103   -0.7448    1.3662 O   0  0  0  0  0  0  0  0  0  0  0  0
    4.5572   -3.8925    1.0086 O   0  0  0  0  0  0  0  0  0  0  0  0
   -1.7841   -0.3008    0.0417 N   0  0  0  0  0  0  0  0  0  0  0  0
    1.5803    0.4885   -0.5822 N   0  0  0  0  0  0  0  0  0  0  0  0
   -4.4626   -1.9697   -1.7146 N   0  0  0  0  0  0  0  0  0  0  0  0
    4.2446   -1.5955    0.6790 N   0  0  0  0  0  0  0  0  0  0  0  0
   -0.3217    4.5198    0.1103 N   0  0  0  0  0  0  0  0  0  0  0  0
    1.7480    5.0795    0.6894 N   0  0  0  0  0  0  0  0  0  0  0  0
   -3.4725   -1.5422    1.1691 C   0  0  0  0  0  0  0  0  0  0  0  0
   -2.7015   -1.4215   -0.1621 C   0  0  1  0  0  0  0  0  0  0  0  0
   -3.4938   -0.0835    1.6677 C   0  0  0  0  0  0  0  0  0  0  0  0
   -2.1505    0.4806    1.2206 C   0  0  0  0  0  0  0  0  0  0  0  0
   -2.6835   -2.4344    2.1486 C   0  0  0  0  0  0  0  0  0  0  0  0
   -4.8884   -2.1107    1.0312 C   0  0  0  0  0  0  0  0  0  0  0  0
   -0.6439   -0.1219   -0.7272 C   0  0  0  0  0  0  0  0  0  0  0  0
   -3.5485   -1.0158   -1.3343 C   0  0  0  0  0  0  0  0  0  0  0  0
    0.2705    0.9921   -0.2838 C   0  0  2  0  0  0  0  0  0  0  0  0
   -0.0665    2.2786   -1.0269 C   0  0  0  0  0  0  0  0  0  0  0  0
    3.6224   -0.7412   -0.2924 C   0  0  2  0  0  0  0  0  0  0  0  0
    2.2962   -0.3427    0.2717 C   0  0  0  0  0  0  0  0  0  0  0  0
    3.4976   -1.6219   -1.5212 C   0  0  0  0  0  0  0  0  0  0  0  0
    0.4760    3.4953   -0.3154 C   0  0  0  0  0  0  0  0  0  0  0  0
    3.4185   -3.0420   -0.9615 C   0  0  0  0  0  0  0  0  0  0  0  0
    4.1553   -2.9443    0.3520 C   0  0  0  0  0  0  0  0  0  0  0  0
    1.7487    3.8636    0.0528 C   0  0  0  0  0  0  0  0  0  0  0  0
    0.4861    5.4473    0.7072 C   0  0  0  0  0  0  0  0  0  0  0  0
   -2.1402   -2.3251   -0.4271 H   0  0  0  0  0  0  0  0  0  0  0  0
   -3.6404    0.0084    2.7485 H   0  0  0  0  0  0  0  0  0  0  0  0
   -4.2997    0.4761    1.1758 H   0  0  0  0  0  0  0  0  0  0  0  0
   -1.3904    0.3234    1.9930 H   0  0  0  0  0  0  0  0  0  0  0  0
   -2.2030    1.5459    0.9800 H   0  0  0  0  0  0  0  0  0  0  0  0
   -2.6400   -3.4672    1.7846 H   0  0  0  0  0  0  0  0  0  0  0  0
   -1.6519   -2.0917    2.2825 H   0  0  0  0  0  0  0  0  0  0  0  0
   -3.1574   -2.4477    3.1366 H   0  0  0  0  0  0  0  0  0  0  0  0
   -5.5534   -1.4742    0.4399 H   0  0  0  0  0  0  0  0  0  0  0  0
   -5.3562   -2.1713    2.0227 H   0  0  0  0  0  0  0  0  0  0  0  0
   -4.8868   -3.1310    0.6357 H   0  0  0  0  0  0  0  0  0  0  0  0
    0.2221    1.1356    0.7989 H   0  0  0  0  0  0  0  0  0  0  0  0
    0.3346    2.2616   -2.0485 H   0  0  0  0  0  0  0  0  0  0  0  0
   -1.1544    2.3871   -1.1261 H   0  0  0  0  0  0  0  0  0  0  0  0
    1.9876    0.7284   -1.4817 H   0  0  0  0  0  0  0  0  0  0  0  0
    4.2427    0.1441   -0.4601 H   0  0  0  0  0  0  0  0  0  0  0  0
   -5.1058   -1.7912   -2.4789 H   0  0  0  0  0  0  0  0  0  0  0  0
   -4.4487   -2.9183   -1.3570 H   0  0  0  0  0  0  0  0  0  0  0  0
    2.6483   -1.3949   -2.1718 H   0  0  0  0  0  0  0  0  0  0  0  0
    4.4092   -1.5320   -2.1259 H   0  0  0  0  0  0  0  0  0  0  0  0
    3.8948   -3.7675   -1.6253 H   0  0  0  0  0  0  0  0  0  0  0  0
    2.3831   -3.3359   -0.7633 H   0  0  0  0  0  0  0  0  0  0  0  0
    4.6711   -1.2589    1.5368 H   0  0  0  0  0  0  0  0  0  0  0  0
   -1.3257    4.5831    0.0057 H   0  0  0  0  0  0  0  0  0  0  0  0
    2.6677    3.3185   -0.1075 H   0  0  0  0  0  0  0  0  0  0  0  0
    0.0951    6.3609    1.1316 H   0  0  0  0  0  0  0  0  0  0  0  0
  1 17  2  0  0  0  0
  2 18  2  0  0  0  0
  3 22  2  0  0  0  0
  4 26  2  0  0  0  0
  5 12  1  0  0  0  0
  5 14  1  0  0  0  0
  5 17  1  0  0  0  0
  6 19  1  0  0  0  0
  6 22  1  0  0  0  0
  6 43  1  0  0  0  0
  7 18  1  0  0  0  0
  7 45  1  0  0  0  0
  7 46  1  0  0  0  0
  8 21  1  0  0  0  0
  8 26  1  0  0  0  0
  8 51  1  0  0  0  0
  9 24  1  0  0  0  0
  9 28  1  0  0  0  0
  9 52  1  0  0  0  0
 10 27  1  0  0  0  0
 10 28  2  0  0  0  0
 11 12  1  0  0  0  0
 11 13  1  0  0  0  0
 11 15  1  0  0  0  0
 11 16  1  0  0  0  0
 12 18  1  0  0  0  0
 12 29  1  0  0  0  0
 13 14  1  0  0  0  0
 13 30  1  0  0  0  0
 13 31  1  0  0  0  0
 14 32  1  0  0  0  0
 14 33  1  0  0  0  0
 15 34  1  0  0  0  0
 15 35  1  0  0  0  0
 15 36  1  0  0  0  0
 16 37  1  0  0  0  0
 16 38  1  0  0  0  0
 16 39  1  0  0  0  0
 17 19  1  0  0  0  0
 19 20  1  0  0  0  0
 19 40  1  0  0  0  0
 20 24  1  0  0  0  0
 20 41  1  0  0  0  0
 20 42  1  0  0  0  0
 21 22  1  0  0  0  0
 21 23  1  0  0  0  0
 21 44  1  0  0  0  0
 23 25  1  0  0  0  0
 23 47  1  0  0  0  0
 23 48  1  0  0  0  0
 24 27  2  0  0  0  0
 25 26  1  0  0  0  0
 25 49  1  0  0  0  0
 25 50  1  0  0  0  0
 27 53  1  0  0  0  0
 28 54  1  0  0  0  0
M  END
> <PUBCHEM_COMPOUND_CID>
107823

> <PUBCHEM_CONFORMER_RMSD>
1

> <PUBCHEM_CONFORMER_DIVERSEORDER>
1
209
87
17
93
170
196
40
124
83
162
146
205
75
11
84
193
172
178
140
42
47
102
59
198
132
63
77
95
210
194
191
128
118
166
91
199
171
97
58
147
126
177
130
122
183
169
70
157
100
148
82
182
5
65
151
195
108
121
4
27
67
21
206
167
168
32
79
185
192
54
123
149
208
200
73
136
26
112
25
179
153
60
144
127
72
68
131
23
174
129
106
207
116
163
24
154
104
99
74
22
80
52
197
180
90
34
133
56
134
137
160
152
85
15
31
88
48
57
125
49
145
201
55
117
7
113
101
44
186
45
142
16
18
92
10
30
66
14
3
51
150
119
38
103
69
61
203
20
189
62
96
94
46
43
188
156
120
76
64
39
165
115
2
36
164
78
187
141
86
202
8
37
105
50
6
98
89
190
155
114
143
135
138
13
139
176
173
184
19
81
159
53
175
41
107
109
204
111
29
28
33
161
110
158
12
9
71
181
35

> <PUBCHEM_MMFF94_PARTIAL_CHARGES>
30
1 -0.57
10 -0.57
12 0.36
14 0.3
17 0.57
18 0.57
19 0.36
2 -0.57
20 0.18
21 0.36
22 0.57
24 -0.33
25 0.06
26 0.57
27 0.08
28 0.04
3 -0.57
4 -0.57
43 0.37
45 0.37
46 0.37
5 -0.66
51 0.37
52 0.27
53 0.15
54 0.15
6 -0.73
7 -0.8
8 -0.73
9 0.03

> <PUBCHEM_EFFECTIVE_ROTOR_COUNT>
9.8

> <PUBCHEM_PHARMACOPHORE_FEATURES>
13
1 1 acceptor
1 2 acceptor
1 3 acceptor
1 4 acceptor
1 6 donor
1 7 donor
1 8 donor
1 9 donor
3 11 15 16 hydrophobe
3 9 10 28 cation
5 5 11 12 13 14 rings
5 8 21 23 25 26 rings
5 9 10 24 27 28 rings

> <PUBCHEM_HEAVY_ATOM_COUNT>
28

> <PUBCHEM_ATOM_DEF_STEREO_COUNT>
3

> <PUBCHEM_ATOM_UDEF_STEREO_COUNT>
0

> <PUBCHEM_BOND_DEF_STEREO_COUNT>
0

> <PUBCHEM_BOND_UDEF_STEREO_COUNT>
0

> <PUBCHEM_ISOTOPIC_ATOM_COUNT>
0

> <PUBCHEM_COMPONENT_COUNT>
1

> <PUBCHEM_CACTVS_TAUTO_COUNT>
24

> <PUBCHEM_CONFORMER_ID>
0001A52F00000001

> <PUBCHEM_MMFF94_ENERGY>
73.5409

> <PUBCHEM_FEATURE_SELFOVERLAP>
65.972

> <PUBCHEM_SHAPE_FINGERPRINT>
10074138 170 17905320728610410184
11036077 51 17471289548664288760
11049842 53 14853814372799021091
12160290 23 17757263791285647452
12363563 72 18408886209191890654
12549972 3 17895755218430975473
12553582 1 18339091414637213046
12788726 201 17903061244962731097
13140716 1 18338240340949838064
13533116 47 18118419555955668011
13583140 156 18192997243006679199
13955234 65 18122358036116816083
14866123 147 17615406961296204074
14955137 171 18195544790342781484
15219462 58 17902257790337617401
15842332 3 17630336457175571823
1813 80 18342750597602405398
18915476 22 18048309243843292261
20101258 96 18341895126565013976
21033648 29 16986610654191218435
21120745 212 18194425320023333644
22182313 1 17460583973781514487
23558518 356 17472979497746309687
23559900 14 18266184014038084715
23598288 3 18050579439186347534
23845131 108 17258218995400022339
238918 7 17116385882785055361
27425 322 7853563660556560227
3091708 16 8995340459532731444
5309563 4 18411701010983394556
6004065 56 18194096698478535942
70251023 43 18337942515560204375
7097593 13 18267039399566318283
79837 15 17402617342407212560
81228 2 18120646942589660388
9981440 41 16895122310163393624

> <PUBCHEM_SHAPE_MULTIPOLES>
522.86
8.66
6.57
1.71
2.61
10.79
0.15
-11.44
-0.8
-7.73
-1.8
1.54
-0.93
0.3

> <PUBCHEM_SHAPE_SELFOVERLAP>
1111.114

> <PUBCHEM_SHAPE_VOLUME>
293.6

> <PUBCHEM_COORDINATE_TYPE>
2
5
10

$$$$
