107855
  -OEChem-03292013323D

 64 67  0     1  0  0  0  0  0999 V2000
    3.2430   -0.1595   -0.4596 O   0  0  0  0  0  0  0  0  0  0  0  0
   -0.0359    0.5123   -2.0112 O   0  0  0  0  0  0  0  0  0  0  0  0
   -2.2324    0.2357    1.6810 O   0  0  0  0  0  0  0  0  0  0  0  0
    4.3657    0.4690    1.4507 O   0  0  0  0  0  0  0  0  0  0  0  0
   -4.9401    1.2912    1.2705 O   0  0  0  0  0  0  0  0  0  0  0  0
   -4.1350   -3.8996   -0.3671 O   0  0  0  0  0  0  0  0  0  0  0  0
    1.1029   -1.4393   -0.3884 C   0  0  1  0  0  0  0  0  0  0  0  0
    2.0717   -0.5126    0.2912 C   0  0  1  0  0  0  0  0  0  0  0  0
    1.9379   -1.9376    0.7603 C   0  0  0  0  0  0  0  0  0  0  0  0
   -0.3579   -1.0556   -0.2188 C   0  0  1  0  0  0  0  0  0  0  0  0
   -0.5128    0.4505   -0.6482 C   0  0  1  0  0  0  0  0  0  0  0  0
    1.4647    0.6119    1.0745 C   0  0  0  0  0  0  0  0  0  0  0  0
    0.3987    1.3844    0.2518 C   0  0  1  0  0  0  0  0  0  0  0  0
    1.2228   -2.1834    2.0487 C   0  0  0  0  0  0  0  0  0  0  0  0
    3.0291   -2.9260    0.5220 C   0  0  0  0  0  0  0  0  0  0  0  0
   -2.0151    0.8672   -0.7039 C   0  0  1  0  0  0  0  0  0  0  0  0
   -1.3174   -2.0243   -0.8721 C   0  0  0  0  0  0  0  0  0  0  0  0
   -2.8928    0.2867    0.4222 C   0  0  1  0  0  0  0  0  0  0  0  0
    1.1085    2.5034   -0.5286 C   0  0  0  0  0  0  0  0  0  0  0  0
   -2.6570   -2.0610   -0.7150 C   0  0  0  0  0  0  0  0  0  0  0  0
   -3.5170   -1.0653    0.0539 C   0  0  0  0  0  0  0  0  0  0  0  0
   -2.3560    2.3348   -0.6886 C   0  0  0  0  0  0  0  0  0  0  0  0
    4.3266    0.3207    0.2366 C   0  0  0  0  0  0  0  0  0  0  0  0
   -3.9014    1.3928    0.6345 C   0  0  0  0  0  0  0  0  0  0  0  0
   -3.4381    2.6552    0.0278 C   0  0  0  0  0  0  0  0  0  0  0  0
   -3.4498   -3.1692   -1.3630 C   0  0  0  0  0  0  0  0  0  0  0  0
    5.4603    0.6506   -0.7177 C   0  0  0  0  0  0  0  0  0  0  0  0
   -4.1144    3.9571    0.2029 C   0  0  0  0  0  0  0  0  0  0  0  0
    5.3274    2.0917   -1.1958 C   0  0  0  0  0  0  0  0  0  0  0  0
    6.8138    0.4183   -0.0508 C   0  0  0  0  0  0  0  0  0  0  0  0
    1.3504   -1.7609   -1.3939 H   0  0  0  0  0  0  0  0  0  0  0  0
   -0.6091   -1.0941    0.8381 H   0  0  0  0  0  0  0  0  0  0  0  0
    2.2088    1.3195    1.4504 H   0  0  0  0  0  0  0  0  0  0  0  0
    0.9462    0.2806    1.9752 H   0  0  0  0  0  0  0  0  0  0  0  0
   -0.2294    1.8904    0.9932 H   0  0  0  0  0  0  0  0  0  0  0  0
    1.6595   -3.0645    2.5413 H   0  0  0  0  0  0  0  0  0  0  0  0
    1.3475   -1.4007    2.7990 H   0  0  0  0  0  0  0  0  0  0  0  0
    0.1704   -2.4572    1.9519 H   0  0  0  0  0  0  0  0  0  0  0  0
    3.5067   -2.7853   -0.4538 H   0  0  0  0  0  0  0  0  0  0  0  0
    3.8069   -2.8368    1.2880 H   0  0  0  0  0  0  0  0  0  0  0  0
    2.6389   -3.9495    0.5435 H   0  0  0  0  0  0  0  0  0  0  0  0
   -2.4204    0.5343   -1.6732 H   0  0  0  0  0  0  0  0  0  0  0  0
   -0.8544   -2.8069   -1.4713 H   0  0  0  0  0  0  0  0  0  0  0  0
    1.8454    2.1017   -1.2309 H   0  0  0  0  0  0  0  0  0  0  0  0
    0.4018    3.1111   -1.0982 H   0  0  0  0  0  0  0  0  0  0  0  0
    1.6361    3.1773    0.1554 H   0  0  0  0  0  0  0  0  0  0  0  0
   -0.5581   -0.1042   -2.5516 H   0  0  0  0  0  0  0  0  0  0  0  0
   -4.4054   -0.8647   -0.5612 H   0  0  0  0  0  0  0  0  0  0  0  0
   -3.8742   -1.5580    0.9674 H   0  0  0  0  0  0  0  0  0  0  0  0
   -1.8280    3.0577   -1.2956 H   0  0  0  0  0  0  0  0  0  0  0  0
   -1.8828    1.1153    1.8975 H   0  0  0  0  0  0  0  0  0  0  0  0
   -2.8225   -3.8651   -1.9301 H   0  0  0  0  0  0  0  0  0  0  0  0
   -4.1855   -2.7523   -2.0586 H   0  0  0  0  0  0  0  0  0  0  0  0
    5.3928   -0.0291   -1.5762 H   0  0  0  0  0  0  0  0  0  0  0  0
   -5.1487    3.9036   -0.1508 H   0  0  0  0  0  0  0  0  0  0  0  0
   -3.6074    4.7496   -0.3567 H   0  0  0  0  0  0  0  0  0  0  0  0
   -4.1246    4.2439    1.2591 H   0  0  0  0  0  0  0  0  0  0  0  0
    6.1290    2.3477   -1.8962 H   0  0  0  0  0  0  0  0  0  0  0  0
    5.3673    2.7948   -0.3563 H   0  0  0  0  0  0  0  0  0  0  0  0
    4.3708    2.2454   -1.7064 H   0  0  0  0  0  0  0  0  0  0  0  0
    7.6312    0.5922   -0.7582 H   0  0  0  0  0  0  0  0  0  0  0  0
    6.8939   -0.6111    0.3150 H   0  0  0  0  0  0  0  0  0  0  0  0
    6.9585    1.0853    0.8063 H   0  0  0  0  0  0  0  0  0  0  0  0
   -3.4702   -4.2966    0.2216 H   0  0  0  0  0  0  0  0  0  0  0  0
  1  8  1  0  0  0  0
  1 23  1  0  0  0  0
  2 11  1  0  0  0  0
  2 47  1  0  0  0  0
  3 18  1  0  0  0  0
  3 51  1  0  0  0  0
  4 23  2  0  0  0  0
  5 24  2  0  0  0  0
  6 26  1  0  0  0  0
  6 64  1  0  0  0  0
  7  8  1  0  0  0  0
  7  9  1  0  0  0  0
  7 10  1  0  0  0  0
  7 31  1  0  0  0  0
  8  9  1  0  0  0  0
  8 12  1  0  0  0  0
  9 14  1  0  0  0  0
  9 15  1  0  0  0  0
 10 11  1  0  0  0  0
 10 17  1  0  0  0  0
 10 32  1  0  0  0  0
 11 13  1  0  0  0  0
 11 16  1  0  0  0  0
 12 13  1  0  0  0  0
 12 33  1  0  0  0  0
 12 34  1  0  0  0  0
 13 19  1  0  0  0  0
 13 35  1  0  0  0  0
 14 36  1  0  0  0  0
 14 37  1  0  0  0  0
 14 38  1  0  0  0  0
 15 39  1  0  0  0  0
 15 40  1  0  0  0  0
 15 41  1  0  0  0  0
 16 18  1  0  0  0  0
 16 22  1  0  0  0  0
 16 42  1  0  0  0  0
 17 20  2  0  0  0  0
 17 43  1  0  0  0  0
 18 21  1  0  0  0  0
 18 24  1  0  0  0  0
 19 44  1  0  0  0  0
 19 45  1  0  0  0  0
 19 46  1  0  0  0  0
 20 21  1  0  0  0  0
 20 26  1  0  0  0  0
 21 48  1  0  0  0  0
 21 49  1  0  0  0  0
 22 25  2  0  0  0  0
 22 50  1  0  0  0  0
 23 27  1  0  0  0  0
 24 25  1  0  0  0  0
 25 28  1  0  0  0  0
 26 52  1  0  0  0  0
 26 53  1  0  0  0  0
 27 29  1  0  0  0  0
 27 30  1  0  0  0  0
 27 54  1  0  0  0  0
 28 55  1  0  0  0  0
 28 56  1  0  0  0  0
 28 57  1  0  0  0  0
 29 58  1  0  0  0  0
 29 59  1  0  0  0  0
 29 60  1  0  0  0  0
 30 61  1  0  0  0  0
 30 62  1  0  0  0  0
 30 63  1  0  0  0  0
M  END
> <PUBCHEM_COMPOUND_CID>
107855

> <PUBCHEM_CONFORMER_RMSD>
0.8

> <PUBCHEM_CONFORMER_DIVERSEORDER>
1
3
2

> <PUBCHEM_MMFF94_PARTIAL_CHARGES>
32
1 -0.3
10 0.23
11 0.28
12 0.09
14 0.09
15 0.09
16 0.14
17 -0.29
18 0.34
2 -0.68
20 -0.28
21 0.14
22 -0.29
23 0.66
24 0.49
25 -0.12
26 0.42
27 0.06
28 0.14
3 -0.68
31 0.1
4 -0.57
43 0.15
47 0.4
5 -0.57
50 0.15
51 0.4
6 -0.68
64 0.4
7 -0.19
8 0.05
9 -0.19

> <PUBCHEM_EFFECTIVE_ROTOR_COUNT>
4.8

> <PUBCHEM_PHARMACOPHORE_FEATURES>
13
1 2 acceptor
1 2 donor
1 3 acceptor
1 3 donor
1 4 acceptor
1 5 acceptor
1 6 acceptor
1 6 donor
3 27 29 30 hydrophobe
3 9 14 15 hydrophobe
5 16 18 22 24 25 rings
7 10 11 16 17 18 20 21 rings
7 7 8 9 10 11 12 13 rings

> <PUBCHEM_HEAVY_ATOM_COUNT>
30

> <PUBCHEM_ATOM_DEF_STEREO_COUNT>
7

> <PUBCHEM_ATOM_UDEF_STEREO_COUNT>
0

> <PUBCHEM_BOND_DEF_STEREO_COUNT>
0

> <PUBCHEM_BOND_UDEF_STEREO_COUNT>
0

> <PUBCHEM_ISOTOPIC_ATOM_COUNT>
0

> <PUBCHEM_COMPONENT_COUNT>
1

> <PUBCHEM_CACTVS_TAUTO_COUNT>
3

> <PUBCHEM_CONFORMER_ID>
0001A54F00000001

> <PUBCHEM_MMFF94_ENERGY>
94.2866

> <PUBCHEM_FEATURE_SELFOVERLAP>
66.006

> <PUBCHEM_SHAPE_FINGERPRINT>
10165383 225 18130797724490005873
10411042 1 18052535766667668127
10863032 1 18342167826290458426
11115154 58 18125704933192532815
11135609 187 17753606042639039860
11578080 2 17273165481822587839
12403814 3 17748821899784138948
12788726 201 18264765648190769858
12892183 10 17823994337781797193
13140716 1 17832414676536397938
13224815 77 18040712541865979338
13540713 5 18263344937550190338
13631057 29 18269832176307540983
13782708 43 17202768236553496062
14068700 675 18194108849257287303
14178342 30 18267561628818716562
14787075 74 18261956366201601186
14790565 3 18052825745094101048
14856354 85 18340213002090760222
14955137 171 18114761377347982916
15209289 33 18261955257920807794
15484559 13 15006932108342972844
1601671 61 18410575042315364464
16087824 20 18412543220601893607
16945 1 18337378443955550527
17980427 23 17458637721946006268
21033648 29 18129087927895385289
21033650 10 18194147242433968676
21120745 212 18267870665149068117
21236236 1 18341050817298266822
21421861 104 17752478760079210418
21756936 100 18272923900073104340
23559900 14 18127679646820873273
23566358 27 18262516975503990842
25147074 1 18263065678787017482
34934 24 18335701581254025264
350125 39 18341615974954509925
4058900 60 17912939275007824001
463206 1 17760358186711656127
469060 322 17822562902111507284
5104073 3 17898020035895227793
5171179 24 17914048956917885416
70251023 43 17485906834022061727
7808743 9 18412544288593028920

> <PUBCHEM_SHAPE_MULTIPOLES>
582.17
11.08
4.04
1.37
12.14
0.81
-0.19
-4.34
0.2
-4.85
0.51
0.05
0.31
-2.2

> <PUBCHEM_SHAPE_SELFOVERLAP>
1243.896

> <PUBCHEM_SHAPE_VOLUME>
320.7

> <PUBCHEM_COORDINATE_TYPE>
2
5
10

$$$$
