107804
  -OEChem-03292013323D

 37 37  0     1  0  0  0  0  0999 V2000
   -5.5044   -1.0166    1.6083 O   0  0  0  0  0  0  0  0  0  0  0  0
   -5.4968   -1.9003   -0.4786 O   0  0  0  0  0  0  0  0  0  0  0  0
    1.0331    0.9304    0.4519 N   0  0  0  0  0  0  0  0  0  0  0  0
   -5.3433    0.4441   -1.7186 N   0  0  0  0  0  0  0  0  0  0  0  0
    5.6115   -0.3616    0.9997 N   0  0  0  0  0  0  0  0  0  0  0  0
    6.3838   -0.8073   -1.0342 N   0  0  0  0  0  0  0  0  0  0  0  0
   -2.6873    0.4209   -0.1800 C   0  0  0  0  0  0  0  0  0  0  0  0
   -1.4133    1.0708    0.3656 C   0  0  0  0  0  0  0  0  0  0  0  0
   -3.9722    1.1610    0.2158 C   0  0  0  0  0  0  0  0  0  0  0  0
   -0.1697    0.3030   -0.0828 C   0  0  0  0  0  0  0  0  0  0  0  0
   -5.2692    0.4927   -0.2576 C   0  0  2  0  0  0  0  0  0  0  0  0
    2.2264    0.2143    0.0236 C   0  0  0  0  0  0  0  0  0  0  0  0
    3.4913    0.8745    0.5758 C   0  0  0  0  0  0  0  0  0  0  0  0
    4.7339    0.1516    0.1176 C   0  0  0  0  0  0  0  0  0  0  0  0
   -5.4276   -0.9228    0.2578 C   0  0  0  0  0  0  0  0  0  0  0  0
    5.2006   -0.1172   -1.1197 C   0  0  0  0  0  0  0  0  0  0  0  0
    6.6031   -0.9375    0.2554 C   0  0  0  0  0  0  0  0  0  0  0  0
   -2.6120    0.3750   -1.2727 H   0  0  0  0  0  0  0  0  0  0  0  0
   -2.7331   -0.6141    0.1793 H   0  0  0  0  0  0  0  0  0  0  0  0
   -1.4618    1.0993    1.4614 H   0  0  0  0  0  0  0  0  0  0  0  0
   -1.3559    2.1095    0.0170 H   0  0  0  0  0  0  0  0  0  0  0  0
   -3.9992    1.2470    1.3098 H   0  0  0  0  0  0  0  0  0  0  0  0
   -3.9286    2.1872   -0.1715 H   0  0  0  0  0  0  0  0  0  0  0  0
   -0.1311    0.2921   -1.1788 H   0  0  0  0  0  0  0  0  0  0  0  0
   -0.2399   -0.7359    0.2621 H   0  0  0  0  0  0  0  0  0  0  0  0
   -6.1311    1.0674    0.0999 H   0  0  0  0  0  0  0  0  0  0  0  0
    0.9890    0.9508    1.4702 H   0  0  0  0  0  0  0  0  0  0  0  0
    2.1849   -0.8290    0.3626 H   0  0  0  0  0  0  0  0  0  0  0  0
    2.2718    0.1999   -1.0727 H   0  0  0  0  0  0  0  0  0  0  0  0
    3.5516    1.9165    0.2364 H   0  0  0  0  0  0  0  0  0  0  0  0
    3.4535    0.8967    1.6726 H   0  0  0  0  0  0  0  0  0  0  0  0
   -5.2071    1.3800   -2.0988 H   0  0  0  0  0  0  0  0  0  0  0  0
   -4.5863   -0.1255   -2.0933 H   0  0  0  0  0  0  0  0  0  0  0  0
    5.5599   -0.3340    2.0099 H   0  0  0  0  0  0  0  0  0  0  0  0
    4.7701    0.1378   -2.0770 H   0  0  0  0  0  0  0  0  0  0  0  0
    7.4496   -1.4318    0.7106 H   0  0  0  0  0  0  0  0  0  0  0  0
   -5.6130   -1.9451    1.9053 H   0  0  0  0  0  0  0  0  0  0  0  0
  1 15  1  0  0  0  0
  1 37  1  0  0  0  0
  2 15  2  0  0  0  0
  3 10  1  0  0  0  0
  3 12  1  0  0  0  0
  3 27  1  0  0  0  0
  4 11  1  0  0  0  0
  4 32  1  0  0  0  0
  4 33  1  0  0  0  0
  5 14  1  0  0  0  0
  5 17  1  0  0  0  0
  5 34  1  0  0  0  0
  6 16  1  0  0  0  0
  6 17  2  0  0  0  0
  7  8  1  0  0  0  0
  7  9  1  0  0  0  0
  7 18  1  0  0  0  0
  7 19  1  0  0  0  0
  8 10  1  0  0  0  0
  8 20  1  0  0  0  0
  8 21  1  0  0  0  0
  9 11  1  0  0  0  0
  9 22  1  0  0  0  0
  9 23  1  0  0  0  0
 10 24  1  0  0  0  0
 10 25  1  0  0  0  0
 11 15  1  0  0  0  0
 11 26  1  0  0  0  0
 12 13  1  0  0  0  0
 12 28  1  0  0  0  0
 12 29  1  0  0  0  0
 13 14  1  0  0  0  0
 13 30  1  0  0  0  0
 13 31  1  0  0  0  0
 14 16  2  0  0  0  0
 16 35  1  0  0  0  0
 17 36  1  0  0  0  0
M  END
> <PUBCHEM_COMPOUND_CID>
107804

> <PUBCHEM_CONFORMER_RMSD>
1

> <PUBCHEM_CONFORMER_DIVERSEORDER>
1
445
57
185
453
435
6
386
43
466
384
186
482
12
429
316
27
157
56
275
451
593
141
400
509
365
16
249
31
121
428
264
20
271
92
236
263
23
371
180
22
294
25
504
394
469
13
408
3
97
418
37
51
447
76
143
210
479
5
255
547
87
107
149
485
7
571
250
78
74
241
522
531
69
551
21
10
4
563
358
441
517
415
9
111
550
474
244
35
116
24
73
44
89
484
251
96
60
28
26
490
454
510
47
8
556
98
323
380
124
283
350
223
343
153
392
85
258
410
533
18
438
542
225
15
535
62
145
513
182
286
372
222
34

> <PUBCHEM_MMFF94_PARTIAL_CHARGES>
21
1 -0.65
10 0.27
11 0.33
12 0.27
13 0.18
14 -0.33
15 0.66
16 0.08
17 0.04
2 -0.57
27 0.36
3 -0.9
32 0.36
33 0.36
34 0.27
35 0.15
36 0.15
37 0.5
4 -0.99
5 0.03
6 -0.57

> <PUBCHEM_EFFECTIVE_ROTOR_COUNT>
9

> <PUBCHEM_PHARMACOPHORE_FEATURES>
10
1 1 acceptor
1 2 acceptor
1 3 cation
1 3 donor
1 4 cation
1 4 donor
1 5 donor
3 1 2 15 anion
3 5 6 17 cation
5 5 6 14 16 17 rings

> <PUBCHEM_HEAVY_ATOM_COUNT>
17

> <PUBCHEM_ATOM_DEF_STEREO_COUNT>
1

> <PUBCHEM_ATOM_UDEF_STEREO_COUNT>
0

> <PUBCHEM_BOND_DEF_STEREO_COUNT>
0

> <PUBCHEM_BOND_UDEF_STEREO_COUNT>
0

> <PUBCHEM_ISOTOPIC_ATOM_COUNT>
0

> <PUBCHEM_COMPONENT_COUNT>
1

> <PUBCHEM_CACTVS_TAUTO_COUNT>
2

> <PUBCHEM_CONFORMER_ID>
0001A51C00000001

> <PUBCHEM_MMFF94_ENERGY>
4.5748

> <PUBCHEM_FEATURE_SELFOVERLAP>
50.805

> <PUBCHEM_SHAPE_FINGERPRINT>
11315181 36 18411138048256146561
117890 112 9223234044140757480
12091667 2 16732986405764967473
12166972 35 18187370951666031556
12596602 18 13758355570273252390
12616971 3 16343697759488201520
13167372 99 11959735958429577850
13288520 33 18113338626897734449
13403585 85 11887956545054552571
13533116 47 14692297210296210022
13668630 136 18333734594250263342
13862211 1 18273210906582297365
14123256 34 18341338841994504824
1420 363 18273497874838023272
14251718 22 17675927598840427136
14251752 14 17676762102411851791
14251764 18 16917347048444081088
14528608 73 15719112470158738192
14729087 3 8646769976207120430
15048467 5 8718828686730602640
15183329 4 16225761917414836419
15348495 7 16271918363419366738
15716309 27 17275102842954051877
16079462 125 11025797630274142158
17093844 174 16845570890633284385
17834072 33 17385444327727077820
17844677 252 18343305876786908241
18222031 100 17821444673222483404
18927931 339 18411420614254491349
20281389 69 8718827587055548588
21150785 3 14129063646829955633
21623969 137 17060344019713611854
220451 1 17313100830891366353
2303208 19 18412262856528925201
23035841 295 18410576189134351433
23081809 10 16298380241072046152
23402539 116 17167859755856788557
23559900 14 18335697312405160601
2767999 5 10665227063989465178
2916195 48 8646767789810232565
29717793 49 16805324358536183714
300161 21 10737285761987462872
3014965 18 12540963085239568472
328310 630 13407086868170068951
465052 167 18202567263877323988
59755656 215 18411136909667982430
7062679 117 16877665677802403985

> <PUBCHEM_SHAPE_MULTIPOLES>
318.19
20.82
1.25
1.1
6.62
0.28
0.11
7.81
1.11
-1.28
-0.08
-0.54
0.14
0.71

> <PUBCHEM_SHAPE_SELFOVERLAP>
627.46

> <PUBCHEM_SHAPE_VOLUME>
191.7

> <PUBCHEM_COORDINATE_TYPE>
2
5
10

$$$$
