10780542
  -OEChem-03292013303D

 33 33  0     1  0  0  0  0  0999 V2000
    1.2343   -1.0507   -0.6799 O   0  0  0  0  0  0  0  0  0  0  0  0
   -0.3126    1.2518    0.0126 O   0  0  0  0  0  0  0  0  0  0  0  0
    2.4966   -0.3412    2.6001 O   0  0  0  0  0  0  0  0  0  0  0  0
   -3.1187   -0.0660    0.2904 O   0  0  0  0  0  0  0  0  0  0  0  0
    0.6869   -1.4782    1.8540 O   0  0  0  0  0  0  0  0  0  0  0  0
    0.8435    2.6206    1.4681 O   0  0  0  0  0  0  0  0  0  0  0  0
    5.4823   -0.5380   -1.3499 O   0  0  0  0  0  0  0  0  0  0  0  0
    3.4912   -0.4186   -2.4295 O   0  0  0  0  0  0  0  0  0  0  0  0
   -4.5423   -2.4360    0.8101 O   0  0  0  0  0  0  0  0  0  0  0  0
    2.1301   -0.3852    0.2153 C   0  0  2  0  0  0  0  0  0  0  0  0
    2.0434    1.1323   -0.0138 C   0  0  0  0  0  0  0  0  0  0  0  0
    3.5407   -0.9487   -0.0434 C   0  0  0  0  0  0  0  0  0  0  0  0
    1.6805   -0.8017    1.6171 C   0  0  0  0  0  0  0  0  0  0  0  0
    0.8095    1.7682    0.5900 C   0  0  0  0  0  0  0  0  0  0  0  0
    4.1257   -0.6165   -1.4034 C   0  0  0  0  0  0  0  0  0  0  0  0
   -1.5521    1.7749    0.4997 C   0  0  0  0  0  0  0  0  0  0  0  0
   -2.6458    1.0852   -0.2547 C   0  0  0  0  0  0  0  0  0  0  0  0
   -3.3047    1.3705   -1.4280 C   0  0  0  0  0  0  0  0  0  0  0  0
   -4.2427    0.3275   -1.6158 C   0  0  0  0  0  0  0  0  0  0  0  0
   -4.0903   -0.5208   -0.5439 C   0  0  0  0  0  0  0  0  0  0  0  0
   -4.7554   -1.7295   -0.1952 C   0  0  0  0  0  0  0  0  0  0  0  0
    2.9080    1.6288    0.4445 H   0  0  0  0  0  0  0  0  0  0  0  0
    2.0472    1.3855   -1.0801 H   0  0  0  0  0  0  0  0  0  0  0  0
    4.2312   -0.5640    0.7175 H   0  0  0  0  0  0  0  0  0  0  0  0
    3.5341   -2.0431    0.0354 H   0  0  0  0  0  0  0  0  0  0  0  0
    0.3479   -0.6685   -0.5631 H   0  0  0  0  0  0  0  0  0  0  0  0
   -1.5966    2.8549    0.3203 H   0  0  0  0  0  0  0  0  0  0  0  0
   -1.6461    1.5748    1.5729 H   0  0  0  0  0  0  0  0  0  0  0  0
   -3.1316    2.2227   -2.0695 H   0  0  0  0  0  0  0  0  0  0  0  0
    2.1891   -0.6173    3.4897 H   0  0  0  0  0  0  0  0  0  0  0  0
   -4.9410    0.2127   -2.4328 H   0  0  0  0  0  0  0  0  0  0  0  0
    5.8695   -0.3131   -2.2227 H   0  0  0  0  0  0  0  0  0  0  0  0
   -5.5359   -2.0544   -0.9051 H   0  0  0  0  0  0  0  0  0  0  0  0
  1 10  1  0  0  0  0
  1 26  1  0  0  0  0
  2 14  1  0  0  0  0
  2 16  1  0  0  0  0
  3 13  1  0  0  0  0
  3 30  1  0  0  0  0
  4 17  1  0  0  0  0
  4 20  1  0  0  0  0
  5 13  2  0  0  0  0
  6 14  2  0  0  0  0
  7 15  1  0  0  0  0
  7 32  1  0  0  0  0
  8 15  2  0  0  0  0
  9 21  2  0  0  0  0
 10 11  1  0  0  0  0
 10 12  1  0  0  0  0
 10 13  1  0  0  0  0
 11 14  1  0  0  0  0
 11 22  1  0  0  0  0
 11 23  1  0  0  0  0
 12 15  1  0  0  0  0
 12 24  1  0  0  0  0
 12 25  1  0  0  0  0
 16 17  1  0  0  0  0
 16 27  1  0  0  0  0
 16 28  1  0  0  0  0
 17 18  2  0  0  0  0
 18 19  1  0  0  0  0
 18 29  1  0  0  0  0
 19 20  2  0  0  0  0
 19 31  1  0  0  0  0
 20 21  1  0  0  0  0
 21 33  1  0  0  0  0
M  END
> <PUBCHEM_COMPOUND_CID>
10780542

> <PUBCHEM_CONFORMER_RMSD>
0.8

> <PUBCHEM_CONFORMER_DIVERSEORDER>
1
296
360
96
133
23
366
399
232
396
260
237
61
44
177
166
129
332
117
140
176
238
145
330
253
403
45
239
48
55
290
338
304
270
111
391
325
333
410
370
162
209
294
284
368
230
52
188
269
46
119
274
131
309
398
16
157
322
151
207
404
195
196
84
242
210
390
397
116
358
178
14
93
113
150
114
91
350
347
181
225
329
124
167
375
97
67
38
412
15
7
26
70
35
384
356
349
219
71
243
229
183
24
354
205
139
127
323
98
407
369
283
373
299
63
101
86
32
400
192
95
313
110
371
33
79
380
249
342
222
361
298
256
268
200
153
402
300
125
327
257
165
228
267
266
405
343
149
408
179
241
53
297
401
378
81
102
280
138
123
317
161
389
206
211
89
41
414
409
42
19
363
364
4
233
189
201
11
160
5
272
148
351
331
263
83
39
278
21
328
240
236
355
348
271
246
103
341
40
68
25
216
245
135
251
36
182
155
187
184
334
379
254
6
156
136
108
3
198
367
235
169
376
77
383
258
54
314
100
319
203
295
197
88
85
122
217
377
213
318
385
224
186
65
99
282
13
9
143
320
255
227
352
316
10
154
47
289
413
259
199
12
194
2
64
50
175
152
311
28
277
106
218
43
382
306
128
387
104
231
58
264
303
406
275
78
171
159
234
353
22
262
393
18
307
62
302
223
247
312
164
301
340
147
392
221
345
357
168
158
261
293
212
344
265
126
57
8
374
281
87
142
288
80
112
315
220
146
193
56
190
248
134
137
291
287
92
174
76
279
359
285
75
310
202
94
51
346
365
109
120
215
29
226
252
339
107
163
105
336
20
115
69
31
130
362
326
191
170
394
82
72
59
250
118
337
286
204
244
185
172
292
411
27
214
74
49
321
395
144
34
388
37
30
180
276
335
173
141
60
208
324
308
381
132
273
73
90
121
386
66
17
372
305

> <PUBCHEM_MMFF94_PARTIAL_CHARGES>
27
1 -0.68
10 0.34
11 0.06
12 0.06
13 0.66
14 0.66
15 0.66
16 0.46
17 -0.04
18 -0.15
19 -0.15
2 -0.43
20 0.05
21 0.59
26 0.4
29 0.15
3 -0.65
30 0.5
31 0.15
32 0.5
33 0.06
4 -0.28
5 -0.57
6 -0.57
7 -0.65
8 -0.57
9 -0.57

> <PUBCHEM_EFFECTIVE_ROTOR_COUNT>
9

> <PUBCHEM_PHARMACOPHORE_FEATURES>
12
1 1 acceptor
1 1 donor
1 3 acceptor
1 4 acceptor
1 5 acceptor
1 6 acceptor
1 7 acceptor
1 8 acceptor
1 9 acceptor
3 3 5 13 anion
3 7 8 15 anion
5 4 17 18 19 20 rings

> <PUBCHEM_HEAVY_ATOM_COUNT>
21

> <PUBCHEM_ATOM_DEF_STEREO_COUNT>
0

> <PUBCHEM_ATOM_UDEF_STEREO_COUNT>
1

> <PUBCHEM_BOND_DEF_STEREO_COUNT>
0

> <PUBCHEM_BOND_UDEF_STEREO_COUNT>
0

> <PUBCHEM_ISOTOPIC_ATOM_COUNT>
0

> <PUBCHEM_COMPONENT_COUNT>
1

> <PUBCHEM_CACTVS_TAUTO_COUNT>
1

> <PUBCHEM_CONFORMER_ID>
00A47F7E00000001

> <PUBCHEM_MMFF94_ENERGY>
21.5978

> <PUBCHEM_FEATURE_SELFOVERLAP>
61.038

> <PUBCHEM_SHAPE_FINGERPRINT>
10759866 29 17530677693358942323
10764073 3 8023434818619169148
11543360 7 17240485805690113357
12553582 1 18339918221774975097
12596599 1 18272647978726451987
12670546 177 18113624477512417630
12707595 3 18342729719966813325
13103583 49 13830134966283519382
13533116 47 15122924297705007261
13911882 115 18121220054509128633
14123255 352 10953745525020010430
14251740 57 17915735595223328463
14251757 5 18198346148128143501
14251764 30 17560816402382529878
14252887 29 17774991423297358344
14617045 38 18186240632981191443
15527383 91 16271930393580343737
15537594 2 18040439880494417835
1813 80 16558487326173079964
193927 3 17988651791303068869
20645477 70 18129077079013424693
20693207 138 18335132137874574477
21054139 6 17530682138919008354
21713013 43 18261108595528999285
22393880 68 18040992934131052285
231179 274 12540698119525903236
23559900 14 18337099151249825661
2838139 119 15574722395802087614
2871803 45 18115299098763233915
3737641 26 15768672862412625454
6786 2 15978041093189747000
6823239 73 18342450461029470131
8217 86 18262530319640026783

> <PUBCHEM_SHAPE_MULTIPOLES>
379.35
10.21
2.15
1.95
2.91
0.27
-0.09
-4.95
5.16
1.69
-0.82
-1.95
-0.23
0.96

> <PUBCHEM_SHAPE_SELFOVERLAP>
786.568

> <PUBCHEM_SHAPE_VOLUME>
215.2

> <PUBCHEM_COORDINATE_TYPE>
2
5
10

$$$$
