107959
  -OEChem-03292013323D

 30 30  0     1  0  0  0  0  0999 V2000
   -0.1208    0.0148   -1.5927 O   0  0  0  0  0  0  0  0  0  0  0  0
   -1.1768    2.0205    1.1599 O   0  0  0  0  0  0  0  0  0  0  0  0
    2.4117    1.5940    0.3507 O   0  0  0  0  0  0  0  0  0  0  0  0
    2.6495   -1.5667    1.7233 O   0  0  0  0  0  0  0  0  0  0  0  0
    4.1070    1.2544   -1.1185 O   0  0  0  0  0  0  0  0  0  0  0  0
   -2.1390    0.2097    0.0868 N   0  0  0  0  0  0  0  0  0  0  0  0
    1.3317   -0.7692    0.0373 N   0  0  0  0  0  0  0  0  0  0  0  0
    1.4768   -1.3474    1.4012 N   0  0  0  0  0  0  0  0  0  0  0  0
   -1.0975   -0.7535    0.4192 C   0  0  1  0  0  0  0  0  0  0  0  0
   -1.7173   -2.1133    0.1184 C   0  0  0  0  0  0  0  0  0  0  0  0
   -2.7127   -1.8102   -0.9988 C   0  0  0  0  0  0  0  0  0  0  0  0
   -3.2364   -0.4291   -0.6352 C   0  0  0  0  0  0  0  0  0  0  0  0
    0.0721   -0.4652   -0.4730 C   0  0  0  0  0  0  0  0  0  0  0  0
   -2.1226    1.5149    0.5535 C   0  0  0  0  0  0  0  0  0  0  0  0
   -3.3613    2.3242    0.2630 C   0  0  0  0  0  0  0  0  0  0  0  0
    2.5298   -0.5271   -0.7541 C   0  0  0  0  0  0  0  0  0  0  0  0
    3.1057    0.8491   -0.5409 C   0  0  0  0  0  0  0  0  0  0  0  0
   -0.8526   -0.6324    1.4775 H   0  0  0  0  0  0  0  0  0  0  0  0
   -2.2615   -2.4761    0.9989 H   0  0  0  0  0  0  0  0  0  0  0  0
   -0.9897   -2.8768   -0.1729 H   0  0  0  0  0  0  0  0  0  0  0  0
   -2.1941   -1.7763   -1.9640 H   0  0  0  0  0  0  0  0  0  0  0  0
   -3.5102   -2.5551   -1.0710 H   0  0  0  0  0  0  0  0  0  0  0  0
   -3.5200    0.1600   -1.5116 H   0  0  0  0  0  0  0  0  0  0  0  0
   -4.0934   -0.4971    0.0435 H   0  0  0  0  0  0  0  0  0  0  0  0
   -3.2645    3.3146    0.7177 H   0  0  0  0  0  0  0  0  0  0  0  0
   -4.2429    1.8364    0.6867 H   0  0  0  0  0  0  0  0  0  0  0  0
   -3.4834    2.4485   -0.8162 H   0  0  0  0  0  0  0  0  0  0  0  0
    2.2679   -0.6045   -1.8152 H   0  0  0  0  0  0  0  0  0  0  0  0
    3.2925   -1.2807   -0.5363 H   0  0  0  0  0  0  0  0  0  0  0  0
    2.8062    2.4838    0.4720 H   0  0  0  0  0  0  0  0  0  0  0  0
  1 13  2  0  0  0  0
  2 14  2  0  0  0  0
  3 17  1  0  0  0  0
  3 30  1  0  0  0  0
  4  8  2  0  0  0  0
  5 17  2  0  0  0  0
  6  9  1  0  0  0  0
  6 12  1  0  0  0  0
  6 14  1  0  0  0  0
  7  8  1  0  0  0  0
  7 13  1  0  0  0  0
  7 16  1  0  0  0  0
  9 10  1  0  0  0  0
  9 13  1  0  0  0  0
  9 18  1  0  0  0  0
 10 11  1  0  0  0  0
 10 19  1  0  0  0  0
 10 20  1  0  0  0  0
 11 12  1  0  0  0  0
 11 21  1  0  0  0  0
 11 22  1  0  0  0  0
 12 23  1  0  0  0  0
 12 24  1  0  0  0  0
 14 15  1  0  0  0  0
 15 25  1  0  0  0  0
 15 26  1  0  0  0  0
 15 27  1  0  0  0  0
 16 17  1  0  0  0  0
 16 28  1  0  0  0  0
 16 29  1  0  0  0  0
M  END
> <PUBCHEM_COMPOUND_CID>
107959

> <PUBCHEM_CONFORMER_RMSD>
0.8

> <PUBCHEM_CONFORMER_DIVERSEORDER>
1
24
31
36
6
33
18
37
14
35
30
13
3
39
20
42
7
34
40
4
11
23
17
2
5
26
41
12
25
15
28
22
38
32
21
8
27
10
29
16
9
19

> <PUBCHEM_MMFF94_PARTIAL_CHARGES>
16
1 -0.57
12 0.3
13 0.57
14 0.57
15 0.06
16 0.36
17 0.66
2 -0.57
3 -0.65
30 0.5
4 -0.16
5 -0.57
6 -0.66
7 -0.18
8 -0.02
9 0.36

> <PUBCHEM_EFFECTIVE_ROTOR_COUNT>
7

> <PUBCHEM_PHARMACOPHORE_FEATURES>
6
1 1 acceptor
1 2 acceptor
1 3 acceptor
1 5 acceptor
3 3 5 17 anion
5 6 9 10 11 12 rings

> <PUBCHEM_HEAVY_ATOM_COUNT>
17

> <PUBCHEM_ATOM_DEF_STEREO_COUNT>
1

> <PUBCHEM_ATOM_UDEF_STEREO_COUNT>
0

> <PUBCHEM_BOND_DEF_STEREO_COUNT>
0

> <PUBCHEM_BOND_UDEF_STEREO_COUNT>
0

> <PUBCHEM_ISOTOPIC_ATOM_COUNT>
0

> <PUBCHEM_COMPONENT_COUNT>
1

> <PUBCHEM_CACTVS_TAUTO_COUNT>
1

> <PUBCHEM_CONFORMER_ID>
0001A5B700000001

> <PUBCHEM_MMFF94_ENERGY>
38.3465

> <PUBCHEM_FEATURE_SELFOVERLAP>
30.507

> <PUBCHEM_SHAPE_FINGERPRINT>
108231 29 17542232701467803315
11640471 11 18261122837192328581
12138202 97 17988647333485575415
12186901 62 17988656202144746181
12346645 44 18260833734706842182
12491281 212 18335710433144491122
12932764 1 17894913971101350830
13380536 127 18341887510976133434
13538477 17 18339356370789433754
14787075 74 17470450002600863502
15375462 6 18060145374535986814
15669948 3 18343015601643286359
15775835 57 18261965041524219509
16945 1 17824533291404853815
201361 129 18187089429770941968
20510252 161 18342466954078660171
21501502 16 18408880715912426854
21524375 3 18122913027706866385
23236772 104 18261681453650101771
23419403 2 15382986624608990230
23557571 272 17632279194778266978
23559900 14 17987518100478843942
23598291 2 18262512598488951270
23598294 1 18342740732416019339
474 4 17749962170867870740
633830 44 17968675877498870094
74978 22 18338517426327586454
7615 1 18335405846959544083
77492 1 18260823774377288195
88987 49 18130495353901300811

> <PUBCHEM_SHAPE_MULTIPOLES>
305.56
6.1
2.38
1.27
3.01
0.61
0.17
1.91
-1.08
-1.59
0.47
0.69
-0.3
-1.33

> <PUBCHEM_SHAPE_SELFOVERLAP>
616.643

> <PUBCHEM_SHAPE_VOLUME>
178.4

> <PUBCHEM_COORDINATE_TYPE>
2
5
10

$$$$
