107924
  -OEChem-03292013323D

 57 60  0     0  0  0  0  0  0999 V2000
   -6.1698    1.3000    1.5225 S   0  0  0  0  0  0  0  0  0  0  0  0
   -2.8554   -1.0505   -2.8288 O   0  0  0  0  0  0  0  0  0  0  0  0
    5.0517    1.1897    1.4131 O   0  0  0  0  0  0  0  0  0  0  0  0
   -7.3813    1.1531    2.3076 O   0  0  0  0  0  0  0  0  0  0  0  0
   -5.0539    2.0750    2.0274 O   0  0  0  0  0  0  0  0  0  0  0  0
   -0.5337   -0.7664   -1.2639 N   0  0  0  0  0  0  0  0  0  0  0  0
    3.3060   -0.4778    0.3914 N   0  0  0  0  0  0  0  0  0  0  0  0
   -5.6549   -0.2643    1.0182 N   0  0  0  0  0  0  0  0  0  0  0  0
    5.5142    2.9634   -0.0071 N   0  0  0  0  0  0  0  0  0  0  0  0
    0.7682   -0.6686   -0.7023 C   0  0  0  0  0  0  0  0  0  0  0  0
    1.3918   -1.8126   -0.1941 C   0  0  0  0  0  0  0  0  0  0  0  0
    1.4147    0.5709   -0.6631 C   0  0  0  0  0  0  0  0  0  0  0  0
    2.6788   -1.6693    0.3512 C   0  0  0  0  0  0  0  0  0  0  0  0
    2.7008    0.6210   -0.0995 C   0  0  0  0  0  0  0  0  0  0  0  0
    3.3050   -2.8045    0.8588 C   0  0  0  0  0  0  0  0  0  0  0  0
    3.3497    1.8522   -0.0575 C   0  0  0  0  0  0  0  0  0  0  0  0
    0.7654   -3.0709   -0.2204 C   0  0  0  0  0  0  0  0  0  0  0  0
    0.8116    1.7368   -1.1663 C   0  0  0  0  0  0  0  0  0  0  0  0
   -1.8131   -0.6432   -0.7061 C   0  0  0  0  0  0  0  0  0  0  0  0
    2.6855   -4.0565    0.8341 C   0  0  0  0  0  0  0  0  0  0  0  0
    1.4130   -4.1904    0.2936 C   0  0  0  0  0  0  0  0  0  0  0  0
    2.7532    3.0128   -0.5567 C   0  0  0  0  0  0  0  0  0  0  0  0
    1.4816    2.9553   -1.1123 C   0  0  0  0  0  0  0  0  0  0  0  0
   -2.9607   -0.7869   -1.4955 C   0  0  0  0  0  0  0  0  0  0  0  0
    4.6768   -2.7106    1.4516 C   0  0  0  0  0  0  0  0  0  0  0  0
   -1.9524   -0.3727    0.6606 C   0  0  0  0  0  0  0  0  0  0  0  0
   -4.3578   -0.3923    0.4357 C   0  0  0  0  0  0  0  0  0  0  0  0
    4.6862    1.9670    0.5169 C   0  0  0  0  0  0  0  0  0  0  0  0
   -4.2281   -0.6620   -0.9267 C   0  0  0  0  0  0  0  0  0  0  0  0
   -3.2199   -0.2476    1.2294 C   0  0  0  0  0  0  0  0  0  0  0  0
   -6.6510    1.9926   -0.0438 C   0  0  0  0  0  0  0  0  0  0  0  0
    6.8704    3.1867    0.4397 C   0  0  0  0  0  0  0  0  0  0  0  0
   -2.7926    0.0707   -3.7074 C   0  0  0  0  0  0  0  0  0  0  0  0
   -0.5191   -0.9986   -2.2526 H   0  0  0  0  0  0  0  0  0  0  0  0
   -0.2272   -3.2118   -0.6401 H   0  0  0  0  0  0  0  0  0  0  0  0
   -0.1806    1.7271   -1.6098 H   0  0  0  0  0  0  0  0  0  0  0  0
    3.1845   -4.9356    1.2331 H   0  0  0  0  0  0  0  0  0  0  0  0
    0.9275   -5.1612    0.2710 H   0  0  0  0  0  0  0  0  0  0  0  0
    3.2308    3.9866   -0.4991 H   0  0  0  0  0  0  0  0  0  0  0  0
    1.0100    3.8551   -1.4952 H   0  0  0  0  0  0  0  0  0  0  0  0
    5.0407   -3.6823    1.8027 H   0  0  0  0  0  0  0  0  0  0  0  0
    5.3902   -2.3448    0.7054 H   0  0  0  0  0  0  0  0  0  0  0  0
    4.6743   -2.0321    2.3112 H   0  0  0  0  0  0  0  0  0  0  0  0
   -1.0850   -0.2576    1.3054 H   0  0  0  0  0  0  0  0  0  0  0  0
   -5.1129   -0.7751   -1.5490 H   0  0  0  0  0  0  0  0  0  0  0  0
   -3.3045   -0.0502    2.2948 H   0  0  0  0  0  0  0  0  0  0  0  0
   -6.3772   -0.8337    0.5570 H   0  0  0  0  0  0  0  0  0  0  0  0
    5.2094    3.5124   -0.8039 H   0  0  0  0  0  0  0  0  0  0  0  0
   -7.4093    1.3523   -0.4985 H   0  0  0  0  0  0  0  0  0  0  0  0
   -7.0695    2.9842    0.1424 H   0  0  0  0  0  0  0  0  0  0  0  0
   -5.7727    2.0805   -0.6854 H   0  0  0  0  0  0  0  0  0  0  0  0
    7.1115    4.2432    0.3025 H   0  0  0  0  0  0  0  0  0  0  0  0
    7.5381    2.5733   -0.1702 H   0  0  0  0  0  0  0  0  0  0  0  0
    6.9773    2.9104    1.4916 H   0  0  0  0  0  0  0  0  0  0  0  0
   -1.9327    0.7048   -3.4700 H   0  0  0  0  0  0  0  0  0  0  0  0
   -3.7164    0.6548   -3.6474 H   0  0  0  0  0  0  0  0  0  0  0  0
   -2.6803   -0.3011   -4.7294 H   0  0  0  0  0  0  0  0  0  0  0  0
  1  4  2  0  0  0  0
  1  5  2  0  0  0  0
  1  8  1  0  0  0  0
  1 31  1  0  0  0  0
  2 24  1  0  0  0  0
  2 33  1  0  0  0  0
  3 28  2  0  0  0  0
  6 10  1  0  0  0  0
  6 19  1  0  0  0  0
  6 34  1  0  0  0  0
  7 13  1  0  0  0  0
  7 14  2  0  0  0  0
  8 27  1  0  0  0  0
  8 47  1  0  0  0  0
  9 28  1  0  0  0  0
  9 32  1  0  0  0  0
  9 48  1  0  0  0  0
 10 11  1  0  0  0  0
 10 12  2  0  0  0  0
 11 13  1  0  0  0  0
 11 17  2  0  0  0  0
 12 14  1  0  0  0  0
 12 18  1  0  0  0  0
 13 15  2  0  0  0  0
 14 16  1  0  0  0  0
 15 20  1  0  0  0  0
 15 25  1  0  0  0  0
 16 22  2  0  0  0  0
 16 28  1  0  0  0  0
 17 21  1  0  0  0  0
 17 35  1  0  0  0  0
 18 23  2  0  0  0  0
 18 36  1  0  0  0  0
 19 24  2  0  0  0  0
 19 26  1  0  0  0  0
 20 21  2  0  0  0  0
 20 37  1  0  0  0  0
 21 38  1  0  0  0  0
 22 23  1  0  0  0  0
 22 39  1  0  0  0  0
 23 40  1  0  0  0  0
 24 29  1  0  0  0  0
 25 41  1  0  0  0  0
 25 42  1  0  0  0  0
 25 43  1  0  0  0  0
 26 30  2  0  0  0  0
 26 44  1  0  0  0  0
 27 29  2  0  0  0  0
 27 30  1  0  0  0  0
 29 45  1  0  0  0  0
 30 46  1  0  0  0  0
 31 49  1  0  0  0  0
 31 50  1  0  0  0  0
 31 51  1  0  0  0  0
 32 52  1  0  0  0  0
 32 53  1  0  0  0  0
 32 54  1  0  0  0  0
 33 55  1  0  0  0  0
 33 56  1  0  0  0  0
 33 57  1  0  0  0  0
M  END
> <PUBCHEM_COMPOUND_CID>
107924

> <PUBCHEM_CONFORMER_RMSD>
1

> <PUBCHEM_CONFORMER_DIVERSEORDER>
1
61
35
58
49
28
22
13
33
32
17
26
50
54
43
38
40
39
7
25
52
59
45
29
55
51
16
15
53
44
20
60
11
57
12
37
8
42
9
14
24
10
18
30
48
3
56
27
6
47
34
36
19
46
23
4
41
31
21
2
5

> <PUBCHEM_MMFF94_PARTIAL_CHARGES>
43
1 1.33
10 0.1
13 0.31
14 0.31
15 -0.14
16 0.09
17 -0.15
18 -0.15
19 0.1
2 -0.36
20 -0.15
21 -0.15
22 -0.15
23 -0.15
24 0.08
25 0.14
26 -0.15
27 0.2
28 0.54
29 -0.15
3 -0.57
30 -0.15
31 0.11
32 0.3
33 0.28
34 0.4
35 0.15
36 0.15
37 0.15
38 0.15
39 0.15
4 -0.65
40 0.15
44 0.15
45 0.15
46 0.15
47 0.42
48 0.37
5 -0.65
6 -0.6
7 -0.62
8 -0.76
9 -0.73

> <PUBCHEM_EFFECTIVE_ROTOR_COUNT>
7

> <PUBCHEM_PHARMACOPHORE_FEATURES>
13
1 2 acceptor
1 3 acceptor
1 4 acceptor
1 5 acceptor
1 6 cation
1 6 donor
1 7 acceptor
1 8 donor
1 9 donor
6 11 13 15 17 20 21 rings
6 12 14 16 18 22 23 rings
6 19 24 26 27 29 30 rings
6 7 10 11 12 13 14 rings

> <PUBCHEM_HEAVY_ATOM_COUNT>
33

> <PUBCHEM_ATOM_DEF_STEREO_COUNT>
0

> <PUBCHEM_ATOM_UDEF_STEREO_COUNT>
0

> <PUBCHEM_BOND_DEF_STEREO_COUNT>
0

> <PUBCHEM_BOND_UDEF_STEREO_COUNT>
0

> <PUBCHEM_ISOTOPIC_ATOM_COUNT>
0

> <PUBCHEM_COMPONENT_COUNT>
1

> <PUBCHEM_CACTVS_TAUTO_COUNT>
5

> <PUBCHEM_CONFORMER_ID>
0001A59400000001

> <PUBCHEM_MMFF94_ENERGY>
134.8717

> <PUBCHEM_FEATURE_SELFOVERLAP>
66.062

> <PUBCHEM_SHAPE_FINGERPRINT>
10006869 2 18201162027656193913
10190108 129 18262532407352952172
10906281 52 18194969776174807900
1100329 8 17975971287610701428
11135926 11 18334566976049873476
12236239 1 18060419152788728519
12422481 6 17983021046903787337
12553582 1 18265326206090624246
12633257 1 17458911564565475321
13140716 1 17902506327152300996
13782708 43 17168145581783563691
14739800 52 17989203746319755793
14790565 3 18190174771390196956
15324884 4 17241590746020220606
15420108 30 18341044229045697222
15475509 84 18126285233716363064
15684973 49 17346018069717074870
15927050 60 18265893739280545822
15950262 2 16485552451153638472
16992787 43 18336839602666723750
20505436 4 17988648527323375759
20511986 3 17988917886197350513
20739085 24 18334298639256607044
21421861 104 18341051817914695042
21756936 100 18058451091652765326
21781055 127 18272369820303686456
21814621 53 16486694796605787974
21859007 373 17314503731020358053
21927370 108 17976250241600151426
22122407 14 18269286668769859569
244849 19 17604700050683479511
24771293 8 18200010916844978226
25147074 1 18059561495665880887
3178227 256 18261392218427526234
3411729 13 18412269441209493122
4112364 45 18199757960165951385
4144715 1 18115604651722375377
4516262 110 18412541041735169773
5104073 3 18335712637322902059
5385378 56 18335704961968053400
563151 74 18337403707374971465
56638632 10 18266451199305615309

> <PUBCHEM_SHAPE_MULTIPOLES>
639.57
15.07
4.63
2.09
15.12
2.1
-1.39
-11.96
9.33
-8.73
0.86
3.82
-0.26
-2.18

> <PUBCHEM_SHAPE_SELFOVERLAP>
1392.103

> <PUBCHEM_SHAPE_VOLUME>
351.7

> <PUBCHEM_COORDINATE_TYPE>
2
5
10

$$$$
