107919
  -OEChem-03292013323D

 29 28  0     1  0  0  0  0  0999 V2000
   -4.3523   -0.2724    1.2798 O   0  0  0  0  0  0  0  0  0  0  0  0
   -4.5886    0.5200   -0.8310 O   0  0  0  0  0  0  0  0  0  0  0  0
    2.0464    1.9183   -0.6869 O   0  0  0  0  0  0  0  0  0  0  0  0
    4.3871   -1.9073    0.3424 O   0  0  0  0  0  0  0  0  0  0  0  0
    1.2319    0.4659    0.8991 N   0  0  0  0  0  0  0  0  0  0  0  0
   -2.5082   -0.9480   -1.7727 N   0  0  0  0  0  0  0  0  0  0  0  0
    3.2731    0.0090   -0.2171 N   0  0  0  0  0  0  0  0  0  0  0  0
    3.3756   -1.2415    0.5887 N   0  0  0  0  0  0  0  0  0  0  0  0
   -1.5448   -0.6099    0.4870 C   0  0  0  0  0  0  0  0  0  0  0  0
   -1.1296    0.8587    0.3041 C   0  0  0  0  0  0  0  0  0  0  0  0
   -2.7705   -1.0332   -0.3365 C   0  0  1  0  0  0  0  0  0  0  0  0
    0.0558    1.2402    1.1876 C   0  0  0  0  0  0  0  0  0  0  0  0
   -3.9865   -0.1789   -0.0261 C   0  0  0  0  0  0  0  0  0  0  0  0
    2.1769    0.8693   -0.0477 C   0  0  0  0  0  0  0  0  0  0  0  0
    4.3337    0.3099   -1.1705 C   0  0  0  0  0  0  0  0  0  0  0  0
   -0.7049   -1.2674    0.2285 H   0  0  0  0  0  0  0  0  0  0  0  0
   -1.7533   -0.7840    1.5505 H   0  0  0  0  0  0  0  0  0  0  0  0
   -1.9680    1.5198    0.5506 H   0  0  0  0  0  0  0  0  0  0  0  0
   -0.8661    1.0454   -0.7431 H   0  0  0  0  0  0  0  0  0  0  0  0
   -3.0314   -2.0722   -0.1055 H   0  0  0  0  0  0  0  0  0  0  0  0
    0.2813    2.3047    1.0613 H   0  0  0  0  0  0  0  0  0  0  0  0
   -0.1894    1.0769    2.2426 H   0  0  0  0  0  0  0  0  0  0  0  0
    1.3524   -0.4009    1.4104 H   0  0  0  0  0  0  0  0  0  0  0  0
   -1.6715   -1.4842   -1.9998 H   0  0  0  0  0  0  0  0  0  0  0  0
   -2.3073    0.0143   -2.0401 H   0  0  0  0  0  0  0  0  0  0  0  0
   -5.1375    0.2806    1.4795 H   0  0  0  0  0  0  0  0  0  0  0  0
    5.2833    0.3972   -0.6340 H   0  0  0  0  0  0  0  0  0  0  0  0
    4.1404    1.2493   -1.6950 H   0  0  0  0  0  0  0  0  0  0  0  0
    4.3924   -0.4969   -1.9073 H   0  0  0  0  0  0  0  0  0  0  0  0
  1 13  1  0  0  0  0
  1 26  1  0  0  0  0
  2 13  2  0  0  0  0
  3 14  2  0  0  0  0
  4  8  2  0  0  0  0
  5 12  1  0  0  0  0
  5 14  1  0  0  0  0
  5 23  1  0  0  0  0
  6 11  1  0  0  0  0
  6 24  1  0  0  0  0
  6 25  1  0  0  0  0
  7  8  1  0  0  0  0
  7 14  1  0  0  0  0
  7 15  1  0  0  0  0
  9 10  1  0  0  0  0
  9 11  1  0  0  0  0
  9 16  1  0  0  0  0
  9 17  1  0  0  0  0
 10 12  1  0  0  0  0
 10 18  1  0  0  0  0
 10 19  1  0  0  0  0
 11 13  1  0  0  0  0
 11 20  1  0  0  0  0
 12 21  1  0  0  0  0
 12 22  1  0  0  0  0
 15 27  1  0  0  0  0
 15 28  1  0  0  0  0
 15 29  1  0  0  0  0
M  END
> <PUBCHEM_COMPOUND_CID>
107919

> <PUBCHEM_CONFORMER_RMSD>
0.8

> <PUBCHEM_CONFORMER_DIVERSEORDER>
2
125
112
159
30
169
142
161
111
55
168
71
173
164
109
4
70
63
160
69
62
162
135
76
166
60
127
130
136
18
172
15
133
152
126
9
128
144
13
85
94
54
91
153
44
6
163
124
11
28
57
24
77
167
83
50
56
73
115
87
40
123
61
32
171
75
110
52
45
138
58
165
113
140
59
23
114
146
17
35
99
37
141
29
27
121
151
158
72
137
48
139
38
147
25
117
20
102
148
100
19
108
41
12
10
119
96
120
105
34
84
31
154
46
170
129
14
86
36
33
101
93
122
82
149
88
53
21
97
3
22
7
118
155
89
68
16
66
107
74
143
43
26
39
95
49
8
1
134
5
90
104
157
116
131
156
79
92
64
67
103
106
42
78
98
132
150
51
65
81
80
47
145

> <PUBCHEM_MMFF94_PARTIAL_CHARGES>
17
1 -0.65
11 0.33
12 0.3
13 0.66
14 0.69
15 0.3
2 -0.57
23 0.37
24 0.36
25 0.36
26 0.5
3 -0.57
4 -0.16
5 -0.73
6 -0.99
7 -0.18
8 -0.02

> <PUBCHEM_EFFECTIVE_ROTOR_COUNT>
8

> <PUBCHEM_PHARMACOPHORE_FEATURES>
7
1 1 acceptor
1 2 acceptor
1 3 acceptor
1 5 donor
1 6 cation
1 6 donor
3 1 2 13 anion

> <PUBCHEM_HEAVY_ATOM_COUNT>
15

> <PUBCHEM_ATOM_DEF_STEREO_COUNT>
1

> <PUBCHEM_ATOM_UDEF_STEREO_COUNT>
0

> <PUBCHEM_BOND_DEF_STEREO_COUNT>
0

> <PUBCHEM_BOND_UDEF_STEREO_COUNT>
0

> <PUBCHEM_ISOTOPIC_ATOM_COUNT>
0

> <PUBCHEM_COMPONENT_COUNT>
1

> <PUBCHEM_CACTVS_TAUTO_COUNT>
2

> <PUBCHEM_CONFORMER_ID>
0001A58F00000002

> <PUBCHEM_MMFF94_ENERGY>
15.8324

> <PUBCHEM_FEATURE_SELFOVERLAP>
35.581

> <PUBCHEM_SHAPE_FINGERPRINT>
10062212 137 18060132167775594263
10130415 120 17917433150417513193
10366900 7 12895081751108445950
10498660 4 14346059924171528439
11458722 120 18272374127332411945
12251169 10 10591768658121183000
12346177 29 16415191308882971053
12815109 37 17775282772561819504
14123260 362 11891337525728953238
15375358 24 14836404735364412655
17834072 14 13326858829264764875
17834072 8 18341611499656655549
1798214 20 18413107260269024654
18186145 218 16950273027332628625
19107657 9 12396571897700338382
20279233 1 14476971107247844525
20281475 54 18342737455113093387
204376 136 8934998174673445145
20645477 70 18200322120719699860
20671657 53 18335424556201192804
21119208 17 18408325505389904709
21250096 35 18131631179688346762
21524375 3 11314305066255727976
22485316 2 18060133279871073064
22854114 59 12103844557682417714
22959321 94 17703790305930721482
23402655 69 18186523202472903604
23557571 272 15142114116867439784
23598291 2 18265067833747721192
32948 21 18187078412858373325
4990 188 16950284013679506984
5281201 14 17240485814269414092
6333272 397 9007055785690541648
81228 2 15409520764722103595
9882013 296 8790887397591876799

> <PUBCHEM_SHAPE_MULTIPOLES>
265.29
9.78
1.5
1.23
0.01
0.09
-0.2
2.85
-1.29
-1.13
0.06
0.22
0.05
-0.87

> <PUBCHEM_SHAPE_SELFOVERLAP>
503.361

> <PUBCHEM_SHAPE_VOLUME>
162.3

> <PUBCHEM_COORDINATE_TYPE>
2
5
10

$$$$
