107991
  -OEChem-03292013323D

 45 48  0     1  0  0  0  0  0999 V2000
   -2.1273   -2.9944   -0.1216 O   0  0  0  0  0  0  0  0  0  0  0  0
   -3.5228   -2.5874    1.7411 O   0  0  0  0  0  0  0  0  0  0  0  0
   -1.1727    1.5270    0.4669 O   0  0  0  0  0  0  0  0  0  0  0  0
   -5.5431    0.6969    0.0580 O   0  0  0  0  0  0  0  0  0  0  0  0
    1.2753    2.2618    0.4204 O   0  0  0  0  0  0  0  0  0  0  0  0
    2.9766   -2.7352   -0.4318 O   0  0  0  0  0  0  0  0  0  0  0  0
    3.6669    3.1712    0.3912 O   0  0  0  0  0  0  0  0  0  0  0  0
    7.1688    0.0583   -0.3022 O   0  0  0  0  0  0  0  0  0  0  0  0
   -5.5399    2.5162   -1.3657 O   0  0  0  0  0  0  0  0  0  0  0  0
   -3.0548   -0.7691    0.2159 C   0  0  2  0  0  0  0  0  0  0  0  0
   -1.5678   -0.7771    0.1661 C   0  0  0  0  0  0  0  0  0  0  0  0
   -3.2943   -2.2861    0.3636 C   0  0  1  0  0  0  0  0  0  0  0  0
   -3.6478   -0.2120   -1.0736 C   0  0  0  0  0  0  0  0  0  0  0  0
   -1.1176   -2.0698   -0.0467 C   0  0  0  0  0  0  0  0  0  0  0  0
   -0.6767    0.2781    0.2585 C   0  0  0  0  0  0  0  0  0  0  0  0
    0.6932    0.0047    0.1302 C   0  0  0  0  0  0  0  0  0  0  0  0
    1.1407   -1.3094   -0.0941 C   0  0  0  0  0  0  0  0  0  0  0  0
    0.2244   -2.3657   -0.1888 C   0  0  0  0  0  0  0  0  0  0  0  0
   -5.1636   -0.1565   -1.0127 C   0  0  0  0  0  0  0  0  0  0  0  0
    1.6623    1.1160    0.2261 C   0  0  0  0  0  0  0  0  0  0  0  0
    2.5842   -1.5916   -0.2349 C   0  0  0  0  0  0  0  0  0  0  0  0
    3.1039    0.8277    0.0861 C   0  0  0  0  0  0  0  0  0  0  0  0
    3.5482   -0.4771   -0.1359 C   0  0  0  0  0  0  0  0  0  0  0  0
    4.0297    1.8743    0.1773 C   0  0  0  0  0  0  0  0  0  0  0  0
    4.9183   -0.7353   -0.2661 C   0  0  0  0  0  0  0  0  0  0  0  0
    5.8371    0.3104   -0.1747 C   0  0  0  0  0  0  0  0  0  0  0  0
    5.3938    1.6126    0.0465 C   0  0  0  0  0  0  0  0  0  0  0  0
   -5.6978    2.0185   -0.2592 C   0  0  0  0  0  0  0  0  0  0  0  0
   -6.0970    2.7930    0.9602 C   0  0  0  0  0  0  0  0  0  0  0  0
   -3.4061   -0.2202    1.0969 H   0  0  0  0  0  0  0  0  0  0  0  0
   -4.1640   -2.6376   -0.1992 H   0  0  0  0  0  0  0  0  0  0  0  0
   -3.3435   -0.8180   -1.9367 H   0  0  0  0  0  0  0  0  0  0  0  0
   -3.2574    0.7983   -1.2483 H   0  0  0  0  0  0  0  0  0  0  0  0
    0.5409   -3.3887   -0.3633 H   0  0  0  0  0  0  0  0  0  0  0  0
   -5.5779    0.1858   -1.9687 H   0  0  0  0  0  0  0  0  0  0  0  0
   -5.6045   -1.1394   -0.8252 H   0  0  0  0  0  0  0  0  0  0  0  0
   -4.0235   -3.4203    1.7716 H   0  0  0  0  0  0  0  0  0  0  0  0
   -0.4596    2.1817    0.4958 H   0  0  0  0  0  0  0  0  0  0  0  0
    5.2768   -1.7471   -0.4391 H   0  0  0  0  0  0  0  0  0  0  0  0
    6.1216    2.4178    0.1153 H   0  0  0  0  0  0  0  0  0  0  0  0
    4.4603    3.7327    0.4201 H   0  0  0  0  0  0  0  0  0  0  0  0
   -5.3191    2.7080    1.7232 H   0  0  0  0  0  0  0  0  0  0  0  0
   -7.0516    2.4201    1.3398 H   0  0  0  0  0  0  0  0  0  0  0  0
   -6.2140    3.8483    0.6978 H   0  0  0  0  0  0  0  0  0  0  0  0
    7.2974   -0.8943   -0.4509 H   0  0  0  0  0  0  0  0  0  0  0  0
  1 12  1  0  0  0  0
  1 14  1  0  0  0  0
  2 12  1  0  0  0  0
  2 37  1  0  0  0  0
  3 15  1  0  0  0  0
  3 38  1  0  0  0  0
  4 19  1  0  0  0  0
  4 28  1  0  0  0  0
  5 20  2  0  0  0  0
  6 21  2  0  0  0  0
  7 24  1  0  0  0  0
  7 41  1  0  0  0  0
  8 26  1  0  0  0  0
  8 45  1  0  0  0  0
  9 28  2  0  0  0  0
 10 11  1  0  0  0  0
 10 12  1  0  0  0  0
 10 13  1  0  0  0  0
 10 30  1  0  0  0  0
 11 14  2  0  0  0  0
 11 15  1  0  0  0  0
 12 31  1  0  0  0  0
 13 19  1  0  0  0  0
 13 32  1  0  0  0  0
 13 33  1  0  0  0  0
 14 18  1  0  0  0  0
 15 16  2  0  0  0  0
 16 17  1  0  0  0  0
 16 20  1  0  0  0  0
 17 18  2  0  0  0  0
 17 21  1  0  0  0  0
 18 34  1  0  0  0  0
 19 35  1  0  0  0  0
 19 36  1  0  0  0  0
 20 22  1  0  0  0  0
 21 23  1  0  0  0  0
 22 23  2  0  0  0  0
 22 24  1  0  0  0  0
 23 25  1  0  0  0  0
 24 27  2  0  0  0  0
 25 26  2  0  0  0  0
 25 39  1  0  0  0  0
 26 27  1  0  0  0  0
 27 40  1  0  0  0  0
 28 29  1  0  0  0  0
 29 42  1  0  0  0  0
 29 43  1  0  0  0  0
 29 44  1  0  0  0  0
M  END
> <PUBCHEM_COMPOUND_CID>
107991

> <PUBCHEM_CONFORMER_RMSD>
0.8

> <PUBCHEM_CONFORMER_DIVERSEORDER>
4
20
1
24
5
2
21
7
10
6
9
8
23
18
15
22
13
17
11
14
16
3
19
12

> <PUBCHEM_MMFF94_PARTIAL_CHARGES>
35
1 -0.36
10 0.14
11 -0.14
12 0.56
14 0.08
15 0.08
16 0.09
17 0.09
18 -0.15
19 0.28
2 -0.68
20 0.4
21 0.4
22 0.09
23 0.09
24 0.08
25 -0.15
26 0.08
27 -0.15
28 0.66
29 0.06
3 -0.53
34 0.15
37 0.4
38 0.45
39 0.15
4 -0.43
40 0.15
41 0.45
45 0.45
5 -0.57
6 -0.57
7 -0.53
8 -0.53
9 -0.57

> <PUBCHEM_EFFECTIVE_ROTOR_COUNT>
4.6

> <PUBCHEM_PHARMACOPHORE_FEATURES>
13
1 1 acceptor
1 2 acceptor
1 2 donor
1 3 donor
1 5 acceptor
1 6 acceptor
1 7 donor
1 8 donor
1 9 acceptor
5 1 10 11 12 14 rings
6 11 14 15 16 17 18 rings
6 16 17 20 21 22 23 rings
6 22 23 24 25 26 27 rings

> <PUBCHEM_HEAVY_ATOM_COUNT>
29

> <PUBCHEM_ATOM_DEF_STEREO_COUNT>
0

> <PUBCHEM_ATOM_UDEF_STEREO_COUNT>
2

> <PUBCHEM_BOND_DEF_STEREO_COUNT>
0

> <PUBCHEM_BOND_UDEF_STEREO_COUNT>
0

> <PUBCHEM_ISOTOPIC_ATOM_COUNT>
0

> <PUBCHEM_COMPONENT_COUNT>
1

> <PUBCHEM_CACTVS_TAUTO_COUNT>
57

> <PUBCHEM_CONFORMER_ID>
0001A5D700000004

> <PUBCHEM_MMFF94_ENERGY>
82.6652

> <PUBCHEM_FEATURE_SELFOVERLAP>
66.156

> <PUBCHEM_SHAPE_FINGERPRINT>
10835480 77 18340480183933754640
10906281 52 18271253720319423471
1100329 8 17762904260556588146
12403259 415 18267586995343881336
12788726 201 17917148273995678545
13402501 40 18410007728289879853
14790565 3 18411420647838970921
14950920 106 13695879108244250437
15183329 4 18411130316908773405
15196674 1 18267867362261383378
15274700 147 16383698267380170221
1601671 61 18408600361911683036
16112460 7 18198913500512578201
17844677 252 18264213684563049576
18608769 82 18338236085444629251
20715895 44 18411416176714621325
21033648 144 18261386712089340927
21033648 29 18269827760975224352
21267235 1 18340781446177823018
21279426 13 18413393128997227414
21304253 335 18334299759910664965
21421861 104 17823122446520204290
21859007 373 18338497704349920936
23559900 14 18341889740628448336
23569914 152 17053035346674802956
2838139 119 18412821404362238895
3004659 81 18334855061281763880
335352 9 18411981369289610166
34934 24 18410570682512121710
350125 39 18410855426106501284
3680242 22 18262791844287861146
4073 2 18114747135141126778
5104073 3 18187077386366341482
5283173 99 18410289229147027329
59755656 215 18411138000784484260
6328613 192 18335704974668910684
9995097 60 18410576214244752584

> <PUBCHEM_SHAPE_MULTIPOLES>
543.98
15.03
3.44
0.88
1.09
0.16
-0.03
9.59
1.54
2.36
-0.47
1.12
-0.01
0.87

> <PUBCHEM_SHAPE_SELFOVERLAP>
1220.109

> <PUBCHEM_SHAPE_VOLUME>
284.8

> <PUBCHEM_COORDINATE_TYPE>
2
5
10

$$$$
