108041
  -OEChem-03292013323D

 47 50  0     0  0  0  0  0  0999 V2000
   -0.2719    0.7817    0.5048 O   0  0  0  0  0  0  0  0  0  0  0  0
    0.0797   -0.5069   -1.4056 O   0  0  0  0  0  0  0  0  0  0  0  0
    8.2836    0.0934    0.6874 N   0  0  0  0  0  0  0  0  0  0  0  0
    6.0024    0.4204    0.8519 N   0  0  0  0  0  0  0  0  0  0  0  0
    6.9722   -0.8448   -0.9094 N   0  0  0  0  0  0  0  0  0  0  0  0
   -8.7657   -1.4660    0.2928 N   0  0  0  0  0  0  0  0  0  0  0  0
   -8.5205    0.4856   -0.9690 N   0  0  0  0  0  0  0  0  0  0  0  0
    9.2720   -0.5417   -0.1297 C   0  0  0  0  0  0  0  0  0  0  0  0
    8.3957   -1.1837   -1.2127 C   0  0  0  0  0  0  0  0  0  0  0  0
   -3.7702   -0.3361    0.5448 C   0  0  0  0  0  0  0  0  0  0  0  0
   -4.3715    0.6693   -0.2494 C   0  0  0  0  0  0  0  0  0  0  0  0
    7.0359   -0.1232    0.1841 C   0  0  0  0  0  0  0  0  0  0  0  0
    4.6314    0.3404    0.5308 C   0  0  0  0  0  0  0  0  0  0  0  0
   -2.3882   -0.2838    0.7886 C   0  0  0  0  0  0  0  0  0  0  0  0
   -5.7537    0.6170   -0.4934 C   0  0  0  0  0  0  0  0  0  0  0  0
   -1.6101    0.7452    0.2572 C   0  0  0  0  0  0  0  0  0  0  0  0
   -3.5729    1.6973   -0.7763 C   0  0  0  0  0  0  0  0  0  0  0  0
   -4.5688   -1.3641    1.0715 C   0  0  0  0  0  0  0  0  0  0  0  0
   -6.5318   -0.4118    0.0382 C   0  0  0  0  0  0  0  0  0  0  0  0
   -2.2013    1.7337   -0.5237 C   0  0  0  0  0  0  0  0  0  0  0  0
   -5.9404   -1.4004    0.8191 C   0  0  0  0  0  0  0  0  0  0  0  0
    1.9489    0.1844   -0.0972 C   0  0  0  0  0  0  0  0  0  0  0  0
    4.1347   -0.7813   -0.1332 C   0  0  0  0  0  0  0  0  0  0  0  0
    3.7721    1.3833    0.8771 C   0  0  0  0  0  0  0  0  0  0  0  0
    2.7787   -0.8600   -0.4507 C   0  0  0  0  0  0  0  0  0  0  0  0
    2.4162    1.3043    0.5598 C   0  0  0  0  0  0  0  0  0  0  0  0
    0.5054    0.0996   -0.4341 C   0  0  0  0  0  0  0  0  0  0  0  0
   -7.9618   -0.4515   -0.2239 C   0  0  0  0  0  0  0  0  0  0  0  0
    9.8334   -1.2942    0.4315 H   0  0  0  0  0  0  0  0  0  0  0  0
    9.9678    0.1869   -0.5559 H   0  0  0  0  0  0  0  0  0  0  0  0
    8.6573   -0.8028   -2.2056 H   0  0  0  0  0  0  0  0  0  0  0  0
    8.5168   -2.2722   -1.2207 H   0  0  0  0  0  0  0  0  0  0  0  0
    8.5013    0.6269    1.5199 H   0  0  0  0  0  0  0  0  0  0  0  0
    6.2169    1.0898    1.5857 H   0  0  0  0  0  0  0  0  0  0  0  0
   -1.9112   -1.0493    1.3983 H   0  0  0  0  0  0  0  0  0  0  0  0
   -6.2049    1.3957   -1.1055 H   0  0  0  0  0  0  0  0  0  0  0  0
   -4.0131    2.4808   -1.3895 H   0  0  0  0  0  0  0  0  0  0  0  0
   -4.1271   -2.1472    1.6845 H   0  0  0  0  0  0  0  0  0  0  0  0
   -1.6006    2.5381   -0.9397 H   0  0  0  0  0  0  0  0  0  0  0  0
   -6.4979   -2.2216    1.2560 H   0  0  0  0  0  0  0  0  0  0  0  0
    4.7546   -1.6367   -0.3798 H   0  0  0  0  0  0  0  0  0  0  0  0
    4.1475    2.2645    1.3912 H   0  0  0  0  0  0  0  0  0  0  0  0
    2.4005   -1.7441   -0.9555 H   0  0  0  0  0  0  0  0  0  0  0  0
    1.7698    2.1345    0.8280 H   0  0  0  0  0  0  0  0  0  0  0  0
   -9.7615   -1.4772    0.0974 H   0  0  0  0  0  0  0  0  0  0  0  0
   -8.4201   -2.2212    0.8716 H   0  0  0  0  0  0  0  0  0  0  0  0
   -9.5244    0.2856   -1.0389 H   0  0  0  0  0  0  0  0  0  0  0  0
  1 16  1  0  0  0  0
  1 27  1  0  0  0  0
  2 27  2  0  0  0  0
  3  8  1  0  0  0  0
  3 12  1  0  0  0  0
  3 33  1  0  0  0  0
  4 12  1  0  0  0  0
  4 13  1  0  0  0  0
  4 34  1  0  0  0  0
  5  9  1  0  0  0  0
  5 12  2  0  0  0  0
  6 28  1  0  0  0  0
  6 45  1  0  0  0  0
  6 46  1  0  0  0  0
  7 28  2  0  0  0  0
  7 47  1  0  0  0  0
  8  9  1  0  0  0  0
  8 29  1  0  0  0  0
  8 30  1  0  0  0  0
  9 31  1  0  0  0  0
  9 32  1  0  0  0  0
 10 11  2  0  0  0  0
 10 14  1  0  0  0  0
 10 18  1  0  0  0  0
 11 15  1  0  0  0  0
 11 17  1  0  0  0  0
 13 23  2  0  0  0  0
 13 24  1  0  0  0  0
 14 16  2  0  0  0  0
 14 35  1  0  0  0  0
 15 19  2  0  0  0  0
 15 36  1  0  0  0  0
 16 20  1  0  0  0  0
 17 20  2  0  0  0  0
 17 37  1  0  0  0  0
 18 21  2  0  0  0  0
 18 38  1  0  0  0  0
 19 21  1  0  0  0  0
 19 28  1  0  0  0  0
 20 39  1  0  0  0  0
 21 40  1  0  0  0  0
 22 25  2  0  0  0  0
 22 26  1  0  0  0  0
 22 27  1  0  0  0  0
 23 25  1  0  0  0  0
 23 41  1  0  0  0  0
 24 26  2  0  0  0  0
 24 42  1  0  0  0  0
 25 43  1  0  0  0  0
 26 44  1  0  0  0  0
M  END
> <PUBCHEM_COMPOUND_CID>
108041

> <PUBCHEM_CONFORMER_RMSD>
0.8

> <PUBCHEM_CONFORMER_DIVERSEORDER>
1
118
82
43
105
45
27
78
104
51
52
114
110
127
17
84
126
2
47
97
19
113
54
74
86
87
40
55
67
61
83
112
122
28
14
42
79
117
103
11
50
63
70
60
121
124
68
116
35
77
16
31
58
62
125
7
120
92
89
12
106
76
71
101
111
102
44
10
94
65
81
32
46
39
123
6
34
69
73
20
9
107
88
75
93
95
38
98
109
41
115
85
57
100
18
99
29
25
48
4
26
49
3
80
33
56
22
21
90
23
66
24
72
53
13
8
36
30
64
15
91
59
37
5
96
108
119

> <PUBCHEM_MMFF94_PARTIAL_CHARGES>
41
1 -0.23
12 0.55
13 0.1
14 -0.15
15 -0.15
16 0.08
17 -0.15
18 -0.15
19 0.09
2 -0.57
20 -0.15
21 -0.15
22 0.09
23 -0.15
24 -0.15
25 -0.15
26 -0.15
27 0.63
28 0.41
3 -0.82
33 0.4
34 0.4
35 0.15
36 0.15
37 0.15
38 0.15
39 0.15
4 -0.55
40 0.15
41 0.15
42 0.15
43 0.15
44 0.15
45 0.4
46 0.4
47 0.4
5 -0.7
6 -0.85
7 -0.85
8 0.37
9 0.25

> <PUBCHEM_EFFECTIVE_ROTOR_COUNT>
6.6

> <PUBCHEM_PHARMACOPHORE_FEATURES>
11
1 2 acceptor
1 3 donor
1 4 donor
1 6 donor
1 7 donor
3 6 7 28 cation
4 3 4 5 12 cation
5 3 5 8 9 12 rings
6 10 11 14 16 17 20 rings
6 10 11 15 18 19 21 rings
6 13 22 23 24 25 26 rings

> <PUBCHEM_HEAVY_ATOM_COUNT>
28

> <PUBCHEM_ATOM_DEF_STEREO_COUNT>
0

> <PUBCHEM_ATOM_UDEF_STEREO_COUNT>
0

> <PUBCHEM_BOND_DEF_STEREO_COUNT>
0

> <PUBCHEM_BOND_UDEF_STEREO_COUNT>
0

> <PUBCHEM_ISOTOPIC_ATOM_COUNT>
0

> <PUBCHEM_COMPONENT_COUNT>
1

> <PUBCHEM_CACTVS_TAUTO_COUNT>
3

> <PUBCHEM_CONFORMER_ID>
0001A60900000001

> <PUBCHEM_MMFF94_ENERGY>
110.9376

> <PUBCHEM_FEATURE_SELFOVERLAP>
55.94

> <PUBCHEM_SHAPE_FINGERPRINT>
10 15 18340196488785571408
10299344 5 17022619771865145618
106641 1 17275102846864020762
10883706 142 12175622871688324484
11135609 127 8069728686502907818
11315181 36 16370732530196351881
11524674 6 17704071819726305311
12089408 11 16443062794169090753
12236239 1 16226044505542561073
12741549 16 17846499240906931833
13685833 64 18060422400738740680
13885169 127 18342458110883663049
14040221 8 17748827389179988429
14150022 121 17346608426595218825
14251764 18 17022620862306803688
14251764 46 17022903445632977043
14294032 229 16951395522095947309
14344974 52 11025805319046356307
14849402 71 15482376665038156234
15183329 4 14418126336320302027
15247644 1 17632578253336023926
15419008 47 18411411808802317344
15461852 350 17603304847578701413
15510794 2 18411982434847914902
15840311 113 17967536805450025068
15849732 13 18413389835290126508
18681886 176 17748825254164211320
195137 175 15357695267014491629
20105231 36 18059862749320729470
21150785 3 16008749108702268176
21267235 1 18130790049404689408
21315759 40 16343703248476965620
21360443 120 16226043379865680171
21792961 116 18272930479699270488
22224240 67 16917065577039820263
232437 2 18408323298372910995
23559900 14 18187363259268392793
246663 6 18272090496002361572
249057 3 17313388954150091444
3004659 81 17385723625524771093
3009799 131 11097856298628998054
3178227 256 17703791427629374650
335352 9 17749102302121149687
4325135 7 18040154015364681238
4625314 4 18334858354604003164
504579 68 16805325500512136062
5758199 1 14692571014044682878
59521270 166 17749384837438006391
59682541 35 18131067164446094042
636775 8 16805612516946634363
6691757 9 17240774964991220505
67123 10 18333450950568087332

> <PUBCHEM_SHAPE_MULTIPOLES>
539.58
29.59
1.42
1.02
17.78
0.17
-0.07
-10.03
-2.9
-1.16
0.02
0.37
-0.06
2.05

> <PUBCHEM_SHAPE_SELFOVERLAP>
1194.204

> <PUBCHEM_SHAPE_VOLUME>
287.8

> <PUBCHEM_COORDINATE_TYPE>
2
5
10

$$$$
