10804002
  -OEChem-03292013303D

 39 41  0     1  0  0  0  0  0999 V2000
    0.1733   -0.9639   -1.9328 O   0  0  0  0  0  0  0  0  0  0  0  0
    1.4891   -1.8874    0.3295 O   0  0  0  0  0  0  0  0  0  0  0  0
   -1.1799   -2.4008    0.8777 O   0  0  0  0  0  0  0  0  0  0  0  0
    4.1695   -0.6736    1.0893 O   0  0  0  0  0  0  0  0  0  0  0  0
   -3.2547    2.5776    0.4178 O   0  0  0  0  0  0  0  0  0  0  0  0
    4.2843    1.4999    0.4119 O   0  0  0  0  0  0  0  0  0  0  0  0
   -3.6717    0.5661    1.4056 O   0  0  0  0  0  0  0  0  0  0  0  0
    0.2700   -0.0979   -0.8115 C   0  0  1  0  0  0  0  0  0  0  0  0
   -0.9921   -0.0895    0.0809 C   0  0  1  0  0  0  0  0  0  0  0  0
    1.4236   -0.4833    0.1258 C   0  0  1  0  0  0  0  0  0  0  0  0
   -0.4714    0.4090    1.4402 C   0  0  0  0  0  0  0  0  0  0  0  0
    1.0575    0.2090    1.4487 C   0  0  0  0  0  0  0  0  0  0  0  0
    0.7196    1.2803   -1.3265 C   0  0  0  0  0  0  0  0  0  0  0  0
    2.6846   -0.0014   -0.6016 C   0  0  1  0  0  0  0  0  0  0  0  0
   -2.1896    0.6928   -0.5063 C   0  0  1  0  0  0  0  0  0  0  0  0
    2.2383    1.1631   -1.4926 C   0  0  0  0  0  0  0  0  0  0  0  0
   -1.6180   -1.4866    0.1890 C   0  0  0  0  0  0  0  0  0  0  0  0
   -2.9355   -0.3058   -1.3882 C   0  0  0  0  0  0  0  0  0  0  0  0
   -2.8697   -1.6289   -0.6392 C   0  0  0  0  0  0  0  0  0  0  0  0
    3.7884    0.3857    0.3344 C   0  0  0  0  0  0  0  0  0  0  0  0
   -3.1155    1.2356    0.5479 C   0  0  0  0  0  0  0  0  0  0  0  0
   -0.9276   -0.1221    2.2832 H   0  0  0  0  0  0  0  0  0  0  0  0
   -0.6754    1.4768    1.5826 H   0  0  0  0  0  0  0  0  0  0  0  0
    1.5310    1.1933    1.5411 H   0  0  0  0  0  0  0  0  0  0  0  0
    1.3568   -0.3843    2.3198 H   0  0  0  0  0  0  0  0  0  0  0  0
    0.4998    2.0792   -0.6090 H   0  0  0  0  0  0  0  0  0  0  0  0
    0.2518    1.5447   -2.2811 H   0  0  0  0  0  0  0  0  0  0  0  0
    3.0883   -0.7924   -1.2487 H   0  0  0  0  0  0  0  0  0  0  0  0
   -1.8598    1.5358   -1.1230 H   0  0  0  0  0  0  0  0  0  0  0  0
    2.4696    0.9229   -2.5380 H   0  0  0  0  0  0  0  0  0  0  0  0
    2.7179    2.1232   -1.2802 H   0  0  0  0  0  0  0  0  0  0  0  0
   -2.4304   -0.4018   -2.3568 H   0  0  0  0  0  0  0  0  0  0  0  0
   -3.9723   -0.0148   -1.5876 H   0  0  0  0  0  0  0  0  0  0  0  0
   -2.7889   -2.4755   -1.3250 H   0  0  0  0  0  0  0  0  0  0  0  0
   -3.7275   -1.7584    0.0262 H   0  0  0  0  0  0  0  0  0  0  0  0
    0.1897   -1.8799   -1.6080 H   0  0  0  0  0  0  0  0  0  0  0  0
    2.2473   -2.0671    0.9113 H   0  0  0  0  0  0  0  0  0  0  0  0
    4.8919   -0.4398    1.7103 H   0  0  0  0  0  0  0  0  0  0  0  0
   -3.8560    2.9509    1.0970 H   0  0  0  0  0  0  0  0  0  0  0  0
  1  8  1  0  0  0  0
  1 36  1  0  0  0  0
  2 10  1  0  0  0  0
  2 37  1  0  0  0  0
  3 17  2  0  0  0  0
  4 20  1  0  0  0  0
  4 38  1  0  0  0  0
  5 21  1  0  0  0  0
  5 39  1  0  0  0  0
  6 20  2  0  0  0  0
  7 21  2  0  0  0  0
  8  9  1  0  0  0  0
  8 10  1  0  0  0  0
  8 13  1  0  0  0  0
  9 11  1  0  0  0  0
  9 15  1  0  0  0  0
  9 17  1  0  0  0  0
 10 12  1  0  0  0  0
 10 14  1  0  0  0  0
 11 12  1  0  0  0  0
 11 22  1  0  0  0  0
 11 23  1  0  0  0  0
 12 24  1  0  0  0  0
 12 25  1  0  0  0  0
 13 16  1  0  0  0  0
 13 26  1  0  0  0  0
 13 27  1  0  0  0  0
 14 16  1  0  0  0  0
 14 20  1  0  0  0  0
 14 28  1  0  0  0  0
 15 18  1  0  0  0  0
 15 21  1  0  0  0  0
 15 29  1  0  0  0  0
 16 30  1  0  0  0  0
 16 31  1  0  0  0  0
 17 19  1  0  0  0  0
 18 19  1  0  0  0  0
 18 32  1  0  0  0  0
 18 33  1  0  0  0  0
 19 34  1  0  0  0  0
 19 35  1  0  0  0  0
M  END
> <PUBCHEM_COMPOUND_CID>
10804002

> <PUBCHEM_CONFORMER_RMSD>
0.6

> <PUBCHEM_CONFORMER_DIVERSEORDER>
1
8
7
4
5
3
6
2

> <PUBCHEM_MMFF94_PARTIAL_CHARGES>
20
1 -0.68
10 0.28
14 0.06
15 0.06
17 0.45
19 0.06
2 -0.68
20 0.66
21 0.66
3 -0.57
36 0.4
37 0.4
38 0.5
39 0.5
4 -0.65
5 -0.65
6 -0.57
7 -0.57
8 0.28
9 0.06

> <PUBCHEM_EFFECTIVE_ROTOR_COUNT>
3.6

> <PUBCHEM_PHARMACOPHORE_FEATURES>
14
1 1 acceptor
1 1 donor
1 2 acceptor
1 2 donor
1 3 acceptor
1 4 acceptor
1 5 acceptor
1 6 acceptor
1 7 acceptor
3 4 6 20 anion
3 5 7 21 anion
5 8 10 13 14 16 rings
5 8 9 10 11 12 rings
5 9 15 17 18 19 rings

> <PUBCHEM_HEAVY_ATOM_COUNT>
21

> <PUBCHEM_ATOM_DEF_STEREO_COUNT>
5

> <PUBCHEM_ATOM_UDEF_STEREO_COUNT>
0

> <PUBCHEM_BOND_DEF_STEREO_COUNT>
0

> <PUBCHEM_BOND_UDEF_STEREO_COUNT>
0

> <PUBCHEM_ISOTOPIC_ATOM_COUNT>
0

> <PUBCHEM_COMPONENT_COUNT>
1

> <PUBCHEM_CACTVS_TAUTO_COUNT>
2

> <PUBCHEM_CONFORMER_ID>
00A4DB2200000001

> <PUBCHEM_MMFF94_ENERGY>
69.5585

> <PUBCHEM_FEATURE_SELFOVERLAP>
71.582

> <PUBCHEM_SHAPE_FINGERPRINT>
10646746 165 17917712396490930232
10863032 1 17346314860620326510
10948715 1 18271527494219169353
11132069 177 17603854642168646692
11640471 11 18337398149297231081
12173636 292 18410299099081879533
12491281 212 18114474430091858932
12670546 56 18410562998968122936
13140716 1 17895765126387835524
13172582 1 17822010882670447295
13296908 3 16773526524435141052
13571099 52 18202290160417827797
13581323 91 18410301315221661713
13583140 156 17059473215284472258
13675066 3 16732696151869660220
13965767 371 17684100075792427433
14004511 7 18260828189735218904
14178342 30 18261396667195921610
14289901 80 17845930840132829174
15209294 21 18410854322051889040
15309172 13 18040714740836344435
15775835 57 18200876175922549121
16945 1 17822012003741359838
17980427 23 18271240620685488932
18186145 218 18340209600492258406
200 152 18262226846141480583
20525323 117 18411140272405309399
21339142 149 18342454880788402011
21501502 16 17678469768676820356
22344851 262 18260834782267386226
23184049 59 17894348852495224496
23402539 116 18340477959182250679
23493267 7 17131834261266767894
23557571 272 17131563832872115588
23559900 14 17489032557302614638
25 1 17202771393074304905
2748010 2 17389932366793248654
296302 2 18343864441857749312
4340502 62 18337972095094528193
6992083 37 17967250918380916295

> <PUBCHEM_SHAPE_MULTIPOLES>
391.08
6.42
1.89
1.53
2.93
0.13
0.17
-1.71
-1.17
-1.12
-0.16
-0.09
-0.12
-0.76

> <PUBCHEM_SHAPE_SELFOVERLAP>
858.263

> <PUBCHEM_SHAPE_VOLUME>
213.1

> <PUBCHEM_COORDINATE_TYPE>
2
5
10

$$$$
