10807167
  -OEChem-03292013303D

 42 44  0     1  0  0  0  0  0999 V2000
   -3.9690    0.3776   -1.0850 S   0  0  0  0  0  0  0  0  0  0  0  0
    2.9190    0.0880   -0.9326 O   0  0  0  0  0  0  0  0  0  0  0  0
    0.7415    2.1652    1.0330 O   0  0  0  0  0  0  0  0  0  0  0  0
    2.7072    3.1103   -0.5881 O   0  0  0  0  0  0  0  0  0  0  0  0
    5.5232   -0.7071   -0.2631 O   0  0  0  0  0  0  0  0  0  0  0  0
    0.8821   -0.8032   -0.1036 N   0  0  0  0  0  0  0  0  0  0  0  0
    0.5145   -2.9064    0.5439 N   0  0  0  0  0  0  0  0  0  0  0  0
   -1.3946   -0.1206   -0.6065 N   0  0  0  0  0  0  0  0  0  0  0  0
   -2.9758   -1.9349   -0.2014 N   0  0  0  0  0  0  0  0  0  0  0  0
   -2.2883   -4.0855    0.5914 N   0  0  0  0  0  0  0  0  0  0  0  0
    1.8511    1.3279    0.7793 C   0  0  1  0  0  0  0  0  0  0  0  0
    1.6150    0.4209   -0.4188 C   0  0  1  0  0  0  0  0  0  0  0  0
    3.0839    2.0930    0.3400 C   0  0  1  0  0  0  0  0  0  0  0  0
    3.8835    1.0245   -0.3991 C   0  0  1  0  0  0  0  0  0  0  0  0
    4.8392    0.2640    0.5093 C   0  0  0  0  0  0  0  0  0  0  0  0
   -0.4668   -1.0015   -0.2028 C   0  0  0  0  0  0  0  0  0  0  0  0
    1.4267   -1.9772    0.3486 C   0  0  0  0  0  0  0  0  0  0  0  0
   -0.6737   -2.3101    0.2032 C   0  0  0  0  0  0  0  0  0  0  0  0
   -1.9862   -2.7711    0.1953 C   0  0  0  0  0  0  0  0  0  0  0  0
   -2.6237   -0.6802   -0.5721 C   0  0  0  0  0  0  0  0  0  0  0  0
   -3.8452    1.7328    0.1149 C   0  0  0  0  0  0  0  0  0  0  0  0
   -4.9264    2.7760   -0.1441 C   0  0  0  0  0  0  0  0  0  0  0  0
   -4.8373    3.9176    0.8581 C   0  0  0  0  0  0  0  0  0  0  0  0
    2.0655    0.7460    1.6832 H   0  0  0  0  0  0  0  0  0  0  0  0
    1.0600    0.9251   -1.2195 H   0  0  0  0  0  0  0  0  0  0  0  0
    3.6148    2.5735    1.1666 H   0  0  0  0  0  0  0  0  0  0  0  0
    4.4304    1.4326   -1.2566 H   0  0  0  0  0  0  0  0  0  0  0  0
    4.3137   -0.2608    1.3133 H   0  0  0  0  0  0  0  0  0  0  0  0
    5.5798    0.9359    0.9527 H   0  0  0  0  0  0  0  0  0  0  0  0
    0.5902    2.7119    0.2433 H   0  0  0  0  0  0  0  0  0  0  0  0
    3.5232    3.5489   -0.8843 H   0  0  0  0  0  0  0  0  0  0  0  0
    2.4870   -2.0996    0.5228 H   0  0  0  0  0  0  0  0  0  0  0  0
    4.8544   -1.2953   -0.6536 H   0  0  0  0  0  0  0  0  0  0  0  0
   -1.5520   -4.7116    0.8878 H   0  0  0  0  0  0  0  0  0  0  0  0
   -3.2500   -4.3967    0.5768 H   0  0  0  0  0  0  0  0  0  0  0  0
   -2.8548    2.1939    0.0359 H   0  0  0  0  0  0  0  0  0  0  0  0
   -3.9485    1.3218    1.1249 H   0  0  0  0  0  0  0  0  0  0  0  0
   -4.8259    3.1873   -1.1559 H   0  0  0  0  0  0  0  0  0  0  0  0
   -5.9217    2.3211   -0.0712 H   0  0  0  0  0  0  0  0  0  0  0  0
   -3.8677    4.4218    0.7935 H   0  0  0  0  0  0  0  0  0  0  0  0
   -5.6189    4.6577    0.6597 H   0  0  0  0  0  0  0  0  0  0  0  0
   -4.9676    3.5521    1.8817 H   0  0  0  0  0  0  0  0  0  0  0  0
  1 20  1  0  0  0  0
  1 21  1  0  0  0  0
  2 12  1  0  0  0  0
  2 14  1  0  0  0  0
  3 11  1  0  0  0  0
  3 30  1  0  0  0  0
  4 13  1  0  0  0  0
  4 31  1  0  0  0  0
  5 15  1  0  0  0  0
  5 33  1  0  0  0  0
  6 12  1  0  0  0  0
  6 16  1  0  0  0  0
  6 17  1  0  0  0  0
  7 17  2  0  0  0  0
  7 18  1  0  0  0  0
  8 16  2  0  0  0  0
  8 20  1  0  0  0  0
  9 19  1  0  0  0  0
  9 20  2  0  0  0  0
 10 19  1  0  0  0  0
 10 34  1  0  0  0  0
 10 35  1  0  0  0  0
 11 12  1  0  0  0  0
 11 13  1  0  0  0  0
 11 24  1  0  0  0  0
 12 25  1  0  0  0  0
 13 14  1  0  0  0  0
 13 26  1  0  0  0  0
 14 15  1  0  0  0  0
 14 27  1  0  0  0  0
 15 28  1  0  0  0  0
 15 29  1  0  0  0  0
 16 18  1  0  0  0  0
 17 32  1  0  0  0  0
 18 19  2  0  0  0  0
 21 22  1  0  0  0  0
 21 36  1  0  0  0  0
 21 37  1  0  0  0  0
 22 23  1  0  0  0  0
 22 38  1  0  0  0  0
 22 39  1  0  0  0  0
 23 40  1  0  0  0  0
 23 41  1  0  0  0  0
 23 42  1  0  0  0  0
M  END
> <PUBCHEM_COMPOUND_CID>
10807167

> <PUBCHEM_CONFORMER_RMSD>
0.8

> <PUBCHEM_CONFORMER_DIVERSEORDER>
4
98
105
36
73
81
6
42
13
96
89
9
76
86
43
78
48
65
28
63
44
68
30
107
109
1
23
45
92
8
59
7
57
94
56
24
55
11
108
88
47
67
2
74
18
110
5
50
71
40
33
16
99
75
87
85
111
54
26
72
27
97
21
53
70
83
82
37
22
3
38
58
84
91
35
60
20
95
66
39
102
12
29
25
52
93
77
90
106
69
15
51
49
10
32
100
101
46
14
34
80
31
17
79
19
104
64
62
61
103
41

> <PUBCHEM_MMFF94_PARTIAL_CHARGES>
27
1 -0.33
10 -0.9
11 0.28
12 0.54
13 0.28
14 0.28
15 0.28
16 0.11
17 0.04
18 0.23
19 0.41
2 -0.56
20 0.72
21 0.23
3 -0.68
30 0.4
31 0.4
32 0.15
33 0.4
34 0.4
35 0.4
4 -0.68
5 -0.68
6 0.05
7 -0.57
8 -0.57
9 -0.62

> <PUBCHEM_EFFECTIVE_ROTOR_COUNT>
6

> <PUBCHEM_PHARMACOPHORE_FEATURES>
16
1 10 cation
1 10 donor
1 2 acceptor
1 23 hydrophobe
1 3 acceptor
1 3 donor
1 4 acceptor
1 4 donor
1 5 acceptor
1 5 donor
3 6 7 17 cation
3 6 8 16 cation
3 8 9 20 cation
5 2 11 12 13 14 rings
5 6 7 16 17 18 rings
6 8 9 16 18 19 20 rings

> <PUBCHEM_HEAVY_ATOM_COUNT>
23

> <PUBCHEM_ATOM_DEF_STEREO_COUNT>
4

> <PUBCHEM_ATOM_UDEF_STEREO_COUNT>
0

> <PUBCHEM_BOND_DEF_STEREO_COUNT>
0

> <PUBCHEM_BOND_UDEF_STEREO_COUNT>
0

> <PUBCHEM_ISOTOPIC_ATOM_COUNT>
0

> <PUBCHEM_COMPONENT_COUNT>
1

> <PUBCHEM_CACTVS_TAUTO_COUNT>
3

> <PUBCHEM_CONFORMER_ID>
00A4E77F00000004

> <PUBCHEM_MMFF94_ENERGY>
46.9856

> <PUBCHEM_FEATURE_SELFOVERLAP>
81.818

> <PUBCHEM_SHAPE_FINGERPRINT>
10165383 225 18261396589997351925
10382601 240 17823134514987531977
1100329 8 18193835938192468923
11405975 8 18335697303862022954
12107183 9 18262507105731903114
12390115 104 18338812134562448053
12403259 226 17980478189266010883
12403260 363 18265320888662077134
12788726 201 17684363236806080859
13177829 73 18342170025461653784
13464514 151 18341612577297755879
138480 1 17401485945084343865
14251764 38 18269271425250807252
14251764 75 18198916812170129865
14466204 15 18410845547771372136
14790565 3 18266461992558163441
14866123 147 17837498445384871330
15475509 8 17624985923814466926
20510252 161 17976539738826144931
20739085 24 17899708855669517261
21065198 57 18337669849234168790
21279426 13 18341897329766984814
221357 26 18200591531201847967
22182937 141 18410858793592599625
23558518 356 18116437135619836101
23559900 14 18341048610338944500
23845131 108 18261959523582851819
283562 15 18046339997075355163
335352 9 18410572838970164062
350125 39 18335423525261452523
474 4 18194958536028583321
5048184 11 18340204094903880017
5104073 3 18192146221086012610
59124914 9 18339360747461796401
6328613 192 18334579083858547932
7226269 152 18130785634014922216
84936 182 18341321190026941545
9709674 26 17974851984705138098

> <PUBCHEM_SHAPE_MULTIPOLES>
428.8
9.95
4.65
0.9
0.09
0.85
-0.02
-9.05
-0.36
4.78
1.35
0.2
-0.21
-0.62

> <PUBCHEM_SHAPE_SELFOVERLAP>
895.736

> <PUBCHEM_SHAPE_VOLUME>
246.6

> <PUBCHEM_COORDINATE_TYPE>
2
5
10

$$$$
