108015
  -OEChem-03292013323D

 38 39  0     0  0  0  0  0  0999 V2000
   -0.2986    1.8105   -0.9632 S   0  0  0  0  0  0  0  0  0  0  0  0
    0.1137    1.4945   -2.3266 O   0  0  0  0  0  0  0  0  0  0  0  0
   -0.7149    3.1748   -0.6605 O   0  0  0  0  0  0  0  0  0  0  0  0
    1.2876    3.3829    1.2126 O   0  0  0  0  0  0  0  0  0  0  0  0
    0.9567    1.3276    0.1312 N   0  0  0  0  0  0  0  0  0  0  0  0
    0.7527   -0.9047    0.8664 N   0  0  0  0  0  0  0  0  0  0  0  0
    2.4138   -0.2946   -0.7694 N   0  0  0  0  0  0  0  0  0  0  0  0
   -4.7945   -1.7833    0.5300 N   0  0  0  0  0  0  0  0  0  0  0  0
   -1.6188    0.7555   -0.5247 C   0  0  0  0  0  0  0  0  0  0  0  0
    1.4026   -0.0440    0.0723 C   0  0  0  0  0  0  0  0  0  0  0  0
   -2.1571   -0.1179   -1.4699 C   0  0  0  0  0  0  0  0  0  0  0  0
   -2.1354    0.7858    0.7707 C   0  0  0  0  0  0  0  0  0  0  0  0
    1.5905    2.1961    1.0987 C   0  0  0  0  0  0  0  0  0  0  0  0
   -3.2120   -0.9606   -1.1198 C   0  0  0  0  0  0  0  0  0  0  0  0
   -3.1903   -0.0570    1.1207 C   0  0  0  0  0  0  0  0  0  0  0  0
    1.1948   -2.1770    0.7863 C   0  0  0  0  0  0  0  0  0  0  0  0
    2.8048   -1.5856   -0.7994 C   0  0  0  0  0  0  0  0  0  0  0  0
   -3.7286   -0.9303    0.1754 C   0  0  0  0  0  0  0  0  0  0  0  0
    2.2268   -2.5797   -0.0367 C   0  0  0  0  0  0  0  0  0  0  0  0
    2.6698    1.6129    1.9769 C   0  0  0  0  0  0  0  0  0  0  0  0
    0.5078   -3.1814    1.6491 C   0  0  0  0  0  0  0  0  0  0  0  0
    3.9286   -1.9248   -1.7201 C   0  0  0  0  0  0  0  0  0  0  0  0
   -1.7753   -0.1619   -2.4855 H   0  0  0  0  0  0  0  0  0  0  0  0
   -1.7272    1.4612    1.5178 H   0  0  0  0  0  0  0  0  0  0  0  0
   -3.6228   -1.6369   -1.8652 H   0  0  0  0  0  0  0  0  0  0  0  0
   -3.5838   -0.0244    2.1334 H   0  0  0  0  0  0  0  0  0  0  0  0
    2.5614   -3.6090   -0.0809 H   0  0  0  0  0  0  0  0  0  0  0  0
    2.2682    0.7987    2.5851 H   0  0  0  0  0  0  0  0  0  0  0  0
    3.0423    2.3880    2.6539 H   0  0  0  0  0  0  0  0  0  0  0  0
    3.5078    1.2622    1.3694 H   0  0  0  0  0  0  0  0  0  0  0  0
   -0.2899   -2.7145    2.2365 H   0  0  0  0  0  0  0  0  0  0  0  0
    0.0573   -3.9670    1.0343 H   0  0  0  0  0  0  0  0  0  0  0  0
    1.2193   -3.6353    2.3461 H   0  0  0  0  0  0  0  0  0  0  0  0
    3.6034   -2.6594   -2.4636 H   0  0  0  0  0  0  0  0  0  0  0  0
    4.2805   -1.0364   -2.2550 H   0  0  0  0  0  0  0  0  0  0  0  0
    4.7722   -2.3354   -1.1562 H   0  0  0  0  0  0  0  0  0  0  0  0
   -5.1861   -2.4157   -0.1551 H   0  0  0  0  0  0  0  0  0  0  0  0
   -5.1701   -1.7606    1.4688 H   0  0  0  0  0  0  0  0  0  0  0  0
  1  2  2  0  0  0  0
  1  3  2  0  0  0  0
  1  5  1  0  0  0  0
  1  9  1  0  0  0  0
  4 13  2  0  0  0  0
  5 10  1  0  0  0  0
  5 13  1  0  0  0  0
  6 10  1  0  0  0  0
  6 16  2  0  0  0  0
  7 10  2  0  0  0  0
  7 17  1  0  0  0  0
  8 18  1  0  0  0  0
  8 37  1  0  0  0  0
  8 38  1  0  0  0  0
  9 11  2  0  0  0  0
  9 12  1  0  0  0  0
 11 14  1  0  0  0  0
 11 23  1  0  0  0  0
 12 15  2  0  0  0  0
 12 24  1  0  0  0  0
 13 20  1  0  0  0  0
 14 18  2  0  0  0  0
 14 25  1  0  0  0  0
 15 18  1  0  0  0  0
 15 26  1  0  0  0  0
 16 19  1  0  0  0  0
 16 21  1  0  0  0  0
 17 19  2  0  0  0  0
 17 22  1  0  0  0  0
 19 27  1  0  0  0  0
 20 28  1  0  0  0  0
 20 29  1  0  0  0  0
 20 30  1  0  0  0  0
 21 31  1  0  0  0  0
 21 32  1  0  0  0  0
 21 33  1  0  0  0  0
 22 34  1  0  0  0  0
 22 35  1  0  0  0  0
 22 36  1  0  0  0  0
M  END
> <PUBCHEM_COMPOUND_CID>
108015

> <PUBCHEM_CONFORMER_RMSD>
0.6

> <PUBCHEM_CONFORMER_DIVERSEORDER>
1
34
23
20
38
39
32
41
35
21
4
51
10
33
44
22
43
17
12
52
37
19
26
29
14
46
31
7
47
16
24
49
5
11
40
30
8
15
6
42
9
2
50
3
13
18
48
28
45
25
36
27

> <PUBCHEM_MMFF94_PARTIAL_CHARGES>
29
1 1.45
10 0.82
11 -0.15
12 -0.15
13 0.75
14 -0.15
15 -0.15
16 0.17
17 0.17
18 0.1
19 -0.15
2 -0.65
20 0.06
21 0.14
22 0.14
23 0.15
24 0.15
25 0.15
26 0.15
27 0.15
3 -0.65
37 0.4
38 0.4
4 -0.57
5 -0.57
6 -0.62
7 -0.62
8 -0.9
9 -0.01

> <PUBCHEM_EFFECTIVE_ROTOR_COUNT>
4

> <PUBCHEM_PHARMACOPHORE_FEATURES>
8
1 2 acceptor
1 3 acceptor
1 4 acceptor
1 6 acceptor
1 8 cation
1 8 donor
6 6 7 10 16 17 19 rings
6 9 11 12 14 15 18 rings

> <PUBCHEM_HEAVY_ATOM_COUNT>
22

> <PUBCHEM_ATOM_DEF_STEREO_COUNT>
0

> <PUBCHEM_ATOM_UDEF_STEREO_COUNT>
0

> <PUBCHEM_BOND_DEF_STEREO_COUNT>
0

> <PUBCHEM_BOND_UDEF_STEREO_COUNT>
0

> <PUBCHEM_ISOTOPIC_ATOM_COUNT>
0

> <PUBCHEM_COMPONENT_COUNT>
1

> <PUBCHEM_CACTVS_TAUTO_COUNT>
1

> <PUBCHEM_CONFORMER_ID>
0001A5EF00000001

> <PUBCHEM_MMFF94_ENERGY>
65.1577

> <PUBCHEM_FEATURE_SELFOVERLAP>
40.62

> <PUBCHEM_SHAPE_FINGERPRINT>
114674 6 18335135449073125595
11578080 2 18337665317580279565
12035758 1 18268138950407943840
12553582 1 18268709398862833083
12596599 1 18130508543957233707
12714826 92 18123194502303684772
12788726 201 17264402137920873088
13533116 47 18270970163011762939
14115302 16 17397816887551267356
14178342 30 18260254262162212233
14787075 74 18412269432904414782
14863182 85 18120941865087551087
16945 1 17986945435108880204
17492 54 16952281877994886438
18981168 100 8933572228134655605
20645476 183 17109599670952588516
20645477 70 18199446892569029623
21731516 1 18268984302428642311
2748010 2 18261937597046850949
5845 1 11215640450540429728
6287921 2 18128819835677799311
6443956 14 18334013917432514997
70251023 43 18200863007590055143
7097593 13 17846501452155042697
7364860 26 18130506430569008282
81228 2 17823962447454991333

> <PUBCHEM_SHAPE_MULTIPOLES>
419.07
6.12
3.7
1.83
3.7
1.05
0.2
-4.33
0.59
-1.88
-1.16
-0.71
0.2
1.36

> <PUBCHEM_SHAPE_SELFOVERLAP>
873.072

> <PUBCHEM_SHAPE_VOLUME>
238.8

> <PUBCHEM_COORDINATE_TYPE>
2
5
10

$$$$
