10809528
  -OEChem-03292013303D

 48 51  0     1  0  0  0  0  0999 V2000
   -1.4226   -1.9362   -2.4780 O   0  0  0  0  0  0  0  0  0  0  0  0
    3.1308   -1.8475   -0.4904 O   0  0  0  0  0  0  0  0  0  0  0  0
   -0.9995   -4.0938    2.3072 O   0  0  0  0  0  0  0  0  0  0  0  0
    1.2627   -0.4415   -0.5830 N   0  0  0  0  0  0  0  0  0  0  0  0
   -1.1529    0.2023   -1.7007 N   0  0  0  0  0  0  0  0  0  0  0  0
    1.4911    1.8639   -0.0488 N   0  0  0  0  0  0  0  0  0  0  0  0
   -1.8451   -5.6101    0.7996 N   0  0  0  0  0  0  0  0  0  0  0  0
    0.3621   -1.5553   -0.9095 C   0  0  1  0  0  0  0  0  0  0  0  0
   -0.7115    1.0635   -0.6288 C   0  0  2  0  0  0  0  0  0  0  0  0
    0.7702    0.8453   -0.4008 C   0  0  0  0  0  0  0  0  0  0  0  0
   -0.0763   -2.3387    0.3228 C   0  0  0  0  0  0  0  0  0  0  0  0
   -0.8032   -1.1259   -1.7887 C   0  0  0  0  0  0  0  0  0  0  0  0
   -1.5564    0.9444    0.6283 C   0  0  0  0  0  0  0  0  0  0  0  0
    2.6211   -0.7355   -0.3841 C   0  0  0  0  0  0  0  0  0  0  0  0
   -0.7838   -3.6319   -0.0642 C   0  0  0  0  0  0  0  0  0  0  0  0
    3.4664    0.4162   -0.0045 C   0  0  0  0  0  0  0  0  0  0  0  0
    2.8637    1.6672    0.1513 C   0  0  0  0  0  0  0  0  0  0  0  0
   -2.8798    1.6504    0.4849 C   0  0  0  0  0  0  0  0  0  0  0  0
    4.8408    0.2526    0.2008 C   0  0  0  0  0  0  0  0  0  0  0  0
    3.6588    2.7594    0.5168 C   0  0  0  0  0  0  0  0  0  0  0  0
   -1.2048   -4.4398    1.1476 C   0  0  0  0  0  0  0  0  0  0  0  0
   -2.9839    2.9851    0.8491 C   0  0  0  0  0  0  0  0  0  0  0  0
   -3.9741    0.9553   -0.0090 C   0  0  0  0  0  0  0  0  0  0  0  0
    5.6202    1.3498    0.5640 C   0  0  0  0  0  0  0  0  0  0  0  0
    5.0304    2.6021    0.7222 C   0  0  0  0  0  0  0  0  0  0  0  0
   -4.2088    3.6388    0.7164 C   0  0  0  0  0  0  0  0  0  0  0  0
   -5.1991    1.6091   -0.1416 C   0  0  0  0  0  0  0  0  0  0  0  0
   -5.3166    2.9509    0.2210 C   0  0  0  0  0  0  0  0  0  0  0  0
    0.9492   -2.2355   -1.5433 H   0  0  0  0  0  0  0  0  0  0  0  0
   -0.8057    2.0833   -1.0280 H   0  0  0  0  0  0  0  0  0  0  0  0
   -0.7172   -1.7529    0.9807 H   0  0  0  0  0  0  0  0  0  0  0  0
    0.8046   -2.5888    0.9289 H   0  0  0  0  0  0  0  0  0  0  0  0
   -1.9202    0.5253   -2.2824 H   0  0  0  0  0  0  0  0  0  0  0  0
   -1.0201    1.3634    1.4900 H   0  0  0  0  0  0  0  0  0  0  0  0
   -1.7637   -0.0927    0.8944 H   0  0  0  0  0  0  0  0  0  0  0  0
   -0.1309   -4.2561   -0.6853 H   0  0  0  0  0  0  0  0  0  0  0  0
   -1.7013   -3.4269   -0.6244 H   0  0  0  0  0  0  0  0  0  0  0  0
    5.3191   -0.7157    0.0833 H   0  0  0  0  0  0  0  0  0  0  0  0
    3.2128    3.7430    0.6435 H   0  0  0  0  0  0  0  0  0  0  0  0
   -2.1265    3.5303    1.2337 H   0  0  0  0  0  0  0  0  0  0  0  0
   -3.8947   -0.0900   -0.2938 H   0  0  0  0  0  0  0  0  0  0  0  0
    6.6876    1.2283    0.7243 H   0  0  0  0  0  0  0  0  0  0  0  0
    5.6379    3.4567    1.0054 H   0  0  0  0  0  0  0  0  0  0  0  0
   -4.3001    4.6837    0.9982 H   0  0  0  0  0  0  0  0  0  0  0  0
   -6.0616    1.0733   -0.5273 H   0  0  0  0  0  0  0  0  0  0  0  0
   -6.2703    3.4600    0.1175 H   0  0  0  0  0  0  0  0  0  0  0  0
   -2.1825   -6.2511    1.5100 H   0  0  0  0  0  0  0  0  0  0  0  0
   -2.0032   -5.8758   -0.1672 H   0  0  0  0  0  0  0  0  0  0  0  0
  1 12  2  0  0  0  0
  2 14  2  0  0  0  0
  3 21  2  0  0  0  0
  4  8  1  0  0  0  0
  4 10  1  0  0  0  0
  4 14  1  0  0  0  0
  5  9  1  0  0  0  0
  5 12  1  0  0  0  0
  5 33  1  0  0  0  0
  6 10  2  0  0  0  0
  6 17  1  0  0  0  0
  7 21  1  0  0  0  0
  7 47  1  0  0  0  0
  7 48  1  0  0  0  0
  8 11  1  0  0  0  0
  8 12  1  0  0  0  0
  8 29  1  0  0  0  0
  9 10  1  0  0  0  0
  9 13  1  0  0  0  0
  9 30  1  0  0  0  0
 11 15  1  0  0  0  0
 11 31  1  0  0  0  0
 11 32  1  0  0  0  0
 13 18  1  0  0  0  0
 13 34  1  0  0  0  0
 13 35  1  0  0  0  0
 14 16  1  0  0  0  0
 15 21  1  0  0  0  0
 15 36  1  0  0  0  0
 15 37  1  0  0  0  0
 16 17  1  0  0  0  0
 16 19  2  0  0  0  0
 17 20  2  0  0  0  0
 18 22  2  0  0  0  0
 18 23  1  0  0  0  0
 19 24  1  0  0  0  0
 19 38  1  0  0  0  0
 20 25  1  0  0  0  0
 20 39  1  0  0  0  0
 22 26  1  0  0  0  0
 22 40  1  0  0  0  0
 23 27  2  0  0  0  0
 23 41  1  0  0  0  0
 24 25  2  0  0  0  0
 24 42  1  0  0  0  0
 25 43  1  0  0  0  0
 26 28  2  0  0  0  0
 26 44  1  0  0  0  0
 27 28  1  0  0  0  0
 27 45  1  0  0  0  0
 28 46  1  0  0  0  0
M  END
> <PUBCHEM_COMPOUND_CID>
10809528

> <PUBCHEM_CONFORMER_RMSD>
0.8

> <PUBCHEM_CONFORMER_DIVERSEORDER>
1
31
13
23
34
32
21
8
35
22
27
16
9
29
7
38
18
17
4
36
20
33
26
3
19
37
30
10
5
28
11
39
6
15
2
14
12
25
24

> <PUBCHEM_MMFF94_PARTIAL_CHARGES>
39
1 -0.57
10 0.45
12 0.57
13 0.14
14 0.54
15 0.06
16 0.09
17 0.18
18 -0.14
19 -0.15
2 -0.57
20 -0.15
21 0.57
22 -0.15
23 -0.15
24 -0.15
25 -0.15
26 -0.15
27 -0.15
28 -0.15
3 -0.57
33 0.37
38 0.15
39 0.15
4 -0.42
40 0.15
41 0.15
42 0.15
43 0.15
44 0.15
45 0.15
46 0.15
47 0.37
48 0.37
5 -0.73
6 -0.63
7 -0.8
8 0.36
9 0.36

> <PUBCHEM_EFFECTIVE_ROTOR_COUNT>
5.6

> <PUBCHEM_PHARMACOPHORE_FEATURES>
9
1 1 acceptor
1 2 acceptor
1 3 acceptor
1 5 donor
1 7 donor
6 16 17 19 20 24 25 rings
6 18 22 23 26 27 28 rings
6 4 5 8 9 10 12 rings
6 4 6 10 14 16 17 rings

> <PUBCHEM_HEAVY_ATOM_COUNT>
28

> <PUBCHEM_ATOM_DEF_STEREO_COUNT>
2

> <PUBCHEM_ATOM_UDEF_STEREO_COUNT>
0

> <PUBCHEM_BOND_DEF_STEREO_COUNT>
0

> <PUBCHEM_BOND_UDEF_STEREO_COUNT>
0

> <PUBCHEM_ISOTOPIC_ATOM_COUNT>
0

> <PUBCHEM_COMPONENT_COUNT>
1

> <PUBCHEM_CACTVS_TAUTO_COUNT>
4

> <PUBCHEM_CONFORMER_ID>
00A4F0B800000001

> <PUBCHEM_MMFF94_ENERGY>
89.1204

> <PUBCHEM_FEATURE_SELFOVERLAP>
45.734

> <PUBCHEM_SHAPE_FINGERPRINT>
10074138 170 18194097811159649456
10090160 65 18341609257684213949
1100329 8 18267018358864900738
11115154 58 17481675944034338943
12160290 23 17913797138679511429
12293681 4 18122621923435142431
12788726 201 18196634410302412323
13140716 1 18266458711218492876
13540713 4 18129674131407888308
13590594 115 17625808745802717015
13955234 65 17977674108798684489
14178342 30 18263925626060766188
14790565 3 18201156559677717628
15142526 21 18411698747198149529
15475509 84 17830744518700477027
15629462 23 18055339491174806439
15775530 1 17984736464967644518
15927050 60 18410012109457812442
17980427 26 18194391196101569359
18681886 176 17272276947651821493
20197701 30 18271804588503772757
20739085 24 18117002083123973324
21033648 29 18337654352829673720
21049683 118 18196345135374624513
21796203 349 16898810106907450995
23558518 356 18339920519149578710
23559900 14 17124800467042277133
23845131 108 18335981982868791523
335352 9 18200875081307587532
3380486 145 17046530021978940414
3759504 43 18411418435904550196
376196 1 18130785607780692989
394222 165 18055912096129455211
4058900 60 18266755579448260984
4340502 62 18409735041006102217
474 4 18271525290891014232
5104073 3 18267877086141676081
59755656 520 18335697235147905484
6371380 46 18339367340927672774
7288768 16 18410567396713953708
79837 15 18410016558863732457
9777508 108 18338520840858112202
9981440 41 18059561547195048846
9999458 23 18195812868767792076

> <PUBCHEM_SHAPE_MULTIPOLES>
538.69
10.1
6.13
1.38
2.05
9.24
0.3
-13.66
-2.15
-4.73
-3.35
-0.61
1.34
0.51

> <PUBCHEM_SHAPE_SELFOVERLAP>
1178.565

> <PUBCHEM_SHAPE_VOLUME>
287.5

> <PUBCHEM_COORDINATE_TYPE>
2
5
10

$$$$
