10808610
  -OEChem-03292013303D

 41 44  0     0  0  0  0  0  0999 V2000
    0.3058   -3.2035    0.1392 O   0  0  0  0  0  0  0  0  0  0  0  0
    2.6789   -2.3572    0.1487 O   0  0  0  0  0  0  0  0  0  0  0  0
    1.0729    2.7260   -0.1988 O   0  0  0  0  0  0  0  0  0  0  0  0
    5.1418   -1.6721    0.1621 O   0  0  0  0  0  0  0  0  0  0  0  0
   -3.9409    1.9418    1.0029 O   0  0  0  0  0  0  0  0  0  0  0  0
   -3.9520    1.9864   -1.2986 O   0  0  0  0  0  0  0  0  0  0  0  0
    0.8666   -0.8634    0.0127 C   0  0  0  0  0  0  0  0  0  0  0  0
    0.4487    0.4629   -0.0776 C   0  0  0  0  0  0  0  0  0  0  0  0
   -1.8796   -0.2605   -0.0881 C   0  0  0  0  0  0  0  0  0  0  0  0
   -1.4556   -1.6062    0.0029 C   0  0  0  0  0  0  0  0  0  0  0  0
   -0.0814   -1.8937    0.0525 C   0  0  0  0  0  0  0  0  0  0  0  0
   -0.9184    0.7633   -0.1274 C   0  0  0  0  0  0  0  0  0  0  0  0
   -3.2544    0.0240   -0.1379 C   0  0  0  0  0  0  0  0  0  0  0  0
    3.2958   -0.0991    0.0217 C   0  0  0  0  0  0  0  0  0  0  0  0
    2.8771    1.2297   -0.0697 C   0  0  0  0  0  0  0  0  0  0  0  0
    2.3057   -1.1942    0.0668 C   0  0  0  0  0  0  0  0  0  0  0  0
    1.4383    1.5595   -0.1218 C   0  0  0  0  0  0  0  0  0  0  0  0
   -4.1971   -1.0035   -0.0986 C   0  0  0  0  0  0  0  0  0  0  0  0
   -2.4185   -2.6283    0.0414 C   0  0  0  0  0  0  0  0  0  0  0  0
   -3.7799   -2.3277   -0.0091 C   0  0  0  0  0  0  0  0  0  0  0  0
    4.6624   -0.3989    0.0705 C   0  0  0  0  0  0  0  0  0  0  0  0
    3.8251    2.2591   -0.1126 C   0  0  0  0  0  0  0  0  0  0  0  0
   -5.6637   -0.7193   -0.1523 C   0  0  0  0  0  0  0  0  0  0  0  0
   -3.7444    1.3995   -0.2342 C   0  0  0  0  0  0  0  0  0  0  0  0
    5.6037    0.6299    0.0279 C   0  0  0  0  0  0  0  0  0  0  0  0
    5.1860    1.9561   -0.0635 C   0  0  0  0  0  0  0  0  0  0  0  0
   -4.4227    3.2895    1.0408 C   0  0  0  0  0  0  0  0  0  0  0  0
   -1.2262    1.8041   -0.1978 H   0  0  0  0  0  0  0  0  0  0  0  0
   -2.1502   -3.6778    0.1281 H   0  0  0  0  0  0  0  0  0  0  0  0
   -4.5002   -3.1408    0.0262 H   0  0  0  0  0  0  0  0  0  0  0  0
    3.5251    3.3011   -0.1837 H   0  0  0  0  0  0  0  0  0  0  0  0
   -6.2582   -1.6393   -0.1274 H   0  0  0  0  0  0  0  0  0  0  0  0
   -5.9706   -0.1134    0.7065 H   0  0  0  0  0  0  0  0  0  0  0  0
   -5.9213   -0.1951   -1.0785 H   0  0  0  0  0  0  0  0  0  0  0  0
    6.6665    0.4054    0.0659 H   0  0  0  0  0  0  0  0  0  0  0  0
    5.9209    2.7553   -0.0966 H   0  0  0  0  0  0  0  0  0  0  0  0
   -0.2481   -3.7421   -0.4496 H   0  0  0  0  0  0  0  0  0  0  0  0
    4.4158   -2.3127    0.1870 H   0  0  0  0  0  0  0  0  0  0  0  0
   -3.7054    3.9600    0.5583 H   0  0  0  0  0  0  0  0  0  0  0  0
   -4.5302    3.5832    2.0882 H   0  0  0  0  0  0  0  0  0  0  0  0
   -5.4006    3.3541    0.5543 H   0  0  0  0  0  0  0  0  0  0  0  0
  1 11  1  0  0  0  0
  1 37  1  0  0  0  0
  2 16  2  0  0  0  0
  3 17  2  0  0  0  0
  4 21  1  0  0  0  0
  4 38  1  0  0  0  0
  5 24  1  0  0  0  0
  5 27  1  0  0  0  0
  6 24  2  0  0  0  0
  7  8  2  0  0  0  0
  7 11  1  0  0  0  0
  7 16  1  0  0  0  0
  8 12  1  0  0  0  0
  8 17  1  0  0  0  0
  9 10  1  0  0  0  0
  9 12  2  0  0  0  0
  9 13  1  0  0  0  0
 10 11  2  0  0  0  0
 10 19  1  0  0  0  0
 12 28  1  0  0  0  0
 13 18  2  0  0  0  0
 13 24  1  0  0  0  0
 14 15  2  0  0  0  0
 14 16  1  0  0  0  0
 14 21  1  0  0  0  0
 15 17  1  0  0  0  0
 15 22  1  0  0  0  0
 18 20  1  0  0  0  0
 18 23  1  0  0  0  0
 19 20  2  0  0  0  0
 19 29  1  0  0  0  0
 20 30  1  0  0  0  0
 21 25  2  0  0  0  0
 22 26  2  0  0  0  0
 22 31  1  0  0  0  0
 23 32  1  0  0  0  0
 23 33  1  0  0  0  0
 23 34  1  0  0  0  0
 25 26  1  0  0  0  0
 25 35  1  0  0  0  0
 26 36  1  0  0  0  0
 27 39  1  0  0  0  0
 27 40  1  0  0  0  0
 27 41  1  0  0  0  0
M  END
> <PUBCHEM_COMPOUND_CID>
10808610

> <PUBCHEM_CONFORMER_RMSD>
0.6

> <PUBCHEM_CONFORMER_DIVERSEORDER>
1
2

> <PUBCHEM_MMFF94_PARTIAL_CHARGES>
33
1 -0.53
11 0.08
12 -0.15
13 0.09
14 0.09
15 0.09
16 0.4
17 0.4
18 -0.14
19 -0.15
2 -0.57
20 -0.15
21 0.08
22 -0.15
23 0.14
24 0.63
25 -0.15
26 -0.15
27 0.28
28 0.15
29 0.15
3 -0.57
30 0.15
31 0.15
35 0.15
36 0.15
37 0.45
38 0.45
4 -0.53
5 -0.43
6 -0.57
7 0.09
8 0.09

> <PUBCHEM_EFFECTIVE_ROTOR_COUNT>
2

> <PUBCHEM_PHARMACOPHORE_FEATURES>
9
1 1 donor
1 2 acceptor
1 3 acceptor
1 4 donor
1 6 acceptor
6 14 15 21 22 25 26 rings
6 7 8 14 15 16 17 rings
6 7 8 9 10 11 12 rings
6 9 10 13 18 19 20 rings

> <PUBCHEM_HEAVY_ATOM_COUNT>
27

> <PUBCHEM_ATOM_DEF_STEREO_COUNT>
0

> <PUBCHEM_ATOM_UDEF_STEREO_COUNT>
0

> <PUBCHEM_BOND_DEF_STEREO_COUNT>
0

> <PUBCHEM_BOND_UDEF_STEREO_COUNT>
0

> <PUBCHEM_ISOTOPIC_ATOM_COUNT>
0

> <PUBCHEM_COMPONENT_COUNT>
1

> <PUBCHEM_CACTVS_TAUTO_COUNT>
29

> <PUBCHEM_CONFORMER_ID>
00A4ED2200000001

> <PUBCHEM_MMFF94_ENERGY>
99.6251

> <PUBCHEM_FEATURE_SELFOVERLAP>
45.739

> <PUBCHEM_SHAPE_FINGERPRINT>
10411042 1 17401206071635744763
10595046 47 18339079405797441598
1100329 8 18122627158461783898
12107183 9 18122060897273103098
12236239 1 17988926695175105551
12390115 104 18342190942157925201
12403259 226 18124310760341295961
12403260 363 18338795718933633639
13073987 5 18411136952617252640
13140716 1 18336550408546825723
14341114 176 18335987557688615499
14466204 15 18409722967863485448
14790565 3 18409453613411233740
15196674 1 18409728478369666990
15256400 18 18410292549019454204
1601671 61 18409729539311082580
17844677 252 18411707603420486272
1813 80 16877940559835634004
19591789 44 18408882953774965470
21033648 29 17560786749875089842
21236236 1 18411136944058836469
21267235 1 18410018757671021558
21279426 13 18339925922677301502
21421861 104 17897158019095172674
23559900 14 18267575995801079297
283562 15 18337106882433674971
3004659 81 18260547827883122662
335352 9 18337953390411967414
34797466 226 17203336666874266508
350125 39 18338518642214567009
3633792 109 18335126572076818773
3680242 22 18189330187434933730
4073 2 17968943118806457082
4214541 1 18410011056752247509
460360 51 18265355982871403674
5104073 3 18408038511807305448
543358 83 18410294671181541970
59755656 215 18409165536879612543
9709674 26 18264492952037814090

> <PUBCHEM_SHAPE_MULTIPOLES>
520.43
12.07
3.49
0.72
3.45
0.46
0
3.46
0.23
-1.93
0.43
-0.47
0.3
-0.66

> <PUBCHEM_SHAPE_SELFOVERLAP>
1186.801

> <PUBCHEM_SHAPE_VOLUME>
270.5

> <PUBCHEM_COORDINATE_TYPE>
2
5
10

$$$$
