10807972
  -OEChem-03292013303D

 45 48  0     1  0  0  0  0  0999 V2000
    4.7920    0.7615    0.9033 O   0  0  0  0  0  0  0  0  0  0  0  0
    1.5533    1.7419    0.5863 O   0  0  0  0  0  0  0  0  0  0  0  0
    5.7991   -0.6652   -0.5721 O   0  0  0  0  0  0  0  0  0  0  0  0
    0.0253    0.8900    2.0160 O   0  0  0  0  0  0  0  0  0  0  0  0
   -3.2700    0.5389    0.2139 O   0  0  0  0  0  0  0  0  0  0  0  0
    0.2348   -1.6326    1.0810 N   0  0  0  0  0  0  0  0  0  0  0  0
    2.4856   -1.0334    0.4938 C   0  0  2  0  0  0  0  0  0  0  0  0
    3.4380   -0.5232   -0.5236 C   0  0  2  0  0  0  0  0  0  0  0  0
    3.0273   -1.9665   -0.5251 C   0  0  0  0  0  0  0  0  0  0  0  0
    1.0293   -0.6195    0.3791 C   0  0  1  0  0  0  0  0  0  0  0  0
    0.6030   -0.4786   -1.0985 C   0  0  0  0  0  0  0  0  0  0  0  0
    4.7965   -0.1664   -0.0837 C   0  0  0  0  0  0  0  0  0  0  0  0
   -0.8765   -0.1379   -1.3199 C   0  0  0  0  0  0  0  0  0  0  0  0
    0.7985    0.7258    1.0787 C   0  0  0  0  0  0  0  0  0  0  0  0
   -1.7601   -1.1690   -0.6579 C   0  0  0  0  0  0  0  0  0  0  0  0
   -1.1780    1.2551   -0.8190 C   0  0  0  0  0  0  0  0  0  0  0  0
   -2.9029   -0.7755    0.0468 C   0  0  0  0  0  0  0  0  0  0  0  0
   -2.3531    1.5125   -0.1048 C   0  0  0  0  0  0  0  0  0  0  0  0
   -1.4594   -2.5361   -0.7522 C   0  0  0  0  0  0  0  0  0  0  0  0
   -0.2950    2.3146   -1.0752 C   0  0  0  0  0  0  0  0  0  0  0  0
   -3.7432   -1.7297    0.6274 C   0  0  0  0  0  0  0  0  0  0  0  0
   -2.6529    2.8077    0.3268 C   0  0  0  0  0  0  0  0  0  0  0  0
   -2.2937   -3.4883   -0.1652 C   0  0  0  0  0  0  0  0  0  0  0  0
   -0.5904    3.6063   -0.6374 C   0  0  0  0  0  0  0  0  0  0  0  0
   -3.4370   -3.0852    0.5211 C   0  0  0  0  0  0  0  0  0  0  0  0
   -1.7705    3.8529    0.0603 C   0  0  0  0  0  0  0  0  0  0  0  0
    2.8242   -1.1478    1.5174 H   0  0  0  0  0  0  0  0  0  0  0  0
    3.1265    0.0512   -1.3822 H   0  0  0  0  0  0  0  0  0  0  0  0
    2.4631   -2.3406   -1.3642 H   0  0  0  0  0  0  0  0  0  0  0  0
    3.7470   -2.7044   -0.1799 H   0  0  0  0  0  0  0  0  0  0  0  0
    1.2054    0.2614   -1.6278 H   0  0  0  0  0  0  0  0  0  0  0  0
    0.7909   -1.3991   -1.6564 H   0  0  0  0  0  0  0  0  0  0  0  0
   -1.0959   -0.1533   -2.3962 H   0  0  0  0  0  0  0  0  0  0  0  0
    0.4399   -1.6016    2.0798 H   0  0  0  0  0  0  0  0  0  0  0  0
    0.5224   -2.5632    0.7774 H   0  0  0  0  0  0  0  0  0  0  0  0
    5.7002    0.9947    1.1915 H   0  0  0  0  0  0  0  0  0  0  0  0
    1.4311    2.5691    1.0996 H   0  0  0  0  0  0  0  0  0  0  0  0
   -0.6134   -2.9014   -1.3269 H   0  0  0  0  0  0  0  0  0  0  0  0
    0.5908    2.1913   -1.6912 H   0  0  0  0  0  0  0  0  0  0  0  0
   -4.6339   -1.4225    1.1691 H   0  0  0  0  0  0  0  0  0  0  0  0
   -3.5693    3.0069    0.8760 H   0  0  0  0  0  0  0  0  0  0  0  0
   -2.0598   -4.5450   -0.2565 H   0  0  0  0  0  0  0  0  0  0  0  0
    0.0897    4.4236   -0.8595 H   0  0  0  0  0  0  0  0  0  0  0  0
   -4.0891   -3.8266    0.9734 H   0  0  0  0  0  0  0  0  0  0  0  0
   -2.0035    4.8594    0.3952 H   0  0  0  0  0  0  0  0  0  0  0  0
  1 12  1  0  0  0  0
  1 36  1  0  0  0  0
  2 14  1  0  0  0  0
  2 37  1  0  0  0  0
  3 12  2  0  0  0  0
  4 14  2  0  0  0  0
  5 17  1  0  0  0  0
  5 18  1  0  0  0  0
  6 10  1  0  0  0  0
  6 34  1  0  0  0  0
  6 35  1  0  0  0  0
  7  8  1  0  0  0  0
  7  9  1  0  0  0  0
  7 10  1  0  0  0  0
  7 27  1  0  0  0  0
  8  9  1  0  0  0  0
  8 12  1  0  0  0  0
  8 28  1  0  0  0  0
  9 29  1  0  0  0  0
  9 30  1  0  0  0  0
 10 11  1  0  0  0  0
 10 14  1  0  0  0  0
 11 13  1  0  0  0  0
 11 31  1  0  0  0  0
 11 32  1  0  0  0  0
 13 15  1  0  0  0  0
 13 16  1  0  0  0  0
 13 33  1  0  0  0  0
 15 17  1  0  0  0  0
 15 19  2  0  0  0  0
 16 18  1  0  0  0  0
 16 20  2  0  0  0  0
 17 21  2  0  0  0  0
 18 22  2  0  0  0  0
 19 23  1  0  0  0  0
 19 38  1  0  0  0  0
 20 24  1  0  0  0  0
 20 39  1  0  0  0  0
 21 25  1  0  0  0  0
 21 40  1  0  0  0  0
 22 26  1  0  0  0  0
 22 41  1  0  0  0  0
 23 25  2  0  0  0  0
 23 42  1  0  0  0  0
 24 26  2  0  0  0  0
 24 43  1  0  0  0  0
 25 44  1  0  0  0  0
 26 45  1  0  0  0  0
M  END
> <PUBCHEM_COMPOUND_CID>
10807972

> <PUBCHEM_CONFORMER_RMSD>
0.8

> <PUBCHEM_CONFORMER_DIVERSEORDER>
2
4
1
3

> <PUBCHEM_MMFF94_PARTIAL_CHARGES>
41
1 -0.65
10 0.43
12 0.72
13 0.29
14 0.66
15 -0.14
16 -0.14
17 0.08
18 0.08
19 -0.15
2 -0.65
20 -0.15
21 -0.15
22 -0.15
23 -0.15
24 -0.15
25 -0.15
26 -0.15
27 0.1
28 0.1
29 0.1
3 -0.57
30 0.1
34 0.36
35 0.36
36 0.5
37 0.5
38 0.15
39 0.15
4 -0.57
40 0.15
41 0.15
42 0.15
43 0.15
44 0.15
45 0.15
5 -0.17
6 -0.99
7 -0.19
8 -0.1
9 -0.2

> <PUBCHEM_EFFECTIVE_ROTOR_COUNT>
6

> <PUBCHEM_PHARMACOPHORE_FEATURES>
12
1 1 acceptor
1 2 acceptor
1 3 acceptor
1 4 acceptor
1 5 acceptor
1 6 cation
1 6 donor
3 1 3 12 anion
3 2 4 14 anion
6 15 17 19 21 23 25 rings
6 16 18 20 22 24 26 rings
6 5 13 15 16 17 18 rings

> <PUBCHEM_HEAVY_ATOM_COUNT>
26

> <PUBCHEM_ATOM_DEF_STEREO_COUNT>
3

> <PUBCHEM_ATOM_UDEF_STEREO_COUNT>
0

> <PUBCHEM_BOND_DEF_STEREO_COUNT>
0

> <PUBCHEM_BOND_UDEF_STEREO_COUNT>
0

> <PUBCHEM_ISOTOPIC_ATOM_COUNT>
0

> <PUBCHEM_COMPONENT_COUNT>
1

> <PUBCHEM_CACTVS_TAUTO_COUNT>
1

> <PUBCHEM_CONFORMER_ID>
00A4EAA400000002

> <PUBCHEM_MMFF94_ENERGY>
104.249

> <PUBCHEM_FEATURE_SELFOVERLAP>
61.068

> <PUBCHEM_SHAPE_FINGERPRINT>
10006869 2 18191297188073040659
10319926 262 18268131103814235554
10411042 1 18266179628713419039
10863032 1 18194120720340846356
10948715 1 17905610995284824809
1100329 8 18335988653164031229
11578080 2 16844138299395336954
12011746 2 18340760473519817877
12054548 360 18410006663116566386
121448 382 17530958086209168090
12173636 292 18121776132209207132
12553582 1 18336535127116892643
12788726 201 18260545614962336722
13140716 1 18338804523753779349
138480 1 16032390442661225517
14081887 123 18410001139862450914
14713325 29 18410859824205617094
14787075 74 17896605187731187798
14790565 3 18051697637753676233
15230672 131 17832153719473678654
16945 1 18339066099725046991
1813 80 17970618808401460030
19591789 44 17906453225512834471
19930381 70 17833267902028605548
20510252 161 18270118985706972981
20600515 1 18199487570315046349
21041028 32 18265058109804281583
23227448 37 18411419484383050844
23493267 7 18198337360645511786
23557571 272 18342746195761885638
23559900 14 18051121794825143655
238 59 16746459572064653973
2748010 2 18196348507155910109
392239 28 18261954167125715632
4058900 60 17477499607370910304
5104073 3 18340196402944215434
6287921 2 17694775620500751448
70251023 43 17700948141382629679
7364860 26 17760651769068499927
7399639 24 18200301256269956602
81228 2 18267277925112532103

> <PUBCHEM_SHAPE_MULTIPOLES>
500.74
7.37
4.3
1.17
10.86
1.88
0.14
-3.21
0.51
-4.83
-0.22
0.1
0.11
0.47

> <PUBCHEM_SHAPE_SELFOVERLAP>
1115.723

> <PUBCHEM_SHAPE_VOLUME>
263.2

> <PUBCHEM_COORDINATE_TYPE>
2
5
10

$$$$
