108014
  -OEChem-03292013323D

 39 43  0     1  0  0  0  0  0999 V2000
    4.8434   -0.9370   -0.8051 O   0  0  0  0  0  0  0  0  0  0  0  0
    3.1585   -1.9034    0.5785 O   0  0  0  0  0  0  0  0  0  0  0  0
    3.7893    1.0031    1.9481 O   0  0  0  0  0  0  0  0  0  0  0  0
    3.6085    0.1665   -2.4865 O   0  0  0  0  0  0  0  0  0  0  0  0
    1.2478    2.3467    0.3937 O   0  0  0  0  0  0  0  0  0  0  0  0
   -1.2812    2.5208    0.1065 O   0  0  0  0  0  0  0  0  0  0  0  0
   -1.8536   -2.7952    0.0844 O   0  0  0  0  0  0  0  0  0  0  0  0
   -3.8018    2.8783   -0.1558 O   0  0  0  0  0  0  0  0  0  0  0  0
   -4.3882   -2.6059   -0.1760 O   0  0  0  0  0  0  0  0  0  0  0  0
    3.5739    0.5003    0.6435 C   0  0  2  0  0  0  0  0  0  0  0  0
    4.1930   -0.8939    0.4783 C   0  0  2  0  0  0  0  0  0  0  0  0
    4.2485    1.3262   -0.4327 C   0  0  0  0  0  0  0  0  0  0  0  0
    2.1398    0.1636    0.4695 C   0  0  0  0  0  0  0  0  0  0  0  0
    4.6172    0.3003   -1.4920 C   0  0  1  0  0  0  0  0  0  0  0  0
    1.9820   -1.2118    0.4593 C   0  0  0  0  0  0  0  0  0  0  0  0
    1.0438    1.0025    0.3555 C   0  0  0  0  0  0  0  0  0  0  0  0
   -0.2278    0.4248    0.2269 C   0  0  0  0  0  0  0  0  0  0  0  0
    0.7404   -1.8075    0.3423 C   0  0  0  0  0  0  0  0  0  0  0  0
   -0.3784   -0.9727    0.2215 C   0  0  0  0  0  0  0  0  0  0  0  0
   -1.4095    1.3027    0.1011 C   0  0  0  0  0  0  0  0  0  0  0  0
   -1.7198   -1.5777    0.0890 C   0  0  0  0  0  0  0  0  0  0  0  0
   -2.7479    0.6926   -0.0321 C   0  0  0  0  0  0  0  0  0  0  0  0
   -2.8974   -0.6955   -0.0377 C   0  0  0  0  0  0  0  0  0  0  0  0
   -3.8736    1.5165   -0.1531 C   0  0  0  0  0  0  0  0  0  0  0  0
   -4.1727   -1.2596   -0.1642 C   0  0  0  0  0  0  0  0  0  0  0  0
   -5.1424    0.9502   -0.2788 C   0  0  0  0  0  0  0  0  0  0  0  0
   -5.2917   -0.4351   -0.2843 C   0  0  0  0  0  0  0  0  0  0  0  0
    4.9478   -1.1118    1.2424 H   0  0  0  0  0  0  0  0  0  0  0  0
    5.1684    1.7663   -0.0270 H   0  0  0  0  0  0  0  0  0  0  0  0
    3.6383    2.1419   -0.8299 H   0  0  0  0  0  0  0  0  0  0  0  0
    5.5398    0.5805   -2.0089 H   0  0  0  0  0  0  0  0  0  0  0  0
    4.0389    1.9402    1.8849 H   0  0  0  0  0  0  0  0  0  0  0  0
    0.6541   -2.8890    0.3408 H   0  0  0  0  0  0  0  0  0  0  0  0
    2.7498    0.3988   -2.0982 H   0  0  0  0  0  0  0  0  0  0  0  0
    2.1454    2.5390    0.7101 H   0  0  0  0  0  0  0  0  0  0  0  0
   -6.0208    1.5834   -0.3731 H   0  0  0  0  0  0  0  0  0  0  0  0
   -6.2847   -0.8660   -0.3826 H   0  0  0  0  0  0  0  0  0  0  0  0
   -2.8840    3.1751   -0.0672 H   0  0  0  0  0  0  0  0  0  0  0  0
   -3.5544   -3.0907   -0.0876 H   0  0  0  0  0  0  0  0  0  0  0  0
  1 11  1  0  0  0  0
  1 14  1  0  0  0  0
  2 11  1  0  0  0  0
  2 15  1  0  0  0  0
  3 10  1  0  0  0  0
  3 32  1  0  0  0  0
  4 14  1  0  0  0  0
  4 34  1  0  0  0  0
  5 16  1  0  0  0  0
  5 35  1  0  0  0  0
  6 20  2  0  0  0  0
  7 21  2  0  0  0  0
  8 24  1  0  0  0  0
  8 38  1  0  0  0  0
  9 25  1  0  0  0  0
  9 39  1  0  0  0  0
 10 11  1  0  0  0  0
 10 12  1  0  0  0  0
 10 13  1  0  0  0  0
 11 28  1  0  0  0  0
 12 14  1  0  0  0  0
 12 29  1  0  0  0  0
 12 30  1  0  0  0  0
 13 15  2  0  0  0  0
 13 16  1  0  0  0  0
 14 31  1  0  0  0  0
 15 18  1  0  0  0  0
 16 17  2  0  0  0  0
 17 19  1  0  0  0  0
 17 20  1  0  0  0  0
 18 19  2  0  0  0  0
 18 33  1  0  0  0  0
 19 21  1  0  0  0  0
 20 22  1  0  0  0  0
 21 23  1  0  0  0  0
 22 23  1  0  0  0  0
 22 24  2  0  0  0  0
 23 25  2  0  0  0  0
 24 26  1  0  0  0  0
 25 27  1  0  0  0  0
 26 27  2  0  0  0  0
 26 36  1  0  0  0  0
 27 37  1  0  0  0  0
M  END
> <PUBCHEM_COMPOUND_CID>
108014

> <PUBCHEM_CONFORMER_RMSD>
0.6

> <PUBCHEM_CONFORMER_DIVERSEORDER>
1

> <PUBCHEM_MMFF94_PARTIAL_CHARGES>
34
1 -0.56
10 0.42
11 0.56
13 -0.14
14 0.56
15 0.08
16 0.08
17 0.09
18 -0.15
19 0.09
2 -0.36
20 0.4
21 0.4
22 0.09
23 0.09
24 0.08
25 0.08
26 -0.15
27 -0.15
3 -0.68
32 0.4
33 0.15
34 0.4
35 0.45
36 0.15
37 0.15
38 0.45
39 0.45
4 -0.68
5 -0.53
6 -0.57
7 -0.57
8 -0.53
9 -0.53

> <PUBCHEM_EFFECTIVE_ROTOR_COUNT>
0.8

> <PUBCHEM_PHARMACOPHORE_FEATURES>
16
1 1 acceptor
1 2 acceptor
1 3 acceptor
1 3 donor
1 4 acceptor
1 4 donor
1 5 donor
1 6 acceptor
1 7 acceptor
1 8 donor
1 9 donor
5 1 10 11 12 14 rings
5 2 10 11 13 15 rings
6 13 15 16 17 18 19 rings
6 17 19 20 21 22 23 rings
6 22 23 24 25 26 27 rings

> <PUBCHEM_HEAVY_ATOM_COUNT>
27

> <PUBCHEM_ATOM_DEF_STEREO_COUNT>
3

> <PUBCHEM_ATOM_UDEF_STEREO_COUNT>
0

> <PUBCHEM_BOND_DEF_STEREO_COUNT>
0

> <PUBCHEM_BOND_UDEF_STEREO_COUNT>
0

> <PUBCHEM_ISOTOPIC_ATOM_COUNT>
0

> <PUBCHEM_COMPONENT_COUNT>
1

> <PUBCHEM_CACTVS_TAUTO_COUNT>
67

> <PUBCHEM_CONFORMER_ID>
0001A5EE00000001

> <PUBCHEM_MMFF94_ENERGY>
92.2114

> <PUBCHEM_FEATURE_SELFOVERLAP>
81.975

> <PUBCHEM_SHAPE_FINGERPRINT>
10498660 4 18409730655622868828
10616163 171 18411417302249416363
10670039 82 18261119543284637964
10759866 29 18186803539278038578
10906281 52 18340497651992320309
10967382 1 18338792317372412731
1100329 8 17116915817123664747
11578080 2 16914798491453463891
12107183 9 17686048397374009203
12236239 1 17748826319262995766
12390115 104 18129109914312852089
12403814 3 17385437705251329309
12788726 201 18059017168305903585
12954195 1 18058183730107504716
13140716 1 18048866691531995299
13224815 77 18334856116957410994
13583140 156 13901899042272567871
14528608 73 18334296482855957412
14790565 3 18051981316449419649
15196674 1 18410570686674655259
1601671 61 18335138695930750772
16752209 62 18409448093898041722
17349148 13 17967531272360554480
17844677 252 18342741823105779273
18681886 176 18409165545981236784
19591789 44 18410852192027470731
20645477 70 16845297142170701398
20715895 44 17682664130912814389
21033648 29 17489008427558985795
21033650 10 18119273717159616660
21267235 1 18410859893368224939
21279426 13 18268991994619922663
21857420 4 15760436725388111079
22122407 14 15647341810117168781
221357 26 18342736338701080157
22393880 68 18413107242793659038
23175994 123 17132115753803071977
23557571 272 18272094910875288102
23559900 14 18342738525077044520
239999 70 18131633409251373732
3004659 81 18261110725991286618
3298306 158 18131352964360446287
335352 9 18338793403661483023
34797466 226 17561081449156467321
350125 39 18335978658806743066
4214541 1 18410852131966526313
4409770 3 15445777908110190554
460360 51 18124615092712313787
474 4 17095814286532415350
495365 180 17346303926213859338
4990 188 18060143111320154612
5104073 3 18411694370542027731
59755656 215 18412542081654786431
6034566 193 15506635297081524644
6823239 73 18272650177681025288
9709674 26 18268425909551586067

> <PUBCHEM_SHAPE_MULTIPOLES>
502.82
11.23
2.58
1.08
1.47
0.01
0.36
0.25
2.28
2.08
-0.18
-1.77
0.15
-0.08

> <PUBCHEM_SHAPE_SELFOVERLAP>
1166.574

> <PUBCHEM_SHAPE_VOLUME>
253

> <PUBCHEM_COORDINATE_TYPE>
2
5
10

$$$$
