108061
  -OEChem-03292013323D

 40 41  0     1  0  0  0  0  0999 V2000
   -4.0176    0.1916   -1.1616 S   0  0  0  0  0  0  0  0  0  0  0  0
    6.5031    2.7421    0.3060 O   0  0  0  0  0  0  0  0  0  0  0  0
   -7.5935    0.3171    0.3217 O   0  5  0  0  0  0  0  0  0  0  0  0
   -6.8662    0.3527   -1.7538 O   0  0  0  0  0  0  0  0  0  0  0  0
    4.5128   -0.1806   -0.6908 N   0  0  3  0  0  0  0  0  0  0  0  0
   -0.8587   -0.0375    0.8880 N   0  0  0  0  0  0  0  0  0  0  0  0
   -1.6003    0.0348   -0.1192 N   0  0  0  0  0  0  0  0  0  0  0  0
   -3.4619    0.0747    1.3603 N   0  0  0  0  0  0  0  0  0  0  0  0
   -6.6423    0.2979   -0.5107 N   0  3  0  0  0  0  0  0  0  0  0  0
    3.1594   -0.1495   -0.2945 C   0  0  0  0  0  0  0  0  0  0  0  0
    5.2565    1.0519   -0.8596 C   0  0  0  0  0  0  0  0  0  0  0  0
    5.1732   -1.4448   -0.9479 C   0  0  0  0  0  0  0  0  0  0  0  0
    2.4484   -1.3403   -0.1460 C   0  0  0  0  0  0  0  0  0  0  0  0
    1.1105   -1.3095    0.2473 C   0  0  0  0  0  0  0  0  0  0  0  0
    2.5326    1.0723   -0.0496 C   0  0  0  0  0  0  0  0  0  0  0  0
    5.7454    1.5527    0.4888 C   0  0  0  0  0  0  0  0  0  0  0  0
    5.6422   -2.0971    0.3362 C   0  0  0  0  0  0  0  0  0  0  0  0
    0.4836   -0.0877    0.4923 C   0  0  0  0  0  0  0  0  0  0  0  0
    1.1948    1.1032    0.3440 C   0  0  0  0  0  0  0  0  0  0  0  0
    0.3694   -2.5974    0.4006 C   0  0  0  0  0  0  0  0  0  0  0  0
   -2.9322    0.0908    0.1607 C   0  0  0  0  0  0  0  0  0  0  0  0
   -5.3234    0.2157   -0.0502 C   0  0  0  0  0  0  0  0  0  0  0  0
   -4.8358    0.1469    1.2380 C   0  0  0  0  0  0  0  0  0  0  0  0
    4.6964    1.8187   -1.4085 H   0  0  0  0  0  0  0  0  0  0  0  0
    6.1351    0.8850   -1.4974 H   0  0  0  0  0  0  0  0  0  0  0  0
    4.5556   -2.1257   -1.5447 H   0  0  0  0  0  0  0  0  0  0  0  0
    6.0590   -1.2806   -1.5755 H   0  0  0  0  0  0  0  0  0  0  0  0
    2.8921   -2.3134   -0.3248 H   0  0  0  0  0  0  0  0  0  0  0  0
    3.0272    2.0320   -0.1487 H   0  0  0  0  0  0  0  0  0  0  0  0
    6.4015    0.8199    0.9670 H   0  0  0  0  0  0  0  0  0  0  0  0
    4.9349    1.7698    1.1899 H   0  0  0  0  0  0  0  0  0  0  0  0
    6.3883   -1.4792    0.8450 H   0  0  0  0  0  0  0  0  0  0  0  0
    4.8272   -2.2758    1.0433 H   0  0  0  0  0  0  0  0  0  0  0  0
    6.1107   -3.0620    0.1162 H   0  0  0  0  0  0  0  0  0  0  0  0
    0.7151    2.0602    0.5331 H   0  0  0  0  0  0  0  0  0  0  0  0
   -0.1169   -2.6497    1.3805 H   0  0  0  0  0  0  0  0  0  0  0  0
   -0.3884   -2.6955   -0.3835 H   0  0  0  0  0  0  0  0  0  0  0  0
    1.0355   -3.4640    0.3292 H   0  0  0  0  0  0  0  0  0  0  0  0
    5.9136    3.4055   -0.0916 H   0  0  0  0  0  0  0  0  0  0  0  0
   -5.4377    0.1451    2.1375 H   0  0  0  0  0  0  0  0  0  0  0  0
  1 21  1  0  0  0  0
  1 22  1  0  0  0  0
  2 16  1  0  0  0  0
  2 39  1  0  0  0  0
  3  9  1  0  0  0  0
  4  9  2  0  0  0  0
  5 10  1  0  0  0  0
  5 11  1  0  0  0  0
  5 12  1  0  0  0  0
  6  7  2  0  0  0  0
  6 18  1  0  0  0  0
  7 21  1  0  0  0  0
  8 21  2  0  0  0  0
  8 23  1  0  0  0  0
  9 22  1  0  0  0  0
 10 13  2  0  0  0  0
 10 15  1  0  0  0  0
 11 16  1  0  0  0  0
 11 24  1  0  0  0  0
 11 25  1  0  0  0  0
 12 17  1  0  0  0  0
 12 26  1  0  0  0  0
 12 27  1  0  0  0  0
 13 14  1  0  0  0  0
 13 28  1  0  0  0  0
 14 18  2  0  0  0  0
 14 20  1  0  0  0  0
 15 19  2  0  0  0  0
 15 29  1  0  0  0  0
 16 30  1  0  0  0  0
 16 31  1  0  0  0  0
 17 32  1  0  0  0  0
 17 33  1  0  0  0  0
 17 34  1  0  0  0  0
 18 19  1  0  0  0  0
 19 35  1  0  0  0  0
 20 36  1  0  0  0  0
 20 37  1  0  0  0  0
 20 38  1  0  0  0  0
 22 23  2  0  0  0  0
 23 40  1  0  0  0  0
M  CHG  2   3  -1   9   1
M  END
> <PUBCHEM_COMPOUND_CID>
108061

> <PUBCHEM_CONFORMER_RMSD>
0.8

> <PUBCHEM_CONFORMER_DIVERSEORDER>
3
43
65
59
61
24
72
18
30
51
40
69
58
7
66
39
49
12
38
80
67
63
25
77
36
37
45
74
31
52
56
10
64
4
54
50
9
60
46
15
33
76
42
17
57
47
21
35
26
28
53
19
2
73
78
5
32
27
79
20
68
34
55
71
16
11
41
22
23
44
48
13
14
1
29
8
70
75
6
62

> <PUBCHEM_MMFF94_PARTIAL_CHARGES>
27
1 -0.08
10 0.1
11 0.37
12 0.37
13 -0.15
14 -0.14
15 -0.15
16 0.28
18 0.18
19 -0.15
2 -0.68
20 0.14
21 0.5
22 0.12
23 0.08
28 0.15
29 0.15
3 -0.52
35 0.15
39 0.4
4 -0.52
40 0.15
5 -0.84
6 -0.18
7 -0.13
8 -0.57
9 0.96

> <PUBCHEM_EFFECTIVE_ROTOR_COUNT>
7

> <PUBCHEM_PHARMACOPHORE_FEATURES>
9
1 2 acceptor
1 2 donor
1 3 acceptor
1 3 anion
1 4 acceptor
1 5 cation
3 7 8 21 cation
5 1 8 21 22 23 rings
6 10 13 14 15 18 19 rings

> <PUBCHEM_HEAVY_ATOM_COUNT>
23

> <PUBCHEM_ATOM_DEF_STEREO_COUNT>
0

> <PUBCHEM_ATOM_UDEF_STEREO_COUNT>
0

> <PUBCHEM_BOND_DEF_STEREO_COUNT>
0

> <PUBCHEM_BOND_UDEF_STEREO_COUNT>
0

> <PUBCHEM_ISOTOPIC_ATOM_COUNT>
0

> <PUBCHEM_COMPONENT_COUNT>
1

> <PUBCHEM_CACTVS_TAUTO_COUNT>
1

> <PUBCHEM_CONFORMER_ID>
0001A61D00000003

> <PUBCHEM_MMFF94_ENERGY>
62.9269

> <PUBCHEM_FEATURE_SELFOVERLAP>
45.749

> <PUBCHEM_SHAPE_FINGERPRINT>
10 15 17603867849119586016
10411042 1 17905891380168868330
10693767 8 18057889043806994566
12236239 1 17775288244497841225
12730499 353 18186524284862775483
13533116 47 18271811186274932026
13862211 1 18341051805309861714
14170010 4 18334016103069864708
15183329 4 17704077286913133006
15475509 35 13973411167691310054
1577012 14 17703799106609121457
20157964 124 18411419514663618758
20612939 158 18413673504383149752
21033648 29 17603302652502279445
21150785 3 17203328939695325021
21521239 73 18202563960230477966
21521721 280 18341618134932618162
221357 26 18408884005989614949
22224240 67 18113616820076397475
23081809 10 17703797998185565345
23522609 53 16987462904214446393
23559900 14 18340201999038695049
29717793 49 17917716764198130062
3004659 81 15769775783769920240
335352 9 18412834582350700710
34797466 226 14045738257815260712
34934 24 18341051930390933698
3545911 37 17822014199144816083
4073 2 18263085564332513466
4325135 7 17846780711218856868
4340502 62 16588020225890758098
465052 167 9655581812034973952
5104073 3 18336554897394539522
59755656 215 17822294535280473299

> <PUBCHEM_SHAPE_MULTIPOLES>
434.67
19.02
1.93
1.1
17.68
0.32
-0.15
-5.5
-3.23
-4.7
0.23
1.13
-0.04
0.53

> <PUBCHEM_SHAPE_SELFOVERLAP>
898.53

> <PUBCHEM_SHAPE_VOLUME>
252

> <PUBCHEM_COORDINATE_TYPE>
2
5
10

$$$$
