108021
  -OEChem-03292013323D

 52 54  0     1  0  0  0  0  0999 V2000
   -4.1209   -2.7195   -1.1469 S   0  0  0  0  0  0  0  0  0  0  0  0
    1.8438   -1.1511    1.6033 O   0  0  0  0  0  0  0  0  0  0  0  0
    4.6408    0.3416    1.3310 O   0  0  0  0  0  0  0  0  0  0  0  0
   -0.8466   -1.7443   -1.0604 O   0  0  0  0  0  0  0  0  0  0  0  0
   -4.9920    0.2049    1.0392 O   0  0  0  0  0  0  0  0  0  0  0  0
    2.7889   -0.3676   -0.3587 N   0  0  0  0  0  0  0  0  0  0  0  0
   -0.5175   -0.4130    0.8224 N   0  0  0  0  0  0  0  0  0  0  0  0
   -3.1578   -1.1268    1.3383 N   0  0  0  0  0  0  0  0  0  0  0  0
    6.0660   -1.3924    0.8249 N   0  0  0  0  0  0  0  0  0  0  0  0
   -1.6040    2.5913    0.3709 N   0  0  0  0  0  0  0  0  0  0  0  0
   -1.2113    4.5662   -0.5658 N   0  0  0  0  0  0  0  0  0  0  0  0
    3.9617   -1.2320   -0.3354 C   0  0  1  0  0  0  0  0  0  0  0  0
    4.5405   -1.1377   -1.7423 C   0  0  0  0  0  0  0  0  0  0  0  0
    2.7571    0.4444   -1.5724 C   0  0  0  0  0  0  0  0  0  0  0  0
    4.1292    0.2588   -2.2023 C   0  0  0  0  0  0  0  0  0  0  0  0
    0.5603    0.3882    0.3180 C   0  0  2  0  0  0  0  0  0  0  0  0
    1.7814   -0.4537    0.5895 C   0  0  0  0  0  0  0  0  0  0  0  0
    4.9011   -0.6745    0.6914 C   0  0  0  0  0  0  0  0  0  0  0  0
    0.6859    1.7388    1.0119 C   0  0  0  0  0  0  0  0  0  0  0  0
   -2.2147   -2.1166    0.8607 C   0  0  2  0  0  0  0  0  0  0  0  0
   -1.1355   -1.4185    0.0880 C   0  0  0  0  0  0  0  0  0  0  0  0
   -2.8903   -3.2440    0.0952 C   0  0  0  0  0  0  0  0  0  0  0  0
   -0.2492    2.7640    0.4160 C   0  0  0  0  0  0  0  0  0  0  0  0
   -4.1054   -0.9132   -0.9131 C   0  0  2  0  0  0  0  0  0  0  0  0
   -4.1579   -0.5677    0.5669 C   0  0  0  0  0  0  0  0  0  0  0  0
   -0.0310    3.9896   -0.1683 C   0  0  0  0  0  0  0  0  0  0  0  0
   -5.2840   -0.3136   -1.6747 C   0  0  0  0  0  0  0  0  0  0  0  0
   -2.1387    3.6983   -0.2271 C   0  0  0  0  0  0  0  0  0  0  0  0
    3.6830   -2.2534   -0.0551 H   0  0  0  0  0  0  0  0  0  0  0  0
    5.6218   -1.2865   -1.8078 H   0  0  0  0  0  0  0  0  0  0  0  0
    4.0579   -1.8826   -2.3874 H   0  0  0  0  0  0  0  0  0  0  0  0
    1.9766    0.0447   -2.2292 H   0  0  0  0  0  0  0  0  0  0  0  0
    2.5370    1.4901   -1.3422 H   0  0  0  0  0  0  0  0  0  0  0  0
    4.1101    0.3615   -3.2908 H   0  0  0  0  0  0  0  0  0  0  0  0
    4.8291    1.0022   -1.8018 H   0  0  0  0  0  0  0  0  0  0  0  0
    0.3961    0.5070   -0.7566 H   0  0  0  0  0  0  0  0  0  0  0  0
    0.4828    1.6540    2.0872 H   0  0  0  0  0  0  0  0  0  0  0  0
    1.7102    2.1223    0.9202 H   0  0  0  0  0  0  0  0  0  0  0  0
   -0.8072   -0.2720    1.7863 H   0  0  0  0  0  0  0  0  0  0  0  0
   -1.7357   -2.5469    1.7498 H   0  0  0  0  0  0  0  0  0  0  0  0
   -2.1558   -3.8891   -0.3987 H   0  0  0  0  0  0  0  0  0  0  0  0
   -3.4371   -3.8768    0.8039 H   0  0  0  0  0  0  0  0  0  0  0  0
   -3.1298   -0.8806    2.3232 H   0  0  0  0  0  0  0  0  0  0  0  0
   -3.1880   -0.4978   -1.3409 H   0  0  0  0  0  0  0  0  0  0  0  0
    6.7821   -1.1061    1.4843 H   0  0  0  0  0  0  0  0  0  0  0  0
    6.2502   -2.2356    0.2910 H   0  0  0  0  0  0  0  0  0  0  0  0
   -2.1189    1.7916    0.7150 H   0  0  0  0  0  0  0  0  0  0  0  0
    0.9153    4.4874   -0.3239 H   0  0  0  0  0  0  0  0  0  0  0  0
   -6.2459   -0.6692   -1.2871 H   0  0  0  0  0  0  0  0  0  0  0  0
   -5.2836    0.7786   -1.5802 H   0  0  0  0  0  0  0  0  0  0  0  0
   -5.2323   -0.5471   -2.7440 H   0  0  0  0  0  0  0  0  0  0  0  0
   -3.2022    3.8081   -0.3847 H   0  0  0  0  0  0  0  0  0  0  0  0
  1 22  1  0  0  0  0
  1 24  1  0  0  0  0
  2 17  2  0  0  0  0
  3 18  2  0  0  0  0
  4 21  2  0  0  0  0
  5 25  2  0  0  0  0
  6 12  1  0  0  0  0
  6 14  1  0  0  0  0
  6 17  1  0  0  0  0
  7 16  1  0  0  0  0
  7 21  1  0  0  0  0
  7 39  1  0  0  0  0
  8 20  1  0  0  0  0
  8 25  1  0  0  0  0
  8 43  1  0  0  0  0
  9 18  1  0  0  0  0
  9 45  1  0  0  0  0
  9 46  1  0  0  0  0
 10 23  1  0  0  0  0
 10 28  1  0  0  0  0
 10 47  1  0  0  0  0
 11 26  1  0  0  0  0
 11 28  2  0  0  0  0
 12 13  1  0  0  0  0
 12 18  1  0  0  0  0
 12 29  1  0  0  0  0
 13 15  1  0  0  0  0
 13 30  1  0  0  0  0
 13 31  1  0  0  0  0
 14 15  1  0  0  0  0
 14 32  1  0  0  0  0
 14 33  1  0  0  0  0
 15 34  1  0  0  0  0
 15 35  1  0  0  0  0
 16 17  1  0  0  0  0
 16 19  1  0  0  0  0
 16 36  1  0  0  0  0
 19 23  1  0  0  0  0
 19 37  1  0  0  0  0
 19 38  1  0  0  0  0
 20 21  1  0  0  0  0
 20 22  1  0  0  0  0
 20 40  1  0  0  0  0
 22 41  1  0  0  0  0
 22 42  1  0  0  0  0
 23 26  2  0  0  0  0
 24 25  1  0  0  0  0
 24 27  1  0  0  0  0
 24 44  1  0  0  0  0
 26 48  1  0  0  0  0
 27 49  1  0  0  0  0
 27 50  1  0  0  0  0
 27 51  1  0  0  0  0
 28 52  1  0  0  0  0
M  END
> <PUBCHEM_COMPOUND_CID>
108021

> <PUBCHEM_CONFORMER_RMSD>
1.2

> <PUBCHEM_CONFORMER_DIVERSEORDER>
1
87
6
21
353
209
217
136
114
242
379
275
392
263
286
214
241
144
548
122
302
620
493
357
110
60
558
325
398
292
103
96
176
56
644
178
531
623
322
627
83
463
369
324
569
315
190
13
388
614
397
187
224
53
273
264
233
498
527
438
318
497
312
399
414
539
334
323
33
3
146
495
16
124
601
485
210
94
37
507
132
575
457
248
504
609
66
476
282
296
257
11
520
337
90
30
46
138
161
341
9
426
117
36
580
14
390
287
31
58
38
131
152
148
202
212
374
137
68
8
170
559
25
59
42
12
300
93
127
221
599
281
61
350
4
120
375
67
158
140
436
367
70
516
130
585
17
177
73
175
303
34
205
515
252
2
18
82
435
41
10
106
386
98
7
245
234
553
203
352
167
40
188
45
519
28
606
417
19
488
5
500
24
201
92
402
139
143
172
197
219
409
168
20
151

> <PUBCHEM_MMFF94_PARTIAL_CHARGES>
32
1 -0.46
10 0.03
11 -0.57
12 0.36
14 0.3
16 0.36
17 0.57
18 0.57
19 0.18
2 -0.57
20 0.36
21 0.57
22 0.23
23 -0.33
24 0.29
25 0.57
26 0.08
28 0.04
3 -0.57
39 0.37
4 -0.57
43 0.37
45 0.37
46 0.37
47 0.27
48 0.15
5 -0.57
52 0.15
6 -0.66
7 -0.73
8 -0.73
9 -0.8

> <PUBCHEM_EFFECTIVE_ROTOR_COUNT>
10

> <PUBCHEM_PHARMACOPHORE_FEATURES>
12
1 10 donor
1 2 acceptor
1 3 acceptor
1 4 acceptor
1 5 acceptor
1 7 donor
1 8 donor
1 9 donor
3 10 11 28 cation
5 10 11 23 26 28 rings
5 6 12 13 14 15 rings
6 1 8 20 22 24 25 rings

> <PUBCHEM_HEAVY_ATOM_COUNT>
28

> <PUBCHEM_ATOM_DEF_STEREO_COUNT>
2

> <PUBCHEM_ATOM_UDEF_STEREO_COUNT>
2

> <PUBCHEM_BOND_DEF_STEREO_COUNT>
0

> <PUBCHEM_BOND_UDEF_STEREO_COUNT>
0

> <PUBCHEM_ISOTOPIC_ATOM_COUNT>
0

> <PUBCHEM_COMPONENT_COUNT>
1

> <PUBCHEM_CACTVS_TAUTO_COUNT>
16

> <PUBCHEM_CONFORMER_ID>
0001A5F500000001

> <PUBCHEM_MMFF94_ENERGY>
66.6874

> <PUBCHEM_FEATURE_SELFOVERLAP>
60.902

> <PUBCHEM_SHAPE_FINGERPRINT>
11833330 49 18408041805768126728
12160290 23 18123498006294497704
12553582 1 18338247036735235531
12788726 201 18261972772892295424
13899415 180 18269260417270291599
14251757 5 18335994103224030175
14910302 57 17987532415673244542
15484559 13 15320529987173886110
16752209 62 18337111159519001066
17357779 13 18201993331133649701
1813 80 18199757001623443990
20600515 1 18201170926511276833
21285901 2 17986972785529018159
2132832 1 18113620088900210604
23557571 272 18272368634169376072
23558518 356 17899142615423059211
23559900 14 18052522555596107403
23929065 36 18194378053744711016
25147074 1 17677349216837672356
255183 313 18055086371603540225
266924 1 17896595099085358938
340366 18 18057318590787799927
4066623 53 18189597480277100789
4280585 95 18339349855297788985
4409770 3 18263916649368335461
633830 44 12324507796898174874
6913067 236 17988635294697954446
7164475 11 18336273349450317758
7226269 152 18333728005100446842
7471813 234 18334012822184082716

> <PUBCHEM_SHAPE_MULTIPOLES>
526.71
11.18
4.41
1.62
4.85
6.28
-0.53
-7.85
-1.92
-3.75
-0.41
0.81
-0.42
-0.29

> <PUBCHEM_SHAPE_SELFOVERLAP>
1096.939

> <PUBCHEM_SHAPE_VOLUME>
300.1

> <PUBCHEM_COORDINATE_TYPE>
2
5
10

$$$$
