108072
  -OEChem-03292013323D

 51 52  0     1  0  0  0  0  0999 V2000
   -0.4525   -0.7959    0.9028 O   0  0  0  0  0  0  0  0  0  0  0  0
   -1.9334    0.4035   -0.4434 O   0  0  0  0  0  0  0  0  0  0  0  0
    3.6829   -2.6382   -0.7488 O   0  0  0  0  0  0  0  0  0  0  0  0
    4.1088   -0.3812    0.8120 O   0  0  0  0  0  0  0  0  0  0  0  0
   -2.6048   -2.3950    1.8077 O   0  0  0  0  0  0  0  0  0  0  0  0
    2.2280    1.2453   -1.8565 O   0  0  0  0  0  0  0  0  0  0  0  0
   -5.1722   -0.9549    1.6853 O   0  0  0  0  0  0  0  0  0  0  0  0
   -5.5575    0.2064   -0.9336 O   0  0  0  0  0  0  0  0  0  0  0  0
   -2.1140    1.8101   -2.7982 O   0  0  0  0  0  0  0  0  0  0  0  0
    2.3358    3.7297    1.7771 N   0  0  0  0  0  0  0  0  0  0  0  0
    0.6201   -0.5562   -0.0035 C   0  0  2  0  0  0  0  0  0  0  0  0
    1.5705   -1.7566    0.0303 C   0  0  0  0  0  0  0  0  0  0  0  0
    2.7926   -1.5326   -0.8615 C   0  0  1  0  0  0  0  0  0  0  0  0
    3.5379   -0.2424   -0.4901 C   0  0  1  0  0  0  0  0  0  0  0  0
   -1.7080   -0.8353    0.2251 C   0  0  2  0  0  0  0  0  0  0  0  0
   -2.7976   -1.0880    1.2671 C   0  0  1  0  0  0  0  0  0  0  0  0
    2.6060    0.9781   -0.5070 C   0  0  2  0  0  0  0  0  0  0  0  0
   -4.1919   -0.9960    0.6472 C   0  0  2  0  0  0  0  0  0  0  0  0
    1.3621    0.7244    0.3248 C   0  0  0  0  0  0  0  0  0  0  0  0
   -4.3409    0.2717   -0.1942 C   0  0  1  0  0  0  0  0  0  0  0  0
   -3.1666    0.4207   -1.1645 C   0  0  1  0  0  0  0  0  0  0  0  0
   -3.2321    1.7370   -1.9325 C   0  0  0  0  0  0  0  0  0  0  0  0
    0.9988    1.5812    1.2931 C   0  0  0  0  0  0  0  0  0  0  0  0
    4.8321   -2.4646   -1.5650 C   0  0  0  0  0  0  0  0  0  0  0  0
    4.8592    0.7682    1.1706 C   0  0  0  0  0  0  0  0  0  0  0  0
    1.7368    2.7608    1.5555 C   0  0  0  0  0  0  0  0  0  0  0  0
    0.2518   -0.4644   -1.0353 H   0  0  0  0  0  0  0  0  0  0  0  0
    1.8824   -1.9706    1.0620 H   0  0  0  0  0  0  0  0  0  0  0  0
    1.0396   -2.6643   -0.2851 H   0  0  0  0  0  0  0  0  0  0  0  0
    2.4458   -1.4746   -1.9022 H   0  0  0  0  0  0  0  0  0  0  0  0
    4.3446   -0.0629   -1.2112 H   0  0  0  0  0  0  0  0  0  0  0  0
   -1.6774   -1.6588   -0.5021 H   0  0  0  0  0  0  0  0  0  0  0  0
   -2.7107   -0.3796    2.1004 H   0  0  0  0  0  0  0  0  0  0  0  0
    3.1444    1.8743   -0.1983 H   0  0  0  0  0  0  0  0  0  0  0  0
   -4.4076   -1.8912    0.0509 H   0  0  0  0  0  0  0  0  0  0  0  0
   -4.4032    1.1380    0.4775 H   0  0  0  0  0  0  0  0  0  0  0  0
   -3.1556   -0.3990   -1.8958 H   0  0  0  0  0  0  0  0  0  0  0  0
   -3.1891    2.5980   -1.2572 H   0  0  0  0  0  0  0  0  0  0  0  0
   -4.1356    1.8114   -2.5433 H   0  0  0  0  0  0  0  0  0  0  0  0
    0.1190    1.4026    1.9012 H   0  0  0  0  0  0  0  0  0  0  0  0
   -1.7060   -2.4271    2.1779 H   0  0  0  0  0  0  0  0  0  0  0  0
    3.0405    1.4103   -2.3647 H   0  0  0  0  0  0  0  0  0  0  0  0
   -6.0439   -0.8824    1.2600 H   0  0  0  0  0  0  0  0  0  0  0  0
   -5.7549    1.0996   -1.2615 H   0  0  0  0  0  0  0  0  0  0  0  0
    5.5790   -1.8388   -1.0684 H   0  0  0  0  0  0  0  0  0  0  0  0
    4.5804   -2.0719   -2.5556 H   0  0  0  0  0  0  0  0  0  0  0  0
    5.2880   -3.4498   -1.7044 H   0  0  0  0  0  0  0  0  0  0  0  0
    4.2285    1.5161    1.6515 H   0  0  0  0  0  0  0  0  0  0  0  0
    5.4090    1.1956    0.3256 H   0  0  0  0  0  0  0  0  0  0  0  0
    5.5959    0.4566    1.9178 H   0  0  0  0  0  0  0  0  0  0  0  0
   -1.3130    1.7388   -2.2511 H   0  0  0  0  0  0  0  0  0  0  0  0
  1 11  1  0  0  0  0
  1 15  1  0  0  0  0
  2 15  1  0  0  0  0
  2 21  1  0  0  0  0
  3 13  1  0  0  0  0
  3 24  1  0  0  0  0
  4 14  1  0  0  0  0
  4 25  1  0  0  0  0
  5 16  1  0  0  0  0
  5 41  1  0  0  0  0
  6 17  1  0  0  0  0
  6 42  1  0  0  0  0
  7 18  1  0  0  0  0
  7 43  1  0  0  0  0
  8 20  1  0  0  0  0
  8 44  1  0  0  0  0
  9 22  1  0  0  0  0
  9 51  1  0  0  0  0
 10 26  3  0  0  0  0
 11 12  1  0  0  0  0
 11 19  1  0  0  0  0
 11 27  1  0  0  0  0
 12 13  1  0  0  0  0
 12 28  1  0  0  0  0
 12 29  1  0  0  0  0
 13 14  1  0  0  0  0
 13 30  1  0  0  0  0
 14 17  1  0  0  0  0
 14 31  1  0  0  0  0
 15 16  1  0  0  0  0
 15 32  1  0  0  0  0
 16 18  1  0  0  0  0
 16 33  1  0  0  0  0
 17 19  1  0  0  0  0
 17 34  1  0  0  0  0
 18 20  1  0  0  0  0
 18 35  1  0  0  0  0
 19 23  2  3  0  0  0
 20 21  1  0  0  0  0
 20 36  1  0  0  0  0
 21 22  1  0  0  0  0
 21 37  1  0  0  0  0
 22 38  1  0  0  0  0
 22 39  1  0  0  0  0
 23 26  1  0  0  0  0
 23 40  1  0  0  0  0
 24 45  1  0  0  0  0
 24 46  1  0  0  0  0
 24 47  1  0  0  0  0
 25 48  1  0  0  0  0
 25 49  1  0  0  0  0
 25 50  1  0  0  0  0
M  END
> <PUBCHEM_COMPOUND_CID>
108072

> <PUBCHEM_CONFORMER_RMSD>
0.8

> <PUBCHEM_CONFORMER_DIVERSEORDER>
1
31
44
10
38
37
54
6
30
12
34
45
26
9
49
47
40
14
46
18
27
52
41
51
32
22
29
23
33
39
43
24
16
28
36
50
21
5
35
7
17
48
53
25
13
8
42
11
3
19
15
2
20
4

> <PUBCHEM_MMFF94_PARTIAL_CHARGES>
31
1 -0.56
10 -0.56
11 0.42
13 0.28
14 0.28
15 0.56
16 0.28
17 0.42
18 0.28
19 -0.28
2 -0.56
20 0.28
21 0.28
22 0.28
23 -0.09
24 0.28
25 0.28
26 0.49
3 -0.56
4 -0.56
40 0.15
41 0.4
42 0.4
43 0.4
44 0.4
5 -0.68
51 0.4
6 -0.68
7 -0.68
8 -0.68
9 -0.68

> <PUBCHEM_EFFECTIVE_ROTOR_COUNT>
7.2

> <PUBCHEM_PHARMACOPHORE_FEATURES>
17
1 1 acceptor
1 10 acceptor
1 2 acceptor
1 3 acceptor
1 4 acceptor
1 5 acceptor
1 5 donor
1 6 acceptor
1 6 donor
1 7 acceptor
1 7 donor
1 8 acceptor
1 8 donor
1 9 acceptor
1 9 donor
6 11 12 13 14 17 19 rings
6 2 15 16 18 20 21 rings

> <PUBCHEM_HEAVY_ATOM_COUNT>
26

> <PUBCHEM_ATOM_DEF_STEREO_COUNT>
9

> <PUBCHEM_ATOM_UDEF_STEREO_COUNT>
0

> <PUBCHEM_BOND_DEF_STEREO_COUNT>
0

> <PUBCHEM_BOND_UDEF_STEREO_COUNT>
1

> <PUBCHEM_ISOTOPIC_ATOM_COUNT>
0

> <PUBCHEM_COMPONENT_COUNT>
1

> <PUBCHEM_CACTVS_TAUTO_COUNT>
1

> <PUBCHEM_CONFORMER_ID>
0001A62800000001

> <PUBCHEM_MMFF94_ENERGY>
77.2919

> <PUBCHEM_FEATURE_SELFOVERLAP>
86.35

> <PUBCHEM_SHAPE_FINGERPRINT>
10165383 225 18050868893648466932
10369192 42 17620195772570052400
10498660 4 17312818278172971079
11595378 159 16226311695015199877
12236239 1 16343704335051028451
12788726 201 17622727514303874232
13134695 92 18202279174266128300
13140716 1 17770779315011229152
13583140 156 18271243940610604599
13631057 29 12830647110294542513
13782708 43 18335991956073536315
13911987 19 18128263479142885328
14251757 17 18188490147144125430
14866123 147 17188706247085218074
15081414 286 18202566181382294920
17349148 13 16630530622000979487
18785283 64 18195808685559745192
20511986 3 16272199799614648273
20645477 70 18131068187049588006
21033650 10 17241904090223134396
221357 26 18340201887105658157
22182313 1 18336259055577714574
23175994 123 18272091547958080245
23526113 38 18411694361978420714
23536364 44 18049732806295372606
23557571 272 17895757425859263291
23559900 14 18113901563428320311
46194498 28 18041857197794634526
474 4 17702094970891653464
508706 21 17968087569895152365
5281201 14 18261119564442982527
6049 1 18334856130243414825
6287921 2 18118973726568518749
6438718 38 17201371650258382065
7399639 24 17763462120541006995
7471813 234 17704072867518535456

> <PUBCHEM_SHAPE_MULTIPOLES>
477.26
10.57
2.94
2.01
4.9
1.37
0.74
-3.22
0.55
-3.52
-0.75
1.33
0.69
3.49

> <PUBCHEM_SHAPE_SELFOVERLAP>
978.364

> <PUBCHEM_SHAPE_VOLUME>
269

> <PUBCHEM_COORDINATE_TYPE>
2
5
10

$$$$
