108074
  -OEChem-03292013323D

 32 33  0     1  0  0  0  0  0999 V2000
   -1.6016   -0.1793    1.0025 O   0  0  0  0  0  0  0  0  0  0  0  0
   -2.2589   -2.8690    0.5821 O   0  0  0  0  0  0  0  0  0  0  0  0
    1.1535    2.8247    0.3636 O   0  0  0  0  0  0  0  0  0  0  0  0
    4.3562   -0.4220   -0.2281 O   0  0  0  0  0  0  0  0  0  0  0  0
    0.4461    0.6071    0.1842 N   0  0  0  0  0  0  0  0  0  0  0  0
   -3.8788    1.6106   -0.1046 N   0  0  0  0  0  0  0  0  0  0  0  0
    2.7402    1.1954    0.0676 N   0  0  0  0  0  0  0  0  0  0  0  0
   -3.0539    0.5732   -0.7285 C   0  0  1  0  0  0  0  0  0  0  0  0
   -1.6547    1.0870   -1.0092 C   0  0  0  0  0  0  0  0  0  0  0  0
   -2.7847   -0.5527    0.2698 C   0  0  1  0  0  0  0  0  0  0  0  0
   -0.9500    0.9047    0.3246 C   0  0  1  0  0  0  0  0  0  0  0  0
   -2.5075   -1.8889   -0.4127 C   0  0  0  0  0  0  0  0  0  0  0  0
    0.8271   -0.7179    0.0141 C   0  0  0  0  0  0  0  0  0  0  0  0
    1.4184    1.6297    0.2165 C   0  0  0  0  0  0  0  0  0  0  0  0
    2.0929   -1.1302   -0.1280 C   0  0  0  0  0  0  0  0  0  0  0  0
    3.1748   -0.1102   -0.1040 C   0  0  0  0  0  0  0  0  0  0  0  0
    2.4809   -2.5624   -0.3099 C   0  0  0  0  0  0  0  0  0  0  0  0
   -3.5598    0.2256   -1.6349 H   0  0  0  0  0  0  0  0  0  0  0  0
   -1.1927    0.4702   -1.7908 H   0  0  0  0  0  0  0  0  0  0  0  0
   -1.6154    2.1222   -1.3649 H   0  0  0  0  0  0  0  0  0  0  0  0
   -1.0757    1.8000    0.9450 H   0  0  0  0  0  0  0  0  0  0  0  0
   -3.5968   -0.6812    0.9953 H   0  0  0  0  0  0  0  0  0  0  0  0
   -1.6563   -1.8601   -1.0955 H   0  0  0  0  0  0  0  0  0  0  0  0
   -3.3792   -2.2105   -0.9928 H   0  0  0  0  0  0  0  0  0  0  0  0
   -4.8041    1.2341    0.0972 H   0  0  0  0  0  0  0  0  0  0  0  0
   -4.0168    2.3766   -0.7625 H   0  0  0  0  0  0  0  0  0  0  0  0
    0.0519   -1.4657    0.0083 H   0  0  0  0  0  0  0  0  0  0  0  0
    3.4577    1.9148    0.0879 H   0  0  0  0  0  0  0  0  0  0  0  0
   -3.0509   -2.9293    1.1431 H   0  0  0  0  0  0  0  0  0  0  0  0
    3.0060   -2.6983   -1.2610 H   0  0  0  0  0  0  0  0  0  0  0  0
    1.6097   -3.2259   -0.3138 H   0  0  0  0  0  0  0  0  0  0  0  0
    3.1412   -2.8856    0.5015 H   0  0  0  0  0  0  0  0  0  0  0  0
  1 10  1  0  0  0  0
  1 11  1  0  0  0  0
  2 12  1  0  0  0  0
  2 29  1  0  0  0  0
  3 14  2  0  0  0  0
  4 16  2  0  0  0  0
  5 11  1  0  0  0  0
  5 13  1  0  0  0  0
  5 14  1  0  0  0  0
  6  8  1  0  0  0  0
  6 25  1  0  0  0  0
  6 26  1  0  0  0  0
  7 14  1  0  0  0  0
  7 16  1  0  0  0  0
  7 28  1  0  0  0  0
  8  9  1  0  0  0  0
  8 10  1  0  0  0  0
  8 18  1  0  0  0  0
  9 11  1  0  0  0  0
  9 19  1  0  0  0  0
  9 20  1  0  0  0  0
 10 12  1  0  0  0  0
 10 22  1  0  0  0  0
 11 21  1  0  0  0  0
 12 23  1  0  0  0  0
 12 24  1  0  0  0  0
 13 15  2  0  0  0  0
 13 27  1  0  0  0  0
 15 16  1  0  0  0  0
 15 17  1  0  0  0  0
 17 30  1  0  0  0  0
 17 31  1  0  0  0  0
 17 32  1  0  0  0  0
M  END
> <PUBCHEM_COMPOUND_CID>
108074

> <PUBCHEM_CONFORMER_RMSD>
0.6

> <PUBCHEM_CONFORMER_DIVERSEORDER>
2
9
14
11
1
6
15
8
3
13
4
12
10
7
5

> <PUBCHEM_MMFF94_PARTIAL_CHARGES>
21
1 -0.56
10 0.28
11 0.58
12 0.28
13 -0.04
14 0.69
15 -0.12
16 0.62
17 0.14
2 -0.68
25 0.36
26 0.36
27 0.15
28 0.37
29 0.4
3 -0.57
4 -0.57
5 -0.47
6 -0.99
7 -0.49
8 0.27

> <PUBCHEM_EFFECTIVE_ROTOR_COUNT>
3

> <PUBCHEM_PHARMACOPHORE_FEATURES>
10
1 1 acceptor
1 2 acceptor
1 2 donor
1 3 acceptor
1 4 acceptor
1 6 cation
1 6 donor
1 7 donor
5 1 8 9 10 11 rings
6 5 7 13 14 15 16 rings

> <PUBCHEM_HEAVY_ATOM_COUNT>
17

> <PUBCHEM_ATOM_DEF_STEREO_COUNT>
3

> <PUBCHEM_ATOM_UDEF_STEREO_COUNT>
0

> <PUBCHEM_BOND_DEF_STEREO_COUNT>
0

> <PUBCHEM_BOND_UDEF_STEREO_COUNT>
0

> <PUBCHEM_ISOTOPIC_ATOM_COUNT>
0

> <PUBCHEM_COMPONENT_COUNT>
1

> <PUBCHEM_CACTVS_TAUTO_COUNT>
3

> <PUBCHEM_CONFORMER_ID>
0001A62A00000002

> <PUBCHEM_MMFF94_ENERGY>
35.4677

> <PUBCHEM_FEATURE_SELFOVERLAP>
50.751

> <PUBCHEM_SHAPE_FINGERPRINT>
10608611 8 18410006680270392997
10616163 171 18411983593429145727
10967382 1 18339360747377042894
11132069 177 18410851075457163170
12500047 106 18335978697054974557
12553582 1 18053397495862708366
12932764 1 17603854603150184433
13380535 21 18409173229113278877
14115302 16 18261684687528536413
14178342 30 18341322362120614072
15219456 202 18337388339544441209
15375358 24 18342168925933759990
15375462 6 18121779701416551173
15775835 57 18186803534888002123
16945 1 18411983559084848224
17834074 16 18409730689998288567
18186145 218 18191297192014274717
19107657 46 18411699881011499822
200 152 17988917868748046653
20201158 50 18409729530314875106
20645477 70 18201153248193817398
21501502 16 18335982077078341205
221490 88 18265901435286323122
22213442 358 18411701006287500590
22802520 49 18334293218886488665
2334 1 18051410970097311216
23559900 14 18340476876265215113
25 1 18263075514293319037
2748010 2 18194677305110744832
2871803 45 18192423285036747303
3312278 4 18413392029306179896
34934 24 18339636750866131346
5493415 88 18340485659710361528
58051976 378 17979353384707652268
69090 78 18336541643135421605
7364860 26 18270114750748250744
74978 22 18412261740085399921
81228 2 17768820762395061856
8809292 202 18334859445573253538
93112 12 18410570699744303309
9709674 26 18412263956278371567

> <PUBCHEM_SHAPE_MULTIPOLES>
311.43
6.37
2.71
0.79
0.97
0.78
0.04
0.7
0.67
-0.05
-0.19
-0.33
0
0.56

> <PUBCHEM_SHAPE_SELFOVERLAP>
651.304

> <PUBCHEM_SHAPE_VOLUME>
176.6

> <PUBCHEM_COORDINATE_TYPE>
2
5
10

$$$$
