10808623
  -OEChem-03292013303D

 55 55  0     1  0  0  0  0  0999 V2000
   -0.8433    0.8548    0.6596 O   0  0  0  0  0  0  0  0  0  0  0  0
    2.9483   -0.6400   -0.1185 O   0  0  0  0  0  0  0  0  0  0  0  0
    0.5936   -1.9286   -1.2574 O   0  0  0  0  0  0  0  0  0  0  0  0
    1.7184    0.7188    1.9550 O   0  0  0  0  0  0  0  0  0  0  0  0
    0.0870    2.5341   -0.7355 O   0  0  0  0  0  0  0  0  0  0  0  0
   -3.1649   -0.3778   -0.0884 O   0  0  0  0  0  0  0  0  0  0  0  0
    4.0746    1.3205   -0.5426 O   0  0  0  0  0  0  0  0  0  0  0  0
   -4.3988   -2.2546    0.4087 O   0  0  0  0  0  0  0  0  0  0  0  0
    1.7089    0.0186   -0.3649 C   0  0  1  0  0  0  0  0  0  0  0  0
    0.5443   -0.9615   -0.2117 C   0  0  1  0  0  0  0  0  0  0  0  0
   -0.7906   -0.2102   -0.2933 C   0  0  1  0  0  0  0  0  0  0  0  0
    1.5682    1.1861    0.6133 C   0  0  1  0  0  0  0  0  0  0  0  0
    0.1891    1.8338    0.4997 C   0  0  2  0  0  0  0  0  0  0  0  0
   -1.9710   -1.1344   -0.0078 C   0  0  0  0  0  0  0  0  0  0  0  0
    5.3311   -0.6910    0.0466 C   0  0  0  0  0  0  0  0  0  0  0  0
    4.0719    0.1328   -0.2421 C   0  0  0  0  0  0  0  0  0  0  0  0
   -5.5469   -0.1315    0.0257 C   0  0  0  0  0  0  0  0  0  0  0  0
   -4.3340   -1.0603    0.1435 C   0  0  0  0  0  0  0  0  0  0  0  0
    5.2799   -1.2186    1.4867 C   0  0  0  0  0  0  0  0  0  0  0  0
    6.5742    0.1989   -0.1147 C   0  0  0  0  0  0  0  0  0  0  0  0
    5.4200   -1.8563   -0.9478 C   0  0  0  0  0  0  0  0  0  0  0  0
   -1.1840    3.1516   -0.8790 C   0  0  0  0  0  0  0  0  0  0  0  0
   -5.4429    0.9833    1.0752 C   0  0  0  0  0  0  0  0  0  0  0  0
   -5.5994    0.4660   -1.3867 C   0  0  0  0  0  0  0  0  0  0  0  0
   -6.8338   -0.9342    0.2765 C   0  0  0  0  0  0  0  0  0  0  0  0
    1.7232    0.3837   -1.4011 H   0  0  0  0  0  0  0  0  0  0  0  0
    0.6444   -1.4943    0.7422 H   0  0  0  0  0  0  0  0  0  0  0  0
   -0.9331    0.2078   -1.2984 H   0  0  0  0  0  0  0  0  0  0  0  0
    2.2996    1.9813    0.4704 H   0  0  0  0  0  0  0  0  0  0  0  0
    0.0664    2.5504    1.3214 H   0  0  0  0  0  0  0  0  0  0  0  0
   -2.0130   -1.9526   -0.7345 H   0  0  0  0  0  0  0  0  0  0  0  0
   -1.8856   -1.5483    1.0043 H   0  0  0  0  0  0  0  0  0  0  0  0
    0.0163   -2.6688   -1.0058 H   0  0  0  0  0  0  0  0  0  0  0  0
    2.5943    0.3033    2.0252 H   0  0  0  0  0  0  0  0  0  0  0  0
    6.1937   -1.7667    1.7416 H   0  0  0  0  0  0  0  0  0  0  0  0
    4.4333   -1.8980    1.6373 H   0  0  0  0  0  0  0  0  0  0  0  0
    5.1666   -0.3966    2.2029 H   0  0  0  0  0  0  0  0  0  0  0  0
    6.6435    0.6040   -1.1310 H   0  0  0  0  0  0  0  0  0  0  0  0
    7.4941   -0.3622    0.0849 H   0  0  0  0  0  0  0  0  0  0  0  0
    6.5456    1.0503    0.5752 H   0  0  0  0  0  0  0  0  0  0  0  0
    5.4015   -1.4936   -1.9819 H   0  0  0  0  0  0  0  0  0  0  0  0
    6.3432   -2.4293   -0.8062 H   0  0  0  0  0  0  0  0  0  0  0  0
    4.5797   -2.5503   -0.8326 H   0  0  0  0  0  0  0  0  0  0  0  0
   -1.3859    3.8249   -0.0400 H   0  0  0  0  0  0  0  0  0  0  0  0
   -1.9828    2.4100   -0.9680 H   0  0  0  0  0  0  0  0  0  0  0  0
   -1.1705    3.7441   -1.7982 H   0  0  0  0  0  0  0  0  0  0  0  0
   -4.5625    1.6140    0.9067 H   0  0  0  0  0  0  0  0  0  0  0  0
   -6.3247    1.6331    1.0532 H   0  0  0  0  0  0  0  0  0  0  0  0
   -5.3540    0.5661    2.0849 H   0  0  0  0  0  0  0  0  0  0  0  0
   -6.4906    1.0890   -1.5213 H   0  0  0  0  0  0  0  0  0  0  0  0
   -5.6193   -0.3229   -2.1474 H   0  0  0  0  0  0  0  0  0  0  0  0
   -4.7241    1.0925   -1.5923 H   0  0  0  0  0  0  0  0  0  0  0  0
   -6.8325   -1.3851    1.2757 H   0  0  0  0  0  0  0  0  0  0  0  0
   -7.7219   -0.2971    0.1985 H   0  0  0  0  0  0  0  0  0  0  0  0
   -6.9417   -1.7486   -0.4494 H   0  0  0  0  0  0  0  0  0  0  0  0
  1 11  1  0  0  0  0
  1 13  1  0  0  0  0
  2  9  1  0  0  0  0
  2 16  1  0  0  0  0
  3 10  1  0  0  0  0
  3 33  1  0  0  0  0
  4 12  1  0  0  0  0
  4 34  1  0  0  0  0
  5 13  1  0  0  0  0
  5 22  1  0  0  0  0
  6 14  1  0  0  0  0
  6 18  1  0  0  0  0
  7 16  2  0  0  0  0
  8 18  2  0  0  0  0
  9 10  1  0  0  0  0
  9 12  1  0  0  0  0
  9 26  1  0  0  0  0
 10 11  1  0  0  0  0
 10 27  1  0  0  0  0
 11 14  1  0  0  0  0
 11 28  1  0  0  0  0
 12 13  1  0  0  0  0
 12 29  1  0  0  0  0
 13 30  1  0  0  0  0
 14 31  1  0  0  0  0
 14 32  1  0  0  0  0
 15 16  1  0  0  0  0
 15 19  1  0  0  0  0
 15 20  1  0  0  0  0
 15 21  1  0  0  0  0
 17 18  1  0  0  0  0
 17 23  1  0  0  0  0
 17 24  1  0  0  0  0
 17 25  1  0  0  0  0
 19 35  1  0  0  0  0
 19 36  1  0  0  0  0
 19 37  1  0  0  0  0
 20 38  1  0  0  0  0
 20 39  1  0  0  0  0
 20 40  1  0  0  0  0
 21 41  1  0  0  0  0
 21 42  1  0  0  0  0
 21 43  1  0  0  0  0
 22 44  1  0  0  0  0
 22 45  1  0  0  0  0
 22 46  1  0  0  0  0
 23 47  1  0  0  0  0
 23 48  1  0  0  0  0
 23 49  1  0  0  0  0
 24 50  1  0  0  0  0
 24 51  1  0  0  0  0
 24 52  1  0  0  0  0
 25 53  1  0  0  0  0
 25 54  1  0  0  0  0
 25 55  1  0  0  0  0
M  END
> <PUBCHEM_COMPOUND_CID>
10808623

> <PUBCHEM_CONFORMER_RMSD>
1

> <PUBCHEM_CONFORMER_DIVERSEORDER>
1
42
24
9
47
10
27
41
11
17
14
4
6
31
44
49
48
25
45
18
21
46
38
5
28
36
32
37
16
3
23
43
39
13
22
35
20
15
30
8
7
34
29
33
19
12
2
40
26

> <PUBCHEM_MMFF94_PARTIAL_CHARGES>
21
1 -0.56
10 0.28
11 0.28
12 0.28
13 0.56
14 0.28
15 0.06
16 0.66
17 0.06
18 0.66
2 -0.43
22 0.28
3 -0.68
33 0.4
34 0.4
4 -0.68
5 -0.56
6 -0.43
7 -0.57
8 -0.57
9 0.28

> <PUBCHEM_EFFECTIVE_ROTOR_COUNT>
9.2

> <PUBCHEM_PHARMACOPHORE_FEATURES>
11
1 1 acceptor
1 3 acceptor
1 3 donor
1 4 acceptor
1 4 donor
1 5 acceptor
1 7 acceptor
1 8 acceptor
4 15 19 20 21 hydrophobe
4 17 23 24 25 hydrophobe
6 1 9 10 11 12 13 rings

> <PUBCHEM_HEAVY_ATOM_COUNT>
25

> <PUBCHEM_ATOM_DEF_STEREO_COUNT>
5

> <PUBCHEM_ATOM_UDEF_STEREO_COUNT>
0

> <PUBCHEM_BOND_DEF_STEREO_COUNT>
0

> <PUBCHEM_BOND_UDEF_STEREO_COUNT>
0

> <PUBCHEM_ISOTOPIC_ATOM_COUNT>
0

> <PUBCHEM_COMPONENT_COUNT>
1

> <PUBCHEM_CACTVS_TAUTO_COUNT>
1

> <PUBCHEM_CONFORMER_ID>
00A4ED2F00000001

> <PUBCHEM_MMFF94_ENERGY>
69.9509

> <PUBCHEM_FEATURE_SELFOVERLAP>
55.863

> <PUBCHEM_SHAPE_FINGERPRINT>
10906281 52 18267325212264799435
11089746 13 17132109148264540179
11796584 16 18260550043390565130
12166972 35 18272089461421964201
12236239 1 16877940516585221487
12516196 113 17632577153839336105
12788726 201 18040990683710919385
13533116 47 16558755568809368990
13590594 115 18186526496993148117
13685833 64 18413393154962378811
13862211 1 18342737412042341463
14251752 14 17968088694928488061
14251764 18 18343304790396805515
14341114 176 18336833117012320819
15131766 46 15050012426187225682
15183329 4 18334576832514397627
1601671 61 18413392042418084493
17492 89 17976541938451157459
19141452 34 17846493768179151094
19784866 140 17748821899768223600
21236236 1 18342177709422026761
21267235 1 18411708676882904374
21279426 13 18199473160188149991
21285901 2 18270973353291295126
21421861 104 18043530499794549003
21709351 56 18341043125418047959
22182313 1 17916027854472010094
22224240 67 16272203098925082182
22950370 63 18333450971183028819
23402539 116 18411697699210383007
23536379 177 17240480299415562438
23559900 14 18411697729063871779
23622692 88 13614518571740364464
266924 1 17169257157578542880
3004659 81 18260832605320529270
335352 9 18410855482415362463
350125 39 18343302565762579928
4072396 5 18273211984936008990
4073 2 17823704251079322514
4463277 17 18341896307390681712
465052 167 18411704304922909502
5104073 3 18270967972172111443
59755656 215 18334295318941542806
6328613 192 18342180006839101240
7226269 152 18114181908944462185

> <PUBCHEM_SHAPE_MULTIPOLES>
467.53
16.27
2.3
1.15
4.14
1.23
-0.2
-6.14
-0.5
0.48
0.47
-0.21
0.07
0.35

> <PUBCHEM_SHAPE_SELFOVERLAP>
938.811

> <PUBCHEM_SHAPE_VOLUME>
274

> <PUBCHEM_COORDINATE_TYPE>
2
5
10

$$$$
