108037
  -OEChem-03292013323D

 30 30  0     1  0  0  0  0  0999 V2000
    3.5027   -1.0900    0.3674 O   0  0  0  0  0  0  0  0  0  0  0  0
    1.1973   -2.5738    0.9715 O   0  0  0  0  0  0  0  0  0  0  0  0
    3.3674    1.0550   -1.4036 O   0  0  0  0  0  0  0  0  0  0  0  0
    2.2887    2.9944    0.2952 O   0  0  0  0  0  0  0  0  0  0  0  0
   -3.6565    1.3065    1.2274 O   0  0  0  0  0  0  0  0  0  0  0  0
   -1.1486   -0.1291    0.7311 N   0  0  0  0  0  0  0  0  0  0  0  0
   -2.0838   -0.8260   -1.1589 N   0  0  0  0  0  0  0  0  0  0  0  0
    2.2543   -0.7491   -0.2388 C   0  0  1  0  0  0  0  0  0  0  0  0
    1.1108   -1.1757    0.7019 C   0  0  1  0  0  0  0  0  0  0  0  0
    2.2465    0.7554   -0.5696 C   0  0  1  0  0  0  0  0  0  0  0  0
   -0.2563   -0.9094    0.1017 C   0  0  0  0  0  0  0  0  0  0  0  0
    2.3292    1.6250    0.6836 C   0  0  0  0  0  0  0  0  0  0  0  0
   -0.8150   -1.3363   -1.0442 C   0  0  0  0  0  0  0  0  0  0  0  0
   -2.2537   -0.1040   -0.0735 C   0  0  0  0  0  0  0  0  0  0  0  0
   -3.4580    0.6074    0.2008 C   0  0  0  0  0  0  0  0  0  0  0  0
   -4.6252    0.5496   -0.7920 C   0  0  0  0  0  0  0  0  0  0  0  0
    2.2117   -1.3299   -1.1690 H   0  0  0  0  0  0  0  0  0  0  0  0
    1.2063   -0.6869    1.6774 H   0  0  0  0  0  0  0  0  0  0  0  0
    1.3558    1.0229   -1.1476 H   0  0  0  0  0  0  0  0  0  0  0  0
    1.4883    1.4632    1.3608 H   0  0  0  0  0  0  0  0  0  0  0  0
    3.2624    1.4665    1.2335 H   0  0  0  0  0  0  0  0  0  0  0  0
   -1.0382    0.3482    1.6167 H   0  0  0  0  0  0  0  0  0  0  0  0
   -0.3995   -1.9791   -1.8064 H   0  0  0  0  0  0  0  0  0  0  0  0
    4.1972   -0.9710   -0.3022 H   0  0  0  0  0  0  0  0  0  0  0  0
    2.0879   -2.7481    1.3211 H   0  0  0  0  0  0  0  0  0  0  0  0
    4.1740    0.9813   -0.8660 H   0  0  0  0  0  0  0  0  0  0  0  0
    3.0355    3.1484   -0.3084 H   0  0  0  0  0  0  0  0  0  0  0  0
   -4.3035    0.9490   -1.7575 H   0  0  0  0  0  0  0  0  0  0  0  0
   -5.4596    1.1517   -0.4210 H   0  0  0  0  0  0  0  0  0  0  0  0
   -4.9588   -0.4855   -0.9035 H   0  0  0  0  0  0  0  0  0  0  0  0
  1  8  1  0  0  0  0
  1 24  1  0  0  0  0
  2  9  1  0  0  0  0
  2 25  1  0  0  0  0
  3 10  1  0  0  0  0
  3 26  1  0  0  0  0
  4 12  1  0  0  0  0
  4 27  1  0  0  0  0
  5 15  2  0  0  0  0
  6 11  1  0  0  0  0
  6 14  1  0  0  0  0
  6 22  1  0  0  0  0
  7 13  1  0  0  0  0
  7 14  2  0  0  0  0
  8  9  1  0  0  0  0
  8 10  1  0  0  0  0
  8 17  1  0  0  0  0
  9 11  1  0  0  0  0
  9 18  1  0  0  0  0
 10 12  1  0  0  0  0
 10 19  1  0  0  0  0
 11 13  2  0  0  0  0
 12 20  1  0  0  0  0
 12 21  1  0  0  0  0
 13 23  1  0  0  0  0
 14 15  1  0  0  0  0
 15 16  1  0  0  0  0
 16 28  1  0  0  0  0
 16 29  1  0  0  0  0
 16 30  1  0  0  0  0
M  END
> <PUBCHEM_COMPOUND_CID>
108037

> <PUBCHEM_CONFORMER_RMSD>
0.6

> <PUBCHEM_CONFORMER_DIVERSEORDER>
7
4
146
145
94
39
37
120
19
149
134
140
52
101
26
63
121
116
147
144
16
66
100
31
92
119
133
151
124
75
113
17
12
115
150
69
81
154
3
108
43
112
85
49
105
99
22
117
139
67
88
122
107
102
153
84
103
114
91
36
28
58
20
109
96
47
73
127
10
106
126
131
38
97
95
136
29
132
1
152
14
89
35
128
46
148
110
118
18
123
24
9
15
33
8
72
71
137
2
111
11
82
90
93
54
74
5
40
34
104
6
21
60
53
13
61
129
142
70
30
98
78
56
62
55
42
45
76
65
80
50
125
143
68
44
25
130
77
87
48
27
83
138
41
79
23
86
64
32
59
141
135
51
57

> <PUBCHEM_MMFF94_PARTIAL_CHARGES>
22
1 -0.68
10 0.28
11 -0.33
12 0.28
13 0.08
14 0.1
15 0.59
16 0.06
2 -0.68
22 0.27
23 0.15
24 0.4
25 0.4
26 0.4
27 0.4
3 -0.68
4 -0.68
5 -0.57
6 0.03
7 -0.57
8 0.28
9 0.46

> <PUBCHEM_EFFECTIVE_ROTOR_COUNT>
5

> <PUBCHEM_PHARMACOPHORE_FEATURES>
12
1 1 acceptor
1 1 donor
1 2 acceptor
1 2 donor
1 3 acceptor
1 3 donor
1 4 acceptor
1 4 donor
1 5 acceptor
1 6 donor
3 6 7 14 cation
5 6 7 11 13 14 rings

> <PUBCHEM_HEAVY_ATOM_COUNT>
16

> <PUBCHEM_ATOM_DEF_STEREO_COUNT>
3

> <PUBCHEM_ATOM_UDEF_STEREO_COUNT>
0

> <PUBCHEM_BOND_DEF_STEREO_COUNT>
0

> <PUBCHEM_BOND_UDEF_STEREO_COUNT>
0

> <PUBCHEM_ISOTOPIC_ATOM_COUNT>
0

> <PUBCHEM_COMPONENT_COUNT>
1

> <PUBCHEM_CACTVS_TAUTO_COUNT>
7

> <PUBCHEM_CONFORMER_ID>
0001A60500000007

> <PUBCHEM_MMFF94_ENERGY>
26.8853

> <PUBCHEM_FEATURE_SELFOVERLAP>
60.922

> <PUBCHEM_SHAPE_FINGERPRINT>
10857977 72 15068629262247468983
10980938 120 18335419036956863461
11769659 78 8718830864437264231
13464514 151 18268438004717750100
13705890 14 12319447779824938111
14115302 16 16917347039073645782
14289901 80 17458350736631495939
15342168 16 17822860916870352333
15775835 57 18410860983630353436
16945 1 18262788575770314507
17041 49 18339354180746619858
17357990 137 18130227043030981491
17802600 8 18337101272625851709
18186145 218 18273219720045274621
20233049 118 17489017150421383314
20559304 39 18338511915879115162
20645476 183 17988923383618398263
20653085 51 18201167662024849990
20671657 1 18411697681872063282
21041028 32 17831010235326335562
21524375 3 18409449193415132575
21639500 275 18336533954795815253
22094290 62 18412261735653185096
22854114 111 18410290311336270273
22892500 29 18260541187098688239
23557571 272 16772940553515308082
23559900 14 16343698812614902102
25 1 18335710455078321966
3060560 45 18131632244698097686
474 4 18336537326055330064
4990 188 14836113335245814759
549884 4 18343026609639145588
7364860 26 18338793412515603250
74978 22 18272090534488372742
7832392 63 18273215326256840100
81228 2 17100035474564389050
9981440 41 17693640920717655216

> <PUBCHEM_SHAPE_MULTIPOLES>
289.96
7.06
2.21
1.13
5
0.68
0.12
3.05
0.73
-1.96
-0.48
0.06
-0.02
-0.75

> <PUBCHEM_SHAPE_SELFOVERLAP>
591.621

> <PUBCHEM_SHAPE_VOLUME>
170.1

> <PUBCHEM_COORDINATE_TYPE>
2
5
10

$$$$
