108172
  -OEChem-03292013323D

 35 34  0     1  0  0  0  0  0999 V2000
    1.5315   -2.6413    0.7655 O   0  0  0  0  0  0  0  0  0  0  0  0
    1.2681   -2.0925   -1.4202 O   0  0  0  0  0  0  0  0  0  0  0  0
    5.2004    1.0697    0.0348 O   0  0  0  0  0  0  0  0  0  0  0  0
    3.5854    2.2689   -1.0219 O   0  0  0  0  0  0  0  0  0  0  0  0
    1.6420    0.5402   -0.2221 N   0  0  0  0  0  0  0  0  0  0  0  0
   -3.5978    0.4317    0.3549 N   0  0  0  0  0  0  0  0  0  0  0  0
   -5.2920    2.0008    0.5550 N   0  0  0  0  0  0  0  0  0  0  0  0
   -5.7336    0.1567   -0.7097 N   0  0  0  0  0  0  0  0  0  0  0  0
    0.7012   -0.4526    0.2909 C   0  0  1  0  0  0  0  0  0  0  0  0
   -0.7221   -0.1145   -0.1774 C   0  0  0  0  0  0  0  0  0  0  0  0
   -1.7460   -1.1663    0.2737 C   0  0  0  0  0  0  0  0  0  0  0  0
    2.9942    0.2541    0.2329 C   0  0  2  0  0  0  0  0  0  0  0  0
   -3.1581   -0.8466   -0.2063 C   0  0  0  0  0  0  0  0  0  0  0  0
    1.1788   -1.7932   -0.2366 C   0  0  0  0  0  0  0  0  0  0  0  0
    3.0363    0.2605    1.7550 C   0  0  0  0  0  0  0  0  0  0  0  0
    3.9154    1.3127   -0.3351 C   0  0  0  0  0  0  0  0  0  0  0  0
   -4.8036    0.8118    0.0667 C   0  0  0  0  0  0  0  0  0  0  0  0
    0.6665   -0.4706    1.3852 H   0  0  0  0  0  0  0  0  0  0  0  0
   -1.0036    0.8721    0.2114 H   0  0  0  0  0  0  0  0  0  0  0  0
   -0.7496   -0.0465   -1.2732 H   0  0  0  0  0  0  0  0  0  0  0  0
   -1.4689   -2.1544   -0.1107 H   0  0  0  0  0  0  0  0  0  0  0  0
   -1.7383   -1.2309    1.3688 H   0  0  0  0  0  0  0  0  0  0  0  0
    1.3559    1.4666    0.0954 H   0  0  0  0  0  0  0  0  0  0  0  0
    3.3710   -0.6951   -0.1652 H   0  0  0  0  0  0  0  0  0  0  0  0
   -3.1680   -0.8085   -1.3025 H   0  0  0  0  0  0  0  0  0  0  0  0
   -3.8233   -1.6552    0.1203 H   0  0  0  0  0  0  0  0  0  0  0  0
    2.5361    1.1425    2.1734 H   0  0  0  0  0  0  0  0  0  0  0  0
    2.5949   -0.6353    2.2006 H   0  0  0  0  0  0  0  0  0  0  0  0
    4.0689    0.2943    2.1214 H   0  0  0  0  0  0  0  0  0  0  0  0
    1.8516   -3.5017    0.4197 H   0  0  0  0  0  0  0  0  0  0  0  0
    5.8162    1.7474   -0.3171 H   0  0  0  0  0  0  0  0  0  0  0  0
   -4.7226    2.5979    1.1448 H   0  0  0  0  0  0  0  0  0  0  0  0
   -6.2318    2.3159    0.3413 H   0  0  0  0  0  0  0  0  0  0  0  0
   -6.6541    0.5524   -0.8676 H   0  0  0  0  0  0  0  0  0  0  0  0
   -5.5384   -0.7347   -1.1512 H   0  0  0  0  0  0  0  0  0  0  0  0
  1 14  1  0  0  0  0
  1 30  1  0  0  0  0
  2 14  2  0  0  0  0
  3 16  1  0  0  0  0
  3 31  1  0  0  0  0
  4 16  2  0  0  0  0
  5  9  1  0  0  0  0
  5 12  1  0  0  0  0
  5 23  1  0  0  0  0
  6 13  1  0  0  0  0
  6 17  2  0  0  0  0
  7 17  1  0  0  0  0
  7 32  1  0  0  0  0
  7 33  1  0  0  0  0
  8 17  1  0  0  0  0
  8 34  1  0  0  0  0
  8 35  1  0  0  0  0
  9 10  1  0  0  0  0
  9 14  1  0  0  0  0
  9 18  1  0  0  0  0
 10 11  1  0  0  0  0
 10 19  1  0  0  0  0
 10 20  1  0  0  0  0
 11 13  1  0  0  0  0
 11 21  1  0  0  0  0
 11 22  1  0  0  0  0
 12 15  1  0  0  0  0
 12 16  1  0  0  0  0
 12 24  1  0  0  0  0
 13 25  1  0  0  0  0
 13 26  1  0  0  0  0
 15 27  1  0  0  0  0
 15 28  1  0  0  0  0
 15 29  1  0  0  0  0
M  END
> <PUBCHEM_COMPOUND_CID>
108172

> <PUBCHEM_CONFORMER_RMSD>
0.8

> <PUBCHEM_CONFORMER_DIVERSEORDER>
3
23
35
50
17
73
47
64
43
1
4
28
48
32
24
55
69
27
52
57
72
6
56
60
49
29
2
71
65
36
10
26
62
51
11
58
63
40
14
15
41
61
45
18
12
30
20
70
67
42
53
31
16
8
39
25
59
37
34
22
5
68
7
66
13
44
9
33
19
21
38
46
54

> <PUBCHEM_MMFF94_PARTIAL_CHARGES>
21
1 -0.65
12 0.33
13 0.25
14 0.66
16 0.66
17 0.55
2 -0.57
23 0.36
3 -0.65
30 0.5
31 0.5
32 0.4
33 0.4
34 0.4
35 0.4
4 -0.57
5 -0.9
6 -0.7
7 -0.85
8 -0.85
9 0.33

> <PUBCHEM_EFFECTIVE_ROTOR_COUNT>
8

> <PUBCHEM_PHARMACOPHORE_FEATURES>
11
1 1 acceptor
1 2 acceptor
1 3 acceptor
1 4 acceptor
1 5 cation
1 5 donor
1 7 donor
1 8 donor
3 1 2 14 anion
3 3 4 16 anion
4 6 7 8 17 cation

> <PUBCHEM_HEAVY_ATOM_COUNT>
17

> <PUBCHEM_ATOM_DEF_STEREO_COUNT>
2

> <PUBCHEM_ATOM_UDEF_STEREO_COUNT>
0

> <PUBCHEM_BOND_DEF_STEREO_COUNT>
0

> <PUBCHEM_BOND_UDEF_STEREO_COUNT>
0

> <PUBCHEM_ISOTOPIC_ATOM_COUNT>
0

> <PUBCHEM_COMPONENT_COUNT>
1

> <PUBCHEM_CACTVS_TAUTO_COUNT>
2

> <PUBCHEM_CONFORMER_ID>
0001A68C00000003

> <PUBCHEM_MMFF94_ENERGY>
30.6824

> <PUBCHEM_FEATURE_SELFOVERLAP>
55.994

> <PUBCHEM_SHAPE_FINGERPRINT>
12616999 72 17561080281078577735
12633257 1 17531511153332084674
13675066 3 15140955145759715259
14123255 352 18260828232811667885
14251764 30 11819538317493797896
14252887 29 13190329159029399424
14576447 43 10519989266247400408
15375358 24 18186805777240622083
17834072 32 18336550528805935805
19784866 170 18187367627365865389
19784866 9 18409727352893031010
20645477 70 18200877266797211527
212847 35 18343298163262443424
23402539 116 18130222770113547988
23402655 69 18059855039458247981
23532345 1 18334298639156380291
23559900 14 17559109866142625295
23596394 208 15913059685310312661
3060560 45 16845569820753709372
3545911 37 18343866623996456771
449060 50 18334580140124388647
449060 62 18411698772714648090
474 4 18333733537144723233
4990 188 16415201199659897020
59755656 215 18272378534079439214
633830 44 18336264634682463286
81539 233 18411139134334233326
8272917 22 18187361009159177986
9999458 23 18113056022149913886

> <PUBCHEM_SHAPE_MULTIPOLES>
306.45
11.41
2.19
1.03
11.63
0.57
0.16
-8.07
-0.21
-0.97
-0.27
-0.77
0.06
-0.73

> <PUBCHEM_SHAPE_SELFOVERLAP>
594.667

> <PUBCHEM_SHAPE_VOLUME>
183.4

> <PUBCHEM_COORDINATE_TYPE>
2
5
10

$$$$
