108175
  -OEChem-03292013323D

 34 37  0     1  0  0  0  0  0999 V2000
    2.5327   -0.5010   -0.9542 O   0  0  0  0  0  0  0  0  0  0  0  0
    1.6837    2.2522    1.1951 O   0  0  0  0  0  0  0  0  0  0  0  0
    3.8790    2.1793   -0.4050 O   0  0  0  0  0  0  0  0  0  0  0  0
    4.3643   -2.5505   -0.3996 O   0  0  0  0  0  0  0  0  0  0  0  0
    0.3143   -0.2911   -0.1388 N   0  0  0  0  0  0  0  0  0  0  0  0
   -1.0771   -1.9746    0.3842 N   0  0  0  0  0  0  0  0  0  0  0  0
   -1.2814    1.5042   -0.5417 N   0  0  0  0  0  0  0  0  0  0  0  0
   -3.4985    0.7222   -0.2200 N   0  0  0  0  0  0  0  0  0  0  0  0
   -4.1456   -1.3378    0.3669 N   0  0  0  0  0  0  0  0  0  0  0  0
    1.5711    0.4107   -0.3890 C   0  0  1  0  0  0  0  0  0  0  0  0
    2.2184    0.9878    0.8606 C   0  0  1  0  0  0  0  0  0  0  0  0
    3.6748    1.0503    0.4445 C   0  0  1  0  0  0  0  0  0  0  0  0
    3.8317   -0.2221   -0.3823 C   0  0  1  0  0  0  0  0  0  0  0  0
    4.2570   -1.4228    0.4513 C   0  0  0  0  0  0  0  0  0  0  0  0
   -0.9490    0.2245   -0.2137 C   0  0  0  0  0  0  0  0  0  0  0  0
    0.1826   -1.6139    0.2236 C   0  0  0  0  0  0  0  0  0  0  0  0
   -1.7662   -0.8378    0.1134 C   0  0  0  0  0  0  0  0  0  0  0  0
   -3.1210   -0.5642    0.1075 C   0  0  0  0  0  0  0  0  0  0  0  0
   -2.5717    1.7305   -0.5381 C   0  0  0  0  0  0  0  0  0  0  0  0
   -4.8622    0.7662   -0.1640 C   0  0  0  0  0  0  0  0  0  0  0  0
   -5.2368   -0.5121    0.1991 C   0  0  0  0  0  0  0  0  0  0  0  0
    1.3605    1.1802   -1.1418 H   0  0  0  0  0  0  0  0  0  0  0  0
    2.0956    0.3167    1.7187 H   0  0  0  0  0  0  0  0  0  0  0  0
    4.3647    1.1370    1.2887 H   0  0  0  0  0  0  0  0  0  0  0  0
    4.5217   -0.0897   -1.2232 H   0  0  0  0  0  0  0  0  0  0  0  0
    5.2300   -1.2515    0.9210 H   0  0  0  0  0  0  0  0  0  0  0  0
    3.5270   -1.6627    1.2307 H   0  0  0  0  0  0  0  0  0  0  0  0
    1.0367   -2.2631    0.3606 H   0  0  0  0  0  0  0  0  0  0  0  0
    1.8439    2.8537    0.4482 H   0  0  0  0  0  0  0  0  0  0  0  0
    4.8086    2.1631   -0.6901 H   0  0  0  0  0  0  0  0  0  0  0  0
    3.4949   -2.6897   -0.8129 H   0  0  0  0  0  0  0  0  0  0  0  0
   -2.9586    2.7314   -0.7883 H   0  0  0  0  0  0  0  0  0  0  0  0
   -5.4283    1.6621   -0.3770 H   0  0  0  0  0  0  0  0  0  0  0  0
   -6.2413   -0.8808    0.3485 H   0  0  0  0  0  0  0  0  0  0  0  0
  1 10  1  0  0  0  0
  1 13  1  0  0  0  0
  2 11  1  0  0  0  0
  2 29  1  0  0  0  0
  3 12  1  0  0  0  0
  3 30  1  0  0  0  0
  4 14  1  0  0  0  0
  4 31  1  0  0  0  0
  5 10  1  0  0  0  0
  5 15  1  0  0  0  0
  5 16  1  0  0  0  0
  6 16  2  0  0  0  0
  6 17  1  0  0  0  0
  7 15  1  0  0  0  0
  7 19  2  0  0  0  0
  8 18  1  0  0  0  0
  8 19  1  0  0  0  0
  8 20  1  0  0  0  0
  9 18  2  0  0  0  0
  9 21  1  0  0  0  0
 10 11  1  0  0  0  0
 10 22  1  0  0  0  0
 11 12  1  0  0  0  0
 11 23  1  0  0  0  0
 12 13  1  0  0  0  0
 12 24  1  0  0  0  0
 13 14  1  0  0  0  0
 13 25  1  0  0  0  0
 14 26  1  0  0  0  0
 14 27  1  0  0  0  0
 15 17  2  0  0  0  0
 16 28  1  0  0  0  0
 17 18  1  0  0  0  0
 19 32  1  0  0  0  0
 20 21  2  0  0  0  0
 20 33  1  0  0  0  0
 21 34  1  0  0  0  0
M  END
> <PUBCHEM_COMPOUND_CID>
108175

> <PUBCHEM_CONFORMER_RMSD>
0.6

> <PUBCHEM_CONFORMER_DIVERSEORDER>
3
7
14
6
12
5
1
9
11
10
2
8
13
4

> <PUBCHEM_MMFF94_PARTIAL_CHARGES>
28
1 -0.56
10 0.54
11 0.28
12 0.28
13 0.28
14 0.28
15 -0.03
16 0.04
17 0.23
18 0.19
19 0.4
2 -0.68
20 -0.3
21 0.08
28 0.15
29 0.4
3 -0.68
30 0.4
31 0.4
32 0.06
33 0.15
34 0.15
4 -0.68
5 0.05
6 -0.57
7 -0.58
8 0.29
9 -0.57

> <PUBCHEM_EFFECTIVE_ROTOR_COUNT>
3

> <PUBCHEM_PHARMACOPHORE_FEATURES>
14
1 1 acceptor
1 2 acceptor
1 2 donor
1 3 acceptor
1 3 donor
1 4 acceptor
1 4 donor
3 5 6 16 cation
3 7 8 19 cation
3 8 9 18 cation
5 1 10 11 12 13 rings
5 5 6 15 16 17 rings
5 8 9 18 20 21 rings
6 7 8 15 17 18 19 rings

> <PUBCHEM_HEAVY_ATOM_COUNT>
21

> <PUBCHEM_ATOM_DEF_STEREO_COUNT>
4

> <PUBCHEM_ATOM_UDEF_STEREO_COUNT>
0

> <PUBCHEM_BOND_DEF_STEREO_COUNT>
0

> <PUBCHEM_BOND_UDEF_STEREO_COUNT>
0

> <PUBCHEM_ISOTOPIC_ATOM_COUNT>
0

> <PUBCHEM_COMPONENT_COUNT>
1

> <PUBCHEM_CACTVS_TAUTO_COUNT>
1

> <PUBCHEM_CONFORMER_ID>
0001A68F00000003

> <PUBCHEM_MMFF94_ENERGY>
48.721

> <PUBCHEM_FEATURE_SELFOVERLAP>
71.437

> <PUBCHEM_SHAPE_FINGERPRINT>
11132069 177 18333731342912359109
12236239 1 16805321106438962132
12403259 226 18410286986889346709
12403259 415 18260824873978619557
12403260 363 18412258402647663637
12507560 14 18060136510034795150
13134695 92 17632283550439750272
13675066 3 18186804711814555803
14866123 147 17046835149525341722
15196674 1 18408886243799022453
15536298 74 18410009927144193610
15848702 151 17774730766201048799
17349148 13 17131836447516001738
17802600 8 18410290289808523771
17804303 29 18408887308602791286
1813 80 16805322205892529231
18186145 218 18343868800917167369
19591789 44 18409165489492930459
200 152 17775563126710275919
20510252 161 18411138039291782569
20645477 70 18272375256819302366
21065198 57 18411981390368885353
21267235 1 18335991878062108154
21279426 13 18266457607675707133
21682296 61 18057328279706849518
23402539 116 18411130355769090719
23559900 14 18409449198094773500
3004659 81 18187933812305938622
3286 77 18343019973603482484
335352 9 18337671906423186127
350125 39 18335422301016087389
351380 180 18413103957317750759
3545911 37 18409730699052635220
4214541 1 18336546023395629421
474 4 16227465190403580660
495365 180 17489016175933129992
5104073 3 18409450284558021793
59755656 215 18116430345762188887
633830 44 18261385654925992439
69090 78 18272929457665820319
7364860 26 18267018354237604467
77779 3 18409449193467581141
9709674 26 18336269024012601258

> <PUBCHEM_SHAPE_MULTIPOLES>
383.79
10.26
2.19
0.81
2.85
0.04
0.06
1.12
0
-1.62
0.12
-0.35
-0.16
0.73

> <PUBCHEM_SHAPE_SELFOVERLAP>
857.757

> <PUBCHEM_SHAPE_VOLUME>
204.7

> <PUBCHEM_COORDINATE_TYPE>
2
5
10

$$$$
