108158
  -OEChem-03292013323D

 40 39  0     1  0  0  0  0  0999 V2000
    2.3967    4.9000    0.2193 Cl  0  0  0  0  0  0  0  0  0  0  0  0
    1.7075    2.0468    0.0649 S   0  0  0  0  0  0  0  0  0  0  0  0
   -1.5400   -0.7635   -2.1466 O   0  0  0  0  0  0  0  0  0  0  0  0
    1.8575   -1.5939    1.0933 O   0  0  0  0  0  0  0  0  0  0  0  0
   -4.6090    0.3325    2.2606 O   0  0  0  0  0  0  0  0  0  0  0  0
   -5.8569    1.4204    0.7113 O   0  0  0  0  0  0  0  0  0  0  0  0
    4.8250    0.3503    0.6809 O   0  0  0  0  0  0  0  0  0  0  0  0
    6.3370   -1.2126    1.3284 O   0  0  0  0  0  0  0  0  0  0  0  0
   -0.2165   -0.5361   -0.2514 N   0  0  0  0  0  0  0  0  0  0  0  0
    3.3317   -1.3091   -0.6753 N   0  0  0  0  0  0  0  0  0  0  0  0
   -6.3742   -0.9955   -0.5107 N   0  0  0  0  0  0  0  0  0  0  0  0
    1.0613   -0.5061   -0.9246 C   0  0  1  0  0  0  0  0  0  0  0  0
   -3.9411   -0.7962   -0.7002 C   0  0  0  0  0  0  0  0  0  0  0  0
   -2.6019   -0.6563    0.0267 C   0  0  0  0  0  0  0  0  0  0  0  0
   -5.1348   -0.8631    0.2590 C   0  0  1  0  0  0  0  0  0  0  0  0
   -1.4205   -0.6637   -0.9286 C   0  0  0  0  0  0  0  0  0  0  0  0
    1.4680    0.9100   -1.3396 C   0  0  0  0  0  0  0  0  0  0  0  0
    2.0994   -1.2015   -0.0463 C   0  0  0  0  0  0  0  0  0  0  0  0
   -5.2615    0.4126    1.0717 C   0  0  0  0  0  0  0  0  0  0  0  0
    4.4817   -1.9075   -0.0387 C   0  0  0  0  0  0  0  0  0  0  0  0
    2.0758    3.5429   -0.8789 C   0  0  0  0  0  0  0  0  0  0  0  0
    5.3149   -0.9105    0.7247 C   0  0  0  0  0  0  0  0  0  0  0  0
    0.9671   -1.1108   -1.8365 H   0  0  0  0  0  0  0  0  0  0  0  0
   -3.9209   -1.7017   -1.3211 H   0  0  0  0  0  0  0  0  0  0  0  0
   -4.0580    0.0513   -1.3897 H   0  0  0  0  0  0  0  0  0  0  0  0
   -2.4734   -1.4809    0.7378 H   0  0  0  0  0  0  0  0  0  0  0  0
   -2.5632    0.2862    0.5842 H   0  0  0  0  0  0  0  0  0  0  0  0
   -5.0491   -1.7201    0.9363 H   0  0  0  0  0  0  0  0  0  0  0  0
   -0.2277   -0.4356    0.7599 H   0  0  0  0  0  0  0  0  0  0  0  0
    2.3955    0.8932   -1.9204 H   0  0  0  0  0  0  0  0  0  0  0  0
    0.6873    1.3344   -1.9812 H   0  0  0  0  0  0  0  0  0  0  0  0
    3.4427   -0.9754   -1.6276 H   0  0  0  0  0  0  0  0  0  0  0  0
   -7.1598   -1.1227    0.1265 H   0  0  0  0  0  0  0  0  0  0  0  0
   -6.3332   -1.8396   -1.0808 H   0  0  0  0  0  0  0  0  0  0  0  0
    5.0981   -2.3446   -0.8292 H   0  0  0  0  0  0  0  0  0  0  0  0
    4.1480   -2.6861    0.6537 H   0  0  0  0  0  0  0  0  0  0  0  0
    1.2266    3.8156   -1.5105 H   0  0  0  0  0  0  0  0  0  0  0  0
    2.9645    3.3953   -1.4977 H   0  0  0  0  0  0  0  0  0  0  0  0
   -4.6832    1.1644    2.7750 H   0  0  0  0  0  0  0  0  0  0  0  0
    5.3836    0.9794    1.1852 H   0  0  0  0  0  0  0  0  0  0  0  0
  1 21  1  0  0  0  0
  2 17  1  0  0  0  0
  2 21  1  0  0  0  0
  3 16  2  0  0  0  0
  4 18  2  0  0  0  0
  5 19  1  0  0  0  0
  5 39  1  0  0  0  0
  6 19  2  0  0  0  0
  7 22  1  0  0  0  0
  7 40  1  0  0  0  0
  8 22  2  0  0  0  0
  9 12  1  0  0  0  0
  9 16  1  0  0  0  0
  9 29  1  0  0  0  0
 10 18  1  0  0  0  0
 10 20  1  0  0  0  0
 10 32  1  0  0  0  0
 11 15  1  0  0  0  0
 11 33  1  0  0  0  0
 11 34  1  0  0  0  0
 12 17  1  0  0  0  0
 12 18  1  0  0  0  0
 12 23  1  0  0  0  0
 13 14  1  0  0  0  0
 13 15  1  0  0  0  0
 13 24  1  0  0  0  0
 13 25  1  0  0  0  0
 14 16  1  0  0  0  0
 14 26  1  0  0  0  0
 14 27  1  0  0  0  0
 15 19  1  0  0  0  0
 15 28  1  0  0  0  0
 17 30  1  0  0  0  0
 17 31  1  0  0  0  0
 20 22  1  0  0  0  0
 20 35  1  0  0  0  0
 20 36  1  0  0  0  0
 21 37  1  0  0  0  0
 21 38  1  0  0  0  0
M  END
> <PUBCHEM_COMPOUND_CID>
108158

> <PUBCHEM_CONFORMER_RMSD>
1

> <PUBCHEM_CONFORMER_DIVERSEORDER>
1
48
51
68
99
75
35
109
26
9
61
12
58
82
70
65
33
106
36
66
49
92
107
95
44
76
89
23
86
55
42
104
93
29
56
74
43
77
60
3
40
38
10
87
97
53
25
16
105
67
100
45
62
24
108
47
103
63
22
84
28
7
15
94
59
57
19
72
83
52
27
98
37
96
79
78
54
13
14
46
4
71
6
101
32
90
80
39
18
8
31
81
69
20
21
34
30
85
88
102
41
64
17
73
2
50
91
11
5

> <PUBCHEM_MMFF94_PARTIAL_CHARGES>
27
1 -0.29
10 -0.73
11 -0.99
12 0.36
14 0.06
15 0.33
16 0.57
17 0.23
18 0.57
19 0.66
2 -0.46
20 0.36
21 0.52
22 0.66
29 0.37
3 -0.57
32 0.37
33 0.36
34 0.36
39 0.5
4 -0.57
40 0.5
5 -0.65
6 -0.57
7 -0.65
8 -0.57
9 -0.73

> <PUBCHEM_EFFECTIVE_ROTOR_COUNT>
13

> <PUBCHEM_PHARMACOPHORE_FEATURES>
12
1 10 donor
1 11 cation
1 11 donor
1 3 acceptor
1 4 acceptor
1 5 acceptor
1 6 acceptor
1 7 acceptor
1 8 acceptor
1 9 donor
3 5 6 19 anion
3 7 8 22 anion

> <PUBCHEM_HEAVY_ATOM_COUNT>
22

> <PUBCHEM_ATOM_DEF_STEREO_COUNT>
2

> <PUBCHEM_ATOM_UDEF_STEREO_COUNT>
0

> <PUBCHEM_BOND_DEF_STEREO_COUNT>
0

> <PUBCHEM_BOND_UDEF_STEREO_COUNT>
0

> <PUBCHEM_ISOTOPIC_ATOM_COUNT>
0

> <PUBCHEM_COMPONENT_COUNT>
1

> <PUBCHEM_CACTVS_TAUTO_COUNT>
4

> <PUBCHEM_CONFORMER_ID>
0001A67E00000001

> <PUBCHEM_MMFF94_ENERGY>
29.6301

> <PUBCHEM_FEATURE_SELFOVERLAP>
61.017

> <PUBCHEM_SHAPE_FINGERPRINT>
11089746 13 18334011671480818703
11405975 8 18335427923550569835
12236239 1 18202562860998340239
12403259 118 18202570570981166069
12507557 5 18343305834538218497
12596602 18 18201718427562878115
12616971 3 18271540753627224689
13257819 101 14261345830527523648
13590594 115 18337113371364517504
13899415 154 18335989731506569980
14466204 15 18265335006425248817
14528608 73 9439399125225523638
14739800 52 17558825332669113241
14849402 71 18263649622530214004
14955137 171 18411706448211551022
15048467 5 17275377712524658834
15238133 3 18337966605351064933
15527383 91 18260547831159946143
17980427 23 17632286882759417660
17980427 26 17981034529908524700
1813 80 18340776940292737566
18785283 64 18115590503546460980
20281389 69 16702296845463133330
21033648 29 17631148823942247163
21041028 32 18409162191195489356
21304253 13 18413385432843444928
21521721 280 17603313665516013282
23622692 88 18201997737543333510
25147074 1 17915168229589483039
5104073 3 18263937690666274619
5895379 119 17273161049358523833
59755656 215 9871474244084025186
67856867 119 18270399511685945197
7495541 125 16081376258322118790

> <PUBCHEM_SHAPE_MULTIPOLES>
408.31
14.55
3.6
1.44
12.53
7.19
-0.08
-4.75
-6.22
-6.07
-0.05
0.73
-0.09
-1.63

> <PUBCHEM_SHAPE_SELFOVERLAP>
772.798

> <PUBCHEM_SHAPE_VOLUME>
252.5

> <PUBCHEM_COORDINATE_TYPE>
2
5
10

$$$$
