10811090
  -OEChem-03292013303D

 51 53  0     1  0  0  0  0  0999 V2000
    1.4579    1.8975    0.0263 O   0  0  0  0  0  0  0  0  0  0  0  0
   -0.7729    1.8429    1.6085 O   0  0  0  0  0  0  0  0  0  0  0  0
    0.1348    0.4198   -3.7226 O   0  0  0  0  0  0  0  0  0  0  0  0
   -1.9558    3.0455   -0.4485 O   0  0  0  0  0  0  0  0  0  0  0  0
    2.9548   -1.5954   -0.1762 O   0  0  0  0  0  0  0  0  0  0  0  0
   -3.3293    1.3607    1.6653 O   0  0  0  0  0  0  0  0  0  0  0  0
    6.1055    0.6718    1.2990 O   0  0  0  0  0  0  0  0  0  0  0  0
    4.4401   -2.8809   -1.3196 O   0  0  0  0  0  0  0  0  0  0  0  0
    0.6542    0.7052    0.0180 C   0  0  1  0  0  0  0  0  0  0  0  0
   -0.7990    1.0903    0.3976 C   0  0  2  0  0  0  0  0  0  0  0  0
    0.7355    0.1202   -1.4035 C   0  0  0  0  0  0  0  0  0  0  0  0
    0.1354    1.0641   -2.4521 C   0  0  2  0  0  0  0  0  0  0  0  0
    1.2997   -0.2611    1.0186 C   0  0  0  0  0  0  0  0  0  0  0  0
   -1.2945    1.4613   -2.1152 C   0  0  0  0  0  0  0  0  0  0  0  0
   -1.3870    1.9831   -0.6982 C   0  0  0  0  0  0  0  0  0  0  0  0
   -1.7316   -0.1060    0.6144 C   0  0  0  0  0  0  0  0  0  0  0  0
    2.7296   -0.5027    0.6970 C   0  0  0  0  0  0  0  0  0  0  0  0
   -3.1232    0.3299    1.0286 C   0  0  0  0  0  0  0  0  0  0  0  0
    3.7431    0.2309    1.1747 C   0  0  0  0  0  0  0  0  0  0  0  0
   -4.2787   -0.5334    0.6444 C   0  0  0  0  0  0  0  0  0  0  0  0
    5.0862   -0.1024    0.7895 C   0  0  0  0  0  0  0  0  0  0  0  0
    4.2220   -1.9395   -0.5641 C   0  0  0  0  0  0  0  0  0  0  0  0
   -4.0764   -1.8890    0.5221 C   0  0  0  0  0  0  0  0  0  0  0  0
   -5.5014    0.0598    0.4281 C   0  0  0  0  0  0  0  0  0  0  0  0
    5.3339   -1.1261   -0.0327 C   0  0  0  0  0  0  0  0  0  0  0  0
   -5.1561   -2.6959    0.1633 C   0  0  0  0  0  0  0  0  0  0  0  0
   -6.5811   -0.7472    0.0695 C   0  0  0  0  0  0  0  0  0  0  0  0
   -6.4084   -2.1250   -0.0629 C   0  0  0  0  0  0  0  0  0  0  0  0
    7.3626    0.2217    0.8307 C   0  0  0  0  0  0  0  0  0  0  0  0
    0.2408   -0.8582   -1.4533 H   0  0  0  0  0  0  0  0  0  0  0  0
    1.7705   -0.0515   -1.7212 H   0  0  0  0  0  0  0  0  0  0  0  0
    0.7574    1.9622   -2.5411 H   0  0  0  0  0  0  0  0  0  0  0  0
    0.7730   -1.2221    1.0449 H   0  0  0  0  0  0  0  0  0  0  0  0
    1.2331    0.1559    2.0322 H   0  0  0  0  0  0  0  0  0  0  0  0
   -1.9873    0.6208   -2.2330 H   0  0  0  0  0  0  0  0  0  0  0  0
   -1.6349    2.2385   -2.8094 H   0  0  0  0  0  0  0  0  0  0  0  0
   -1.3676   -0.7330    1.4363 H   0  0  0  0  0  0  0  0  0  0  0  0
   -1.7875   -0.7126   -0.2943 H   0  0  0  0  0  0  0  0  0  0  0  0
    2.2483    1.7565   -0.5210 H   0  0  0  0  0  0  0  0  0  0  0  0
   -0.1283    2.5628    1.4986 H   0  0  0  0  0  0  0  0  0  0  0  0
   -0.4047   -0.3861   -3.6512 H   0  0  0  0  0  0  0  0  0  0  0  0
    3.5800    1.0672    1.8453 H   0  0  0  0  0  0  0  0  0  0  0  0
   -3.1181   -2.3612    0.7116 H   0  0  0  0  0  0  0  0  0  0  0  0
   -5.6481    1.1314    0.5224 H   0  0  0  0  0  0  0  0  0  0  0  0
    6.3016   -1.4604   -0.3839 H   0  0  0  0  0  0  0  0  0  0  0  0
   -5.0231   -3.7693    0.0645 H   0  0  0  0  0  0  0  0  0  0  0  0
   -7.5561   -0.3028   -0.1078 H   0  0  0  0  0  0  0  0  0  0  0  0
   -7.2493   -2.7534   -0.3414 H   0  0  0  0  0  0  0  0  0  0  0  0
    8.1159    0.8822    1.2763 H   0  0  0  0  0  0  0  0  0  0  0  0
    7.4773    0.3390   -0.2537 H   0  0  0  0  0  0  0  0  0  0  0  0
    7.6112   -0.7855    1.1867 H   0  0  0  0  0  0  0  0  0  0  0  0
  1  9  1  0  0  0  0
  1 39  1  0  0  0  0
  2 10  1  0  0  0  0
  2 40  1  0  0  0  0
  3 12  1  0  0  0  0
  3 41  1  0  0  0  0
  4 15  2  0  0  0  0
  5 17  1  0  0  0  0
  5 22  1  0  0  0  0
  6 18  2  0  0  0  0
  7 21  1  0  0  0  0
  7 29  1  0  0  0  0
  8 22  2  0  0  0  0
  9 10  1  0  0  0  0
  9 11  1  0  0  0  0
  9 13  1  0  0  0  0
 10 15  1  0  0  0  0
 10 16  1  0  0  0  0
 11 12  1  0  0  0  0
 11 30  1  0  0  0  0
 11 31  1  0  0  0  0
 12 14  1  0  0  0  0
 12 32  1  0  0  0  0
 13 17  1  0  0  0  0
 13 33  1  0  0  0  0
 13 34  1  0  0  0  0
 14 15  1  0  0  0  0
 14 35  1  0  0  0  0
 14 36  1  0  0  0  0
 16 18  1  0  0  0  0
 16 37  1  0  0  0  0
 16 38  1  0  0  0  0
 17 19  2  0  0  0  0
 18 20  1  0  0  0  0
 19 21  1  0  0  0  0
 19 42  1  0  0  0  0
 20 23  2  0  0  0  0
 20 24  1  0  0  0  0
 21 25  2  0  0  0  0
 22 25  1  0  0  0  0
 23 26  1  0  0  0  0
 23 43  1  0  0  0  0
 24 27  2  0  0  0  0
 24 44  1  0  0  0  0
 25 45  1  0  0  0  0
 26 28  2  0  0  0  0
 26 46  1  0  0  0  0
 27 28  1  0  0  0  0
 27 47  1  0  0  0  0
 28 48  1  0  0  0  0
 29 49  1  0  0  0  0
 29 50  1  0  0  0  0
 29 51  1  0  0  0  0
M  END
> <PUBCHEM_COMPOUND_CID>
10811090

> <PUBCHEM_CONFORMER_RMSD>
0.8

> <PUBCHEM_CONFORMER_DIVERSEORDER>
1
47
33
29
50
53
10
12
44
19
58
43
23
42
15
32
61
20
18
36
13
27
57
40
17
31
49
48
41
11
6
35
34
55
7
37
56
54
39
22
4
52
60
51
24
21
26
14
8
16
46
30
59
28
38
25
5
2
45
3
9

> <PUBCHEM_MMFF94_PARTIAL_CHARGES>
38
1 -0.68
10 0.34
12 0.28
13 0.14
14 0.06
15 0.45
16 0.06
17 -0.06
18 0.42
19 -0.15
2 -0.68
20 0.09
21 0.08
22 0.71
23 -0.15
24 -0.15
25 -0.14
26 -0.15
27 -0.15
28 -0.15
29 0.28
3 -0.68
39 0.4
4 -0.57
40 0.4
41 0.4
42 0.15
43 0.15
44 0.15
45 0.15
46 0.15
47 0.15
48 0.15
5 -0.23
6 -0.57
7 -0.36
8 -0.57
9 0.28

> <PUBCHEM_EFFECTIVE_ROTOR_COUNT>
7

> <PUBCHEM_PHARMACOPHORE_FEATURES>
13
1 1 acceptor
1 1 donor
1 2 acceptor
1 2 donor
1 3 acceptor
1 3 donor
1 4 acceptor
1 6 acceptor
1 7 acceptor
1 8 acceptor
6 20 23 24 26 27 28 rings
6 5 17 19 21 22 25 rings
6 9 10 11 12 14 15 rings

> <PUBCHEM_HEAVY_ATOM_COUNT>
29

> <PUBCHEM_ATOM_DEF_STEREO_COUNT>
3

> <PUBCHEM_ATOM_UDEF_STEREO_COUNT>
0

> <PUBCHEM_BOND_DEF_STEREO_COUNT>
0

> <PUBCHEM_BOND_UDEF_STEREO_COUNT>
0

> <PUBCHEM_ISOTOPIC_ATOM_COUNT>
0

> <PUBCHEM_COMPONENT_COUNT>
1

> <PUBCHEM_CACTVS_TAUTO_COUNT>
4

> <PUBCHEM_CONFORMER_ID>
00A4F6D200000001

> <PUBCHEM_MMFF94_ENERGY>
92.2871

> <PUBCHEM_FEATURE_SELFOVERLAP>
66.008

> <PUBCHEM_SHAPE_FINGERPRINT>
10042902 136 18337120033190979687
10692045 39 11023561133608593204
10930396 42 16589692665077596952
11115154 58 17749380487126992989
11135609 201 17845073247444943744
11135609 99 18267584804673904507
11497681 19 18260544511910511794
12293681 160 13840258187063098045
12373685 5 16056598704715166271
12422481 6 16128380320195169661
12516196 113 18342738533128688539
12596602 18 17489875912158396130
12623949 98 17775017738973691414
12633257 1 14333116477425788043
12788726 201 15213562482568711621
13009979 54 18187662327280376377
13583140 156 18059845139100208072
13782708 43 18263085406067979018
13914758 101 10881392137280530876
14068700 675 17967529099286912149
14294032 229 16010420241717403564
1454969 45 18336551620391968436
14556957 393 15792019926450225654
14910302 57 17969784064792168246
14955137 171 17489592277177216664
15183329 4 12251893789672489690
15461852 350 17022895715367272246
15537594 2 16845282835766597806
16992727 255 14924766927692057599
17349148 13 14635157768353885576
1813 80 17821451257037693607
18222031 100 17749395849428171894
20567600 254 11671789256457082963
20715895 44 12179843909722918618
21304303 282 14057822869419310069
21424621 283 10159700191876658231
21756936 100 10519985955017382969
21792961 116 14056715729998486953
22224240 67 14836403657749698987
23402539 116 16588022381405482752
23559900 14 18271799160218706913
23569914 2 11822082827761229639
249057 3 17822006554520267339
2838139 119 7925914764132625339
3004659 81 18114177579754773011
3009799 131 15213013877758267744
3383291 50 18188778365953708899
340366 18 17386294319499678755
4098825 35 11674885497779252739
4280585 95 17313099799803647027
4325135 7 18260267469455347704
465052 167 17489874842547794034
469060 322 17603585214296107270
5081480 168 16298667287296547759
5104073 3 17987231145545720842
5969126 39 16950551178015117740
59755656 520 12031788063256688569
613672 6 17385736780529655122
6913067 236 17458622307455963122

> <PUBCHEM_SHAPE_MULTIPOLES>
549.85
15.68
2.53
1.94
4.1
0.14
1.65
10.77
-4.09
-1.67
0.82
0.7
-0.88
0.69

> <PUBCHEM_SHAPE_SELFOVERLAP>
1187.089

> <PUBCHEM_SHAPE_VOLUME>
297.8

> <PUBCHEM_COORDINATE_TYPE>
2
5
10

$$$$
