10810506
  -OEChem-03292013303D

 52 57  0     1  0  0  0  0  0999 V2000
   -0.2714   -0.0863   -1.1178 O   0  0  0  0  0  0  0  0  0  0  0  0
    0.2684   -0.9089    1.1091 O   0  0  0  0  0  0  0  0  0  0  0  0
   -3.8345    1.9718    0.7884 O   0  0  0  0  0  0  0  0  0  0  0  0
   -2.8250   -1.1183   -1.9130 O   0  0  0  0  0  0  0  0  0  0  0  0
    3.8240   -0.3831    0.4291 O   0  0  0  0  0  0  0  0  0  0  0  0
    2.0484   -2.0902    2.0580 O   0  0  0  0  0  0  0  0  0  0  0  0
   -2.4082    3.7003    0.1617 O   0  0  0  0  0  0  0  0  0  0  0  0
    5.5548    0.9217   -0.3299 O   0  0  0  0  0  0  0  0  0  0  0  0
   -2.2026    0.3448    0.8317 C   0  0  1  0  0  0  0  0  0  0  0  0
   -1.9611   -1.0924    0.3814 C   0  0  1  0  0  0  0  0  0  0  0  0
   -1.8751    1.3583   -0.2504 C   0  0  2  0  0  0  0  0  0  0  0  0
   -3.1681   -1.3619   -0.5512 C   0  0  1  0  0  0  0  0  0  0  0  0
   -0.5007   -1.1011   -0.1135 C   0  0  1  0  0  0  0  0  0  0  0  0
   -3.6771    0.5470    0.9834 C   0  0  2  0  0  0  0  0  0  0  0  0
   -0.4375    1.2801   -0.6984 C   0  0  1  0  0  0  0  0  0  0  0  0
   -4.2889   -0.3584   -0.1024 C   0  0  0  0  0  0  0  0  0  0  0  0
    0.7231    1.7176    0.2125 C   0  0  0  0  0  0  0  0  0  0  0  0
    2.0417    0.9937   -0.1778 C   0  0  2  0  0  0  0  0  0  0  0  0
    1.6042   -1.3859    0.8917 C   0  0  2  0  0  0  0  0  0  0  0  0
    2.4665   -0.1148    0.7877 C   0  0  1  0  0  0  0  0  0  0  0  0
   -2.6643    2.5146    0.2613 C   0  0  0  0  0  0  0  0  0  0  0  0
    0.1593   -2.2941   -0.7004 C   0  0  0  0  0  0  0  0  0  0  0  0
   -3.6340   -2.8137   -0.4555 C   0  0  0  0  0  0  0  0  0  0  0  0
    1.4194   -2.3504   -0.2426 C   0  0  0  0  0  0  0  0  0  0  0  0
    3.3028    1.8551   -0.1311 C   0  0  1  0  0  0  0  0  0  0  0  0
    4.3753    0.7845   -0.0444 C   0  0  0  0  0  0  0  0  0  0  0  0
    2.4930   -3.2655   -0.7098 C   0  0  0  0  0  0  0  0  0  0  0  0
    3.4676    2.7354   -1.3578 C   0  0  0  0  0  0  0  0  0  0  0  0
   -1.6811    0.5873    1.7671 H   0  0  0  0  0  0  0  0  0  0  0  0
   -2.0547   -1.7322    1.2710 H   0  0  0  0  0  0  0  0  0  0  0  0
   -2.4255    1.1306   -1.1765 H   0  0  0  0  0  0  0  0  0  0  0  0
   -4.0371    0.2740    1.9807 H   0  0  0  0  0  0  0  0  0  0  0  0
   -0.3402    1.8788   -1.6136 H   0  0  0  0  0  0  0  0  0  0  0  0
   -5.1440   -0.8921    0.3285 H   0  0  0  0  0  0  0  0  0  0  0  0
   -4.6654    0.2299   -0.9470 H   0  0  0  0  0  0  0  0  0  0  0  0
    0.4840    1.5416    1.2666 H   0  0  0  0  0  0  0  0  0  0  0  0
    0.8341    2.8047    0.1189 H   0  0  0  0  0  0  0  0  0  0  0  0
    1.9781    0.5840   -1.1954 H   0  0  0  0  0  0  0  0  0  0  0  0
    2.5047    0.3295    1.7956 H   0  0  0  0  0  0  0  0  0  0  0  0
   -0.2330   -2.8911   -1.5101 H   0  0  0  0  0  0  0  0  0  0  0  0
   -4.4767   -2.9937   -1.1324 H   0  0  0  0  0  0  0  0  0  0  0  0
   -2.8376   -3.5031   -0.7570 H   0  0  0  0  0  0  0  0  0  0  0  0
   -3.9467   -3.0729    0.5612 H   0  0  0  0  0  0  0  0  0  0  0  0
    3.3441    2.4565    0.7848 H   0  0  0  0  0  0  0  0  0  0  0  0
   -2.1705   -1.7814   -2.1882 H   0  0  0  0  0  0  0  0  0  0  0  0
    2.8418   -3.9021    0.1089 H   0  0  0  0  0  0  0  0  0  0  0  0
    3.3434   -2.6935   -1.0928 H   0  0  0  0  0  0  0  0  0  0  0  0
    2.1408   -3.9190   -1.5147 H   0  0  0  0  0  0  0  0  0  0  0  0
    2.4040   -1.4610    2.7061 H   0  0  0  0  0  0  0  0  0  0  0  0
    2.6381    3.4430   -1.4508 H   0  0  0  0  0  0  0  0  0  0  0  0
    4.3977    3.3106   -1.2957 H   0  0  0  0  0  0  0  0  0  0  0  0
    3.5158    2.1401   -2.2764 H   0  0  0  0  0  0  0  0  0  0  0  0
  1 13  1  0  0  0  0
  1 15  1  0  0  0  0
  2 13  1  0  0  0  0
  2 19  1  0  0  0  0
  3 14  1  0  0  0  0
  3 21  1  0  0  0  0
  4 12  1  0  0  0  0
  4 45  1  0  0  0  0
  5 20  1  0  0  0  0
  5 26  1  0  0  0  0
  6 19  1  0  0  0  0
  6 49  1  0  0  0  0
  7 21  2  0  0  0  0
  8 26  2  0  0  0  0
  9 10  1  0  0  0  0
  9 11  1  0  0  0  0
  9 14  1  0  0  0  0
  9 29  1  0  0  0  0
 10 12  1  0  0  0  0
 10 13  1  0  0  0  0
 10 30  1  0  0  0  0
 11 15  1  0  0  0  0
 11 21  1  0  0  0  0
 11 31  1  0  0  0  0
 12 16  1  0  0  0  0
 12 23  1  0  0  0  0
 13 22  1  0  0  0  0
 14 16  1  0  0  0  0
 14 32  1  0  0  0  0
 15 17  1  0  0  0  0
 15 33  1  0  0  0  0
 16 34  1  0  0  0  0
 16 35  1  0  0  0  0
 17 18  1  0  0  0  0
 17 36  1  0  0  0  0
 17 37  1  0  0  0  0
 18 20  1  0  0  0  0
 18 25  1  0  0  0  0
 18 38  1  0  0  0  0
 19 20  1  0  0  0  0
 19 24  1  0  0  0  0
 20 39  1  0  0  0  0
 22 24  2  0  0  0  0
 22 40  1  0  0  0  0
 23 41  1  0  0  0  0
 23 42  1  0  0  0  0
 23 43  1  0  0  0  0
 24 27  1  0  0  0  0
 25 26  1  0  0  0  0
 25 28  1  0  0  0  0
 25 44  1  0  0  0  0
 27 46  1  0  0  0  0
 27 47  1  0  0  0  0
 27 48  1  0  0  0  0
 28 50  1  0  0  0  0
 28 51  1  0  0  0  0
 28 52  1  0  0  0  0
M  END
> <PUBCHEM_COMPOUND_CID>
10810506

> <PUBCHEM_CONFORMER_RMSD>
0.6

> <PUBCHEM_CONFORMER_DIVERSEORDER>
1

> <PUBCHEM_MMFF94_PARTIAL_CHARGES>
24
1 -0.56
11 0.06
12 0.28
13 0.7
14 0.28
15 0.28
19 0.7
2 -0.56
20 0.28
21 0.66
22 -0.29
24 -0.28
25 0.06
26 0.66
27 0.14
3 -0.43
4 -0.68
40 0.15
45 0.4
49 0.4
5 -0.43
6 -0.68
7 -0.57
8 -0.57

> <PUBCHEM_EFFECTIVE_ROTOR_COUNT>
1.6

> <PUBCHEM_PHARMACOPHORE_FEATURES>
13
1 1 acceptor
1 2 acceptor
1 4 acceptor
1 4 donor
1 6 acceptor
1 6 donor
1 7 acceptor
1 8 acceptor
5 2 13 19 22 24 rings
5 3 9 11 14 21 rings
5 5 18 20 25 26 rings
5 9 10 12 14 16 rings
6 1 9 10 11 13 15 rings

> <PUBCHEM_HEAVY_ATOM_COUNT>
28

> <PUBCHEM_ATOM_DEF_STEREO_COUNT>
11

> <PUBCHEM_ATOM_UDEF_STEREO_COUNT>
0

> <PUBCHEM_BOND_DEF_STEREO_COUNT>
0

> <PUBCHEM_BOND_UDEF_STEREO_COUNT>
0

> <PUBCHEM_ISOTOPIC_ATOM_COUNT>
0

> <PUBCHEM_COMPONENT_COUNT>
1

> <PUBCHEM_CACTVS_TAUTO_COUNT>
2

> <PUBCHEM_CONFORMER_ID>
00A4F48A00000001

> <PUBCHEM_MMFF94_ENERGY>
120.2784

> <PUBCHEM_FEATURE_SELFOVERLAP>
66.827

> <PUBCHEM_SHAPE_FINGERPRINT>
10411042 1 17547571943218631510
10616163 171 18411983563516783569
10670039 82 18337120072214853372
10863032 1 18200875080268077722
10871710 139 18267871755786314501
10948715 1 18410017649832846136
1100329 8 17907298749748937402
11135609 187 17828200235851308317
11513181 2 17841711807711242053
12035759 4 18198043953996562711
12173636 292 18269272546584982948
12422481 6 18122040037355528874
12553582 1 18340756157003903611
12633257 1 17828195502401131024
12788726 201 18125174971901456948
13140716 1 18047196529053375993
13224815 77 18410009918575215239
13911987 19 18048313645968467639
14223421 5 18410296887099921027
14251751 93 18342177760745155308
14251757 17 17558859228962073916
14787075 74 17826792839287092355
14790565 3 18339088210291215388
14955137 171 17906743853292375307
15219462 58 16343423908183969259
16752209 62 18272079547793166036
16945 1 18411979199882946795
17349148 13 18041554853281577642
17492 89 18411137987910807283
19591789 44 18196090160377654196
20600515 1 16908635363850256238
20691752 17 17313958398078265962
20905425 154 18342179946777656647
21033648 29 14851874907038590348
21501502 16 18338227168179542427
21524375 3 18335420235637906514
23227448 37 18339924818680795565
23366157 5 18188778240892610862
23558518 356 18334298643076827122
23559900 14 18056757633161113639
23566358 27 18339369573566907270
25147074 1 18339913840744555819
2748010 2 16898479118798086750
34934 24 18409730638891327601
350125 39 18412546496137354904
392239 28 18041576835277783403
474 4 18114184167796618464
59755656 215 18412549798972474293
6034566 193 16158514901877304028
6287921 2 18410022013366735878
7097593 13 17827061914508623211
9709674 26 18336272245153307187

> <PUBCHEM_SHAPE_MULTIPOLES>
529.27
8.16
3.67
1.19
3.05
0.12
0.04
2.17
-0.36
-0.26
-0.49
0.05
-0.31
-1.41

> <PUBCHEM_SHAPE_SELFOVERLAP>
1191.452

> <PUBCHEM_SHAPE_VOLUME>
276.6

> <PUBCHEM_COORDINATE_TYPE>
2
5
10

$$$$
