10836384
  -OEChem-03292013303D

 57 58  0     1  0  0  0  0  0999 V2000
   -3.8378   -0.0140    1.6327 O   0  0  0  0  0  0  0  0  0  0  0  0
   -2.3253   -1.3002   -1.5847 O   0  0  0  0  0  0  0  0  0  0  0  0
    2.1079   -1.2985    0.2340 O   0  0  0  0  0  0  0  0  0  0  0  0
    0.8001   -3.4048   -1.2488 O   0  0  0  0  0  0  0  0  0  0  0  0
   -5.9038   -0.1397    0.6066 O   0  0  0  0  0  0  0  0  0  0  0  0
    0.2743   -2.0016   -2.9579 O   0  0  0  0  0  0  0  0  0  0  0  0
    2.1594    0.3494   -1.9967 O   0  0  0  0  0  0  0  0  0  0  0  0
    4.9118   -0.9251    3.1682 O   0  0  0  0  0  0  0  0  0  0  0  0
   -3.4002    2.0226    0.4154 C   0  0  0  0  0  0  0  0  0  0  0  0
   -2.8927    2.7256   -0.8586 C   0  0  0  0  0  0  0  0  0  0  0  0
   -3.2618    0.4902    0.4245 C   0  0  1  0  0  0  0  0  0  0  0  0
   -1.8341    0.0009    0.3556 C   0  0  0  0  0  0  0  0  0  0  0  0
   -3.0143    4.2474   -0.7700 C   0  0  0  0  0  0  0  0  0  0  0  0
   -3.6727    2.2168   -2.0741 C   0  0  0  0  0  0  0  0  0  0  0  0
   -1.4266   -0.8761   -0.6496 C   0  0  0  0  0  0  0  0  0  0  0  0
   -0.9190    0.4371    1.3138 C   0  0  0  0  0  0  0  0  0  0  0  0
   -0.1040   -1.3167   -0.6968 C   0  0  0  0  0  0  0  0  0  0  0  0
    0.8110   -0.8804    0.2612 C   0  0  0  0  0  0  0  0  0  0  0  0
    0.4036   -0.0034    1.2666 C   0  0  0  0  0  0  0  0  0  0  0  0
   -5.1731   -0.2860    1.5771 C   0  0  0  0  0  0  0  0  0  0  0  0
    0.3241   -2.2330   -1.7479 C   0  0  0  0  0  0  0  0  0  0  0  0
    3.0909   -0.3333    0.1017 C   0  0  0  0  0  0  0  0  0  0  0  0
   -5.6355   -0.8039    2.9053 C   0  0  0  0  0  0  0  0  0  0  0  0
   -3.0533   -2.4891   -1.2883 C   0  0  0  0  0  0  0  0  0  0  0  0
    4.0648   -0.1800    1.0886 C   0  0  0  0  0  0  0  0  0  0  0  0
    3.1046    0.4884   -1.0254 C   0  0  0  0  0  0  0  0  0  0  0  0
    5.0660    1.6166   -0.1790 C   0  0  0  0  0  0  0  0  0  0  0  0
    5.0523    0.7949    0.9482 C   0  0  0  0  0  0  0  0  0  0  0  0
    4.0921    1.4633   -1.1657 C   0  0  0  0  0  0  0  0  0  0  0  0
    6.1218    2.6593   -0.3292 C   0  0  0  0  0  0  0  0  0  0  0  0
    4.0696   -1.0269    2.2734 C   0  0  0  0  0  0  0  0  0  0  0  0
   -2.8922    2.4510    1.2892 H   0  0  0  0  0  0  0  0  0  0  0  0
   -4.4573    2.2823    0.5659 H   0  0  0  0  0  0  0  0  0  0  0  0
   -1.8317    2.4904   -1.0054 H   0  0  0  0  0  0  0  0  0  0  0  0
   -3.8242    0.0924   -0.4242 H   0  0  0  0  0  0  0  0  0  0  0  0
   -2.6226    4.7250   -1.6742 H   0  0  0  0  0  0  0  0  0  0  0  0
   -2.4457    4.6301    0.0840 H   0  0  0  0  0  0  0  0  0  0  0  0
   -4.0582    4.5553   -0.6469 H   0  0  0  0  0  0  0  0  0  0  0  0
   -4.7535    2.3181   -1.9276 H   0  0  0  0  0  0  0  0  0  0  0  0
   -3.4031    2.7871   -2.9702 H   0  0  0  0  0  0  0  0  0  0  0  0
   -3.4507    1.1693   -2.2934 H   0  0  0  0  0  0  0  0  0  0  0  0
   -1.2172    1.1082    2.1142 H   0  0  0  0  0  0  0  0  0  0  0  0
    1.0979    0.3370    2.0301 H   0  0  0  0  0  0  0  0  0  0  0  0
   -5.1049   -1.7281    3.1475 H   0  0  0  0  0  0  0  0  0  0  0  0
   -6.7067   -1.0192    2.8575 H   0  0  0  0  0  0  0  0  0  0  0  0
   -5.4662   -0.0486    3.6769 H   0  0  0  0  0  0  0  0  0  0  0  0
   -2.3892   -3.3584   -1.3108 H   0  0  0  0  0  0  0  0  0  0  0  0
   -3.5434   -2.4225   -0.3119 H   0  0  0  0  0  0  0  0  0  0  0  0
   -3.8220   -2.6187   -2.0551 H   0  0  0  0  0  0  0  0  0  0  0  0
    5.8185    0.9236    1.7092 H   0  0  0  0  0  0  0  0  0  0  0  0
    4.1049    2.1033   -2.0449 H   0  0  0  0  0  0  0  0  0  0  0  0
    1.0866   -4.0156   -1.9610 H   0  0  0  0  0  0  0  0  0  0  0  0
    7.0008    2.2350   -0.8244 H   0  0  0  0  0  0  0  0  0  0  0  0
    5.7609    3.5068   -0.9218 H   0  0  0  0  0  0  0  0  0  0  0  0
    6.4247    3.0568    0.6454 H   0  0  0  0  0  0  0  0  0  0  0  0
    3.2773   -1.7889    2.3556 H   0  0  0  0  0  0  0  0  0  0  0  0
    2.3246    1.0039   -2.6968 H   0  0  0  0  0  0  0  0  0  0  0  0
  1 11  1  0  0  0  0
  1 20  1  0  0  0  0
  2 15  1  0  0  0  0
  2 24  1  0  0  0  0
  3 18  1  0  0  0  0
  3 22  1  0  0  0  0
  4 21  1  0  0  0  0
  4 52  1  0  0  0  0
  5 20  2  0  0  0  0
  6 21  2  0  0  0  0
  7 26  1  0  0  0  0
  7 57  1  0  0  0  0
  8 31  2  0  0  0  0
  9 10  1  0  0  0  0
  9 11  1  0  0  0  0
  9 32  1  0  0  0  0
  9 33  1  0  0  0  0
 10 13  1  0  0  0  0
 10 14  1  0  0  0  0
 10 34  1  0  0  0  0
 11 12  1  0  0  0  0
 11 35  1  0  0  0  0
 12 15  2  0  0  0  0
 12 16  1  0  0  0  0
 13 36  1  0  0  0  0
 13 37  1  0  0  0  0
 13 38  1  0  0  0  0
 14 39  1  0  0  0  0
 14 40  1  0  0  0  0
 14 41  1  0  0  0  0
 15 17  1  0  0  0  0
 16 19  2  0  0  0  0
 16 42  1  0  0  0  0
 17 18  2  0  0  0  0
 17 21  1  0  0  0  0
 18 19  1  0  0  0  0
 19 43  1  0  0  0  0
 20 23  1  0  0  0  0
 22 25  2  0  0  0  0
 22 26  1  0  0  0  0
 23 44  1  0  0  0  0
 23 45  1  0  0  0  0
 23 46  1  0  0  0  0
 24 47  1  0  0  0  0
 24 48  1  0  0  0  0
 24 49  1  0  0  0  0
 25 28  1  0  0  0  0
 25 31  1  0  0  0  0
 26 29  2  0  0  0  0
 27 28  2  0  0  0  0
 27 29  1  0  0  0  0
 27 30  1  0  0  0  0
 28 50  1  0  0  0  0
 29 51  1  0  0  0  0
 30 53  1  0  0  0  0
 30 54  1  0  0  0  0
 30 55  1  0  0  0  0
 31 56  1  0  0  0  0
M  END
> <PUBCHEM_COMPOUND_CID>
10836384

> <PUBCHEM_CONFORMER_RMSD>
1

> <PUBCHEM_CONFORMER_DIVERSEORDER>
1
111
63
108
93
99
32
101
105
79
61
29
100
89
24
88
40
66
109
92
49
59
48
96
53
87
80
42
103
70
8
38
71
36
7
91
31
107
27
52
75
72
41
46
51
84
23
21
86
37
56
67
43
39
65
102
9
69
78
34
94
18
45
57
110
22
104
97
58
85
82
15
106
44
76
98
50
54
33
73
60
5
17
77
20
68
64
13
30
25
28
2
90
11
10
81
26
4
35
95
14
62
16
6
83
47
12
74
19
3
55

> <PUBCHEM_MMFF94_PARTIAL_CHARGES>
34
1 -0.43
11 0.42
12 -0.14
15 0.08
16 -0.15
17 0.09
18 0.08
19 -0.15
2 -0.36
20 0.66
21 0.63
22 0.08
23 0.06
24 0.28
25 0.09
26 0.08
27 -0.14
28 -0.15
29 -0.15
3 -0.17
30 0.14
31 0.42
4 -0.65
42 0.15
43 0.15
5 -0.57
50 0.15
51 0.15
52 0.5
56 0.06
57 0.45
6 -0.57
7 -0.53
8 -0.57

> <PUBCHEM_EFFECTIVE_ROTOR_COUNT>
10

> <PUBCHEM_PHARMACOPHORE_FEATURES>
11
1 2 acceptor
1 3 acceptor
1 4 acceptor
1 5 acceptor
1 6 acceptor
1 7 donor
1 8 acceptor
3 10 13 14 hydrophobe
3 4 6 21 anion
6 12 15 16 17 18 19 rings
6 22 25 26 27 28 29 rings

> <PUBCHEM_HEAVY_ATOM_COUNT>
31

> <PUBCHEM_ATOM_DEF_STEREO_COUNT>
0

> <PUBCHEM_ATOM_UDEF_STEREO_COUNT>
1

> <PUBCHEM_BOND_DEF_STEREO_COUNT>
0

> <PUBCHEM_BOND_UDEF_STEREO_COUNT>
0

> <PUBCHEM_ISOTOPIC_ATOM_COUNT>
0

> <PUBCHEM_COMPONENT_COUNT>
1

> <PUBCHEM_CACTVS_TAUTO_COUNT>
9

> <PUBCHEM_CONFORMER_ID>
00A559A000000001

> <PUBCHEM_MMFF94_ENERGY>
103.3219

> <PUBCHEM_FEATURE_SELFOVERLAP>
55.884

> <PUBCHEM_SHAPE_FINGERPRINT>
10165383 225 17845950592587131833
10369192 42 17916883394451085997
11135609 201 17315649654059973276
11578080 2 17983597225309189465
12160290 23 17701518817813547470
12403259 118 18262790766182549816
12403814 3 18410015438283371745
12422481 6 18338515227209041013
12596602 18 17167578310702632864
12788726 201 17979343480951521358
12892183 10 17748827419101833560
13583140 156 18115015308471999611
13726171 33 17557717042840126704
13911987 19 18060136539830898321
14294032 229 18273493481693310149
14790565 3 17274280377980955729
14840074 17 18340214097529167717
14950920 106 17531236219653921344
15183329 4 11959467647400905787
15361156 5 15267064795960049656
17349148 13 15285940073382008865
18222031 100 13840270290359741394
19377110 9 18260826054989079098
20505436 4 18264494052451314250
20715895 44 17685764736180725933
21756936 100 18263367065806495282
22182313 1 18126294043189431455
23559900 14 17904769877558872531
392239 28 17531826756398809577
469060 322 18341891939857477855
5104073 3 17749384824200138080
5252454 2 17775290447410077038
57527293 21 18340214003472397715
59755656 520 17275113824731896767
6523845 18 18059868246319276638
6913067 236 18341894083045989247
7399639 24 18338817619325407823
77296 10 17386003923474701777
9981440 41 18050549769710736417

> <PUBCHEM_SHAPE_MULTIPOLES>
591.01
12.76
3.32
2.58
3.68
2.66
0.21
5.08
7.33
-1.72
-1.74
-0.55
-1.72
-0.08

> <PUBCHEM_SHAPE_SELFOVERLAP>
1251.963

> <PUBCHEM_SHAPE_VOLUME>
330.8

> <PUBCHEM_COORDINATE_TYPE>
2
5
10

$$$$
