10830923
  -OEChem-03292013303D

 43 43  0     1  0  0  0  0  0999 V2000
    5.6301    1.3408    1.3871 S   0  0  2  0  0  0  0  0  0  0  0  0
   -1.8014    0.5533   -0.4280 O   0  0  0  0  0  0  0  0  0  0  0  0
   -0.8204   -1.5526   -0.2118 O   0  0  0  0  0  0  0  0  0  0  0  0
   -4.8300   -0.4487    2.1586 O   0  0  0  0  0  0  0  0  0  0  0  0
   -5.1222    1.8433    0.4216 O   0  0  0  0  0  0  0  0  0  0  0  0
   -3.2527   -2.5541    0.8319 O   0  0  0  0  0  0  0  0  0  0  0  0
   -1.7526    2.8553   -1.9296 O   0  0  0  0  0  0  0  0  0  0  0  0
    3.1337   -0.4977   -2.0145 O   0  0  0  0  0  0  0  0  0  0  0  0
    5.8616    0.1887    2.3184 O   0  0  0  0  0  0  0  0  0  0  0  0
    2.0329   -1.7453   -0.3908 N   0  0  0  0  0  0  0  0  0  0  0  0
   -4.1978   -0.3344    0.8828 C   0  0  1  0  0  0  0  0  0  0  0  0
   -3.8986    1.1441    0.6341 C   0  0  1  0  0  0  0  0  0  0  0  0
   -2.9162   -1.1675    0.8732 C   0  0  2  0  0  0  0  0  0  0  0  0
   -2.9975    1.3173   -0.5909 C   0  0  1  0  0  0  0  0  0  0  0  0
   -2.0539   -0.8475   -0.3478 C   0  0  1  0  0  0  0  0  0  0  0  0
   -2.5896    2.7736   -0.7905 C   0  0  0  0  0  0  0  0  0  0  0  0
   -0.1637   -1.6890   -1.4623 C   0  0  0  0  0  0  0  0  0  0  0  0
    1.1363   -2.4480   -1.2688 C   0  0  0  0  0  0  0  0  0  0  0  0
    2.9647   -0.8206   -0.8431 C   0  0  0  0  0  0  0  0  0  0  0  0
    3.7629   -0.2386    0.2721 C   0  0  0  0  0  0  0  0  0  0  0  0
    4.7089    0.6725    0.0110 C   0  0  0  0  0  0  0  0  0  0  0  0
    7.1656    1.6550    0.4873 C   0  0  0  0  0  0  0  0  0  0  0  0
   -4.9186   -0.7157    0.1500 H   0  0  0  0  0  0  0  0  0  0  0  0
   -3.4238    1.5785    1.5224 H   0  0  0  0  0  0  0  0  0  0  0  0
   -2.3472   -1.0078    1.7968 H   0  0  0  0  0  0  0  0  0  0  0  0
   -3.5051    0.9795   -1.5047 H   0  0  0  0  0  0  0  0  0  0  0  0
   -2.5646   -1.1859   -1.2604 H   0  0  0  0  0  0  0  0  0  0  0  0
   -2.0188    3.1400    0.0693 H   0  0  0  0  0  0  0  0  0  0  0  0
   -3.4605    3.4170   -0.9475 H   0  0  0  0  0  0  0  0  0  0  0  0
   -4.2064   -0.1329    2.8347 H   0  0  0  0  0  0  0  0  0  0  0  0
   -5.5449    1.4745   -0.3727 H   0  0  0  0  0  0  0  0  0  0  0  0
   -3.7590   -2.7175    0.0179 H   0  0  0  0  0  0  0  0  0  0  0  0
    0.0352   -0.6978   -1.8869 H   0  0  0  0  0  0  0  0  0  0  0  0
   -0.8025   -2.2482   -2.1557 H   0  0  0  0  0  0  0  0  0  0  0  0
    0.9425   -3.4203   -0.8038 H   0  0  0  0  0  0  0  0  0  0  0  0
    1.6263   -2.6122   -2.2341 H   0  0  0  0  0  0  0  0  0  0  0  0
   -1.5017    3.7888   -2.0351 H   0  0  0  0  0  0  0  0  0  0  0  0
    1.9602   -1.9409    0.6035 H   0  0  0  0  0  0  0  0  0  0  0  0
    3.5453   -0.5744    1.2809 H   0  0  0  0  0  0  0  0  0  0  0  0
    4.9010    1.0027   -1.0046 H   0  0  0  0  0  0  0  0  0  0  0  0
    7.9139    2.0206    1.1945 H   0  0  0  0  0  0  0  0  0  0  0  0
    6.9938    2.4156   -0.2783 H   0  0  0  0  0  0  0  0  0  0  0  0
    7.5265    0.7322    0.0259 H   0  0  0  0  0  0  0  0  0  0  0  0
  1  9  2  0  0  0  0
  1 21  1  0  0  0  0
  1 22  1  0  0  0  0
  2 14  1  0  0  0  0
  2 15  1  0  0  0  0
  3 15  1  0  0  0  0
  3 17  1  0  0  0  0
  4 11  1  0  0  0  0
  4 30  1  0  0  0  0
  5 12  1  0  0  0  0
  5 31  1  0  0  0  0
  6 13  1  0  0  0  0
  6 32  1  0  0  0  0
  7 16  1  0  0  0  0
  7 37  1  0  0  0  0
  8 19  2  0  0  0  0
 10 18  1  0  0  0  0
 10 19  1  0  0  0  0
 10 38  1  0  0  0  0
 11 12  1  0  0  0  0
 11 13  1  0  0  0  0
 11 23  1  0  0  0  0
 12 14  1  0  0  0  0
 12 24  1  0  0  0  0
 13 15  1  0  0  0  0
 13 25  1  0  0  0  0
 14 16  1  0  0  0  0
 14 26  1  0  0  0  0
 15 27  1  0  0  0  0
 16 28  1  0  0  0  0
 16 29  1  0  0  0  0
 17 18  1  0  0  0  0
 17 33  1  0  0  0  0
 17 34  1  0  0  0  0
 18 35  1  0  0  0  0
 18 36  1  0  0  0  0
 19 20  1  0  0  0  0
 20 21  2  0  0  0  0
 20 39  1  0  0  0  0
 21 40  1  0  0  0  0
 22 41  1  0  0  0  0
 22 42  1  0  0  0  0
 22 43  1  0  0  0  0
M  END
> <PUBCHEM_COMPOUND_CID>
10830923

> <PUBCHEM_CONFORMER_RMSD>
0.8

> <PUBCHEM_CONFORMER_DIVERSEORDER>
1
114
80
105
84
50
106
39
38
68
99
16
67
120
26
97
94
37
56
8
52
63
53
17
45
81
107
87
92
70
22
95
110
77
23
78
64
86
48
123
89
46
73
93
12
19
5
125
75
115
65
112
32
91
66
10
119
117
102
30
62
103
35
42
9
108
69
55
124
98
83
82
14
116
40
34
59
25
76
43
72
122
109
7
111
113
18
27
44
29
101
121
96
71
58
33
31
11
21
85
57
4
118
49
41
79
126
47
24
28
54
88
61
90
36
13
6
104
20
100
60
3
74
51
15
2

> <PUBCHEM_MMFF94_PARTIAL_CHARGES>
29
1 0.25
10 -0.73
11 0.28
12 0.28
13 0.28
14 0.28
15 0.56
16 0.28
17 0.28
18 0.3
19 0.62
2 -0.56
20 -0.14
21 -0.09
22 0.19
3 -0.56
30 0.4
31 0.4
32 0.4
37 0.4
38 0.37
39 0.15
4 -0.68
40 0.15
5 -0.68
6 -0.68
7 -0.68
8 -0.57
9 -0.5

> <PUBCHEM_EFFECTIVE_ROTOR_COUNT>
9.2

> <PUBCHEM_PHARMACOPHORE_FEATURES>
14
1 10 donor
1 2 acceptor
1 3 acceptor
1 4 acceptor
1 4 donor
1 5 acceptor
1 5 donor
1 6 acceptor
1 6 donor
1 7 acceptor
1 7 donor
1 8 acceptor
1 9 acceptor
6 2 11 12 13 14 15 rings

> <PUBCHEM_HEAVY_ATOM_COUNT>
22

> <PUBCHEM_ATOM_DEF_STEREO_COUNT>
5

> <PUBCHEM_ATOM_UDEF_STEREO_COUNT>
1

> <PUBCHEM_BOND_DEF_STEREO_COUNT>
1

> <PUBCHEM_BOND_UDEF_STEREO_COUNT>
0

> <PUBCHEM_ISOTOPIC_ATOM_COUNT>
0

> <PUBCHEM_COMPONENT_COUNT>
1

> <PUBCHEM_CACTVS_TAUTO_COUNT>
2

> <PUBCHEM_CONFORMER_ID>
00A5444B00000001

> <PUBCHEM_MMFF94_ENERGY>
44.02

> <PUBCHEM_FEATURE_SELFOVERLAP>
71.115

> <PUBCHEM_SHAPE_FINGERPRINT>
10319926 262 18115029597950077618
11112241 14 16844710049937532624
11595378 159 17603869970416309081
12035758 1 18115888351576788081
12403259 415 18271534121913058550
12596602 18 16877937257312114824
12633257 1 17531253867600570310
12892183 10 17968090894184222490
13402501 40 18343580750583286904
14341114 328 17749679575015257390
14932701 244 16053750040884152716
14950920 106 17386282220476033680
1768 210 16700587178286425416
193927 3 12685087069302775498
20645477 56 18060137695693773278
21049683 118 17100877314494096369
21302155 148 18339082700438934116
21401589 2 18201719587087814922
23557571 272 18192179064780286439
23559900 14 18044959877890738975
2838139 119 16415476065446771962
3187 122 18040442079201441797
3459 39 18059273449642317578
5104073 3 18337118852011553323
574716 61 14620499160451588224
633830 44 16773248279174019574
7808743 9 18271803588224473822

> <PUBCHEM_SHAPE_MULTIPOLES>
404.66
14.77
2.89
1.78
20.6
0.28
0.16
8.93
8.16
-1.59
-1.15
0.13
0.18
2.46

> <PUBCHEM_SHAPE_SELFOVERLAP>
788.039

> <PUBCHEM_SHAPE_VOLUME>
244.3

> <PUBCHEM_COORDINATE_TYPE>
2
5
10

$$$$
