10833071
  -OEChem-03292013303D

 50 50  0     1  0  0  0  0  0999 V2000
   -2.6536    0.1013    0.4089 O   0  0  0  0  0  0  0  0  0  0  0  0
    2.6144   -1.1354    0.4802 O   0  0  0  0  0  0  0  0  0  0  0  0
   -2.0156   -3.2257   -0.7010 O   0  0  0  0  0  0  0  0  0  0  0  0
    2.0220    1.9534    0.4058 O   0  0  0  0  0  0  0  0  0  0  0  0
   -3.4659    3.6818    0.3706 O   0  0  0  0  0  0  0  0  0  0  0  0
    0.3670   -3.3064    1.3843 O   0  0  0  0  0  0  0  0  0  0  0  0
   -3.4504   -1.0763   -1.4077 O   0  0  0  0  0  0  0  0  0  0  0  0
    4.1572   -1.0099   -1.2349 O   0  0  0  0  0  0  0  0  0  0  0  0
    1.1291    3.0247   -1.4392 O   0  0  0  0  0  0  0  0  0  0  0  0
   -1.7532   -2.0407    0.0386 C   0  0  1  0  0  0  0  0  0  0  0  0
   -0.3070   -1.6017   -0.1847 C   0  0  0  0  0  0  0  0  0  0  0  0
   -3.4613    1.2598    0.0932 C   0  0  2  0  0  0  0  0  0  0  0  0
    2.1428   -2.4101    0.0171 C   0  0  2  0  0  0  0  0  0  0  0  0
   -2.7061    2.5001    0.6030 C   0  0  1  0  0  0  0  0  0  0  0  0
    0.6987   -2.5246    0.4934 C   0  0  0  0  0  0  0  0  0  0  0  0
   -2.7205   -0.9717   -0.4308 C   0  0  0  0  0  0  0  0  0  0  0  0
    3.3475    1.9150   -0.1669 C   0  0  2  0  0  0  0  0  0  0  0  0
    4.0751    0.7191    0.4440 C   0  0  0  0  0  0  0  0  0  0  0  0
   -4.8206    1.0893    0.7680 C   0  0  0  0  0  0  0  0  0  0  0  0
    3.0183   -3.5183    0.5871 C   0  0  0  0  0  0  0  0  0  0  0  0
   -1.3953    2.6585   -0.1220 C   0  0  0  0  0  0  0  0  0  0  0  0
    3.6423   -0.5688   -0.2152 C   0  0  0  0  0  0  0  0  0  0  0  0
    4.0606    3.2172    0.1809 C   0  0  0  0  0  0  0  0  0  0  0  0
   -0.2116    2.4229    0.4592 C   0  0  0  0  0  0  0  0  0  0  0  0
    1.0331    2.5270   -0.3294 C   0  0  0  0  0  0  0  0  0  0  0  0
   -3.3474   -3.6805   -0.5023 C   0  0  0  0  0  0  0  0  0  0  0  0
   -1.9401   -2.2372    1.1021 H   0  0  0  0  0  0  0  0  0  0  0  0
   -0.1338   -0.5942    0.2052 H   0  0  0  0  0  0  0  0  0  0  0  0
   -0.0883   -1.6001   -1.2591 H   0  0  0  0  0  0  0  0  0  0  0  0
   -3.6130    1.3407   -0.9915 H   0  0  0  0  0  0  0  0  0  0  0  0
    2.1384   -2.4607   -1.0785 H   0  0  0  0  0  0  0  0  0  0  0  0
   -2.5357    2.4192    1.6832 H   0  0  0  0  0  0  0  0  0  0  0  0
    3.2849    1.8007   -1.2563 H   0  0  0  0  0  0  0  0  0  0  0  0
    3.9004    0.6436    1.5241 H   0  0  0  0  0  0  0  0  0  0  0  0
    5.1595    0.7974    0.3005 H   0  0  0  0  0  0  0  0  0  0  0  0
   -4.7065    0.9889    1.8529 H   0  0  0  0  0  0  0  0  0  0  0  0
   -5.4809    1.9366    0.5610 H   0  0  0  0  0  0  0  0  0  0  0  0
   -5.3137    0.1759    0.4186 H   0  0  0  0  0  0  0  0  0  0  0  0
    3.0694   -3.4570    1.6801 H   0  0  0  0  0  0  0  0  0  0  0  0
    2.6351   -4.5068    0.3146 H   0  0  0  0  0  0  0  0  0  0  0  0
    4.0457   -3.4313    0.2189 H   0  0  0  0  0  0  0  0  0  0  0  0
   -1.4452    2.9420   -1.1708 H   0  0  0  0  0  0  0  0  0  0  0  0
    4.0991    3.3644    1.2659 H   0  0  0  0  0  0  0  0  0  0  0  0
    5.0818    3.2274   -0.2119 H   0  0  0  0  0  0  0  0  0  0  0  0
    3.5233    4.0766   -0.2336 H   0  0  0  0  0  0  0  0  0  0  0  0
   -0.1446    2.1100    1.4958 H   0  0  0  0  0  0  0  0  0  0  0  0
   -3.7175    3.7015   -0.5688 H   0  0  0  0  0  0  0  0  0  0  0  0
   -3.7562   -3.4073    0.4765 H   0  0  0  0  0  0  0  0  0  0  0  0
   -3.3286   -4.7737   -0.5573 H   0  0  0  0  0  0  0  0  0  0  0  0
   -4.0041   -3.3427   -1.3077 H   0  0  0  0  0  0  0  0  0  0  0  0
  1 12  1  0  0  0  0
  1 16  1  0  0  0  0
  2 13  1  0  0  0  0
  2 22  1  0  0  0  0
  3 10  1  0  0  0  0
  3 26  1  0  0  0  0
  4 17  1  0  0  0  0
  4 25  1  0  0  0  0
  5 14  1  0  0  0  0
  5 47  1  0  0  0  0
  6 15  2  0  0  0  0
  7 16  2  0  0  0  0
  8 22  2  0  0  0  0
  9 25  2  0  0  0  0
 10 11  1  0  0  0  0
 10 16  1  0  0  0  0
 10 27  1  0  0  0  0
 11 15  1  0  0  0  0
 11 28  1  0  0  0  0
 11 29  1  0  0  0  0
 12 14  1  0  0  0  0
 12 19  1  0  0  0  0
 12 30  1  0  0  0  0
 13 15  1  0  0  0  0
 13 20  1  0  0  0  0
 13 31  1  0  0  0  0
 14 21  1  0  0  0  0
 14 32  1  0  0  0  0
 17 18  1  0  0  0  0
 17 23  1  0  0  0  0
 17 33  1  0  0  0  0
 18 22  1  0  0  0  0
 18 34  1  0  0  0  0
 18 35  1  0  0  0  0
 19 36  1  0  0  0  0
 19 37  1  0  0  0  0
 19 38  1  0  0  0  0
 20 39  1  0  0  0  0
 20 40  1  0  0  0  0
 20 41  1  0  0  0  0
 21 24  2  0  0  0  0
 21 42  1  0  0  0  0
 23 43  1  0  0  0  0
 23 44  1  0  0  0  0
 23 45  1  0  0  0  0
 24 25  1  0  0  0  0
 24 46  1  0  0  0  0
 26 48  1  0  0  0  0
 26 49  1  0  0  0  0
 26 50  1  0  0  0  0
M  END
> <PUBCHEM_COMPOUND_CID>
10833071

> <PUBCHEM_CONFORMER_RMSD>
0.6

> <PUBCHEM_CONFORMER_DIVERSEORDER>
1

> <PUBCHEM_MMFF94_PARTIAL_CHARGES>
26
1 -0.43
10 0.34
11 0.06
12 0.28
13 0.34
14 0.42
15 0.45
16 0.66
17 0.28
18 0.06
2 -0.43
21 -0.29
22 0.66
24 -0.14
25 0.71
26 0.28
3 -0.56
4 -0.43
42 0.15
46 0.15
47 0.4
5 -0.68
6 -0.57
7 -0.57
8 -0.57
9 -0.57

> <PUBCHEM_EFFECTIVE_ROTOR_COUNT>
3

> <PUBCHEM_PHARMACOPHORE_FEATURES>
7
1 3 acceptor
1 5 acceptor
1 5 donor
1 6 acceptor
1 7 acceptor
1 8 acceptor
1 9 acceptor

> <PUBCHEM_HEAVY_ATOM_COUNT>
26

> <PUBCHEM_ATOM_DEF_STEREO_COUNT>
5

> <PUBCHEM_ATOM_UDEF_STEREO_COUNT>
0

> <PUBCHEM_BOND_DEF_STEREO_COUNT>
1

> <PUBCHEM_BOND_UDEF_STEREO_COUNT>
0

> <PUBCHEM_ISOTOPIC_ATOM_COUNT>
0

> <PUBCHEM_COMPONENT_COUNT>
1

> <PUBCHEM_CACTVS_TAUTO_COUNT>
3

> <PUBCHEM_CONFORMER_ID>
00A54CAF00000001

> <PUBCHEM_MMFF94_ENERGY>
47.3351

> <PUBCHEM_FEATURE_SELFOVERLAP>
35.534

> <PUBCHEM_SHAPE_FINGERPRINT>
10074138 170 14221354002761051715
10616163 171 18268995460822508884
10708813 3 18268154162454456176
1100329 8 18194961838288617818
11513181 2 17987795185814297423
12038231 1 18410011039704032712
12539773 59 17847063289827718931
12596599 1 17916885555204296374
12788726 201 18122623027051489240
12978246 48 18338796706454670480
13122387 1 18410290350017245638
13140716 1 18409729607529328218
138480 1 17114948786584771025
14117953 113 17403171500277651613
14178342 30 18339909519960139416
14790565 3 18198065777337589393
14931854 50 18048874388229480030
17093844 170 18338225094174789456
18336668 15 17681280954180636758
19591789 44 18122346783022886121
19930381 70 17474665530356102707
20905425 154 18199755906295767188
21673915 165 18340484573136948104
21796203 349 17617978771102502728
22113638 7 18050560742697867944
23227448 37 18341896285952982935
23558518 356 18337680818227325316
25265897 201 17843429334973169895
3014063 31 18051689146671078823
338550 245 18335710433382491748
463206 1 18412266159638597497
5309563 4 17402898215888262403
6433294 58 18266458707356250120
653340 110 18125994108280454048
7832392 63 18411981347398607070

> <PUBCHEM_SHAPE_MULTIPOLES>
482.24
8.49
5.95
0.96
0.3
1.01
0.11
-2.02
0.06
-0.49
-0.3
-0.06
0.16
-1.36

> <PUBCHEM_SHAPE_SELFOVERLAP>
968.859

> <PUBCHEM_SHAPE_VOLUME>
280.6

> <PUBCHEM_COORDINATE_TYPE>
2
5
10

$$$$
