10835924
  -OEChem-03292013303D

 52 53  0     1  0  0  0  0  0999 V2000
    2.5219   -0.3232    2.6131 S   0  0  0  0  0  0  0  0  0  0  0  0
    4.6320    0.7356   -2.1227 S   0  0  0  0  0  0  0  0  0  0  0  0
   -3.6301    2.6242   -0.2099 O   0  0  0  0  0  0  0  0  0  0  0  0
   -3.9977    0.6382   -2.1888 O   0  0  0  0  0  0  0  0  0  0  0  0
   -1.8523   -2.8111   -0.1672 O   0  0  0  0  0  0  0  0  0  0  0  0
   -4.0438   -2.8623    0.5581 O   0  0  0  0  0  0  0  0  0  0  0  0
    1.0196    0.5913    0.7185 N   0  0  0  0  0  0  0  0  0  0  0  0
    4.6388   -0.0474    0.3409 N   0  0  0  0  0  0  0  0  0  0  0  0
   -4.1822    0.2916    0.2204 C   0  0  1  0  0  0  0  0  0  0  0  0
   -3.3336    1.5197    0.6415 C   0  0  1  0  0  0  0  0  0  0  0  0
   -5.6808    0.6159    0.2800 C   0  0  0  0  0  0  0  0  0  0  0  0
   -3.8156   -0.2557   -1.1520 C   0  0  0  0  0  0  0  0  0  0  0  0
   -1.8546    1.2033    0.6937 C   0  0  0  0  0  0  0  0  0  0  0  0
   -1.1823    0.7257    1.7560 C   0  0  0  0  0  0  0  0  0  0  0  0
   -3.3581   -1.5110   -1.3107 C   0  0  0  0  0  0  0  0  0  0  0  0
   -3.3761    3.8607    0.4394 C   0  0  0  0  0  0  0  0  0  0  0  0
    0.2226    0.4064    1.8315 C   0  0  0  0  0  0  0  0  0  0  0  0
   -3.1685   -2.4666   -0.1944 C   0  0  0  0  0  0  0  0  0  0  0  0
   -4.9251    0.1328   -3.1287 C   0  0  0  0  0  0  0  0  0  0  0  0
    0.8583   -0.0819    2.9536 C   0  0  0  0  0  0  0  0  0  0  0  0
    2.2510    0.2392    1.0147 C   0  0  0  0  0  0  0  0  0  0  0  0
    3.3466    0.3239    0.0240 C   0  0  0  0  0  0  0  0  0  0  0  0
    3.1478    0.7743   -1.2643 C   0  0  0  0  0  0  0  0  0  0  0  0
    5.4022    0.1276   -0.7148 C   0  0  0  0  0  0  0  0  0  0  0  0
    6.7878   -0.1415   -0.7823 C   0  0  0  0  0  0  0  0  0  0  0  0
   -1.4793   -3.7355    0.8601 C   0  0  0  0  0  0  0  0  0  0  0  0
    7.5173   -0.5553   -2.0576 C   0  0  0  0  0  0  0  0  0  0  0  0
    7.5344   -0.0190    0.3480 C   0  0  0  0  0  0  0  0  0  0  0  0
   -4.0117   -0.4633    0.9956 H   0  0  0  0  0  0  0  0  0  0  0  0
   -3.6597    1.7765    1.6608 H   0  0  0  0  0  0  0  0  0  0  0  0
   -5.9640    1.3997   -0.4307 H   0  0  0  0  0  0  0  0  0  0  0  0
   -5.9612    0.9583    1.2822 H   0  0  0  0  0  0  0  0  0  0  0  0
   -6.2804   -0.2734    0.0553 H   0  0  0  0  0  0  0  0  0  0  0  0
   -1.3129    1.3682   -0.2365 H   0  0  0  0  0  0  0  0  0  0  0  0
   -1.7558    0.5584    2.6666 H   0  0  0  0  0  0  0  0  0  0  0  0
   -3.0499   -1.8674   -2.2891 H   0  0  0  0  0  0  0  0  0  0  0  0
   -4.0243    3.9795    1.3133 H   0  0  0  0  0  0  0  0  0  0  0  0
   -2.3254    3.9474    0.7321 H   0  0  0  0  0  0  0  0  0  0  0  0
   -3.6023    4.6666   -0.2644 H   0  0  0  0  0  0  0  0  0  0  0  0
   -5.1930    0.9481   -3.8081 H   0  0  0  0  0  0  0  0  0  0  0  0
   -5.8475   -0.2167   -2.6508 H   0  0  0  0  0  0  0  0  0  0  0  0
   -4.4844   -0.6662   -3.7342 H   0  0  0  0  0  0  0  0  0  0  0  0
    0.4466   -0.3041    3.9284 H   0  0  0  0  0  0  0  0  0  0  0  0
    2.2382    1.1155   -1.7391 H   0  0  0  0  0  0  0  0  0  0  0  0
   -0.4066   -3.9271    0.7714 H   0  0  0  0  0  0  0  0  0  0  0  0
   -2.0173   -4.6798    0.7340 H   0  0  0  0  0  0  0  0  0  0  0  0
   -1.6782   -3.3047    1.8462 H   0  0  0  0  0  0  0  0  0  0  0  0
    7.5564    0.2765   -2.7684 H   0  0  0  0  0  0  0  0  0  0  0  0
    8.5482   -0.8696   -1.8604 H   0  0  0  0  0  0  0  0  0  0  0  0
    7.0053   -1.4017   -2.5282 H   0  0  0  0  0  0  0  0  0  0  0  0
    8.6029   -0.2105    0.3421 H   0  0  0  0  0  0  0  0  0  0  0  0
    7.1007    0.2790    1.2981 H   0  0  0  0  0  0  0  0  0  0  0  0
  1 20  1  0  0  0  0
  1 21  1  0  0  0  0
  2 23  1  0  0  0  0
  2 24  1  0  0  0  0
  3 10  1  0  0  0  0
  3 16  1  0  0  0  0
  4 12  1  0  0  0  0
  4 19  1  0  0  0  0
  5 18  1  0  0  0  0
  5 26  1  0  0  0  0
  6 18  2  0  0  0  0
  7 17  1  0  0  0  0
  7 21  2  0  0  0  0
  8 22  1  0  0  0  0
  8 24  2  0  0  0  0
  9 10  1  0  0  0  0
  9 11  1  0  0  0  0
  9 12  1  0  0  0  0
  9 29  1  0  0  0  0
 10 13  1  0  0  0  0
 10 30  1  0  0  0  0
 11 31  1  0  0  0  0
 11 32  1  0  0  0  0
 11 33  1  0  0  0  0
 12 15  2  0  0  0  0
 13 14  2  0  0  0  0
 13 34  1  0  0  0  0
 14 17  1  0  0  0  0
 14 35  1  0  0  0  0
 15 18  1  0  0  0  0
 15 36  1  0  0  0  0
 16 37  1  0  0  0  0
 16 38  1  0  0  0  0
 16 39  1  0  0  0  0
 17 20  2  0  0  0  0
 19 40  1  0  0  0  0
 19 41  1  0  0  0  0
 19 42  1  0  0  0  0
 20 43  1  0  0  0  0
 21 22  1  0  0  0  0
 22 23  2  0  0  0  0
 23 44  1  0  0  0  0
 24 25  1  0  0  0  0
 25 27  1  0  0  0  0
 25 28  2  0  0  0  0
 26 45  1  0  0  0  0
 26 46  1  0  0  0  0
 26 47  1  0  0  0  0
 27 48  1  0  0  0  0
 27 49  1  0  0  0  0
 27 50  1  0  0  0  0
 28 51  1  0  0  0  0
 28 52  1  0  0  0  0
M  END
> <PUBCHEM_COMPOUND_CID>
10835924

> <PUBCHEM_CONFORMER_RMSD>
1

> <PUBCHEM_CONFORMER_DIVERSEORDER>
1
42
128
188
54
165
102
52
147
98
202
50
77
136
158
112
47
232
103
182
235
56
201
179
106
110
210
29
223
75
108
215
83
198
19
140
114
11
131
87
177
46
38
144
97
31
164
132
22
89
200
229
118
186
171
37
90
16
76
141
145
71
78
180
100
105
167
68
74
142
187
7
205
104
217
18
62
153
221
99
39
8
109
51
79
211
169
204
139
129
64
67
135
168
33
162
159
237
9
196
212
24
94
239
66
154
25
60
65
150
10
228
93
15
26
69
34
172
12
157
122
13
5
231
238
111
45
23
208
194
116
133
176
20
57
193
173
43
4
82
155
107
161
58
192
216
213
117
156
184
170
92
61
49
72
197
234
174
88
143
207
123
206
96
137
209
41
30
214
149
115
130
53
91
195
134
152
230
44
233
101
138
121
222
166
84
160
224
226
127
81
241
14
28
113
36
119
55
27
40
225
63
95
21
126
151
73
190
218
163
17
181
3
146
185
220
124
240
227
59
175
125
35
148
86
70
2
6
183
32
191
178
85
219
48
120
199
203
236
189
80

> <PUBCHEM_MMFF94_PARTIAL_CHARGES>
34
1 -0.08
10 0.42
12 -0.06
13 -0.29
14 -0.1
15 -0.14
16 0.28
17 0.18
18 0.71
19 0.28
2 -0.08
20 -0.11
21 0.38
22 0.23
23 -0.11
24 0.33
25 -0.09
26 0.28
27 0.14
28 -0.3
3 -0.56
34 0.15
35 0.15
36 0.15
4 -0.36
43 0.15
44 0.15
5 -0.43
51 0.15
52 0.15
6 -0.57
7 -0.57
8 -0.57
9 0.14

> <PUBCHEM_EFFECTIVE_ROTOR_COUNT>
10

> <PUBCHEM_PHARMACOPHORE_FEATURES>
8
1 11 hydrophobe
1 3 acceptor
1 4 acceptor
1 6 acceptor
1 7 acceptor
1 8 acceptor
5 1 7 17 20 21 rings
5 2 8 22 23 24 rings

> <PUBCHEM_HEAVY_ATOM_COUNT>
28

> <PUBCHEM_ATOM_DEF_STEREO_COUNT>
0

> <PUBCHEM_ATOM_UDEF_STEREO_COUNT>
2

> <PUBCHEM_BOND_DEF_STEREO_COUNT>
2

> <PUBCHEM_BOND_UDEF_STEREO_COUNT>
0

> <PUBCHEM_ISOTOPIC_ATOM_COUNT>
0

> <PUBCHEM_COMPONENT_COUNT>
1

> <PUBCHEM_CACTVS_TAUTO_COUNT>
1

> <PUBCHEM_CONFORMER_ID>
00A557D400000001

> <PUBCHEM_MMFF94_ENERGY>
60.7078

> <PUBCHEM_FEATURE_SELFOVERLAP>
40.602

> <PUBCHEM_SHAPE_FINGERPRINT>
10369192 42 15140690189180077226
10554248 39 16732709338231869570
10670039 82 18411412904281682405
10674148 151 17561084679140653795
107951 10 18270686364230658119
11488393 25 17272846761174414448
12373685 5 18408038508457025146
13402501 40 16917069966496215157
13617811 41 18410005517120466877
13761468 95 17896033261248795149
13941219 33 16056338166480637987
13947920 75 18334853914013974864
14251740 79 18340773718619236234
14251757 5 18263365944087457819
15183329 4 18335423461353726078
15328829 1 17822275865790348394
15361156 5 17560799974174943633
19958102 18 18411418384934772238
20281389 69 14707216535034300140
20693207 138 17704064118633503313
21033650 10 18130784504201179185
22956985 138 8353687421051691169
23559900 14 17917140701878671320
2838139 119 16371006330403874420
314194 84 14404899159967601760
4169191 19 16879088519496927716
484985 159 16128660734736944237
508706 21 17774993622526374943
574716 61 17676198087259321690
59755656 520 16298392387418576690
6431902 208 15267060316193140596
6608658 132 18040432153374057276
70634741 139 18199481029375175478
9862886 166 17917997183240620170

> <PUBCHEM_SHAPE_MULTIPOLES>
550.49
17.03
2.89
2.69
26.94
1.05
0.2
-0.09
10.65
-6.15
-0.6
0.31
0.03
-0.07

> <PUBCHEM_SHAPE_SELFOVERLAP>
1112.567

> <PUBCHEM_SHAPE_VOLUME>
327.4

> <PUBCHEM_COORDINATE_TYPE>
2
5
10

$$$$
