10844302
  -OEChem-03292013303D

 53 58  0     1  0  0  0  0  0999 V2000
    0.9806    2.5593    0.2523 O   0  0  0  0  0  0  0  0  0  0  0  0
   -3.2188   -0.6081    2.5557 O   0  0  0  0  0  0  0  0  0  0  0  0
   -1.4021   -4.1576    1.0885 O   0  0  0  0  0  0  0  0  0  0  0  0
   -3.2565    4.4654    1.5791 O   0  0  0  0  0  0  0  0  0  0  0  0
    3.2586   -3.4503    1.5093 O   0  0  0  0  0  0  0  0  0  0  0  0
   -3.3857   -0.2233   -4.7427 O   0  0  0  0  0  0  0  0  0  0  0  0
    6.6326    0.7783   -1.6926 O   0  0  0  0  0  0  0  0  0  0  0  0
   -2.0081   -1.4345    0.6264 C   0  0  1  0  0  0  0  0  0  0  0  0
    0.4218    0.4125    0.6945 C   0  0  0  0  0  0  0  0  0  0  0  0
   -0.5694   -1.8881    0.8849 C   0  0  0  0  0  0  0  0  0  0  0  0
   -0.7037    1.2415    0.9528 C   0  0  0  0  0  0  0  0  0  0  0  0
    0.5577   -1.0279    0.8825 C   0  0  0  0  0  0  0  0  0  0  0  0
   -2.0096    1.0239    1.4081 C   0  0  0  0  0  0  0  0  0  0  0  0
   -2.4694   -0.3599    1.6152 C   0  0  0  0  0  0  0  0  0  0  0  0
   -0.3056    2.5463    0.6971 C   0  0  0  0  0  0  0  0  0  0  0  0
    1.4117    1.2691    0.2527 C   0  0  0  0  0  0  0  0  0  0  0  0
   -2.3799   -1.1072   -0.8234 C   0  0  0  0  0  0  0  0  0  0  0  0
   -0.3626   -3.2696    1.0890 C   0  0  0  0  0  0  0  0  0  0  0  0
    1.8373   -1.5777    1.0941 C   0  0  0  0  0  0  0  0  0  0  0  0
   -2.8585    2.1150    1.6313 C   0  0  0  0  0  0  0  0  0  0  0  0
   -1.1222    3.6603    0.8831 C   0  0  0  0  0  0  0  0  0  0  0  0
    2.7563    1.1423   -0.2481 C   0  0  0  0  0  0  0  0  0  0  0  0
   -2.4132    3.4134    1.3679 C   0  0  0  0  0  0  0  0  0  0  0  0
    0.9126   -3.7927    1.2942 C   0  0  0  0  0  0  0  0  0  0  0  0
    2.0121   -2.9465    1.2970 C   0  0  0  0  0  0  0  0  0  0  0  0
   -3.6904   -0.7659   -1.1376 C   0  0  0  0  0  0  0  0  0  0  0  0
   -1.4033   -1.1547   -1.8121 C   0  0  0  0  0  0  0  0  0  0  0  0
    2.9813    0.9941   -1.6176 C   0  0  0  0  0  0  0  0  0  0  0  0
    3.8370    1.1676    0.6350 C   0  0  0  0  0  0  0  0  0  0  0  0
   -4.0291   -0.4683   -2.4576 C   0  0  0  0  0  0  0  0  0  0  0  0
   -1.7418   -0.8569   -3.1321 C   0  0  0  0  0  0  0  0  0  0  0  0
   -3.0547   -0.5136   -3.4549 C   0  0  0  0  0  0  0  0  0  0  0  0
    4.2833    0.8716   -2.1028 C   0  0  0  0  0  0  0  0  0  0  0  0
    5.1391    1.0451    0.1499 C   0  0  0  0  0  0  0  0  0  0  0  0
    5.3623    0.8972   -1.2190 C   0  0  0  0  0  0  0  0  0  0  0  0
   -2.6742   -2.2768    0.8642 H   0  0  0  0  0  0  0  0  0  0  0  0
    2.7227   -0.9680    1.1733 H   0  0  0  0  0  0  0  0  0  0  0  0
   -3.8724    1.9501    1.9882 H   0  0  0  0  0  0  0  0  0  0  0  0
   -0.7713    4.6640    0.6730 H   0  0  0  0  0  0  0  0  0  0  0  0
    1.0571   -4.8585    1.4527 H   0  0  0  0  0  0  0  0  0  0  0  0
   -4.4616   -0.7331   -0.3732 H   0  0  0  0  0  0  0  0  0  0  0  0
   -0.3739   -1.4348   -1.6230 H   0  0  0  0  0  0  0  0  0  0  0  0
    2.1507    0.9714   -2.3193 H   0  0  0  0  0  0  0  0  0  0  0  0
    3.6814    1.2893    1.7046 H   0  0  0  0  0  0  0  0  0  0  0  0
   -5.0538   -0.2031   -2.7032 H   0  0  0  0  0  0  0  0  0  0  0  0
   -0.9747   -0.8997   -3.9008 H   0  0  0  0  0  0  0  0  0  0  0  0
   -1.0637   -5.0562    1.2416 H   0  0  0  0  0  0  0  0  0  0  0  0
    4.4507    0.7563   -3.1702 H   0  0  0  0  0  0  0  0  0  0  0  0
    5.9710    1.0679    0.8487 H   0  0  0  0  0  0  0  0  0  0  0  0
   -4.1059    4.1280    1.9118 H   0  0  0  0  0  0  0  0  0  0  0  0
    3.9057   -2.7251    1.4737 H   0  0  0  0  0  0  0  0  0  0  0  0
   -2.5910   -0.3036   -5.2979 H   0  0  0  0  0  0  0  0  0  0  0  0
    7.2527    0.8164   -0.9443 H   0  0  0  0  0  0  0  0  0  0  0  0
  1 15  1  0  0  0  0
  1 16  1  0  0  0  0
  2 14  2  0  0  0  0
  3 18  1  0  0  0  0
  3 47  1  0  0  0  0
  4 23  1  0  0  0  0
  4 50  1  0  0  0  0
  5 25  1  0  0  0  0
  5 51  1  0  0  0  0
  6 32  1  0  0  0  0
  6 52  1  0  0  0  0
  7 35  1  0  0  0  0
  7 53  1  0  0  0  0
  8 10  1  0  0  0  0
  8 14  1  0  0  0  0
  8 17  1  0  0  0  0
  8 36  1  0  0  0  0
  9 11  1  0  0  0  0
  9 12  1  0  0  0  0
  9 16  2  0  0  0  0
 10 12  2  0  0  0  0
 10 18  1  0  0  0  0
 11 13  2  0  0  0  0
 11 15  1  0  0  0  0
 12 19  1  0  0  0  0
 13 14  1  0  0  0  0
 13 20  1  0  0  0  0
 15 21  2  0  0  0  0
 16 22  1  0  0  0  0
 17 26  2  0  0  0  0
 17 27  1  0  0  0  0
 18 24  2  0  0  0  0
 19 25  2  0  0  0  0
 19 37  1  0  0  0  0
 20 23  2  0  0  0  0
 20 38  1  0  0  0  0
 21 23  1  0  0  0  0
 21 39  1  0  0  0  0
 22 28  2  0  0  0  0
 22 29  1  0  0  0  0
 24 25  1  0  0  0  0
 24 40  1  0  0  0  0
 26 30  1  0  0  0  0
 26 41  1  0  0  0  0
 27 31  2  0  0  0  0
 27 42  1  0  0  0  0
 28 33  1  0  0  0  0
 28 43  1  0  0  0  0
 29 34  2  0  0  0  0
 29 44  1  0  0  0  0
 30 32  2  0  0  0  0
 30 45  1  0  0  0  0
 31 32  1  0  0  0  0
 31 46  1  0  0  0  0
 33 35  2  0  0  0  0
 33 48  1  0  0  0  0
 34 35  1  0  0  0  0
 34 49  1  0  0  0  0
M  END
> <PUBCHEM_COMPOUND_CID>
10844302

> <PUBCHEM_CONFORMER_RMSD>
0.8

> <PUBCHEM_CONFORMER_DIVERSEORDER>
2
1
4
3

> <PUBCHEM_MMFF94_PARTIAL_CHARGES>
51
1 -0.28
10 -0.14
12 0.05
13 0.09
14 0.42
15 0.14
16 0.09
17 -0.14
18 0.08
19 -0.15
2 -0.57
20 -0.15
21 -0.15
22 0.05
23 0.08
24 -0.15
25 0.08
26 -0.15
27 -0.15
28 -0.15
29 -0.15
3 -0.53
30 -0.15
31 -0.15
32 0.08
33 -0.15
34 -0.15
35 0.08
37 0.15
38 0.15
39 0.15
4 -0.53
40 0.15
41 0.15
42 0.15
43 0.15
44 0.15
45 0.15
46 0.15
47 0.45
48 0.15
49 0.15
5 -0.53
50 0.45
51 0.45
52 0.45
53 0.45
6 -0.53
7 -0.53
8 0.35
9 -0.05

> <PUBCHEM_EFFECTIVE_ROTOR_COUNT>
2.2

> <PUBCHEM_PHARMACOPHORE_FEATURES>
13
1 1 acceptor
1 2 acceptor
1 3 donor
1 4 donor
1 5 donor
1 6 donor
1 7 donor
5 1 9 11 15 16 rings
6 10 12 18 19 24 25 rings
6 11 13 15 20 21 23 rings
6 17 26 27 30 31 32 rings
6 22 28 29 33 34 35 rings
7 8 9 10 11 12 13 14 rings

> <PUBCHEM_HEAVY_ATOM_COUNT>
35

> <PUBCHEM_ATOM_DEF_STEREO_COUNT>
0

> <PUBCHEM_ATOM_UDEF_STEREO_COUNT>
1

> <PUBCHEM_BOND_DEF_STEREO_COUNT>
0

> <PUBCHEM_BOND_UDEF_STEREO_COUNT>
0

> <PUBCHEM_ISOTOPIC_ATOM_COUNT>
0

> <PUBCHEM_COMPONENT_COUNT>
1

> <PUBCHEM_CACTVS_TAUTO_COUNT>
998

> <PUBCHEM_CONFORMER_ID>
00A5788E00000002

> <PUBCHEM_MMFF94_ENERGY>
114.3719

> <PUBCHEM_FEATURE_SELFOVERLAP>
66.13

> <PUBCHEM_SHAPE_FINGERPRINT>
10006869 2 18124895468631194873
10165383 225 17968374654125655095
1100329 8 17977970173372975161
11115154 58 17192287545962401973
11135926 11 18187376428904076078
11445158 3 17534083877292105310
11578080 2 16806456803187143623
12156800 1 17058340632012605885
12422481 6 16913172245500833355
12788726 201 17988628663395062757
13140716 1 17977683217928440928
13149001 5 17834377296111742431
133893 2 17896868860131870794
13761468 95 17604450564770779092
13911987 19 18188772876298622926
140371 6 17764872789744578552
14114206 34 18340207495869132404
14790565 3 18191892075197462504
15210252 30 16889156454401469295
15324884 4 16600111830198262203
15361156 5 17916046701359028644
20600515 1 17832956688661512008
20739085 24 16325423519693991048
22121540 332 15868580948591288029
23419403 2 16880206494075459839
23536364 44 18267017443604220303
57527306 92 17916883421032825291
70251023 43 17488454363724081221

> <PUBCHEM_SHAPE_MULTIPOLES>
679.2
8.48
4.68
3.28
12.41
0.05
4.27
-2.81
5.72
-1.72
-4.12
-3.7
0.83
-3.09

> <PUBCHEM_SHAPE_SELFOVERLAP>
1562.431

> <PUBCHEM_SHAPE_VOLUME>
348.5

> <PUBCHEM_COORDINATE_TYPE>
2
5
10

$$$$
