10849624
  -OEChem-03292013303D

 33 34  0     1  0  0  0  0  0999 V2000
   -1.2655   -0.7614    0.7786 O   0  0  0  0  0  0  0  0  0  0  0  0
   -1.1718    2.0678   -1.4669 O   0  0  0  0  0  0  0  0  0  0  0  0
   -3.4240    1.1650   -0.1463 O   0  0  0  0  0  0  0  0  0  0  0  0
   -2.0115   -3.3626    0.0688 O   0  0  0  0  0  0  0  0  0  0  0  0
    1.3847    2.2788   -0.4908 O   0  0  0  0  0  0  0  0  0  0  0  0
    4.7307   -0.8794   -0.2152 O   0  0  0  0  0  0  0  0  0  0  0  0
    0.8103    0.1070    0.1495 N   0  0  0  0  0  0  0  0  0  0  0  0
    3.0495    0.7045   -0.3537 N   0  0  0  0  0  0  0  0  0  0  0  0
   -0.5892    0.4169    0.2895 C   0  0  1  0  0  0  0  0  0  0  0  0
   -1.2323    0.7144   -1.0672 C   0  0  1  0  0  0  0  0  0  0  0  0
   -2.6527    0.2202   -0.8846 C   0  0  1  0  0  0  0  0  0  0  0  0
   -2.4456   -1.0151   -0.0176 C   0  0  1  0  0  0  0  0  0  0  0  0
   -2.2013   -2.2816   -0.8271 C   0  0  0  0  0  0  0  0  0  0  0  0
   -0.7171    1.4900    1.3250 C   0  0  0  0  0  0  0  0  0  0  0  0
    1.7140    1.1157   -0.2484 C   0  0  0  0  0  0  0  0  0  0  0  0
    1.2589   -1.1801    0.4068 C   0  0  0  0  0  0  0  0  0  0  0  0
   -1.3210    1.3220    2.5063 C   0  0  0  0  0  0  0  0  0  0  0  0
    2.5349   -1.5569    0.3021 C   0  0  0  0  0  0  0  0  0  0  0  0
    3.5490   -0.5653   -0.1091 C   0  0  0  0  0  0  0  0  0  0  0  0
   -0.7580    0.1142   -1.8552 H   0  0  0  0  0  0  0  0  0  0  0  0
   -3.1704    0.0326   -1.8297 H   0  0  0  0  0  0  0  0  0  0  0  0
   -3.2699   -1.1766    0.6862 H   0  0  0  0  0  0  0  0  0  0  0  0
   -1.3002   -2.2007   -1.4428 H   0  0  0  0  0  0  0  0  0  0  0  0
   -3.0585   -2.5046   -1.4697 H   0  0  0  0  0  0  0  0  0  0  0  0
   -0.3569    2.4916    1.1083 H   0  0  0  0  0  0  0  0  0  0  0  0
   -0.2410    2.2868   -1.6363 H   0  0  0  0  0  0  0  0  0  0  0  0
   -4.3078    0.7807   -0.0159 H   0  0  0  0  0  0  0  0  0  0  0  0
    0.5481   -1.9383    0.7096 H   0  0  0  0  0  0  0  0  0  0  0  0
   -1.3996    2.1585    3.1937 H   0  0  0  0  0  0  0  0  0  0  0  0
   -1.7448    0.3803    2.8336 H   0  0  0  0  0  0  0  0  0  0  0  0
    3.7207    1.4122   -0.6387 H   0  0  0  0  0  0  0  0  0  0  0  0
    2.8533   -2.5712    0.5094 H   0  0  0  0  0  0  0  0  0  0  0  0
   -1.8600   -4.1581   -0.4695 H   0  0  0  0  0  0  0  0  0  0  0  0
  1  9  1  0  0  0  0
  1 12  1  0  0  0  0
  2 10  1  0  0  0  0
  2 26  1  0  0  0  0
  3 11  1  0  0  0  0
  3 27  1  0  0  0  0
  4 13  1  0  0  0  0
  4 33  1  0  0  0  0
  5 15  2  0  0  0  0
  6 19  2  0  0  0  0
  7  9  1  0  0  0  0
  7 15  1  0  0  0  0
  7 16  1  0  0  0  0
  8 15  1  0  0  0  0
  8 19  1  0  0  0  0
  8 31  1  0  0  0  0
  9 10  1  0  0  0  0
  9 14  1  0  0  0  0
 10 11  1  0  0  0  0
 10 20  1  0  0  0  0
 11 12  1  0  0  0  0
 11 21  1  0  0  0  0
 12 13  1  0  0  0  0
 12 22  1  0  0  0  0
 13 23  1  0  0  0  0
 13 24  1  0  0  0  0
 14 17  2  0  0  0  0
 14 25  1  0  0  0  0
 16 18  2  0  0  0  0
 16 28  1  0  0  0  0
 17 29  1  0  0  0  0
 17 30  1  0  0  0  0
 18 19  1  0  0  0  0
 18 32  1  0  0  0  0
M  END
> <PUBCHEM_COMPOUND_CID>
10849624

> <PUBCHEM_CONFORMER_RMSD>
0.6

> <PUBCHEM_CONFORMER_DIVERSEORDER>
2
13
14
16
18
12
19
6
15
1
20
10
11
17
9
8
4
5
7
3

> <PUBCHEM_MMFF94_PARTIAL_CHARGES>
28
1 -0.56
10 0.28
11 0.28
12 0.28
13 0.28
14 -0.29
15 0.69
16 -0.04
17 -0.3
18 -0.14
19 0.62
2 -0.68
25 0.15
26 0.4
27 0.4
28 0.15
29 0.15
3 -0.68
30 0.15
31 0.37
32 0.15
33 0.4
4 -0.68
5 -0.57
6 -0.57
7 -0.47
8 -0.49
9 0.72

> <PUBCHEM_EFFECTIVE_ROTOR_COUNT>
4

> <PUBCHEM_PHARMACOPHORE_FEATURES>
13
1 1 acceptor
1 17 hydrophobe
1 2 acceptor
1 2 donor
1 3 acceptor
1 3 donor
1 4 acceptor
1 4 donor
1 5 acceptor
1 6 acceptor
1 8 donor
5 1 9 10 11 12 rings
6 7 8 15 16 18 19 rings

> <PUBCHEM_HEAVY_ATOM_COUNT>
19

> <PUBCHEM_ATOM_DEF_STEREO_COUNT>
4

> <PUBCHEM_ATOM_UDEF_STEREO_COUNT>
0

> <PUBCHEM_BOND_DEF_STEREO_COUNT>
0

> <PUBCHEM_BOND_UDEF_STEREO_COUNT>
0

> <PUBCHEM_ISOTOPIC_ATOM_COUNT>
0

> <PUBCHEM_COMPONENT_COUNT>
1

> <PUBCHEM_CACTVS_TAUTO_COUNT>
3

> <PUBCHEM_CONFORMER_ID>
00A58D5800000002

> <PUBCHEM_MMFF94_ENERGY>
58.0612

> <PUBCHEM_FEATURE_SELFOVERLAP>
65.993

> <PUBCHEM_SHAPE_FINGERPRINT>
11578080 2 18128239272411968873
12592029 89 17972598775856797843
12596599 1 18270983279472262814
13024252 1 15647346199425817193
13027679 85 18201437042800994635
13299463 15 18333728026696381652
14115302 16 18343019995183781457
14713566 1 18342173336891605475
14787075 74 16978994706244230384
14817 1 13145405609178569513
14863182 85 16179866451205052975
15001771 113 18341333374290023587
15375462 189 17839758284786367755
15775835 57 18187367575789445046
15906896 17 17488194707534798665
16945 1 18262779814179143757
200 152 18202275892657763606
21501502 16 18262797487795454612
221490 88 18191028009234114378
22344851 262 17822012003704358581
22802520 49 18188204420212900337
23402539 116 17703784765750333957
23419403 2 17843091922231554272
23557571 272 18130787901789146538
23559900 14 18272360967863710394
2748010 2 18044931513620045974
298252 57 17680691641280115549
3312278 4 18343301483050707786
427121 178 16052703069791704179
46194498 28 16814579214074854991
53812654 72 18341902865552801521
69090 78 18261667082837138143
6992083 37 18339658736603480424
74978 22 18412265042788610928
81228 2 17202779102377272921

> <PUBCHEM_SHAPE_MULTIPOLES>
345.83
5.56
2.57
1.36
5.26
1.33
-0.61
1.77
0.89
-1.38
-0.03
-0.86
-0.86
-0.43

> <PUBCHEM_SHAPE_SELFOVERLAP>
734.628

> <PUBCHEM_SHAPE_VOLUME>
190.9

> <PUBCHEM_COORDINATE_TYPE>
2
5
10

$$$$
