10851256
  -OEChem-03292013303D

 31 32  0     0  0  0  0  0  0999 V2000
   -1.2589   -0.2226    0.3425 S   0  0  0  0  0  0  0  0  0  0  0  0
    2.5040    0.4891   -0.7296 O   0  0  0  0  0  0  0  0  0  0  0  0
    4.0236   -1.8337   -1.3932 O   0  0  0  0  0  0  0  0  0  0  0  0
    4.0833    2.0867    1.0305 O   0  0  0  0  0  0  0  0  0  0  0  0
    1.5966   -0.6784    1.0382 O   0  0  0  0  0  0  0  0  0  0  0  0
   -2.4199    1.0894   -1.6174 O   0  0  0  0  0  0  0  0  0  0  0  0
    3.7466    0.1578   -0.2243 N   0  0  0  0  0  0  0  0  0  0  0  0
    5.6786   -1.0169    0.1730 C   0  0  0  0  0  0  0  0  0  0  0  0
    5.6983    0.2844    0.9779 C   0  0  0  0  0  0  0  0  0  0  0  0
    4.3882   -0.9792   -0.6003 C   0  0  0  0  0  0  0  0  0  0  0  0
    4.4180    0.9876    0.6162 C   0  0  0  0  0  0  0  0  0  0  0  0
    1.4591   -0.0084    0.0239 C   0  0  0  0  0  0  0  0  0  0  0  0
    0.1503    0.4029   -0.6029 C   0  0  0  0  0  0  0  0  0  0  0  0
   -3.9749    0.0914   -0.1600 C   0  0  0  0  0  0  0  0  0  0  0  0
   -2.5972    0.3999   -0.6207 C   0  0  0  0  0  0  0  0  0  0  0  0
   -4.9797    1.0043   -0.4054 C   0  0  0  0  0  0  0  0  0  0  0  0
   -4.2067   -1.0987    0.4986 C   0  0  0  0  0  0  0  0  0  0  0  0
   -6.2738    0.7146    0.0271 C   0  0  0  0  0  0  0  0  0  0  0  0
   -5.5009   -1.3884    0.9308 C   0  0  0  0  0  0  0  0  0  0  0  0
   -6.5345   -0.4817    0.6950 C   0  0  0  0  0  0  0  0  0  0  0  0
    5.6911   -1.8910    0.8305 H   0  0  0  0  0  0  0  0  0  0  0  0
    6.5242   -1.0683   -0.5189 H   0  0  0  0  0  0  0  0  0  0  0  0
    6.5542    0.9078    0.7033 H   0  0  0  0  0  0  0  0  0  0  0  0
    5.7211    0.0861    2.0534 H   0  0  0  0  0  0  0  0  0  0  0  0
    0.1082    1.4958   -0.6307 H   0  0  0  0  0  0  0  0  0  0  0  0
    0.1103   -0.0022   -1.6184 H   0  0  0  0  0  0  0  0  0  0  0  0
   -4.7906    1.9415   -0.9202 H   0  0  0  0  0  0  0  0  0  0  0  0
   -3.4394   -1.8448    0.6756 H   0  0  0  0  0  0  0  0  0  0  0  0
   -7.0785    1.4207   -0.1557 H   0  0  0  0  0  0  0  0  0  0  0  0
   -5.7060   -2.3230    1.4449 H   0  0  0  0  0  0  0  0  0  0  0  0
   -7.5424   -0.7081    1.0303 H   0  0  0  0  0  0  0  0  0  0  0  0
  1 13  1  0  0  0  0
  1 15  1  0  0  0  0
  2  7  1  0  0  0  0
  2 12  1  0  0  0  0
  3 10  2  0  0  0  0
  4 11  2  0  0  0  0
  5 12  2  0  0  0  0
  6 15  2  0  0  0  0
  7 10  1  0  0  0  0
  7 11  1  0  0  0  0
  8  9  1  0  0  0  0
  8 10  1  0  0  0  0
  8 21  1  0  0  0  0
  8 22  1  0  0  0  0
  9 11  1  0  0  0  0
  9 23  1  0  0  0  0
  9 24  1  0  0  0  0
 12 13  1  0  0  0  0
 13 25  1  0  0  0  0
 13 26  1  0  0  0  0
 14 15  1  0  0  0  0
 14 16  2  0  0  0  0
 14 17  1  0  0  0  0
 16 18  1  0  0  0  0
 16 27  1  0  0  0  0
 17 19  2  0  0  0  0
 17 28  1  0  0  0  0
 18 20  2  0  0  0  0
 18 29  1  0  0  0  0
 19 20  1  0  0  0  0
 19 30  1  0  0  0  0
 20 31  1  0  0  0  0
M  END
> <PUBCHEM_COMPOUND_CID>
10851256

> <PUBCHEM_CONFORMER_RMSD>
0.8

> <PUBCHEM_CONFORMER_DIVERSEORDER>
1
241
103
183
60
294
154
246
276
54
243
356
77
61
96
390
274
58
273
249
109
289
205
76
159
4
383
404
157
327
11
296
166
366
75
179
83
394
138
18
127
323
104
128
367
396
298
178
133
69
56
284
52
353
408
207
252
354
338
42
348
41
410
369
174
51
299
35
80
357
240
198
16
135
392
282
49
150
217
345
187
374
318
229
99
111
67
333
46
326
360
93
312
114
384
395
257
221
329
48
407
123
302
389
137
361
19
233
236
162
148
281
398
347
253
199
376
402
108
234
310
219
315
377
362
62
116
134
255
238
204
235
269
226
364
144
147
68
232
403
267
258
38
171
372
139
339
21
358
7
265
371
379
90
53
113
81
64
305
254
285
320
156
191
223
100
272
259
261
87
124
343
228
132
387
26
262
8
146
324
393
245
155
275
193
346
20
279
237
45
118
399
57
2
405
12
306
248
185
173
32
71
292
293
107
308
28
98
250
283
31
397
176
222
88
256
311
33
10
73
331
288
388
268
247
277
167
351
131
192
301
200
36
59
91
142
368
105
317
230
224
363
89
271
37
180
370
27
359
314
297
373
13
213
5
72
264
336
242
106
352
189
17
63
23
286
400
239
164
175
85
47
3
295
34
94
194
340
216
214
332
406
30
119
110
153
117
25
197
280
344
136
82
375
319
14
220
349
84
386
65
177
316
196
201
309
307
225
231
378
409
92
215
141
304
195
401
291
303
145
97
74
163
313
151
24
334
287
95
381
322
160
78
355
385
120
227
169
50
79
181
212
202
188
121
9
244
391
263
122
172
140
129
170
112
210
70
125
161
130
39
209
206
115
86
337
208
211
102
158
22
190
260
186
6
165
321
43
66
152
101
342
270
382
300
184
350
40
290
278
365
126
330
143
203
44
325
218
29
149
380
15
335
55
328
251
341
266
168
182

> <PUBCHEM_MMFF94_PARTIAL_CHARGES>
25
1 -0.37
10 0.57
11 0.57
12 0.66
13 0.29
14 0.09
15 0.62
16 -0.15
17 -0.15
18 -0.15
19 -0.15
2 -0.19
20 -0.15
27 0.15
28 0.15
29 0.15
3 -0.57
30 0.15
31 0.15
4 -0.57
5 -0.57
6 -0.57
7 -0.08
8 0.06
9 0.06

> <PUBCHEM_EFFECTIVE_ROTOR_COUNT>
6.6

> <PUBCHEM_PHARMACOPHORE_FEATURES>
5
1 3 acceptor
1 4 acceptor
1 5 acceptor
5 7 8 9 10 11 rings
6 14 16 17 18 19 20 rings

> <PUBCHEM_HEAVY_ATOM_COUNT>
20

> <PUBCHEM_ATOM_DEF_STEREO_COUNT>
0

> <PUBCHEM_ATOM_UDEF_STEREO_COUNT>
0

> <PUBCHEM_BOND_DEF_STEREO_COUNT>
0

> <PUBCHEM_BOND_UDEF_STEREO_COUNT>
0

> <PUBCHEM_ISOTOPIC_ATOM_COUNT>
0

> <PUBCHEM_COMPONENT_COUNT>
1

> <PUBCHEM_CACTVS_TAUTO_COUNT>
3

> <PUBCHEM_CONFORMER_ID>
00A593B800000001

> <PUBCHEM_MMFF94_ENERGY>
45.0484

> <PUBCHEM_FEATURE_SELFOVERLAP>
25.373

> <PUBCHEM_SHAPE_FINGERPRINT>
10912923 1 16271921627599461797
11287383 113 18412544331537134914
11315181 36 18113622296560697709
11524674 6 18202565086145211255
12166972 35 16877944932133726156
12236239 1 15430036543420689407
12516196 113 18412545418686333969
12596602 18 18059860588651193827
12616971 3 17560793351398390692
12730499 353 18413672422663437738
12916748 109 18040151808099722068
13167372 99 17489594419938447673
13288520 33 17676489454399990903
13533116 47 17203332165748715966
13862211 1 17022902376270529395
1420 363 18186240632384787107
14251764 18 16732700558906844320
14341114 176 18343305872612818297
14933364 13 18411702092687626593
15183329 4 17312823775393727051
15348495 7 18340486776375439499
17349148 13 15864070961798265357
17844677 252 18343589525117011497
18222031 100 15864068784481909780
19433438 28 18335415764044454668
19489759 90 17894911824197951369
20281389 69 15769776840811591859
21150785 3 16877951533941350494
21267235 1 17530975704882382243
21623969 137 18131356301560402559
220451 1 17203610401850151911
22956985 138 16083876410667821794
2297311 6 18113624456480744717
2303208 19 18336274478610296771
23035841 295 17167865266600327811
23402539 116 16877939443339165935
23522609 53 16372156320281543805
23536379 177 18130788940864965435
23557571 272 17895479124631393245
23559900 14 18335137617656738633
239999 70 18409451380149474678
2767999 5 14764347124383979441
29717793 49 14851603259105158730
300161 21 16056873637396459620
3004659 81 17167868573208194292
351380 3 16226045600342412097
3545911 37 18113336388686945355
4340502 62 18273495671921156046
465052 167 13767922399988438792
5104073 3 18270677546314659704
542803 24 15841551881366525473
59755656 215 18113901528757735371

> <PUBCHEM_SHAPE_MULTIPOLES>
381.11
18.34
1.42
1.11
4.68
0.02
-0.12
1.96
3.31
-0.3
0.03
-0.64
-0.01
1.9

> <PUBCHEM_SHAPE_SELFOVERLAP>
794.018

> <PUBCHEM_SHAPE_VOLUME>
216.4

> <PUBCHEM_COORDINATE_TYPE>
2
5
10

$$$$
