10863488
  -OEChem-03292013303D

 65 68  0     1  0  0  0  0  0999 V2000
    2.5715   -0.2790   -0.4780 O   0  0  0  0  0  0  0  0  0  0  0  0
    2.3028    1.2807    1.2365 O   0  0  0  0  0  0  0  0  0  0  0  0
    6.4140   -1.1135    0.7078 O   0  0  0  0  0  0  0  0  0  0  0  0
    5.5249   -1.8837   -1.9326 O   0  0  0  0  0  0  0  0  0  0  0  0
    5.1136    1.3948    1.5435 O   0  0  0  0  0  0  0  0  0  0  0  0
    1.4437   -1.1935   -2.8120 O   0  0  0  0  0  0  0  0  0  0  0  0
   -4.4893    1.3727   -2.4995 O   0  0  0  0  0  0  0  0  0  0  0  0
   -0.0418    0.0836    2.0218 O   0  0  0  0  0  0  0  0  0  0  0  0
    5.4042   -0.4169   -0.0239 C   0  0  1  0  0  0  0  0  0  0  0  0
    4.6622   -1.4339   -0.8912 C   0  0  1  0  0  0  0  0  0  0  0  0
    4.4537    0.2752    0.9532 C   0  0  2  0  0  0  0  0  0  0  0  0
    3.4079   -0.8097   -1.5074 C   0  0  1  0  0  0  0  0  0  0  0  0
    3.1971    0.7797    0.2435 C   0  0  1  0  0  0  0  0  0  0  0  0
    2.5883   -1.8369   -2.2821 C   0  0  0  0  0  0  0  0  0  0  0  0
   -3.9946    1.1819   -1.1765 C   0  0  2  0  0  0  0  0  0  0  0  0
   -4.8851    0.1899   -0.4124 C   0  0  0  0  0  0  0  0  0  0  0  0
   -3.9305    2.5438   -0.4549 C   0  0  0  0  0  0  0  0  0  0  0  0
   -5.0204   -1.1718   -1.1142 C   0  0  0  0  0  0  0  0  0  0  0  0
    1.1111    1.7750    0.8043 C   0  0  0  0  0  0  0  0  0  0  0  0
   -2.6371    3.3353   -0.7398 C   0  0  0  0  0  0  0  0  0  0  0  0
   -5.3985   -2.2992   -0.1348 C   0  0  0  0  0  0  0  0  0  0  0  0
   -1.3452    2.7922   -0.1618 C   0  0  0  0  0  0  0  0  0  0  0  0
   -0.0921    1.2051    1.2078 C   0  0  0  0  0  0  0  0  0  0  0  0
   -4.2374   -3.2405    0.2413 C   0  0  0  0  0  0  0  0  0  0  0  0
    1.0914    2.8525   -0.0813 C   0  0  0  0  0  0  0  0  0  0  0  0
   -1.3097    1.7521    0.7730 C   0  0  0  0  0  0  0  0  0  0  0  0
   -0.1237    3.3477   -0.5702 C   0  0  0  0  0  0  0  0  0  0  0  0
   -3.0300   -2.5349    0.8040 C   0  0  0  0  0  0  0  0  0  0  0  0
   -0.9450   -0.9023    1.6730 C   0  0  0  0  0  0  0  0  0  0  0  0
   -1.8961   -2.3472   -0.0003 C   0  0  0  0  0  0  0  0  0  0  0  0
   -3.0531   -1.9864    2.0948 C   0  0  0  0  0  0  0  0  0  0  0  0
   -0.8503   -1.5376    0.4324 C   0  0  0  0  0  0  0  0  0  0  0  0
   -2.0066   -1.1750    2.5359 C   0  0  0  0  0  0  0  0  0  0  0  0
    5.9254    0.3203   -0.6470 H   0  0  0  0  0  0  0  0  0  0  0  0
    4.4010   -2.3032   -0.2736 H   0  0  0  0  0  0  0  0  0  0  0  0
    4.1888   -0.4047    1.7716 H   0  0  0  0  0  0  0  0  0  0  0  0
    3.6728    0.0031   -2.1975 H   0  0  0  0  0  0  0  0  0  0  0  0
    3.4649    1.5918   -0.4451 H   0  0  0  0  0  0  0  0  0  0  0  0
    2.2425   -2.6454   -1.6296 H   0  0  0  0  0  0  0  0  0  0  0  0
    3.1485   -2.2689   -3.1153 H   0  0  0  0  0  0  0  0  0  0  0  0
   -2.9956    0.7459   -1.2742 H   0  0  0  0  0  0  0  0  0  0  0  0
    6.9910   -1.5541    0.0607 H   0  0  0  0  0  0  0  0  0  0  0  0
    5.1365   -2.6887   -2.3141 H   0  0  0  0  0  0  0  0  0  0  0  0
   -5.8913    0.6114   -0.2923 H   0  0  0  0  0  0  0  0  0  0  0  0
   -4.4736    0.0607    0.5937 H   0  0  0  0  0  0  0  0  0  0  0  0
    5.3592    2.0100    0.8317 H   0  0  0  0  0  0  0  0  0  0  0  0
   -4.0459    2.4200    0.6281 H   0  0  0  0  0  0  0  0  0  0  0  0
   -4.7756    3.1618   -0.7852 H   0  0  0  0  0  0  0  0  0  0  0  0
   -5.8128   -1.0825   -1.8683 H   0  0  0  0  0  0  0  0  0  0  0  0
   -4.1079   -1.4275   -1.6634 H   0  0  0  0  0  0  0  0  0  0  0  0
   -2.7692    4.3483   -0.3385 H   0  0  0  0  0  0  0  0  0  0  0  0
   -2.5215    3.4305   -1.8271 H   0  0  0  0  0  0  0  0  0  0  0  0
   -6.1745   -2.9171   -0.6046 H   0  0  0  0  0  0  0  0  0  0  0  0
   -5.8517   -1.8816    0.7727 H   0  0  0  0  0  0  0  0  0  0  0  0
   -3.9478   -3.8217   -0.6435 H   0  0  0  0  0  0  0  0  0  0  0  0
   -4.5918   -3.9759    0.9748 H   0  0  0  0  0  0  0  0  0  0  0  0
    2.0141    3.3243   -0.4081 H   0  0  0  0  0  0  0  0  0  0  0  0
   -2.2371    1.3290    1.1435 H   0  0  0  0  0  0  0  0  0  0  0  0
    1.0033   -0.7196   -2.0868 H   0  0  0  0  0  0  0  0  0  0  0  0
   -0.1095    4.1742   -1.2770 H   0  0  0  0  0  0  0  0  0  0  0  0
   -5.4063    1.6893   -2.4324 H   0  0  0  0  0  0  0  0  0  0  0  0
   -1.8491   -2.7804   -0.9964 H   0  0  0  0  0  0  0  0  0  0  0  0
   -3.9167   -2.1360    2.7379 H   0  0  0  0  0  0  0  0  0  0  0  0
   -0.0084   -1.3532   -0.2249 H   0  0  0  0  0  0  0  0  0  0  0  0
   -2.0680   -0.6951    3.5083 H   0  0  0  0  0  0  0  0  0  0  0  0
  1 12  1  0  0  0  0
  1 13  1  0  0  0  0
  2 13  1  0  0  0  0
  2 19  1  0  0  0  0
  3  9  1  0  0  0  0
  3 42  1  0  0  0  0
  4 10  1  0  0  0  0
  4 43  1  0  0  0  0
  5 11  1  0  0  0  0
  5 46  1  0  0  0  0
  6 14  1  0  0  0  0
  6 59  1  0  0  0  0
  7 15  1  0  0  0  0
  7 61  1  0  0  0  0
  8 23  1  0  0  0  0
  8 29  1  0  0  0  0
  9 10  1  0  0  0  0
  9 11  1  0  0  0  0
  9 34  1  0  0  0  0
 10 12  1  0  0  0  0
 10 35  1  0  0  0  0
 11 13  1  0  0  0  0
 11 36  1  0  0  0  0
 12 14  1  0  0  0  0
 12 37  1  0  0  0  0
 13 38  1  0  0  0  0
 14 39  1  0  0  0  0
 14 40  1  0  0  0  0
 15 16  1  0  0  0  0
 15 17  1  0  0  0  0
 15 41  1  0  0  0  0
 16 18  1  0  0  0  0
 16 44  1  0  0  0  0
 16 45  1  0  0  0  0
 17 20  1  0  0  0  0
 17 47  1  0  0  0  0
 17 48  1  0  0  0  0
 18 21  1  0  0  0  0
 18 49  1  0  0  0  0
 18 50  1  0  0  0  0
 19 23  2  0  0  0  0
 19 25  1  0  0  0  0
 20 22  1  0  0  0  0
 20 51  1  0  0  0  0
 20 52  1  0  0  0  0
 21 24  1  0  0  0  0
 21 53  1  0  0  0  0
 21 54  1  0  0  0  0
 22 26  2  0  0  0  0
 22 27  1  0  0  0  0
 23 26  1  0  0  0  0
 24 28  1  0  0  0  0
 24 55  1  0  0  0  0
 24 56  1  0  0  0  0
 25 27  2  0  0  0  0
 25 57  1  0  0  0  0
 26 58  1  0  0  0  0
 27 60  1  0  0  0  0
 28 30  2  0  0  0  0
 28 31  1  0  0  0  0
 29 32  2  0  0  0  0
 29 33  1  0  0  0  0
 30 32  1  0  0  0  0
 30 62  1  0  0  0  0
 31 33  2  0  0  0  0
 31 63  1  0  0  0  0
 32 64  1  0  0  0  0
 33 65  1  0  0  0  0
M  END
> <PUBCHEM_COMPOUND_CID>
10863488

> <PUBCHEM_CONFORMER_RMSD>
1

> <PUBCHEM_CONFORMER_DIVERSEORDER>
2
190
203
377
104
6
23
69
133
40
91
500
384
24
68
50
208
160
177
74
344
101
173
461
11
71
373
115
129
185
263
38
167
62
157
202
142
102
4
56
1
335
146
48
186
265
368
361
357
334
45
20
209
8
109
76
112
394
77
92
196
111
442
80
151
174
253
3
30
17
275
450
116
259
380
106
308
7
58
13
9
28
305
39
302
467
496
194
155
18
179
507
46
276
41
152
331
79
21
61
31
33
82
154

> <PUBCHEM_MMFF94_PARTIAL_CHARGES>
41
1 -0.56
10 0.28
11 0.28
12 0.28
13 0.56
14 0.28
15 0.28
19 0.08
2 -0.36
20 0.14
22 -0.14
23 0.08
24 0.14
25 -0.15
26 -0.15
27 -0.15
28 -0.14
29 0.08
3 -0.68
30 -0.15
31 -0.15
32 -0.15
33 -0.15
4 -0.68
42 0.4
43 0.4
46 0.4
5 -0.68
57 0.15
58 0.15
59 0.4
6 -0.68
60 0.15
61 0.4
62 0.15
63 0.15
64 0.15
65 0.15
7 -0.68
8 -0.17
9 0.28

> <PUBCHEM_EFFECTIVE_ROTOR_COUNT>
5.8

> <PUBCHEM_PHARMACOPHORE_FEATURES>
16
1 1 acceptor
1 2 acceptor
1 3 acceptor
1 3 donor
1 4 acceptor
1 4 donor
1 5 acceptor
1 5 donor
1 6 acceptor
1 6 donor
1 7 acceptor
1 7 donor
1 8 acceptor
6 1 9 10 11 12 13 rings
6 19 22 23 25 26 27 rings
6 28 29 30 31 32 33 rings

> <PUBCHEM_HEAVY_ATOM_COUNT>
33

> <PUBCHEM_ATOM_DEF_STEREO_COUNT>
6

> <PUBCHEM_ATOM_UDEF_STEREO_COUNT>
0

> <PUBCHEM_BOND_DEF_STEREO_COUNT>
0

> <PUBCHEM_BOND_UDEF_STEREO_COUNT>
0

> <PUBCHEM_ISOTOPIC_ATOM_COUNT>
0

> <PUBCHEM_COMPONENT_COUNT>
1

> <PUBCHEM_CACTVS_TAUTO_COUNT>
1

> <PUBCHEM_CONFORMER_ID>
00A5C38000000002

> <PUBCHEM_MMFF94_ENERGY>
112.7453

> <PUBCHEM_FEATURE_SELFOVERLAP>
81.269

> <PUBCHEM_SHAPE_FINGERPRINT>
10838868 49 18191000379245639474
108634 29 18410573959576813342
11434127 23 18196916808402122188
11513181 2 17758678137386295687
11828532 37 17898008186740145583
12293681 25 18200605674402780606
12422481 6 18127998419430466739
13402501 40 18343298150176984021
14004853 49 17479442891637258032
14114211 68 17096073716001697523
14251757 17 18341611499704128183
14415360 78 16267113648457765904
14840074 17 17910682287068940608
14931854 50 18042659799003086055
17357779 13 18272938214850636735
17627616 140 17897149235802942027
17909252 39 18121785199133426457
1813 80 18193295180419040122
19315092 285 15983108609728848509
20764821 26 18265077832294306589
21033650 10 18040442074489411506
21285901 2 18341334495603606855
21792965 78 18042682806231177098
22907989 373 18044687280389596933
23536364 44 18187638120570032177
23559900 14 18337663205020697120
23572383 38 18343017774785922950
244849 19 17488438884762667849
3380486 145 18130508655399153585
437795 70 18335421275004135235
46194498 28 18120371214405396079
508706 21 18339086999099232463
5283173 99 18409443670160945504
9862886 166 18409446964664326396

> <PUBCHEM_SHAPE_MULTIPOLES>
632.17
12.35
4.07
2.2
9.19
1.82
-0.4
-6.44
-3.19
-4.04
-0.49
0.34
-0.87
3.03

> <PUBCHEM_SHAPE_SELFOVERLAP>
1339.668

> <PUBCHEM_SHAPE_VOLUME>
347.6

> <PUBCHEM_COORDINATE_TYPE>
2
5
10

$$$$
