10862189
  -OEChem-03292013303D

 49 52  0     1  0  0  0  0  0999 V2000
    1.7734    0.6258    0.1831 O   0  0  0  0  0  0  0  0  0  0  0  0
    5.2527    1.5440    0.4434 O   0  0  0  0  0  0  0  0  0  0  0  0
   -0.2894    2.0330    0.1512 O   0  0  0  0  0  0  0  0  0  0  0  0
   -3.3534   -2.5550   -0.1399 O   0  0  0  0  0  0  0  0  0  0  0  0
   -2.3968    3.3455    0.2276 O   0  0  0  0  0  0  0  0  0  0  0  0
   -5.3830   -1.0685   -0.2296 O   0  0  0  0  0  0  0  0  0  0  0  0
    3.6277   -2.9927    0.0778 O   0  0  0  0  0  0  0  0  0  0  0  0
   -0.3962   -0.3689    0.0551 C   0  0  0  0  0  0  0  0  0  0  0  0
    3.8539    1.8317    0.3245 C   0  0  2  0  0  0  0  0  0  0  0  0
    1.0102   -0.5181    0.1002 C   0  0  0  0  0  0  0  0  0  0  0  0
   -1.1992   -1.5322   -0.0316 C   0  0  0  0  0  0  0  0  0  0  0  0
   -2.4341    0.9933    0.0401 C   0  0  0  0  0  0  0  0  0  0  0  0
    1.5933   -1.7867    0.0607 C   0  0  0  0  0  0  0  0  0  0  0  0
   -3.2146   -0.1590   -0.0342 C   0  0  0  0  0  0  0  0  0  0  0  0
    3.1517    0.5136    0.2320 C   0  0  0  0  0  0  0  0  0  0  0  0
   -1.0383    0.8887    0.0892 C   0  0  0  0  0  0  0  0  0  0  0  0
   -2.5990   -1.4142   -0.0750 C   0  0  0  0  0  0  0  0  0  0  0  0
    0.7980   -2.9270   -0.0245 C   0  0  0  0  0  0  0  0  0  0  0  0
    3.6621    2.6823   -0.9487 C   0  0  0  0  0  0  0  0  0  0  0  0
   -0.5891   -2.7964   -0.0700 C   0  0  0  0  0  0  0  0  0  0  0  0
   -4.5291    2.4056   -0.3155 C   0  0  0  0  0  0  0  0  0  0  0  0
   -5.3059    1.2627    0.3033 C   0  0  0  0  0  0  0  0  0  0  0  0
   -3.0635    2.3346    0.0308 C   0  0  0  0  0  0  0  0  0  0  0  0
   -4.6935   -0.0730   -0.0332 C   0  0  0  0  0  0  0  0  0  0  0  0
    3.0592   -1.9099    0.1098 C   0  0  0  0  0  0  0  0  0  0  0  0
    3.8164   -0.6492    0.2011 C   0  0  0  0  0  0  0  0  0  0  0  0
    3.4257    2.5836    1.5888 C   0  0  0  0  0  0  0  0  0  0  0  0
    1.3442   -4.3178   -0.0714 C   0  0  0  0  0  0  0  0  0  0  0  0
    4.1161    2.0239   -2.2452 C   0  0  0  0  0  0  0  0  0  0  0  0
    4.2339    3.6136   -0.8406 H   0  0  0  0  0  0  0  0  0  0  0  0
    2.6093    2.9734   -1.0522 H   0  0  0  0  0  0  0  0  0  0  0  0
   -1.1855   -3.7044   -0.1183 H   0  0  0  0  0  0  0  0  0  0  0  0
   -4.9312    3.3568    0.0499 H   0  0  0  0  0  0  0  0  0  0  0  0
   -4.6160    2.3952   -1.4081 H   0  0  0  0  0  0  0  0  0  0  0  0
   -6.3360    1.2814   -0.0689 H   0  0  0  0  0  0  0  0  0  0  0  0
   -5.3355    1.3521    1.3953 H   0  0  0  0  0  0  0  0  0  0  0  0
    4.8949   -0.7418    0.2355 H   0  0  0  0  0  0  0  0  0  0  0  0
    3.6053    1.9805    2.4869 H   0  0  0  0  0  0  0  0  0  0  0  0
    2.3666    2.8612    1.5638 H   0  0  0  0  0  0  0  0  0  0  0  0
    4.0140    3.5005    1.7117 H   0  0  0  0  0  0  0  0  0  0  0  0
    0.5480   -5.0686   -0.1386 H   0  0  0  0  0  0  0  0  0  0  0  0
    1.9719   -4.4619   -0.9568 H   0  0  0  0  0  0  0  0  0  0  0  0
    1.9034   -4.5495    0.8409 H   0  0  0  0  0  0  0  0  0  0  0  0
    3.5217    1.1343   -2.4743 H   0  0  0  0  0  0  0  0  0  0  0  0
    3.9979    2.7229   -3.0796 H   0  0  0  0  0  0  0  0  0  0  0  0
    5.1705    1.7346   -2.1991 H   0  0  0  0  0  0  0  0  0  0  0  0
    5.7285    2.3891    0.5157 H   0  0  0  0  0  0  0  0  0  0  0  0
    0.5978    1.8731   -0.2045 H   0  0  0  0  0  0  0  0  0  0  0  0
   -2.9657   -3.1523   -0.8012 H   0  0  0  0  0  0  0  0  0  0  0  0
  1 10  1  0  0  0  0
  1 15  1  0  0  0  0
  2  9  1  0  0  0  0
  2 47  1  0  0  0  0
  3 16  1  0  0  0  0
  3 48  1  0  0  0  0
  4 17  1  0  0  0  0
  4 49  1  0  0  0  0
  5 23  2  0  0  0  0
  6 24  2  0  0  0  0
  7 25  2  0  0  0  0
  8 10  1  0  0  0  0
  8 11  2  0  0  0  0
  8 16  1  0  0  0  0
  9 15  1  0  0  0  0
  9 19  1  0  0  0  0
  9 27  1  0  0  0  0
 10 13  2  0  0  0  0
 11 17  1  0  0  0  0
 11 20  1  0  0  0  0
 12 14  1  0  0  0  0
 12 16  2  0  0  0  0
 12 23  1  0  0  0  0
 13 18  1  0  0  0  0
 13 25  1  0  0  0  0
 14 17  2  0  0  0  0
 14 24  1  0  0  0  0
 15 26  2  0  0  0  0
 18 20  2  0  0  0  0
 18 28  1  0  0  0  0
 19 29  1  0  0  0  0
 19 30  1  0  0  0  0
 19 31  1  0  0  0  0
 20 32  1  0  0  0  0
 21 22  1  0  0  0  0
 21 23  1  0  0  0  0
 21 33  1  0  0  0  0
 21 34  1  0  0  0  0
 22 24  1  0  0  0  0
 22 35  1  0  0  0  0
 22 36  1  0  0  0  0
 25 26  1  0  0  0  0
 26 37  1  0  0  0  0
 27 38  1  0  0  0  0
 27 39  1  0  0  0  0
 27 40  1  0  0  0  0
 28 41  1  0  0  0  0
 28 42  1  0  0  0  0
 28 43  1  0  0  0  0
 29 44  1  0  0  0  0
 29 45  1  0  0  0  0
 29 46  1  0  0  0  0
M  END
> <PUBCHEM_COMPOUND_CID>
10862189

> <PUBCHEM_CONFORMER_RMSD>
0.6

> <PUBCHEM_CONFORMER_DIVERSEORDER>
3
4
7
8
5
6
2
1

> <PUBCHEM_MMFF94_PARTIAL_CHARGES>
29
1 -0.16
10 0.08
12 0.09
13 0.09
14 0.09
15 -0.06
16 0.08
17 0.08
18 -0.14
2 -0.68
20 -0.15
21 0.06
22 0.06
23 0.42
24 0.42
25 0.47
26 -0.14
28 0.14
3 -0.53
32 0.15
37 0.15
4 -0.53
47 0.4
48 0.45
49 0.45
5 -0.57
6 -0.57
7 -0.57
9 0.42

> <PUBCHEM_EFFECTIVE_ROTOR_COUNT>
2.4

> <PUBCHEM_PHARMACOPHORE_FEATURES>
13
1 1 acceptor
1 2 acceptor
1 2 donor
1 29 hydrophobe
1 3 donor
1 4 donor
1 5 acceptor
1 6 acceptor
1 7 acceptor
6 1 10 13 15 25 26 rings
6 12 14 21 22 23 24 rings
6 8 10 11 13 18 20 rings
6 8 11 12 14 16 17 rings

> <PUBCHEM_HEAVY_ATOM_COUNT>
29

> <PUBCHEM_ATOM_DEF_STEREO_COUNT>
0

> <PUBCHEM_ATOM_UDEF_STEREO_COUNT>
1

> <PUBCHEM_BOND_DEF_STEREO_COUNT>
0

> <PUBCHEM_BOND_UDEF_STEREO_COUNT>
0

> <PUBCHEM_ISOTOPIC_ATOM_COUNT>
0

> <PUBCHEM_COMPONENT_COUNT>
1

> <PUBCHEM_CACTVS_TAUTO_COUNT>
375

> <PUBCHEM_CONFORMER_ID>
00A5BE6D00000003

> <PUBCHEM_MMFF94_ENERGY>
96.3263

> <PUBCHEM_FEATURE_SELFOVERLAP>
66.046

> <PUBCHEM_SHAPE_FINGERPRINT>
10411042 1 17474950922127307115
10616163 171 18410575114759621987
10670039 82 18263092166056021820
10967382 1 18051410660775464787
1100329 8 17980481161356512480
11513181 2 18201721760162101278
11582403 64 16843009144589189760
12173636 292 18339355374383401524
12403259 226 18048030775137966990
12403260 363 18337945693118630555
12788726 201 17396151595755524654
12925494 130 18124309416249615713
13140716 1 18410285891862629538
13617811 41 18263917908105386085
138480 1 17834956378073636450
13965767 371 18188749748448866960
14790565 3 18338521957639396465
15196674 1 18411416181521161667
15320467 1 17834674172826573616
17492 89 18338796711034928731
18681886 176 18270953528181828866
19591789 44 18412260606197982171
20715895 44 18192139417789581029
21133410 127 18113335310693737004
21267235 1 18267873774574099563
22149856 69 18339377314157862555
22393880 68 18342464737727712870
23227448 37 18413103940301568055
23366157 5 18116153272684033187
23558518 356 18333450932470723371
23559900 14 18269266859652786995
245318 6 17750533938331213508
3298306 158 18343582970933386908
335352 9 18195244403955374526
3380486 145 18118140284350142339
338550 245 18335703858040450860
350125 39 18410011009950426496
469060 322 18048617081476901147
474 4 17967534605540162048
5104073 3 18409168775522376595
5265222 85 18051418659233912020
5312544 6 18408042905110455628
59755656 215 18411984659366421044
6034566 193 18045807803018678581
6287921 2 18262807267473060645
7808743 9 17977104879714423736
9709674 26 18267589009620889079
9981440 41 18335980960255255475

> <PUBCHEM_SHAPE_MULTIPOLES>
555.72
10.49
4.6
0.93
4.41
2.14
-0.27
-6.09
-0.46
-2.12
-0.15
-1.21
-0.74
-0.44

> <PUBCHEM_SHAPE_SELFOVERLAP>
1247.741

> <PUBCHEM_SHAPE_VOLUME>
293.3

> <PUBCHEM_COORDINATE_TYPE>
2
5
10

$$$$
