10874014
  -OEChem-03292013303D

 56 59  0     1  0  0  0  0  0999 V2000
   -3.0951    0.4738   -0.5926 O   0  0  0  0  0  0  0  0  0  0  0  0
   -2.2104   -0.5451    1.3109 O   0  0  0  0  0  0  0  0  0  0  0  0
   -6.0908    2.2439    1.5889 O   0  0  0  0  0  0  0  0  0  0  0  0
   -6.3236    2.0577   -1.2863 O   0  0  0  0  0  0  0  0  0  0  0  0
   -4.6562   -0.0953    2.6615 O   0  0  0  0  0  0  0  0  0  0  0  0
    1.7664    0.6704    0.6868 O   0  0  0  0  0  0  0  0  0  0  0  0
   -2.9800    0.4724   -3.3390 O   0  0  0  0  0  0  0  0  0  0  0  0
   -1.3203   -4.6867   -0.8280 O   0  0  0  0  0  0  0  0  0  0  0  0
   -0.3726    1.2870    1.0990 O   0  0  0  0  0  0  0  0  0  0  0  0
    7.8527    1.7427   -0.4370 O   0  0  0  0  0  0  0  0  0  0  0  0
   -5.4918    1.2072    0.8099 C   0  0  1  0  0  0  0  0  0  0  0  0
   -5.1293    1.7913   -0.5556 C   0  0  1  0  0  0  0  0  0  0  0  0
   -4.2524    0.6791    1.5325 C   0  0  2  0  0  0  0  0  0  0  0  0
   -4.2574    0.8157   -1.3496 C   0  0  1  0  0  0  0  0  0  0  0  0
   -3.4120   -0.2111    0.6170 C   0  0  1  0  0  0  0  0  0  0  0  0
   -3.7861    1.4230   -2.6671 C   0  0  0  0  0  0  0  0  0  0  0  0
   -1.3207   -1.3373    0.6453 C   0  0  0  0  0  0  0  0  0  0  0  0
   -0.0103   -0.9331    0.3696 C   0  0  0  0  0  0  0  0  0  0  0  0
    2.2578   -1.3302   -0.6122 C   0  0  0  0  0  0  0  0  0  0  0  0
    0.8659   -1.7932   -0.3036 C   0  0  0  0  0  0  0  0  0  0  0  0
    2.7069   -0.4184    0.5246 C   0  0  1  0  0  0  0  0  0  0  0  0
   -1.7551   -2.6016    0.2460 C   0  0  0  0  0  0  0  0  0  0  0  0
    0.4298    0.4280    0.7577 C   0  0  0  0  0  0  0  0  0  0  0  0
    0.4159   -3.0527   -0.7141 C   0  0  0  0  0  0  0  0  0  0  0  0
    4.0809    0.1587    0.2676 C   0  0  0  0  0  0  0  0  0  0  0  0
   -0.8896   -3.4566   -0.4347 C   0  0  0  0  0  0  0  0  0  0  0  0
    5.2141   -0.4957    0.7510 C   0  0  0  0  0  0  0  0  0  0  0  0
    4.2156    1.3457   -0.4529 C   0  0  0  0  0  0  0  0  0  0  0  0
    6.4813    0.0368    0.5142 C   0  0  0  0  0  0  0  0  0  0  0  0
    5.4829    1.8781   -0.6900 C   0  0  0  0  0  0  0  0  0  0  0  0
    6.6159    1.2235   -0.2064 C   0  0  0  0  0  0  0  0  0  0  0  0
    8.9674    1.0221    0.0864 C   0  0  0  0  0  0  0  0  0  0  0  0
   -6.2501    0.4218    0.7098 H   0  0  0  0  0  0  0  0  0  0  0  0
   -4.6063    2.7456   -0.4107 H   0  0  0  0  0  0  0  0  0  0  0  0
   -3.6524    1.5144    1.9148 H   0  0  0  0  0  0  0  0  0  0  0  0
   -4.8093   -0.1060   -1.5793 H   0  0  0  0  0  0  0  0  0  0  0  0
   -3.9748   -1.1264    0.3929 H   0  0  0  0  0  0  0  0  0  0  0  0
   -3.1788    2.3189   -2.5013 H   0  0  0  0  0  0  0  0  0  0  0  0
   -4.6220    1.6789   -3.3235 H   0  0  0  0  0  0  0  0  0  0  0  0
   -5.4330    2.9496    1.7110 H   0  0  0  0  0  0  0  0  0  0  0  0
   -6.0943    2.6402   -2.0296 H   0  0  0  0  0  0  0  0  0  0  0  0
    2.9418   -2.1813   -0.7111 H   0  0  0  0  0  0  0  0  0  0  0  0
    2.2367   -0.7950   -1.5699 H   0  0  0  0  0  0  0  0  0  0  0  0
   -3.8490   -0.4302    3.0885 H   0  0  0  0  0  0  0  0  0  0  0  0
    2.7244   -0.9569    1.4825 H   0  0  0  0  0  0  0  0  0  0  0  0
   -2.7596   -2.9475    0.4750 H   0  0  0  0  0  0  0  0  0  0  0  0
    1.0892   -3.7174   -1.2501 H   0  0  0  0  0  0  0  0  0  0  0  0
   -2.2411    0.2437   -2.7494 H   0  0  0  0  0  0  0  0  0  0  0  0
    5.1212   -1.4220    1.3118 H   0  0  0  0  0  0  0  0  0  0  0  0
    3.3494    1.8674   -0.8503 H   0  0  0  0  0  0  0  0  0  0  0  0
    7.3181   -0.5230    0.9177 H   0  0  0  0  0  0  0  0  0  0  0  0
    5.5818    2.8015   -1.2542 H   0  0  0  0  0  0  0  0  0  0  0  0
   -0.5934   -5.1443   -1.2845 H   0  0  0  0  0  0  0  0  0  0  0  0
    9.0525    0.0282   -0.3659 H   0  0  0  0  0  0  0  0  0  0  0  0
    8.9412    0.9795    1.1805 H   0  0  0  0  0  0  0  0  0  0  0  0
    9.8698    1.5772   -0.1902 H   0  0  0  0  0  0  0  0  0  0  0  0
  1 14  1  0  0  0  0
  1 15  1  0  0  0  0
  2 15  1  0  0  0  0
  2 17  1  0  0  0  0
  3 11  1  0  0  0  0
  3 40  1  0  0  0  0
  4 12  1  0  0  0  0
  4 41  1  0  0  0  0
  5 13  1  0  0  0  0
  5 44  1  0  0  0  0
  6 21  1  0  0  0  0
  6 23  1  0  0  0  0
  7 16  1  0  0  0  0
  7 48  1  0  0  0  0
  8 26  1  0  0  0  0
  8 53  1  0  0  0  0
  9 23  2  0  0  0  0
 10 31  1  0  0  0  0
 10 32  1  0  0  0  0
 11 12  1  0  0  0  0
 11 13  1  0  0  0  0
 11 33  1  0  0  0  0
 12 14  1  0  0  0  0
 12 34  1  0  0  0  0
 13 15  1  0  0  0  0
 13 35  1  0  0  0  0
 14 16  1  0  0  0  0
 14 36  1  0  0  0  0
 15 37  1  0  0  0  0
 16 38  1  0  0  0  0
 16 39  1  0  0  0  0
 17 18  1  0  0  0  0
 17 22  2  0  0  0  0
 18 20  2  0  0  0  0
 18 23  1  0  0  0  0
 19 20  1  0  0  0  0
 19 21  1  0  0  0  0
 19 42  1  0  0  0  0
 19 43  1  0  0  0  0
 20 24  1  0  0  0  0
 21 25  1  0  0  0  0
 21 45  1  0  0  0  0
 22 26  1  0  0  0  0
 22 46  1  0  0  0  0
 24 26  2  0  0  0  0
 24 47  1  0  0  0  0
 25 27  2  0  0  0  0
 25 28  1  0  0  0  0
 27 29  1  0  0  0  0
 27 49  1  0  0  0  0
 28 30  2  0  0  0  0
 28 50  1  0  0  0  0
 29 31  2  0  0  0  0
 29 51  1  0  0  0  0
 30 31  1  0  0  0  0
 30 52  1  0  0  0  0
 32 54  1  0  0  0  0
 32 55  1  0  0  0  0
 32 56  1  0  0  0  0
M  END
> <PUBCHEM_COMPOUND_CID>
10874014

> <PUBCHEM_CONFORMER_RMSD>
1

> <PUBCHEM_CONFORMER_DIVERSEORDER>
2
8
7
23
53
51
37
31
11
6
49
18
26
20
3
38
17
25
55
29
50
10
43
28
22
36
13
54
42
48
61
9
19
34
21
58
59
35
44
4
16
60
1
30
52
27
39
40
5
33
24
47
45
32
46
14
15
56
12
41
57

> <PUBCHEM_MMFF94_PARTIAL_CHARGES>
43
1 -0.56
10 -0.36
11 0.28
12 0.28
13 0.28
14 0.28
15 0.56
16 0.28
17 0.08
18 0.09
19 0.14
2 -0.36
20 -0.14
21 0.42
22 -0.15
23 0.63
24 -0.15
25 -0.14
26 0.08
27 -0.15
28 -0.15
29 -0.15
3 -0.68
30 -0.15
31 0.08
32 0.28
4 -0.68
40 0.4
41 0.4
44 0.4
46 0.15
47 0.15
48 0.4
49 0.15
5 -0.68
50 0.15
51 0.15
52 0.15
53 0.45
6 -0.43
7 -0.68
8 -0.53
9 -0.57

> <PUBCHEM_EFFECTIVE_ROTOR_COUNT>
6.8

> <PUBCHEM_PHARMACOPHORE_FEATURES>
17
1 1 acceptor
1 10 acceptor
1 2 acceptor
1 3 acceptor
1 3 donor
1 4 acceptor
1 4 donor
1 5 acceptor
1 5 donor
1 7 acceptor
1 7 donor
1 8 donor
1 9 acceptor
6 1 11 12 13 14 15 rings
6 17 18 20 22 24 26 rings
6 25 27 28 29 30 31 rings
6 6 18 19 20 21 23 rings

> <PUBCHEM_HEAVY_ATOM_COUNT>
32

> <PUBCHEM_ATOM_DEF_STEREO_COUNT>
6

> <PUBCHEM_ATOM_UDEF_STEREO_COUNT>
0

> <PUBCHEM_BOND_DEF_STEREO_COUNT>
0

> <PUBCHEM_BOND_UDEF_STEREO_COUNT>
0

> <PUBCHEM_ISOTOPIC_ATOM_COUNT>
0

> <PUBCHEM_COMPONENT_COUNT>
1

> <PUBCHEM_CACTVS_TAUTO_COUNT>
12

> <PUBCHEM_CONFORMER_ID>
00A5EC9E00000002

> <PUBCHEM_MMFF94_ENERGY>
114.0739

> <PUBCHEM_FEATURE_SELFOVERLAP>
86.378

> <PUBCHEM_SHAPE_FINGERPRINT>
10 15 17894917325396982024
10165383 225 18411702084909854505
10319926 262 16588034463417420739
10369192 42 18409735045506661493
10411042 1 17551231100319574831
105312 117 18412829109454810526
10554248 39 18272087172267627582
10577160 103 14835540575666529466
10577160 183 18263344989617136850
10674148 151 12103850047268222903
10906281 52 18130517357324603066
11200772 48 17131828798258142326
11297750 10 17555729168265932227
11621639 307 17844528795194019289
12107183 9 18337667509020916018
12128747 34 16517084013085143506
12422481 6 17603592945041944773
13257819 101 18040989597279001911
13540713 4 17557410283253378586
13583140 156 17458338632807228491
13911987 19 18412821370192638201
13947920 75 16343983585350698505
14790565 3 18271537398393240280
15183329 4 18410852166521742304
15324884 4 17681019313716573707
15604295 49 18192147317126540812
1577012 14 18188773985539804564
1813 80 11675168003717484923
20511986 3 18335410314690675568
21033648 29 17968668120318817975
21033650 10 15482400763583175987
21756936 100 17917437535827042283
22393880 68 15554152723141687519
23559900 14 18059592291098598246
24771293 8 17531246094818249125
2838139 119 18261385646257053660
350125 39 18269560601694561099
4015057 19 16558181747934330696
4938544 92 13696133077765464567
50009960 94 10950400730110716956
504843 32 18410008866504328879
5372103 7 17677876960876181925
563151 97 18057614169899014609
57527585 21 18046877443797881813
59755656 520 18343019999415672599
6086070 43 17632289125623714442
6327066 14 18408600349132062045
7226269 152 18060425720226455512
9982175 41 15286183000642285951

> <PUBCHEM_SHAPE_MULTIPOLES>
599.85
18.76
3.28
1.83
28.66
4.08
0.79
-17.74
-0.6
-2.29
1.15
-3.92
-0.72
0

> <PUBCHEM_SHAPE_SELFOVERLAP>
1301.815

> <PUBCHEM_SHAPE_VOLUME>
324.1

> <PUBCHEM_COORDINATE_TYPE>
2
5
10

$$$$
