10873754
  -OEChem-03292013303D

 65 68  0     1  0  0  0  0  0999 V2000
    2.8893   -1.8332    0.1102 O   0  0  0  0  0  0  0  0  0  0  0  0
   -0.3162    3.4746   -0.6052 O   0  0  0  0  0  0  0  0  0  0  0  0
   -2.1086    2.1000   -1.9262 O   0  0  0  0  0  0  0  0  0  0  0  0
   -3.4663   -0.3764    1.2340 O   0  0  0  0  0  0  0  0  0  0  0  0
    2.1120    0.1247    2.2282 O   0  0  0  0  0  0  0  0  0  0  0  0
    2.4341   -3.7647   -1.0725 O   0  0  0  0  0  0  0  0  0  0  0  0
   -5.6286    0.3490    0.8669 O   0  0  0  0  0  0  0  0  0  0  0  0
   -0.6832    0.2907   -0.9800 C   0  0  1  0  0  0  0  0  0  0  0  0
    0.5079    1.1759   -0.3644 C   0  0  1  0  0  0  0  0  0  0  0  0
    1.8536    0.3756   -0.2040 C   0  0  1  0  0  0  0  0  0  0  0  0
   -0.7941   -0.9633   -0.0236 C   0  0  1  0  0  0  0  0  0  0  0  0
    1.7731   -1.1333   -0.4489 C   0  0  2  0  0  0  0  0  0  0  0  0
   -2.0929   -1.8455   -0.1571 C   0  0  0  0  0  0  0  0  0  0  0  0
    0.5046   -1.7969    0.0759 C   0  0  0  0  0  0  0  0  0  0  0  0
    2.9879    1.0144   -1.0477 C   0  0  0  0  0  0  0  0  0  0  0  0
    0.7376    2.5899   -0.9909 C   0  0  2  0  0  0  0  0  0  0  0  0
   -2.0399    1.0803   -0.9266 C   0  0  2  0  0  0  0  0  0  0  0  0
    3.2329    2.3458   -0.3441 C   0  0  1  0  0  0  0  0  0  0  0  0
    2.0535    3.2887   -0.5845 C   0  0  0  0  0  0  0  0  0  0  0  0
   -3.3457   -0.9319   -0.0784 C   0  0  2  0  0  0  0  0  0  0  0  0
    2.3881    0.7047    1.1909 C   0  0  0  0  0  0  0  0  0  0  0  0
   -3.2947    0.2120   -1.0829 C   0  0  0  0  0  0  0  0  0  0  0  0
   -0.3844   -0.1050   -2.4493 C   0  0  0  0  0  0  0  0  0  0  0  0
    3.2682    1.9026    1.0939 C   0  0  0  0  0  0  0  0  0  0  0  0
   -2.1537   -2.6751   -1.4584 C   0  0  0  0  0  0  0  0  0  0  0  0
   -2.1517   -2.8600    1.0164 C   0  0  0  0  0  0  0  0  0  0  0  0
    3.9731    2.3954    2.1124 C   0  0  0  0  0  0  0  0  0  0  0  0
    2.9048   -3.1791   -0.1069 C   0  0  0  0  0  0  0  0  0  0  0  0
   -4.5455    0.4329    1.4299 C   0  0  0  0  0  0  0  0  0  0  0  0
    3.5984   -3.8621    1.0327 C   0  0  0  0  0  0  0  0  0  0  0  0
   -4.2133    1.4693    2.4603 C   0  0  0  0  0  0  0  0  0  0  0  0
    0.1553    1.3958    0.6571 H   0  0  0  0  0  0  0  0  0  0  0  0
   -0.8865   -0.5178    0.9815 H   0  0  0  0  0  0  0  0  0  0  0  0
    1.8353   -1.2873   -1.5323 H   0  0  0  0  0  0  0  0  0  0  0  0
    0.6455   -2.0838    1.1279 H   0  0  0  0  0  0  0  0  0  0  0  0
    0.3644   -2.7432   -0.4507 H   0  0  0  0  0  0  0  0  0  0  0  0
    2.7145    1.1320   -2.1022 H   0  0  0  0  0  0  0  0  0  0  0  0
    3.8991    0.4004   -1.0185 H   0  0  0  0  0  0  0  0  0  0  0  0
    0.7107    2.5226   -2.0826 H   0  0  0  0  0  0  0  0  0  0  0  0
   -2.1006    1.5909    0.0418 H   0  0  0  0  0  0  0  0  0  0  0  0
    4.1785    2.8047   -0.6500 H   0  0  0  0  0  0  0  0  0  0  0  0
    1.8981    3.9423    0.2846 H   0  0  0  0  0  0  0  0  0  0  0  0
    2.3173    3.9766   -1.3999 H   0  0  0  0  0  0  0  0  0  0  0  0
   -4.2407   -1.5407   -0.2665 H   0  0  0  0  0  0  0  0  0  0  0  0
   -4.1731    0.8637   -1.0196 H   0  0  0  0  0  0  0  0  0  0  0  0
   -3.3440   -0.1829   -2.1043 H   0  0  0  0  0  0  0  0  0  0  0  0
    0.0254   -1.1126   -2.5456 H   0  0  0  0  0  0  0  0  0  0  0  0
   -1.2844   -0.0922   -3.0721 H   0  0  0  0  0  0  0  0  0  0  0  0
    0.3228    0.5783   -2.9262 H   0  0  0  0  0  0  0  0  0  0  0  0
   -1.3139   -3.3695   -1.5505 H   0  0  0  0  0  0  0  0  0  0  0  0
   -3.0658   -3.2844   -1.4813 H   0  0  0  0  0  0  0  0  0  0  0  0
   -2.1717   -2.0598   -2.3584 H   0  0  0  0  0  0  0  0  0  0  0  0
   -3.1160   -3.3814    1.0350 H   0  0  0  0  0  0  0  0  0  0  0  0
   -1.3734   -3.6258    0.9309 H   0  0  0  0  0  0  0  0  0  0  0  0
   -2.0231   -2.3671    1.9862 H   0  0  0  0  0  0  0  0  0  0  0  0
   -0.3242    3.5299    0.3656 H   0  0  0  0  0  0  0  0  0  0  0  0
   -2.9216    2.6109   -1.7727 H   0  0  0  0  0  0  0  0  0  0  0  0
    4.6186    3.2559    1.9722 H   0  0  0  0  0  0  0  0  0  0  0  0
    3.9245    1.9584    3.1037 H   0  0  0  0  0  0  0  0  0  0  0  0
    3.0630   -3.6630    1.9645 H   0  0  0  0  0  0  0  0  0  0  0  0
    4.6321   -3.5138    1.0999 H   0  0  0  0  0  0  0  0  0  0  0  0
    3.6045   -4.9419    0.8586 H   0  0  0  0  0  0  0  0  0  0  0  0
   -3.3951    2.1002    2.1052 H   0  0  0  0  0  0  0  0  0  0  0  0
   -3.9438    0.9832    3.4014 H   0  0  0  0  0  0  0  0  0  0  0  0
   -5.0895    2.1003    2.6344 H   0  0  0  0  0  0  0  0  0  0  0  0
  1 12  1  0  0  0  0
  1 28  1  0  0  0  0
  2 16  1  0  0  0  0
  2 56  1  0  0  0  0
  3 17  1  0  0  0  0
  3 57  1  0  0  0  0
  4 20  1  0  0  0  0
  4 29  1  0  0  0  0
  5 21  2  0  0  0  0
  6 28  2  0  0  0  0
  7 29  2  0  0  0  0
  8  9  1  0  0  0  0
  8 11  1  0  0  0  0
  8 17  1  0  0  0  0
  8 23  1  0  0  0  0
  9 10  1  0  0  0  0
  9 16  1  0  0  0  0
  9 32  1  0  0  0  0
 10 12  1  0  0  0  0
 10 15  1  0  0  0  0
 10 21  1  0  0  0  0
 11 13  1  0  0  0  0
 11 14  1  0  0  0  0
 11 33  1  0  0  0  0
 12 14  1  0  0  0  0
 12 34  1  0  0  0  0
 13 20  1  0  0  0  0
 13 25  1  0  0  0  0
 13 26  1  0  0  0  0
 14 35  1  0  0  0  0
 14 36  1  0  0  0  0
 15 18  1  0  0  0  0
 15 37  1  0  0  0  0
 15 38  1  0  0  0  0
 16 19  1  0  0  0  0
 16 39  1  0  0  0  0
 17 22  1  0  0  0  0
 17 40  1  0  0  0  0
 18 19  1  0  0  0  0
 18 24  1  0  0  0  0
 18 41  1  0  0  0  0
 19 42  1  0  0  0  0
 19 43  1  0  0  0  0
 20 22  1  0  0  0  0
 20 44  1  0  0  0  0
 21 24  1  0  0  0  0
 22 45  1  0  0  0  0
 22 46  1  0  0  0  0
 23 47  1  0  0  0  0
 23 48  1  0  0  0  0
 23 49  1  0  0  0  0
 24 27  2  0  0  0  0
 25 50  1  0  0  0  0
 25 51  1  0  0  0  0
 25 52  1  0  0  0  0
 26 53  1  0  0  0  0
 26 54  1  0  0  0  0
 26 55  1  0  0  0  0
 27 58  1  0  0  0  0
 27 59  1  0  0  0  0
 28 30  1  0  0  0  0
 29 31  1  0  0  0  0
 30 60  1  0  0  0  0
 30 61  1  0  0  0  0
 30 62  1  0  0  0  0
 31 63  1  0  0  0  0
 31 64  1  0  0  0  0
 31 65  1  0  0  0  0
M  END
> <PUBCHEM_COMPOUND_CID>
10873754

> <PUBCHEM_CONFORMER_RMSD>
0.8

> <PUBCHEM_CONFORMER_DIVERSEORDER>
1
3
2
4

> <PUBCHEM_MMFF94_PARTIAL_CHARGES>
24
1 -0.43
10 0.06
12 0.28
16 0.28
17 0.28
18 0.14
2 -0.68
20 0.28
21 0.49
24 -0.12
27 -0.3
28 0.66
29 0.66
3 -0.68
30 0.06
31 0.06
4 -0.43
5 -0.57
56 0.4
57 0.4
58 0.15
59 0.15
6 -0.57
7 -0.57

> <PUBCHEM_EFFECTIVE_ROTOR_COUNT>
5.8

> <PUBCHEM_PHARMACOPHORE_FEATURES>
11
1 2 acceptor
1 2 donor
1 3 acceptor
1 3 donor
1 5 acceptor
1 6 acceptor
1 7 acceptor
3 13 25 26 hydrophobe
6 8 11 13 17 20 22 rings
6 8 9 10 11 12 14 rings
8 9 10 15 16 18 19 21 24 rings

> <PUBCHEM_HEAVY_ATOM_COUNT>
31

> <PUBCHEM_ATOM_DEF_STEREO_COUNT>
9

> <PUBCHEM_ATOM_UDEF_STEREO_COUNT>
0

> <PUBCHEM_BOND_DEF_STEREO_COUNT>
0

> <PUBCHEM_BOND_UDEF_STEREO_COUNT>
0

> <PUBCHEM_ISOTOPIC_ATOM_COUNT>
0

> <PUBCHEM_COMPONENT_COUNT>
1

> <PUBCHEM_CACTVS_TAUTO_COUNT>
1

> <PUBCHEM_CONFORMER_ID>
00A5EB9A00000001

> <PUBCHEM_MMFF94_ENERGY>
136.759

> <PUBCHEM_FEATURE_SELFOVERLAP>
55.869

> <PUBCHEM_SHAPE_FINGERPRINT>
10165383 225 18338813306925190980
1100329 8 17690272712621929052
11135609 12 18042123163755617920
12422481 6 18194091107216522688
12553582 1 18187642573971505725
12633257 1 18042398204602131521
12788726 201 17760369890645217706
12892183 10 18341344382982384387
13140716 1 18120657100044910077
13224815 77 17971186177934387725
13965767 371 18411129260099068096
14178342 30 18196371635301909819
14223421 5 18261385710596855198
14739800 52 17632568383510921545
15219462 58 17130116901661753339
15238133 3 17417543392878777795
15420108 30 18129370648544414830
16945 1 18261948673424577127
17974551 9 18269852951185392395
20028762 73 17405150011539414926
20600515 1 17547861754863273804
20691752 17 18113617936330382334
20739085 24 18261678176812003724
21033648 29 18113894932320685661
22182313 1 18114451263307374557
23559900 14 18335696139657127102
2748010 2 18189884323434877597
350125 39 18264214612307614733
352729 6 17328583333300521318
5081480 168 18199197204281325118
70251023 43 17766243554457964431
7097593 13 18411423933731389679

> <PUBCHEM_SHAPE_MULTIPOLES>
596.88
7.92
4.5
1.98
5.66
2.83
0.45
-1.37
4.41
-4.32
-0.14
0.68
-0.75
-0.32

> <PUBCHEM_SHAPE_SELFOVERLAP>
1277.376

> <PUBCHEM_SHAPE_VOLUME>
326.6

> <PUBCHEM_COORDINATE_TYPE>
2
5
10

$$$$
