10872445
  -OEChem-03292013303D

 45 47  0     0  0  0  0  0  0999 V2000
    0.5497   -0.5229    0.1294 O   0  0  0  0  0  0  0  0  0  0  0  0
   -3.2863    2.4273    0.2843 O   0  0  0  0  0  0  0  0  0  0  0  0
   -1.1256   -2.6515    0.0591 O   0  0  0  0  0  0  0  0  0  0  0  0
   -3.8572   -2.2944    0.0981 O   0  0  0  0  0  0  0  0  0  0  0  0
   -4.9203    0.2437    0.2110 O   0  0  0  0  0  0  0  0  0  0  0  0
    2.8908    0.2918   -2.2644 O   0  0  0  0  0  0  0  0  0  0  0  0
   -0.8289    3.3069    0.3005 O   0  0  0  0  0  0  0  0  0  0  0  0
    2.8967    0.0617    2.5390 O   0  0  0  0  0  0  0  0  0  0  0  0
   -1.3396    1.0016    0.2083 C   0  0  0  0  0  0  0  0  0  0  0  0
   -0.8008   -0.2827    0.1512 C   0  0  0  0  0  0  0  0  0  0  0  0
    1.4140    0.5609    0.1586 C   0  0  0  0  0  0  0  0  0  0  0  0
   -2.7239    1.1867    0.2289 C   0  0  0  0  0  0  0  0  0  0  0  0
   -1.6456   -1.3921    0.1144 C   0  0  0  0  0  0  0  0  0  0  0  0
   -0.4257    2.1534    0.2479 C   0  0  0  0  0  0  0  0  0  0  0  0
   -3.0289   -1.2115    0.1346 C   0  0  0  0  0  0  0  0  0  0  0  0
    2.8432    0.1894    0.1381 C   0  0  0  0  0  0  0  0  0  0  0  0
   -3.5666    0.0752    0.1918 C   0  0  0  0  0  0  0  0  0  0  0  0
    1.0177    1.8421    0.2205 C   0  0  0  0  0  0  0  0  0  0  0  0
    3.5257    0.0698   -1.0778 C   0  0  0  0  0  0  0  0  0  0  0  0
    3.5287   -0.0460    1.3353 C   0  0  0  0  0  0  0  0  0  0  0  0
    4.8758   -0.2804   -1.0963 C   0  0  0  0  0  0  0  0  0  0  0  0
    4.8788   -0.3962    1.3168 C   0  0  0  0  0  0  0  0  0  0  0  0
    5.5523   -0.5136    0.1010 C   0  0  0  0  0  0  0  0  0  0  0  0
   -3.5653    3.0675   -0.9586 C   0  0  0  0  0  0  0  0  0  0  0  0
   -0.8673   -3.2997    1.3023 C   0  0  0  0  0  0  0  0  0  0  0  0
   -4.2618   -2.7557   -1.1886 C   0  0  0  0  0  0  0  0  0  0  0  0
    2.2703   -0.8313   -2.8855 C   0  0  0  0  0  0  0  0  0  0  0  0
    1.7166    2.6707    0.2500 H   0  0  0  0  0  0  0  0  0  0  0  0
    5.4077   -0.3729   -2.0393 H   0  0  0  0  0  0  0  0  0  0  0  0
    5.4192   -0.5808    2.2415 H   0  0  0  0  0  0  0  0  0  0  0  0
    6.6035   -0.7862    0.0865 H   0  0  0  0  0  0  0  0  0  0  0  0
   -5.1147    1.1902    0.3211 H   0  0  0  0  0  0  0  0  0  0  0  0
   -3.8111    4.1137   -0.7571 H   0  0  0  0  0  0  0  0  0  0  0  0
   -4.4255    2.5949   -1.4427 H   0  0  0  0  0  0  0  0  0  0  0  0
   -2.7018    3.0342   -1.6308 H   0  0  0  0  0  0  0  0  0  0  0  0
   -1.7929   -3.4202    1.8740 H   0  0  0  0  0  0  0  0  0  0  0  0
   -0.1356   -2.7341    1.8879 H   0  0  0  0  0  0  0  0  0  0  0  0
   -0.4551   -4.2905    1.0925 H   0  0  0  0  0  0  0  0  0  0  0  0
   -3.3930   -3.0671   -1.7772 H   0  0  0  0  0  0  0  0  0  0  0  0
   -4.8160   -1.9765   -1.7213 H   0  0  0  0  0  0  0  0  0  0  0  0
   -4.9182   -3.6195   -1.0518 H   0  0  0  0  0  0  0  0  0  0  0  0
    3.5293   -0.1367    3.2505 H   0  0  0  0  0  0  0  0  0  0  0  0
    1.6556   -0.4679   -3.7136 H   0  0  0  0  0  0  0  0  0  0  0  0
    1.6282   -1.3767   -2.1878 H   0  0  0  0  0  0  0  0  0  0  0  0
    3.0342   -1.5043   -3.2876 H   0  0  0  0  0  0  0  0  0  0  0  0
  1 10  1  0  0  0  0
  1 11  1  0  0  0  0
  2 12  1  0  0  0  0
  2 24  1  0  0  0  0
  3 13  1  0  0  0  0
  3 25  1  0  0  0  0
  4 15  1  0  0  0  0
  4 26  1  0  0  0  0
  5 17  1  0  0  0  0
  5 32  1  0  0  0  0
  6 19  1  0  0  0  0
  6 27  1  0  0  0  0
  7 14  2  0  0  0  0
  8 20  1  0  0  0  0
  8 42  1  0  0  0  0
  9 10  2  0  0  0  0
  9 12  1  0  0  0  0
  9 14  1  0  0  0  0
 10 13  1  0  0  0  0
 11 16  1  0  0  0  0
 11 18  2  0  0  0  0
 12 17  2  0  0  0  0
 13 15  2  0  0  0  0
 14 18  1  0  0  0  0
 15 17  1  0  0  0  0
 16 19  1  0  0  0  0
 16 20  2  0  0  0  0
 18 28  1  0  0  0  0
 19 21  2  0  0  0  0
 20 22  1  0  0  0  0
 21 23  1  0  0  0  0
 21 29  1  0  0  0  0
 22 23  2  0  0  0  0
 22 30  1  0  0  0  0
 23 31  1  0  0  0  0
 24 33  1  0  0  0  0
 24 34  1  0  0  0  0
 24 35  1  0  0  0  0
 25 36  1  0  0  0  0
 25 37  1  0  0  0  0
 25 38  1  0  0  0  0
 26 39  1  0  0  0  0
 26 40  1  0  0  0  0
 26 41  1  0  0  0  0
 27 43  1  0  0  0  0
 27 44  1  0  0  0  0
 27 45  1  0  0  0  0
M  END
> <PUBCHEM_COMPOUND_CID>
10872445

> <PUBCHEM_CONFORMER_RMSD>
0.8

> <PUBCHEM_CONFORMER_DIVERSEORDER>
2
9
5
8
1
7
6
10
3
4

> <PUBCHEM_MMFF94_PARTIAL_CHARGES>
33
1 -0.16
10 0.08
11 0.05
12 0.08
13 0.08
14 0.47
15 0.08
16 0.03
17 0.08
18 -0.14
19 0.08
2 -0.36
20 0.08
21 -0.15
22 -0.15
23 -0.15
24 0.28
25 0.28
26 0.28
27 0.28
28 0.15
29 0.15
3 -0.36
30 0.15
31 0.15
32 0.45
4 -0.36
42 0.45
5 -0.53
6 -0.36
7 -0.57
8 -0.53
9 0.09

> <PUBCHEM_EFFECTIVE_ROTOR_COUNT>
5

> <PUBCHEM_PHARMACOPHORE_FEATURES>
11
1 1 acceptor
1 2 acceptor
1 3 acceptor
1 4 acceptor
1 5 donor
1 6 acceptor
1 7 acceptor
1 8 donor
6 1 9 10 11 14 18 rings
6 16 19 20 21 22 23 rings
6 9 10 12 13 15 17 rings

> <PUBCHEM_HEAVY_ATOM_COUNT>
27

> <PUBCHEM_ATOM_DEF_STEREO_COUNT>
0

> <PUBCHEM_ATOM_UDEF_STEREO_COUNT>
0

> <PUBCHEM_BOND_DEF_STEREO_COUNT>
0

> <PUBCHEM_BOND_UDEF_STEREO_COUNT>
0

> <PUBCHEM_ISOTOPIC_ATOM_COUNT>
0

> <PUBCHEM_COMPONENT_COUNT>
1

> <PUBCHEM_CACTVS_TAUTO_COUNT>
14

> <PUBCHEM_CONFORMER_ID>
00A5E67D00000002

> <PUBCHEM_MMFF94_ENERGY>
125.4725

> <PUBCHEM_FEATURE_SELFOVERLAP>
55.875

> <PUBCHEM_SHAPE_FINGERPRINT>
10319926 262 18198038354223995738
10366900 7 17417529112624578200
10411042 1 18194399116396263755
10693767 8 17625519557144357791
12236239 1 17676209052553362888
12363563 72 18268997651192363838
12553582 1 18336269062551106779
12788726 201 18335995266785620682
13140716 1 18338518672706638937
13402501 40 18060426798316104454
13726171 33 17905368265161060636
13782708 43 17632583730320853766
14251757 5 18262529198648261634
14294032 229 18189614944036294493
14386348 63 17917718980564785060
14790565 3 17693670216394915673
15042514 8 18336830917847270691
15420108 30 18057334877804491593
16752209 62 18334570252503252467
17349148 13 18260267464506694550
20028762 73 18129101294197873095
20511986 3 17676198062012056220
20600515 1 18340754958613855872
21033648 29 17131538484175355002
21033650 10 18119274812418429628
21065201 7 18341891879327021874
21133410 230 10648447249476288279
22182313 1 17988934327141885647
23366157 5 17899695961893156509
23402539 116 18341888610524600215
23557571 272 18272940388178162596
23559900 14 18128264393991434350
3178227 256 18336283292774615529
335352 9 18411417328678441005
338550 245 18115870707165372586
5104073 3 18270122451840507881
59755656 215 18272366434987916935
602551 16 18412260627994572280
81228 2 18127997259362275344
9709674 26 18124596641711735811

> <PUBCHEM_SHAPE_MULTIPOLES>
508.69
10.09
3.2
1.68
5.13
0.05
-0.75
-1.84
-0.66
-5.16
0.11
2.21
-0.5
0.01

> <PUBCHEM_SHAPE_SELFOVERLAP>
1114.295

> <PUBCHEM_SHAPE_VOLUME>
275.5

> <PUBCHEM_COORDINATE_TYPE>
2
5
10

$$$$
