10885340
  -OEChem-03292013303D

 57 61  0     1  0  0  0  0  0999 V2000
   -1.2958    0.3567    1.4072 O   0  0  0  0  0  0  0  0  0  0  0  0
   -2.6337    0.3129   -1.1411 O   0  0  0  0  0  0  0  0  0  0  0  0
    3.5435    0.7908   -0.3258 O   0  0  0  0  0  0  0  0  0  0  0  0
    2.8388   -2.8226   -0.4267 O   0  0  0  0  0  0  0  0  0  0  0  0
   -2.7988   -0.0645    3.6674 O   0  0  0  0  0  0  0  0  0  0  0  0
    5.4579   -2.7947    0.2410 O   0  0  0  0  0  0  0  0  0  0  0  0
    7.7228   -1.5479    0.4974 O   0  0  0  0  0  0  0  0  0  0  0  0
   -7.3151   -1.7913   -0.4637 O   0  0  0  0  0  0  0  0  0  0  0  0
    7.6140    3.1793    0.0955 O   0  0  0  0  0  0  0  0  0  0  0  0
   -8.8468    0.5209   -0.6503 O   0  0  0  0  0  0  0  0  0  0  0  0
   -3.2354    0.8758    0.0383 C   0  0  2  0  0  0  0  0  0  0  0  0
   -2.7145    0.1497    1.2895 C   0  0  2  0  0  0  0  0  0  0  0  0
    2.9783   -0.4394   -0.8056 C   0  0  2  0  0  0  0  0  0  0  0  0
    1.4752   -0.2464   -0.8756 C   0  0  0  0  0  0  0  0  0  0  0  0
    3.3579   -1.6134    0.0986 C   0  0  2  0  0  0  0  0  0  0  0  0
   -0.6361    0.1522    0.2265 C   0  0  0  0  0  0  0  0  0  0  0  0
   -1.2859    0.1205   -1.0067 C   0  0  0  0  0  0  0  0  0  0  0  0
   -4.7343    0.7773   -0.1450 C   0  0  0  0  0  0  0  0  0  0  0  0
    0.7475   -0.0154    0.2919 C   0  0  0  0  0  0  0  0  0  0  0  0
   -3.3331    0.6724    2.5831 C   0  0  0  0  0  0  0  0  0  0  0  0
    0.8212   -0.3061   -2.1062 C   0  0  0  0  0  0  0  0  0  0  0  0
    4.8661   -1.7264    0.1412 C   0  0  0  0  0  0  0  0  0  0  0  0
   -0.5601   -0.1236   -2.1730 C   0  0  0  0  0  0  0  0  0  0  0  0
    5.6029   -0.4482    0.0924 C   0  0  0  0  0  0  0  0  0  0  0  0
    4.8964    0.7375   -0.1221 C   0  0  0  0  0  0  0  0  0  0  0  0
   -5.3465   -0.4733   -0.2216 C   0  0  0  0  0  0  0  0  0  0  0  0
   -5.5026    1.9375   -0.2383 C   0  0  0  0  0  0  0  0  0  0  0  0
    6.9865   -0.4212    0.2869 C   0  0  0  0  0  0  0  0  0  0  0  0
    5.5733    1.9582   -0.1071 C   0  0  0  0  0  0  0  0  0  0  0  0
   -6.7279   -0.5640   -0.3915 C   0  0  0  0  0  0  0  0  0  0  0  0
   -6.8841    1.8470   -0.4082 C   0  0  0  0  0  0  0  0  0  0  0  0
    6.9539    1.9885    0.0907 C   0  0  0  0  0  0  0  0  0  0  0  0
    7.6596    0.8008    0.2826 C   0  0  0  0  0  0  0  0  0  0  0  0
   -7.4967    0.5961   -0.4848 C   0  0  0  0  0  0  0  0  0  0  0  0
   -7.7483   -2.3756    0.7630 C   0  0  0  0  0  0  0  0  0  0  0  0
   -2.9373    1.9338    0.0748 H   0  0  0  0  0  0  0  0  0  0  0  0
   -2.8680   -0.9366    1.2269 H   0  0  0  0  0  0  0  0  0  0  0  0
    3.3555   -0.6136   -1.8243 H   0  0  0  0  0  0  0  0  0  0  0  0
    3.0082   -1.4865    1.1295 H   0  0  0  0  0  0  0  0  0  0  0  0
    1.2460    0.0363    1.2565 H   0  0  0  0  0  0  0  0  0  0  0  0
   -4.4192    0.5502    2.6000 H   0  0  0  0  0  0  0  0  0  0  0  0
   -3.0939    1.7289    2.7440 H   0  0  0  0  0  0  0  0  0  0  0  0
    1.3748   -0.4895   -3.0231 H   0  0  0  0  0  0  0  0  0  0  0  0
   -1.0609   -0.1623   -3.1366 H   0  0  0  0  0  0  0  0  0  0  0  0
   -4.7567   -1.3842   -0.1586 H   0  0  0  0  0  0  0  0  0  0  0  0
   -5.0394    2.9188   -0.1800 H   0  0  0  0  0  0  0  0  0  0  0  0
    5.0278    2.8865   -0.2590 H   0  0  0  0  0  0  0  0  0  0  0  0
    3.0358   -3.5286    0.2126 H   0  0  0  0  0  0  0  0  0  0  0  0
   -7.4712    2.7587   -0.4791 H   0  0  0  0  0  0  0  0  0  0  0  0
    8.7359    0.8227    0.4367 H   0  0  0  0  0  0  0  0  0  0  0  0
   -1.8328    0.0473    3.6516 H   0  0  0  0  0  0  0  0  0  0  0  0
    7.1573   -2.3347    0.4758 H   0  0  0  0  0  0  0  0  0  0  0  0
    8.5608    3.0147    0.2450 H   0  0  0  0  0  0  0  0  0  0  0  0
   -9.2114    1.4216   -0.6931 H   0  0  0  0  0  0  0  0  0  0  0  0
   -8.4997   -1.7439    1.2470 H   0  0  0  0  0  0  0  0  0  0  0  0
   -6.8981   -2.5305    1.4349 H   0  0  0  0  0  0  0  0  0  0  0  0
   -8.1990   -3.3465    0.5398 H   0  0  0  0  0  0  0  0  0  0  0  0
  1 12  1  0  0  0  0
  1 16  1  0  0  0  0
  2 11  1  0  0  0  0
  2 17  1  0  0  0  0
  3 13  1  0  0  0  0
  3 25  1  0  0  0  0
  4 15  1  0  0  0  0
  4 48  1  0  0  0  0
  5 20  1  0  0  0  0
  5 51  1  0  0  0  0
  6 22  2  0  0  0  0
  7 28  1  0  0  0  0
  7 52  1  0  0  0  0
  8 30  1  0  0  0  0
  8 35  1  0  0  0  0
  9 32  1  0  0  0  0
  9 53  1  0  0  0  0
 10 34  1  0  0  0  0
 10 54  1  0  0  0  0
 11 12  1  0  0  0  0
 11 18  1  0  0  0  0
 11 36  1  0  0  0  0
 12 20  1  0  0  0  0
 12 37  1  0  0  0  0
 13 14  1  0  0  0  0
 13 15  1  0  0  0  0
 13 38  1  0  0  0  0
 14 19  2  0  0  0  0
 14 21  1  0  0  0  0
 15 22  1  0  0  0  0
 15 39  1  0  0  0  0
 16 17  2  0  0  0  0
 16 19  1  0  0  0  0
 17 23  1  0  0  0  0
 18 26  2  0  0  0  0
 18 27  1  0  0  0  0
 19 40  1  0  0  0  0
 20 41  1  0  0  0  0
 20 42  1  0  0  0  0
 21 23  2  0  0  0  0
 21 43  1  0  0  0  0
 22 24  1  0  0  0  0
 23 44  1  0  0  0  0
 24 25  1  0  0  0  0
 24 28  2  0  0  0  0
 25 29  2  0  0  0  0
 26 30  1  0  0  0  0
 26 45  1  0  0  0  0
 27 31  2  0  0  0  0
 27 46  1  0  0  0  0
 28 33  1  0  0  0  0
 29 32  1  0  0  0  0
 29 47  1  0  0  0  0
 30 34  2  0  0  0  0
 31 34  1  0  0  0  0
 31 49  1  0  0  0  0
 32 33  2  0  0  0  0
 33 50  1  0  0  0  0
 35 55  1  0  0  0  0
 35 56  1  0  0  0  0
 35 57  1  0  0  0  0
M  END
> <PUBCHEM_COMPOUND_CID>
10885340

> <PUBCHEM_CONFORMER_RMSD>
0.8

> <PUBCHEM_CONFORMER_DIVERSEORDER>
1
54
32
92
93
77
29
72
55
99
37
36
98
59
102
88
69
11
56
57
27
3
96
23
73
91
108
70
67
53
51
18
75
58
43
74
111
48
35
66
105
85
21
101
16
47
13
76
41
68
31
112
97
106
6
62
83
82
5
34
2
64
104
95
4
81
33
39
14
46
110
103
22
49
65
71
17
90
25
19
38
109
30
50
84
78
52
12
42
24
60
79
100
89
40
63
28
87
15
20
9
107
61
7
10
45
80
8
44
94
86
26

> <PUBCHEM_MMFF94_PARTIAL_CHARGES>
48
1 -0.36
10 -0.53
11 0.42
12 0.28
13 0.42
14 -0.14
15 0.34
16 0.08
17 0.08
18 -0.14
19 -0.15
2 -0.36
20 0.28
21 -0.15
22 0.42
23 -0.15
24 0.09
25 0.08
26 -0.15
27 -0.15
28 0.08
29 -0.15
3 -0.36
30 0.08
31 -0.15
32 0.08
33 -0.15
34 0.08
35 0.28
4 -0.68
40 0.15
43 0.15
44 0.15
45 0.15
46 0.15
47 0.15
48 0.4
49 0.15
5 -0.68
50 0.15
51 0.4
52 0.45
53 0.45
54 0.45
6 -0.57
7 -0.53
8 -0.36
9 -0.53

> <PUBCHEM_EFFECTIVE_ROTOR_COUNT>
5.4

> <PUBCHEM_PHARMACOPHORE_FEATURES>
17
1 1 acceptor
1 10 donor
1 2 acceptor
1 3 acceptor
1 4 acceptor
1 4 donor
1 5 acceptor
1 5 donor
1 6 acceptor
1 7 donor
1 8 acceptor
1 9 donor
6 1 2 11 12 16 17 rings
6 14 16 17 19 21 23 rings
6 18 26 27 30 31 34 rings
6 24 25 28 29 32 33 rings
6 3 13 15 22 24 25 rings

> <PUBCHEM_HEAVY_ATOM_COUNT>
35

> <PUBCHEM_ATOM_DEF_STEREO_COUNT>
4

> <PUBCHEM_ATOM_UDEF_STEREO_COUNT>
0

> <PUBCHEM_BOND_DEF_STEREO_COUNT>
0

> <PUBCHEM_BOND_UDEF_STEREO_COUNT>
0

> <PUBCHEM_ISOTOPIC_ATOM_COUNT>
0

> <PUBCHEM_COMPONENT_COUNT>
1

> <PUBCHEM_CACTVS_TAUTO_COUNT>
117

> <PUBCHEM_CONFORMER_ID>
00A618DC00000001

> <PUBCHEM_MMFF94_ENERGY>
117.7632

> <PUBCHEM_FEATURE_SELFOVERLAP>
86.362

> <PUBCHEM_SHAPE_FINGERPRINT>
10 15 17989203755152036455
102385 1 15478408621529996645
10411042 1 17906449932502923070
10577160 183 13840253841172925401
10591671 39 16558752308179701708
11315181 36 18272370872327462961
11719270 70 17703506606008478086
12082328 90 18410852153894965709
12236239 1 17989199348868972958
12596602 18 18343302539607485315
12664476 115 13398628356036694194
13165053 68 18122060064144711311
13383665 225 15840731620471625441
13560911 43 17917992793125330617
13617811 41 16128657453324336808
13811026 1 17821731658367447771
13911987 19 16916780752743226901
14118638 360 15913056373958832492
14856354 85 15841548609535506405
15131766 46 18123465249249643180
15328829 1 17846498153731026780
15461852 350 18187653521959005695
1577012 14 17418104178158424696
15840311 113 18413670223941187916
16090146 7 14692298407827441510
17686467 74 18334573586099851205
18335252 98 18412266164307987539
19841028 212 18337388215397305978
20105231 36 14548740637876930685
20157964 124 18411700968149623260
21130935 74 18333732377488255323
22122407 14 18341903969781935904
22224240 67 18040995155019507950
22311459 1 16056878035369221677
23559900 14 16371305414155902437
23569943 247 17315907772244892923
24771293 8 17603305963911931508
335352 9 15213306326645542535
3383291 50 16805616888753362755
3418910 222 18202014243636259409
3552219 110 17560809848631603817
3633792 109 18337673014450973179
3663271 9 18411419484213797251
397830 11 17749682895183486400
4073 2 18187085095948974234
4098825 35 18409725123747481921
4173938 306 16515671260791817287
4258327 124 18201724010956838444
4516262 110 18201438121603222588
4625314 4 18412261696866688919
5080951 261 16516519057524692451
5265222 85 18343016727273215391
6691757 9 16443072703350129577
70634741 139 18341614845826705795
99344 41 18335419050026914359

> <PUBCHEM_SHAPE_MULTIPOLES>
661.59
26.62
2.27
1.66
5.01
0.35
1.1
-2.73
1.1
-2.52
0.11
1.97
0
0.37

> <PUBCHEM_SHAPE_SELFOVERLAP>
1473.312

> <PUBCHEM_SHAPE_VOLUME>
349.4

> <PUBCHEM_COORDINATE_TYPE>
2
5
10

$$$$
