10892197
  -OEChem-03292013303D

 42 43  0     1  0  0  0  0  0999 V2000
   -1.1855    1.0532   -2.6127 O   0  0  0  0  0  0  0  0  0  0  0  0
   -1.8279   -2.4340    0.0569 O   0  0  0  0  0  0  0  0  0  0  0  0
    2.8094   -1.4087   -0.6028 O   0  0  0  0  0  0  0  0  0  0  0  0
    0.9801   -0.4872   -2.7097 O   0  0  0  0  0  0  0  0  0  0  0  0
   -2.8827   -0.8220   -1.1704 O   0  0  0  0  0  0  0  0  0  0  0  0
   -0.3233   -3.4810    1.4283 O   0  0  0  0  0  0  0  0  0  0  0  0
   -0.7226    1.1032   -0.2218 C   0  0  1  0  0  0  0  0  0  0  0  0
   -0.1848    1.3388   -1.6464 C   0  0  1  0  0  0  0  0  0  0  0  0
   -2.0025    1.9056    0.0468 C   0  0  0  0  0  0  0  0  0  0  0  0
   -0.8857   -0.3601    0.0979 C   0  0  0  0  0  0  0  0  0  0  0  0
   -0.1206   -1.1554    0.8541 C   0  0  0  0  0  0  0  0  0  0  0  0
    1.1398   -0.9410    1.6346 C   0  0  0  0  0  0  0  0  0  0  0  0
    1.0420    0.4841   -1.9534 C   0  0  0  0  0  0  0  0  0  0  0  0
    2.3578    0.8801   -1.3075 C   0  0  0  0  0  0  0  0  0  0  0  0
    2.8239   -0.0479   -0.1791 C   0  0  1  0  0  0  0  0  0  0  0  0
   -2.3891    1.8393    1.5175 C   0  0  0  0  0  0  0  0  0  0  0  0
    2.0904    0.1259    1.1383 C   0  0  0  0  0  0  0  0  0  0  0  0
   -1.9863   -1.1812   -0.4293 C   0  0  0  0  0  0  0  0  0  0  0  0
   -0.7289   -2.4940    0.8411 C   0  0  0  0  0  0  0  0  0  0  0  0
   -3.6707    2.6142    1.7789 C   0  0  0  0  0  0  0  0  0  0  0  0
    2.3734    1.1852    1.9188 C   0  0  0  0  0  0  0  0  0  0  0  0
    3.2937    2.2831    1.5199 C   0  0  0  0  0  0  0  0  0  0  0  0
    0.0262    1.5193    0.4585 H   0  0  0  0  0  0  0  0  0  0  0  0
    0.0894    2.3925   -1.7742 H   0  0  0  0  0  0  0  0  0  0  0  0
   -2.8358    1.5681   -0.5785 H   0  0  0  0  0  0  0  0  0  0  0  0
   -1.8276    2.9553   -0.2241 H   0  0  0  0  0  0  0  0  0  0  0  0
    0.8468   -0.7404    2.6741 H   0  0  0  0  0  0  0  0  0  0  0  0
    1.7078   -1.8797    1.6786 H   0  0  0  0  0  0  0  0  0  0  0  0
    3.0987    0.8545   -2.1179 H   0  0  0  0  0  0  0  0  0  0  0  0
    2.2961    1.9262   -0.9932 H   0  0  0  0  0  0  0  0  0  0  0  0
    3.8882    0.1469   -0.0011 H   0  0  0  0  0  0  0  0  0  0  0  0
   -1.5857    2.2536    2.1380 H   0  0  0  0  0  0  0  0  0  0  0  0
   -2.5480    0.8050    1.8405 H   0  0  0  0  0  0  0  0  0  0  0  0
   -0.8437    1.3311   -3.4797 H   0  0  0  0  0  0  0  0  0  0  0  0
   -3.5549    3.6684    1.5078 H   0  0  0  0  0  0  0  0  0  0  0  0
   -4.5049    2.2002    1.2034 H   0  0  0  0  0  0  0  0  0  0  0  0
   -3.9335    2.5644    2.8402 H   0  0  0  0  0  0  0  0  0  0  0  0
    1.8798    1.2966    2.8808 H   0  0  0  0  0  0  0  0  0  0  0  0
    3.3161   -1.4659   -1.4308 H   0  0  0  0  0  0  0  0  0  0  0  0
    2.7156    3.1937    1.3312 H   0  0  0  0  0  0  0  0  0  0  0  0
    3.9281    2.1017    0.6527 H   0  0  0  0  0  0  0  0  0  0  0  0
    3.9712    2.4945    2.3549 H   0  0  0  0  0  0  0  0  0  0  0  0
  1  8  1  0  0  0  0
  1 34  1  0  0  0  0
  2 18  1  0  0  0  0
  2 19  1  0  0  0  0
  3 15  1  0  0  0  0
  3 39  1  0  0  0  0
  4 13  2  0  0  0  0
  5 18  2  0  0  0  0
  6 19  2  0  0  0  0
  7  8  1  0  0  0  0
  7  9  1  0  0  0  0
  7 10  1  0  0  0  0
  7 23  1  0  0  0  0
  8 13  1  0  0  0  0
  8 24  1  0  0  0  0
  9 16  1  0  0  0  0
  9 25  1  0  0  0  0
  9 26  1  0  0  0  0
 10 11  2  0  0  0  0
 10 18  1  0  0  0  0
 11 12  1  0  0  0  0
 11 19  1  0  0  0  0
 12 17  1  0  0  0  0
 12 27  1  0  0  0  0
 12 28  1  0  0  0  0
 13 14  1  0  0  0  0
 14 15  1  0  0  0  0
 14 29  1  0  0  0  0
 14 30  1  0  0  0  0
 15 17  1  0  0  0  0
 15 31  1  0  0  0  0
 16 20  1  0  0  0  0
 16 32  1  0  0  0  0
 16 33  1  0  0  0  0
 17 21  2  0  0  0  0
 20 35  1  0  0  0  0
 20 36  1  0  0  0  0
 20 37  1  0  0  0  0
 21 22  1  0  0  0  0
 21 38  1  0  0  0  0
 22 40  1  0  0  0  0
 22 41  1  0  0  0  0
 22 42  1  0  0  0  0
M  END
> <PUBCHEM_COMPOUND_CID>
10892197

> <PUBCHEM_CONFORMER_RMSD>
0.6

> <PUBCHEM_CONFORMER_DIVERSEORDER>
1
14
16
17
13
15
18
8
12
2
9
10
11
7
6
4
3
5

> <PUBCHEM_MMFF94_PARTIAL_CHARGES>
22
1 -0.68
10 -0.12
11 -0.12
12 0.28
13 0.45
14 0.06
15 0.42
17 -0.28
18 0.71
19 0.71
2 -0.3
21 -0.29
22 0.14
3 -0.68
34 0.4
38 0.15
39 0.4
4 -0.57
5 -0.57
6 -0.57
7 0.14
8 0.34

> <PUBCHEM_EFFECTIVE_ROTOR_COUNT>
3.2

> <PUBCHEM_PHARMACOPHORE_FEATURES>
10
1 1 acceptor
1 1 donor
1 20 hydrophobe
1 22 hydrophobe
1 3 acceptor
1 3 donor
1 4 acceptor
1 5 acceptor
1 6 acceptor
5 2 10 11 18 19 rings

> <PUBCHEM_HEAVY_ATOM_COUNT>
22

> <PUBCHEM_ATOM_DEF_STEREO_COUNT>
3

> <PUBCHEM_ATOM_UDEF_STEREO_COUNT>
0

> <PUBCHEM_BOND_DEF_STEREO_COUNT>
1

> <PUBCHEM_BOND_UDEF_STEREO_COUNT>
0

> <PUBCHEM_ISOTOPIC_ATOM_COUNT>
0

> <PUBCHEM_COMPONENT_COUNT>
1

> <PUBCHEM_CACTVS_TAUTO_COUNT>
65

> <PUBCHEM_CONFORMER_ID>
00A633A500000001

> <PUBCHEM_MMFF94_ENERGY>
28.1553

> <PUBCHEM_FEATURE_SELFOVERLAP>
50.759

> <PUBCHEM_SHAPE_FINGERPRINT>
10863032 1 18059579053259896124
11221954 11 17846778528885276456
11578080 2 16411305686103509377
12156800 1 11829783686556848510
12507560 18 17769674004950788698
12633257 1 18265032696852381800
144361 1 17169251659935611430
14787075 74 17908954923920006589
14817 1 14638788200555096180
15881359 60 17241034410463620501
16945 1 18194124242198211432
20600515 1 17536570148012648562
22112679 90 17532096171033213420
22344851 12 15579559125518927231
23419403 2 16246542979338045990
23557571 272 18048876591769566930
23558518 356 18272649069331750873
23559900 14 18116712018713629220
2748010 2 17244672625815276830
2803657 2 17460325574978049188
2818148 4 17096675178225197082
298252 57 17177211076011747485
427121 178 18055095184844470953
539174 4 18048310046875407427
57527585 21 17700115892616774464
5845 1 15965926102659578343
81228 2 18263081170517308827
9999458 23 18196663890804945257

> <PUBCHEM_SHAPE_MULTIPOLES>
417.53
4.61
3.06
2.46
0.15
0.88
-1.2
-3.07
1.42
1.65
1.95
-0.44
-0.36
-0.1

> <PUBCHEM_SHAPE_SELFOVERLAP>
875.704

> <PUBCHEM_SHAPE_VOLUME>
235

> <PUBCHEM_COORDINATE_TYPE>
2
5
10

$$$$
