10894737
  -OEChem-03292013303D

 57 59  0     1  0  0  0  0  0999 V2000
   -0.4797    0.7352   -1.0971 O   0  0  0  0  0  0  0  0  0  0  0  0
    2.5659   -1.3464    0.9441 O   0  0  0  0  0  0  0  0  0  0  0  0
    0.2682    2.6990   -0.3069 O   0  0  0  0  0  0  0  0  0  0  0  0
    4.0936    3.2199    0.6998 O   0  0  0  0  0  0  0  0  0  0  0  0
    2.6379   -3.1300   -0.5221 O   0  0  0  0  0  0  0  0  0  0  0  0
   -6.8287   -1.3321    0.2947 O   0  0  0  0  0  0  0  0  0  0  0  0
   -7.6631    0.7526    0.6146 O   0  0  0  0  0  0  0  0  0  0  0  0
    1.2596    0.6971    0.6545 C   0  0  1  0  0  0  0  0  0  0  0  0
    1.7288   -0.6227    0.0225 C   0  0  2  0  0  0  0  0  0  0  0  0
    0.3665   -1.3552   -0.0354 C   0  0  1  0  0  0  0  0  0  0  0  0
    0.3712    0.2332    1.8350 C   0  0  0  0  0  0  0  0  0  0  0  0
   -0.1163   -1.1604    1.4303 C   0  0  0  0  0  0  0  0  0  0  0  0
   -0.6081   -0.7131   -1.0546 C   0  0  2  0  0  0  0  0  0  0  0  0
    2.3976    1.6023    1.1656 C   0  0  0  0  0  0  0  0  0  0  0  0
    2.5241   -0.4706   -1.2781 C   0  0  0  0  0  0  0  0  0  0  0  0
    0.3286    1.4718   -0.2915 C   0  0  0  0  0  0  0  0  0  0  0  0
    3.3647    2.1427    0.0961 C   0  0  2  0  0  0  0  0  0  0  0  0
   -0.3926   -1.2328   -2.4854 C   0  0  0  0  0  0  0  0  0  0  0  0
    3.9402   -0.0035   -1.0838 C   0  0  0  0  0  0  0  0  0  0  0  0
   -2.0535   -1.0132   -0.7466 C   0  0  0  0  0  0  0  0  0  0  0  0
    4.3369    1.1243   -0.4664 C   0  0  0  0  0  0  0  0  0  0  0  0
    2.9396   -2.5869    0.5320 C   0  0  0  0  0  0  0  0  0  0  0  0
    5.8104    1.4282   -0.3663 C   0  0  0  0  0  0  0  0  0  0  0  0
   -2.9725   -0.0687   -0.4927 C   0  0  0  0  0  0  0  0  0  0  0  0
    3.8018   -3.2165    1.5838 C   0  0  0  0  0  0  0  0  0  0  0  0
   -4.3579   -0.3771   -0.1974 C   0  0  0  0  0  0  0  0  0  0  0  0
   -5.3405    0.5059    0.0676 C   0  0  0  0  0  0  0  0  0  0  0  0
   -5.2022    2.0027    0.1188 C   0  0  0  0  0  0  0  0  0  0  0  0
   -6.7204    0.0143    0.3650 C   0  0  0  0  0  0  0  0  0  0  0  0
    0.4220   -2.4322   -0.2187 H   0  0  0  0  0  0  0  0  0  0  0  0
   -0.4769    0.9060    2.0080 H   0  0  0  0  0  0  0  0  0  0  0  0
    0.9318    0.1654    2.7746 H   0  0  0  0  0  0  0  0  0  0  0  0
    0.3566   -1.9103    2.0780 H   0  0  0  0  0  0  0  0  0  0  0  0
   -1.1911   -1.2770    1.5865 H   0  0  0  0  0  0  0  0  0  0  0  0
    2.9812    1.0796    1.9366 H   0  0  0  0  0  0  0  0  0  0  0  0
    1.9572    2.4613    1.6927 H   0  0  0  0  0  0  0  0  0  0  0  0
    2.0486    0.2638   -1.9387 H   0  0  0  0  0  0  0  0  0  0  0  0
    2.5479   -1.3849   -1.8770 H   0  0  0  0  0  0  0  0  0  0  0  0
    2.8059    2.5900   -0.7333 H   0  0  0  0  0  0  0  0  0  0  0  0
    0.5415   -0.8840   -2.9270 H   0  0  0  0  0  0  0  0  0  0  0  0
   -0.4050   -2.3278   -2.5259 H   0  0  0  0  0  0  0  0  0  0  0  0
   -1.1747   -0.8620   -3.1612 H   0  0  0  0  0  0  0  0  0  0  0  0
    4.6980   -0.6718   -1.4892 H   0  0  0  0  0  0  0  0  0  0  0  0
   -2.3410   -2.0633   -0.7308 H   0  0  0  0  0  0  0  0  0  0  0  0
    6.0515    2.3489   -0.9073 H   0  0  0  0  0  0  0  0  0  0  0  0
    6.4294    0.6308   -0.7919 H   0  0  0  0  0  0  0  0  0  0  0  0
    6.1072    1.5414    0.6817 H   0  0  0  0  0  0  0  0  0  0  0  0
    4.4656    3.7619   -0.0172 H   0  0  0  0  0  0  0  0  0  0  0  0
   -2.6980    0.9783   -0.5004 H   0  0  0  0  0  0  0  0  0  0  0  0
    3.2394   -3.3112    2.5161 H   0  0  0  0  0  0  0  0  0  0  0  0
    4.7011   -2.6141    1.7351 H   0  0  0  0  0  0  0  0  0  0  0  0
    4.1027   -4.2155    1.2555 H   0  0  0  0  0  0  0  0  0  0  0  0
   -4.5740   -1.4437   -0.2006 H   0  0  0  0  0  0  0  0  0  0  0  0
   -5.8643    2.4674   -0.6201 H   0  0  0  0  0  0  0  0  0  0  0  0
   -4.1924    2.3633   -0.0849 H   0  0  0  0  0  0  0  0  0  0  0  0
   -5.4806    2.3734    1.1115 H   0  0  0  0  0  0  0  0  0  0  0  0
   -7.7426   -1.6376    0.4787 H   0  0  0  0  0  0  0  0  0  0  0  0
  1 13  1  0  0  0  0
  1 16  1  0  0  0  0
  2  9  1  0  0  0  0
  2 22  1  0  0  0  0
  3 16  2  0  0  0  0
  4 17  1  0  0  0  0
  4 48  1  0  0  0  0
  5 22  2  0  0  0  0
  6 29  1  0  0  0  0
  6 57  1  0  0  0  0
  7 29  2  0  0  0  0
  8  9  1  0  0  0  0
  8 11  1  0  0  0  0
  8 14  1  0  0  0  0
  8 16  1  0  0  0  0
  9 10  1  0  0  0  0
  9 15  1  0  0  0  0
 10 12  1  0  0  0  0
 10 13  1  0  0  0  0
 10 30  1  0  0  0  0
 11 12  1  0  0  0  0
 11 31  1  0  0  0  0
 11 32  1  0  0  0  0
 12 33  1  0  0  0  0
 12 34  1  0  0  0  0
 13 18  1  0  0  0  0
 13 20  1  0  0  0  0
 14 17  1  0  0  0  0
 14 35  1  0  0  0  0
 14 36  1  0  0  0  0
 15 19  1  0  0  0  0
 15 37  1  0  0  0  0
 15 38  1  0  0  0  0
 17 21  1  0  0  0  0
 17 39  1  0  0  0  0
 18 40  1  0  0  0  0
 18 41  1  0  0  0  0
 18 42  1  0  0  0  0
 19 21  2  0  0  0  0
 19 43  1  0  0  0  0
 20 24  2  0  0  0  0
 20 44  1  0  0  0  0
 21 23  1  0  0  0  0
 22 25  1  0  0  0  0
 23 45  1  0  0  0  0
 23 46  1  0  0  0  0
 23 47  1  0  0  0  0
 24 26  1  0  0  0  0
 24 49  1  0  0  0  0
 25 50  1  0  0  0  0
 25 51  1  0  0  0  0
 25 52  1  0  0  0  0
 26 27  2  0  0  0  0
 26 53  1  0  0  0  0
 27 28  1  0  0  0  0
 27 29  1  0  0  0  0
 28 54  1  0  0  0  0
 28 55  1  0  0  0  0
 28 56  1  0  0  0  0
M  END
> <PUBCHEM_COMPOUND_CID>
10894737

> <PUBCHEM_CONFORMER_RMSD>
0.8

> <PUBCHEM_CONFORMER_DIVERSEORDER>
1
2
8
6
3
5
7
4

> <PUBCHEM_MMFF94_PARTIAL_CHARGES>
30
1 -0.43
13 0.42
15 0.14
16 0.66
17 0.42
19 -0.29
2 -0.43
20 -0.29
21 -0.28
22 0.66
23 0.14
24 -0.15
25 0.06
26 -0.15
27 -0.12
28 0.14
29 0.71
3 -0.57
4 -0.68
43 0.15
44 0.15
48 0.4
49 0.15
5 -0.57
53 0.15
57 0.5
6 -0.65
7 -0.57
8 0.06
9 0.28

> <PUBCHEM_EFFECTIVE_ROTOR_COUNT>
6.4

> <PUBCHEM_PHARMACOPHORE_FEATURES>
10
1 28 hydrophobe
1 3 acceptor
1 4 acceptor
1 4 donor
1 5 acceptor
1 6 acceptor
1 7 acceptor
3 6 7 29 anion
7 8 9 14 15 17 19 21 rings
8 1 8 9 10 11 12 13 16 rings

> <PUBCHEM_HEAVY_ATOM_COUNT>
29

> <PUBCHEM_ATOM_DEF_STEREO_COUNT>
5

> <PUBCHEM_ATOM_UDEF_STEREO_COUNT>
0

> <PUBCHEM_BOND_DEF_STEREO_COUNT>
2

> <PUBCHEM_BOND_UDEF_STEREO_COUNT>
0

> <PUBCHEM_ISOTOPIC_ATOM_COUNT>
0

> <PUBCHEM_COMPONENT_COUNT>
1

> <PUBCHEM_CACTVS_TAUTO_COUNT>
1

> <PUBCHEM_CONFORMER_ID>
00A63D9100000001

> <PUBCHEM_MMFF94_ENERGY>
100.3998

> <PUBCHEM_FEATURE_SELFOVERLAP>
50.82

> <PUBCHEM_SHAPE_FINGERPRINT>
10165383 225 18114468941862042412
10411042 1 18051132485051679318
10948715 1 18198621227982147588
11578080 2 17677638452182405538
11796584 16 9943809976310365549
12107183 9 17979073782943045561
12730499 353 18335988648278181442
12788726 201 17489595519407663217
13533116 47 18261111838139851267
13782708 43 17168698609866678491
13785724 45 17768256704346002679
14341114 176 18408046200315644849
14790565 3 18193276523197845572
15081414 286 18187361030497026941
15183329 4 17131563803039595889
15238133 3 17417806206555214675
15475509 35 17241038791314634083
15788980 27 10447927278853372869
15840311 113 18340210790357202253
1601671 61 17988925556729067597
16945 1 18194655212447612950
17349148 13 10665223731147701836
20691752 17 18189313810212833446
21421861 104 18336535037454939834
3009799 131 14836128783737055696
3411729 13 18412825815114478980
34934 24 18343300405277550462
350125 39 18262796247103917372
4073 2 18261960777323197987
4340502 62 17894631465290420802
5104073 3 18336552621288244953
54040823 5 18411985749650050903
633830 44 18197769119550929444
70251023 43 18118971286969306282
8509985 295 17275099514549686899

> <PUBCHEM_SHAPE_MULTIPOLES>
555.72
13.56
2.98
1.48
27.95
0.41
-0.21
-3.39
1.87
-4.25
0.75
-0.7
0.58
-0.7

> <PUBCHEM_SHAPE_SELFOVERLAP>
1186.11

> <PUBCHEM_SHAPE_VOLUME>
303.6

> <PUBCHEM_COORDINATE_TYPE>
2
5
10

$$$$
