10896127
  -OEChem-03292013303D

 66 70  0     1  0  0  0  0  0999 V2000
    1.4344   -3.1343    0.9650 O   0  0  0  0  0  0  0  0  0  0  0  0
    0.3737    1.5383    0.8346 O   0  0  0  0  0  0  0  0  0  0  0  0
    2.5471   -3.0514   -1.1324 O   0  0  0  0  0  0  0  0  0  0  0  0
    0.0821   -2.2965   -2.3515 O   0  0  0  0  0  0  0  0  0  0  0  0
    2.3595    1.5656   -1.0286 O   0  0  0  0  0  0  0  0  0  0  0  0
   -2.6710    0.2810   -0.5454 O   0  0  0  0  0  0  0  0  0  0  0  0
   -1.4844    2.5438    0.0691 O   0  0  0  0  0  0  0  0  0  0  0  0
    2.2043    3.8594   -0.9386 O   0  0  0  0  0  0  0  0  0  0  0  0
   -2.9377    0.6169    1.7176 O   0  0  0  0  0  0  0  0  0  0  0  0
   -5.4895    1.3718    1.2871 O   0  0  0  0  0  0  0  0  0  0  0  0
    0.5527   -0.9242    0.9846 C   0  0  2  0  0  0  0  0  0  0  0  0
    1.5646   -1.0563   -0.1525 C   0  0  1  0  0  0  0  0  0  0  0  0
    2.8624   -0.3512    0.3647 C   0  0  2  0  0  0  0  0  0  0  0  0
   -0.8985   -1.0422    0.4738 C   0  0  2  0  0  0  0  0  0  0  0  0
    0.8615    0.4202    1.6019 C   0  0  1  0  0  0  0  0  0  0  0  0
    1.4641   -2.5651   -0.3593 C   0  0  2  0  0  0  0  0  0  0  0  0
    2.3949    0.4877    1.5940 C   0  0  0  0  0  0  0  0  0  0  0  0
    0.9180   -2.1322    1.8642 C   0  0  0  0  0  0  0  0  0  0  0  0
   -1.1144   -2.4325   -0.2274 C   0  0  2  0  0  0  0  0  0  0  0  0
    0.1156   -2.8956   -1.0565 C   0  0  1  0  0  0  0  0  0  0  0  0
   -1.2607    0.1856   -0.3675 C   0  0  2  0  0  0  0  0  0  0  0  0
    3.3840    0.6037   -0.7304 C   0  0  2  0  0  0  0  0  0  0  0  0
    4.0291   -1.2673    0.7618 C   0  0  0  0  0  0  0  0  0  0  0  0
   -2.4167   -2.5600   -1.0196 C   0  0  0  0  0  0  0  0  0  0  0  0
   -0.8355    1.5126    0.2280 C   0  0  0  0  0  0  0  0  0  0  0  0
    4.5325    1.4443   -0.3094 C   0  0  0  0  0  0  0  0  0  0  0  0
    4.2203    2.7378   -0.3429 C   0  0  0  0  0  0  0  0  0  0  0  0
    2.8311    2.8241   -0.7941 C   0  0  0  0  0  0  0  0  0  0  0  0
    5.8487    0.8627    0.0633 C   0  0  0  0  0  0  0  0  0  0  0  0
   -3.4029    0.5005    0.5902 C   0  0  0  0  0  0  0  0  0  0  0  0
   -4.8919    0.5795    0.2624 C   0  0  2  0  0  0  0  0  0  0  0  0
   -5.1032    1.2608   -1.1012 C   0  0  0  0  0  0  0  0  0  0  0  0
   -5.5163   -0.8118    0.3462 C   0  0  0  0  0  0  0  0  0  0  0  0
   -6.5579    1.3241   -1.5510 C   0  0  0  0  0  0  0  0  0  0  0  0
    1.2463   -0.5484   -1.0674 H   0  0  0  0  0  0  0  0  0  0  0  0
   -1.5336   -1.0869    1.3641 H   0  0  0  0  0  0  0  0  0  0  0  0
    0.4702    0.5238    2.6196 H   0  0  0  0  0  0  0  0  0  0  0  0
    2.7446    1.5214    1.6221 H   0  0  0  0  0  0  0  0  0  0  0  0
    2.7648    0.0239    2.5175 H   0  0  0  0  0  0  0  0  0  0  0  0
    1.6945   -1.9244    2.6056 H   0  0  0  0  0  0  0  0  0  0  0  0
    0.0646   -2.5437    2.4129 H   0  0  0  0  0  0  0  0  0  0  0  0
   -1.2081   -3.1646    0.5883 H   0  0  0  0  0  0  0  0  0  0  0  0
    0.0384   -3.9796   -1.2093 H   0  0  0  0  0  0  0  0  0  0  0  0
   -0.8189    0.1296   -1.3670 H   0  0  0  0  0  0  0  0  0  0  0  0
    3.6166    0.0599   -1.6542 H   0  0  0  0  0  0  0  0  0  0  0  0
    4.7006   -0.8209    1.4948 H   0  0  0  0  0  0  0  0  0  0  0  0
    3.6690   -2.1617    1.2780 H   0  0  0  0  0  0  0  0  0  0  0  0
    4.5906   -1.6316   -0.1039 H   0  0  0  0  0  0  0  0  0  0  0  0
   -2.4647   -1.8723   -1.8683 H   0  0  0  0  0  0  0  0  0  0  0  0
   -2.5203   -3.5758   -1.4174 H   0  0  0  0  0  0  0  0  0  0  0  0
   -3.2715   -2.3853   -0.3647 H   0  0  0  0  0  0  0  0  0  0  0  0
    2.2835   -3.8997   -1.5262 H   0  0  0  0  0  0  0  0  0  0  0  0
    0.8702   -2.5996   -2.8335 H   0  0  0  0  0  0  0  0  0  0  0  0
    4.8449    3.5801   -0.1003 H   0  0  0  0  0  0  0  0  0  0  0  0
    6.6449    1.5771   -0.1826 H   0  0  0  0  0  0  0  0  0  0  0  0
    6.0802   -0.0396   -0.5083 H   0  0  0  0  0  0  0  0  0  0  0  0
    5.9352    0.6843    1.1366 H   0  0  0  0  0  0  0  0  0  0  0  0
   -4.7172    2.2874   -1.0548 H   0  0  0  0  0  0  0  0  0  0  0  0
   -4.5466    0.7451   -1.8929 H   0  0  0  0  0  0  0  0  0  0  0  0
   -5.1620   -1.3514    1.2325 H   0  0  0  0  0  0  0  0  0  0  0  0
   -5.2741   -1.4143   -0.5341 H   0  0  0  0  0  0  0  0  0  0  0  0
   -6.6069   -0.7544    0.4350 H   0  0  0  0  0  0  0  0  0  0  0  0
   -5.4095    0.8915    2.1291 H   0  0  0  0  0  0  0  0  0  0  0  0
   -6.6360    1.8887   -2.4859 H   0  0  0  0  0  0  0  0  0  0  0  0
   -7.1829    1.8232   -0.8042 H   0  0  0  0  0  0  0  0  0  0  0  0
   -6.9650    0.3252   -1.7340 H   0  0  0  0  0  0  0  0  0  0  0  0
  1 16  1  0  0  0  0
  1 18  1  0  0  0  0
  2 15  1  0  0  0  0
  2 25  1  0  0  0  0
  3 16  1  0  0  0  0
  3 52  1  0  0  0  0
  4 20  1  0  0  0  0
  4 53  1  0  0  0  0
  5 22  1  0  0  0  0
  5 28  1  0  0  0  0
  6 21  1  0  0  0  0
  6 30  1  0  0  0  0
  7 25  2  0  0  0  0
  8 28  2  0  0  0  0
  9 30  2  0  0  0  0
 10 31  1  0  0  0  0
 10 63  1  0  0  0  0
 11 12  1  0  0  0  0
 11 14  1  0  0  0  0
 11 15  1  0  0  0  0
 11 18  1  0  0  0  0
 12 13  1  0  0  0  0
 12 16  1  0  0  0  0
 12 35  1  0  0  0  0
 13 17  1  0  0  0  0
 13 22  1  0  0  0  0
 13 23  1  0  0  0  0
 14 19  1  0  0  0  0
 14 21  1  0  0  0  0
 14 36  1  0  0  0  0
 15 17  1  0  0  0  0
 15 37  1  0  0  0  0
 16 20  1  0  0  0  0
 17 38  1  0  0  0  0
 17 39  1  0  0  0  0
 18 40  1  0  0  0  0
 18 41  1  0  0  0  0
 19 20  1  0  0  0  0
 19 24  1  0  0  0  0
 19 42  1  0  0  0  0
 20 43  1  0  0  0  0
 21 25  1  0  0  0  0
 21 44  1  0  0  0  0
 22 26  1  0  0  0  0
 22 45  1  0  0  0  0
 23 46  1  0  0  0  0
 23 47  1  0  0  0  0
 23 48  1  0  0  0  0
 24 49  1  0  0  0  0
 24 50  1  0  0  0  0
 24 51  1  0  0  0  0
 26 27  2  0  0  0  0
 26 29  1  0  0  0  0
 27 28  1  0  0  0  0
 27 54  1  0  0  0  0
 29 55  1  0  0  0  0
 29 56  1  0  0  0  0
 29 57  1  0  0  0  0
 30 31  1  0  0  0  0
 31 32  1  0  0  0  0
 31 33  1  0  0  0  0
 32 34  1  0  0  0  0
 32 58  1  0  0  0  0
 32 59  1  0  0  0  0
 33 60  1  0  0  0  0
 33 61  1  0  0  0  0
 33 62  1  0  0  0  0
 34 64  1  0  0  0  0
 34 65  1  0  0  0  0
 34 66  1  0  0  0  0
M  END
> <PUBCHEM_COMPOUND_CID>
10896127

> <PUBCHEM_CONFORMER_RMSD>
1

> <PUBCHEM_CONFORMER_DIVERSEORDER>
6
8
5
2
12
11
9
10
3
7
4
1

> <PUBCHEM_MMFF94_PARTIAL_CHARGES>
27
1 -0.56
10 -0.68
15 0.28
16 0.56
18 0.28
2 -0.43
20 0.28
21 0.34
22 0.42
25 0.66
26 -0.28
27 -0.14
28 0.71
29 0.14
3 -0.68
30 0.66
31 0.34
4 -0.68
5 -0.43
52 0.4
53 0.4
54 0.15
6 -0.43
63 0.4
7 -0.57
8 -0.57
9 -0.57

> <PUBCHEM_EFFECTIVE_ROTOR_COUNT>
7

> <PUBCHEM_PHARMACOPHORE_FEATURES>
15
1 1 acceptor
1 10 acceptor
1 10 donor
1 3 acceptor
1 3 donor
1 34 hydrophobe
1 4 acceptor
1 4 donor
1 7 acceptor
1 8 acceptor
1 9 acceptor
5 11 12 13 15 17 rings
5 5 22 26 27 28 rings
6 2 11 14 15 21 25 rings
8 1 11 12 14 16 18 19 20 rings

> <PUBCHEM_HEAVY_ATOM_COUNT>
34

> <PUBCHEM_ATOM_DEF_STEREO_COUNT>
11

> <PUBCHEM_ATOM_UDEF_STEREO_COUNT>
0

> <PUBCHEM_BOND_DEF_STEREO_COUNT>
0

> <PUBCHEM_BOND_UDEF_STEREO_COUNT>
0

> <PUBCHEM_ISOTOPIC_ATOM_COUNT>
0

> <PUBCHEM_COMPONENT_COUNT>
1

> <PUBCHEM_CACTVS_TAUTO_COUNT>
1

> <PUBCHEM_CONFORMER_ID>
00A642FF00000006

> <PUBCHEM_MMFF94_ENERGY>
135.9221

> <PUBCHEM_FEATURE_SELFOVERLAP>
76.526

> <PUBCHEM_SHAPE_FINGERPRINT>
10411042 1 17759236293624146506
10863032 1 18262801899170349370
10930396 42 18192138302122036050
10948715 1 18264212572483141498
1100329 8 18337674247328496896
11421498 54 17845947233822779081
11488393 25 18128275409955677478
11513181 2 18057609755078751285
11796584 16 12895076193610896549
12156800 1 17393649007947757406
12422481 6 18186792599938163816
12788726 201 17692807507466640215
13140716 1 18339073912397133448
13224815 77 18262239907294997187
13583140 156 17822300101515508195
14068700 675 15695492615690023038
14117953 113 18339354145975379836
14705955 166 15285623383446771189
14790565 3 18267027335129829737
14955137 171 17970334928871357594
15131766 46 15649328791533708100
15849732 13 18334570231967107344
1601671 61 18342457049657008067
16752209 62 17984694777672093159
16945 1 18337959987149625810
17492 54 18342176669627945280
17980427 23 18121753249477801552
18681886 176 18411415146460885208
19319366 153 18408878542516959970
20715895 44 18411134749278041148
20739085 24 18053958259603293249
21033648 29 15791995810171408429
21716022 299 15409229282440386782
22121540 332 17460010912836802093
22149856 69 18202012023654417787
23227448 37 18335142054357831951
23419403 2 16974843813705406342
23559900 14 18189613835459562395
3298306 158 18334576875680660253
335352 9 18335986450162235308
350125 39 18411137996462993594
38695281 34 18411982481243112525
474 4 18335703857676148674
6036956 94 16243503980823949205
6287921 2 17913505548822372187

> <PUBCHEM_SHAPE_MULTIPOLES>
641.01
10.93
3.82
1.53
11.55
0.54
0.06
-7.47
-1.48
-2.32
-1.28
0.44
0.41
-0.62

> <PUBCHEM_SHAPE_SELFOVERLAP>
1412.149

> <PUBCHEM_SHAPE_VOLUME>
343.3

> <PUBCHEM_COORDINATE_TYPE>
2
5
10

$$$$
