10895404
  -OEChem-03292013303D

 56 59  0     1  0  0  0  0  0999 V2000
   -2.4757   -1.3935   -0.2489 O   0  0  0  0  0  0  0  0  0  0  0  0
   -1.2441    0.7433   -3.2335 O   0  0  0  0  0  0  0  0  0  0  0  0
   -0.8789   -3.5807    0.6791 O   0  0  0  0  0  0  0  0  0  0  0  0
   -6.1604    0.6590    2.4193 O   0  0  0  0  0  0  0  0  0  0  0  0
   -7.8406    1.8334    0.5429 O   0  0  0  0  0  0  0  0  0  0  0  0
    7.5426    3.1506    1.1975 O   0  0  0  0  0  0  0  0  0  0  0  0
    8.2103   -1.2868   -0.4297 O   0  0  0  0  0  0  0  0  0  0  0  0
   -1.6556    0.8099   -0.8809 C   0  0  1  0  0  0  0  0  0  0  0  0
   -2.8034   -0.2157   -1.0392 C   0  0  2  0  0  0  0  0  0  0  0  0
   -0.5603   -0.1304   -0.5199 C   0  0  0  0  0  0  0  0  0  0  0  0
   -1.1081   -1.3493   -0.1441 C   0  0  0  0  0  0  0  0  0  0  0  0
   -1.4173    1.6291   -2.1407 C   0  0  0  0  0  0  0  0  0  0  0  0
   -4.1470    0.3302   -0.6139 C   0  0  0  0  0  0  0  0  0  0  0  0
    0.8071    0.0752   -0.4555 C   0  0  0  0  0  0  0  0  0  0  0  0
   -0.3294   -2.3976    0.3074 C   0  0  0  0  0  0  0  0  0  0  0  0
    1.6164   -0.9759   -0.0152 C   0  0  0  0  0  0  0  0  0  0  0  0
    1.0514   -2.2039    0.3651 C   0  0  0  0  0  0  0  0  0  0  0  0
   -4.5440    0.2444    0.7207 C   0  0  0  0  0  0  0  0  0  0  0  0
   -4.9906    0.9195   -1.5558 C   0  0  0  0  0  0  0  0  0  0  0  0
   -5.7844    0.7478    1.1132 C   0  0  0  0  0  0  0  0  0  0  0  0
   -6.2307    1.4228   -1.1633 C   0  0  0  0  0  0  0  0  0  0  0  0
    3.0580   -0.7930    0.0599 C   0  0  0  0  0  0  0  0  0  0  0  0
   -6.6276    1.3371    0.1712 C   0  0  0  0  0  0  0  0  0  0  0  0
    3.6911    0.4025    0.1098 C   0  0  0  0  0  0  0  0  0  0  0  0
   -1.0287   -4.5786   -0.3325 C   0  0  0  0  0  0  0  0  0  0  0  0
    5.1499    0.5870    0.2054 C   0  0  0  0  0  0  0  0  0  0  0  0
   -5.2407    0.0423    3.3183 C   0  0  0  0  0  0  0  0  0  0  0  0
    5.9904   -0.4510   -0.1623 C   0  0  0  0  0  0  0  0  0  0  0  0
    5.6525    1.7950    0.6610 C   0  0  0  0  0  0  0  0  0  0  0  0
    7.0335    1.9697    0.7516 C   0  0  0  0  0  0  0  0  0  0  0  0
    7.3714   -0.2764   -0.0719 C   0  0  0  0  0  0  0  0  0  0  0  0
    7.8930    0.9339    0.3850 C   0  0  0  0  0  0  0  0  0  0  0  0
   -1.8285    1.4794   -0.0285 H   0  0  0  0  0  0  0  0  0  0  0  0
   -2.8982   -0.5947   -2.0651 H   0  0  0  0  0  0  0  0  0  0  0  0
   -0.5145    2.2415   -2.0530 H   0  0  0  0  0  0  0  0  0  0  0  0
   -2.2577    2.2986   -2.3515 H   0  0  0  0  0  0  0  0  0  0  0  0
    1.2029    1.0381   -0.7580 H   0  0  0  0  0  0  0  0  0  0  0  0
    1.6854   -3.0167    0.7147 H   0  0  0  0  0  0  0  0  0  0  0  0
   -3.8486   -0.2074    1.4188 H   0  0  0  0  0  0  0  0  0  0  0  0
   -4.6924    0.9930   -2.5982 H   0  0  0  0  0  0  0  0  0  0  0  0
   -2.1150    0.6010   -3.6413 H   0  0  0  0  0  0  0  0  0  0  0  0
   -6.8777    1.8798   -1.9073 H   0  0  0  0  0  0  0  0  0  0  0  0
    3.6237   -1.7191    0.1102 H   0  0  0  0  0  0  0  0  0  0  0  0
    3.1263    1.3308    0.1152 H   0  0  0  0  0  0  0  0  0  0  0  0
   -1.4860   -5.4613    0.1227 H   0  0  0  0  0  0  0  0  0  0  0  0
   -0.0524   -4.8590   -0.7402 H   0  0  0  0  0  0  0  0  0  0  0  0
   -1.6822   -4.2176   -1.1330 H   0  0  0  0  0  0  0  0  0  0  0  0
   -8.2849    2.2025   -0.2397 H   0  0  0  0  0  0  0  0  0  0  0  0
   -4.3092    0.6132    3.3978 H   0  0  0  0  0  0  0  0  0  0  0  0
   -5.0672   -1.0084    3.0620 H   0  0  0  0  0  0  0  0  0  0  0  0
   -5.7044    0.0536    4.3104 H   0  0  0  0  0  0  0  0  0  0  0  0
    5.6243   -1.3991   -0.5439 H   0  0  0  0  0  0  0  0  0  0  0  0
    4.9910    2.6079    0.9504 H   0  0  0  0  0  0  0  0  0  0  0  0
    8.9695    1.0701    0.4555 H   0  0  0  0  0  0  0  0  0  0  0  0
    8.5137    3.0964    1.1958 H   0  0  0  0  0  0  0  0  0  0  0  0
    9.1292   -0.9936   -0.3043 H   0  0  0  0  0  0  0  0  0  0  0  0
  1  9  1  0  0  0  0
  1 11  1  0  0  0  0
  2 12  1  0  0  0  0
  2 41  1  0  0  0  0
  3 15  1  0  0  0  0
  3 25  1  0  0  0  0
  4 20  1  0  0  0  0
  4 27  1  0  0  0  0
  5 23  1  0  0  0  0
  5 48  1  0  0  0  0
  6 30  1  0  0  0  0
  6 55  1  0  0  0  0
  7 31  1  0  0  0  0
  7 56  1  0  0  0  0
  8  9  1  0  0  0  0
  8 10  1  0  0  0  0
  8 12  1  0  0  0  0
  8 33  1  0  0  0  0
  9 13  1  0  0  0  0
  9 34  1  0  0  0  0
 10 11  2  0  0  0  0
 10 14  1  0  0  0  0
 11 15  1  0  0  0  0
 12 35  1  0  0  0  0
 12 36  1  0  0  0  0
 13 18  2  0  0  0  0
 13 19  1  0  0  0  0
 14 16  2  0  0  0  0
 14 37  1  0  0  0  0
 15 17  2  0  0  0  0
 16 17  1  0  0  0  0
 16 22  1  0  0  0  0
 17 38  1  0  0  0  0
 18 20  1  0  0  0  0
 18 39  1  0  0  0  0
 19 21  2  0  0  0  0
 19 40  1  0  0  0  0
 20 23  2  0  0  0  0
 21 23  1  0  0  0  0
 21 42  1  0  0  0  0
 22 24  2  0  0  0  0
 22 43  1  0  0  0  0
 24 26  1  0  0  0  0
 24 44  1  0  0  0  0
 25 45  1  0  0  0  0
 25 46  1  0  0  0  0
 25 47  1  0  0  0  0
 26 28  2  0  0  0  0
 26 29  1  0  0  0  0
 27 49  1  0  0  0  0
 27 50  1  0  0  0  0
 27 51  1  0  0  0  0
 28 31  1  0  0  0  0
 28 52  1  0  0  0  0
 29 30  2  0  0  0  0
 29 53  1  0  0  0  0
 30 32  1  0  0  0  0
 31 32  2  0  0  0  0
 32 54  1  0  0  0  0
M  END
> <PUBCHEM_COMPOUND_CID>
10895404

> <PUBCHEM_CONFORMER_RMSD>
0.8

> <PUBCHEM_CONFORMER_DIVERSEORDER>
7
18
4
9
17
10
8
12
15
3
14
16
5
13
6
2
11
1

> <PUBCHEM_MMFF94_PARTIAL_CHARGES>
46
1 -0.36
10 -0.14
11 0.08
12 0.28
13 -0.14
14 -0.15
15 0.08
16 0.03
17 -0.15
18 -0.15
19 -0.15
2 -0.68
20 0.08
21 -0.15
22 -0.18
23 0.08
24 -0.18
25 0.28
26 0.03
27 0.28
28 -0.15
29 -0.15
3 -0.36
30 0.08
31 0.08
32 -0.15
37 0.15
38 0.15
39 0.15
4 -0.36
40 0.15
41 0.4
42 0.15
43 0.15
44 0.15
48 0.45
5 -0.53
52 0.15
53 0.15
54 0.15
55 0.45
56 0.45
6 -0.53
7 -0.53
8 0.14
9 0.42

> <PUBCHEM_EFFECTIVE_ROTOR_COUNT>
6.6

> <PUBCHEM_PHARMACOPHORE_FEATURES>
12
1 1 acceptor
1 2 acceptor
1 2 donor
1 3 acceptor
1 4 acceptor
1 5 donor
1 6 donor
1 7 donor
5 1 8 9 10 11 rings
6 10 11 14 15 16 17 rings
6 13 18 19 20 21 23 rings
6 26 28 29 30 31 32 rings

> <PUBCHEM_HEAVY_ATOM_COUNT>
32

> <PUBCHEM_ATOM_DEF_STEREO_COUNT>
2

> <PUBCHEM_ATOM_UDEF_STEREO_COUNT>
0

> <PUBCHEM_BOND_DEF_STEREO_COUNT>
1

> <PUBCHEM_BOND_UDEF_STEREO_COUNT>
0

> <PUBCHEM_ISOTOPIC_ATOM_COUNT>
0

> <PUBCHEM_COMPONENT_COUNT>
1

> <PUBCHEM_CACTVS_TAUTO_COUNT>
15

> <PUBCHEM_CONFORMER_ID>
00A6402C00000007

> <PUBCHEM_MMFF94_ENERGY>
120.1439

> <PUBCHEM_FEATURE_SELFOVERLAP>
61.002

> <PUBCHEM_SHAPE_FINGERPRINT>
10 15 17967532359092853449
10165383 225 18409728439266633347
10290309 65 17314213480476213803
10670039 82 15482388660834496521
10835480 77 18200587133862614960
10906281 52 17917723421808830216
11007060 377 18335696191312973867
11410812 94 14979686459989409002
13540713 4 17388809778480622047
13540713 5 17534917573477932478
13673619 4 11386362634882509406
13782708 43 11386356055008267020
13914758 101 16271933684084422738
15183329 4 15482673480989415032
15276724 80 17918274234328079328
15320294 125 14201694069741978259
15927050 60 18408878547092261834
16126227 98 18410571820535608125
16994733 274 17060339591359554617
17913733 40 18336557036103584243
18603816 31 12973895836169182161
19611394 137 17313397732963582945
20505436 4 17988638550852994487
21033648 29 18199170958622447912
21033650 10 14979963541046393715
21057603 130 12180139695599205601
21424621 283 18272091573685816328
22122407 14 17203051906210723336
22224240 67 18334856108874027983
23536364 44 11023833838626283355
23559900 14 18340477976815598776
23576562 1 15625360471927578921
25019877 29 18411981360109586262
255183 313 18261395580648479295
2747138 104 17603590720744997548
2838139 119 17060624399368160665
3004659 81 12967121723053930918
4073 2 18262514936000803778
4098825 35 16271654373491784676
4173938 188 18411982508047164427
4403749 210 18261109708231756739
4408954 64 15578693973166959683
44555599 121 17632581561093519312
4760202 70 13769079189094819898
5104073 3 17532642443433692664
5385378 56 18261387803000757130
5758199 1 18410854348185286831
58902169 19 17060047173466199772
59682541 35 18114186337235307081
59755656 520 18412257342023350646
6669772 16 18340769234874417878
6698420 124 18343024384877754818
9953998 17 17458349633067896937
9961470 85 18055061318643188256

> <PUBCHEM_SHAPE_MULTIPOLES>
617.46
23.11
3.08
1.89
26.39
3.59
-0.43
-17.17
-8.18
0.97
-0.16
-4.05
-0.83
1.65

> <PUBCHEM_SHAPE_SELFOVERLAP>
1355.736

> <PUBCHEM_SHAPE_VOLUME>
335.2

> <PUBCHEM_COORDINATE_TYPE>
2
5
10

$$$$
