10916629
  -OEChem-03292013303D

 54 57  0     1  0  0  0  0  0999 V2000
   -4.9930   -0.0533    0.2836 O   0  0  0  0  0  0  0  0  0  0  0  0
   -4.5636    1.8408   -1.9213 O   0  0  0  0  0  0  0  0  0  0  0  0
   -0.0010   -2.4083    0.1696 O   0  0  0  0  0  0  0  0  0  0  0  0
   -2.2223   -3.8352    0.6001 O   0  0  0  0  0  0  0  0  0  0  0  0
    0.0042    1.6408   -0.3219 O   0  0  0  0  0  0  0  0  0  0  0  0
    2.5250    1.6216   -0.7563 O   0  0  0  0  0  0  0  0  0  0  0  0
    4.6866   -2.6142   -0.4270 O   0  0  0  0  0  0  0  0  0  0  0  0
   -5.1747    1.3681    0.3953 C   0  0  0  0  0  0  0  0  0  0  0  0
   -4.2339    2.1214   -0.5572 C   0  0  1  0  0  0  0  0  0  0  0  0
   -2.7712    1.7514   -0.3242 C   0  0  0  0  0  0  0  0  0  0  0  0
   -2.5793    0.2795   -0.0500 C   0  0  0  0  0  0  0  0  0  0  0  0
   -3.7052   -0.5200    0.2197 C   0  0  0  0  0  0  0  0  0  0  0  0
   -6.6423    1.6289    0.0180 C   0  0  0  0  0  0  0  0  0  0  0  0
   -4.9754    1.7861    1.8623 C   0  0  0  0  0  0  0  0  0  0  0  0
   -1.3028   -0.3327   -0.0421 C   0  0  0  0  0  0  0  0  0  0  0  0
   -1.1868   -1.7139    0.1674 C   0  0  0  0  0  0  0  0  0  0  0  0
   -3.5766   -1.8956    0.4260 C   0  0  0  0  0  0  0  0  0  0  0  0
   -0.0380    0.4226   -0.2333 C   0  0  0  0  0  0  0  0  0  0  0  0
   -2.3223   -2.4912    0.3956 C   0  0  0  0  0  0  0  0  0  0  0  0
    1.2107   -0.3522   -0.2938 C   0  0  0  0  0  0  0  0  0  0  0  0
    1.1569   -1.7262   -0.0889 C   0  0  0  0  0  0  0  0  0  0  0  0
    2.4343    0.2769   -0.5456 C   0  0  0  0  0  0  0  0  0  0  0  0
    3.6046   -0.4810   -0.5921 C   0  0  0  0  0  0  0  0  0  0  0  0
    2.3307   -2.4816   -0.1342 C   0  0  0  0  0  0  0  0  0  0  0  0
    3.5532   -1.8590   -0.3864 C   0  0  0  0  0  0  0  0  0  0  0  0
    4.9188    0.1802   -0.8633 C   0  0  0  0  0  0  0  0  0  0  0  0
    5.6143    0.6351    0.3944 C   0  0  0  0  0  0  0  0  0  0  0  0
    5.9527    1.8898    0.7481 C   0  0  0  0  0  0  0  0  0  0  0  0
    6.6482    2.2741    2.0232 C   0  0  0  0  0  0  0  0  0  0  0  0
    5.6482    3.0471   -0.1658 C   0  0  0  0  0  0  0  0  0  0  0  0
   -4.3533    3.2044   -0.4376 H   0  0  0  0  0  0  0  0  0  0  0  0
   -2.3883    2.3119    0.5367 H   0  0  0  0  0  0  0  0  0  0  0  0
   -2.2027    2.0337   -1.2176 H   0  0  0  0  0  0  0  0  0  0  0  0
   -7.3193    1.1072    0.7048 H   0  0  0  0  0  0  0  0  0  0  0  0
   -6.8808    2.6972    0.0440 H   0  0  0  0  0  0  0  0  0  0  0  0
   -6.8736    1.2426   -0.9810 H   0  0  0  0  0  0  0  0  0  0  0  0
   -3.9681    1.5575    2.2248 H   0  0  0  0  0  0  0  0  0  0  0  0
   -5.1523    2.8582    1.9983 H   0  0  0  0  0  0  0  0  0  0  0  0
   -5.6615    1.2364    2.5174 H   0  0  0  0  0  0  0  0  0  0  0  0
   -4.4588   -2.5027    0.6163 H   0  0  0  0  0  0  0  0  0  0  0  0
   -4.5110    0.8790   -2.0527 H   0  0  0  0  0  0  0  0  0  0  0  0
    2.2934   -3.5564    0.0275 H   0  0  0  0  0  0  0  0  0  0  0  0
    5.5942   -0.4982   -1.4004 H   0  0  0  0  0  0  0  0  0  0  0  0
    4.7760    0.9758   -1.5984 H   0  0  0  0  0  0  0  0  0  0  0  0
   -1.2828   -4.0830    0.5483 H   0  0  0  0  0  0  0  0  0  0  0  0
    5.8746   -0.1619    1.0903 H   0  0  0  0  0  0  0  0  0  0  0  0
    1.6446    2.0233   -0.8026 H   0  0  0  0  0  0  0  0  0  0  0  0
    5.4644   -2.0775   -0.2097 H   0  0  0  0  0  0  0  0  0  0  0  0
    6.8619    1.3983    2.6448 H   0  0  0  0  0  0  0  0  0  0  0  0
    7.5995    2.7696    1.8048 H   0  0  0  0  0  0  0  0  0  0  0  0
    6.0235    2.9557    2.6093 H   0  0  0  0  0  0  0  0  0  0  0  0
    5.0054    2.8299   -1.0171 H   0  0  0  0  0  0  0  0  0  0  0  0
    5.1406    3.8363    0.4010 H   0  0  0  0  0  0  0  0  0  0  0  0
    6.5831    3.4642   -0.5556 H   0  0  0  0  0  0  0  0  0  0  0  0
  1  8  1  0  0  0  0
  1 12  1  0  0  0  0
  2  9  1  0  0  0  0
  2 41  1  0  0  0  0
  3 16  1  0  0  0  0
  3 21  1  0  0  0  0
  4 19  1  0  0  0  0
  4 45  1  0  0  0  0
  5 18  2  0  0  0  0
  6 22  1  0  0  0  0
  6 47  1  0  0  0  0
  7 25  1  0  0  0  0
  7 48  1  0  0  0  0
  8  9  1  0  0  0  0
  8 13  1  0  0  0  0
  8 14  1  0  0  0  0
  9 10  1  0  0  0  0
  9 31  1  0  0  0  0
 10 11  1  0  0  0  0
 10 32  1  0  0  0  0
 10 33  1  0  0  0  0
 11 12  2  0  0  0  0
 11 15  1  0  0  0  0
 12 17  1  0  0  0  0
 13 34  1  0  0  0  0
 13 35  1  0  0  0  0
 13 36  1  0  0  0  0
 14 37  1  0  0  0  0
 14 38  1  0  0  0  0
 14 39  1  0  0  0  0
 15 16  2  0  0  0  0
 15 18  1  0  0  0  0
 16 19  1  0  0  0  0
 17 19  2  0  0  0  0
 17 40  1  0  0  0  0
 18 20  1  0  0  0  0
 20 21  2  0  0  0  0
 20 22  1  0  0  0  0
 21 24  1  0  0  0  0
 22 23  2  0  0  0  0
 23 25  1  0  0  0  0
 23 26  1  0  0  0  0
 24 25  2  0  0  0  0
 24 42  1  0  0  0  0
 26 27  1  0  0  0  0
 26 43  1  0  0  0  0
 26 44  1  0  0  0  0
 27 28  2  0  0  0  0
 27 46  1  0  0  0  0
 28 29  1  0  0  0  0
 28 30  1  0  0  0  0
 29 49  1  0  0  0  0
 29 50  1  0  0  0  0
 29 51  1  0  0  0  0
 30 52  1  0  0  0  0
 30 53  1  0  0  0  0
 30 54  1  0  0  0  0
M  END
> <PUBCHEM_COMPOUND_CID>
10916629

> <PUBCHEM_CONFORMER_RMSD>
0.8

> <PUBCHEM_CONFORMER_DIVERSEORDER>
1
7
6
2
5
8
4
9
3

> <PUBCHEM_MMFF94_PARTIAL_CHARGES>
35
1 -0.36
10 0.14
11 -0.14
12 0.08
15 0.09
16 0.08
17 -0.15
18 0.4
19 0.08
2 -0.68
20 0.09
21 0.08
22 0.08
23 -0.14
24 -0.15
25 0.08
26 0.28
27 -0.29
28 -0.28
29 0.14
3 -0.17
30 0.14
4 -0.53
40 0.15
41 0.4
42 0.15
45 0.45
46 0.15
47 0.45
48 0.45
5 -0.57
6 -0.53
7 -0.53
8 0.28
9 0.28

> <PUBCHEM_EFFECTIVE_ROTOR_COUNT>
2.8

> <PUBCHEM_PHARMACOPHORE_FEATURES>
14
1 1 acceptor
1 2 acceptor
1 2 donor
1 3 acceptor
1 4 donor
1 5 acceptor
1 6 donor
1 7 donor
3 28 29 30 hydrophobe
3 8 13 14 hydrophobe
6 1 8 9 10 11 12 rings
6 11 12 15 16 17 19 rings
6 20 21 22 23 24 25 rings
6 3 15 16 18 20 21 rings

> <PUBCHEM_HEAVY_ATOM_COUNT>
30

> <PUBCHEM_ATOM_DEF_STEREO_COUNT>
0

> <PUBCHEM_ATOM_UDEF_STEREO_COUNT>
1

> <PUBCHEM_BOND_DEF_STEREO_COUNT>
0

> <PUBCHEM_BOND_UDEF_STEREO_COUNT>
0

> <PUBCHEM_ISOTOPIC_ATOM_COUNT>
0

> <PUBCHEM_COMPONENT_COUNT>
1

> <PUBCHEM_CACTVS_TAUTO_COUNT>
78

> <PUBCHEM_CONFORMER_ID>
00A6931500000001

> <PUBCHEM_MMFF94_ENERGY>
98.3027

> <PUBCHEM_FEATURE_SELFOVERLAP>
71.131

> <PUBCHEM_SHAPE_FINGERPRINT>
10 15 18040439909947629192
10050765 1 18410857681122983526
10411042 1 17472702429633755078
10675989 125 17758949325679514005
10835480 77 18341891900675433048
11007060 377 18411704279659157561
11112241 14 17058633283043061528
11135609 187 18336817603849254861
11578080 2 17774708870236403514
12107183 9 18261661581538173770
12236239 1 17917148278749444621
12403259 415 18261393282708802117
12422481 6 17894341194827427852
12788726 201 17202773578922781904
12838862 33 18262223474961600109
12925494 130 18270113659853341032
13140716 1 18408606928975175146
13540713 4 18340785809522178862
13911987 19 16702305684547396126
14394314 77 18200323113306740665
14466204 15 18336543932237426616
14790565 3 18123195606490458017
15196674 1 18409172090704729135
17980427 23 17896320388676585564
18608769 82 18339082704981529027
20511986 3 18410283709897819663
20691028 202 18340774745501723729
21033648 144 18411132524490179061
21033648 29 17968091963763104341
21236236 1 18339360868026523951
21421861 104 17749380417980371850
21521721 280 18341056212315072769
21859007 373 17533199887270761132
23559900 14 18339930320951062078
2748736 6 18343013411284136904
335352 9 18264213521681964126
3411729 13 18410570700503770346
34797466 226 17489595540761115052
34934 24 18411135840094356142
350125 39 18409175411653082003
3633792 109 18337947888780823013
3680242 22 18261109660870825280
4073 2 18261398888158204890
4093350 32 17274832328470487668
4340502 62 18410291394084877260
5104073 3 18335424560406606890
5364581 5 18121777498304700128
86090 222 14490741301424169400
9981440 41 18260831535262308738
9995097 60 18410577296967076756

> <PUBCHEM_SHAPE_MULTIPOLES>
576.3
15.82
3.66
1.11
6.77
1.45
-0.24
-13.12
-3.21
0.94
-0.52
0.11
-0.72
1.79

> <PUBCHEM_SHAPE_SELFOVERLAP>
1273.517

> <PUBCHEM_SHAPE_VOLUME>
309.3

> <PUBCHEM_COORDINATE_TYPE>
2
5
10

$$$$
