10922291
  -OEChem-03292013303D

 27 28  0     1  0  0  0  0  0999 V2000
    1.4433   -0.2148   -0.9804 O   0  0  0  0  0  0  0  0  0  0  0  0
    3.4721    1.8354    0.0458 O   0  0  0  0  0  0  0  0  0  0  0  0
    2.4352   -2.7911   -0.4982 O   0  0  0  0  0  0  0  0  0  0  0  0
   -1.6291    2.4805   -0.4329 O   0  0  0  0  0  0  0  0  0  0  0  0
   -4.3169   -1.1759    0.3385 O   0  0  0  0  0  0  0  0  0  0  0  0
   -0.6697    0.3827   -0.1723 N   0  0  0  0  0  0  0  0  0  0  0  0
   -0.8247   -0.9614    0.0503 N   0  0  0  0  0  0  0  0  0  0  0  0
   -3.0083    0.7079   -0.0515 N   0  0  0  0  0  0  0  0  0  0  0  0
    2.8063    0.7566    0.6987 C   0  0  2  0  0  0  0  0  0  0  0  0
    2.6708   -0.4220   -0.2553 C   0  0  1  0  0  0  0  0  0  0  0  0
    1.3709    1.1381    0.9774 C   0  0  0  0  0  0  0  0  0  0  0  0
    0.6846    0.8217   -0.3415 C   0  0  1  0  0  0  0  0  0  0  0  0
    2.5686   -1.7596    0.4661 C   0  0  0  0  0  0  0  0  0  0  0  0
   -1.7539    1.2694   -0.2319 C   0  0  0  0  0  0  0  0  0  0  0  0
   -2.0075   -1.4445    0.2129 C   0  0  0  0  0  0  0  0  0  0  0  0
   -3.2416   -0.6230    0.1744 C   0  0  0  0  0  0  0  0  0  0  0  0
    3.3749    0.5168    1.6022 H   0  0  0  0  0  0  0  0  0  0  0  0
    0.9721    0.5127    1.7854 H   0  0  0  0  0  0  0  0  0  0  0  0
    1.2319    2.1858    1.2618 H   0  0  0  0  0  0  0  0  0  0  0  0
    3.4779   -0.4532   -0.9956 H   0  0  0  0  0  0  0  0  0  0  0  0
    0.7095    1.6979   -0.9999 H   0  0  0  0  0  0  0  0  0  0  0  0
    1.7006   -1.8098    1.1305 H   0  0  0  0  0  0  0  0  0  0  0  0
    3.4698   -1.9569    1.0542 H   0  0  0  0  0  0  0  0  0  0  0  0
    3.4864    2.5854    0.6646 H   0  0  0  0  0  0  0  0  0  0  0  0
    1.6337   -2.6048   -1.0167 H   0  0  0  0  0  0  0  0  0  0  0  0
   -3.8112    1.3290   -0.0906 H   0  0  0  0  0  0  0  0  0  0  0  0
   -2.1579   -2.5205    0.3929 H   0  0  0  0  0  0  0  0  0  0  0  0
  1 10  1  0  0  0  0
  1 12  1  0  0  0  0
  2  9  1  0  0  0  0
  2 24  1  0  0  0  0
  3 13  1  0  0  0  0
  3 25  1  0  0  0  0
  4 14  2  0  0  0  0
  5 16  2  0  0  0  0
  6  7  1  0  0  0  0
  6 12  1  0  0  0  0
  6 14  1  0  0  0  0
  7 15  2  0  0  0  0
  8 14  1  0  0  0  0
  8 16  1  0  0  0  0
  8 26  1  0  0  0  0
  9 10  1  0  0  0  0
  9 11  1  0  0  0  0
  9 17  1  0  0  0  0
 10 13  1  0  0  0  0
 10 20  1  0  0  0  0
 11 12  1  0  0  0  0
 11 18  1  0  0  0  0
 11 19  1  0  0  0  0
 12 21  1  0  0  0  0
 13 22  1  0  0  0  0
 13 23  1  0  0  0  0
 15 16  1  0  0  0  0
 15 27  1  0  0  0  0
M  END
> <PUBCHEM_COMPOUND_CID>
10922291

> <PUBCHEM_CONFORMER_RMSD>
0.6

> <PUBCHEM_CONFORMER_DIVERSEORDER>
2
8
13
5
9
12
11
6
10
4
7
1
3

> <PUBCHEM_MMFF94_PARTIAL_CHARGES>
19
1 -0.56
10 0.28
12 0.58
13 0.28
14 0.69
15 0.39
16 0.63
2 -0.68
24 0.4
25 0.4
26 0.37
27 0.06
3 -0.68
4 -0.57
5 -0.57
6 -0.3
7 -0.51
8 -0.49
9 0.28

> <PUBCHEM_EFFECTIVE_ROTOR_COUNT>
3

> <PUBCHEM_PHARMACOPHORE_FEATURES>
11
1 1 acceptor
1 2 acceptor
1 2 donor
1 3 acceptor
1 3 donor
1 4 acceptor
1 5 acceptor
1 7 acceptor
1 8 donor
5 1 9 10 11 12 rings
6 6 7 8 14 15 16 rings

> <PUBCHEM_HEAVY_ATOM_COUNT>
16

> <PUBCHEM_ATOM_DEF_STEREO_COUNT>
3

> <PUBCHEM_ATOM_UDEF_STEREO_COUNT>
0

> <PUBCHEM_BOND_DEF_STEREO_COUNT>
0

> <PUBCHEM_BOND_UDEF_STEREO_COUNT>
0

> <PUBCHEM_ISOTOPIC_ATOM_COUNT>
0

> <PUBCHEM_COMPONENT_COUNT>
1

> <PUBCHEM_CACTVS_TAUTO_COUNT>
3

> <PUBCHEM_CONFORMER_ID>
00A6A93300000002

> <PUBCHEM_MMFF94_ENERGY>
36.7083

> <PUBCHEM_FEATURE_SELFOVERLAP>
55.841

> <PUBCHEM_SHAPE_FINGERPRINT>
10608611 8 18410568461866141756
10618630 7 18333732442128613639
10922523 26 18335417920239083863
10967382 1 18337953514185127915
12932764 1 17703780448822729420
13296908 3 18407758123214661751
14144814 61 18410011031045493979
14252887 29 18262809578524207395
14325111 11 18410291393699774697
15219456 202 18413384328356114440
15375462 6 18410572902914898044
15442244 35 18195528095308808816
15775835 57 18058732536411834406
16945 1 18341036527736344580
17804303 29 18266183824706069486
17990270 104 18339921498750554170
19049666 15 18269266872537604408
20201158 50 18411699928023901611
20510252 161 18411699881280733249
20559304 39 18261398887604206468
20645477 70 18341605997661306591
21501502 16 18340487776833975640
22802520 49 18339075973918248437
23402539 116 18262785401789171029
23559900 14 18410285879104184972
2748010 2 18337383829738856453
31174 14 18202279242690219009
581208 293 18340200898962473402
5902787 121 18047181961099723642
7364860 26 18412826876467201758
74978 22 18193837037782879920
81228 2 18186525388854155617
9709674 26 18408605855048604827

> <PUBCHEM_SHAPE_MULTIPOLES>
284.98
6.26
2.34
0.79
2.67
0.43
0.04
1.2
0.61
-0.86
-0.16
-0.28
-0.04
0.58

> <PUBCHEM_SHAPE_SELFOVERLAP>
597.187

> <PUBCHEM_SHAPE_VOLUME>
160.5

> <PUBCHEM_COORDINATE_TYPE>
2
5
10

$$$$
