10927054
  -OEChem-03292013303D

 46 50  0     1  0  0  0  0  0999 V2000
   -4.5144    0.4287   -1.0229 O   0  0  0  0  0  0  0  0  0  0  0  0
   -3.5143   -1.5531   -0.0579 O   0  0  0  0  0  0  0  0  0  0  0  0
   -0.9856    2.5003   -0.5130 O   0  0  0  0  0  0  0  0  0  0  0  0
    1.5348    2.2872   -0.4258 O   0  0  0  0  0  0  0  0  0  0  0  0
    1.2583   -3.0073    0.2456 O   0  0  0  0  0  0  0  0  0  0  0  0
    4.0950    2.2507   -0.3424 O   0  0  0  0  0  0  0  0  0  0  0  0
    6.1892   -1.9559    0.2555 O   0  0  0  0  0  0  0  0  0  0  0  0
   -4.7008   -0.7501   -0.2285 C   0  0  1  0  0  0  0  0  0  0  0  0
   -3.5395    1.2898   -0.4304 C   0  0  1  0  0  0  0  0  0  0  0  0
   -5.2940   -0.3685    1.1406 C   0  0  0  0  0  0  0  0  0  0  0  0
   -4.0504    1.8133    0.9162 C   0  0  0  0  0  0  0  0  0  0  0  0
   -4.4480    0.6796    1.8624 C   0  0  0  0  0  0  0  0  0  0  0  0
   -2.2605    0.5111   -0.3126 C   0  0  0  0  0  0  0  0  0  0  0  0
   -2.3255   -0.8739   -0.1305 C   0  0  0  0  0  0  0  0  0  0  0  0
   -5.6943   -1.6317   -0.9867 C   0  0  0  0  0  0  0  0  0  0  0  0
   -1.0137    1.1444   -0.3528 C   0  0  0  0  0  0  0  0  0  0  0  0
    0.1608    0.3924   -0.2229 C   0  0  0  0  0  0  0  0  0  0  0  0
   -1.1578   -1.6264    0.0005 C   0  0  0  0  0  0  0  0  0  0  0  0
    0.0885   -0.9911   -0.0476 C   0  0  0  0  0  0  0  0  0  0  0  0
    1.4707    1.0739   -0.2708 C   0  0  0  0  0  0  0  0  0  0  0  0
    1.3211   -1.7939    0.0915 C   0  0  0  0  0  0  0  0  0  0  0  0
    2.7027    0.2712   -0.1310 C   0  0  0  0  0  0  0  0  0  0  0  0
    2.6304   -1.1124    0.0432 C   0  0  0  0  0  0  0  0  0  0  0  0
    3.9502    0.9053   -0.1748 C   0  0  0  0  0  0  0  0  0  0  0  0
    3.8057   -1.8620    0.1731 C   0  0  0  0  0  0  0  0  0  0  0  0
    5.1188    0.1545   -0.0446 C   0  0  0  0  0  0  0  0  0  0  0  0
    5.0468   -1.2262    0.1289 C   0  0  0  0  0  0  0  0  0  0  0  0
    4.1260    3.0499    0.8378 C   0  0  0  0  0  0  0  0  0  0  0  0
   -3.4285    2.1192   -1.1365 H   0  0  0  0  0  0  0  0  0  0  0  0
   -5.3943   -1.2521    1.7815 H   0  0  0  0  0  0  0  0  0  0  0  0
   -6.2952    0.0577    0.9959 H   0  0  0  0  0  0  0  0  0  0  0  0
   -4.9439    2.4235    0.7316 H   0  0  0  0  0  0  0  0  0  0  0  0
   -3.3118    2.4587    1.4043 H   0  0  0  0  0  0  0  0  0  0  0  0
   -3.5487    0.2073    2.2749 H   0  0  0  0  0  0  0  0  0  0  0  0
   -5.0025    1.0835    2.7172 H   0  0  0  0  0  0  0  0  0  0  0  0
   -5.9041   -2.5583   -0.4416 H   0  0  0  0  0  0  0  0  0  0  0  0
   -6.6354   -1.1046   -1.1767 H   0  0  0  0  0  0  0  0  0  0  0  0
   -5.2823   -1.9166   -1.9621 H   0  0  0  0  0  0  0  0  0  0  0  0
   -1.2326   -2.7018    0.1418 H   0  0  0  0  0  0  0  0  0  0  0  0
   -1.8194    2.9055   -0.2305 H   0  0  0  0  0  0  0  0  0  0  0  0
    3.7699   -2.9400    0.3092 H   0  0  0  0  0  0  0  0  0  0  0  0
    6.0858    0.6510   -0.0805 H   0  0  0  0  0  0  0  0  0  0  0  0
    6.9538   -1.3570    0.2023 H   0  0  0  0  0  0  0  0  0  0  0  0
    3.3239    2.7779    1.5318 H   0  0  0  0  0  0  0  0  0  0  0  0
    3.9985    4.0963    0.5472 H   0  0  0  0  0  0  0  0  0  0  0  0
    5.0953    2.9408    1.3341 H   0  0  0  0  0  0  0  0  0  0  0  0
  1  8  1  0  0  0  0
  1  9  1  0  0  0  0
  2  8  1  0  0  0  0
  2 14  1  0  0  0  0
  3 16  1  0  0  0  0
  3 40  1  0  0  0  0
  4 20  2  0  0  0  0
  5 21  2  0  0  0  0
  6 24  1  0  0  0  0
  6 28  1  0  0  0  0
  7 27  1  0  0  0  0
  7 43  1  0  0  0  0
  8 10  1  0  0  0  0
  8 15  1  0  0  0  0
  9 11  1  0  0  0  0
  9 13  1  0  0  0  0
  9 29  1  0  0  0  0
 10 12  1  0  0  0  0
 10 30  1  0  0  0  0
 10 31  1  0  0  0  0
 11 12  1  0  0  0  0
 11 32  1  0  0  0  0
 11 33  1  0  0  0  0
 12 34  1  0  0  0  0
 12 35  1  0  0  0  0
 13 14  2  0  0  0  0
 13 16  1  0  0  0  0
 14 18  1  0  0  0  0
 15 36  1  0  0  0  0
 15 37  1  0  0  0  0
 15 38  1  0  0  0  0
 16 17  2  0  0  0  0
 17 19  1  0  0  0  0
 17 20  1  0  0  0  0
 18 19  2  0  0  0  0
 18 39  1  0  0  0  0
 19 21  1  0  0  0  0
 20 22  1  0  0  0  0
 21 23  1  0  0  0  0
 22 23  2  0  0  0  0
 22 24  1  0  0  0  0
 23 25  1  0  0  0  0
 24 26  2  0  0  0  0
 25 27  2  0  0  0  0
 25 41  1  0  0  0  0
 26 27  1  0  0  0  0
 26 42  1  0  0  0  0
 28 44  1  0  0  0  0
 28 45  1  0  0  0  0
 28 46  1  0  0  0  0
M  END
> <PUBCHEM_COMPOUND_CID>
10927054

> <PUBCHEM_CONFORMER_RMSD>
0.6

> <PUBCHEM_CONFORMER_DIVERSEORDER>
1

> <PUBCHEM_MMFF94_PARTIAL_CHARGES>
29
1 -0.56
13 -0.14
14 0.08
16 0.08
17 0.09
18 -0.15
19 0.09
2 -0.36
20 0.4
21 0.4
22 0.09
23 0.09
24 0.08
25 -0.15
26 -0.15
27 0.08
28 0.28
3 -0.53
39 0.15
4 -0.57
40 0.45
41 0.15
42 0.15
43 0.45
5 -0.57
6 -0.36
7 -0.53
8 0.56
9 0.42

> <PUBCHEM_EFFECTIVE_ROTOR_COUNT>
2

> <PUBCHEM_PHARMACOPHORE_FEATURES>
12
1 1 acceptor
1 2 acceptor
1 3 donor
1 4 acceptor
1 5 acceptor
1 6 acceptor
1 7 donor
6 1 2 8 9 13 14 rings
6 1 8 9 10 11 12 rings
6 13 14 16 17 18 19 rings
6 17 19 20 21 22 23 rings
6 22 23 24 25 26 27 rings

> <PUBCHEM_HEAVY_ATOM_COUNT>
28

> <PUBCHEM_ATOM_DEF_STEREO_COUNT>
2

> <PUBCHEM_ATOM_UDEF_STEREO_COUNT>
0

> <PUBCHEM_BOND_DEF_STEREO_COUNT>
0

> <PUBCHEM_BOND_UDEF_STEREO_COUNT>
0

> <PUBCHEM_ISOTOPIC_ATOM_COUNT>
0

> <PUBCHEM_COMPONENT_COUNT>
1

> <PUBCHEM_CACTVS_TAUTO_COUNT>
24

> <PUBCHEM_CONFORMER_ID>
00A6BBCE00000001

> <PUBCHEM_MMFF94_ENERGY>
101.9168

> <PUBCHEM_FEATURE_SELFOVERLAP>
62.54

> <PUBCHEM_SHAPE_FINGERPRINT>
10675989 125 16028998462085729692
11135609 12 17533228694223011627
11578080 2 17058070359059975362
12107183 9 17909556055974323841
12166972 35 18272652359234267928
12236239 1 18060138743022078627
12403259 226 18263355898691494388
12403259 415 18186795876824241724
12596602 18 17704074018690901849
12788726 201 17417546725668586904
12925494 130 18268143150507112257
13140716 1 18410017658227673474
13224815 77 18408042892626441267
13533116 47 18341893038799496984
13583140 156 16226040120000987779
13782708 43 17313663725274437610
13862211 1 18408600349069193486
14251764 18 18334856113643872458
14341114 176 18334863848262612139
14739800 52 17489016197545740776
14787075 74 18271245023100242017
14790565 3 18411423925025468972
14849402 71 18340209682851647704
15196674 1 18409446985754138380
15510800 12 16879935169156750907
15788980 27 17967816028840030831
1601671 61 18341896243034990858
17349148 13 18410293614218712427
17844677 252 18411422791011976829
1813 80 17095525110262988828
18681886 176 18343011186881350730
19591789 44 18409727352887755988
200 152 18343578547417687407
20028762 73 18343578543007475006
20739085 24 18261404342408033028
21033648 144 18336818801005375005
21033648 29 17530952592909118757
21130935 74 18201433637240881082
21267235 1 18409173194558692998
21279426 13 18336261232841206300
21623110 236 18411421739230169137
21792934 111 18410565176770087553
22182313 1 17969200331455104884
23522609 53 18121250664979235948
23559900 14 18339070493771976890
3004659 81 18186516592939903374
335352 9 18337107865400320204
34797466 226 16271652307332927056
350125 39 18409167697659800708
3633792 109 18410001119258020197
3680242 22 18262515888924426522
392239 28 18341621386386593081
4093350 32 16988566823618071964
4214541 1 18410572851491276565
5104073 3 18410294722098761976
9981440 41 17328298563804586408

> <PUBCHEM_SHAPE_MULTIPOLES>
535.14
13.18
2.85
0.95
0.09
0.63
-0.24
-1.74
-1.36
-2.37
-0.17
1.18
0.2
-0.67

> <PUBCHEM_SHAPE_SELFOVERLAP>
1217.224

> <PUBCHEM_SHAPE_VOLUME>
275.9

> <PUBCHEM_COORDINATE_TYPE>
2
5
10

$$$$
