10926539
  -OEChem-03292013303D

 52 55  0     1  0  0  0  0  0999 V2000
   -0.5354    2.5822   -0.4485 O   0  0  0  0  0  0  0  0  0  0  0  0
    1.4469   -1.8808   -1.5940 O   0  0  0  0  0  0  0  0  0  0  0  0
    4.0724   -1.9027   -1.6905 O   0  0  0  0  0  0  0  0  0  0  0  0
   -0.4809   -2.9142    0.0778 O   0  0  0  0  0  0  0  0  0  0  0  0
   -3.1320   -3.0816   -0.1536 O   0  0  0  0  0  0  0  0  0  0  0  0
   -1.8389    3.4723   -2.0506 O   0  0  0  0  0  0  0  0  0  0  0  0
   -1.1676    0.5567    0.8778 C   0  0  1  0  0  0  0  0  0  0  0  0
    1.2022   -0.5437    0.4456 C   0  0  2  0  0  0  0  0  0  0  0  0
   -0.3270   -0.4824    0.0769 C   0  0  1  0  0  0  0  0  0  0  0  0
    1.7879    0.9158    0.3913 C   0  0  1  0  0  0  0  0  0  0  0  0
   -0.5012    1.9432    0.8501 C   0  0  1  0  0  0  0  0  0  0  0  0
    0.9793    1.9020    1.2575 C   0  0  0  0  0  0  0  0  0  0  0  0
   -2.5650    0.6781    0.2120 C   0  0  1  0  0  0  0  0  0  0  0  0
    3.3173    0.9359    0.6840 C   0  0  1  0  0  0  0  0  0  0  0  0
    1.9969   -1.3034   -0.6555 C   0  0  0  0  0  0  0  0  0  0  0  0
   -1.3846    0.1549    2.3662 C   0  0  0  0  0  0  0  0  0  0  0  0
    1.4583   -1.2242    1.8101 C   0  0  0  0  0  0  0  0  0  0  0  0
   -1.0677   -1.8321    0.0734 C   0  0  0  0  0  0  0  0  0  0  0  0
    4.0477    0.1167   -0.3947 C   0  0  0  0  0  0  0  0  0  0  0  0
    3.5174   -1.3032   -0.5298 C   0  0  2  0  0  0  0  0  0  0  0  0
   -2.5163    1.3719   -1.1497 C   0  0  0  0  0  0  0  0  0  0  0  0
   -3.2569   -0.6747    0.0566 C   0  0  0  0  0  0  0  0  0  0  0  0
   -2.5654   -1.8330   -0.0075 C   0  0  0  0  0  0  0  0  0  0  0  0
    3.9139    2.3473    0.7142 C   0  0  0  0  0  0  0  0  0  0  0  0
   -1.6380    2.5861   -1.2238 C   0  0  0  0  0  0  0  0  0  0  0  0
   -4.7635   -0.5873    0.0048 C   0  0  0  0  0  0  0  0  0  0  0  0
   -0.3458   -0.1806   -0.9810 H   0  0  0  0  0  0  0  0  0  0  0  0
    1.6796    1.2669   -0.6477 H   0  0  0  0  0  0  0  0  0  0  0  0
   -1.0219    2.6282    1.5320 H   0  0  0  0  0  0  0  0  0  0  0  0
    1.0901    1.6659    2.3198 H   0  0  0  0  0  0  0  0  0  0  0  0
    1.3797    2.9136    1.1218 H   0  0  0  0  0  0  0  0  0  0  0  0
   -3.1805    1.3081    0.8711 H   0  0  0  0  0  0  0  0  0  0  0  0
    3.5125    0.4836    1.6637 H   0  0  0  0  0  0  0  0  0  0  0  0
   -2.1455    0.7943    2.8307 H   0  0  0  0  0  0  0  0  0  0  0  0
   -1.7212   -0.8789    2.4852 H   0  0  0  0  0  0  0  0  0  0  0  0
   -0.4900    0.2747    2.9768 H   0  0  0  0  0  0  0  0  0  0  0  0
    1.3990   -0.5218    2.6435 H   0  0  0  0  0  0  0  0  0  0  0  0
    0.7495   -2.0304    2.0155 H   0  0  0  0  0  0  0  0  0  0  0  0
    2.4485   -1.6799    1.8833 H   0  0  0  0  0  0  0  0  0  0  0  0
    5.1233    0.0759   -0.1792 H   0  0  0  0  0  0  0  0  0  0  0  0
    3.9662    0.6273   -1.3647 H   0  0  0  0  0  0  0  0  0  0  0  0
    3.8186   -1.9134    0.3253 H   0  0  0  0  0  0  0  0  0  0  0  0
   -3.5306    1.6943   -1.4186 H   0  0  0  0  0  0  0  0  0  0  0  0
   -2.1804    0.6878   -1.9386 H   0  0  0  0  0  0  0  0  0  0  0  0
    3.6609    2.9063   -0.1929 H   0  0  0  0  0  0  0  0  0  0  0  0
    3.5552    2.9113    1.5806 H   0  0  0  0  0  0  0  0  0  0  0  0
    5.0059    2.3065    0.7923 H   0  0  0  0  0  0  0  0  0  0  0  0
   -5.1329    0.0381    0.8251 H   0  0  0  0  0  0  0  0  0  0  0  0
   -5.2681   -1.5501    0.1068 H   0  0  0  0  0  0  0  0  0  0  0  0
   -5.0852   -0.1396   -0.9407 H   0  0  0  0  0  0  0  0  0  0  0  0
    3.7924   -2.8339   -1.7008 H   0  0  0  0  0  0  0  0  0  0  0  0
   -4.0860   -2.9964   -0.2986 H   0  0  0  0  0  0  0  0  0  0  0  0
  1 11  1  0  0  0  0
  1 25  1  0  0  0  0
  2 15  2  0  0  0  0
  3 20  1  0  0  0  0
  3 51  1  0  0  0  0
  4 18  2  0  0  0  0
  5 23  1  0  0  0  0
  5 52  1  0  0  0  0
  6 25  2  0  0  0  0
  7  9  1  0  0  0  0
  7 11  1  0  0  0  0
  7 13  1  0  0  0  0
  7 16  1  0  0  0  0
  8  9  1  0  0  0  0
  8 10  1  0  0  0  0
  8 15  1  0  0  0  0
  8 17  1  0  0  0  0
  9 18  1  0  0  0  0
  9 27  1  0  0  0  0
 10 12  1  0  0  0  0
 10 14  1  0  0  0  0
 10 28  1  0  0  0  0
 11 12  1  0  0  0  0
 11 29  1  0  0  0  0
 12 30  1  0  0  0  0
 12 31  1  0  0  0  0
 13 21  1  0  0  0  0
 13 22  1  0  0  0  0
 13 32  1  0  0  0  0
 14 19  1  0  0  0  0
 14 24  1  0  0  0  0
 14 33  1  0  0  0  0
 15 20  1  0  0  0  0
 16 34  1  0  0  0  0
 16 35  1  0  0  0  0
 16 36  1  0  0  0  0
 17 37  1  0  0  0  0
 17 38  1  0  0  0  0
 17 39  1  0  0  0  0
 18 23  1  0  0  0  0
 19 20  1  0  0  0  0
 19 40  1  0  0  0  0
 19 41  1  0  0  0  0
 20 42  1  0  0  0  0
 21 25  1  0  0  0  0
 21 43  1  0  0  0  0
 21 44  1  0  0  0  0
 22 23  2  0  0  0  0
 22 26  1  0  0  0  0
 24 45  1  0  0  0  0
 24 46  1  0  0  0  0
 24 47  1  0  0  0  0
 26 48  1  0  0  0  0
 26 49  1  0  0  0  0
 26 50  1  0  0  0  0
M  END
> <PUBCHEM_COMPOUND_CID>
10926539

> <PUBCHEM_CONFORMER_RMSD>
0.6

> <PUBCHEM_CONFORMER_DIVERSEORDER>
1

> <PUBCHEM_MMFF94_PARTIAL_CHARGES>
20
1 -0.43
11 0.28
13 0.14
15 0.45
18 0.49
2 -0.57
20 0.34
21 0.06
22 -0.28
23 0.09
25 0.66
26 0.14
3 -0.68
4 -0.57
5 -0.53
51 0.4
52 0.45
6 -0.57
8 0.06
9 0.06

> <PUBCHEM_EFFECTIVE_ROTOR_COUNT>
1.2

> <PUBCHEM_PHARMACOPHORE_FEATURES>
10
1 2 acceptor
1 3 acceptor
1 3 donor
1 4 acceptor
1 5 donor
1 6 acceptor
6 1 7 11 13 21 25 rings
6 7 8 9 10 11 12 rings
6 7 9 13 18 22 23 rings
6 8 10 14 15 19 20 rings

> <PUBCHEM_HEAVY_ATOM_COUNT>
26

> <PUBCHEM_ATOM_DEF_STEREO_COUNT>
8

> <PUBCHEM_ATOM_UDEF_STEREO_COUNT>
0

> <PUBCHEM_BOND_DEF_STEREO_COUNT>
0

> <PUBCHEM_BOND_UDEF_STEREO_COUNT>
0

> <PUBCHEM_ISOTOPIC_ATOM_COUNT>
0

> <PUBCHEM_COMPONENT_COUNT>
1

> <PUBCHEM_CACTVS_TAUTO_COUNT>
116

> <PUBCHEM_CONFORMER_ID>
00A6B9CB00000001

> <PUBCHEM_MMFF94_ENERGY>
87.661

> <PUBCHEM_FEATURE_SELFOVERLAP>
50.935

> <PUBCHEM_SHAPE_FINGERPRINT>
10165383 225 17758692052526875469
10498660 4 18187917370463611357
10863032 1 18202006567927229610
10967382 1 18200315549430474898
1100329 8 17186726013536943971
11578080 2 17315604401787923108
11640471 11 15937251080046798229
12403259 226 18411983533605259774
12403814 3 18334287712728138681
13140716 1 18341620303896799698
13224815 77 18272936029144832352
14223421 5 18413105091342078296
14790565 3 18340776918997827065
14955137 171 18264511614403354155
15196674 1 18271245052843461106
15840311 113 18129682828790704753
16945 1 17833822773011133353
17357779 13 18269257123341534047
17492 54 17611186344104991316
1813 80 18115598191632404819
20691752 17 18261962928479282123
20693207 138 18271817791523079612
20905425 154 18337659906237029648
21285901 2 18409725183997908605
21330990 113 18336554798646941193
22182313 1 18339348699988788752
22907989 373 18188780435219973213
2334 1 18341893047194291922
23419403 2 17702642441434669937
23557571 272 18334292080372404805
23559900 14 18200875076785649522
23566358 2 18341890771367780268
238 59 17981863281874829996
2748010 2 18340761619674790043
3380486 145 18196383725608156473
3380486 77 16608222828138093466
350125 39 18339647750277337456
59755656 215 18271812363016680964
81228 2 18263092144026848889
9709674 26 18201443558224373038
9925002 15 16185508028345038350

> <PUBCHEM_SHAPE_MULTIPOLES>
499.85
6.78
3.4
1.58
1.72
0.68
0.13
-1.28
-1.2
-0.81
-1.27
0.13
0.43
1.69

> <PUBCHEM_SHAPE_SELFOVERLAP>
1083.41

> <PUBCHEM_SHAPE_VOLUME>
266.3

> <PUBCHEM_COORDINATE_TYPE>
2
5
10

$$$$
