10949906
  -OEChem-03292013303D

 48 51  0     0  0  0  0  0  0999 V2000
    3.2614   -2.5703    0.6477 O   0  0  0  0  0  0  0  0  0  0  0  0
   -0.1433    2.0719   -0.8748 O   0  0  0  0  0  0  0  0  0  0  0  0
    4.6785    2.3610   -1.2032 O   0  0  0  0  0  0  0  0  0  0  0  0
    0.2749   -5.9351   -0.4921 O   0  0  0  0  0  0  0  0  0  0  0  0
    4.8700    3.2059    1.4377 O   0  0  0  0  0  0  0  0  0  0  0  0
   -5.0910    0.0214    1.5023 O   0  0  0  0  0  0  0  0  0  0  0  0
   -6.3185    2.0736    0.0852 O   0  0  0  0  0  0  0  0  0  0  0  0
   -0.9456   -1.3817   -0.7189 N   0  0  0  0  0  0  0  0  0  0  0  0
   -0.4587   -3.7570   -0.6505 N   0  0  0  0  0  0  0  0  0  0  0  0
    1.7546   -4.2452    0.0733 N   0  0  0  0  0  0  0  0  0  0  0  0
    1.0158   -0.5653   -0.0273 C   0  0  0  0  0  0  0  0  0  0  0  0
    1.0967   -1.9766   -0.0570 C   0  0  0  0  0  0  0  0  0  0  0  0
   -0.2581   -0.2237   -0.4410 C   0  0  0  0  0  0  0  0  0  0  0  0
   -0.1211   -2.4404   -0.4846 C   0  0  0  0  0  0  0  0  0  0  0  0
    2.0083    0.4035    0.3455 C   0  0  0  0  0  0  0  0  0  0  0  0
    2.1488   -2.9098    0.2593 C   0  0  0  0  0  0  0  0  0  0  0  0
   -0.8428    1.0755   -0.5844 C   0  0  0  0  0  0  0  0  0  0  0  0
    2.8746    0.9214   -0.6171 C   0  0  0  0  0  0  0  0  0  0  0  0
    2.1045    0.8268    1.6709 C   0  0  0  0  0  0  0  0  0  0  0  0
   -2.3142    1.3409   -0.4018 C   0  0  0  0  0  0  0  0  0  0  0  0
    0.5007   -4.7296   -0.3670 C   0  0  0  0  0  0  0  0  0  0  0  0
    3.8374    1.8632   -0.2541 C   0  0  0  0  0  0  0  0  0  0  0  0
    3.0673    1.7685    2.0340 C   0  0  0  0  0  0  0  0  0  0  0  0
    3.9337    2.2867    1.0714 C   0  0  0  0  0  0  0  0  0  0  0  0
   -3.0099    0.5478    0.4715 C   0  0  0  0  0  0  0  0  0  0  0  0
   -2.8796    2.3617   -1.1191 C   0  0  0  0  0  0  0  0  0  0  0  0
   -4.3725    0.7938    0.6404 C   0  0  0  0  0  0  0  0  0  0  0  0
   -4.2420    2.6077   -0.9503 C   0  0  0  0  0  0  0  0  0  0  0  0
   -4.9885    1.8237   -0.0705 C   0  0  0  0  0  0  0  0  0  0  0  0
    4.2542    3.5343   -1.8940 C   0  0  0  0  0  0  0  0  0  0  0  0
   -5.6956   -1.1548    0.9686 C   0  0  0  0  0  0  0  0  0  0  0  0
   -1.8951   -1.4441   -1.0606 H   0  0  0  0  0  0  0  0  0  0  0  0
   -1.3876   -4.0077   -0.9726 H   0  0  0  0  0  0  0  0  0  0  0  0
    2.8076    0.5961   -1.6533 H   0  0  0  0  0  0  0  0  0  0  0  0
    1.4366    0.4328    2.4334 H   0  0  0  0  0  0  0  0  0  0  0  0
    2.4561   -4.9510    0.2807 H   0  0  0  0  0  0  0  0  0  0  0  0
    3.1314    2.0898    3.0701 H   0  0  0  0  0  0  0  0  0  0  0  0
   -2.5440   -0.2336    1.0626 H   0  0  0  0  0  0  0  0  0  0  0  0
   -2.3128    2.9746   -1.8124 H   0  0  0  0  0  0  0  0  0  0  0  0
   -4.7099    3.4120   -1.5118 H   0  0  0  0  0  0  0  0  0  0  0  0
    4.7880    3.3787    2.3913 H   0  0  0  0  0  0  0  0  0  0  0  0
    4.1155    4.3647   -1.1945 H   0  0  0  0  0  0  0  0  0  0  0  0
    3.3244    3.3429   -2.4392 H   0  0  0  0  0  0  0  0  0  0  0  0
    5.0310    3.8086   -2.6129 H   0  0  0  0  0  0  0  0  0  0  0  0
   -6.5696    2.8200   -0.4857 H   0  0  0  0  0  0  0  0  0  0  0  0
   -4.9316   -1.8358    0.5801 H   0  0  0  0  0  0  0  0  0  0  0  0
   -6.4071   -0.8978    0.1775 H   0  0  0  0  0  0  0  0  0  0  0  0
   -6.2358   -1.6585    1.7748 H   0  0  0  0  0  0  0  0  0  0  0  0
  1 16  2  0  0  0  0
  2 17  2  0  0  0  0
  3 22  1  0  0  0  0
  3 30  1  0  0  0  0
  4 21  2  0  0  0  0
  5 24  1  0  0  0  0
  5 41  1  0  0  0  0
  6 27  1  0  0  0  0
  6 31  1  0  0  0  0
  7 29  1  0  0  0  0
  7 45  1  0  0  0  0
  8 13  1  0  0  0  0
  8 14  1  0  0  0  0
  8 32  1  0  0  0  0
  9 14  1  0  0  0  0
  9 21  1  0  0  0  0
  9 33  1  0  0  0  0
 10 16  1  0  0  0  0
 10 21  1  0  0  0  0
 10 36  1  0  0  0  0
 11 12  1  0  0  0  0
 11 13  2  0  0  0  0
 11 15  1  0  0  0  0
 12 14  2  0  0  0  0
 12 16  1  0  0  0  0
 13 17  1  0  0  0  0
 15 18  2  0  0  0  0
 15 19  1  0  0  0  0
 17 20  1  0  0  0  0
 18 22  1  0  0  0  0
 18 34  1  0  0  0  0
 19 23  2  0  0  0  0
 19 35  1  0  0  0  0
 20 25  2  0  0  0  0
 20 26  1  0  0  0  0
 22 24  2  0  0  0  0
 23 24  1  0  0  0  0
 23 37  1  0  0  0  0
 25 27  1  0  0  0  0
 25 38  1  0  0  0  0
 26 28  2  0  0  0  0
 26 39  1  0  0  0  0
 27 29  2  0  0  0  0
 28 29  1  0  0  0  0
 28 40  1  0  0  0  0
 30 42  1  0  0  0  0
 30 43  1  0  0  0  0
 30 44  1  0  0  0  0
 31 46  1  0  0  0  0
 31 47  1  0  0  0  0
 31 48  1  0  0  0  0
M  END
> <PUBCHEM_COMPOUND_CID>
10949906

> <PUBCHEM_CONFORMER_RMSD>
0.8

> <PUBCHEM_CONFORMER_DIVERSEORDER>
1
73
48
83
3
34
86
11
74
28
66
33
64
54
50
30
65
29
61
16
56
62
31
60
53
55
9
17
12
71
46
75
15
35
70
63
32
69
4
49
2
77
52
8
72
10
85
76
47
67
45
22
40
58
57
23
39
44
80
20
6
68
41
51
7
18
59
19
21
81
5
82
13
79
78
14
84
26
27
43
42
25
24
37
38
36

> <PUBCHEM_MMFF94_PARTIAL_CHARGES>
42
1 -0.57
10 -0.49
11 -0.05
12 -0.09
13 -0.24
14 -0.09
15 0.05
16 0.72
17 0.57
18 -0.15
19 -0.15
2 -0.57
20 0.09
21 0.69
22 0.08
23 -0.15
24 0.08
25 -0.15
26 -0.15
27 0.08
28 -0.15
29 0.08
3 -0.36
30 0.28
31 0.28
32 0.27
33 0.37
34 0.15
35 0.15
36 0.37
37 0.15
38 0.15
39 0.15
4 -0.57
40 0.15
41 0.45
45 0.45
5 -0.53
6 -0.36
7 -0.53
8 0.03
9 -0.49

> <PUBCHEM_EFFECTIVE_ROTOR_COUNT>
5

> <PUBCHEM_PHARMACOPHORE_FEATURES>
15
1 1 acceptor
1 10 donor
1 2 acceptor
1 3 acceptor
1 4 acceptor
1 5 donor
1 6 acceptor
1 7 donor
1 8 cation
1 8 donor
1 9 donor
5 8 11 12 13 14 rings
6 15 18 19 22 23 24 rings
6 20 25 26 27 28 29 rings
6 9 10 12 14 16 21 rings

> <PUBCHEM_HEAVY_ATOM_COUNT>
31

> <PUBCHEM_ATOM_DEF_STEREO_COUNT>
0

> <PUBCHEM_ATOM_UDEF_STEREO_COUNT>
0

> <PUBCHEM_BOND_DEF_STEREO_COUNT>
0

> <PUBCHEM_BOND_UDEF_STEREO_COUNT>
0

> <PUBCHEM_ISOTOPIC_ATOM_COUNT>
0

> <PUBCHEM_COMPONENT_COUNT>
1

> <PUBCHEM_CACTVS_TAUTO_COUNT>
841

> <PUBCHEM_CONFORMER_ID>
00A7151200000001

> <PUBCHEM_MMFF94_ENERGY>
107.6197

> <PUBCHEM_FEATURE_SELFOVERLAP>
76.294

> <PUBCHEM_SHAPE_FINGERPRINT>
10074138 170 17978486952270079090
10165383 225 18340779233652669184
10190108 129 18195534907792260431
10794284 68 17033071947772131705
10815517 723 17767411549582543015
1100329 8 18342449301958674746
11136131 41 18261943111558960898
11488393 25 18119261566486211210
12788726 201 17541658752672498022
12839892 36 18335139847388226377
131258 43 17481161007309790254
13140716 1 18341038645039475771
13533116 47 18198341746398166217
13757389 114 17833570245987202726
13955234 65 18268709407510419961
14341114 328 17240481433303474153
1454969 45 18191593154263652493
14790565 3 18192440877074994965
14955137 171 18125436411230329898
151778 21 18410290294251586880
15230672 131 18409447008632201642
15927050 60 18341888641249228478
17913733 40 18413671305349501153
18681886 176 18187937234836042484
18785283 64 18263361404448982598
19319366 153 18272922808845442893
1979834 28 18334579014632675061
20600515 1 16609921616462359744
21033648 29 18271800276283248841
21049683 271 18048041775013604990
21120745 212 17328028079601336380
21304303 172 17476354375863390094
21796203 349 17765465070267008627
22149856 69 18337964407494140321
23559900 14 18044096748541075701
23845131 108 18411410748282381707
283562 15 17836905051848557806
3178227 256 18267314148772255010
350125 39 18410573951187423110
3610482 184 17244726786181698684
4015057 19 17834379135075404045
4403749 210 18193265515502504105
4461854 278 17976850858290262115
458136 41 18412830153078901145
469060 322 18192416684172478527
5047190 48 18335144249571559635
5104073 3 18336832979578993441
5252454 2 18272368698103515393
6442390 28 18340488970845264538
6669772 16 18271536329610755734
6679774 75 18187355494769882418
6691757 9 18124847270840300408
6695519 79 18271536381144887321
6703917 75 18268451172618260636
7808743 9 18193277627273413908
9658208 31 18199473345251739856
9709674 26 17975977562562637071
9777508 108 18125714840684233642

> <PUBCHEM_SHAPE_MULTIPOLES>
581.94
10.84
6.28
1.4
11.63
10.25
0.31
-12.11
2.28
-4.65
-1.77
-1.01
-1.14
0.53

> <PUBCHEM_SHAPE_SELFOVERLAP>
1300.819

> <PUBCHEM_SHAPE_VOLUME>
308

> <PUBCHEM_COORDINATE_TYPE>
2
5
10

$$$$
