10947076
  -OEChem-03292013303D

 33 35  0     1  0  0  0  0  0999 V2000
   -0.9364   -1.9527   -0.7878 O   0  0  0  0  0  0  0  0  0  0  0  0
    1.7261   -0.1354   -2.8826 O   0  0  0  0  0  0  0  0  0  0  0  0
    0.0313   -0.5838    1.5805 O   0  0  0  0  0  0  0  0  0  0  0  0
   -4.5366   -0.7948    1.2771 O   0  0  0  0  0  0  0  0  0  0  0  0
   -2.6972   -2.9043    0.3680 O   0  0  0  0  0  0  0  0  0  0  0  0
   -3.0282    3.5300   -0.0896 O   0  0  0  0  0  0  0  0  0  0  0  0
    5.6538    0.5690   -0.0962 O   0  0  0  0  0  0  0  0  0  0  0  0
    5.0324    0.3913    2.0830 O   0  0  0  0  0  0  0  0  0  0  0  0
   -0.5197   -0.6225   -1.2080 C   0  0  1  0  0  0  0  0  0  0  0  0
   -1.5780    0.2398   -0.6312 C   0  0  0  0  0  0  0  0  0  0  0  0
    0.8415   -0.3675   -0.6658 C   0  0  0  0  0  0  0  0  0  0  0  0
   -2.5137   -0.5446    0.0151 C   0  0  0  0  0  0  0  0  0  0  0  0
   -2.1132   -1.9400   -0.0845 C   0  0  0  0  0  0  0  0  0  0  0  0
   -1.7333    1.6142   -0.6835 C   0  0  0  0  0  0  0  0  0  0  0  0
    1.9138   -0.1332   -1.5330 C   0  0  0  0  0  0  0  0  0  0  0  0
    1.0602   -0.3596    0.7158 C   0  0  0  0  0  0  0  0  0  0  0  0
   -3.6269   -0.0159    0.6417 C   0  0  0  0  0  0  0  0  0  0  0  0
   -2.8489    2.1795   -0.0585 C   0  0  0  0  0  0  0  0  0  0  0  0
   -3.7893    1.3693    0.6003 C   0  0  0  0  0  0  0  0  0  0  0  0
    3.1905    0.1062   -1.0243 C   0  0  0  0  0  0  0  0  0  0  0  0
    2.3369   -0.1203    1.2244 C   0  0  0  0  0  0  0  0  0  0  0  0
    3.4020    0.1127    0.3543 C   0  0  0  0  0  0  0  0  0  0  0  0
    4.7330    0.3627    0.8848 C   0  0  0  0  0  0  0  0  0  0  0  0
   -0.5976   -0.6204   -2.2975 H   0  0  0  0  0  0  0  0  0  0  0  0
   -1.0049    2.2321   -1.1988 H   0  0  0  0  0  0  0  0  0  0  0  0
   -4.6509    1.8277    1.0803 H   0  0  0  0  0  0  0  0  0  0  0  0
    3.9958    0.2838   -1.7322 H   0  0  0  0  0  0  0  0  0  0  0  0
    2.4955   -0.1162    2.3002 H   0  0  0  0  0  0  0  0  0  0  0  0
    0.8904    0.3147   -3.0878 H   0  0  0  0  0  0  0  0  0  0  0  0
    0.3656   -0.5382    2.4925 H   0  0  0  0  0  0  0  0  0  0  0  0
   -4.2674   -1.7260    1.2072 H   0  0  0  0  0  0  0  0  0  0  0  0
   -2.2924    3.9339   -0.5810 H   0  0  0  0  0  0  0  0  0  0  0  0
    6.5478    0.7361    0.2716 H   0  0  0  0  0  0  0  0  0  0  0  0
  1  9  1  0  0  0  0
  1 13  1  0  0  0  0
  2 15  1  0  0  0  0
  2 29  1  0  0  0  0
  3 16  1  0  0  0  0
  3 30  1  0  0  0  0
  4 17  1  0  0  0  0
  4 31  1  0  0  0  0
  5 13  2  0  0  0  0
  6 18  1  0  0  0  0
  6 32  1  0  0  0  0
  7 23  1  0  0  0  0
  7 33  1  0  0  0  0
  8 23  2  0  0  0  0
  9 10  1  0  0  0  0
  9 11  1  0  0  0  0
  9 24  1  0  0  0  0
 10 12  2  0  0  0  0
 10 14  1  0  0  0  0
 11 15  2  0  0  0  0
 11 16  1  0  0  0  0
 12 13  1  0  0  0  0
 12 17  1  0  0  0  0
 14 18  2  0  0  0  0
 14 25  1  0  0  0  0
 15 20  1  0  0  0  0
 16 21  2  0  0  0  0
 17 19  2  0  0  0  0
 18 19  1  0  0  0  0
 19 26  1  0  0  0  0
 20 22  2  0  0  0  0
 20 27  1  0  0  0  0
 21 22  1  0  0  0  0
 21 28  1  0  0  0  0
 22 23  1  0  0  0  0
M  END
> <PUBCHEM_COMPOUND_CID>
10947076

> <PUBCHEM_CONFORMER_RMSD>
0.6

> <PUBCHEM_CONFORMER_DIVERSEORDER>
1
3
4
2

> <PUBCHEM_MMFF94_PARTIAL_CHARGES>
32
1 -0.43
10 -0.14
11 -0.14
12 0.09
13 0.63
14 -0.15
15 0.08
16 0.08
17 0.08
18 0.08
19 -0.15
2 -0.53
20 -0.15
21 -0.15
22 0.09
23 0.63
25 0.15
26 0.15
27 0.15
28 0.15
29 0.45
3 -0.53
30 0.45
31 0.45
32 0.45
33 0.5
4 -0.53
5 -0.57
6 -0.53
7 -0.65
8 -0.57
9 0.57

> <PUBCHEM_EFFECTIVE_ROTOR_COUNT>
2.4

> <PUBCHEM_PHARMACOPHORE_FEATURES>
11
1 2 donor
1 3 donor
1 4 donor
1 5 acceptor
1 6 donor
1 7 acceptor
1 8 acceptor
3 7 8 23 anion
5 1 9 10 12 13 rings
6 10 12 14 17 18 19 rings
6 11 15 16 20 21 22 rings

> <PUBCHEM_HEAVY_ATOM_COUNT>
23

> <PUBCHEM_ATOM_DEF_STEREO_COUNT>
0

> <PUBCHEM_ATOM_UDEF_STEREO_COUNT>
1

> <PUBCHEM_BOND_DEF_STEREO_COUNT>
0

> <PUBCHEM_BOND_UDEF_STEREO_COUNT>
0

> <PUBCHEM_ISOTOPIC_ATOM_COUNT>
0

> <PUBCHEM_COMPONENT_COUNT>
1

> <PUBCHEM_CACTVS_TAUTO_COUNT>
60

> <PUBCHEM_CONFORMER_ID>
00A70A0400000001

> <PUBCHEM_MMFF94_ENERGY>
70.1484

> <PUBCHEM_FEATURE_SELFOVERLAP>
55.969

> <PUBCHEM_SHAPE_FINGERPRINT>
10319926 262 18341045234283991250
12173636 292 18337953364362575685
12236239 1 17603867827201391086
12403259 415 18129956563202197205
12596602 18 17676206896659440520
12633257 1 18270970140766715497
12670546 56 18338503175852880282
12788726 201 17825974759638926787
12892183 10 18334008368007630114
12969540 114 16128644272180260624
13140716 1 18193002736533555507
13544653 18 14129058080515435828
13583140 156 17987215855456839346
13965767 371 17393047235964535821
14178342 30 18334859419903929926
14341114 328 17677350341465469593
14420673 8 17901382291177551250
14787075 74 16524458742815722199
15209289 33 17676202489938163610
15209294 21 18040991813487472512
15375358 24 17131834265814799914
16945 1 18409459089547050055
18186145 218 17417539020580938694
18219364 16 16701738349421985062
18915476 22 16988290763476478526
19784866 34 15841548587548648158
19862831 5 12751232606038831772
200 152 16081081606306323531
20510252 161 18342465790274417849
20645477 56 18130787867086224520
20645477 70 16487264227358956134
21033648 29 18060410288324759720
21650355 55 18265051512966993707
22149856 69 17759268210787237361
231179 274 17561358474884519992
23402539 116 18341042008689660055
23493267 7 18131625682352039898
23557571 272 18272099296353629420
23559900 14 18199487492647095446
25 1 16415478233740624446
3286 77 14779558884617651133
350125 39 15839565188393615158
633830 44 16772402712225392777
7097593 13 17823131237801157602
77492 1 17604158111224662983
90316 7 17604152523725815077
9849439 229 17760931736655166737

> <PUBCHEM_SHAPE_MULTIPOLES>
426.37
9.15
2.17
1.66
8.16
0.59
-0.46
2.69
3.78
-3.71
-0.03
1.5
-0.14
0.54

> <PUBCHEM_SHAPE_SELFOVERLAP>
961.933

> <PUBCHEM_SHAPE_VOLUME>
224.3

> <PUBCHEM_COORDINATE_TYPE>
2
5
10

$$$$
