10948384
  -OEChem-03292013303D

 46 47  0     1  0  0  0  0  0999 V2000
    1.3754    2.4681   -0.7215 O   0  0  0  0  0  0  0  0  0  0  0  0
    3.2367    3.2185    1.2009 O   0  0  0  0  0  0  0  0  0  0  0  0
    0.5795   -1.8176    0.9795 O   0  0  0  0  0  0  0  0  0  0  0  0
   -2.8188   -1.7460    0.6548 O   0  0  0  0  0  0  0  0  0  0  0  0
    0.0936   -2.9321   -0.9356 O   0  0  0  0  0  0  0  0  0  0  0  0
   -4.8266   -1.5250    1.6870 O   0  0  0  0  0  0  0  0  0  0  0  0
    2.4266   -4.3496   -0.6554 N   0  0  0  0  0  0  0  0  0  0  0  0
   -5.8334   -0.3934   -0.6013 N   0  0  0  0  0  0  0  0  0  0  0  0
    3.2568   -2.0333   -0.8639 C   0  0  0  0  0  0  0  0  0  0  0  0
   -4.0720    1.1976    0.0161 C   0  0  0  0  0  0  0  0  0  0  0  0
    3.2489   -0.6448   -0.3202 C   0  0  0  0  0  0  0  0  0  0  0  0
    2.3678   -3.0134   -0.0673 C   0  0  1  0  0  0  0  0  0  0  0  0
   -2.6127    1.5378   -0.1816 C   0  0  0  0  0  0  0  0  0  0  0  0
   -4.4006   -0.2584   -0.3493 C   0  0  1  0  0  0  0  0  0  0  0  0
    2.3073    0.2775   -0.7767 C   0  0  0  0  0  0  0  0  0  0  0  0
    2.3156    1.5617   -0.2610 C   0  0  0  0  0  0  0  0  0  0  0  0
    4.1835   -0.2680    0.6445 C   0  0  0  0  0  0  0  0  0  0  0  0
    0.0612    2.1615   -0.5440 C   0  0  0  0  0  0  0  0  0  0  0  0
   -2.1917    2.0279   -1.4066 C   0  0  0  0  0  0  0  0  0  0  0  0
   -1.7263    1.3527    0.8660 C   0  0  0  0  0  0  0  0  0  0  0  0
    3.2348    1.9531    0.6962 C   0  0  0  0  0  0  0  0  0  0  0  0
   -0.8448    2.3420   -1.5892 C   0  0  0  0  0  0  0  0  0  0  0  0
   -0.3796    1.6670    0.6836 C   0  0  0  0  0  0  0  0  0  0  0  0
    4.1763    1.0308    1.1527 C   0  0  0  0  0  0  0  0  0  0  0  0
    0.9076   -2.5947   -0.0855 C   0  0  0  0  0  0  0  0  0  0  0  0
   -4.0652   -1.2199    0.7779 C   0  0  0  0  0  0  0  0  0  0  0  0
    2.9355   -2.0054   -1.9149 H   0  0  0  0  0  0  0  0  0  0  0  0
    4.2887   -2.4098   -0.8873 H   0  0  0  0  0  0  0  0  0  0  0  0
   -4.6640    1.8892   -0.5996 H   0  0  0  0  0  0  0  0  0  0  0  0
   -4.3601    1.4132    1.0542 H   0  0  0  0  0  0  0  0  0  0  0  0
    2.7032   -3.0826    0.9740 H   0  0  0  0  0  0  0  0  0  0  0  0
   -3.8745   -0.5804   -1.2554 H   0  0  0  0  0  0  0  0  0  0  0  0
    1.5878   -0.0103   -1.5387 H   0  0  0  0  0  0  0  0  0  0  0  0
    4.9207   -0.9781    1.0097 H   0  0  0  0  0  0  0  0  0  0  0  0
   -2.8892    2.1691   -2.2271 H   0  0  0  0  0  0  0  0  0  0  0  0
   -2.0602    0.9735    1.8274 H   0  0  0  0  0  0  0  0  0  0  0  0
   -0.5070    2.7258   -2.5479 H   0  0  0  0  0  0  0  0  0  0  0  0
    0.2992    1.5330    1.5213 H   0  0  0  0  0  0  0  0  0  0  0  0
    4.9094    1.3107    1.9045 H   0  0  0  0  0  0  0  0  0  0  0  0
    1.8108   -4.9829   -0.1471 H   0  0  0  0  0  0  0  0  0  0  0  0
    2.0930   -4.3257   -1.6181 H   0  0  0  0  0  0  0  0  0  0  0  0
   -6.3602   -0.0476    0.2007 H   0  0  0  0  0  0  0  0  0  0  0  0
   -6.0996    0.2019   -1.3851 H   0  0  0  0  0  0  0  0  0  0  0  0
    3.9506    3.2967    1.8568 H   0  0  0  0  0  0  0  0  0  0  0  0
   -0.3667   -1.5596    0.9658 H   0  0  0  0  0  0  0  0  0  0  0  0
   -2.6153   -2.3764    1.3782 H   0  0  0  0  0  0  0  0  0  0  0  0
  1 16  1  0  0  0  0
  1 18  1  0  0  0  0
  2 21  1  0  0  0  0
  2 44  1  0  0  0  0
  3 25  1  0  0  0  0
  3 45  1  0  0  0  0
  4 26  1  0  0  0  0
  4 46  1  0  0  0  0
  5 25  2  0  0  0  0
  6 26  2  0  0  0  0
  7 12  1  0  0  0  0
  7 40  1  0  0  0  0
  7 41  1  0  0  0  0
  8 14  1  0  0  0  0
  8 42  1  0  0  0  0
  8 43  1  0  0  0  0
  9 11  1  0  0  0  0
  9 12  1  0  0  0  0
  9 27  1  0  0  0  0
  9 28  1  0  0  0  0
 10 13  1  0  0  0  0
 10 14  1  0  0  0  0
 10 29  1  0  0  0  0
 10 30  1  0  0  0  0
 11 15  2  0  0  0  0
 11 17  1  0  0  0  0
 12 25  1  0  0  0  0
 12 31  1  0  0  0  0
 13 19  2  0  0  0  0
 13 20  1  0  0  0  0
 14 26  1  0  0  0  0
 14 32  1  0  0  0  0
 15 16  1  0  0  0  0
 15 33  1  0  0  0  0
 16 21  2  0  0  0  0
 17 24  2  0  0  0  0
 17 34  1  0  0  0  0
 18 22  2  0  0  0  0
 18 23  1  0  0  0  0
 19 22  1  0  0  0  0
 19 35  1  0  0  0  0
 20 23  2  0  0  0  0
 20 36  1  0  0  0  0
 21 24  1  0  0  0  0
 22 37  1  0  0  0  0
 23 38  1  0  0  0  0
 24 39  1  0  0  0  0
M  END
> <PUBCHEM_COMPOUND_CID>
10948384

> <PUBCHEM_CONFORMER_RMSD>
0.8

> <PUBCHEM_CONFORMER_DIVERSEORDER>
1
184
57
207
109
174
104
138
89
160
238
36
180
153
93
77
173
96
164
71
183
78
131
200
218
235
198
221
74
107
220
118
92
212
165
237
225
177
169
120
126
102
145
162
111
211
121
37
223
99
62
115
175
80
187
196
58
201
73
157
137
232
124
217
56
60
195
229
152
244
135
75
172
32
122
112
194
148
149
228
214
59
222
151
236
129
243
189
203
226
241
8
12
123
30
202
40
103
155
100
140
216
47
50
27
239
76
154
144
88
113
128
64
13
24
41
69
83
146
97
208
227
139
119
105
72
4
219
158
167
63
114
53
2
182
178
209
54
48
240
21
242
150
117
39
133
98
179
170
79
67
163
224
25
230
66
186
70
35
181
197
42
16
5
95
213
192
23
82
90
33
199
108
234
51
61
134
161
28
101
34
110
68
9
147
176
17
136
168
166
46
127
55
91
94
188
231
130
14
210
43
125
206
18
31
22
193
159
143
52
205
19
44
20
191
204
3
84
65
132
45
171
10
215
49
116
26
141
156
81
185
11
86
85
106
6
15
87
29
190
7
38
245
142
233

> <PUBCHEM_MMFF94_PARTIAL_CHARGES>
40
1 -0.17
10 0.14
11 -0.14
12 0.33
13 -0.14
14 0.33
15 -0.15
16 0.08
17 -0.15
18 0.08
19 -0.15
2 -0.53
20 -0.15
21 0.08
22 -0.15
23 -0.15
24 -0.15
25 0.66
26 0.66
3 -0.65
33 0.15
34 0.15
35 0.15
36 0.15
37 0.15
38 0.15
39 0.15
4 -0.65
40 0.36
41 0.36
42 0.36
43 0.36
44 0.45
45 0.5
46 0.5
5 -0.57
6 -0.57
7 -0.99
8 -0.99
9 0.14

> <PUBCHEM_EFFECTIVE_ROTOR_COUNT>
8

> <PUBCHEM_PHARMACOPHORE_FEATURES>
14
1 1 acceptor
1 2 donor
1 3 acceptor
1 4 acceptor
1 5 acceptor
1 6 acceptor
1 7 cation
1 7 donor
1 8 cation
1 8 donor
3 3 5 25 anion
3 4 6 26 anion
6 11 15 16 17 21 24 rings
6 13 18 19 20 22 23 rings

> <PUBCHEM_HEAVY_ATOM_COUNT>
26

> <PUBCHEM_ATOM_DEF_STEREO_COUNT>
2

> <PUBCHEM_ATOM_UDEF_STEREO_COUNT>
0

> <PUBCHEM_BOND_DEF_STEREO_COUNT>
0

> <PUBCHEM_BOND_UDEF_STEREO_COUNT>
0

> <PUBCHEM_ISOTOPIC_ATOM_COUNT>
0

> <PUBCHEM_COMPONENT_COUNT>
1

> <PUBCHEM_CACTVS_TAUTO_COUNT>
3

> <PUBCHEM_CONFORMER_ID>
00A70F2000000001

> <PUBCHEM_MMFF94_ENERGY>
64.4149

> <PUBCHEM_FEATURE_SELFOVERLAP>
71.164

> <PUBCHEM_SHAPE_FINGERPRINT>
11112241 14 17773576395167251369
11370993 70 18341326794384600808
114674 6 18409168788091026490
11828532 37 16014109451854764091
12156800 1 11404457666627874154
12422481 6 18337092536714866498
12596599 1 17555464933049933727
12596602 18 16630241515236298057
12633257 1 17836372544728533243
13122387 1 17256245943338474999
13402501 40 18335422369825267426
13533116 47 18271807891797911889
13583140 156 17917983975948082329
14178342 30 18338802212698150472
14223421 5 18337389327281125556
14659021 117 16609972735649348670
14787075 74 17773869990167273761
14790565 3 17253155731839490588
15422964 175 18337105674925528716
17093844 170 18335418006006580425
1979834 28 18337684121452704643
19930381 70 18341890762372040832
20028762 73 18129653218415948790
20775530 9 18048609118064688762
21197605 99 18195808685675899783
21285901 2 17894905231307289877
21673915 165 18412542141172489565
221490 88 18266464204761629094
23559900 14 18408039589417523276
238918 7 18411132584767712842
350125 39 18338236072316809300
392239 28 17845642763633246576
463206 1 18269552922329906903
508706 21 17968655995810355223
59755656 215 18411421696238291734
6433294 58 18410573955166282063
6438718 38 17485367008388560470
9709674 26 18335983047946665389

> <PUBCHEM_SHAPE_MULTIPOLES>
489.89
9.55
4.38
1.27
8.76
2.71
0.02
2.13
1.81
-3.17
-0.53
0.24
-0.28
2.12

> <PUBCHEM_SHAPE_SELFOVERLAP>
1041.534

> <PUBCHEM_SHAPE_VOLUME>
270.6

> <PUBCHEM_COORDINATE_TYPE>
2
5
10

$$$$
