109515
  -OEChem-03292013323D

 41 44  0     0  0  0  0  0  0999 V2000
   -5.7724    1.0877    0.1576 S   0  0  0  0  0  0  0  0  0  0  0  0
   -6.3778    1.0898   -1.3612 O   0  0  0  0  0  0  0  0  0  0  0  0
    1.0581    2.5928    0.2539 O   0  0  0  0  0  0  0  0  0  0  0  0
   -6.5915    0.1730    0.9395 O   0  0  0  0  0  0  0  0  0  0  0  0
   -5.5984    2.4699    0.5762 O   0  0  0  0  0  0  0  0  0  0  0  0
    0.8067   -0.5098   -0.5697 N   0  0  0  0  0  0  0  0  0  0  0  0
    1.3097   -0.1470    0.5176 N   0  0  0  0  0  0  0  0  0  0  0  0
   -1.6090   -0.7206   -0.2161 C   0  0  0  0  0  0  0  0  0  0  0  0
   -2.7242   -1.5573    0.0273 C   0  0  0  0  0  0  0  0  0  0  0  0
   -0.3318   -1.2938   -0.3285 C   0  0  0  0  0  0  0  0  0  0  0  0
   -4.1764    0.3944    0.0142 C   0  0  0  0  0  0  0  0  0  0  0  0
   -4.0014   -0.9840    0.1397 C   0  0  0  0  0  0  0  0  0  0  0  0
    3.7211    0.0510    0.1649 C   0  0  0  0  0  0  0  0  0  0  0  0
   -1.8038    0.6647   -0.3397 C   0  0  0  0  0  0  0  0  0  0  0  0
    4.8452    0.8755   -0.0789 C   0  0  0  0  0  0  0  0  0  0  0  0
   -3.0798    1.2171   -0.2251 C   0  0  0  0  0  0  0  0  0  0  0  0
   -2.5294   -2.9426    0.1508 C   0  0  0  0  0  0  0  0  0  0  0  0
    2.4501    0.6379    0.2757 C   0  0  0  0  0  0  0  0  0  0  0  0
   -0.1568   -2.6723   -0.2030 C   0  0  0  0  0  0  0  0  0  0  0  0
   -1.2535   -3.4950    0.0363 C   0  0  0  0  0  0  0  0  0  0  0  0
    2.2895    2.0179    0.1478 C   0  0  0  0  0  0  0  0  0  0  0  0
    4.6651    2.2626   -0.2048 C   0  0  0  0  0  0  0  0  0  0  0  0
    3.9012   -1.3361    0.2908 C   0  0  0  0  0  0  0  0  0  0  0  0
    6.1163    0.2887   -0.1896 C   0  0  0  0  0  0  0  0  0  0  0  0
    3.3950    2.8287   -0.0919 C   0  0  0  0  0  0  0  0  0  0  0  0
    5.1714   -1.9021    0.1780 C   0  0  0  0  0  0  0  0  0  0  0  0
    6.2768   -1.0913   -0.0619 C   0  0  0  0  0  0  0  0  0  0  0  0
   -4.8594   -1.6288    0.3192 H   0  0  0  0  0  0  0  0  0  0  0  0
   -0.9809    1.3388   -0.5515 H   0  0  0  0  0  0  0  0  0  0  0  0
   -3.1937    2.2915   -0.3394 H   0  0  0  0  0  0  0  0  0  0  0  0
   -3.3720   -3.6051    0.3378 H   0  0  0  0  0  0  0  0  0  0  0  0
    0.8312   -3.1165   -0.2928 H   0  0  0  0  0  0  0  0  0  0  0  0
   -1.1167   -4.5682    0.1333 H   0  0  0  0  0  0  0  0  0  0  0  0
    5.5151    2.9155   -0.3923 H   0  0  0  0  0  0  0  0  0  0  0  0
    3.0668   -2.0050    0.4852 H   0  0  0  0  0  0  0  0  0  0  0  0
    6.9944    0.9032   -0.3767 H   0  0  0  0  0  0  0  0  0  0  0  0
    3.2845    3.9051   -0.1937 H   0  0  0  0  0  0  0  0  0  0  0  0
    5.2976   -2.9762    0.2789 H   0  0  0  0  0  0  0  0  0  0  0  0
    7.2654   -1.5326   -0.1492 H   0  0  0  0  0  0  0  0  0  0  0  0
   -6.4782    0.2015   -1.7776 H   0  0  0  0  0  0  0  0  0  0  0  0
    1.1440    3.5543    0.1354 H   0  0  0  0  0  0  0  0  0  0  0  0
  1  2  1  0  0  0  0
  1  4  2  0  0  0  0
  1  5  2  0  0  0  0
  1 11  1  0  0  0  0
  2 40  1  0  0  0  0
  3 21  1  0  0  0  0
  3 41  1  0  0  0  0
  6  7  2  0  0  0  0
  6 10  1  0  0  0  0
  7 18  1  0  0  0  0
  8  9  2  0  0  0  0
  8 10  1  0  0  0  0
  8 14  1  0  0  0  0
  9 12  1  0  0  0  0
  9 17  1  0  0  0  0
 10 19  2  0  0  0  0
 11 12  2  0  0  0  0
 11 16  1  0  0  0  0
 12 28  1  0  0  0  0
 13 15  1  0  0  0  0
 13 18  1  0  0  0  0
 13 23  2  0  0  0  0
 14 16  2  0  0  0  0
 14 29  1  0  0  0  0
 15 22  1  0  0  0  0
 15 24  2  0  0  0  0
 16 30  1  0  0  0  0
 17 20  2  0  0  0  0
 17 31  1  0  0  0  0
 18 21  2  0  0  0  0
 19 20  1  0  0  0  0
 19 32  1  0  0  0  0
 20 33  1  0  0  0  0
 21 25  1  0  0  0  0
 22 25  2  0  0  0  0
 22 34  1  0  0  0  0
 23 26  1  0  0  0  0
 23 35  1  0  0  0  0
 24 27  1  0  0  0  0
 24 36  1  0  0  0  0
 25 37  1  0  0  0  0
 26 27  2  0  0  0  0
 26 38  1  0  0  0  0
 27 39  1  0  0  0  0
M  END
> <PUBCHEM_COMPOUND_CID>
109515

> <PUBCHEM_CONFORMER_RMSD>
0.6

> <PUBCHEM_CONFORMER_DIVERSEORDER>
1
6
16
9
15
17
14
8
7
10
11
3
2
13
4
5
12

> <PUBCHEM_MMFF94_PARTIAL_CHARGES>
37
1 1.49
10 0.18
11 -0.01
12 -0.15
14 -0.15
16 -0.15
17 -0.15
18 0.18
19 -0.15
2 -0.68
20 -0.15
21 0.08
22 -0.15
23 -0.15
24 -0.15
25 -0.15
26 -0.15
27 -0.15
28 0.15
29 0.15
3 -0.53
30 0.15
31 0.15
32 0.15
33 0.15
34 0.15
35 0.15
36 0.15
37 0.15
38 0.15
39 0.15
4 -0.65
40 0.5
41 0.45
5 -0.65
6 -0.18
7 -0.18

> <PUBCHEM_EFFECTIVE_ROTOR_COUNT>
3

> <PUBCHEM_PHARMACOPHORE_FEATURES>
9
1 2 acceptor
1 3 donor
1 4 acceptor
1 5 acceptor
4 1 2 4 5 anion
6 13 15 18 21 22 25 rings
6 13 15 23 24 26 27 rings
6 8 9 10 17 19 20 rings
6 8 9 11 12 14 16 rings

> <PUBCHEM_HEAVY_ATOM_COUNT>
27

> <PUBCHEM_ATOM_DEF_STEREO_COUNT>
0

> <PUBCHEM_ATOM_UDEF_STEREO_COUNT>
0

> <PUBCHEM_BOND_DEF_STEREO_COUNT>
0

> <PUBCHEM_BOND_UDEF_STEREO_COUNT>
0

> <PUBCHEM_ISOTOPIC_ATOM_COUNT>
0

> <PUBCHEM_COMPONENT_COUNT>
1

> <PUBCHEM_CACTVS_TAUTO_COUNT>
3

> <PUBCHEM_CONFORMER_ID>
0001ABCB00000001

> <PUBCHEM_MMFF94_ENERGY>
76.0498

> <PUBCHEM_FEATURE_SELFOVERLAP>
45.78

> <PUBCHEM_SHAPE_FINGERPRINT>
10411042 1 17690562314120518303
10763959 59 17967245382321670125
10835480 77 18270955864738885952
11370993 144 18335137630694569374
11405975 8 18337952393678861234
11578080 2 17344610759980093600
12107183 9 18337386050743825122
12633257 1 18411699885322206950
12788726 201 17703522025178629456
13402501 40 18410575058903915829
13785724 45 17907580229506841018
14341114 176 18408326596375018208
14790565 3 18410859824211060721
15183329 4 18411980243401744108
15196674 1 18338797917650972908
16087824 20 18338518517503045844
17492 89 18121217838491360466
17844677 252 18265622150742959370
1813 80 16877936183543384828
18335252 114 18339350882438921373
19319366 153 17604145939841663146
19611394 137 18042420187267801699
21033648 144 18337940303003317900
21065198 57 18267021841903366988
21133410 127 17682948152890314101
21133410 171 17045361130062602542
21236236 1 18340767148110576871
21267235 1 18338803321648220142
21279426 13 18411984663070733078
21421861 104 17968923237840395202
21859007 373 17897421957219857924
23558518 356 18044657748236810250
23559900 14 18342171202772900682
249057 3 18410293606087876262
2838139 119 18272084981544155917
3004659 81 18407760327176482344
3178227 256 18336557036092495633
335352 9 18411418402040372582
350125 39 18408886209091280445
3680242 22 18339085878028307456
4017518 198 17131838656100306462
4073 2 18042127716795257994
4214541 1 18410292557894387774
5104073 3 18263357144015486090
59755656 215 18340208483932935654
59755656 520 18410006642127475143
6328613 192 18336551603064887092
9709674 26 18119530088290235546

> <PUBCHEM_SHAPE_MULTIPOLES>
526.06
15.83
3.43
0.74
3.74
0.9
-0.05
-5.47
0.3
0.11
0.09
0.49
-0.07
-0.12

> <PUBCHEM_SHAPE_SELFOVERLAP>
1169.662

> <PUBCHEM_SHAPE_VOLUME>
280.9

> <PUBCHEM_COORDINATE_TYPE>
2
5
10

$$$$
