1095
  -OEChem-03292013323D

 27 27  0     1  0  0  0  0  0999 V2000
    2.6467    0.7014    0.0825 P   0  0  0  0  0  0  0  0  0  0  0  0
    1.6751   -0.5787    0.2405 O   0  0  0  0  0  0  0  0  0  0  0  0
   -0.8139   -2.4657   -1.6177 O   0  0  0  0  0  0  0  0  0  0  0  0
   -0.4848   -1.7835    1.9522 O   0  0  0  0  0  0  0  0  0  0  0  0
   -3.5832    1.4161   -0.1485 O   0  0  0  0  0  0  0  0  0  0  0  0
    3.4331    0.4207   -1.3025 O   0  0  0  0  0  0  0  0  0  0  0  0
    3.7731    0.4317    1.2110 O   0  0  0  0  0  0  0  0  0  0  0  0
   -1.7680    2.7906    0.0663 O   0  0  0  0  0  0  0  0  0  0  0  0
    1.9642    2.0349    0.1739 O   0  0  0  0  0  0  0  0  0  0  0  0
   -0.1251   -2.0639   -0.4341 C   0  0  2  0  0  0  0  0  0  0  0  0
   -1.1497   -1.9525    0.7018 C   0  0  2  0  0  0  0  0  0  0  0  0
    0.6141   -0.7393   -0.6982 C   0  0  1  0  0  0  0  0  0  0  0  0
   -2.1458   -0.8034    0.4815 C   0  0  0  0  0  0  0  0  0  0  0  0
   -1.5045    0.4326   -0.0772 C   0  0  0  0  0  0  0  0  0  0  0  0
   -0.2661    0.4740   -0.5889 C   0  0  0  0  0  0  0  0  0  0  0  0
   -2.2652    1.6848   -0.0424 C   0  0  0  0  0  0  0  0  0  0  0  0
    0.6115   -2.8390   -0.1898 H   0  0  0  0  0  0  0  0  0  0  0  0
   -1.7205   -2.8852    0.7791 H   0  0  0  0  0  0  0  0  0  0  0  0
    1.0425   -0.7703   -1.7072 H   0  0  0  0  0  0  0  0  0  0  0  0
   -2.6347   -0.5664    1.4345 H   0  0  0  0  0  0  0  0  0  0  0  0
   -2.9196   -1.1380   -0.2210 H   0  0  0  0  0  0  0  0  0  0  0  0
    0.0908    1.3929   -1.0428 H   0  0  0  0  0  0  0  0  0  0  0  0
   -1.2299   -3.3260   -1.4379 H   0  0  0  0  0  0  0  0  0  0  0  0
    0.0038   -0.9436    1.9267 H   0  0  0  0  0  0  0  0  0  0  0  0
   -4.1285    2.2313   -0.1288 H   0  0  0  0  0  0  0  0  0  0  0  0
    4.0472    1.1041   -1.6463 H   0  0  0  0  0  0  0  0  0  0  0  0
    4.4452    1.1245    1.3856 H   0  0  0  0  0  0  0  0  0  0  0  0
  1  2  1  0  0  0  0
  1  6  1  0  0  0  0
  1  7  1  0  0  0  0
  1  9  2  0  0  0  0
  2 12  1  0  0  0  0
  3 10  1  0  0  0  0
  3 23  1  0  0  0  0
  4 11  1  0  0  0  0
  4 24  1  0  0  0  0
  5 16  1  0  0  0  0
  5 25  1  0  0  0  0
  6 26  1  0  0  0  0
  7 27  1  0  0  0  0
  8 16  2  0  0  0  0
 10 11  1  0  0  0  0
 10 12  1  0  0  0  0
 10 17  1  0  0  0  0
 11 13  1  0  0  0  0
 11 18  1  0  0  0  0
 12 15  1  0  0  0  0
 12 19  1  0  0  0  0
 13 14  1  0  0  0  0
 13 20  1  0  0  0  0
 13 21  1  0  0  0  0
 14 15  2  0  0  0  0
 14 16  1  0  0  0  0
 15 22  1  0  0  0  0
M  END
> <PUBCHEM_COMPOUND_CID>
1095

> <PUBCHEM_CONFORMER_RMSD>
0.6

> <PUBCHEM_CONFORMER_DIVERSEORDER>
2
9
14
11
17
6
18
15
12
16
1
5
10
3
13
4
7
8

> <PUBCHEM_MMFF94_PARTIAL_CHARGES>
22
1 1.51
10 0.28
11 0.28
12 0.42
13 0.14
14 -0.12
15 -0.29
16 0.71
2 -0.55
22 0.15
23 0.4
24 0.4
25 0.5
26 0.5
27 0.5
3 -0.68
4 -0.68
5 -0.65
6 -0.77
7 -0.77
8 -0.57
9 -0.7

> <PUBCHEM_EFFECTIVE_ROTOR_COUNT>
3.8

> <PUBCHEM_PHARMACOPHORE_FEATURES>
12
1 3 acceptor
1 3 donor
1 4 acceptor
1 4 donor
1 5 acceptor
1 6 acceptor
1 7 acceptor
1 8 acceptor
1 9 acceptor
3 5 8 16 anion
4 1 6 7 9 anion
6 10 11 12 13 14 15 rings

> <PUBCHEM_HEAVY_ATOM_COUNT>
16

> <PUBCHEM_ATOM_DEF_STEREO_COUNT>
0

> <PUBCHEM_ATOM_UDEF_STEREO_COUNT>
3

> <PUBCHEM_BOND_DEF_STEREO_COUNT>
0

> <PUBCHEM_BOND_UDEF_STEREO_COUNT>
0

> <PUBCHEM_ISOTOPIC_ATOM_COUNT>
0

> <PUBCHEM_COMPONENT_COUNT>
1

> <PUBCHEM_CACTVS_TAUTO_COUNT>
1

> <PUBCHEM_CONFORMER_ID>
0000044700000002

> <PUBCHEM_MMFF94_ENERGY>
-1.4806

> <PUBCHEM_FEATURE_SELFOVERLAP>
60.99

> <PUBCHEM_SHAPE_FINGERPRINT>
13024252 1 17677602240970364639
13380535 76 18337953394189820285
13764800 53 18336837467049514848
14648413 74 17550673206053136021
14817 1 7829211784393419531
15076042 46 18261678189422137848
15775835 57 18260551091177494424
16945 1 18409732901753647055
19868273 325 17907584979344018158
20510252 161 18339371875600500776
20511035 2 18264503809783613070
20645476 183 17749402485020885996
20871998 184 18268721673879202775
21524375 3 18337105649070659437
220403 375 18338513028317784171
2306618 200 17774161352427290218
23388829 49 16903558351570252037
23402539 116 18199173152760126287
23419403 2 16897432538437418274
23559900 14 18200884985765416150
25 1 18124889953402302805
2748010 2 18269006309687969439
305870 269 18045212735199240297
5706482 22 18410282597574876827
7364860 26 17766556855036628213
81228 2 18195240250779547003
81539 233 18117273653979685901

> <PUBCHEM_SHAPE_MULTIPOLES>
286.17
4.71
2.74
1.2
3.26
0.11
0.13
2.8
0.36
-1.73
-0.09
0.33
-0.73
0.2

> <PUBCHEM_SHAPE_SELFOVERLAP>
572.798

> <PUBCHEM_SHAPE_VOLUME>
169.3

> <PUBCHEM_COORDINATE_TYPE>
2
5
10

$$$$
