10950300
  -OEChem-03292013303D

 62 64  0     1  0  0  0  0  0999 V2000
   -0.0240    1.5878   -0.8949 O   0  0  0  0  0  0  0  0  0  0  0  0
    3.0349   -1.5344   -1.6658 O   0  0  0  0  0  0  0  0  0  0  0  0
   -5.2672   -0.9801    0.3288 O   0  0  0  0  0  0  0  0  0  0  0  0
    1.0937    2.4080    2.9663 O   0  0  0  0  0  0  0  0  0  0  0  0
   -6.1935    0.8097   -1.5645 O   0  0  0  0  0  0  0  0  0  0  0  0
    3.5948    2.4083    2.2404 O   0  0  0  0  0  0  0  0  0  0  0  0
    4.4783    1.7377   -2.3754 O   0  0  0  0  0  0  0  0  0  0  0  0
    2.8469   -2.7319   -0.9092 C   0  0  0  0  0  0  0  0  0  0  0  0
    1.3400   -2.8990   -0.6279 C   0  0  0  0  0  0  0  0  0  0  0  0
   -0.8232    1.1402    0.2112 C   0  0  2  0  0  0  0  0  0  0  0  0
    0.9866   -4.1132    0.2418 C   0  0  0  0  0  0  0  0  0  0  0  0
   -2.2614    1.0325   -0.2498 C   0  0  0  0  0  0  0  0  0  0  0  0
   -0.5244   -4.1899    0.4938 C   0  0  0  0  0  0  0  0  0  0  0  0
   -0.6954    2.0912    1.3996 C   0  0  0  0  0  0  0  0  0  0  0  0
   -3.1150    0.0623    0.2585 C   0  0  0  0  0  0  0  0  0  0  0  0
   -2.6073   -0.9133    1.2903 C   0  0  0  0  0  0  0  0  0  0  0  0
   -1.0508   -2.9455    1.1736 C   0  0  0  0  0  0  0  0  0  0  0  0
    3.6020   -2.5757    0.4150 C   0  0  0  0  0  0  0  0  0  0  0  0
    3.4255   -3.9055   -1.7037 C   0  0  0  0  0  0  0  0  0  0  0  0
   -2.0263   -2.1580    0.6787 C   0  0  0  0  0  0  0  0  0  0  0  0
    0.7509    2.1685    1.8145 C   0  0  0  0  0  0  0  0  0  0  0  0
    1.7434    2.0094    0.7317 C   0  0  0  0  0  0  0  0  0  0  0  0
    1.2975    1.7497   -0.5677 C   0  0  0  0  0  0  0  0  0  0  0  0
   -2.7339    1.9322   -1.2054 C   0  0  0  0  0  0  0  0  0  0  0  0
   -4.4326   -0.0245   -0.1716 C   0  0  0  0  0  0  0  0  0  0  0  0
   -0.4083   -2.6121    2.4953 C   0  0  0  0  0  0  0  0  0  0  0  0
   -4.9049    0.8753   -1.1272 C   0  0  0  0  0  0  0  0  0  0  0  0
   -4.0555    1.8535   -1.6442 C   0  0  0  0  0  0  0  0  0  0  0  0
    3.1077    2.1590    0.9929 C   0  0  0  0  0  0  0  0  0  0  0  0
    2.2172    1.6732   -1.6144 C   0  0  0  0  0  0  0  0  0  0  0  0
    3.5800    1.8237   -1.3559 C   0  0  0  0  0  0  0  0  0  0  0  0
    4.0242    2.0610   -0.0547 C   0  0  0  0  0  0  0  0  0  0  0  0
    0.8031   -2.9675   -1.5838 H   0  0  0  0  0  0  0  0  0  0  0  0
    0.9826   -1.9693   -0.1684 H   0  0  0  0  0  0  0  0  0  0  0  0
   -0.4355    0.1469    0.4658 H   0  0  0  0  0  0  0  0  0  0  0  0
    1.5149   -4.0834    1.1996 H   0  0  0  0  0  0  0  0  0  0  0  0
    1.2935   -5.0372   -0.2606 H   0  0  0  0  0  0  0  0  0  0  0  0
   -1.0423   -4.3542   -0.4593 H   0  0  0  0  0  0  0  0  0  0  0  0
   -0.7438   -5.0618    1.1217 H   0  0  0  0  0  0  0  0  0  0  0  0
   -1.2885    1.7458    2.2524 H   0  0  0  0  0  0  0  0  0  0  0  0
   -1.0169    3.1072    1.1401 H   0  0  0  0  0  0  0  0  0  0  0  0
   -1.9134   -0.4222    1.9765 H   0  0  0  0  0  0  0  0  0  0  0  0
   -3.4412   -1.2174    1.9367 H   0  0  0  0  0  0  0  0  0  0  0  0
    4.6399   -2.2758    0.2267 H   0  0  0  0  0  0  0  0  0  0  0  0
    3.1623   -1.7781    1.0251 H   0  0  0  0  0  0  0  0  0  0  0  0
    3.6251   -3.4978    1.0028 H   0  0  0  0  0  0  0  0  0  0  0  0
    3.4071   -4.8422   -1.1387 H   0  0  0  0  0  0  0  0  0  0  0  0
    4.4639   -3.7012   -1.9895 H   0  0  0  0  0  0  0  0  0  0  0  0
    2.8716   -4.0516   -2.6379 H   0  0  0  0  0  0  0  0  0  0  0  0
   -2.4678   -2.4659   -0.2691 H   0  0  0  0  0  0  0  0  0  0  0  0
   -2.0993    2.7137   -1.6144 H   0  0  0  0  0  0  0  0  0  0  0  0
    0.5325   -2.0739    2.3434 H   0  0  0  0  0  0  0  0  0  0  0  0
   -1.0479   -2.0119    3.1482 H   0  0  0  0  0  0  0  0  0  0  0  0
   -0.1929   -3.5302    3.0536 H   0  0  0  0  0  0  0  0  0  0  0  0
    2.5516   -1.6316   -2.5040 H   0  0  0  0  0  0  0  0  0  0  0  0
   -4.4116    2.5626   -2.3866 H   0  0  0  0  0  0  0  0  0  0  0  0
    1.8686    1.4848   -2.6270 H   0  0  0  0  0  0  0  0  0  0  0  0
    5.0877    2.1769    0.1405 H   0  0  0  0  0  0  0  0  0  0  0  0
   -6.1382   -0.8793   -0.0929 H   0  0  0  0  0  0  0  0  0  0  0  0
   -6.3404    1.5095   -2.2237 H   0  0  0  0  0  0  0  0  0  0  0  0
    2.8803    2.3859    2.8950 H   0  0  0  0  0  0  0  0  0  0  0  0
    3.9990    1.5677   -3.2046 H   0  0  0  0  0  0  0  0  0  0  0  0
  1 10  1  0  0  0  0
  1 23  1  0  0  0  0
  2  8  1  0  0  0  0
  2 55  1  0  0  0  0
  3 25  1  0  0  0  0
  3 59  1  0  0  0  0
  4 21  2  0  0  0  0
  5 27  1  0  0  0  0
  5 60  1  0  0  0  0
  6 29  1  0  0  0  0
  6 61  1  0  0  0  0
  7 31  1  0  0  0  0
  7 62  1  0  0  0  0
  8  9  1  0  0  0  0
  8 18  1  0  0  0  0
  8 19  1  0  0  0  0
  9 11  1  0  0  0  0
  9 33  1  0  0  0  0
  9 34  1  0  0  0  0
 10 12  1  0  0  0  0
 10 14  1  0  0  0  0
 10 35  1  0  0  0  0
 11 13  1  0  0  0  0
 11 36  1  0  0  0  0
 11 37  1  0  0  0  0
 12 15  2  0  0  0  0
 12 24  1  0  0  0  0
 13 17  1  0  0  0  0
 13 38  1  0  0  0  0
 13 39  1  0  0  0  0
 14 21  1  0  0  0  0
 14 40  1  0  0  0  0
 14 41  1  0  0  0  0
 15 16  1  0  0  0  0
 15 25  1  0  0  0  0
 16 20  1  0  0  0  0
 16 42  1  0  0  0  0
 16 43  1  0  0  0  0
 17 20  2  0  0  0  0
 17 26  1  0  0  0  0
 18 44  1  0  0  0  0
 18 45  1  0  0  0  0
 18 46  1  0  0  0  0
 19 47  1  0  0  0  0
 19 48  1  0  0  0  0
 19 49  1  0  0  0  0
 20 50  1  0  0  0  0
 21 22  1  0  0  0  0
 22 23  1  0  0  0  0
 22 29  2  0  0  0  0
 23 30  2  0  0  0  0
 24 28  2  0  0  0  0
 24 51  1  0  0  0  0
 25 27  2  0  0  0  0
 26 52  1  0  0  0  0
 26 53  1  0  0  0  0
 26 54  1  0  0  0  0
 27 28  1  0  0  0  0
 28 56  1  0  0  0  0
 29 32  1  0  0  0  0
 30 31  1  0  0  0  0
 30 57  1  0  0  0  0
 31 32  2  0  0  0  0
 32 58  1  0  0  0  0
M  END
> <PUBCHEM_COMPOUND_CID>
10950300

> <PUBCHEM_CONFORMER_RMSD>
1

> <PUBCHEM_CONFORMER_DIVERSEORDER>
1
121
85
187
229
75
115
297
286
186
59
242
228
218
248
279
78
145
240
48
220
77
294
258
158
182
273
151
36
146
257
277
172
244
25
243
96
51
266
99
14
83
282
234
109
202
134
225
60
142
231
259
133
213
215
42
197
211
238
162
148
76
15
108
293
67
274
153
217
101
235
203
11
62
26
289
263
165
32
249
227
80
207
63
27
100
38
23
281
84
114
79
256
68
110
37
245
267
204
280
180
291
195
210
270
168
224
157
104
21
241
219
41
261
112
35
288
70
73
46
10
206
239
56
170
290
232
223
86
190
64
156
141
296
128
166
13
93
98
33
246
120
272
283
118
173
103
135
174
5
253
127
116
82
233
81
88
275
47
164
247
255
251
284
200
177
179
49
30
132
292
222
50
89
17
163
150
199
216
265
226
285
122
139
169
87
287
2
295
171
137
126
212
147
144
278
4
221
53
201
214
184
175
269
117
44
69
254
268
252
138
18
107
205
94
198
167
237
129
264
271
66
90
178
193
152
74
236
130
189
29
188
58
154
57
185
230
276
91
209
39
131
31
183
54
92
143
97
20
106
262
72
7
161
176
43
123
40
149
45
194
65
24
159
71
52
155
181
34
102
191
55
111
192
61
124
160
136
260
208
28
113
95
3
16
12
119
196
8
125
250
105
9
19
140
6
22

> <PUBCHEM_MMFF94_PARTIAL_CHARGES>
38
1 -0.36
10 0.42
12 -0.14
13 0.14
14 0.06
15 -0.14
16 0.28
17 -0.28
2 -0.68
20 -0.29
21 0.42
22 0.09
23 0.08
24 -0.15
25 0.08
26 0.14
27 0.08
28 -0.15
29 0.08
3 -0.53
30 -0.15
31 0.08
32 -0.15
4 -0.57
5 -0.53
50 0.15
51 0.15
55 0.4
56 0.15
57 0.15
58 0.15
59 0.45
6 -0.53
60 0.45
61 0.45
62 0.45
7 -0.53
8 0.28

> <PUBCHEM_EFFECTIVE_ROTOR_COUNT>
7.6

> <PUBCHEM_PHARMACOPHORE_FEATURES>
14
1 1 acceptor
1 2 acceptor
1 2 donor
1 26 hydrophobe
1 3 donor
1 4 acceptor
1 5 donor
1 6 donor
1 7 donor
3 8 18 19 hydrophobe
4 9 11 13 17 hydrophobe
6 1 10 14 21 22 23 rings
6 12 15 24 25 27 28 rings
6 22 23 29 30 31 32 rings

> <PUBCHEM_HEAVY_ATOM_COUNT>
32

> <PUBCHEM_ATOM_DEF_STEREO_COUNT>
1

> <PUBCHEM_ATOM_UDEF_STEREO_COUNT>
0

> <PUBCHEM_BOND_DEF_STEREO_COUNT>
1

> <PUBCHEM_BOND_UDEF_STEREO_COUNT>
0

> <PUBCHEM_ISOTOPIC_ATOM_COUNT>
0

> <PUBCHEM_COMPONENT_COUNT>
1

> <PUBCHEM_CACTVS_TAUTO_COUNT>
399

> <PUBCHEM_CONFORMER_ID>
00A7169C00000001

> <PUBCHEM_MMFF94_ENERGY>
84.3512

> <PUBCHEM_FEATURE_SELFOVERLAP>
71.108

> <PUBCHEM_SHAPE_FINGERPRINT>
107951 10 17458913759140887171
1100329 8 17766857030137902849
11370993 70 18260551146974932093
12156800 1 16337740708631319294
12597179 24 18339068397495555602
12741549 16 12252718427799260973
13122387 1 18048895004410597370
133893 2 18117835496111159009
13402501 40 18267318705531998190
13615921 28 18056491551494398342
13617811 41 18114465677882479253
14068700 675 18054223224842100230
14114206 34 17694830330153195700
14114207 22 16812300741964959530
14251757 17 18261118439224795683
14790565 3 16464449064598809997
20028762 73 17835510902235153191
20642791 239 17612598821863229457
20764821 26 18410299124614839258
23559900 14 18261952947181014637
238918 7 18267861881382272298
27425 322 16298674995960866925
3027735 51 17981880049881321007
3298306 158 18339640143658206087
35225 105 17623544842343442570
4403749 210 17836912762175080800
463206 1 18272360992874157775
469060 322 14866050991912536478
508706 21 18050015685679149902
5265222 85 17975986671904033140
552612 73 18116447951534898145
57527295 17 18060424590682048893
57527585 103 17033084759834611139
6376802 137 17770220462747382042
6669772 16 18340757217665984751

> <PUBCHEM_SHAPE_MULTIPOLES>
617.46
9.23
5.58
2.25
8.25
5.79
0.71
-2.58
-5.13
-5.35
0.67
-1.14
-0.91
2.45

> <PUBCHEM_SHAPE_SELFOVERLAP>
1319.563

> <PUBCHEM_SHAPE_VOLUME>
341.4

> <PUBCHEM_COORDINATE_TYPE>
2
5
10

$$$$
