10958149
  -OEChem-03292013303D

 44 44  0     0  0  0  0  0  0999 V2000
   10.5728   -1.2790   -1.1188 O   0  0  0  0  0  0  0  0  0  0  0  0
   10.0001    0.6300   -0.0153 O   0  0  0  0  0  0  0  0  0  0  0  0
   -3.8331   -0.5286    0.4668 O   0  0  0  0  0  0  0  0  0  0  0  0
   -6.9696    1.3640   -1.2618 O   0  0  0  0  0  0  0  0  0  0  0  0
   -7.5169   -2.3719    0.5356 O   0  0  0  0  0  0  0  0  0  0  0  0
   -8.4901   -0.6152   -0.6038 N   0  0  0  0  0  0  0  0  0  0  0  0
    4.8649    0.5125    0.5947 C   0  0  0  0  0  0  0  0  0  0  0  0
    5.8452   -0.4449   -0.0866 C   0  0  0  0  0  0  0  0  0  0  0  0
    3.4371   -0.0386    0.5590 C   0  0  0  0  0  0  0  0  0  0  0  0
    7.2999    0.0258   -0.0178 C   0  0  0  0  0  0  0  0  0  0  0  0
    2.4505    0.9322    1.2112 C   0  0  0  0  0  0  0  0  0  0  0  0
    8.2850   -0.9615   -0.6328 C   0  0  0  0  0  0  0  0  0  0  0  0
    1.0455    0.4056    1.1458 C   0  0  0  0  0  0  0  0  0  0  0  0
    9.6879   -0.4245   -0.5494 C   0  0  0  0  0  0  0  0  0  0  0  0
    0.0319    1.0648    0.5649 C   0  0  0  0  0  0  0  0  0  0  0  0
   -1.3183    0.5503    0.5100 C   0  0  0  0  0  0  0  0  0  0  0  0
   -2.3280    1.2129   -0.0717 C   0  0  0  0  0  0  0  0  0  0  0  0
   -3.6710    0.7088   -0.1332 C   0  0  0  0  0  0  0  0  0  0  0  0
   -4.6713    1.3817   -0.7200 C   0  0  0  0  0  0  0  0  0  0  0  0
   -6.1729   -0.5399   -0.0878 C   0  0  0  0  0  0  0  0  0  0  0  0
   -6.0269    0.7839   -0.7360 C   0  0  0  0  0  0  0  0  0  0  0  0
   -5.0867   -1.0952    0.4589 C   0  0  0  0  0  0  0  0  0  0  0  0
   -7.4360   -1.2729   -0.0119 C   0  0  0  0  0  0  0  0  0  0  0  0
    5.1697    0.6716    1.6361 H   0  0  0  0  0  0  0  0  0  0  0  0
    4.9007    1.4874    0.0939 H   0  0  0  0  0  0  0  0  0  0  0  0
    5.7695   -1.4323    0.3859 H   0  0  0  0  0  0  0  0  0  0  0  0
    5.5575   -0.5741   -1.1373 H   0  0  0  0  0  0  0  0  0  0  0  0
    3.4039   -1.0066    1.0749 H   0  0  0  0  0  0  0  0  0  0  0  0
    3.1426   -0.2203   -0.4826 H   0  0  0  0  0  0  0  0  0  0  0  0
    7.3837    0.9962   -0.5239 H   0  0  0  0  0  0  0  0  0  0  0  0
    7.5686    0.2011    1.0321 H   0  0  0  0  0  0  0  0  0  0  0  0
    2.5210    1.9128    0.7250 H   0  0  0  0  0  0  0  0  0  0  0  0
    2.7184    1.0779    2.2645 H   0  0  0  0  0  0  0  0  0  0  0  0
    8.2444   -1.9160   -0.0973 H   0  0  0  0  0  0  0  0  0  0  0  0
    8.0381   -1.1273   -1.6868 H   0  0  0  0  0  0  0  0  0  0  0  0
    0.8665   -0.5594    1.6152 H   0  0  0  0  0  0  0  0  0  0  0  0
    0.2162    2.0323    0.1046 H   0  0  0  0  0  0  0  0  0  0  0  0
   -1.4744   -0.4209    0.9733 H   0  0  0  0  0  0  0  0  0  0  0  0
   -2.1435    2.1833   -0.5282 H   0  0  0  0  0  0  0  0  0  0  0  0
   11.4937   -0.9467   -1.0588 H   0  0  0  0  0  0  0  0  0  0  0  0
   -4.5388    2.3505   -1.1882 H   0  0  0  0  0  0  0  0  0  0  0  0
   -5.0539   -2.0528    0.9610 H   0  0  0  0  0  0  0  0  0  0  0  0
   -9.4133   -1.0372   -0.6072 H   0  0  0  0  0  0  0  0  0  0  0  0
   -8.4247    0.2896   -1.0549 H   0  0  0  0  0  0  0  0  0  0  0  0
  1 14  1  0  0  0  0
  1 40  1  0  0  0  0
  2 14  2  0  0  0  0
  3 18  1  0  0  0  0
  3 22  1  0  0  0  0
  4 21  2  0  0  0  0
  5 23  2  0  0  0  0
  6 23  1  0  0  0  0
  6 43  1  0  0  0  0
  6 44  1  0  0  0  0
  7  8  1  0  0  0  0
  7  9  1  0  0  0  0
  7 24  1  0  0  0  0
  7 25  1  0  0  0  0
  8 10  1  0  0  0  0
  8 26  1  0  0  0  0
  8 27  1  0  0  0  0
  9 11  1  0  0  0  0
  9 28  1  0  0  0  0
  9 29  1  0  0  0  0
 10 12  1  0  0  0  0
 10 30  1  0  0  0  0
 10 31  1  0  0  0  0
 11 13  1  0  0  0  0
 11 32  1  0  0  0  0
 11 33  1  0  0  0  0
 12 14  1  0  0  0  0
 12 34  1  0  0  0  0
 12 35  1  0  0  0  0
 13 15  2  0  0  0  0
 13 36  1  0  0  0  0
 15 16  1  0  0  0  0
 15 37  1  0  0  0  0
 16 17  2  0  0  0  0
 16 38  1  0  0  0  0
 17 18  1  0  0  0  0
 17 39  1  0  0  0  0
 18 19  2  0  0  0  0
 19 21  1  0  0  0  0
 19 41  1  0  0  0  0
 20 21  1  0  0  0  0
 20 22  2  0  0  0  0
 20 23  1  0  0  0  0
 22 42  1  0  0  0  0
M  END
> <PUBCHEM_COMPOUND_CID>
10958149

> <PUBCHEM_CONFORMER_RMSD>
1

> <PUBCHEM_CONFORMER_DIVERSEORDER>
1
87
84
111
136
106
42
22
124
11
120
128
85
60
95
6
80
119
131
126
116
109
97
54
7
16
58
44
105
70
135
132
71
21
73
129
90
2
29
115
23
48
112
100
13
57
94
89
5
107
41
12
83
3
9
45
113
37
46
110
125
69
72
96
32
4
68
28
103
77
86
39
47
38
27
35
79
81
31
92
133
91
53
122
66
51
118
76
127
82
65
62
25
130
40
24
19
56
78
99
10
15
74
98
36
50
104
8
30
17
93
88
55
114
14
18
33
137
67
49
123
34
101
26
20
63
117
59
102
121
75
64
52
108
43
61
134

> <PUBCHEM_MMFF94_PARTIAL_CHARGES>
28
1 -0.65
11 0.14
12 0.06
13 -0.29
14 0.66
15 -0.15
16 -0.15
17 -0.15
18 0.08
19 -0.14
2 -0.57
20 0.03
21 0.54
22 -0.07
23 0.62
3 -0.15
36 0.15
37 0.15
38 0.15
39 0.15
4 -0.57
40 0.5
41 0.15
42 0.15
43 0.37
44 0.37
5 -0.57
6 -0.8

> <PUBCHEM_EFFECTIVE_ROTOR_COUNT>
10

> <PUBCHEM_PHARMACOPHORE_FEATURES>
9
1 1 acceptor
1 2 acceptor
1 20 anion
1 3 acceptor
1 4 acceptor
1 5 acceptor
1 6 donor
3 1 2 14 anion
6 3 18 19 20 21 22 rings

> <PUBCHEM_HEAVY_ATOM_COUNT>
23

> <PUBCHEM_ATOM_DEF_STEREO_COUNT>
0

> <PUBCHEM_ATOM_UDEF_STEREO_COUNT>
0

> <PUBCHEM_BOND_DEF_STEREO_COUNT>
2

> <PUBCHEM_BOND_UDEF_STEREO_COUNT>
0

> <PUBCHEM_ISOTOPIC_ATOM_COUNT>
0

> <PUBCHEM_COMPONENT_COUNT>
1

> <PUBCHEM_CACTVS_TAUTO_COUNT>
2

> <PUBCHEM_CONFORMER_ID>
00A7354500000001

> <PUBCHEM_MMFF94_ENERGY>
33.123

> <PUBCHEM_FEATURE_SELFOVERLAP>
45.729

> <PUBCHEM_SHAPE_FINGERPRINT>
11135609 127 17531537581584921924
11315181 36 18409167697507028017
11463208 3 18131353033196279375
12082328 90 18342738469121423476
12089408 11 17240197717044165048
13288520 33 18261104202537064817
13668630 136 18342738511806878024
13673619 4 17275100618441081432
14251764 46 18410856559639789572
14344974 52 15936698158862813064
14428016 86 12901543534074882704
14729087 3 8358262548963370411
150020 25 18408039628736386568
15461852 350 18113621187952486420
15510794 2 18343299284407052656
155225 1 13045941304527528071
15690457 1 16415474936044511196
16728433 110 17346593085657410488
1754911 235 17022903450017576430
1818759 1 17203895158946683158
18335252 114 15068624894861509918
21150785 3 17458344143323979136
21267235 1 18060419118872407272
21360443 120 17168140126774178163
21792961 116 18059856138416319273
2297311 6 18335697252850403833
232437 2 17989488528183737910
246663 6 17775568641532660568
4325135 7 17676204675802301182
437795 83 14273721946400739519
5219985 9 15985384487181994704
54039377 194 17989488524332012148
5470011 282 18411702085221097556
636775 72 8502388736973717719
636775 8 17458632263691770427
67123 10 18408604769402586516
9953998 17 10879990259280065369
9995097 26 18342459257718565032

> <PUBCHEM_SHAPE_MULTIPOLES>
439
37.26
1.48
1
67.15
0.38
0
15.19
12
-2.35
0.02
0.04
-0.12
2.3

> <PUBCHEM_SHAPE_SELFOVERLAP>
887.367

> <PUBCHEM_SHAPE_VOLUME>
253.4

> <PUBCHEM_COORDINATE_TYPE>
2
5
10

$$$$
