10959436
  -OEChem-03292013303D

 43 46  0     1  0  0  0  0  0999 V2000
   -0.6453    1.8640    0.8906 O   0  0  0  0  0  0  0  0  0  0  0  0
   -2.2597   -1.6627   -1.7726 O   0  0  0  0  0  0  0  0  0  0  0  0
    0.1025   -4.1041    2.4601 O   0  0  0  0  0  0  0  0  0  0  0  0
    2.3731   -4.1877   -1.7379 O   0  0  0  0  0  0  0  0  0  0  0  0
    5.3160    3.4537   -0.4630 O   0  0  0  0  0  0  0  0  0  0  0  0
   -5.7444    2.5858    0.5975 O   0  0  0  0  0  0  0  0  0  0  0  0
   -0.0149   -0.1188   -0.3968 C   0  0  2  0  0  0  0  0  0  0  0  0
    0.4116    0.8788    0.7143 C   0  0  1  0  0  0  0  0  0  0  0  0
   -1.4864    0.1267   -0.3816 C   0  0  0  0  0  0  0  0  0  0  0  0
   -1.7579    1.2747    0.3483 C   0  0  0  0  0  0  0  0  0  0  0  0
    0.4266   -1.5391   -0.1297 C   0  0  0  0  0  0  0  0  0  0  0  0
    1.7220    1.5668    0.3995 C   0  0  0  0  0  0  0  0  0  0  0  0
   -2.5063   -0.5587   -1.0215 C   0  0  0  0  0  0  0  0  0  0  0  0
   -3.0397    1.7748    0.4780 C   0  0  0  0  0  0  0  0  0  0  0  0
    1.2052   -2.2166   -1.0685 C   0  0  0  0  0  0  0  0  0  0  0  0
    0.0563   -2.1742    1.0562 C   0  0  0  0  0  0  0  0  0  0  0  0
   -3.8120   -0.0781   -0.8931 C   0  0  0  0  0  0  0  0  0  0  0  0
   -4.0768    1.0817   -0.1476 C   0  0  0  0  0  0  0  0  0  0  0  0
    2.9208    1.0285    0.8656 C   0  0  0  0  0  0  0  0  0  0  0  0
    1.7295    2.7386   -0.3564 C   0  0  0  0  0  0  0  0  0  0  0  0
    0.4638   -3.4853    1.3029 C   0  0  0  0  0  0  0  0  0  0  0  0
    1.6129   -3.5278   -0.8219 C   0  0  0  0  0  0  0  0  0  0  0  0
    4.1287    1.6629    0.5756 C   0  0  0  0  0  0  0  0  0  0  0  0
    2.9375    3.3730   -0.6465 C   0  0  0  0  0  0  0  0  0  0  0  0
    1.2422   -4.1620    0.3638 C   0  0  0  0  0  0  0  0  0  0  0  0
    4.1372    2.8351   -0.1805 C   0  0  0  0  0  0  0  0  0  0  0  0
   -5.4424    1.5701   -0.0348 C   0  0  0  0  0  0  0  0  0  0  0  0
    0.3593    0.2159   -1.3744 H   0  0  0  0  0  0  0  0  0  0  0  0
    0.5105    0.3983    1.6972 H   0  0  0  0  0  0  0  0  0  0  0  0
   -3.2165    2.6786    1.0518 H   0  0  0  0  0  0  0  0  0  0  0  0
    1.4992   -1.7298   -1.9951 H   0  0  0  0  0  0  0  0  0  0  0  0
   -0.5585   -1.6602    1.7909 H   0  0  0  0  0  0  0  0  0  0  0  0
   -4.6241   -0.6077   -1.3871 H   0  0  0  0  0  0  0  0  0  0  0  0
    2.9279    0.1152    1.4543 H   0  0  0  0  0  0  0  0  0  0  0  0
    0.8085    3.1698   -0.7389 H   0  0  0  0  0  0  0  0  0  0  0  0
    5.0600    1.2387    0.9411 H   0  0  0  0  0  0  0  0  0  0  0  0
    2.9307    4.2843   -1.2385 H   0  0  0  0  0  0  0  0  0  0  0  0
    1.5566   -5.1836    0.5625 H   0  0  0  0  0  0  0  0  0  0  0  0
   -1.3112   -1.7177   -1.9691 H   0  0  0  0  0  0  0  0  0  0  0  0
   -6.2222    0.9840   -0.5502 H   0  0  0  0  0  0  0  0  0  0  0  0
   -0.4326   -3.4908    2.9926 H   0  0  0  0  0  0  0  0  0  0  0  0
    2.5631   -5.0815   -1.4047 H   0  0  0  0  0  0  0  0  0  0  0  0
    5.1354    4.2482   -0.9944 H   0  0  0  0  0  0  0  0  0  0  0  0
  1  8  1  0  0  0  0
  1 10  1  0  0  0  0
  2 13  1  0  0  0  0
  2 39  1  0  0  0  0
  3 21  1  0  0  0  0
  3 41  1  0  0  0  0
  4 22  1  0  0  0  0
  4 42  1  0  0  0  0
  5 26  1  0  0  0  0
  5 43  1  0  0  0  0
  6 27  2  0  0  0  0
  7  8  1  0  0  0  0
  7  9  1  0  0  0  0
  7 11  1  0  0  0  0
  7 28  1  0  0  0  0
  8 12  1  0  0  0  0
  8 29  1  0  0  0  0
  9 10  1  0  0  0  0
  9 13  2  0  0  0  0
 10 14  2  0  0  0  0
 11 15  2  0  0  0  0
 11 16  1  0  0  0  0
 12 19  2  0  0  0  0
 12 20  1  0  0  0  0
 13 17  1  0  0  0  0
 14 18  1  0  0  0  0
 14 30  1  0  0  0  0
 15 22  1  0  0  0  0
 15 31  1  0  0  0  0
 16 21  2  0  0  0  0
 16 32  1  0  0  0  0
 17 18  2  0  0  0  0
 17 33  1  0  0  0  0
 18 27  1  0  0  0  0
 19 23  1  0  0  0  0
 19 34  1  0  0  0  0
 20 24  2  0  0  0  0
 20 35  1  0  0  0  0
 21 25  1  0  0  0  0
 22 25  2  0  0  0  0
 23 26  2  0  0  0  0
 23 36  1  0  0  0  0
 24 26  1  0  0  0  0
 24 37  1  0  0  0  0
 25 38  1  0  0  0  0
 27 40  1  0  0  0  0
M  END
> <PUBCHEM_COMPOUND_CID>
10959436

> <PUBCHEM_CONFORMER_RMSD>
0.8

> <PUBCHEM_CONFORMER_DIVERSEORDER>
1
2
3

> <PUBCHEM_MMFF94_PARTIAL_CHARGES>
41
1 -0.36
10 0.08
11 -0.14
12 -0.14
13 0.08
14 -0.15
15 -0.15
16 -0.15
17 -0.15
18 0.09
19 -0.15
2 -0.53
20 -0.15
21 0.08
22 0.08
23 -0.15
24 -0.15
25 -0.15
26 0.08
27 0.42
3 -0.53
30 0.15
31 0.15
32 0.15
33 0.15
34 0.15
35 0.15
36 0.15
37 0.15
38 0.15
39 0.45
4 -0.53
40 0.06
41 0.45
42 0.45
43 0.45
5 -0.53
6 -0.57
7 0.29
8 0.42
9 -0.14

> <PUBCHEM_EFFECTIVE_ROTOR_COUNT>
3.6

> <PUBCHEM_PHARMACOPHORE_FEATURES>
10
1 1 acceptor
1 2 donor
1 3 donor
1 4 donor
1 5 donor
1 6 acceptor
5 1 7 8 9 10 rings
6 11 15 16 21 22 25 rings
6 12 19 20 23 24 26 rings
6 9 10 13 14 17 18 rings

> <PUBCHEM_HEAVY_ATOM_COUNT>
27

> <PUBCHEM_ATOM_DEF_STEREO_COUNT>
2

> <PUBCHEM_ATOM_UDEF_STEREO_COUNT>
0

> <PUBCHEM_BOND_DEF_STEREO_COUNT>
0

> <PUBCHEM_BOND_UDEF_STEREO_COUNT>
0

> <PUBCHEM_ISOTOPIC_ATOM_COUNT>
0

> <PUBCHEM_COMPONENT_COUNT>
1

> <PUBCHEM_CACTVS_TAUTO_COUNT>
100

> <PUBCHEM_CONFORMER_ID>
00A73A4C00000001

> <PUBCHEM_MMFF94_ENERGY>
80.1518

> <PUBCHEM_FEATURE_SELFOVERLAP>
50.847

> <PUBCHEM_SHAPE_FINGERPRINT>
10411042 1 17691125929191853719
10675989 125 18341618070804417000
107951 10 18339933734774543668
12293681 160 17917719044900501288
12553582 1 17763452921148891647
12788726 201 17688010329924398106
13140716 1 18339912796698458961
133893 2 18049405250693475951
13540713 5 18058719218699470725
13690498 29 17328608609705460604
14790565 3 18339361975944236465
14844126 61 17691953183480416728
14955137 171 17263881012479805953
15439362 3 18411141320942202292
15664445 248 17911244910045808479
15927050 60 18342178895149570375
16752209 62 17983002638125135424
1813 80 17765990606627860399
20567600 347 18339355365857127599
20600515 1 16765074312459964520
20645476 183 18119801662955605924
21033650 10 17843149088431659636
21421861 104 18266454296282438841
22907989 373 17542509782729562476
23366157 5 18264205812120046141
23419403 2 17975171752924341315
23559900 14 17773023160434997975
23598288 3 17758680332046063524
244849 19 17824853073749136569
25147074 1 18059276688200697909
283562 15 18123460855259929583
3091708 16 9404922834218852546
3411729 13 18341051822605541505
352729 6 18194405717327935432
3759504 43 18263925625491456752
394222 165 18340485573969284507
4017518 198 18131630102696496054
4058900 60 18334867112090188608
4409770 3 17834398195654875710
469060 322 12398243335794742704
474 4 18409162208148290449
6138700 20 18340769218416519966
633830 44 18412821404130422836
79837 15 18191305085931919865
90316 7 17114096669304895699
9841814 1 18048311142203182043
9981440 41 18269835492280366666

> <PUBCHEM_SHAPE_MULTIPOLES>
520.43
8.38
6.09
1.36
5.59
6.18
0.15
-11.94
-0.73
-5.84
0.37
-0.05
1.51
-0.45

> <PUBCHEM_SHAPE_SELFOVERLAP>
1165.296

> <PUBCHEM_SHAPE_VOLUME>
275.3

> <PUBCHEM_COORDINATE_TYPE>
2
5
10

$$$$
