10961011
  -OEChem-03292013303D

 59 62  0     1  0  0  0  0  0999 V2000
    3.4488   -1.3164   -1.0316 O   0  0  0  0  0  0  0  0  0  0  0  0
   -1.4172    2.1331   -0.9772 O   0  0  0  0  0  0  0  0  0  0  0  0
   -2.6011    2.9710    1.2835 O   0  0  0  0  0  0  0  0  0  0  0  0
    2.5093   -3.1075   -2.0171 O   0  0  0  0  0  0  0  0  0  0  0  0
   -3.7614   -2.3077    1.7815 O   0  0  0  0  0  0  0  0  0  0  0  0
   -5.0751   -1.4051    0.1026 O   0  0  0  0  0  0  0  0  0  0  0  0
    6.0442    1.2859    1.6504 O   0  0  0  0  0  0  0  0  0  0  0  0
   -1.3525    4.2897   -0.1515 O   0  0  0  0  0  0  0  0  0  0  0  0
    0.7989   -0.2040   -0.7281 C   0  0  2  0  0  0  0  0  0  0  0  0
   -0.5504    0.0760    0.0436 C   0  0  2  0  0  0  0  0  0  0  0  0
   -1.8014   -0.8127   -0.3688 C   0  0  1  0  0  0  0  0  0  0  0  0
    1.0883   -1.7201   -0.6418 C   0  0  1  0  0  0  0  0  0  0  0  0
   -1.3521   -2.2967   -0.2996 C   0  0  0  0  0  0  0  0  0  0  0  0
   -0.9335    1.5645    0.2317 C   0  0  2  0  0  0  0  0  0  0  0  0
   -0.0852   -2.5832   -1.1117 C   0  0  0  0  0  0  0  0  0  0  0  0
    1.9848    0.4482    0.0300 C   0  0  0  0  0  0  0  0  0  0  0  0
    0.8063    0.3302   -2.1749 C   0  0  0  0  0  0  0  0  0  0  0  0
   -2.9399   -0.5121    0.6141 C   0  0  0  0  0  0  0  0  0  0  0  0
   -2.4123   -0.5610   -1.7676 C   0  0  0  0  0  0  0  0  0  0  0  0
   -1.9836    1.6890    1.3517 C   0  0  2  0  0  0  0  0  0  0  0  0
    3.3595    0.0447   -0.5291 C   0  0  1  0  0  0  0  0  0  0  0  0
    2.3851   -2.1030   -1.3228 C   0  0  0  0  0  0  0  0  0  0  0  0
   -3.0212    0.6043    1.3582 C   0  0  0  0  0  0  0  0  0  0  0  0
   -4.0642   -1.4458    0.7805 C   0  0  0  0  0  0  0  0  0  0  0  0
    4.4326    0.2776    0.4661 C   0  0  0  0  0  0  0  0  0  0  0  0
   -1.8099    3.4415   -0.9053 C   0  0  0  0  0  0  0  0  0  0  0  0
    4.9244   -0.6479    1.4096 C   0  0  0  0  0  0  0  0  0  0  0  0
    5.1399    1.4375    0.6475 C   0  0  0  0  0  0  0  0  0  0  0  0
   -2.9016    3.7023   -1.8984 C   0  0  0  0  0  0  0  0  0  0  0  0
    5.9066    0.0141    2.1089 C   0  0  0  0  0  0  0  0  0  0  0  0
   -4.7662   -3.2869    2.0653 C   0  0  0  0  0  0  0  0  0  0  0  0
   -0.3145   -0.2595    1.0705 H   0  0  0  0  0  0  0  0  0  0  0  0
    1.2509   -1.9903    0.4139 H   0  0  0  0  0  0  0  0  0  0  0  0
   -2.1512   -2.9603   -0.6546 H   0  0  0  0  0  0  0  0  0  0  0  0
   -1.1645   -2.5783    0.7457 H   0  0  0  0  0  0  0  0  0  0  0  0
   -0.0557    2.1446    0.5361 H   0  0  0  0  0  0  0  0  0  0  0  0
    0.1654   -3.6449   -0.9888 H   0  0  0  0  0  0  0  0  0  0  0  0
   -0.2665   -2.4445   -2.1830 H   0  0  0  0  0  0  0  0  0  0  0  0
    1.9270    0.1623    1.0903 H   0  0  0  0  0  0  0  0  0  0  0  0
    1.9168    1.5428    0.0159 H   0  0  0  0  0  0  0  0  0  0  0  0
    0.0721   -0.1480   -2.8163 H   0  0  0  0  0  0  0  0  0  0  0  0
    0.6341    1.4100   -2.2032 H   0  0  0  0  0  0  0  0  0  0  0  0
    1.7662    0.1630   -2.6741 H   0  0  0  0  0  0  0  0  0  0  0  0
   -3.2788   -1.2143   -1.9353 H   0  0  0  0  0  0  0  0  0  0  0  0
   -2.7790    0.4596   -1.8993 H   0  0  0  0  0  0  0  0  0  0  0  0
   -1.7353   -0.7866   -2.5876 H   0  0  0  0  0  0  0  0  0  0  0  0
   -1.4731    1.6247    2.3219 H   0  0  0  0  0  0  0  0  0  0  0  0
    3.5742    0.6753   -1.4018 H   0  0  0  0  0  0  0  0  0  0  0  0
   -3.8596    0.7462    2.0374 H   0  0  0  0  0  0  0  0  0  0  0  0
   -1.9899    3.6076    1.6933 H   0  0  0  0  0  0  0  0  0  0  0  0
    4.6090   -1.6690    1.5703 H   0  0  0  0  0  0  0  0  0  0  0  0
    5.1257    2.4092    0.1754 H   0  0  0  0  0  0  0  0  0  0  0  0
   -3.7684    3.0779   -1.6676 H   0  0  0  0  0  0  0  0  0  0  0  0
   -2.5389    3.4990   -2.9090 H   0  0  0  0  0  0  0  0  0  0  0  0
   -3.2021    4.7523   -1.8400 H   0  0  0  0  0  0  0  0  0  0  0  0
    6.5644   -0.2644    2.9192 H   0  0  0  0  0  0  0  0  0  0  0  0
   -5.6941   -2.7983    2.3776 H   0  0  0  0  0  0  0  0  0  0  0  0
   -4.4068   -3.9147    2.8850 H   0  0  0  0  0  0  0  0  0  0  0  0
   -4.9374   -3.9184    1.1883 H   0  0  0  0  0  0  0  0  0  0  0  0
  1 21  1  0  0  0  0
  1 22  1  0  0  0  0
  2 14  1  0  0  0  0
  2 26  1  0  0  0  0
  3 20  1  0  0  0  0
  3 50  1  0  0  0  0
  4 22  2  0  0  0  0
  5 24  1  0  0  0  0
  5 31  1  0  0  0  0
  6 24  2  0  0  0  0
  7 28  1  0  0  0  0
  7 30  1  0  0  0  0
  8 26  2  0  0  0  0
  9 10  1  0  0  0  0
  9 12  1  0  0  0  0
  9 16  1  0  0  0  0
  9 17  1  0  0  0  0
 10 11  1  0  0  0  0
 10 14  1  0  0  0  0
 10 32  1  0  0  0  0
 11 13  1  0  0  0  0
 11 18  1  0  0  0  0
 11 19  1  0  0  0  0
 12 15  1  0  0  0  0
 12 22  1  0  0  0  0
 12 33  1  0  0  0  0
 13 15  1  0  0  0  0
 13 34  1  0  0  0  0
 13 35  1  0  0  0  0
 14 20  1  0  0  0  0
 14 36  1  0  0  0  0
 15 37  1  0  0  0  0
 15 38  1  0  0  0  0
 16 21  1  0  0  0  0
 16 39  1  0  0  0  0
 16 40  1  0  0  0  0
 17 41  1  0  0  0  0
 17 42  1  0  0  0  0
 17 43  1  0  0  0  0
 18 23  2  0  0  0  0
 18 24  1  0  0  0  0
 19 44  1  0  0  0  0
 19 45  1  0  0  0  0
 19 46  1  0  0  0  0
 20 23  1  0  0  0  0
 20 47  1  0  0  0  0
 21 25  1  0  0  0  0
 21 48  1  0  0  0  0
 23 49  1  0  0  0  0
 25 27  1  0  0  0  0
 25 28  2  0  0  0  0
 26 29  1  0  0  0  0
 27 30  2  0  0  0  0
 27 51  1  0  0  0  0
 28 52  1  0  0  0  0
 29 53  1  0  0  0  0
 29 54  1  0  0  0  0
 29 55  1  0  0  0  0
 30 56  1  0  0  0  0
 31 57  1  0  0  0  0
 31 58  1  0  0  0  0
 31 59  1  0  0  0  0
M  END
> <PUBCHEM_COMPOUND_CID>
10961011

> <PUBCHEM_CONFORMER_RMSD>
0.8

> <PUBCHEM_CONFORMER_DIVERSEORDER>
1
2

> <PUBCHEM_MMFF94_PARTIAL_CHARGES>
29
1 -0.43
11 0.14
12 0.06
14 0.28
18 -0.12
2 -0.43
20 0.42
21 0.46
22 0.66
23 -0.29
24 0.71
25 -0.18
26 0.66
27 -0.15
28 -0.01
29 0.06
3 -0.68
30 -0.01
31 0.28
4 -0.57
49 0.15
5 -0.43
50 0.4
51 0.15
52 0.15
56 0.15
6 -0.57
7 -0.28
8 -0.57

> <PUBCHEM_EFFECTIVE_ROTOR_COUNT>
6.4

> <PUBCHEM_PHARMACOPHORE_FEATURES>
10
1 3 acceptor
1 3 donor
1 4 acceptor
1 6 acceptor
1 7 acceptor
1 8 acceptor
5 7 25 27 28 30 rings
6 1 9 12 16 21 22 rings
6 10 11 14 18 20 23 rings
6 9 10 11 12 13 15 rings

> <PUBCHEM_HEAVY_ATOM_COUNT>
31

> <PUBCHEM_ATOM_DEF_STEREO_COUNT>
7

> <PUBCHEM_ATOM_UDEF_STEREO_COUNT>
0

> <PUBCHEM_BOND_DEF_STEREO_COUNT>
0

> <PUBCHEM_BOND_UDEF_STEREO_COUNT>
0

> <PUBCHEM_ISOTOPIC_ATOM_COUNT>
0

> <PUBCHEM_COMPONENT_COUNT>
1

> <PUBCHEM_CACTVS_TAUTO_COUNT>
1

> <PUBCHEM_CONFORMER_ID>
00A7407300000001

> <PUBCHEM_MMFF94_ENERGY>
110.0816

> <PUBCHEM_FEATURE_SELFOVERLAP>
50.829

> <PUBCHEM_SHAPE_FINGERPRINT>
10074138 170 18261118413945979913
10169797 241 16962136981283357907
10319926 262 18265046947749243258
10369192 42 17203050815669006464
10670039 82 18338817679703279732
10675989 125 17258198680237536388
10930396 42 18050536793992011480
1100329 8 17332550353931048301
11578080 2 17988366940582400961
11595378 159 18408878547323227522
12403259 415 18060138722412152148
12422481 6 18271815639301242114
12596602 18 17968652830625180218
12633257 1 17773874380013688554
12788726 201 18113912592798633316
12892183 10 17916605188276680067
12930653 34 18341612560239199438
13140716 1 17982446298216176818
13540713 4 18198909115239815766
13583140 156 18195804073012418470
14068700 675 17386281107594161840
14178342 30 18115031792493567438
14223421 5 18269847427509289607
14840074 17 18196658616832953652
15131766 46 16558456587054700128
17349148 13 16805330993728153410
17980427 26 17037228733318095973
18393751 57 17986103231236035762
19315092 285 16951413306610838418
20600515 1 18127990782862413403
21049683 118 17682957691806066377
21304303 282 17606375689403760565
21344244 78 17912956017138380587
21703447 108 18268432326275801167
21756936 100 14261350284545798266
22182313 1 18272092635028093790
22907989 373 16127789886756902077
23559900 14 17769940082728758454
3117164 225 17901936458017213298
3187 122 18336558182753928145
3380486 145 18130783499526432541
3380486 77 16950855798338945239
350125 39 18199765660578167430
376196 1 17621024374935007549
3886686 26 17683228171661387058
392239 28 17774445021816128979
460360 51 18264481794255734510
469060 322 18058430149170664741
508706 21 18337393712764572764
5104073 3 18200888270271393666
59755656 520 16056887970145600502
6004065 56 18127967706298966415
613672 6 18337965596577686339
6913067 236 18342452664263452447
7399639 24 18272939314515765214
9862522 239 18130775772843557918
9981440 41 18124853712446854626

> <PUBCHEM_SHAPE_MULTIPOLES>
591.01
10.64
4.24
2.07
12.43
2.89
0
-2.15
7.6
-5.26
-0.81
0.2
-0.47
2.98

> <PUBCHEM_SHAPE_SELFOVERLAP>
1276.767

> <PUBCHEM_SHAPE_VOLUME>
320.7

> <PUBCHEM_COORDINATE_TYPE>
2
5
10

$$$$
