10960040
  -OEChem-03292013303D

 40 42  0     0  0  0  0  0  0999 V2000
    1.1876   -1.1844    2.3764 S   0  0  0  0  0  0  0  0  0  0  0  0
   -0.1689    3.4220    0.4348 O   0  0  0  0  0  0  0  0  0  0  0  0
   -5.1409    0.4984   -0.6021 O   0  0  0  0  0  0  0  0  0  0  0  0
    3.8098   -1.7855   -1.6236 O   0  0  0  0  0  0  0  0  0  0  0  0
   -5.6235   -1.7478   -0.4596 O   0  0  0  0  0  0  0  0  0  0  0  0
    2.3403    4.5849   -0.0425 O   0  0  0  0  0  0  0  0  0  0  0  0
    5.1992   -1.7542    0.2115 O   0  0  0  0  0  0  0  0  0  0  0  0
   -2.6727    0.1692   -0.0788 N   0  0  0  0  0  0  0  0  0  0  0  0
    0.6879    1.4045   -0.1224 N   0  0  0  0  0  0  0  0  0  0  0  0
    1.6215   -1.4485   -0.1582 N   0  0  0  0  0  0  0  0  0  0  0  0
   -0.7327   -1.1734    0.4493 C   0  0  0  0  0  0  0  0  0  0  0  0
   -1.3556    0.0382    0.1962 C   0  0  0  0  0  0  0  0  0  0  0  0
   -0.6315    1.2815    0.2078 C   0  0  0  0  0  0  0  0  0  0  0  0
    0.6777   -1.2804    0.7409 C   0  0  0  0  0  0  0  0  0  0  0  0
   -1.5117   -2.3246    0.4175 C   0  0  0  0  0  0  0  0  0  0  0  0
   -3.3978   -0.9716   -0.1009 C   0  0  0  0  0  0  0  0  0  0  0  0
   -2.8706   -2.2304    0.1379 C   0  0  0  0  0  0  0  0  0  0  0  0
   -1.1607    2.4951    0.5467 C   0  0  0  0  0  0  0  0  0  0  0  0
    0.9057    2.6910    0.0300 C   0  0  0  0  0  0  0  0  0  0  0  0
    2.8434   -1.5072    0.4833 C   0  0  0  0  0  0  0  0  0  0  0  0
    2.8098   -1.3831    1.8565 C   0  0  0  0  0  0  0  0  0  0  0  0
   -4.8111   -0.8143   -0.3979 C   0  0  0  0  0  0  0  0  0  0  0  0
    2.1458    3.3488   -0.1918 C   0  0  0  0  0  0  0  0  0  0  0  0
    4.0502   -1.6881   -0.2731 C   0  0  0  0  0  0  0  0  0  0  0  0
    3.3726    2.5463   -0.6488 C   0  0  0  0  0  0  0  0  0  0  0  0
   -6.5113    0.7835   -0.9029 C   0  0  0  0  0  0  0  0  0  0  0  0
    4.9375   -1.9696   -2.4861 C   0  0  0  0  0  0  0  0  0  0  0  0
   -1.0765   -3.3029    0.6068 H   0  0  0  0  0  0  0  0  0  0  0  0
   -3.4804   -3.1272    0.1123 H   0  0  0  0  0  0  0  0  0  0  0  0
   -2.1253    2.8629    0.8646 H   0  0  0  0  0  0  0  0  0  0  0  0
    3.6279   -1.3977    2.5628 H   0  0  0  0  0  0  0  0  0  0  0  0
    3.1423    2.0258   -1.5823 H   0  0  0  0  0  0  0  0  0  0  0  0
    4.2170    3.2200   -0.8192 H   0  0  0  0  0  0  0  0  0  0  0  0
    3.6435    1.8252    0.1270 H   0  0  0  0  0  0  0  0  0  0  0  0
   -7.1523    0.4691   -0.0740 H   0  0  0  0  0  0  0  0  0  0  0  0
   -6.6129    1.8636   -1.0372 H   0  0  0  0  0  0  0  0  0  0  0  0
   -6.8054    0.2833   -1.8303 H   0  0  0  0  0  0  0  0  0  0  0  0
    4.5736   -2.0294   -3.5151 H   0  0  0  0  0  0  0  0  0  0  0  0
    5.4523   -2.9024   -2.2383 H   0  0  0  0  0  0  0  0  0  0  0  0
    5.6186   -1.1179   -2.4009 H   0  0  0  0  0  0  0  0  0  0  0  0
  1 14  1  0  0  0  0
  1 21  1  0  0  0  0
  2 18  1  0  0  0  0
  2 19  1  0  0  0  0
  3 22  1  0  0  0  0
  3 26  1  0  0  0  0
  4 24  1  0  0  0  0
  4 27  1  0  0  0  0
  5 22  2  0  0  0  0
  6 23  2  0  0  0  0
  7 24  2  0  0  0  0
  8 12  1  0  0  0  0
  8 16  2  0  0  0  0
  9 13  1  0  0  0  0
  9 19  2  0  0  0  0
 10 14  2  0  0  0  0
 10 20  1  0  0  0  0
 11 12  2  0  0  0  0
 11 14  1  0  0  0  0
 11 15  1  0  0  0  0
 12 13  1  0  0  0  0
 13 18  2  0  0  0  0
 15 17  2  0  0  0  0
 15 28  1  0  0  0  0
 16 17  1  0  0  0  0
 16 22  1  0  0  0  0
 17 29  1  0  0  0  0
 18 30  1  0  0  0  0
 19 23  1  0  0  0  0
 20 21  2  0  0  0  0
 20 24  1  0  0  0  0
 21 31  1  0  0  0  0
 23 25  1  0  0  0  0
 25 32  1  0  0  0  0
 25 33  1  0  0  0  0
 25 34  1  0  0  0  0
 26 35  1  0  0  0  0
 26 36  1  0  0  0  0
 26 37  1  0  0  0  0
 27 38  1  0  0  0  0
 27 39  1  0  0  0  0
 27 40  1  0  0  0  0
M  END
> <PUBCHEM_COMPOUND_CID>
10960040

> <PUBCHEM_CONFORMER_RMSD>
0.8

> <PUBCHEM_CONFORMER_DIVERSEORDER>
1
99
76
116
74
28
96
49
80
93
102
58
62
95
89
86
46
79
69
27
31
77
92
54
88
109
8
67
101
107
98
42
68
110
105
48
60
63
115
100
64
108
112
45
87
57
103
84
83
13
39
56
70
78
33
29
73
106
22
35
32
90
85
72
38
82
91
113
44
40
111
75
6
21
36
10
66
26
55
81
97
71
20
53
30
114
94
65
5
51
25
24
34
9
17
104
61
4
14
37
52
43
7
3
19
18
47
16
2
59
15
11
50
41
23
12

> <PUBCHEM_MMFF94_PARTIAL_CHARGES>
31
1 -0.08
10 -0.57
11 0.05
12 0.36
13 0.17
14 0.33
15 -0.15
16 0.4
17 -0.15
18 -0.01
19 0.39
2 -0.28
20 0.14
21 -0.11
22 0.63
23 0.59
24 0.81
25 0.06
26 0.28
27 0.28
28 0.15
29 0.15
3 -0.43
30 0.15
31 0.15
4 -0.43
5 -0.57
6 -0.57
7 -0.57
8 -0.62
9 -0.57

> <PUBCHEM_EFFECTIVE_ROTOR_COUNT>
7

> <PUBCHEM_PHARMACOPHORE_FEATURES>
8
1 10 acceptor
1 5 acceptor
1 6 acceptor
1 7 acceptor
1 8 acceptor
5 1 10 14 20 21 rings
5 2 9 13 18 19 rings
6 8 11 12 15 16 17 rings

> <PUBCHEM_HEAVY_ATOM_COUNT>
27

> <PUBCHEM_ATOM_DEF_STEREO_COUNT>
0

> <PUBCHEM_ATOM_UDEF_STEREO_COUNT>
0

> <PUBCHEM_BOND_DEF_STEREO_COUNT>
0

> <PUBCHEM_BOND_UDEF_STEREO_COUNT>
0

> <PUBCHEM_ISOTOPIC_ATOM_COUNT>
0

> <PUBCHEM_COMPONENT_COUNT>
1

> <PUBCHEM_CACTVS_TAUTO_COUNT>
2

> <PUBCHEM_CONFORMER_ID>
00A73CA800000001

> <PUBCHEM_MMFF94_ENERGY>
57.3632

> <PUBCHEM_FEATURE_SELFOVERLAP>
40.6

> <PUBCHEM_SHAPE_FINGERPRINT>
10050765 1 18264484169773874395
10369192 42 17273386540322222666
10498660 4 18120933902349871050
10675989 125 18264490765852643845
107951 10 16955906014876418664
10816530 90 18333726910116135389
1100329 8 18408039594044111595
12166972 35 16517073039849923466
12236239 1 17603865559554319130
12553582 1 18337117760910368827
12617007 42 18341890788294552370
12741549 16 17345176832337952690
12788726 201 18117557331968716547
13009979 54 17917726686131734003
13140716 1 18260540161266500251
13464514 151 18190457366909551841
13540713 4 18043250352558811931
13757389 114 17624438384388475460
14022347 108 18337382747507857643
14790565 3 18336828598575343617
14931854 50 18190202181971070780
14955137 171 18050035240791225833
15238133 3 17968082080721485963
15475509 8 18128266579887103447
15664445 248 18411417289491303538
167882 2 18265050412906765717
1813 80 18272369750159597170
18222031 100 18343008978972761227
20554085 129 17698147788351550976
20612939 158 18408599280297303677
20642791 239 17822590359652833500
20642791 35 18408038519954238128
20691752 17 16733808913429463371
20775438 99 18126553755145873854
20905425 154 18338519750168631204
21133665 82 17831296469992713808
21279426 13 18409165502862954037
21285901 2 17987518100252140246
23352939 185 18272939314805305282
23557571 272 18200589190787796986
23559900 14 18341609334634493907
23566358 2 18336254708638619180
3298306 158 18049447242541359972
3411729 13 18190449652847945745
4280585 95 18411133611386150546
465052 167 13829837041872487903
5104073 3 18187924019874774299
59755656 215 18337110189373805124
6138700 20 18263361568196225936
7364860 26 18266171919251598587

> <PUBCHEM_SHAPE_MULTIPOLES>
509.34
10.7
4.4
1.47
10.79
5.69
0.01
-5
5.83
-3.97
0.07
-2.03
-1.08
0.58

> <PUBCHEM_SHAPE_SELFOVERLAP>
1099.776

> <PUBCHEM_SHAPE_VOLUME>
283.7

> <PUBCHEM_COORDINATE_TYPE>
2
5
10

$$$$
