10972400
  -OEChem-03292013303D

 55 59  0     1  0  0  0  0  0999 V2000
   -4.5302   -0.5854    0.9294 O   0  0  0  0  0  0  0  0  0  0  0  0
   -6.8752    0.0051   -2.4176 O   0  0  0  0  0  0  0  0  0  0  0  0
   -7.9975   -1.2646   -0.1054 O   0  0  0  0  0  0  0  0  0  0  0  0
   -2.3478   -1.2904    0.0815 O   0  0  0  0  0  0  0  0  0  0  0  0
    0.1383   -1.9218   -0.0422 O   0  0  0  0  0  0  0  0  0  0  0  0
    1.5862    3.2113    0.2615 O   0  0  0  0  0  0  0  0  0  0  0  0
    4.0481    2.5908    0.1431 O   0  0  0  0  0  0  0  0  0  0  0  0
    4.8702   -3.3914   -0.2941 O   0  0  0  0  0  0  0  0  0  0  0  0
   -4.3493    0.6776    0.2789 C   0  0  2  0  0  0  0  0  0  0  0  0
   -6.4068    0.2285   -1.0899 C   0  0  2  0  0  0  0  0  0  0  0  0
   -4.9344    0.6278   -1.1337 C   0  0  0  0  0  0  0  0  0  0  0  0
   -6.5985   -1.0511   -0.2733 C   0  0  1  0  0  0  0  0  0  0  0  0
   -5.9093   -0.9319    1.0928 C   0  0  1  0  0  0  0  0  0  0  0  0
   -2.8734    1.0089    0.2550 C   0  0  0  0  0  0  0  0  0  0  0  0
   -5.9533   -2.2404    1.8757 C   0  0  0  0  0  0  0  0  0  0  0  0
   -1.9133    0.0015    0.1554 C   0  0  0  0  0  0  0  0  0  0  0  0
   -0.5528    0.3312    0.1347 C   0  0  0  0  0  0  0  0  0  0  0  0
   -2.4804    2.3435    0.3335 C   0  0  0  0  0  0  0  0  0  0  0  0
   -0.1590    1.6684    0.2134 C   0  0  0  0  0  0  0  0  0  0  0  0
   -1.1256    2.6763    0.3129 C   0  0  0  0  0  0  0  0  0  0  0  0
    1.8894   -0.3791    0.0077 C   0  0  0  0  0  0  0  0  0  0  0  0
    0.4570   -0.7415    0.0287 C   0  0  0  0  0  0  0  0  0  0  0  0
    2.2824    0.9556    0.0861 C   0  0  0  0  0  0  0  0  0  0  0  0
    1.2730    2.0295    0.1920 C   0  0  0  0  0  0  0  0  0  0  0  0
    3.6434    1.2859    0.0647 C   0  0  0  0  0  0  0  0  0  0  0  0
    2.8561   -1.3878   -0.0920 C   0  0  0  0  0  0  0  0  0  0  0  0
    4.6232    0.2840   -0.0353 C   0  0  0  0  0  0  0  0  0  0  0  0
    4.2244   -1.0701   -0.1148 C   0  0  0  0  0  0  0  0  0  0  0  0
    5.9919    0.5990   -0.0581 C   0  0  0  0  0  0  0  0  0  0  0  0
    5.2061   -2.0699   -0.2151 C   0  0  0  0  0  0  0  0  0  0  0  0
    6.9535   -0.4066   -0.1582 C   0  0  0  0  0  0  0  0  0  0  0  0
    6.5612   -1.7392   -0.2366 C   0  0  0  0  0  0  0  0  0  0  0  0
    8.4026   -0.0539   -0.1805 C   0  0  0  0  0  0  0  0  0  0  0  0
   -4.8692    1.4367    0.8791 H   0  0  0  0  0  0  0  0  0  0  0  0
   -7.0030    1.0481   -0.6705 H   0  0  0  0  0  0  0  0  0  0  0  0
   -4.8255    1.5934   -1.6432 H   0  0  0  0  0  0  0  0  0  0  0  0
   -4.3915   -0.0975   -1.7550 H   0  0  0  0  0  0  0  0  0  0  0  0
   -6.2000   -1.9051   -0.8343 H   0  0  0  0  0  0  0  0  0  0  0  0
   -6.4006   -0.1634    1.7039 H   0  0  0  0  0  0  0  0  0  0  0  0
   -5.4321   -2.1292    2.8329 H   0  0  0  0  0  0  0  0  0  0  0  0
   -6.9818   -2.5556    2.0747 H   0  0  0  0  0  0  0  0  0  0  0  0
   -5.4396   -3.0393    1.3298 H   0  0  0  0  0  0  0  0  0  0  0  0
   -3.2195    3.1369    0.4087 H   0  0  0  0  0  0  0  0  0  0  0  0
   -7.8069   -0.2665   -2.3555 H   0  0  0  0  0  0  0  0  0  0  0  0
   -8.3541   -0.5246    0.4148 H   0  0  0  0  0  0  0  0  0  0  0  0
   -0.8471    3.7248    0.3749 H   0  0  0  0  0  0  0  0  0  0  0  0
    2.5227   -2.4208   -0.1340 H   0  0  0  0  0  0  0  0  0  0  0  0
   -3.2782   -1.3362   -0.1856 H   0  0  0  0  0  0  0  0  0  0  0  0
    6.3435    1.6249    0.0199 H   0  0  0  0  0  0  0  0  0  0  0  0
    7.3059   -2.5279   -0.3128 H   0  0  0  0  0  0  0  0  0  0  0  0
    4.7795    2.7380   -0.4789 H   0  0  0  0  0  0  0  0  0  0  0  0
    8.9991   -0.8410   -0.6543 H   0  0  0  0  0  0  0  0  0  0  0  0
    8.5723    0.8645   -0.7527 H   0  0  0  0  0  0  0  0  0  0  0  0
    8.7693    0.0924    0.8403 H   0  0  0  0  0  0  0  0  0  0  0  0
    4.0142   -3.4928   -0.7388 H   0  0  0  0  0  0  0  0  0  0  0  0
  1  9  1  0  0  0  0
  1 13  1  0  0  0  0
  2 10  1  0  0  0  0
  2 44  1  0  0  0  0
  3 12  1  0  0  0  0
  3 45  1  0  0  0  0
  4 16  1  0  0  0  0
  4 48  1  0  0  0  0
  5 22  2  0  0  0  0
  6 24  2  0  0  0  0
  7 25  1  0  0  0  0
  7 51  1  0  0  0  0
  8 30  1  0  0  0  0
  8 55  1  0  0  0  0
  9 11  1  0  0  0  0
  9 14  1  0  0  0  0
  9 34  1  0  0  0  0
 10 11  1  0  0  0  0
 10 12  1  0  0  0  0
 10 35  1  0  0  0  0
 11 36  1  0  0  0  0
 11 37  1  0  0  0  0
 12 13  1  0  0  0  0
 12 38  1  0  0  0  0
 13 15  1  0  0  0  0
 13 39  1  0  0  0  0
 14 16  2  0  0  0  0
 14 18  1  0  0  0  0
 15 40  1  0  0  0  0
 15 41  1  0  0  0  0
 15 42  1  0  0  0  0
 16 17  1  0  0  0  0
 17 19  2  0  0  0  0
 17 22  1  0  0  0  0
 18 20  2  0  0  0  0
 18 43  1  0  0  0  0
 19 20  1  0  0  0  0
 19 24  1  0  0  0  0
 20 46  1  0  0  0  0
 21 22  1  0  0  0  0
 21 23  2  0  0  0  0
 21 26  1  0  0  0  0
 23 24  1  0  0  0  0
 23 25  1  0  0  0  0
 25 27  2  0  0  0  0
 26 28  2  0  0  0  0
 26 47  1  0  0  0  0
 27 28  1  0  0  0  0
 27 29  1  0  0  0  0
 28 30  1  0  0  0  0
 29 31  2  0  0  0  0
 29 49  1  0  0  0  0
 30 32  2  0  0  0  0
 31 32  1  0  0  0  0
 31 33  1  0  0  0  0
 32 50  1  0  0  0  0
 33 52  1  0  0  0  0
 33 53  1  0  0  0  0
 33 54  1  0  0  0  0
M  END
> <PUBCHEM_COMPOUND_CID>
10972400

> <PUBCHEM_CONFORMER_RMSD>
0.8

> <PUBCHEM_CONFORMER_DIVERSEORDER>
2
4
5
1
3
6

> <PUBCHEM_MMFF94_PARTIAL_CHARGES>
39
1 -0.56
10 0.28
12 0.28
13 0.28
14 -0.14
16 0.08
17 0.09
18 -0.15
19 0.09
2 -0.68
20 -0.15
21 0.09
22 0.4
23 0.09
24 0.4
25 0.08
26 -0.15
29 -0.15
3 -0.68
30 0.08
31 -0.14
32 -0.15
33 0.14
4 -0.53
43 0.15
44 0.4
45 0.4
46 0.15
47 0.15
48 0.45
49 0.15
5 -0.57
50 0.15
51 0.45
55 0.45
6 -0.57
7 -0.53
8 -0.53
9 0.42

> <PUBCHEM_EFFECTIVE_ROTOR_COUNT>
2.2

> <PUBCHEM_PHARMACOPHORE_FEATURES>
15
1 1 acceptor
1 2 acceptor
1 2 donor
1 3 acceptor
1 3 donor
1 4 donor
1 5 acceptor
1 6 acceptor
1 7 donor
1 8 donor
6 1 9 10 11 12 13 rings
6 14 16 17 18 19 20 rings
6 17 19 21 22 23 24 rings
6 21 23 25 26 27 28 rings
6 27 28 29 30 31 32 rings

> <PUBCHEM_HEAVY_ATOM_COUNT>
33

> <PUBCHEM_ATOM_DEF_STEREO_COUNT>
4

> <PUBCHEM_ATOM_UDEF_STEREO_COUNT>
0

> <PUBCHEM_BOND_DEF_STEREO_COUNT>
0

> <PUBCHEM_BOND_UDEF_STEREO_COUNT>
0

> <PUBCHEM_ISOTOPIC_ATOM_COUNT>
0

> <PUBCHEM_COMPONENT_COUNT>
1

> <PUBCHEM_CACTVS_TAUTO_COUNT>
346

> <PUBCHEM_CONFORMER_ID>
00A76CF000000002

> <PUBCHEM_MMFF94_ENERGY>
114.4975

> <PUBCHEM_FEATURE_SELFOVERLAP>
76.199

> <PUBCHEM_SHAPE_FINGERPRINT>
10391435 84 18335415811299534459
11135926 11 18335420132938804795
11410812 94 16588577618246624116
117089 54 18124886651253869550
11963148 33 18410288129710181518
12166972 35 18114185245612435812
12236239 1 17775284945546460312
12516196 113 18273213084700636592
12760667 363 18343865502841310985
12838862 33 18339065065634921744
13533116 47 18201717383843484016
13685833 64 18411141329236257042
13782708 43 18040998440416386011
13811026 1 18335700563378203866
13862211 1 18341895181813935425
14118638 360 18271247123698082258
14251764 18 18131071532912961514
14849402 71 15913033387541752856
14856354 85 15769771373450287693
15131766 46 16445617102516941572
15183329 4 18343861113115852238
15196674 1 18267869385407322656
15320294 125 16845282904860765325
15419008 47 17894625959728228877
15483637 11 18050287260682877146
15927050 60 17695346267573877412
16096371 109 17699841023458099937
17492 89 18052259493228675006
18608769 82 18409171051828883514
18681886 176 18341604927887174897
19841028 212 17603858950491065114
20028762 73 18131067112901699222
20721686 56 18410578353249814066
21033650 10 16515961481103008853
21130935 74 18129945547302419738
21236236 1 18342177705037330409
21267235 1 18413114952808698320
21682296 61 18411986854015698259
21792961 116 18187080637466497779
22149856 69 18200044953853890920
23522609 53 18054824794809963024
23559900 14 18334290998641961641
24771750 20 17972895919212419004
25025965 108 17984965034390321967
3004659 81 18186517717741728760
3178227 256 18411430522253777403
335352 9 18411420639876569780
3383291 50 18410293627035816242
350125 39 18412547587618548696
4073 2 18260556584472061635
4461854 278 17775011201986267222
44880568 143 17240201028174079989
46194498 28 17821726165442426036
484989 97 18261681483593839771
4938544 92 16056607496196814441
50009960 94 17827630358469735514
5104073 3 18272091539558433928
59755656 215 18335701624599557910
6691757 9 16056884646558643663
9962374 69 18272078461134817654

> <PUBCHEM_SHAPE_MULTIPOLES>
632.17
21.51
2.82
1.01
3.59
0.47
0.19
-10.93
3.14
-1.47
-0.47
2.4
-0.25
1.38

> <PUBCHEM_SHAPE_SELFOVERLAP>
1427.338

> <PUBCHEM_SHAPE_VOLUME>
330

> <PUBCHEM_COORDINATE_TYPE>
2
5
10

$$$$
