10977679
  -OEChem-03292013303D

 28 29  0     1  0  0  0  0  0999 V2000
   -0.8927   -2.4371    0.4733 S   0  0  0  0  0  0  0  0  0  0  0  0
   -2.7028    1.8020   -0.1510 O   0  0  0  0  0  0  0  0  0  0  0  0
    3.4059   -0.7915   -0.4884 O   0  0  0  0  0  0  0  0  0  0  0  0
    0.9307    2.3913   -0.9283 O   0  0  0  0  0  0  0  0  0  0  0  0
    0.3620    2.4638    1.2856 O   0  0  0  0  0  0  0  0  0  0  0  0
   -1.0691    0.1058   -0.2704 N   0  0  0  0  0  0  0  0  0  0  0  0
   -3.4801   -1.3029    0.6588 N   0  0  0  0  0  0  0  0  0  0  0  0
   -1.4697   -1.2133   -0.7250 C   0  0  2  0  0  0  0  0  0  0  0  0
   -2.9247   -0.7232   -0.5588 C   0  0  2  0  0  0  0  0  0  0  0  0
   -2.2925    0.6766   -0.3139 C   0  0  0  0  0  0  0  0  0  0  0  0
    0.2077    0.4387    0.0504 C   0  0  0  0  0  0  0  0  0  0  0  0
    1.1564   -0.5070    0.2495 C   0  0  0  0  0  0  0  0  0  0  0  0
    0.8645   -2.0058    0.2334 C   0  0  0  0  0  0  0  0  0  0  0  0
    2.6118   -0.2165    0.5276 C   0  0  0  0  0  0  0  0  0  0  0  0
    0.4985    1.8683    0.2359 C   0  0  0  0  0  0  0  0  0  0  0  0
    4.7940   -0.5491   -0.2786 C   0  0  0  0  0  0  0  0  0  0  0  0
   -1.1820   -1.4062   -1.7654 H   0  0  0  0  0  0  0  0  0  0  0  0
   -3.5569   -0.7947   -1.4469 H   0  0  0  0  0  0  0  0  0  0  0  0
    1.2053   -2.4366   -0.7143 H   0  0  0  0  0  0  0  0  0  0  0  0
    1.4124   -2.5002    1.0425 H   0  0  0  0  0  0  0  0  0  0  0  0
   -3.7027   -2.2939    0.5742 H   0  0  0  0  0  0  0  0  0  0  0  0
   -4.3365   -0.8482    0.9728 H   0  0  0  0  0  0  0  0  0  0  0  0
    2.8849   -0.6423    1.5012 H   0  0  0  0  0  0  0  0  0  0  0  0
    2.8133    0.8588    0.5743 H   0  0  0  0  0  0  0  0  0  0  0  0
    1.1379    3.3470   -0.8494 H   0  0  0  0  0  0  0  0  0  0  0  0
    5.3516   -1.0236   -1.0905 H   0  0  0  0  0  0  0  0  0  0  0  0
    5.1188   -0.9848    0.6712 H   0  0  0  0  0  0  0  0  0  0  0  0
    5.0012    0.5253   -0.2928 H   0  0  0  0  0  0  0  0  0  0  0  0
  1  8  1  0  0  0  0
  1 13  1  0  0  0  0
  2 10  2  0  0  0  0
  3 14  1  0  0  0  0
  3 16  1  0  0  0  0
  4 15  1  0  0  0  0
  4 25  1  0  0  0  0
  5 15  2  0  0  0  0
  6  8  1  0  0  0  0
  6 10  1  0  0  0  0
  6 11  1  0  0  0  0
  7  9  1  0  0  0  0
  7 21  1  0  0  0  0
  7 22  1  0  0  0  0
  8  9  1  0  0  0  0
  8 17  1  0  0  0  0
  9 10  1  0  0  0  0
  9 18  1  0  0  0  0
 11 12  2  0  0  0  0
 11 15  1  0  0  0  0
 12 13  1  0  0  0  0
 12 14  1  0  0  0  0
 13 19  1  0  0  0  0
 13 20  1  0  0  0  0
 14 23  1  0  0  0  0
 14 24  1  0  0  0  0
 16 26  1  0  0  0  0
 16 27  1  0  0  0  0
 16 28  1  0  0  0  0
M  END
> <PUBCHEM_COMPOUND_CID>
10977679

> <PUBCHEM_CONFORMER_RMSD>
0.6

> <PUBCHEM_CONFORMER_DIVERSEORDER>
1
5
7
6
3
8
2
4

> <PUBCHEM_MMFF94_PARTIAL_CHARGES>
19
1 -0.45
10 0.58
11 0.12
12 -0.28
13 0.37
14 0.42
15 0.71
16 0.28
2 -0.57
21 0.36
22 0.36
25 0.5
3 -0.56
4 -0.65
5 -0.57
6 -0.39
7 -0.93
8 0.44
9 0.26

> <PUBCHEM_EFFECTIVE_ROTOR_COUNT>
3.6

> <PUBCHEM_PHARMACOPHORE_FEATURES>
9
1 2 acceptor
1 3 acceptor
1 4 acceptor
1 5 acceptor
1 7 cation
1 7 donor
3 4 5 15 anion
4 6 8 9 10 rings
6 1 6 8 11 12 13 rings

> <PUBCHEM_HEAVY_ATOM_COUNT>
16

> <PUBCHEM_ATOM_DEF_STEREO_COUNT>
2

> <PUBCHEM_ATOM_UDEF_STEREO_COUNT>
0

> <PUBCHEM_BOND_DEF_STEREO_COUNT>
0

> <PUBCHEM_BOND_UDEF_STEREO_COUNT>
0

> <PUBCHEM_ISOTOPIC_ATOM_COUNT>
0

> <PUBCHEM_COMPONENT_COUNT>
1

> <PUBCHEM_CACTVS_TAUTO_COUNT>
1

> <PUBCHEM_CONFORMER_ID>
00A7818F00000001

> <PUBCHEM_MMFF94_ENERGY>
54.6805

> <PUBCHEM_FEATURE_SELFOVERLAP>
45.985

> <PUBCHEM_SHAPE_FINGERPRINT>
108231 29 18412825810882744010
10967382 1 18049439545806666127
11132069 177 18342165632084162754
11680986 33 18049156962665245690
12032990 46 18412266138121530318
12382932 28 18267575819432886331
13027679 85 18412828014116609545
13132413 78 18411138004657542788
13140716 1 18120933077621783259
13380535 220 18335420218030828004
14614273 12 17973720273337830892
14911166 2 18336536188068461767
14993402 34 18334850610825350342
16945 1 18338504339715294215
17804303 29 18337956791503929939
193761 8 17905042908492534194
20510252 161 18341332197843615458
20511035 2 18052533571390259814
20871999 31 18409728448025275958
21029758 11 18343012319971566025
21029758 27 18260835924744589262
21041028 32 18272100421640465825
21061003 4 18413672426330573331
21501502 16 17978229692266273959
2334 1 18338227155400473227
23402539 116 18339635656092719182
23419403 2 15180837799553356183
23557571 272 18342750611288972270
23559900 14 18342453709064189970
2748010 2 17903630031898429495
3312278 4 18338797797444610250
353137 74 18192992613079393374
58734987 51 18342738507411722768
7364860 26 18055630870065850456
81228 2 18269287776697107704

> <PUBCHEM_SHAPE_MULTIPOLES>
299.68
5.63
2.65
0.87
4.43
0.78
0.06
-1.59
-0.73
-0.51
0.38
-0.01
0.15
0.21

> <PUBCHEM_SHAPE_SELFOVERLAP>
615.605

> <PUBCHEM_SHAPE_VOLUME>
174.7

> <PUBCHEM_COORDINATE_TYPE>
2
5
10

$$$$
