10981927
  -OEChem-03292013303D

 57 58  0     1  0  0  0  0  0999 V2000
   -2.2592    0.2967   -0.5649 O   0  0  0  0  0  0  0  0  0  0  0  0
   -0.5253   -1.1934   -0.0991 O   0  0  0  0  0  0  0  0  0  0  0  0
   -4.8065   -1.6668    1.9892 O   0  0  0  0  0  0  0  0  0  0  0  0
   -2.4111   -3.0272    0.9444 O   0  0  0  0  0  0  0  0  0  0  0  0
   -5.8721    0.1611    0.0197 O   0  0  0  0  0  0  0  0  0  0  0  0
    4.6761   -2.3751   -2.1008 O   0  0  0  0  0  0  0  0  0  0  0  0
   -3.0368    2.2922   -2.2881 O   0  0  0  0  0  0  0  0  0  0  0  0
    2.4065    4.4134    1.5374 O   0  0  0  0  0  0  0  0  0  0  0  0
    3.4648   -0.8386    1.0006 C   0  0  0  0  0  0  0  0  0  0  0  0
    2.2064   -0.1379    0.3924 C   0  0  2  0  0  0  0  0  0  0  0  0
    4.5217   -1.0673   -0.0980 C   0  0  0  0  0  0  0  0  0  0  0  0
    1.7107   -0.8532   -0.8544 C   0  0  0  0  0  0  0  0  0  0  0  0
   -2.6729   -1.6267    0.8588 C   0  0  2  0  0  0  0  0  0  0  0  0
   -4.1794   -1.3988    0.7340 C   0  0  2  0  0  0  0  0  0  0  0  0
   -1.9244   -1.0729   -0.3536 C   0  0  1  0  0  0  0  0  0  0  0  0
   -4.4903    0.0477    0.3493 C   0  0  1  0  0  0  0  0  0  0  0  0
   -3.6464    0.4840   -0.8507 C   0  0  1  0  0  0  0  0  0  0  0  0
    4.0945    0.0011    2.1336 C   0  0  0  0  0  0  0  0  0  0  0  0
    3.0609   -2.1982    1.6265 C   0  0  0  0  0  0  0  0  0  0  0  0
    0.2489   -0.7021   -1.1753 C   0  0  0  0  0  0  0  0  0  0  0  0
    3.9554   -1.7424   -1.3298 C   0  0  0  0  0  0  0  0  0  0  0  0
    2.5125   -1.5919   -1.6378 C   0  0  0  0  0  0  0  0  0  0  0  0
    2.4263    1.3191    0.0802 C   0  0  0  0  0  0  0  0  0  0  0  0
   -3.8532    1.9589   -1.1801 C   0  0  0  0  0  0  0  0  0  0  0  0
    1.7436    2.3181    0.6584 C   0  0  0  0  0  0  0  0  0  0  0  0
    1.9662    3.7683    0.3453 C   0  0  1  0  0  0  0  0  0  0  0  0
    0.6831    4.4320   -0.1371 C   0  0  0  0  0  0  0  0  0  0  0  0
    1.4215   -0.2098    1.1590 H   0  0  0  0  0  0  0  0  0  0  0  0
    4.9680   -0.1199   -0.4230 H   0  0  0  0  0  0  0  0  0  0  0  0
    5.3317   -1.6977    0.2893 H   0  0  0  0  0  0  0  0  0  0  0  0
   -4.6195   -2.0976    0.0119 H   0  0  0  0  0  0  0  0  0  0  0  0
   -2.2957   -1.1766    1.7848 H   0  0  0  0  0  0  0  0  0  0  0  0
   -2.1595   -1.6584   -1.2530 H   0  0  0  0  0  0  0  0  0  0  0  0
   -4.2985    0.6940    1.2157 H   0  0  0  0  0  0  0  0  0  0  0  0
   -3.9021   -0.1024   -1.7438 H   0  0  0  0  0  0  0  0  0  0  0  0
    4.9207   -0.5395    2.6102 H   0  0  0  0  0  0  0  0  0  0  0  0
    4.5047    0.9473    1.7652 H   0  0  0  0  0  0  0  0  0  0  0  0
    3.3564    0.2313    2.9102 H   0  0  0  0  0  0  0  0  0  0  0  0
    2.3308   -2.0552    2.4316 H   0  0  0  0  0  0  0  0  0  0  0  0
    2.6152   -2.8835    0.8992 H   0  0  0  0  0  0  0  0  0  0  0  0
    3.9313   -2.7057    2.0583 H   0  0  0  0  0  0  0  0  0  0  0  0
    0.0371    0.3585   -1.3542 H   0  0  0  0  0  0  0  0  0  0  0  0
   -0.0106   -1.2516   -2.0888 H   0  0  0  0  0  0  0  0  0  0  0  0
    2.1431   -2.0967   -2.5239 H   0  0  0  0  0  0  0  0  0  0  0  0
    3.1821    1.5633   -0.6634 H   0  0  0  0  0  0  0  0  0  0  0  0
   -4.8924    2.1761   -1.4422 H   0  0  0  0  0  0  0  0  0  0  0  0
   -3.5502    2.5926   -0.3399 H   0  0  0  0  0  0  0  0  0  0  0  0
    0.9884    2.0841    1.4054 H   0  0  0  0  0  0  0  0  0  0  0  0
   -5.7582   -1.4982    1.8811 H   0  0  0  0  0  0  0  0  0  0  0  0
   -2.7402   -3.4459    0.1308 H   0  0  0  0  0  0  0  0  0  0  0  0
   -6.1023    1.1053    0.0224 H   0  0  0  0  0  0  0  0  0  0  0  0
    2.7459    3.9025   -0.4132 H   0  0  0  0  0  0  0  0  0  0  0  0
   -3.1759    3.2365   -2.4737 H   0  0  0  0  0  0  0  0  0  0  0  0
   -0.1021    4.3812    0.6262 H   0  0  0  0  0  0  0  0  0  0  0  0
    0.3096    3.9650   -1.0542 H   0  0  0  0  0  0  0  0  0  0  0  0
    0.8576    5.4956   -0.3335 H   0  0  0  0  0  0  0  0  0  0  0  0
    3.2488    4.0045    1.8014 H   0  0  0  0  0  0  0  0  0  0  0  0
  1 15  1  0  0  0  0
  1 17  1  0  0  0  0
  2 15  1  0  0  0  0
  2 20  1  0  0  0  0
  3 14  1  0  0  0  0
  3 49  1  0  0  0  0
  4 13  1  0  0  0  0
  4 50  1  0  0  0  0
  5 16  1  0  0  0  0
  5 51  1  0  0  0  0
  6 21  2  0  0  0  0
  7 24  1  0  0  0  0
  7 53  1  0  0  0  0
  8 26  1  0  0  0  0
  8 57  1  0  0  0  0
  9 10  1  0  0  0  0
  9 11  1  0  0  0  0
  9 18  1  0  0  0  0
  9 19  1  0  0  0  0
 10 12  1  0  0  0  0
 10 23  1  0  0  0  0
 10 28  1  0  0  0  0
 11 21  1  0  0  0  0
 11 29  1  0  0  0  0
 11 30  1  0  0  0  0
 12 20  1  0  0  0  0
 12 22  2  0  0  0  0
 13 14  1  0  0  0  0
 13 15  1  0  0  0  0
 13 32  1  0  0  0  0
 14 16  1  0  0  0  0
 14 31  1  0  0  0  0
 15 33  1  0  0  0  0
 16 17  1  0  0  0  0
 16 34  1  0  0  0  0
 17 24  1  0  0  0  0
 17 35  1  0  0  0  0
 18 36  1  0  0  0  0
 18 37  1  0  0  0  0
 18 38  1  0  0  0  0
 19 39  1  0  0  0  0
 19 40  1  0  0  0  0
 19 41  1  0  0  0  0
 20 42  1  0  0  0  0
 20 43  1  0  0  0  0
 21 22  1  0  0  0  0
 22 44  1  0  0  0  0
 23 25  2  0  0  0  0
 23 45  1  0  0  0  0
 24 46  1  0  0  0  0
 24 47  1  0  0  0  0
 25 26  1  0  0  0  0
 25 48  1  0  0  0  0
 26 27  1  0  0  0  0
 26 52  1  0  0  0  0
 27 54  1  0  0  0  0
 27 55  1  0  0  0  0
 27 56  1  0  0  0  0
M  END
> <PUBCHEM_COMPOUND_CID>
10981927

> <PUBCHEM_CONFORMER_RMSD>
0.8

> <PUBCHEM_CONFORMER_DIVERSEORDER>
1
273
20
246
70
326
265
111
296
102
138
356
354
280
171
23
279
146
263
153
112
316
2
127
51
107
191
188
245
161
343
227
355
269
183
313
5
318
294
118
247
96
259
59
255
168
248
324
345
223
352
319
320
337
39
156
218
162
164
342
210
360
72
198
329
68
288
148
50
344
299
150
152
348
331
165
67
136
65
109
190
257
24
139
45
184
241
60
202
323
101
286
195
292
149
90
74
261
117
204
179
357
91
208
309
310
314
230
15
335
79
274
186
163
194
19
31
120
300
85
233
231
144
242
221
338
76
133
100
235
215
272
229
220
17
159
284
271
237
234
82
303
214
197
239
108
33
27
145
175
252
6
268
81
22
228
119
293
278
143
178
34
104
267
43
88
64
47
37
46
219
216
258
122
174
276
38
12
10
80
172
40
330
305
131
321
9
200
206
167
124
155
205
260
282
142
166
157
217
121
298
30
232
25
105
137
29
311
7
207
297
151
53
92
308
249
341
169
97
243
3
126
57
129
180
340
77
84
189
170
123
94
325
18
327
28
236
244
54
336
106
196
251
103
315
32
98
62
95
262
58
132
275
264
16
48
317
291
134
63
283
302
250
83
322
192
358
226
35
86
334
116
78
347
13
36
21
238
71
353
346
351
289
42
8
154
113
73
199
26
177
256
176
115
328
212
290
185
285
295
147
44
224
222
193
253
56
87
66
11
135
270
4
301
277
140
254
349
160
125
69
110
41
75
89
306
187
93
114
225
287
211
304
158
181
201
128
266
49
203
359
61
99
333
350
332
173
55
182
339
312
14
130
209
281
52
240
307
213
141

> <PUBCHEM_MMFF94_PARTIAL_CHARGES>
31
1 -0.56
10 0.28
11 0.06
12 -0.28
13 0.28
14 0.28
15 0.56
16 0.28
17 0.28
2 -0.56
20 0.42
21 0.49
22 -0.14
23 -0.29
24 0.28
25 -0.29
26 0.42
3 -0.68
4 -0.68
44 0.15
45 0.15
48 0.15
49 0.4
5 -0.68
50 0.4
51 0.4
53 0.4
57 0.4
6 -0.57
7 -0.68
8 -0.68

> <PUBCHEM_EFFECTIVE_ROTOR_COUNT>
7.8

> <PUBCHEM_PHARMACOPHORE_FEATURES>
16
1 1 acceptor
1 2 acceptor
1 3 acceptor
1 3 donor
1 4 acceptor
1 4 donor
1 5 acceptor
1 5 donor
1 6 acceptor
1 7 acceptor
1 7 donor
1 8 acceptor
1 8 donor
3 9 18 19 hydrophobe
6 1 13 14 15 16 17 rings
6 9 10 11 12 21 22 rings

> <PUBCHEM_HEAVY_ATOM_COUNT>
27

> <PUBCHEM_ATOM_DEF_STEREO_COUNT>
7

> <PUBCHEM_ATOM_UDEF_STEREO_COUNT>
0

> <PUBCHEM_BOND_DEF_STEREO_COUNT>
1

> <PUBCHEM_BOND_UDEF_STEREO_COUNT>
0

> <PUBCHEM_ISOTOPIC_ATOM_COUNT>
0

> <PUBCHEM_COMPONENT_COUNT>
1

> <PUBCHEM_CACTVS_TAUTO_COUNT>
5

> <PUBCHEM_CONFORMER_ID>
00A7922700000001

> <PUBCHEM_MMFF94_ENERGY>
60.5535

> <PUBCHEM_FEATURE_SELFOVERLAP>
81.263

> <PUBCHEM_SHAPE_FINGERPRINT>
10366900 7 18040440984058569067
12166972 35 17775284958679152307
12236239 1 16081098056384826687
12422481 6 17980725472852331736
12596602 18 14418431944744967285
12633257 1 18335690680705961179
12788726 201 18049724023398150346
13583140 156 18261943107506144355
14022347 108 18339364050755727622
14251757 5 18119257164181714508
14363568 33 18270406108814305900
14866123 147 16752112118166900490
14955137 171 18271529818709268584
15081414 286 18273496776007215376
15238133 3 18043525023826757878
15420108 30 17769633624101327688
15806764 133 18411427197758789735
1601671 61 18272365425971444880
17349148 13 17704068469503860899
17357779 13 17916017958994168012
18785283 64 18267868465646167180
20511986 3 15051160156954578715
20600515 1 18116141182788834876
20681677 76 18263632017500796685
21033648 29 17489012752354039490
23559900 14 18343028799951465679
3052486 1 18050573937122770564
5081480 168 17845118245094805468
508706 21 18261105224117094909
5252454 2 17769090490436141209
5283268 108 18342175523341500592
57724786 102 18131360738424760097
6823239 73 18410301315364307438
9841814 1 18335416885568619290
9971528 1 18060699468493625070

> <PUBCHEM_SHAPE_MULTIPOLES>
508.69
10.84
4.45
1.86
8.82
6.76
0.11
-4.41
-0.86
-2.52
-0.76
-0.9
-0.53
3.39

> <PUBCHEM_SHAPE_SELFOVERLAP>
1038.041

> <PUBCHEM_SHAPE_VOLUME>
291

> <PUBCHEM_COORDINATE_TYPE>
2
5
10

$$$$
