10982781
  -OEChem-03292013303D

 58 59  0     1  0  0  0  0  0999 V2000
   -2.0406   -0.6225    1.0971 O   0  0  0  0  0  0  0  0  0  0  0  0
    1.6390    0.7519    0.8726 O   0  0  0  0  0  0  0  0  0  0  0  0
    3.4966   -0.9547   -1.7783 O   0  0  0  0  0  0  0  0  0  0  0  0
    1.1785   -2.0541   -2.2815 O   0  0  0  0  0  0  0  0  0  0  0  0
   -2.9676    0.8043    2.5909 O   0  0  0  0  0  0  0  0  0  0  0  0
   -4.8110    2.4634    1.7973 O   0  0  0  0  0  0  0  0  0  0  0  0
    6.2120    2.6020   -0.2742 O   0  5  0  0  0  0  0  0  0  0  0  0
    6.3398    1.9659    1.9149 O   0  0  0  0  0  0  0  0  0  0  0  0
    0.3203   -1.5830   -0.1754 N   0  0  0  0  0  0  0  0  0  0  0  0
    3.1214    2.9502   -0.0495 N   0  3  0  0  0  0  0  0  0  0  0  0
   -0.9730   -2.2032   -0.3520 C   0  0  2  0  0  0  0  0  0  0  0  0
   -2.0648   -1.1478   -0.2496 C   0  0  2  0  0  0  0  0  0  0  0  0
   -1.2039   -3.3229    0.6761 C   0  0  0  0  0  0  0  0  0  0  0  0
   -0.1168   -4.4183    0.7030 C   0  0  0  0  0  0  0  0  0  0  0  0
   -1.8428   -0.0211   -1.2480 C   0  0  0  0  0  0  0  0  0  0  0  0
   -2.8960    1.0172   -1.0059 C   0  0  0  0  0  0  0  0  0  0  0  0
    2.2780    0.6449   -0.4003 C   0  0  2  0  0  0  0  0  0  0  0  0
    2.5612   -0.8352   -0.7158 C   0  0  1  0  0  0  0  0  0  0  0  0
    3.5252    1.5544   -0.4009 C   0  0  2  0  0  0  0  0  0  0  0  0
    1.2942   -1.5604   -1.1616 C   0  0  0  0  0  0  0  0  0  0  0  0
   -0.4367   -5.4349    1.8028 C   0  0  0  0  0  0  0  0  0  0  0  0
    0.0206   -5.1390   -0.6388 C   0  0  0  0  0  0  0  0  0  0  0  0
   -3.3550    1.2376    0.2986 C   0  0  0  0  0  0  0  0  0  0  0  0
   -2.7890    0.4636    1.4290 C   0  0  0  0  0  0  0  0  0  0  0  0
    4.5857    1.0982    0.6066 C   0  0  0  0  0  0  0  0  0  0  0  0
   -3.3977    1.7965   -2.0541 C   0  0  0  0  0  0  0  0  0  0  0  0
   -4.3206    2.2178    0.5496 C   0  0  0  0  0  0  0  0  0  0  0  0
   -4.3642    2.7706   -1.8035 C   0  0  0  0  0  0  0  0  0  0  0  0
   -4.8264    2.9789   -0.5047 C   0  0  0  0  0  0  0  0  0  0  0  0
    5.8335    1.9797    0.7555 C   0  0  0  0  0  0  0  0  0  0  0  0
   -1.0223   -2.6372   -1.3574 H   0  0  0  0  0  0  0  0  0  0  0  0
   -3.0455   -1.6192   -0.4021 H   0  0  0  0  0  0  0  0  0  0  0  0
   -1.2570   -2.8917    1.6845 H   0  0  0  0  0  0  0  0  0  0  0  0
   -2.1813   -3.7857    0.4855 H   0  0  0  0  0  0  0  0  0  0  0  0
   -0.8756    0.4746   -1.1129 H   0  0  0  0  0  0  0  0  0  0  0  0
   -1.8993   -0.4064   -2.2722 H   0  0  0  0  0  0  0  0  0  0  0  0
    0.8499   -3.9621    0.9489 H   0  0  0  0  0  0  0  0  0  0  0  0
    0.5157   -1.1488    0.7221 H   0  0  0  0  0  0  0  0  0  0  0  0
    1.5751    1.0330   -1.1497 H   0  0  0  0  0  0  0  0  0  0  0  0
    2.9585   -1.3532    0.1653 H   0  0  0  0  0  0  0  0  0  0  0  0
    3.9514    1.6165   -1.4082 H   0  0  0  0  0  0  0  0  0  0  0  0
   -1.3907   -5.9390    1.6138 H   0  0  0  0  0  0  0  0  0  0  0  0
   -0.4994   -4.9445    2.7801 H   0  0  0  0  0  0  0  0  0  0  0  0
    0.3443   -6.2002    1.8646 H   0  0  0  0  0  0  0  0  0  0  0  0
    0.3710   -4.4680   -1.4263 H   0  0  0  0  0  0  0  0  0  0  0  0
    0.7467   -5.9562   -0.5664 H   0  0  0  0  0  0  0  0  0  0  0  0
   -0.9361   -5.5668   -0.9574 H   0  0  0  0  0  0  0  0  0  0  0  0
    4.9561    0.1040    0.3285 H   0  0  0  0  0  0  0  0  0  0  0  0
    4.1298    0.9940    1.6002 H   0  0  0  0  0  0  0  0  0  0  0  0
   -3.0415    1.6481   -3.0700 H   0  0  0  0  0  0  0  0  0  0  0  0
    2.3726    3.2892   -0.6683 H   0  0  0  0  0  0  0  0  0  0  0  0
    2.7772    3.0181    0.9176 H   0  0  0  0  0  0  0  0  0  0  0  0
    3.9076    3.6071   -0.1433 H   0  0  0  0  0  0  0  0  0  0  0  0
    1.1613    1.5980    0.8975 H   0  0  0  0  0  0  0  0  0  0  0  0
   -4.7555    3.3692   -2.6210 H   0  0  0  0  0  0  0  0  0  0  0  0
    3.7297   -1.8954   -1.8591 H   0  0  0  0  0  0  0  0  0  0  0  0
   -5.5799    3.7403   -0.3207 H   0  0  0  0  0  0  0  0  0  0  0  0
   -4.4915    1.7958    2.4239 H   0  0  0  0  0  0  0  0  0  0  0  0
  1 12  1  0  0  0  0
  1 24  1  0  0  0  0
  2 17  1  0  0  0  0
  2 54  1  0  0  0  0
  3 18  1  0  0  0  0
  3 56  1  0  0  0  0
  4 20  2  0  0  0  0
  5 24  2  0  0  0  0
  6 27  1  0  0  0  0
  6 58  1  0  0  0  0
  7 30  1  0  0  0  0
  8 30  2  0  0  0  0
  9 11  1  0  0  0  0
  9 20  1  0  0  0  0
  9 38  1  0  0  0  0
 10 19  1  0  0  0  0
 10 51  1  0  0  0  0
 10 52  1  0  0  0  0
 10 53  1  0  0  0  0
 11 12  1  0  0  0  0
 11 13  1  0  0  0  0
 11 31  1  0  0  0  0
 12 15  1  0  0  0  0
 12 32  1  0  0  0  0
 13 14  1  0  0  0  0
 13 33  1  0  0  0  0
 13 34  1  0  0  0  0
 14 21  1  0  0  0  0
 14 22  1  0  0  0  0
 14 37  1  0  0  0  0
 15 16  1  0  0  0  0
 15 35  1  0  0  0  0
 15 36  1  0  0  0  0
 16 23  2  0  0  0  0
 16 26  1  0  0  0  0
 17 18  1  0  0  0  0
 17 19  1  0  0  0  0
 17 39  1  0  0  0  0
 18 20  1  0  0  0  0
 18 40  1  0  0  0  0
 19 25  1  0  0  0  0
 19 41  1  0  0  0  0
 21 42  1  0  0  0  0
 21 43  1  0  0  0  0
 21 44  1  0  0  0  0
 22 45  1  0  0  0  0
 22 46  1  0  0  0  0
 22 47  1  0  0  0  0
 23 24  1  0  0  0  0
 23 27  1  0  0  0  0
 25 30  1  0  0  0  0
 25 48  1  0  0  0  0
 25 49  1  0  0  0  0
 26 28  2  0  0  0  0
 26 50  1  0  0  0  0
 27 29  2  0  0  0  0
 28 29  1  0  0  0  0
 28 55  1  0  0  0  0
 29 57  1  0  0  0  0
M  CHG  2   7  -1  10   1
M  END
> <PUBCHEM_COMPOUND_CID>
10982781

> <PUBCHEM_CONFORMER_RMSD>
1.2

> <PUBCHEM_CONFORMER_DIVERSEORDER>
1
123
132
93
15
33
25
126
78
137
110
98
16
28
136
107
12
130
119
84
82
4
65
134
135
88
39
101
94
49
6
124
129
114
138
122
105
18
34
127
37
32
133
81
61
86
14
103
66
85
59
108
43
96
75
41
89
38
118
116
2
125
70
62
13
7
26
117
63
109
112
23
102
36
68
95
42
50
73
76
60
121
106
31
29
58
87
97
47
71
19
46
74
83
100
113
27
131
111
9
77
56
24
20
17
22
115
21
64
44
48
69
5
120
128
35
67
104
72
40
91
30
53
52
11
79
45
80
55
90
92
57
54
99
8
3
51
10

> <PUBCHEM_MMFF94_PARTIAL_CHARGES>
36
1 -0.43
10 -0.85
11 0.3
12 0.28
15 0.14
16 -0.14
17 0.28
18 0.34
19 0.5
2 -0.68
20 0.57
23 0.09
24 0.63
25 -0.11
26 -0.15
27 0.08
28 -0.15
29 -0.15
3 -0.68
30 0.91
38 0.37
4 -0.57
5 -0.57
50 0.15
51 0.45
52 0.45
53 0.45
54 0.4
55 0.15
56 0.4
57 0.15
58 0.45
6 -0.53
7 -0.9
8 -0.9
9 -0.73

> <PUBCHEM_EFFECTIVE_ROTOR_COUNT>
10.6

> <PUBCHEM_PHARMACOPHORE_FEATURES>
16
1 10 cation
1 10 donor
1 2 acceptor
1 2 donor
1 3 acceptor
1 3 donor
1 4 acceptor
1 5 acceptor
1 6 donor
1 7 acceptor
1 8 acceptor
1 9 donor
3 14 21 22 hydrophobe
3 7 8 30 anion
6 1 12 15 16 23 24 rings
6 16 23 26 27 28 29 rings

> <PUBCHEM_HEAVY_ATOM_COUNT>
30

> <PUBCHEM_ATOM_DEF_STEREO_COUNT>
5

> <PUBCHEM_ATOM_UDEF_STEREO_COUNT>
0

> <PUBCHEM_BOND_DEF_STEREO_COUNT>
0

> <PUBCHEM_BOND_UDEF_STEREO_COUNT>
0

> <PUBCHEM_ISOTOPIC_ATOM_COUNT>
0

> <PUBCHEM_COMPONENT_COUNT>
1

> <PUBCHEM_CACTVS_TAUTO_COUNT>
26

> <PUBCHEM_CONFORMER_ID>
00A7957D00000001

> <PUBCHEM_MMFF94_ENERGY>
68.6662

> <PUBCHEM_FEATURE_SELFOVERLAP>
81.297

> <PUBCHEM_SHAPE_FINGERPRINT>
10074138 170 17969513773710142307
10165383 225 17901423058742646719
10319926 262 16878514414436998713
105312 117 18341047501662869484
10675989 125 18126003763282545696
10930396 42 17976808010973259243
1100329 8 16172285722242379205
12107183 9 18261936493878598682
12788726 201 18051671515751915679
12988421 55 18409441462495254609
13134695 92 17398099457856019111
14202776 33 17903087968967133276
14713325 29 18124040297671314258
14932701 244 18201146776268965935
14950920 106 16371010771084268320
17980427 26 18194945371189242782
1813 80 7925334299159964115
18393751 57 18261117400285984233
21033648 29 18334303041276702652
21120745 212 17469625343115418413
21133410 32 15480959462884710372
21304303 282 18266436862831420959
21401589 2 18411700997623882057
22122407 14 17623308078388591337
22182313 1 17772495592801774734
23522609 53 17458910461803833780
23559900 14 16376101252749893351
283562 15 18338228380030856599
312425 83 15481848778528630724
376196 1 18131064918441968318
4144715 1 18192712465965255576
474 4 18199746951610740701
508706 21 18267309909807890860
5265222 85 17753367264301938950
6371380 46 18337392622502905566
7288768 16 18342466945124488673
9981440 41 18260539009724323089

> <PUBCHEM_SHAPE_MULTIPOLES>
560.47
11.32
6.32
1.96
11.22
10.81
-0.21
-19.05
-2.48
0.42
-1.32
-1
-0.06
1.88

> <PUBCHEM_SHAPE_SELFOVERLAP>
1163.831

> <PUBCHEM_SHAPE_VOLUME>
316.9

> <PUBCHEM_COORDINATE_TYPE>
2
5
10

$$$$
