10982461
  -OEChem-03292013303D

 48 50  0     0  0  0  0  0  0999 V2000
    3.2501   -2.5868    0.9113 O   0  0  0  0  0  0  0  0  0  0  0  0
   -3.2484   -2.5073    0.7561 O   0  0  0  0  0  0  0  0  0  0  0  0
    5.7825   -2.5599   -0.2328 O   0  0  0  0  0  0  0  0  0  0  0  0
   -5.7207   -2.4272   -0.5105 O   0  0  0  0  0  0  0  0  0  0  0  0
    3.4398    3.2321    0.2110 O   0  0  0  0  0  0  0  0  0  0  0  0
   -3.2110    3.3469    0.0512 O   0  0  0  0  0  0  0  0  0  0  0  0
    0.7397    1.2189   -0.6280 N   0  0  0  0  0  0  0  0  0  0  0  0
   -0.5898    1.2350   -0.6586 N   0  0  0  0  0  0  0  0  0  0  0  0
    0.7315    3.1778    0.7383 N   0  0  0  0  0  0  0  0  0  0  0  0
   -0.5979    3.1937    0.7078 N   0  0  0  0  0  0  0  0  0  0  0  0
    3.5914    0.9064    0.0143 C   0  0  0  0  0  0  0  0  0  0  0  0
   -3.4481    1.0286   -0.1492 C   0  0  0  0  0  0  0  0  0  0  0  0
    3.7784   -1.4284    0.4272 C   0  0  0  0  0  0  0  0  0  0  0  0
   -3.7278   -1.3381    0.2480 C   0  0  0  0  0  0  0  0  0  0  0  0
    3.0376   -0.2492    0.5090 C   0  0  0  0  0  0  0  0  0  0  0  0
   -2.9675   -0.1747    0.3674 C   0  0  0  0  0  0  0  0  0  0  0  0
    5.0497   -1.4149   -0.1468 C   0  0  0  0  0  0  0  0  0  0  0  0
   -4.9687   -1.2979   -0.3881 C   0  0  0  0  0  0  0  0  0  0  0  0
    4.8396    0.9566   -0.5569 C   0  0  0  0  0  0  0  0  0  0  0  0
   -4.6889    1.0685   -0.7853 C   0  0  0  0  0  0  0  0  0  0  0  0
    5.5803   -0.2224   -0.6387 C   0  0  0  0  0  0  0  0  0  0  0  0
   -5.4491   -0.0947   -0.9048 C   0  0  0  0  0  0  0  0  0  0  0  0
    2.7968    2.1730    0.1036 C   0  0  0  0  0  0  0  0  0  0  0  0
   -2.6548    2.2414   -0.0263 C   0  0  0  0  0  0  0  0  0  0  0  0
    1.3500    2.1912    0.0693 C   0  0  0  0  0  0  0  0  0  0  0  0
   -1.1613    2.2210    0.0117 C   0  0  0  0  0  0  0  0  0  0  0  0
    1.9451   -2.5153    1.4823 C   0  0  0  0  0  0  0  0  0  0  0  0
   -2.4587   -3.3165   -0.1133 C   0  0  0  0  0  0  0  0  0  0  0  0
    5.6201   -3.3465   -1.4114 C   0  0  0  0  0  0  0  0  0  0  0  0
   -6.6399   -2.7112    0.5425 C   0  0  0  0  0  0  0  0  0  0  0  0
    2.0682   -0.2077    0.9879 H   0  0  0  0  0  0  0  0  0  0  0  0
   -2.0209   -0.2303    0.8986 H   0  0  0  0  0  0  0  0  0  0  0  0
    5.2629    1.8757   -0.9498 H   0  0  0  0  0  0  0  0  0  0  0  0
   -5.0782    1.9953   -1.1987 H   0  0  0  0  0  0  0  0  0  0  0  0
    6.5697   -0.2049   -1.0879 H   0  0  0  0  0  0  0  0  0  0  0  0
   -6.4140   -0.0567   -1.4030 H   0  0  0  0  0  0  0  0  0  0  0  0
    1.1953   -2.2104    0.7439 H   0  0  0  0  0  0  0  0  0  0  0  0
    1.6786   -3.5280    1.8030 H   0  0  0  0  0  0  0  0  0  0  0  0
    1.9304   -1.8856    2.3784 H   0  0  0  0  0  0  0  0  0  0  0  0
   -2.1597   -4.2154    0.4328 H   0  0  0  0  0  0  0  0  0  0  0  0
   -3.0375   -3.6170   -0.9924 H   0  0  0  0  0  0  0  0  0  0  0  0
   -1.5567   -2.7788   -0.4224 H   0  0  0  0  0  0  0  0  0  0  0  0
    4.5820   -3.6782   -1.5137 H   0  0  0  0  0  0  0  0  0  0  0  0
    5.9219   -2.7775   -2.2965 H   0  0  0  0  0  0  0  0  0  0  0  0
    6.2620   -4.2276   -1.3265 H   0  0  0  0  0  0  0  0  0  0  0  0
   -7.1573   -3.6442    0.3031 H   0  0  0  0  0  0  0  0  0  0  0  0
   -6.1108   -2.8383    1.4923 H   0  0  0  0  0  0  0  0  0  0  0  0
   -7.3821   -1.9115    0.6295 H   0  0  0  0  0  0  0  0  0  0  0  0
  1 13  1  0  0  0  0
  1 27  1  0  0  0  0
  2 14  1  0  0  0  0
  2 28  1  0  0  0  0
  3 17  1  0  0  0  0
  3 29  1  0  0  0  0
  4 18  1  0  0  0  0
  4 30  1  0  0  0  0
  5 23  2  0  0  0  0
  6 24  2  0  0  0  0
  7  8  2  0  0  0  0
  7 25  1  0  0  0  0
  8 26  1  0  0  0  0
  9 10  1  0  0  0  0
  9 25  2  0  0  0  0
 10 26  2  0  0  0  0
 11 15  2  0  0  0  0
 11 19  1  0  0  0  0
 11 23  1  0  0  0  0
 12 16  2  0  0  0  0
 12 20  1  0  0  0  0
 12 24  1  0  0  0  0
 13 15  1  0  0  0  0
 13 17  2  0  0  0  0
 14 16  1  0  0  0  0
 14 18  2  0  0  0  0
 15 31  1  0  0  0  0
 16 32  1  0  0  0  0
 17 21  1  0  0  0  0
 18 22  1  0  0  0  0
 19 21  2  0  0  0  0
 19 33  1  0  0  0  0
 20 22  2  0  0  0  0
 20 34  1  0  0  0  0
 21 35  1  0  0  0  0
 22 36  1  0  0  0  0
 23 25  1  0  0  0  0
 24 26  1  0  0  0  0
 27 37  1  0  0  0  0
 27 38  1  0  0  0  0
 27 39  1  0  0  0  0
 28 40  1  0  0  0  0
 28 41  1  0  0  0  0
 28 42  1  0  0  0  0
 29 43  1  0  0  0  0
 29 44  1  0  0  0  0
 29 45  1  0  0  0  0
 30 46  1  0  0  0  0
 30 47  1  0  0  0  0
 30 48  1  0  0  0  0
M  END
> <PUBCHEM_COMPOUND_CID>
10982461

> <PUBCHEM_CONFORMER_RMSD>
1

> <PUBCHEM_CONFORMER_DIVERSEORDER>
1
32
70
59
23
35
64
76
75
68
4
27
31
34
14
57
17
33
26
9
29
37
55
18
15
66
73
5
43
13
49
56
7
20
16
65
71
42
28
41
2
60
74
6
8
3
19
58
50
36
53
51
21
10
67
40
48
39
72
38
44
25
22
52
54
12
69
11
62
30
47
46
24
63
61
45

> <PUBCHEM_MMFF94_PARTIAL_CHARGES>
36
1 -0.36
10 -0.31
11 0.09
12 0.09
13 0.08
14 0.08
15 -0.15
16 -0.15
17 0.08
18 0.08
19 -0.15
2 -0.36
20 -0.15
21 -0.15
22 -0.15
23 0.4
24 0.4
25 0.71
26 0.71
27 0.28
28 0.28
29 0.28
3 -0.36
30 0.28
31 0.15
32 0.15
33 0.15
34 0.15
35 0.15
36 0.15
4 -0.36
5 -0.57
6 -0.57
7 -0.31
8 -0.31
9 -0.31

> <PUBCHEM_EFFECTIVE_ROTOR_COUNT>
8

> <PUBCHEM_PHARMACOPHORE_FEATURES>
11
1 1 acceptor
1 2 acceptor
1 3 acceptor
1 4 acceptor
1 5 acceptor
1 6 acceptor
3 7 9 25 cation
3 8 10 26 cation
6 11 13 15 17 19 21 rings
6 12 14 16 18 20 22 rings
6 7 8 9 10 25 26 rings

> <PUBCHEM_HEAVY_ATOM_COUNT>
30

> <PUBCHEM_ATOM_DEF_STEREO_COUNT>
0

> <PUBCHEM_ATOM_UDEF_STEREO_COUNT>
0

> <PUBCHEM_BOND_DEF_STEREO_COUNT>
0

> <PUBCHEM_BOND_UDEF_STEREO_COUNT>
0

> <PUBCHEM_ISOTOPIC_ATOM_COUNT>
0

> <PUBCHEM_COMPONENT_COUNT>
1

> <PUBCHEM_CACTVS_TAUTO_COUNT>
1

> <PUBCHEM_CONFORMER_ID>
00A7943D00000001

> <PUBCHEM_MMFF94_ENERGY>
138.8069

> <PUBCHEM_FEATURE_SELFOVERLAP>
56.353

> <PUBCHEM_SHAPE_FINGERPRINT>
10693767 8 17840567513266981831
11186622 123 18334569135927806578
11315621 136 18335421266482837604
117089 54 18057052307079189222
11796584 16 18196653991169195236
12107183 9 18271538494374921769
12124843 1 18259704492878367254
13533116 47 18268991058828663883
13631057 29 18410295826322496928
13989917 61 18050289468591421179
14117953 113 17327162257090998326
14866123 147 18270404885175842809
14910302 57 18187351126170736061
14931854 50 18259981548380877623
15001296 14 18261386814387918291
15250474 111 18117550739272843426
15320467 1 18410855468729691766
15351339 4 18187918473943711491
15352361 1 18411417314881032729
16067689 302 18121502625410472419
17492 89 18412262843649609716
17627616 140 17827074009289795163
17909252 39 18341898523810045832
19958102 18 18114728379382909837
20028762 73 18338794504033811170
21033648 29 14261088558060882337
21279426 13 18334848421061851581
221357 26 18409167748487394843
22393880 68 18187074031833423661
23379529 103 18341619179174179702
23559900 14 18337663204804353809
25269216 80 15357988884760540339
2748736 6 8574431984960267519
3004659 81 18186795911205098120
354706 132 17095526179699646215
4073 2 18335984263154041136
439807 62 18333732433802410183
44880168 125 17275390888930449014
46194498 28 17314505031688755613
463206 1 18336269040996824283
465052 167 18201722859995053140
474144 1 17532914031232275467
5104073 3 17988927781802351801
6433294 58 18410007775381155866
6823239 73 18340194250490152528
7970288 3 18196651788030164558

> <PUBCHEM_SHAPE_MULTIPOLES>
562.25
15.61
4.91
0.96
2.34
0.11
0
12.83
-3.21
-0.26
0.5
-0.36
0.45
0.94

> <PUBCHEM_SHAPE_SELFOVERLAP>
1219.046

> <PUBCHEM_SHAPE_VOLUME>
307.3

> <PUBCHEM_COORDINATE_TYPE>
2
5
10

$$$$
