10993211
  -OEChem-03292013303D

 48 51  0     1  0  0  0  0  0999 V2000
   -0.2304    3.2739    0.0703 S   0  0  0  0  0  0  0  0  0  0  0  0
    2.4874    3.1812    1.4220 S   0  0  0  0  0  0  0  0  0  0  0  0
   -1.6605   -1.9566   -1.4664 O   0  0  0  0  0  0  0  0  0  0  0  0
   -4.9405   -1.8465    0.1046 O   0  0  0  0  0  0  0  0  0  0  0  0
   -1.8349    0.7739   -3.2866 O   0  0  0  0  0  0  0  0  0  0  0  0
    0.1848    1.6102   -2.6146 O   0  0  0  0  0  0  0  0  0  0  0  0
   -2.4266    0.1505   -0.7346 N   0  0  0  0  0  0  0  0  0  0  0  0
    1.4545    1.1920    0.1342 N   0  0  0  0  0  0  0  0  0  0  0  0
    3.0074   -2.8006   -0.4304 N   0  0  0  0  0  0  0  0  0  0  0  0
   -2.9062    0.2850    0.6560 C   0  0  1  0  0  0  0  0  0  0  0  0
   -2.7083   -1.2604    0.7581 C   0  0  2  0  0  0  0  0  0  0  0  0
   -2.0251    1.4065    1.2456 C   0  0  2  0  0  0  0  0  0  0  0  0
   -2.1847   -1.1879   -0.6924 C   0  0  0  0  0  0  0  0  0  0  0  0
   -3.8578   -2.2151    0.9602 C   0  0  1  0  0  0  0  0  0  0  0  0
   -1.5249    1.1291   -1.0347 C   0  0  0  0  0  0  0  0  0  0  0  0
   -1.2681    1.9053    0.0269 C   0  0  0  0  0  0  0  0  0  0  0  0
   -1.1367    0.9646    2.3968 C   0  0  0  0  0  0  0  0  0  0  0  0
   -4.3428   -2.2006    2.4062 C   0  0  0  0  0  0  0  0  0  0  0  0
   -0.9421    1.2088   -2.3701 C   0  0  0  0  0  0  0  0  0  0  0  0
    1.2597    2.4276    0.5072 C   0  0  0  0  0  0  0  0  0  0  0  0
    3.1449   -0.5457    0.3330 C   0  0  0  0  0  0  0  0  0  0  0  0
    2.6871    0.7878    0.6086 C   0  0  0  0  0  0  0  0  0  0  0  0
    4.3200   -2.5593    0.2033 C   0  0  2  0  0  0  0  0  0  0  0  0
    2.2979   -1.5049   -0.4451 C   0  0  0  0  0  0  0  0  0  0  0  0
    4.2861   -1.1462    0.6864 C   0  0  0  0  0  0  0  0  0  0  0  0
    3.3936    1.7282    1.3289 C   0  0  0  0  0  0  0  0  0  0  0  0
    5.4663   -2.8010   -0.7734 C   0  0  0  0  0  0  0  0  0  0  0  0
   -3.9644    0.5833    0.6698 H   0  0  0  0  0  0  0  0  0  0  0  0
   -1.8865   -1.5359    1.4350 H   0  0  0  0  0  0  0  0  0  0  0  0
   -2.6816    2.2115    1.6027 H   0  0  0  0  0  0  0  0  0  0  0  0
   -3.5531   -3.2335    0.6936 H   0  0  0  0  0  0  0  0  0  0  0  0
   -0.3987    0.2197    2.0811 H   0  0  0  0  0  0  0  0  0  0  0  0
   -1.7416    0.5082    3.1880 H   0  0  0  0  0  0  0  0  0  0  0  0
   -0.6002    1.8103    2.8385 H   0  0  0  0  0  0  0  0  0  0  0  0
   -3.5408   -2.4802    3.0963 H   0  0  0  0  0  0  0  0  0  0  0  0
   -5.1800   -2.8937    2.5394 H   0  0  0  0  0  0  0  0  0  0  0  0
   -4.7055   -1.2053    2.6863 H   0  0  0  0  0  0  0  0  0  0  0  0
   -5.6580   -2.4868    0.2483 H   0  0  0  0  0  0  0  0  0  0  0  0
   -1.4753    0.8135   -4.1985 H   0  0  0  0  0  0  0  0  0  0  0  0
    4.4324   -3.2313    1.0625 H   0  0  0  0  0  0  0  0  0  0  0  0
    1.3061   -1.6222    0.0062 H   0  0  0  0  0  0  0  0  0  0  0  0
    2.1744   -1.1691   -1.4805 H   0  0  0  0  0  0  0  0  0  0  0  0
    5.0846   -0.6951    1.2586 H   0  0  0  0  0  0  0  0  0  0  0  0
    2.4785   -3.4575    0.1441 H   0  0  0  0  0  0  0  0  0  0  0  0
    4.3657    1.6508    1.7957 H   0  0  0  0  0  0  0  0  0  0  0  0
    5.3971   -2.1475   -1.6509 H   0  0  0  0  0  0  0  0  0  0  0  0
    5.4629   -3.8382   -1.1259 H   0  0  0  0  0  0  0  0  0  0  0  0
    6.4332   -2.6137   -0.2931 H   0  0  0  0  0  0  0  0  0  0  0  0
  1 16  1  0  0  0  0
  1 20  1  0  0  0  0
  2 20  1  0  0  0  0
  2 26  1  0  0  0  0
  3 13  2  0  0  0  0
  4 14  1  0  0  0  0
  4 38  1  0  0  0  0
  5 19  1  0  0  0  0
  5 39  1  0  0  0  0
  6 19  2  0  0  0  0
  7 10  1  0  0  0  0
  7 13  1  0  0  0  0
  7 15  1  0  0  0  0
  8 20  2  0  0  0  0
  8 22  1  0  0  0  0
  9 23  1  0  0  0  0
  9 24  1  0  0  0  0
  9 44  1  0  0  0  0
 10 11  1  0  0  0  0
 10 12  1  0  0  0  0
 10 28  1  0  0  0  0
 11 13  1  0  0  0  0
 11 14  1  0  0  0  0
 11 29  1  0  0  0  0
 12 16  1  0  0  0  0
 12 17  1  0  0  0  0
 12 30  1  0  0  0  0
 14 18  1  0  0  0  0
 14 31  1  0  0  0  0
 15 16  2  0  0  0  0
 15 19  1  0  0  0  0
 17 32  1  0  0  0  0
 17 33  1  0  0  0  0
 17 34  1  0  0  0  0
 18 35  1  0  0  0  0
 18 36  1  0  0  0  0
 18 37  1  0  0  0  0
 21 22  1  0  0  0  0
 21 24  1  0  0  0  0
 21 25  2  0  0  0  0
 22 26  2  0  0  0  0
 23 25  1  0  0  0  0
 23 27  1  0  0  0  0
 23 40  1  0  0  0  0
 24 41  1  0  0  0  0
 24 42  1  0  0  0  0
 25 43  1  0  0  0  0
 26 45  1  0  0  0  0
 27 46  1  0  0  0  0
 27 47  1  0  0  0  0
 27 48  1  0  0  0  0
M  END
> <PUBCHEM_COMPOUND_CID>
10993211

> <PUBCHEM_CONFORMER_RMSD>
0.8

> <PUBCHEM_CONFORMER_DIVERSEORDER>
7
122
18
108
89
136
102
120
21
23
76
83
81
34
94
14
85
5
105
111
126
43
71
31
64
66
125
124
88
17
57
19
127
99
60
104
114
135
121
80
11
62
101
49
63
87
96
134
48
44
8
107
73
58
12
36
82
24
77
72
90
95
103
51
35
61
32
65
33
47
97
37
30
133
41
92
79
117
40
109
131
22
84
100
110
67
75
15
59
68
86
106
116
26
9
1
55
91
129
118
113
28
74
119
112
52
123
130
128
53
13
54
25
93
132
20
70
115
46
50
98
42
29
39
2
56
27
78
3
38
6
69
45
4
10
16

> <PUBCHEM_MMFF94_PARTIAL_CHARGES>
29
1 -0.16
10 0.22
11 0.05
12 0.14
13 0.58
14 0.28
15 0.12
16 -0.04
19 0.71
2 -0.08
20 0.43
21 -0.09
22 0.18
23 0.41
24 0.41
25 -0.29
26 -0.11
3 -0.57
38 0.4
39 0.5
4 -0.68
43 0.15
44 0.36
45 0.15
5 -0.65
6 -0.57
7 -0.39
8 -0.57
9 -0.9

> <PUBCHEM_EFFECTIVE_ROTOR_COUNT>
6

> <PUBCHEM_PHARMACOPHORE_FEATURES>
12
1 3 acceptor
1 4 acceptor
1 4 donor
1 5 acceptor
1 6 acceptor
1 8 acceptor
1 9 cation
1 9 donor
3 5 6 19 anion
5 2 8 20 22 26 rings
5 9 21 23 24 25 rings
7 7 10 11 12 13 15 16 rings

> <PUBCHEM_HEAVY_ATOM_COUNT>
27

> <PUBCHEM_ATOM_DEF_STEREO_COUNT>
5

> <PUBCHEM_ATOM_UDEF_STEREO_COUNT>
0

> <PUBCHEM_BOND_DEF_STEREO_COUNT>
0

> <PUBCHEM_BOND_UDEF_STEREO_COUNT>
0

> <PUBCHEM_ISOTOPIC_ATOM_COUNT>
0

> <PUBCHEM_COMPONENT_COUNT>
1

> <PUBCHEM_CACTVS_TAUTO_COUNT>
1

> <PUBCHEM_CONFORMER_ID>
00A7BE3B00000007

> <PUBCHEM_MMFF94_ENERGY>
69.7388

> <PUBCHEM_FEATURE_SELFOVERLAP>
60.952

> <PUBCHEM_SHAPE_FINGERPRINT>
10064457 181 17042889560201087313
10764073 3 18197230161432587689
107951 10 17475797546270027532
11135609 12 18335695044915148984
11578080 2 18260544528346758237
11582403 64 15882837503845903676
12156800 1 16837469615380897218
12363563 72 16733813337055965177
12422481 6 18266764462363159369
12553582 1 17983283842983026218
12633257 1 18057620784063805849
13135754 10 17628662768333467858
13583140 156 18059006310813487745
13911987 19 17905583842961425164
14363568 33 18271252715819166282
14863182 85 17902243539108913752
15422964 175 18337665424954143464
15475509 8 17530956983104212343
15664445 248 17096078229220813925
17974551 9 18272381857988955649
1813 80 17313667169737358113
19319366 153 17484522587521735544
20775530 9 18333453148816461242
21285901 2 17678159702271683685
23419403 2 18336815464359092053
23557571 272 17677314121789958525
23559900 14 18334572455895471029
23598288 3 17203889669113887313
3737641 26 18412553132537086464
392239 28 16843856833683625680
469060 322 17677629591469922218
484985 159 17975977566219619122
5486654 36 18269846323997795184
58260988 647 18198599143577063847
6287921 2 18192155017068140774
7097593 13 18129949004128483929

> <PUBCHEM_SHAPE_MULTIPOLES>
524.93
8.79
4.09
2.28
3.88
0.28
-1.26
-9.85
2.8
2.59
0.72
-2
0.61
2.25

> <PUBCHEM_SHAPE_SELFOVERLAP>
1111.427

> <PUBCHEM_SHAPE_VOLUME>
298.6

> <PUBCHEM_COORDINATE_TYPE>
2
5
10

$$$$
