11000760
  -OEChem-03292013303D

 31 33  0     0  0  0  0  0  0999 V2000
   -0.3254   -1.5434    0.0004 O   0  0  0  0  0  0  0  0  0  0  0  0
    1.9870   -2.9302    0.0002 O   0  0  0  0  0  0  0  0  0  0  0  0
   -0.3811    2.5477    0.0012 O   0  0  0  0  0  0  0  0  0  0  0  0
    4.5269    1.1079    0.0000 O   0  0  0  0  0  0  0  0  0  0  0  0
    4.4173   -1.6375   -0.0006 O   0  0  0  0  0  0  0  0  0  0  0  0
   -2.9861    2.5273   -0.0007 O   0  0  0  0  0  0  0  0  0  0  0  0
   -5.0627   -1.7394   -0.0002 O   0  0  0  0  0  0  0  0  0  0  0  0
    0.9032    0.5671    0.0000 C   0  0  0  0  0  0  0  0  0  0  0  0
    0.8456   -0.8263    0.0000 C   0  0  0  0  0  0  0  0  0  0  0  0
    2.1350    1.2268    0.0001 C   0  0  0  0  0  0  0  0  0  0  0  0
   -1.5997    0.5398   -0.0002 C   0  0  0  0  0  0  0  0  0  0  0  0
   -0.3566    1.3263    0.0001 C   0  0  0  0  0  0  0  0  0  0  0  0
   -1.5117   -0.8520    0.0002 C   0  0  0  0  0  0  0  0  0  0  0  0
    2.0295   -1.5667   -0.0002 C   0  0  0  0  0  0  0  0  0  0  0  0
    3.3142    0.4816    0.0001 C   0  0  0  0  0  0  0  0  0  0  0  0
    3.2619   -0.9124   -0.0002 C   0  0  0  0  0  0  0  0  0  0  0  0
   -2.8456    1.1725   -0.0004 C   0  0  0  0  0  0  0  0  0  0  0  0
    2.2610    2.7184   -0.0002 C   0  0  0  0  0  0  0  0  0  0  0  0
   -2.6791   -1.6181    0.0004 C   0  0  0  0  0  0  0  0  0  0  0  0
   -4.0082    0.4016   -0.0003 C   0  0  0  0  0  0  0  0  0  0  0  0
   -3.9255   -0.9910    0.0001 C   0  0  0  0  0  0  0  0  0  0  0  0
    1.8816    3.1343    0.9390 H   0  0  0  0  0  0  0  0  0  0  0  0
    3.2802    3.0944   -0.1207 H   0  0  0  0  0  0  0  0  0  0  0  0
    1.7201    3.1471   -0.8510 H   0  0  0  0  0  0  0  0  0  0  0  0
   -2.6194   -2.7038    0.0006 H   0  0  0  0  0  0  0  0  0  0  0  0
   -4.9789    0.8920   -0.0006 H   0  0  0  0  0  0  0  0  0  0  0  0
    1.0545   -3.2078    0.0004 H   0  0  0  0  0  0  0  0  0  0  0  0
    4.5144    1.8018    0.6807 H   0  0  0  0  0  0  0  0  0  0  0  0
    5.1681   -1.0187   -0.0002 H   0  0  0  0  0  0  0  0  0  0  0  0
   -2.1182    2.9591   -0.0018 H   0  0  0  0  0  0  0  0  0  0  0  0
   -5.8320   -1.1443   -0.0005 H   0  0  0  0  0  0  0  0  0  0  0  0
  1  9  1  0  0  0  0
  1 13  1  0  0  0  0
  2 14  1  0  0  0  0
  2 27  1  0  0  0  0
  3 12  2  0  0  0  0
  4 15  1  0  0  0  0
  4 28  1  0  0  0  0
  5 16  1  0  0  0  0
  5 29  1  0  0  0  0
  6 17  1  0  0  0  0
  6 30  1  0  0  0  0
  7 21  1  0  0  0  0
  7 31  1  0  0  0  0
  8  9  1  0  0  0  0
  8 10  2  0  0  0  0
  8 12  1  0  0  0  0
  9 14  2  0  0  0  0
 10 15  1  0  0  0  0
 10 18  1  0  0  0  0
 11 12  1  0  0  0  0
 11 13  1  0  0  0  0
 11 17  2  0  0  0  0
 13 19  2  0  0  0  0
 14 16  1  0  0  0  0
 15 16  2  0  0  0  0
 17 20  1  0  0  0  0
 18 22  1  0  0  0  0
 18 23  1  0  0  0  0
 18 24  1  0  0  0  0
 19 21  1  0  0  0  0
 19 25  1  0  0  0  0
 20 21  2  0  0  0  0
 20 26  1  0  0  0  0
M  END
> <PUBCHEM_COMPOUND_CID>
11000760

> <PUBCHEM_CONFORMER_RMSD>
0.6

> <PUBCHEM_CONFORMER_DIVERSEORDER>
1

> <PUBCHEM_MMFF94_PARTIAL_CHARGES>
28
1 -0.17
10 -0.14
11 0.09
12 0.4
13 0.08
14 0.08
15 0.08
16 0.08
17 0.08
18 0.14
19 -0.15
2 -0.53
20 -0.15
21 0.08
25 0.15
26 0.15
27 0.45
28 0.45
29 0.45
3 -0.57
30 0.45
31 0.45
4 -0.53
5 -0.53
6 -0.53
7 -0.53
8 0.09
9 0.08

> <PUBCHEM_EFFECTIVE_ROTOR_COUNT>
0

> <PUBCHEM_PHARMACOPHORE_FEATURES>
10
1 1 acceptor
1 2 donor
1 3 acceptor
1 4 donor
1 5 donor
1 6 donor
1 7 donor
6 1 8 9 11 12 13 rings
6 11 13 17 19 20 21 rings
6 8 9 10 14 15 16 rings

> <PUBCHEM_HEAVY_ATOM_COUNT>
21

> <PUBCHEM_ATOM_DEF_STEREO_COUNT>
0

> <PUBCHEM_ATOM_UDEF_STEREO_COUNT>
0

> <PUBCHEM_BOND_DEF_STEREO_COUNT>
0

> <PUBCHEM_BOND_UDEF_STEREO_COUNT>
0

> <PUBCHEM_ISOTOPIC_ATOM_COUNT>
0

> <PUBCHEM_COMPONENT_COUNT>
1

> <PUBCHEM_CACTVS_TAUTO_COUNT>
492

> <PUBCHEM_CONFORMER_ID>
00A7DBB800000001

> <PUBCHEM_MMFF94_ENERGY>
71.1178

> <PUBCHEM_FEATURE_SELFOVERLAP>
50.815

> <PUBCHEM_SHAPE_FINGERPRINT>
10608611 8 18410008823437825309
10616163 171 18411984701762472263
10967382 1 18338799038663778436
1100329 8 17617376182241719681
11471102 20 18410289229046690222
11578080 2 17096913677663873814
11806522 49 18408603690389803671
12403259 226 18409724054100178172
13140716 1 18267299828997400993
138480 1 18410855469135379936
14178342 30 18339067182531858512
14223421 5 18410008836359663501
14790565 3 18193284211600820468
15196674 1 18410575071815145764
15230672 131 13723148744840618979
15442244 35 18267021648276534330
15536298 74 18342175566132560586
16945 1 18338797801776630628
17492 89 18411137996252867355
19591789 44 18411419535405485566
200 152 18202278135073816767
20510252 161 18343303656493998993
20645477 70 18335134349397505823
21267235 1 18410864256237488990
21421861 104 17970062245185929274
21501502 16 18410294679143819977
221490 88 18408610283270293058
2334 1 18410856602610613509
23366157 5 18041279954496194972
23402539 116 18341041935021101175
23463225 33 18410293618281701101
23559900 14 18411974737475288288
2748010 2 18410571807624202669
2871803 45 18335415790125319407
335352 9 18194682562071568317
34934 24 18410848854753420631
350125 39 18410859867134242913
4214541 1 18410573946707962913
46194498 28 17318707421629439359
474 4 17531533216795491644
5104073 3 18411418388654246328
7364860 26 18340486763538230808
7832392 63 18267303140470115320
8809292 202 18333455326216816978
9709674 26 18410017636705760251

> <PUBCHEM_SHAPE_MULTIPOLES>
391.08
8.21
2.86
0.58
2.08
0.46
0
-1.86
0
-0.64
0
0.01
0.01
0

> <PUBCHEM_SHAPE_SELFOVERLAP>
888.722

> <PUBCHEM_SHAPE_VOLUME>
204.2

> <PUBCHEM_COORDINATE_TYPE>
2
5
10

$$$$
