11014705
  -OEChem-03292013303D

 44 48  0     1  0  0  0  0  0999 V2000
   -5.2949   -0.4285    0.4255 O   0  0  0  0  0  0  0  0  0  0  0  0
   -3.0316    2.2683    0.8312 O   0  0  0  0  0  0  0  0  0  0  0  0
   -2.4514   -3.5139   -0.1325 O   0  0  0  0  0  0  0  0  0  0  0  0
   -5.5746    1.6664    1.1820 O   0  0  0  0  0  0  0  0  0  0  0  0
    4.5879    3.4608    0.1167 O   0  5  0  0  0  0  0  0  0  0  0  0
    2.5142    2.7408    0.0920 O   0  0  0  0  0  0  0  0  0  0  0  0
   -0.7088   -1.9967   -0.0532 N   0  0  0  0  0  0  0  0  0  0  0  0
    1.9913    0.3799    0.0228 N   0  0  0  0  0  0  0  0  0  0  0  0
    3.7487    2.5321    0.0883 N   0  3  0  0  0  0  0  0  0  0  0  0
   -3.5204    1.2169   -0.0046 C   0  0  2  0  0  0  0  0  0  0  0  0
   -2.5492    0.0687    0.0030 C   0  0  0  0  0  0  0  0  0  0  0  0
   -0.2665   -0.6846   -0.0123 C   0  0  0  0  0  0  0  0  0  0  0  0
   -3.0046   -1.1960   -0.0510 C   0  0  0  0  0  0  0  0  0  0  0  0
    0.4288   -2.9391   -0.0770 C   0  0  0  0  0  0  0  0  0  0  0  0
   -1.1202    0.3419    0.0115 C   0  0  0  0  0  0  0  0  0  0  0  0
    1.6031   -2.0173   -0.0480 C   0  0  0  0  0  0  0  0  0  0  0  0
    1.1895   -0.6934   -0.0104 C   0  0  0  0  0  0  0  0  0  0  0  0
   -2.0439   -2.3559   -0.0815 C   0  0  0  0  0  0  0  0  0  0  0  0
   -3.7342    1.7644   -1.4175 C   0  0  0  0  0  0  0  0  0  0  0  0
   -4.4654   -1.4888   -0.0982 C   0  0  0  0  0  0  0  0  0  0  0  0
   -4.8693    0.8445    0.5996 C   0  0  0  0  0  0  0  0  0  0  0  0
    2.9519   -2.2824   -0.0527 C   0  0  0  0  0  0  0  0  0  0  0  0
    3.8421   -1.1962   -0.0198 C   0  0  0  0  0  0  0  0  0  0  0  0
    3.3160    0.1264    0.0175 C   0  0  0  0  0  0  0  0  0  0  0  0
   -4.6884    2.9416   -1.4126 C   0  0  0  0  0  0  0  0  0  0  0  0
    4.2167    1.1859    0.0499 C   0  0  0  0  0  0  0  0  0  0  0  0
    5.2309   -1.4016   -0.0236 C   0  0  0  0  0  0  0  0  0  0  0  0
    5.5976    0.9745    0.0461 C   0  0  0  0  0  0  0  0  0  0  0  0
    6.1049   -0.3186    0.0088 C   0  0  0  0  0  0  0  0  0  0  0  0
    0.3779   -3.5327   -0.9946 H   0  0  0  0  0  0  0  0  0  0  0  0
    0.3730   -3.5829    0.8057 H   0  0  0  0  0  0  0  0  0  0  0  0
   -0.7693    1.3676    0.0290 H   0  0  0  0  0  0  0  0  0  0  0  0
   -2.7786    2.1101   -1.8323 H   0  0  0  0  0  0  0  0  0  0  0  0
   -4.1216    0.9892   -2.0901 H   0  0  0  0  0  0  0  0  0  0  0  0
   -4.6963   -2.3707    0.5085 H   0  0  0  0  0  0  0  0  0  0  0  0
   -4.7875   -1.6939   -1.1245 H   0  0  0  0  0  0  0  0  0  0  0  0
    3.3101   -3.3071   -0.0816 H   0  0  0  0  0  0  0  0  0  0  0  0
   -4.7123    3.3932   -2.4108 H   0  0  0  0  0  0  0  0  0  0  0  0
   -4.3847    3.7258   -0.7126 H   0  0  0  0  0  0  0  0  0  0  0  0
   -5.7152    2.6411   -1.1844 H   0  0  0  0  0  0  0  0  0  0  0  0
   -2.8444    1.8977    1.7112 H   0  0  0  0  0  0  0  0  0  0  0  0
    5.6423   -2.4083   -0.0521 H   0  0  0  0  0  0  0  0  0  0  0  0
    6.3120    1.7936    0.0710 H   0  0  0  0  0  0  0  0  0  0  0  0
    7.1779   -0.4847    0.0056 H   0  0  0  0  0  0  0  0  0  0  0  0
  1 20  1  0  0  0  0
  1 21  1  0  0  0  0
  2 10  1  0  0  0  0
  2 41  1  0  0  0  0
  3 18  2  0  0  0  0
  4 21  2  0  0  0  0
  5  9  1  0  0  0  0
  6  9  2  0  0  0  0
  7 12  1  0  0  0  0
  7 14  1  0  0  0  0
  7 18  1  0  0  0  0
  8 17  1  0  0  0  0
  8 24  2  0  0  0  0
  9 26  1  0  0  0  0
 10 11  1  0  0  0  0
 10 19  1  0  0  0  0
 10 21  1  0  0  0  0
 11 13  2  0  0  0  0
 11 15  1  0  0  0  0
 12 15  2  0  0  0  0
 12 17  1  0  0  0  0
 13 18  1  0  0  0  0
 13 20  1  0  0  0  0
 14 16  1  0  0  0  0
 14 30  1  0  0  0  0
 14 31  1  0  0  0  0
 15 32  1  0  0  0  0
 16 17  2  0  0  0  0
 16 22  1  0  0  0  0
 19 25  1  0  0  0  0
 19 33  1  0  0  0  0
 19 34  1  0  0  0  0
 20 35  1  0  0  0  0
 20 36  1  0  0  0  0
 22 23  2  0  0  0  0
 22 37  1  0  0  0  0
 23 24  1  0  0  0  0
 23 27  1  0  0  0  0
 24 26  1  0  0  0  0
 25 38  1  0  0  0  0
 25 39  1  0  0  0  0
 25 40  1  0  0  0  0
 26 28  2  0  0  0  0
 27 29  2  0  0  0  0
 27 42  1  0  0  0  0
 28 29  1  0  0  0  0
 28 43  1  0  0  0  0
 29 44  1  0  0  0  0
M  CHG  2   5  -1   9   1
M  END
> <PUBCHEM_COMPOUND_CID>
11014705

> <PUBCHEM_CONFORMER_RMSD>
0.8

> <PUBCHEM_CONFORMER_DIVERSEORDER>
1

> <PUBCHEM_MMFF94_PARTIAL_CHARGES>
32
1 -0.43
10 0.48
11 -0.14
12 0.08
13 -0.12
14 0.44
15 -0.15
16 -0.14
17 0.34
18 0.62
2 -0.68
20 0.42
21 0.66
22 -0.15
24 0.31
26 0.13
27 -0.15
28 -0.15
29 -0.15
3 -0.57
32 0.15
37 0.15
4 -0.57
41 0.4
42 0.15
43 0.15
44 0.15
5 -0.52
6 -0.52
7 -0.47
8 -0.62
9 0.91

> <PUBCHEM_EFFECTIVE_ROTOR_COUNT>
2.8

> <PUBCHEM_PHARMACOPHORE_FEATURES>
14
1 2 acceptor
1 2 donor
1 25 hydrophobe
1 3 acceptor
1 4 acceptor
1 5 acceptor
1 5 anion
1 6 acceptor
1 8 acceptor
5 7 12 14 16 17 rings
6 1 10 11 13 20 21 rings
6 23 24 26 27 28 29 rings
6 7 11 12 13 15 18 rings
6 8 16 17 22 23 24 rings

> <PUBCHEM_HEAVY_ATOM_COUNT>
29

> <PUBCHEM_ATOM_DEF_STEREO_COUNT>
1

> <PUBCHEM_ATOM_UDEF_STEREO_COUNT>
0

> <PUBCHEM_BOND_DEF_STEREO_COUNT>
0

> <PUBCHEM_BOND_UDEF_STEREO_COUNT>
0

> <PUBCHEM_ISOTOPIC_ATOM_COUNT>
0

> <PUBCHEM_COMPONENT_COUNT>
1

> <PUBCHEM_CACTVS_TAUTO_COUNT>
1

> <PUBCHEM_CONFORMER_ID>
00A8123100000001

> <PUBCHEM_MMFF94_ENERGY>
93.603

> <PUBCHEM_FEATURE_SELFOVERLAP>
71.409

> <PUBCHEM_SHAPE_FINGERPRINT>
10 15 18113625551565419313
10411042 1 17042605886481488302
11405975 8 18409727387495661258
11578080 2 17058634391170835226
11595378 159 16877932802755639604
12107183 9 17977380543130807202
12403259 415 18261960622392814095
12769317 202 18341040831404345080
12788726 201 17131561518201359049
12925494 130 18265891359504874801
13140716 1 18408889555013339314
13402501 40 18262235525838011972
13583140 156 16805592656057410071
13785724 45 17907015080894297586
14790565 3 18412268328322444059
15081414 286 18269560429726713182
15196674 1 18411700997734749082
15320467 1 17330274966046982888
15927050 60 13222441998643130406
1601671 61 18410009902096959446
16760501 71 18411427215197193385
17844677 252 18411144670720975610
18681886 176 18272646853645668706
20715895 44 18339636720664418160
21033648 144 18338226159031182748
21033648 29 18334845096098398281
21033650 10 14907639877540960202
21133410 127 17899123090835067884
21236236 1 18413387661799700215
21279426 13 18340491054611720414
21315764 268 18335416885051719285
21709351 56 18413383224823891414
23227448 37 18412261757080776503
23559900 14 18272652321117937182
245318 6 17462861096401046684
2838139 119 18409440362893449679
335352 9 18411702072141211726
3380486 145 17396999318915520850
338550 245 18334581286696384956
350125 39 18410295834500591554
3545911 37 18412266120835945258
3680242 22 18335699395801519834
4073 2 18114749351771870314
4144715 1 18334584525186537930
4214541 1 18411138043211729058
5104073 3 18334573585867502970

> <PUBCHEM_SHAPE_MULTIPOLES>
546.65
13.85
3.76
0.81
3.17
0.57
-0.1
6.89
0.57
-0.16
-0.35
-0.98
0.41
0.62

> <PUBCHEM_SHAPE_SELFOVERLAP>
1244.762

> <PUBCHEM_SHAPE_VOLUME>
282.6

> <PUBCHEM_COORDINATE_TYPE>
2
5
10

$$$$
