11015986
  -OEChem-03292013303D

 65 68  0     1  0  0  0  0  0999 V2000
   -3.9502    0.8251    0.2603 O   0  0  0  0  0  0  0  0  0  0  0  0
   -2.0788    0.0617    1.4261 O   0  0  0  0  0  0  0  0  0  0  0  0
   -5.3698   -2.9982   -0.2233 O   0  0  0  0  0  0  0  0  0  0  0  0
   -6.4035   -0.8614   -1.8729 O   0  0  0  0  0  0  0  0  0  0  0  0
   -2.5274   -2.5373    0.4003 O   0  0  0  0  0  0  0  0  0  0  0  0
   -5.0130    3.0347   -0.9825 O   0  0  0  0  0  0  0  0  0  0  0  0
    4.4099    2.5945   -1.9749 O   0  0  0  0  0  0  0  0  0  0  0  0
    0.4574   -0.9489    1.7289 O   0  0  0  0  0  0  0  0  0  0  0  0
   -4.6175   -1.8383   -0.5826 C   0  0  1  0  0  0  0  0  0  0  0  0
   -5.5906   -0.6671   -0.7186 C   0  0  1  0  0  0  0  0  0  0  0  0
   -3.5650   -1.5615    0.4912 C   0  0  2  0  0  0  0  0  0  0  0  0
   -4.8327    0.6562   -0.8505 C   0  0  1  0  0  0  0  0  0  0  0  0
   -2.9389   -0.1784    0.3127 C   0  0  1  0  0  0  0  0  0  0  0  0
   -5.7813    1.8506   -0.8701 C   0  0  0  0  0  0  0  0  0  0  0  0
    4.0210    1.8565   -0.8193 C   0  0  1  0  0  0  0  0  0  0  0  0
    5.0891    0.8082   -0.4719 C   0  0  0  0  0  0  0  0  0  0  0  0
    3.7940    2.8313    0.3546 C   0  0  0  0  0  0  0  0  0  0  0  0
    5.3879   -0.1623   -1.6269 C   0  0  0  0  0  0  0  0  0  0  0  0
   -1.0000    0.8632    1.2143 C   0  0  0  0  0  0  0  0  0  0  0  0
    2.3832    3.4556    0.3767 C   0  0  0  0  0  0  0  0  0  0  0  0
    5.9837   -1.4939   -1.1321 C   0  0  0  0  0  0  0  0  0  0  0  0
    1.2203    2.5404    0.7063 C   0  0  0  0  0  0  0  0  0  0  0  0
    0.2950    0.3851    1.3865 C   0  0  0  0  0  0  0  0  0  0  0  0
    4.9989   -2.6796   -1.1353 C   0  0  0  0  0  0  0  0  0  0  0  0
   -1.1899    2.1778    0.7887 C   0  0  0  0  0  0  0  0  0  0  0  0
    1.3917    1.2396    1.1917 C   0  0  0  0  0  0  0  0  0  0  0  0
   -0.0909    3.0042    0.5243 C   0  0  0  0  0  0  0  0  0  0  0  0
    3.7320   -2.4303   -0.3571 C   0  0  0  0  0  0  0  0  0  0  0  0
    1.4772   -1.5822    1.0443 C   0  0  0  0  0  0  0  0  0  0  0  0
    2.5409   -2.1438   -1.0403 C   0  0  0  0  0  0  0  0  0  0  0  0
    3.7433   -2.3962    1.0451 C   0  0  0  0  0  0  0  0  0  0  0  0
    1.4112   -1.7256   -0.3438 C   0  0  0  0  0  0  0  0  0  0  0  0
    2.6129   -1.9797    1.7501 C   0  0  0  0  0  0  0  0  0  0  0  0
   -4.1459   -2.0618   -1.5474 H   0  0  0  0  0  0  0  0  0  0  0  0
   -6.2574   -0.6447    0.1520 H   0  0  0  0  0  0  0  0  0  0  0  0
   -4.0063   -1.6602    1.4901 H   0  0  0  0  0  0  0  0  0  0  0  0
   -4.2385    0.6803   -1.7741 H   0  0  0  0  0  0  0  0  0  0  0  0
   -2.3470   -0.1547   -0.6145 H   0  0  0  0  0  0  0  0  0  0  0  0
   -6.3632    1.9162    0.0552 H   0  0  0  0  0  0  0  0  0  0  0  0
   -6.4709    1.8058   -1.7177 H   0  0  0  0  0  0  0  0  0  0  0  0
    3.0942    1.3345   -1.0765 H   0  0  0  0  0  0  0  0  0  0  0  0
   -4.7387   -3.7299   -0.1125 H   0  0  0  0  0  0  0  0  0  0  0  0
   -5.8217   -0.8711   -2.6521 H   0  0  0  0  0  0  0  0  0  0  0  0
    4.7562    0.2562    0.4129 H   0  0  0  0  0  0  0  0  0  0  0  0
    6.0263    1.3100   -0.1990 H   0  0  0  0  0  0  0  0  0  0  0  0
   -2.1188   -2.4625   -0.4790 H   0  0  0  0  0  0  0  0  0  0  0  0
    4.5180    3.6532    0.2802 H   0  0  0  0  0  0  0  0  0  0  0  0
    3.9856    2.3398    1.3156 H   0  0  0  0  0  0  0  0  0  0  0  0
    4.4953   -0.3411   -2.2358 H   0  0  0  0  0  0  0  0  0  0  0  0
    6.1155    0.3218   -2.2909 H   0  0  0  0  0  0  0  0  0  0  0  0
    2.3839    4.2584    1.1252 H   0  0  0  0  0  0  0  0  0  0  0  0
    2.1957    3.9227   -0.5986 H   0  0  0  0  0  0  0  0  0  0  0  0
    6.4188   -1.3705   -0.1327 H   0  0  0  0  0  0  0  0  0  0  0  0
    6.8163   -1.7653   -1.7939 H   0  0  0  0  0  0  0  0  0  0  0  0
    5.4990   -3.5654   -0.7237 H   0  0  0  0  0  0  0  0  0  0  0  0
    4.7514   -2.9357   -2.1735 H   0  0  0  0  0  0  0  0  0  0  0  0
   -2.1860    2.5874    0.6532 H   0  0  0  0  0  0  0  0  0  0  0  0
    2.3906    0.8641    1.3855 H   0  0  0  0  0  0  0  0  0  0  0  0
   -4.4151    3.0709   -0.2165 H   0  0  0  0  0  0  0  0  0  0  0  0
   -0.2668    4.0182    0.1724 H   0  0  0  0  0  0  0  0  0  0  0  0
    5.2720    3.0050   -1.7907 H   0  0  0  0  0  0  0  0  0  0  0  0
    2.5056   -2.1830   -2.1263 H   0  0  0  0  0  0  0  0  0  0  0  0
    4.6532   -2.6317    1.5914 H   0  0  0  0  0  0  0  0  0  0  0  0
    0.5162   -1.4445   -0.8918 H   0  0  0  0  0  0  0  0  0  0  0  0
    2.6548   -1.8857    2.8313 H   0  0  0  0  0  0  0  0  0  0  0  0
  1 12  1  0  0  0  0
  1 13  1  0  0  0  0
  2 13  1  0  0  0  0
  2 19  1  0  0  0  0
  3  9  1  0  0  0  0
  3 42  1  0  0  0  0
  4 10  1  0  0  0  0
  4 43  1  0  0  0  0
  5 11  1  0  0  0  0
  5 46  1  0  0  0  0
  6 14  1  0  0  0  0
  6 59  1  0  0  0  0
  7 15  1  0  0  0  0
  7 61  1  0  0  0  0
  8 23  1  0  0  0  0
  8 29  1  0  0  0  0
  9 10  1  0  0  0  0
  9 11  1  0  0  0  0
  9 34  1  0  0  0  0
 10 12  1  0  0  0  0
 10 35  1  0  0  0  0
 11 13  1  0  0  0  0
 11 36  1  0  0  0  0
 12 14  1  0  0  0  0
 12 37  1  0  0  0  0
 13 38  1  0  0  0  0
 14 39  1  0  0  0  0
 14 40  1  0  0  0  0
 15 16  1  0  0  0  0
 15 17  1  0  0  0  0
 15 41  1  0  0  0  0
 16 18  1  0  0  0  0
 16 44  1  0  0  0  0
 16 45  1  0  0  0  0
 17 20  1  0  0  0  0
 17 47  1  0  0  0  0
 17 48  1  0  0  0  0
 18 21  1  0  0  0  0
 18 49  1  0  0  0  0
 18 50  1  0  0  0  0
 19 23  2  0  0  0  0
 19 25  1  0  0  0  0
 20 22  1  0  0  0  0
 20 51  1  0  0  0  0
 20 52  1  0  0  0  0
 21 24  1  0  0  0  0
 21 53  1  0  0  0  0
 21 54  1  0  0  0  0
 22 26  2  0  0  0  0
 22 27  1  0  0  0  0
 23 26  1  0  0  0  0
 24 28  1  0  0  0  0
 24 55  1  0  0  0  0
 24 56  1  0  0  0  0
 25 27  2  0  0  0  0
 25 57  1  0  0  0  0
 26 58  1  0  0  0  0
 27 60  1  0  0  0  0
 28 30  2  0  0  0  0
 28 31  1  0  0  0  0
 29 32  2  0  0  0  0
 29 33  1  0  0  0  0
 30 32  1  0  0  0  0
 30 62  1  0  0  0  0
 31 33  2  0  0  0  0
 31 63  1  0  0  0  0
 32 64  1  0  0  0  0
 33 65  1  0  0  0  0
M  END
> <PUBCHEM_COMPOUND_CID>
11015986

> <PUBCHEM_CONFORMER_RMSD>
0.8

> <PUBCHEM_CONFORMER_DIVERSEORDER>
1
74
35
170
203
486
45
337
116
375
366
235
488
408
240
13
19
384
184
58
27
355
146
476
482
83
255
103
194
114
348
171
334
412
71
12
230
402
273
443
63
48
317
229
454
291
6
277
69
52
178
62
190
382
354
196
416
361
253
237
411
28
347
66
338
225
425
192
423
267
173
96
11
316
39
84
254
55
307
389
335
200
186
418
481
33
207
377
434
5
73
65
298
17
346
99
125
217
226
440
223
473
320
40
82
372
64
353
93
227
100
401
413
81
424
21
292
432
278
243
95
23
70
37
439
179
471
378
76
318
245
134
262
232
286
221
374
367
251
487
174
387
202
275
137
465
336
426
393
124
162
373
121
276
215
258
256
197
478
189
435
333
315
38
22
483
46
414
271
175
349
363
92
404
14
18
86
340
415
36
442
172
304
208
306
56
101
380
356
244
319
8
106
9
371
441
395
122
169
449
222
16
25
345
139
4
437
147
15
263
391
213
299
199
79
407
239
417
352
399
185
489
219
341
238
397
47
126
314
167
330
257
279
350
165
132
10
281
26
301
455
459
331
394
110
265
236
368
224
249
89
182
130
463
158
148
490
133
214
113
97
260
312
308
351
161
151
2
129
327
429
430
325
444
386
289
288
138
396
274
283
231
135
406
188
259
457
111
228
252
365
98
102
419
53
403
293
234
108
436
181
206
154
204
427
456
321
159
183
3
469
49
266
218
216
123
156
460
300
211
149
295
422
297
332
144
409
284
398
428
140
400
285
78
433
475
247
329
44
127
7
453
326
150
303
59
246
61
302
24
212
468
241
470
264
313
67
109
479
176
383
136
220
324
193
296
294
405
477
210
446
357
143
474
381
370
75
447
290
90
32
107
72
164
105
272
344
287
448
379
280
242
250
305
364
358
191
155
309
54
322
177
362
29
94
153
115
360
421
120
385
51
163
464
50
128
187
248
205
339
445
431
452
112
157
168
410
118
85
160
376
152
142
450
261
117
195
466
462
269
328
451
198
458
91
201
390
31
131
166
180
420
342
311
30
34
472
282
104
68
209
485
233
88
268
57
310
467
484
270
77
119
343
145
392
359
87
323
60
141
461
369
41
43
388
80
42
438
20
480

> <PUBCHEM_MMFF94_PARTIAL_CHARGES>
41
1 -0.56
10 0.28
11 0.28
12 0.28
13 0.56
14 0.28
15 0.28
19 0.08
2 -0.36
20 0.14
22 -0.14
23 0.08
24 0.14
25 -0.15
26 -0.15
27 -0.15
28 -0.14
29 0.08
3 -0.68
30 -0.15
31 -0.15
32 -0.15
33 -0.15
4 -0.68
42 0.4
43 0.4
46 0.4
5 -0.68
57 0.15
58 0.15
59 0.4
6 -0.68
60 0.15
61 0.4
62 0.15
63 0.15
64 0.15
65 0.15
7 -0.68
8 -0.17
9 0.28

> <PUBCHEM_EFFECTIVE_ROTOR_COUNT>
5.8

> <PUBCHEM_PHARMACOPHORE_FEATURES>
16
1 1 acceptor
1 2 acceptor
1 3 acceptor
1 3 donor
1 4 acceptor
1 4 donor
1 5 acceptor
1 5 donor
1 6 acceptor
1 6 donor
1 7 acceptor
1 7 donor
1 8 acceptor
6 1 9 10 11 12 13 rings
6 19 22 23 25 26 27 rings
6 28 29 30 31 32 33 rings

> <PUBCHEM_HEAVY_ATOM_COUNT>
33

> <PUBCHEM_ATOM_DEF_STEREO_COUNT>
6

> <PUBCHEM_ATOM_UDEF_STEREO_COUNT>
0

> <PUBCHEM_BOND_DEF_STEREO_COUNT>
0

> <PUBCHEM_BOND_UDEF_STEREO_COUNT>
0

> <PUBCHEM_ISOTOPIC_ATOM_COUNT>
0

> <PUBCHEM_COMPONENT_COUNT>
1

> <PUBCHEM_CACTVS_TAUTO_COUNT>
1

> <PUBCHEM_CONFORMER_ID>
00A8173200000001

> <PUBCHEM_MMFF94_ENERGY>
112.66

> <PUBCHEM_FEATURE_SELFOVERLAP>
81.269

> <PUBCHEM_SHAPE_FINGERPRINT>
10692045 39 11097851883202287616
10693767 8 18273210928273717230
11135609 187 18195813092571035840
11170278 133 17174601767738077869
11227688 84 17912077567425010391
12645989 146 17910409294958997926
12661589 4 16341999104665643911
12788726 201 18122624942374424713
12838863 1 18408880708404232394
13627167 48 17896023357682406533
13690498 29 18410011061881119599
13811026 1 18343018905148214264
13944108 23 16818812917910112109
14931854 50 18263667116680337468
15183329 4 18340485574085750877
16112460 7 18270127808092558857
17492 54 18339092574594432526
17909252 39 18201721751977639874
20775438 99 18200017586322884518
21344244 246 18269560601688850698
21781055 127 16844742915924054473
22393880 68 18410571824999406489
23559900 14 18271797991528594635
3004659 81 18410570647962148090
3298306 158 18194119839830515272
4066623 53 18115007624485948060
4098825 35 18408046213010720443
4280585 95 18340199670712850210
463206 1 18339659879571079600
484989 97 18266473173017612874
59755656 215 18191015906153138577
6004065 56 18272369824176543208
6669772 16 17842835805311672696

> <PUBCHEM_SHAPE_MULTIPOLES>
632.17
14.71
4.37
1.62
11.85
1.56
0.04
-4.12
9.27
-2.11
0.16
-0.69
-0.12
0.03

> <PUBCHEM_SHAPE_SELFOVERLAP>
1339.423

> <PUBCHEM_SHAPE_VOLUME>
347.4

> <PUBCHEM_COORDINATE_TYPE>
2
5
10

$$$$
