11015818
  -OEChem-03292013303D

 62 62  0     1  0  0  0  0  0999 V2000
   -4.2163    0.5645    1.3848 P   0  0  0  0  0  0  0  0  0  0  0  0
    0.9522   -2.1821   -1.0680 O   0  0  0  0  0  0  0  0  0  0  0  0
   -3.6120    0.7396   -0.0992 O   0  0  0  0  0  0  0  0  0  0  0  0
   -0.2710    1.5402   -3.5170 O   0  0  0  0  0  0  0  0  0  0  0  0
    2.6394   -1.5377   -2.4394 O   0  0  0  0  0  0  0  0  0  0  0  0
   -4.0150    2.0384    2.0191 O   0  0  0  0  0  0  0  0  0  0  0  0
   -5.8133    0.4775    1.1457 O   0  0  0  0  0  0  0  0  0  0  0  0
   -3.6257   -0.5573    2.1881 O   0  0  0  0  0  0  0  0  0  0  0  0
   -0.9319   -2.6838    0.3296 C   0  0  2  0  0  0  0  0  0  0  0  0
    0.5708   -2.4351    0.3034 C   0  0  1  0  0  0  0  0  0  0  0  0
   -1.6696   -1.4988   -0.3229 C   0  0  0  0  0  0  0  0  0  0  0  0
   -1.4330   -0.1641    0.4002 C   0  0  0  0  0  0  0  0  0  0  0  0
   -2.2106    1.0041   -0.2281 C   0  0  1  0  0  0  0  0  0  0  0  0
   -1.9178    1.2301   -1.7391 C   0  0  2  0  0  0  0  0  0  0  0  0
    1.4019   -3.5812    0.8946 C   0  0  1  0  0  0  0  0  0  0  0  0
   -1.3900   -2.9353    1.7669 C   0  0  0  0  0  0  0  0  0  0  0  0
   -0.4324    1.5026   -2.1000 C   0  0  2  0  0  0  0  0  0  0  0  0
   -2.8102    2.3608   -2.2851 C   0  0  0  0  0  0  0  0  0  0  0  0
    1.0771   -4.9621    0.3228 C   0  0  0  0  0  0  0  0  0  0  0  0
    2.8467   -3.2622    0.6472 C   0  0  0  0  0  0  0  0  0  0  0  0
    2.2670   -2.0248   -1.3778 C   0  0  0  0  0  0  0  0  0  0  0  0
    3.2430   -2.5089   -0.3839 C   0  0  0  0  0  0  0  0  0  0  0  0
    0.1461    2.7371   -1.4495 C   0  0  0  0  0  0  0  0  0  0  0  0
    1.1996    2.7765   -0.6183 C   0  0  0  0  0  0  0  0  0  0  0  0
    1.9406    1.5970   -0.2270 C   0  0  0  0  0  0  0  0  0  0  0  0
    2.9939    1.6378    0.6041 C   0  0  0  0  0  0  0  0  0  0  0  0
    3.4845    2.8679    1.1853 C   0  0  0  0  0  0  0  0  0  0  0  0
    4.5249    3.0050    2.0218 C   0  0  0  0  0  0  0  0  0  0  0  0
    5.0612    4.2545    2.6417 C   0  0  0  0  0  0  0  0  0  0  0  0
   -1.1803   -3.5619   -0.2797 H   0  0  0  0  0  0  0  0  0  0  0  0
    0.8097   -1.5291    0.8756 H   0  0  0  0  0  0  0  0  0  0  0  0
   -1.3726   -1.4281   -1.3742 H   0  0  0  0  0  0  0  0  0  0  0  0
   -2.7431   -1.7247   -0.3275 H   0  0  0  0  0  0  0  0  0  0  0  0
   -0.3758    0.0933    0.3270 H   0  0  0  0  0  0  0  0  0  0  0  0
   -1.5981   -0.2320    1.4722 H   0  0  0  0  0  0  0  0  0  0  0  0
   -1.9861    1.9232    0.3256 H   0  0  0  0  0  0  0  0  0  0  0  0
   -2.2416    0.3439   -2.3014 H   0  0  0  0  0  0  0  0  0  0  0  0
    1.2534   -3.6103    1.9809 H   0  0  0  0  0  0  0  0  0  0  0  0
   -1.0310   -3.8978    2.1433 H   0  0  0  0  0  0  0  0  0  0  0  0
   -1.0415   -2.1617    2.4581 H   0  0  0  0  0  0  0  0  0  0  0  0
   -2.4830   -2.9746    1.8178 H   0  0  0  0  0  0  0  0  0  0  0  0
    0.1132    0.6046   -1.8155 H   0  0  0  0  0  0  0  0  0  0  0  0
   -2.6284    2.5462   -3.3481 H   0  0  0  0  0  0  0  0  0  0  0  0
   -3.8705    2.1005   -2.1927 H   0  0  0  0  0  0  0  0  0  0  0  0
   -2.6564    3.2981   -1.7409 H   0  0  0  0  0  0  0  0  0  0  0  0
    1.7785   -5.7151    0.7008 H   0  0  0  0  0  0  0  0  0  0  0  0
    1.1381   -4.9729   -0.7713 H   0  0  0  0  0  0  0  0  0  0  0  0
    0.0738   -5.2928    0.6063 H   0  0  0  0  0  0  0  0  0  0  0  0
    3.5871   -3.6600    1.3349 H   0  0  0  0  0  0  0  0  0  0  0  0
    4.2920   -2.2969   -0.5540 H   0  0  0  0  0  0  0  0  0  0  0  0
   -0.3270    3.6849   -1.6980 H   0  0  0  0  0  0  0  0  0  0  0  0
   -0.4669    2.4408   -3.8259 H   0  0  0  0  0  0  0  0  0  0  0  0
    1.4686    3.7616   -0.2606 H   0  0  0  0  0  0  0  0  0  0  0  0
   -4.2198    2.1786    2.9680 H   0  0  0  0  0  0  0  0  0  0  0  0
   -6.3998    0.3132    1.9146 H   0  0  0  0  0  0  0  0  0  0  0  0
    1.6724    0.6247   -0.6127 H   0  0  0  0  0  0  0  0  0  0  0  0
    3.5116    0.7164    0.8553 H   0  0  0  0  0  0  0  0  0  0  0  0
    2.9884    3.8016    0.9481 H   0  0  0  0  0  0  0  0  0  0  0  0
    5.0686    2.1034    2.3023 H   0  0  0  0  0  0  0  0  0  0  0  0
    6.1039    4.4016    2.3451 H   0  0  0  0  0  0  0  0  0  0  0  0
    5.0181    4.1793    3.7324 H   0  0  0  0  0  0  0  0  0  0  0  0
    4.4895    5.1360    2.3356 H   0  0  0  0  0  0  0  0  0  0  0  0
  1  3  1  0  0  0  0
  1  6  1  0  0  0  0
  1  7  1  0  0  0  0
  1  8  2  0  0  0  0
  2 10  1  0  0  0  0
  2 21  1  0  0  0  0
  3 13  1  0  0  0  0
  4 17  1  0  0  0  0
  4 52  1  0  0  0  0
  5 21  2  0  0  0  0
  6 54  1  0  0  0  0
  7 55  1  0  0  0  0
  9 10  1  0  0  0  0
  9 11  1  0  0  0  0
  9 16  1  0  0  0  0
  9 30  1  0  0  0  0
 10 15  1  0  0  0  0
 10 31  1  0  0  0  0
 11 12  1  0  0  0  0
 11 32  1  0  0  0  0
 11 33  1  0  0  0  0
 12 13  1  0  0  0  0
 12 34  1  0  0  0  0
 12 35  1  0  0  0  0
 13 14  1  0  0  0  0
 13 36  1  0  0  0  0
 14 17  1  0  0  0  0
 14 18  1  0  0  0  0
 14 37  1  0  0  0  0
 15 19  1  0  0  0  0
 15 20  1  0  0  0  0
 15 38  1  0  0  0  0
 16 39  1  0  0  0  0
 16 40  1  0  0  0  0
 16 41  1  0  0  0  0
 17 23  1  0  0  0  0
 17 42  1  0  0  0  0
 18 43  1  0  0  0  0
 18 44  1  0  0  0  0
 18 45  1  0  0  0  0
 19 46  1  0  0  0  0
 19 47  1  0  0  0  0
 19 48  1  0  0  0  0
 20 22  2  0  0  0  0
 20 49  1  0  0  0  0
 21 22  1  0  0  0  0
 22 50  1  0  0  0  0
 23 24  2  0  0  0  0
 23 51  1  0  0  0  0
 24 25  1  0  0  0  0
 24 53  1  0  0  0  0
 25 26  2  0  0  0  0
 25 56  1  0  0  0  0
 26 27  1  0  0  0  0
 26 57  1  0  0  0  0
 27 28  2  0  0  0  0
 27 58  1  0  0  0  0
 28 29  1  0  0  0  0
 28 59  1  0  0  0  0
 29 60  1  0  0  0  0
 29 61  1  0  0  0  0
 29 62  1  0  0  0  0
M  END
> <PUBCHEM_COMPOUND_CID>
11015818

> <PUBCHEM_CONFORMER_RMSD>
1

> <PUBCHEM_CONFORMER_DIVERSEORDER>
7
49
34
17
18
28
23
42
63
68
13
57
55
29
16
43
26
59
62
58
47
61
39
19
72
66
60
50
33
69
20
71
30
67
8
53
27
45
44
48
14
65
41
21
40
56
54
36
32
46
51
35
11
70
52
12
10
31
37
1
6
4
64
25
3
24
22
9
38
15
2
5

> <PUBCHEM_MMFF94_PARTIAL_CHARGES>
33
1 1.51
10 0.28
13 0.28
15 0.14
17 0.42
2 -0.43
20 -0.29
21 0.71
22 -0.14
23 -0.29
24 -0.15
25 -0.15
26 -0.15
27 -0.15
28 -0.29
29 0.14
3 -0.55
4 -0.68
49 0.15
5 -0.57
50 0.15
51 0.15
52 0.4
53 0.15
54 0.5
55 0.5
56 0.15
57 0.15
58 0.15
59 0.15
6 -0.77
7 -0.77
8 -0.7

> <PUBCHEM_EFFECTIVE_ROTOR_COUNT>
11.6

> <PUBCHEM_PHARMACOPHORE_FEATURES>
11
1 16 hydrophobe
1 18 hydrophobe
1 29 hydrophobe
1 4 acceptor
1 4 donor
1 5 acceptor
1 6 acceptor
1 7 acceptor
1 8 acceptor
4 1 6 7 8 anion
6 2 10 15 20 21 22 rings

> <PUBCHEM_HEAVY_ATOM_COUNT>
29

> <PUBCHEM_ATOM_DEF_STEREO_COUNT>
6

> <PUBCHEM_ATOM_UDEF_STEREO_COUNT>
0

> <PUBCHEM_BOND_DEF_STEREO_COUNT>
3

> <PUBCHEM_BOND_UDEF_STEREO_COUNT>
0

> <PUBCHEM_ISOTOPIC_ATOM_COUNT>
0

> <PUBCHEM_COMPONENT_COUNT>
1

> <PUBCHEM_CACTVS_TAUTO_COUNT>
1

> <PUBCHEM_CONFORMER_ID>
00A8168A00000007

> <PUBCHEM_MMFF94_ENERGY>
37.3304

> <PUBCHEM_FEATURE_SELFOVERLAP>
55.857

> <PUBCHEM_SHAPE_FINGERPRINT>
12293681 160 16244594026200652180
12403259 226 17754743727936310851
12422481 6 18188489206583322008
20771845 35 17753932481860331987
22182313 1 17968650524191227997
23419403 2 18190177884803188405
3380486 77 17252868763730756255
35225 105 17407070772510828360
484985 159 17104477450765166152
57527358 35 16845026713407206501
7288768 16 18057598974573830672

> <PUBCHEM_SHAPE_MULTIPOLES>
559.57
8.16
6.45
2.73
0.87
5.61
0.85
-9.45
-7.62
5.9
-1.2
-0.2
-2.21
3.53

> <PUBCHEM_SHAPE_SELFOVERLAP>
1100.387

> <PUBCHEM_SHAPE_VOLUME>
335.6

> <PUBCHEM_COORDINATE_TYPE>
2
5
10

$$$$
