11016431
  -OEChem-03292013303D

 74 75  0     1  0  0  0  0  0999 V2000
    1.9805   -1.1503   -0.9668 O   0  0  0  0  0  0  0  0  0  0  0  0
    0.8240   -3.8602   -1.3460 O   0  0  0  0  0  0  0  0  0  0  0  0
    3.7432    2.6028    1.9931 O   0  0  0  0  0  0  0  0  0  0  0  0
    2.1746    4.3581    0.5176 O   0  0  0  0  0  0  0  0  0  0  0  0
   -3.7179    2.3859    0.2235 O   0  0  0  0  0  0  0  0  0  0  0  0
   -7.5093   -0.2316    0.3105 O   0  0  0  0  0  0  0  0  0  0  0  0
    3.7107   -1.1217   -2.4966 O   0  0  0  0  0  0  0  0  0  0  0  0
   -5.5942    1.0481    0.2415 N   0  0  0  0  0  0  0  0  0  0  0  0
   -4.0282   -1.2222    0.1678 C   0  0  0  0  0  0  0  0  0  0  0  0
   -3.1803   -2.4385    0.5286 C   0  0  0  0  0  0  0  0  0  0  0  0
   -1.7635   -2.3196   -0.0381 C   0  0  0  0  0  0  0  0  0  0  0  0
    1.5722   -2.8212    0.7017 C   0  0  1  0  0  0  0  0  0  0  0  0
   -3.3937    0.0603    0.6965 C   0  0  0  0  0  0  0  0  0  0  0  0
   -5.4356   -1.3496    0.7423 C   0  0  0  0  0  0  0  0  0  0  0  0
   -0.8933   -3.5259    0.3125 C   0  0  0  0  0  0  0  0  0  0  0  0
    2.6445   -2.1042   -0.1139 C   0  0  2  0  0  0  0  0  0  0  0  0
    0.5264   -3.4306   -0.2312 C   0  0  0  0  0  0  0  0  0  0  0  0
    2.3597    0.6590    1.5383 C   0  0  1  0  0  0  0  0  0  0  0  0
    3.6772   -1.4452    0.7859 C   0  0  0  0  0  0  0  0  0  0  0  0
    2.7770    2.0804    1.0699 C   0  0  1  0  0  0  0  0  0  0  0  0
    3.5470   -0.2849    1.4632 C   0  0  0  0  0  0  0  0  0  0  0  0
   -4.2259    1.2719    0.3481 C   0  0  0  0  0  0  0  0  0  0  0  0
   -6.2843   -0.1494    0.3951 C   0  0  0  0  0  0  0  0  0  0  0  0
    2.2012   -3.8851    1.5972 C   0  0  0  0  0  0  0  0  0  0  0  0
    1.6302    3.1129    0.9702 C   0  0  2  0  0  0  0  0  0  0  0  0
    1.8119    0.6441    2.9705 C   0  0  0  0  0  0  0  0  0  0  0  0
    4.9639   -2.2266    0.9045 C   0  0  0  0  0  0  0  0  0  0  0  0
    0.5097    2.6622    0.0706 C   0  0  0  0  0  0  0  0  0  0  0  0
    2.6174   -0.7481   -2.0970 C   0  0  0  0  0  0  0  0  0  0  0  0
    0.2650    3.0991   -1.1757 C   0  0  0  0  0  0  0  0  0  0  0  0
   -0.8184    2.5285   -2.0510 C   0  0  0  0  0  0  0  0  0  0  0  0
   -0.2460    1.6390   -3.1644 C   0  0  0  0  0  0  0  0  0  0  0  0
    1.8419    0.3084   -2.7820 C   0  0  0  0  0  0  0  0  0  0  0  0
    1.1864    5.3738    0.5074 C   0  0  0  0  0  0  0  0  0  0  0  0
    0.5259    0.4805   -2.5940 C   0  0  0  0  0  0  0  0  0  0  0  0
   -4.1036   -1.1521   -0.9266 H   0  0  0  0  0  0  0  0  0  0  0  0
   -3.1284   -2.5542    1.6186 H   0  0  0  0  0  0  0  0  0  0  0  0
   -3.6535   -3.3464    0.1348 H   0  0  0  0  0  0  0  0  0  0  0  0
   -1.8029   -2.2015   -1.1278 H   0  0  0  0  0  0  0  0  0  0  0  0
   -1.2509   -1.4371    0.3564 H   0  0  0  0  0  0  0  0  0  0  0  0
    1.0380   -2.0915    1.3232 H   0  0  0  0  0  0  0  0  0  0  0  0
   -2.4130    0.2375    0.2460 H   0  0  0  0  0  0  0  0  0  0  0  0
   -3.2740    0.0311    1.7857 H   0  0  0  0  0  0  0  0  0  0  0  0
   -5.9257   -2.2422    0.3368 H   0  0  0  0  0  0  0  0  0  0  0  0
   -5.4131   -1.4411    1.8347 H   0  0  0  0  0  0  0  0  0  0  0  0
   -0.8461   -3.6654    1.3985 H   0  0  0  0  0  0  0  0  0  0  0  0
   -1.3381   -4.4420   -0.0950 H   0  0  0  0  0  0  0  0  0  0  0  0
    3.1437   -2.8345   -0.7663 H   0  0  0  0  0  0  0  0  0  0  0  0
    1.5621    0.2968    0.8864 H   0  0  0  0  0  0  0  0  0  0  0  0
    3.2859    2.0161    0.0995 H   0  0  0  0  0  0  0  0  0  0  0  0
    4.3959    0.0292    2.0718 H   0  0  0  0  0  0  0  0  0  0  0  0
    1.4230   -4.5035    2.0592 H   0  0  0  0  0  0  0  0  0  0  0  0
    2.8423   -4.5651    1.0258 H   0  0  0  0  0  0  0  0  0  0  0  0
    2.7784   -3.4451    2.4157 H   0  0  0  0  0  0  0  0  0  0  0  0
    1.2274    3.2914    1.9756 H   0  0  0  0  0  0  0  0  0  0  0  0
   -6.1616    1.8629    0.0240 H   0  0  0  0  0  0  0  0  0  0  0  0
    2.5566    0.9689    3.7049 H   0  0  0  0  0  0  0  0  0  0  0  0
    1.5005   -0.3689    3.2514 H   0  0  0  0  0  0  0  0  0  0  0  0
    0.9324    1.2877    3.0676 H   0  0  0  0  0  0  0  0  0  0  0  0
    4.7997   -3.2325    1.2964 H   0  0  0  0  0  0  0  0  0  0  0  0
    5.4364   -2.3163   -0.0798 H   0  0  0  0  0  0  0  0  0  0  0  0
    5.6877   -1.7380    1.5659 H   0  0  0  0  0  0  0  0  0  0  0  0
   -0.1504    1.9043    0.4883 H   0  0  0  0  0  0  0  0  0  0  0  0
    3.2803    2.8649    2.8064 H   0  0  0  0  0  0  0  0  0  0  0  0
    0.9276    3.8085   -1.6611 H   0  0  0  0  0  0  0  0  0  0  0  0
   -1.5355    1.9522   -1.4547 H   0  0  0  0  0  0  0  0  0  0  0  0
   -1.3806    3.3564   -2.4985 H   0  0  0  0  0  0  0  0  0  0  0  0
    0.3838    2.2398   -3.8325 H   0  0  0  0  0  0  0  0  0  0  0  0
   -1.0695    1.2471   -3.7726 H   0  0  0  0  0  0  0  0  0  0  0  0
    2.4050    0.9681   -3.4342 H   0  0  0  0  0  0  0  0  0  0  0  0
    1.6585    6.2841    0.8923 H   0  0  0  0  0  0  0  0  0  0  0  0
    0.3225    5.1674    1.1493 H   0  0  0  0  0  0  0  0  0  0  0  0
    0.8664    5.6100   -0.5101 H   0  0  0  0  0  0  0  0  0  0  0  0
   -0.0385   -0.1962   -1.9574 H   0  0  0  0  0  0  0  0  0  0  0  0
  1 16  1  0  0  0  0
  1 29  1  0  0  0  0
  2 17  2  0  0  0  0
  3 20  1  0  0  0  0
  3 64  1  0  0  0  0
  4 25  1  0  0  0  0
  4 34  1  0  0  0  0
  5 22  2  0  0  0  0
  6 23  2  0  0  0  0
  7 29  2  0  0  0  0
  8 22  1  0  0  0  0
  8 23  1  0  0  0  0
  8 56  1  0  0  0  0
  9 10  1  0  0  0  0
  9 13  1  0  0  0  0
  9 14  1  0  0  0  0
  9 36  1  0  0  0  0
 10 11  1  0  0  0  0
 10 37  1  0  0  0  0
 10 38  1  0  0  0  0
 11 15  1  0  0  0  0
 11 39  1  0  0  0  0
 11 40  1  0  0  0  0
 12 16  1  0  0  0  0
 12 17  1  0  0  0  0
 12 24  1  0  0  0  0
 12 41  1  0  0  0  0
 13 22  1  0  0  0  0
 13 42  1  0  0  0  0
 13 43  1  0  0  0  0
 14 23  1  0  0  0  0
 14 44  1  0  0  0  0
 14 45  1  0  0  0  0
 15 17  1  0  0  0  0
 15 46  1  0  0  0  0
 15 47  1  0  0  0  0
 16 19  1  0  0  0  0
 16 48  1  0  0  0  0
 18 20  1  0  0  0  0
 18 21  1  0  0  0  0
 18 26  1  0  0  0  0
 18 49  1  0  0  0  0
 19 21  2  0  0  0  0
 19 27  1  0  0  0  0
 20 25  1  0  0  0  0
 20 50  1  0  0  0  0
 21 51  1  0  0  0  0
 24 52  1  0  0  0  0
 24 53  1  0  0  0  0
 24 54  1  0  0  0  0
 25 28  1  0  0  0  0
 25 55  1  0  0  0  0
 26 57  1  0  0  0  0
 26 58  1  0  0  0  0
 26 59  1  0  0  0  0
 27 60  1  0  0  0  0
 27 61  1  0  0  0  0
 27 62  1  0  0  0  0
 28 30  2  0  0  0  0
 28 63  1  0  0  0  0
 29 33  1  0  0  0  0
 30 31  1  0  0  0  0
 30 65  1  0  0  0  0
 31 32  1  0  0  0  0
 31 66  1  0  0  0  0
 31 67  1  0  0  0  0
 32 35  1  0  0  0  0
 32 68  1  0  0  0  0
 32 69  1  0  0  0  0
 33 35  2  0  0  0  0
 33 70  1  0  0  0  0
 34 71  1  0  0  0  0
 34 72  1  0  0  0  0
 34 73  1  0  0  0  0
 35 74  1  0  0  0  0
M  END
> <PUBCHEM_COMPOUND_CID>
11016431

> <PUBCHEM_CONFORMER_RMSD>
1

> <PUBCHEM_CONFORMER_DIVERSEORDER>
1
64
5
86
35
36
60
91
80
15
39
79
8
92
57
51
61
75
76
16
3
82
7
81
63
54
11
72
83
34
30
2
62
28
73
10
41
24
4
71
14
9
19
13
69
29
58
89
74
46
90
43
66
23
50
49
78
31
12
18
44
55
93
84
67
77
42
40
59
17
32
47
94
27
70
65
25
56
22
85
33
87
88
26
68
48
6
45
20
21
37
53
38
52

> <PUBCHEM_MMFF94_PARTIAL_CHARGES>
37
1 -0.43
12 0.06
13 0.06
14 0.06
15 0.06
16 0.42
17 0.45
18 0.14
19 -0.28
2 -0.57
20 0.28
21 -0.29
22 0.57
23 0.57
25 0.42
27 0.14
28 -0.29
29 0.71
3 -0.68
30 -0.29
31 0.14
32 0.14
33 -0.14
34 0.28
35 -0.29
4 -0.56
5 -0.57
51 0.15
56 0.37
6 -0.57
63 0.15
64 0.4
65 0.15
7 -0.57
70 0.15
74 0.15
8 -0.49

> <PUBCHEM_EFFECTIVE_ROTOR_COUNT>
9.2

> <PUBCHEM_PHARMACOPHORE_FEATURES>
10
1 2 acceptor
1 24 hydrophobe
1 3 acceptor
1 3 donor
1 4 acceptor
1 5 acceptor
1 6 acceptor
1 7 acceptor
1 8 donor
6 8 9 13 14 22 23 rings

> <PUBCHEM_HEAVY_ATOM_COUNT>
35

> <PUBCHEM_ATOM_DEF_STEREO_COUNT>
5

> <PUBCHEM_ATOM_UDEF_STEREO_COUNT>
0

> <PUBCHEM_BOND_DEF_STEREO_COUNT>
3

> <PUBCHEM_BOND_UDEF_STEREO_COUNT>
0

> <PUBCHEM_ISOTOPIC_ATOM_COUNT>
0

> <PUBCHEM_COMPONENT_COUNT>
1

> <PUBCHEM_CACTVS_TAUTO_COUNT>
6

> <PUBCHEM_CONFORMER_ID>
00A818EF00000001

> <PUBCHEM_MMFF94_ENERGY>
75.6871

> <PUBCHEM_FEATURE_SELFOVERLAP>
50.754

> <PUBCHEM_SHAPE_FINGERPRINT>
10439779 11 18337962203637346743
11513181 2 17986110931637845462
12539745 222 17534610527089504362
13402501 40 18266453222440524323
13965767 371 17898556820548704278
15001296 14 17823434823591138455
20764821 26 18049708638239792408
21057603 10 17689706464640806549
21860390 5 17847063298254402550
22121540 332 17917987309148412632
23559900 14 18270698557531957413
35225 105 16523501914222873830
513532 50 18201165441632246796
550186 7 16611966794243258892

> <PUBCHEM_SHAPE_MULTIPOLES>
674.22
10.56
6.14
2.6
21.93
2.93
1.72
-2.63
-4.21
-4.11
-1.08
-2.78
1.07
1.07

> <PUBCHEM_SHAPE_SELFOVERLAP>
1362.79

> <PUBCHEM_SHAPE_VOLUME>
388.8

> <PUBCHEM_COORDINATE_TYPE>
2
5
10

$$$$
