11025480
  -OEChem-03292013303D

 57 58  0     1  0  0  0  0  0999 V2000
   -2.2587    0.2975   -0.5661 O   0  0  0  0  0  0  0  0  0  0  0  0
   -0.5267   -1.1931   -0.0950 O   0  0  0  0  0  0  0  0  0  0  0  0
   -4.8087   -1.6540    1.9943 O   0  0  0  0  0  0  0  0  0  0  0  0
   -2.4149   -3.0210    0.9545 O   0  0  0  0  0  0  0  0  0  0  0  0
   -5.8718    0.1684    0.0184 O   0  0  0  0  0  0  0  0  0  0  0  0
    4.6735   -2.3880   -2.0919 O   0  0  0  0  0  0  0  0  0  0  0  0
   -3.0336    2.2880   -2.2963 O   0  0  0  0  0  0  0  0  0  0  0  0
    0.7629    4.2900   -0.2138 O   0  0  0  0  0  0  0  0  0  0  0  0
    3.4636   -0.8394    1.0040 C   0  0  0  0  0  0  0  0  0  0  0  0
    2.2062   -0.1393    0.3932 C   0  0  2  0  0  0  0  0  0  0  0  0
    4.5204   -1.0732   -0.0937 C   0  0  0  0  0  0  0  0  0  0  0  0
    1.7098   -0.8583   -0.8512 C   0  0  0  0  0  0  0  0  0  0  0  0
   -2.6749   -1.6205    0.8640 C   0  0  2  0  0  0  0  0  0  0  0  0
   -4.1811   -1.3912    0.7383 C   0  0  2  0  0  0  0  0  0  0  0  0
   -1.9256   -1.0718   -0.3502 C   0  0  1  0  0  0  0  0  0  0  0  0
   -4.4902    0.0544    0.3486 C   0  0  1  0  0  0  0  0  0  0  0  0
   -3.6456    0.4855   -0.8528 C   0  0  1  0  0  0  0  0  0  0  0  0
    4.0943    0.0033    2.1342 C   0  0  0  0  0  0  0  0  0  0  0  0
    3.0580   -2.1964    1.6345 C   0  0  0  0  0  0  0  0  0  0  0  0
    0.2482   -0.7065   -1.1728 C   0  0  0  0  0  0  0  0  0  0  0  0
    3.9535   -1.7518   -1.3232 C   0  0  0  0  0  0  0  0  0  0  0  0
    2.5108   -1.6006   -1.6320 C   0  0  0  0  0  0  0  0  0  0  0  0
    2.4280    1.3163    0.0760 C   0  0  0  0  0  0  0  0  0  0  0  0
   -3.8505    1.9596   -1.1873 C   0  0  0  0  0  0  0  0  0  0  0  0
    1.7464    2.3182    0.6507 C   0  0  0  0  0  0  0  0  0  0  0  0
    1.9709    3.7670    0.3326 C   0  0  2  0  0  0  0  0  0  0  0  0
    2.3359    4.5567    1.5828 C   0  0  0  0  0  0  0  0  0  0  0  0
    1.4212   -0.2077    1.1600 H   0  0  0  0  0  0  0  0  0  0  0  0
    4.9681   -0.1276   -0.4218 H   0  0  0  0  0  0  0  0  0  0  0  0
    5.3296   -1.7032    0.2960 H   0  0  0  0  0  0  0  0  0  0  0  0
   -4.6220   -2.0919    0.0185 H   0  0  0  0  0  0  0  0  0  0  0  0
   -2.2973   -1.1676    1.7885 H   0  0  0  0  0  0  0  0  0  0  0  0
   -2.1613   -1.6600   -1.2475 H   0  0  0  0  0  0  0  0  0  0  0  0
   -4.2977    0.7035    1.2128 H   0  0  0  0  0  0  0  0  0  0  0  0
   -3.9019   -0.1036   -1.7439 H   0  0  0  0  0  0  0  0  0  0  0  0
    4.9197   -0.5366    2.6129 H   0  0  0  0  0  0  0  0  0  0  0  0
    4.5059    0.9477    1.7625 H   0  0  0  0  0  0  0  0  0  0  0  0
    3.3563    0.2373    2.9098 H   0  0  0  0  0  0  0  0  0  0  0  0
    2.3280   -2.0497    2.4390 H   0  0  0  0  0  0  0  0  0  0  0  0
    2.6117   -2.8838    0.9095 H   0  0  0  0  0  0  0  0  0  0  0  0
    3.9279   -2.7034    2.0682 H   0  0  0  0  0  0  0  0  0  0  0  0
    0.0378    0.3537   -1.3554 H   0  0  0  0  0  0  0  0  0  0  0  0
   -0.0117   -1.2587   -2.0844 H   0  0  0  0  0  0  0  0  0  0  0  0
    2.1409   -2.1080   -2.5163 H   0  0  0  0  0  0  0  0  0  0  0  0
    3.1886    1.5574   -0.6636 H   0  0  0  0  0  0  0  0  0  0  0  0
   -4.8894    2.1770   -1.4503 H   0  0  0  0  0  0  0  0  0  0  0  0
   -3.5471    2.5959   -0.3492 H   0  0  0  0  0  0  0  0  0  0  0  0
    0.9796    2.0858    1.3864 H   0  0  0  0  0  0  0  0  0  0  0  0
   -5.7603   -1.4847    1.8855 H   0  0  0  0  0  0  0  0  0  0  0  0
   -2.7444   -3.4421    0.1423 H   0  0  0  0  0  0  0  0  0  0  0  0
   -6.1009    1.1129    0.0179 H   0  0  0  0  0  0  0  0  0  0  0  0
    2.7542    3.8947   -0.4221 H   0  0  0  0  0  0  0  0  0  0  0  0
   -3.1733    3.2313   -2.4867 H   0  0  0  0  0  0  0  0  0  0  0  0
    3.2691    4.1945    2.0262 H   0  0  0  0  0  0  0  0  0  0  0  0
    1.5447    4.4978    2.3394 H   0  0  0  0  0  0  0  0  0  0  0  0
    2.4552    5.6181    1.3389 H   0  0  0  0  0  0  0  0  0  0  0  0
    0.0735    4.2447    0.4711 H   0  0  0  0  0  0  0  0  0  0  0  0
  1 15  1  0  0  0  0
  1 17  1  0  0  0  0
  2 15  1  0  0  0  0
  2 20  1  0  0  0  0
  3 14  1  0  0  0  0
  3 49  1  0  0  0  0
  4 13  1  0  0  0  0
  4 50  1  0  0  0  0
  5 16  1  0  0  0  0
  5 51  1  0  0  0  0
  6 21  2  0  0  0  0
  7 24  1  0  0  0  0
  7 53  1  0  0  0  0
  8 26  1  0  0  0  0
  8 57  1  0  0  0  0
  9 10  1  0  0  0  0
  9 11  1  0  0  0  0
  9 18  1  0  0  0  0
  9 19  1  0  0  0  0
 10 12  1  0  0  0  0
 10 23  1  0  0  0  0
 10 28  1  0  0  0  0
 11 21  1  0  0  0  0
 11 29  1  0  0  0  0
 11 30  1  0  0  0  0
 12 20  1  0  0  0  0
 12 22  2  0  0  0  0
 13 14  1  0  0  0  0
 13 15  1  0  0  0  0
 13 32  1  0  0  0  0
 14 16  1  0  0  0  0
 14 31  1  0  0  0  0
 15 33  1  0  0  0  0
 16 17  1  0  0  0  0
 16 34  1  0  0  0  0
 17 24  1  0  0  0  0
 17 35  1  0  0  0  0
 18 36  1  0  0  0  0
 18 37  1  0  0  0  0
 18 38  1  0  0  0  0
 19 39  1  0  0  0  0
 19 40  1  0  0  0  0
 19 41  1  0  0  0  0
 20 42  1  0  0  0  0
 20 43  1  0  0  0  0
 21 22  1  0  0  0  0
 22 44  1  0  0  0  0
 23 25  2  0  0  0  0
 23 45  1  0  0  0  0
 24 46  1  0  0  0  0
 24 47  1  0  0  0  0
 25 26  1  0  0  0  0
 25 48  1  0  0  0  0
 26 27  1  0  0  0  0
 26 52  1  0  0  0  0
 27 54  1  0  0  0  0
 27 55  1  0  0  0  0
 27 56  1  0  0  0  0
M  END
> <PUBCHEM_COMPOUND_CID>
11025480

> <PUBCHEM_CONFORMER_RMSD>
0.8

> <PUBCHEM_CONFORMER_DIVERSEORDER>
1
318
173
65
353
311
244
340
105
84
72
3
282
297
275
16
286
208
204
263
44
74
328
30
224
292
230
172
330
285
320
217
132
327
324
321
270
32
197
2
64
148
62
232
276
191
291
262
255
361
61
167
18
57
305
137
346
241
300
117
27
296
313
196
69
128
347
51
152
247
185
23
233
139
315
306
66
198
269
203
82
331
194
4
100
294
20
48
274
337
126
325
190
333
366
357
299
223
37
304
121
119
228
281
322
14
9
226
179
41
345
91
319
210
95
314
363
133
143
308
92
234
303
79
310
47
335
256
78
86
31
177
12
109
243
279
354
295
267
209
323
193
218
271
221
351
89
35
146
258
260
355
75
97
7
212
277
85
15
56
136
352
312
199
59
28
26
145
171
10
293
134
163
359
17
166
115
107
70
341
307
339
188
240
251
334
220
42
222
358
237
348
195
135
338
94
156
332
192
309
29
287
301
76
201
150
254
176
169
63
50
43
178
272
165
200
164
113
81
39
182
127
242
229
138
162
67
264
125
108
106
54
13
55
21
259
159
122
154
283
114
253
189
112
329
96
24
129
142
8
118
180
288
99
34
257
11
183
349
356
73
46
130
205
175
213
36
83
326
22
101
52
187
336
211
90
214
302
19
246
103
280
5
248
160
111
168
284
147
227
265
157
124
131
68
216
207
102
202
362
80
153
252
360
235
155
144
6
53
184
170
236
123
77
350
71
174
104
364
365
316
215
289
261
116
266
33
60
231
290
206
298
250
120
110
140
317
25
342
273
38
40
249
151
161
239
181
344
141
58
45
238
278
98
93
87
225
186
245
219
88
268
149
343
49
158

> <PUBCHEM_MMFF94_PARTIAL_CHARGES>
31
1 -0.56
10 0.28
11 0.06
12 -0.28
13 0.28
14 0.28
15 0.56
16 0.28
17 0.28
2 -0.56
20 0.42
21 0.49
22 -0.14
23 -0.29
24 0.28
25 -0.29
26 0.42
3 -0.68
4 -0.68
44 0.15
45 0.15
48 0.15
49 0.4
5 -0.68
50 0.4
51 0.4
53 0.4
57 0.4
6 -0.57
7 -0.68
8 -0.68

> <PUBCHEM_EFFECTIVE_ROTOR_COUNT>
7.8

> <PUBCHEM_PHARMACOPHORE_FEATURES>
16
1 1 acceptor
1 2 acceptor
1 3 acceptor
1 3 donor
1 4 acceptor
1 4 donor
1 5 acceptor
1 5 donor
1 6 acceptor
1 7 acceptor
1 7 donor
1 8 acceptor
1 8 donor
3 9 18 19 hydrophobe
6 1 13 14 15 16 17 rings
6 9 10 11 12 21 22 rings

> <PUBCHEM_HEAVY_ATOM_COUNT>
27

> <PUBCHEM_ATOM_DEF_STEREO_COUNT>
7

> <PUBCHEM_ATOM_UDEF_STEREO_COUNT>
0

> <PUBCHEM_BOND_DEF_STEREO_COUNT>
1

> <PUBCHEM_BOND_UDEF_STEREO_COUNT>
0

> <PUBCHEM_ISOTOPIC_ATOM_COUNT>
0

> <PUBCHEM_COMPONENT_COUNT>
1

> <PUBCHEM_CACTVS_TAUTO_COUNT>
5

> <PUBCHEM_CONFORMER_ID>
00A83C4800000001

> <PUBCHEM_MMFF94_ENERGY>
60.8892

> <PUBCHEM_FEATURE_SELFOVERLAP>
81.263

> <PUBCHEM_SHAPE_FINGERPRINT>
10366900 7 18040159509066040691
12166972 35 17775284958679139323
12236239 1 16081098052084584631
12422481 6 17980725477147312024
12596602 18 14346374354996725389
12633257 1 18335690680700699419
12788726 201 18050004394589371450
13583140 156 18262224582403740255
14251757 5 18118975693499932164
14363568 33 18270687583817370820
14866123 147 16752394692676357386
14955137 171 18271529814419569536
15081414 286 18273495676506130624
15238133 3 18043243548850047230
15420108 30 17769633624096065936
15806764 133 18411427197742965471
1601671 61 18272083946699773448
17349148 13 17704068469503860899
17357779 13 17916300533503572988
18785283 64 18267868465741119252
20511986 3 15051160156949316971
20600515 1 18116985599150170180
20681677 76 18263632013195266893
21033648 29 18201429229954880707
23559900 14 18343027704718967911
5081480 168 17773622497256418796
508706 21 18261105224111826653
5252454 2 17769090490430879473
57724786 102 18131079263469167953
6823239 73 18410301315369595174
9841814 1 18335415786067554002
9971528 1 17988641874460971886

> <PUBCHEM_SHAPE_MULTIPOLES>
508.69
10.88
4.47
1.89
9.48
6.83
0.07
-3.92
-1.04
-3.41
-0.76
-0.67
-0.49
3.51

> <PUBCHEM_SHAPE_SELFOVERLAP>
1038.046

> <PUBCHEM_SHAPE_VOLUME>
291

> <PUBCHEM_COORDINATE_TYPE>
2
5
10

$$$$
