11035822
  -OEChem-03292013303D

 48 52  0     1  0  0  0  0  0999 V2000
   -2.6439   -0.3678    1.8294 O   0  0  0  0  0  0  0  0  0  0  0  0
   -2.6537   -1.0298   -1.6949 O   0  0  0  0  0  0  0  0  0  0  0  0
   -0.7961   -2.4196    1.1313 O   0  0  0  0  0  0  0  0  0  0  0  0
   -1.0716    3.1900    0.0798 O   0  0  0  0  0  0  0  0  0  0  0  0
    1.8285   -2.6925   -0.2068 O   0  0  0  0  0  0  0  0  0  0  0  0
   -2.4851    1.0605   -2.6486 O   0  0  0  0  0  0  0  0  0  0  0  0
    4.4090   -2.1146   -0.5170 O   0  0  0  0  0  0  0  0  0  0  0  0
   -1.0998    0.8017    0.4353 C   0  0  1  0  0  0  0  0  0  0  0  0
   -0.2163   -0.3550   -0.1492 C   0  0  1  0  0  0  0  0  0  0  0  0
   -2.4983    0.7938   -0.2259 C   0  0  2  0  0  0  0  0  0  0  0  0
   -3.1169   -0.3929    0.4860 C   0  0  1  0  0  0  0  0  0  0  0  0
    1.3164   -0.3008    0.2541 C   0  0  2  0  0  0  0  0  0  0  0  0
   -2.4970   -1.5165   -0.3478 C   0  0  2  0  0  0  0  0  0  0  0  0
   -0.9838   -1.7159   -0.0852 C   0  0  2  0  0  0  0  0  0  0  0  0
   -1.5441    0.5562    1.8845 C   0  0  0  0  0  0  0  0  0  0  0  0
    1.8280    1.1241   -0.1920 C   0  0  1  0  0  0  0  0  0  0  0  0
   -0.4266    2.1618    0.2951 C   0  0  0  0  0  0  0  0  0  0  0  0
    1.0659    2.2451    0.5371 C   0  0  0  0  0  0  0  0  0  0  0  0
   -2.5505    0.3408   -1.6655 C   0  0  0  0  0  0  0  0  0  0  0  0
    2.1192   -1.3517   -0.5674 C   0  0  1  0  0  0  0  0  0  0  0  0
   -4.6400   -0.4042    0.4795 C   0  0  0  0  0  0  0  0  0  0  0  0
    1.5807   -0.5350    1.7636 C   0  0  0  0  0  0  0  0  0  0  0  0
    3.3461    1.2585   -0.1408 C   0  0  0  0  0  0  0  0  0  0  0  0
    3.6242   -1.1697   -0.4429 C   0  0  0  0  0  0  0  0  0  0  0  0
    4.1611    0.1983   -0.2584 C   0  0  0  0  0  0  0  0  0  0  0  0
    3.9447    2.6349   -0.0333 C   0  0  0  0  0  0  0  0  0  0  0  0
   -0.1742   -0.1426   -1.2303 H   0  0  0  0  0  0  0  0  0  0  0  0
   -3.0800    1.7090   -0.0758 H   0  0  0  0  0  0  0  0  0  0  0  0
   -3.0400   -2.4597   -0.2237 H   0  0  0  0  0  0  0  0  0  0  0  0
   -0.6044   -2.3571   -0.8911 H   0  0  0  0  0  0  0  0  0  0  0  0
   -0.7906    0.1364    2.5458 H   0  0  0  0  0  0  0  0  0  0  0  0
   -1.9101    1.4766    2.3558 H   0  0  0  0  0  0  0  0  0  0  0  0
    1.5817    1.2429   -1.2599 H   0  0  0  0  0  0  0  0  0  0  0  0
    1.3822    3.2222    0.1521 H   0  0  0  0  0  0  0  0  0  0  0  0
    1.2504    2.2547    1.6149 H   0  0  0  0  0  0  0  0  0  0  0  0
    1.8840   -1.2513   -1.6343 H   0  0  0  0  0  0  0  0  0  0  0  0
   -5.0572   -0.3861   -0.5321 H   0  0  0  0  0  0  0  0  0  0  0  0
   -5.0165   -1.2973    0.9906 H   0  0  0  0  0  0  0  0  0  0  0  0
   -5.0335    0.4580    1.0295 H   0  0  0  0  0  0  0  0  0  0  0  0
    2.6503   -0.6271    1.9806 H   0  0  0  0  0  0  0  0  0  0  0  0
    1.2339    0.2876    2.3893 H   0  0  0  0  0  0  0  0  0  0  0  0
    1.1197   -1.4474    2.1422 H   0  0  0  0  0  0  0  0  0  0  0  0
    0.0319   -2.9218    1.0541 H   0  0  0  0  0  0  0  0  0  0  0  0
    5.2411    0.2998   -0.2389 H   0  0  0  0  0  0  0  0  0  0  0  0
    2.1472   -2.8417    0.6992 H   0  0  0  0  0  0  0  0  0  0  0  0
    5.0374    2.6191   -0.1125 H   0  0  0  0  0  0  0  0  0  0  0  0
    3.6966    3.0899    0.9309 H   0  0  0  0  0  0  0  0  0  0  0  0
    3.5715    3.2767   -0.8380 H   0  0  0  0  0  0  0  0  0  0  0  0
  1 11  1  0  0  0  0
  1 15  1  0  0  0  0
  2 13  1  0  0  0  0
  2 19  1  0  0  0  0
  3 14  1  0  0  0  0
  3 43  1  0  0  0  0
  4 17  2  0  0  0  0
  5 20  1  0  0  0  0
  5 45  1  0  0  0  0
  6 19  2  0  0  0  0
  7 24  2  0  0  0  0
  8  9  1  0  0  0  0
  8 10  1  0  0  0  0
  8 15  1  0  0  0  0
  8 17  1  0  0  0  0
  9 12  1  0  0  0  0
  9 14  1  0  0  0  0
  9 27  1  0  0  0  0
 10 11  1  0  0  0  0
 10 19  1  0  0  0  0
 10 28  1  0  0  0  0
 11 13  1  0  0  0  0
 11 21  1  0  0  0  0
 12 16  1  0  0  0  0
 12 20  1  0  0  0  0
 12 22  1  0  0  0  0
 13 14  1  0  0  0  0
 13 29  1  0  0  0  0
 14 30  1  0  0  0  0
 15 31  1  0  0  0  0
 15 32  1  0  0  0  0
 16 18  1  0  0  0  0
 16 23  1  0  0  0  0
 16 33  1  0  0  0  0
 17 18  1  0  0  0  0
 18 34  1  0  0  0  0
 18 35  1  0  0  0  0
 20 24  1  0  0  0  0
 20 36  1  0  0  0  0
 21 37  1  0  0  0  0
 21 38  1  0  0  0  0
 21 39  1  0  0  0  0
 22 40  1  0  0  0  0
 22 41  1  0  0  0  0
 22 42  1  0  0  0  0
 23 25  2  0  0  0  0
 23 26  1  0  0  0  0
 24 25  1  0  0  0  0
 25 44  1  0  0  0  0
 26 46  1  0  0  0  0
 26 47  1  0  0  0  0
 26 48  1  0  0  0  0
M  END
> <PUBCHEM_COMPOUND_CID>
11035822

> <PUBCHEM_CONFORMER_RMSD>
0.6

> <PUBCHEM_CONFORMER_DIVERSEORDER>
1

> <PUBCHEM_MMFF94_PARTIAL_CHARGES>
25
1 -0.56
10 0.06
11 0.28
13 0.28
14 0.28
15 0.28
16 0.14
17 0.45
18 0.06
19 0.66
2 -0.43
20 0.34
23 -0.28
24 0.49
25 -0.14
26 0.14
3 -0.68
4 -0.57
43 0.4
44 0.15
45 0.4
5 -0.68
6 -0.57
7 -0.57
8 0.06

> <PUBCHEM_EFFECTIVE_ROTOR_COUNT>
1.2

> <PUBCHEM_PHARMACOPHORE_FEATURES>
11
1 1 acceptor
1 3 acceptor
1 3 donor
1 4 acceptor
1 5 acceptor
1 5 donor
1 6 acceptor
1 7 acceptor
10 1 2 8 9 10 11 13 14 15 19 rings
6 12 16 20 23 24 25 rings
6 8 9 12 16 17 18 rings

> <PUBCHEM_HEAVY_ATOM_COUNT>
26

> <PUBCHEM_ATOM_DEF_STEREO_COUNT>
9

> <PUBCHEM_ATOM_UDEF_STEREO_COUNT>
0

> <PUBCHEM_BOND_DEF_STEREO_COUNT>
0

> <PUBCHEM_BOND_UDEF_STEREO_COUNT>
0

> <PUBCHEM_ISOTOPIC_ATOM_COUNT>
0

> <PUBCHEM_COMPONENT_COUNT>
1

> <PUBCHEM_CACTVS_TAUTO_COUNT>
30

> <PUBCHEM_CONFORMER_ID>
00A864AE00000001

> <PUBCHEM_MMFF94_ENERGY>
103.3023

> <PUBCHEM_FEATURE_SELFOVERLAP>
55.859

> <PUBCHEM_SHAPE_FINGERPRINT>
10863032 1 18129387157918055219
10967382 1 18340210799088788120
1100329 8 17183625390772697218
11135609 187 17765142161608605845
11578080 2 17676755492884945508
12236239 1 17632866338277048553
12403814 3 18130795507933258129
12553582 1 18342739615697998848
13140716 1 18339082708870178034
13224815 77 17988353858270019034
13583140 156 17096072719131383088
13911987 19 18048598424013282468
13965767 371 13482181244604099813
14223421 5 18409450250330515136
14790565 3 18340496547743367305
16945 1 18129924772059941873
17349148 13 18340756114238801664
1813 80 17843985649777060062
18186145 218 18040432174906155684
19862831 5 18040996207228356302
19930381 70 18410858784438162666
200 152 18060134336401340375
21267235 1 18341908380496576830
21731516 1 17203600514756451268
2334 1 18124038090052732402
23402539 116 18195809575118881630
23419403 2 16954545806875408105
23493267 7 17095519543916476008
23557571 272 17313104159227205125
23558518 356 18263089833825541048
23559900 14 18341044139119746842
238 59 17759761061269976725
2748010 2 17907292505141016576
335352 9 18268435620377696972
3380486 145 17973463266457438115
34934 24 18341614879342353616
350125 39 18341060601244498560
9709674 26 18412833477874309230

> <PUBCHEM_SHAPE_MULTIPOLES>
493.98
7.15
2.75
1.5
2.7
0.5
-0.22
-0.71
-1.01
1.8
-0.03
-1.38
0.06
0.36

> <PUBCHEM_SHAPE_SELFOVERLAP>
1106.818

> <PUBCHEM_SHAPE_VOLUME>
257.4

> <PUBCHEM_COORDINATE_TYPE>
2
5
10

$$$$
