11047813
  -OEChem-03292013303D

 45 47  0     0  0  0  0  0  0999 V2000
    0.3937    2.5226    0.4241 S   0  0  0  0  0  0  0  0  0  0  0  0
    0.2562    0.9859   -0.1412 O   0  0  0  0  0  0  0  0  0  0  0  0
   -5.9582   -0.3950   -0.7085 O   0  0  0  0  0  0  0  0  0  0  0  0
    5.4166    0.4809   -0.7967 O   0  0  0  0  0  0  0  0  0  0  0  0
   -4.2745    1.3730   -2.0253 O   0  0  0  0  0  0  0  0  0  0  0  0
    4.9574   -1.7522   -2.3859 O   0  0  0  0  0  0  0  0  0  0  0  0
    1.2681    3.2853   -0.7240 O   0  0  0  0  0  0  0  0  0  0  0  0
   -0.9227    3.1326    0.4612 O   0  0  0  0  0  0  0  0  0  0  0  0
    1.2047    2.4764    1.6269 O   0  0  0  0  0  0  0  0  0  0  0  0
   -2.4475    0.7528   -0.7761 N   0  0  0  0  0  0  0  0  0  0  0  0
    0.0376   -0.6836    1.5539 C   0  0  0  0  0  0  0  0  0  0  0  0
    1.4852   -0.5635    1.9007 C   0  0  0  0  0  0  0  0  0  0  0  0
   -1.8771   -0.0335    0.2401 C   0  0  0  0  0  0  0  0  0  0  0  0
   -0.5208    0.0987    0.5435 C   0  0  0  0  0  0  0  0  0  0  0  0
   -2.6797   -0.9420    0.9385 C   0  0  0  0  0  0  0  0  0  0  0  0
   -0.7560   -1.5919    2.2555 C   0  0  0  0  0  0  0  0  0  0  0  0
    2.4190   -0.8800    0.7509 C   0  0  0  0  0  0  0  0  0  0  0  0
   -2.1123   -1.7227    1.9500 C   0  0  0  0  0  0  0  0  0  0  0  0
   -4.0945   -1.0493    0.5904 C   0  0  0  0  0  0  0  0  0  0  0  0
   -4.6227   -0.2930   -0.3803 C   0  0  0  0  0  0  0  0  0  0  0  0
    3.4949   -0.0453    0.5074 C   0  0  0  0  0  0  0  0  0  0  0  0
   -3.7794    0.6832   -1.1358 C   0  0  0  0  0  0  0  0  0  0  0  0
    2.1739   -1.9957   -0.0292 C   0  0  0  0  0  0  0  0  0  0  0  0
    4.3547   -0.3363   -0.5520 C   0  0  0  0  0  0  0  0  0  0  0  0
    3.0334   -2.2867   -1.0883 C   0  0  0  0  0  0  0  0  0  0  0  0
    4.1240   -1.4571   -1.3496 C   0  0  0  0  0  0  0  0  0  0  0  0
   -6.1555   -1.3689   -1.7152 C   0  0  0  0  0  0  0  0  0  0  0  0
    5.5816    1.6053    0.0650 C   0  0  0  0  0  0  0  0  0  0  0  0
    1.7352   -1.2880    2.6899 H   0  0  0  0  0  0  0  0  0  0  0  0
    1.6992    0.3993    2.3638 H   0  0  0  0  0  0  0  0  0  0  0  0
   -0.3346   -2.2082    3.0455 H   0  0  0  0  0  0  0  0  0  0  0  0
   -2.7145   -2.4358    2.5075 H   0  0  0  0  0  0  0  0  0  0  0  0
   -1.8434    1.4038   -1.2697 H   0  0  0  0  0  0  0  0  0  0  0  0
   -4.7064   -1.7571    1.1404 H   0  0  0  0  0  0  0  0  0  0  0  0
    3.6243    0.8082    1.1627 H   0  0  0  0  0  0  0  0  0  0  0  0
    1.3407   -2.6641    0.1653 H   0  0  0  0  0  0  0  0  0  0  0  0
    2.8442   -3.1649   -1.6998 H   0  0  0  0  0  0  0  0  0  0  0  0
   -5.6081   -1.1158   -2.6299 H   0  0  0  0  0  0  0  0  0  0  0  0
   -7.2219   -1.3965   -1.9583 H   0  0  0  0  0  0  0  0  0  0  0  0
   -5.8639   -2.3660   -1.3669 H   0  0  0  0  0  0  0  0  0  0  0  0
    4.6427   -2.5613   -2.8247 H   0  0  0  0  0  0  0  0  0  0  0  0
    4.7395    2.3016   -0.0139 H   0  0  0  0  0  0  0  0  0  0  0  0
    6.4718    2.1444   -0.2757 H   0  0  0  0  0  0  0  0  0  0  0  0
    5.7733    1.2973    1.0986 H   0  0  0  0  0  0  0  0  0  0  0  0
    2.0722    2.8030   -1.0295 H   0  0  0  0  0  0  0  0  0  0  0  0
  1  2  1  0  0  0  0
  1  7  1  0  0  0  0
  1  8  2  0  0  0  0
  1  9  2  0  0  0  0
  2 14  1  0  0  0  0
  3 20  1  0  0  0  0
  3 27  1  0  0  0  0
  4 24  1  0  0  0  0
  4 28  1  0  0  0  0
  5 22  2  0  0  0  0
  6 26  1  0  0  0  0
  6 41  1  0  0  0  0
  7 45  1  0  0  0  0
 10 13  1  0  0  0  0
 10 22  1  0  0  0  0
 10 33  1  0  0  0  0
 11 12  1  0  0  0  0
 11 14  2  0  0  0  0
 11 16  1  0  0  0  0
 12 17  1  0  0  0  0
 12 29  1  0  0  0  0
 12 30  1  0  0  0  0
 13 14  1  0  0  0  0
 13 15  2  0  0  0  0
 15 18  1  0  0  0  0
 15 19  1  0  0  0  0
 16 18  2  0  0  0  0
 16 31  1  0  0  0  0
 17 21  2  0  0  0  0
 17 23  1  0  0  0  0
 18 32  1  0  0  0  0
 19 20  2  0  0  0  0
 19 34  1  0  0  0  0
 20 22  1  0  0  0  0
 21 24  1  0  0  0  0
 21 35  1  0  0  0  0
 23 25  2  0  0  0  0
 23 36  1  0  0  0  0
 24 26  2  0  0  0  0
 25 26  1  0  0  0  0
 25 37  1  0  0  0  0
 27 38  1  0  0  0  0
 27 39  1  0  0  0  0
 27 40  1  0  0  0  0
 28 42  1  0  0  0  0
 28 43  1  0  0  0  0
 28 44  1  0  0  0  0
M  END
> <PUBCHEM_COMPOUND_CID>
11047813

> <PUBCHEM_CONFORMER_RMSD>
0.8

> <PUBCHEM_CONFORMER_DIVERSEORDER>
6
19
4
9
32
31
34
25
30
24
38
11
33
20
29
13
7
14
16
36
37
27
15
10
21
18
17
26
5
35
12
28
8
22
23
1
3
2

> <PUBCHEM_MMFF94_PARTIAL_CHARGES>
37
1 1.67
10 -0.55
11 -0.14
12 0.29
13 0.12
14 0.08
15 0.03
16 -0.15
17 -0.14
18 -0.15
19 -0.18
2 -0.27
20 0.09
21 -0.15
22 0.62
23 -0.15
24 0.08
25 -0.15
26 0.08
27 0.28
28 0.28
3 -0.36
31 0.15
32 0.15
33 0.37
34 0.15
35 0.15
36 0.15
37 0.15
4 -0.36
41 0.45
45 0.5
5 -0.57
6 -0.53
7 -0.68
8 -0.65
9 -0.65

> <PUBCHEM_EFFECTIVE_ROTOR_COUNT>
6

> <PUBCHEM_PHARMACOPHORE_FEATURES>
12
1 10 donor
1 3 acceptor
1 4 acceptor
1 5 acceptor
1 6 donor
1 7 acceptor
1 8 acceptor
1 9 acceptor
4 1 7 8 9 anion
6 10 13 15 19 20 22 rings
6 11 13 14 15 16 18 rings
6 17 21 23 24 25 26 rings

> <PUBCHEM_HEAVY_ATOM_COUNT>
28

> <PUBCHEM_ATOM_DEF_STEREO_COUNT>
0

> <PUBCHEM_ATOM_UDEF_STEREO_COUNT>
0

> <PUBCHEM_BOND_DEF_STEREO_COUNT>
0

> <PUBCHEM_BOND_UDEF_STEREO_COUNT>
0

> <PUBCHEM_ISOTOPIC_ATOM_COUNT>
0

> <PUBCHEM_COMPONENT_COUNT>
1

> <PUBCHEM_CACTVS_TAUTO_COUNT>
6

> <PUBCHEM_CONFORMER_ID>
00A8938500000006

> <PUBCHEM_MMFF94_ENERGY>
91.1049

> <PUBCHEM_FEATURE_SELFOVERLAP>
60.988

> <PUBCHEM_SHAPE_FINGERPRINT>
10498660 4 18187652362470699570
11112241 14 17699843218460311000
11115154 58 18060700581507645729
11640471 11 15864079758371615130
11763715 3 16773252754798695064
11961588 58 17385437756353236091
12236239 1 16559040393190176546
12788726 201 18336824174073240016
13402501 40 18188206606383272776
1361 2 18343863346319641071
13911987 19 18269009733547037588
14251757 17 18187082845095810984
14790565 3 17686898315916400789
14840074 17 17704079507416591044
14931854 50 18113893836671170951
15475509 8 18270126691332138673
17357779 13 18342184340877477192
173720 79 16298378076360842074
1813 80 16988854864539351648
18608769 82 17531532092062758091
19319366 153 17095790050164626307
20511986 3 15647329805488370726
20715895 44 17313101977605306428
21285901 2 18412542081232903676
221357 26 18335693945535318109
22182313 1 17678462094113932659
23559900 14 18115020948044004029
3004659 81 17458617853475131490
3298306 158 17757005758641767932
34797466 226 18410858780206583719
350125 39 17894909625480800209
351380 3 15698282209222122999
46194498 28 18337948008427464525
465052 167 13973683970274610523
474 4 13840272476461073970
5283173 99 18041278785943220380
70251023 43 17986962847428726102
7970288 3 15913331243218424622

> <PUBCHEM_SHAPE_MULTIPOLES>
528.14
11.98
2.81
1.98
3.4
2.17
0
-2.52
8.3
-1.44
-0.06
0.26
-0.85
1.66

> <PUBCHEM_SHAPE_SELFOVERLAP>
1139.565

> <PUBCHEM_SHAPE_VOLUME>
292.2

> <PUBCHEM_COORDINATE_TYPE>
2
5
10

$$$$
