1105817
  -OEChem-03292013313D

 41 43  0     0  0  0  0  0  0999 V2000
   -5.2010   -2.4727    0.9343 Cl  0  0  0  0  0  0  0  0  0  0  0  0
    5.1109    1.4381   -0.0432 S   0  0  0  0  0  0  0  0  0  0  0  0
    4.8128   -2.5408    1.4066 S   0  0  0  0  0  0  0  0  0  0  0  0
    5.5300    2.5812    0.7591 O   0  0  0  0  0  0  0  0  0  0  0  0
    5.4650    1.4051   -1.4572 O   0  0  0  0  0  0  0  0  0  0  0  0
   -1.3758   -0.2070   -1.5064 O   0  0  0  0  0  0  0  0  0  0  0  0
    5.6809    0.0062    0.7270 N   0  0  0  0  0  0  0  0  0  0  0  0
   -0.7783    0.9448    0.4504 N   0  0  0  0  0  0  0  0  0  0  0  0
    4.8456   -1.5141   -0.9657 N   0  0  0  0  0  0  0  0  0  0  0  0
    3.3774    1.2925    0.1025 C   0  0  0  0  0  0  0  0  0  0  0  0
    0.6285    1.0620    0.3328 C   0  0  0  0  0  0  0  0  0  0  0  0
    2.7244    1.8185    1.2171 C   0  0  0  0  0  0  0  0  0  0  0  0
    2.6453    0.6503   -0.8961 C   0  0  0  0  0  0  0  0  0  0  0  0
    1.3391    1.7023    1.3333 C   0  0  0  0  0  0  0  0  0  0  0  0
    1.2601    0.5342   -0.7801 C   0  0  0  0  0  0  0  0  0  0  0  0
    5.1356   -1.2544    0.3010 C   0  0  0  0  0  0  0  0  0  0  0  0
   -1.6510    0.3409   -0.4453 C   0  0  0  0  0  0  0  0  0  0  0  0
   -5.4823   -0.0529   -0.3112 C   0  0  0  0  0  0  0  0  0  0  0  0
   -3.0618    0.4261    0.0424 C   0  0  0  0  0  0  0  0  0  0  0  0
   -4.0736   -0.0894   -0.6875 C   0  0  0  0  0  0  0  0  0  0  0  0
   -6.0838   -1.0779    0.4188 C   0  0  0  0  0  0  0  0  0  0  0  0
   -6.2323    1.0547   -0.7066 C   0  0  0  0  0  0  0  0  0  0  0  0
   -7.4354   -0.9953    0.7535 C   0  0  0  0  0  0  0  0  0  0  0  0
   -7.5839    1.1372   -0.3721 C   0  0  0  0  0  0  0  0  0  0  0  0
   -8.1855    0.1122    0.3580 C   0  0  0  0  0  0  0  0  0  0  0  0
    4.2477   -3.5060    0.1064 C   0  0  0  0  0  0  0  0  0  0  0  0
    4.3414   -2.7956   -1.0720 C   0  0  0  0  0  0  0  0  0  0  0  0
    3.2747    2.3160    2.0106 H   0  0  0  0  0  0  0  0  0  0  0  0
    3.1253    0.2531   -1.7854 H   0  0  0  0  0  0  0  0  0  0  0  0
    0.8403    2.1139    2.2062 H   0  0  0  0  0  0  0  0  0  0  0  0
    0.7653    0.0293   -1.5962 H   0  0  0  0  0  0  0  0  0  0  0  0
    5.9172    0.0653    1.7251 H   0  0  0  0  0  0  0  0  0  0  0  0
   -1.1694    1.3574    1.2948 H   0  0  0  0  0  0  0  0  0  0  0  0
   -3.2583    0.9143    0.9920 H   0  0  0  0  0  0  0  0  0  0  0  0
   -3.8769   -0.5777   -1.6390 H   0  0  0  0  0  0  0  0  0  0  0  0
   -5.7811    1.8634   -1.2771 H   0  0  0  0  0  0  0  0  0  0  0  0
   -7.9200   -1.7851    1.3220 H   0  0  0  0  0  0  0  0  0  0  0  0
   -8.1682    1.9993   -0.6801 H   0  0  0  0  0  0  0  0  0  0  0  0
   -9.2380    0.1765    0.6185 H   0  0  0  0  0  0  0  0  0  0  0  0
    3.8864   -4.5127    0.2601 H   0  0  0  0  0  0  0  0  0  0  0  0
    4.0516   -3.1686   -2.0449 H   0  0  0  0  0  0  0  0  0  0  0  0
  1 21  1  0  0  0  0
  2  4  2  0  0  0  0
  2  5  2  0  0  0  0
  2  7  1  0  0  0  0
  2 10  1  0  0  0  0
  3 16  1  0  0  0  0
  3 26  1  0  0  0  0
  6 17  2  0  0  0  0
  7 16  1  0  0  0  0
  7 32  1  0  0  0  0
  8 11  1  0  0  0  0
  8 17  1  0  0  0  0
  8 33  1  0  0  0  0
  9 16  2  0  0  0  0
  9 27  1  0  0  0  0
 10 12  2  0  0  0  0
 10 13  1  0  0  0  0
 11 14  2  0  0  0  0
 11 15  1  0  0  0  0
 12 14  1  0  0  0  0
 12 28  1  0  0  0  0
 13 15  2  0  0  0  0
 13 29  1  0  0  0  0
 14 30  1  0  0  0  0
 15 31  1  0  0  0  0
 17 19  1  0  0  0  0
 18 20  1  0  0  0  0
 18 21  1  0  0  0  0
 18 22  2  0  0  0  0
 19 20  2  0  0  0  0
 19 34  1  0  0  0  0
 20 35  1  0  0  0  0
 21 23  2  0  0  0  0
 22 24  1  0  0  0  0
 22 36  1  0  0  0  0
 23 25  1  0  0  0  0
 23 37  1  0  0  0  0
 24 25  2  0  0  0  0
 24 38  1  0  0  0  0
 25 39  1  0  0  0  0
 26 27  2  0  0  0  0
 26 40  1  0  0  0  0
 27 41  1  0  0  0  0
M  END
> <PUBCHEM_COMPOUND_CID>
1105817

> <PUBCHEM_CONFORMER_RMSD>
0.8

> <PUBCHEM_CONFORMER_DIVERSEORDER>
1
84
201
116
6
41
160
109
210
76
93
31
102
127
36
94
129
173
106
136
49
207
148
204
86
71
111
172
151
125
32
62
12
214
142
33
4
188
7
218
159
194
72
104
166
2
176
17
91
83
182
213
189
141
138
13
206
155
149
92
165
29
145
175
15
132
143
139
96
215
211
163
79
197
107
167
22
78
81
21
196
77
57
164
90
98
181
183
158
219
152
190
147
199
68
117
64
24
34
203
126
82
209
177
200
110
56
185
47
122
187
89
133
186
202
168
180
121
162
85
205
118
53
208
58
40
144
97
75
101
178
212
39
95
216
45
146
65
23
26
5
87
179
171
119
9
67
50
37
25
10
43
73
184
52
154
137
123
35
115
217
130
60
70
156
59
48
198
134
51
80
150
157
38
42
161
124
113
88
16
195
191
153
69
66
19
30
74
54
55
46
63
18
27
20
28
114
3
100
44
220
112
135
193
140
61
169
174
128
99
170
131
105
14
103
120
192
108
8
11

> <PUBCHEM_MMFF94_PARTIAL_CHARGES>
41
1 -0.18
10 -0.01
11 0.12
12 -0.15
13 -0.15
14 -0.15
15 -0.15
16 0.52
17 0.62
18 0.03
19 -0.14
2 1.45
20 -0.18
21 0.18
22 -0.15
23 -0.15
24 -0.15
25 -0.15
26 -0.11
27 0.08
28 0.15
29 0.15
3 -0.08
30 0.15
31 0.15
32 0.42
33 0.37
34 0.15
35 0.15
36 0.15
37 0.15
38 0.15
39 0.15
4 -0.65
40 0.15
41 0.15
5 -0.65
6 -0.57
7 -0.7
8 -0.55
9 -0.57

> <PUBCHEM_EFFECTIVE_ROTOR_COUNT>
7

> <PUBCHEM_PHARMACOPHORE_FEATURES>
9
1 4 acceptor
1 5 acceptor
1 6 acceptor
1 7 donor
1 8 donor
1 9 acceptor
5 3 9 16 26 27 rings
6 10 11 12 13 14 15 rings
6 18 21 22 23 24 25 rings

> <PUBCHEM_HEAVY_ATOM_COUNT>
27

> <PUBCHEM_ATOM_DEF_STEREO_COUNT>
0

> <PUBCHEM_ATOM_UDEF_STEREO_COUNT>
0

> <PUBCHEM_BOND_DEF_STEREO_COUNT>
1

> <PUBCHEM_BOND_UDEF_STEREO_COUNT>
0

> <PUBCHEM_ISOTOPIC_ATOM_COUNT>
0

> <PUBCHEM_COMPONENT_COUNT>
1

> <PUBCHEM_CACTVS_TAUTO_COUNT>
4

> <PUBCHEM_CONFORMER_ID>
0010DF9900000001

> <PUBCHEM_MMFF94_ENERGY>
57.4923

> <PUBCHEM_FEATURE_SELFOVERLAP>
45.692

> <PUBCHEM_SHAPE_FINGERPRINT>
10316853 100 18187086135183795690
10673678 19 18045513168732048724
11181472 205 18341903952565188457
117089 54 17626397723195376294
11719270 70 17775003458159770967
11796584 16 18333448750658907691
13073987 5 18343582915025368409
13533116 47 18343018878587113210
13617811 41 16009031661758306311
13782708 43 18335136454279705791
13835254 42 18261109634727534292
14251764 18 17704069625498540053
14675020 138 18271509997556420192
15119646 104 18131071494057945283
15183329 4 17346601880980279221
15301273 46 17894627038149478989
15352257 5 18334015003964535683
15439362 3 17837208539651953720
15961568 22 10879986961299804355
17492 89 18126849296825500958
1979834 28 16916785133166698910
19841028 212 18262514772391717970
20554085 129 14405182846773154303
21641784 216 13695863680252770735
220451 1 18131349752003859861
2303208 19 18040998427984807189
23559900 14 18335135410829440993
25269216 80 16082236128113098083
3004659 81 18410576150458605278
3014965 18 18342452617372162277
33382 64 18409729551974243680
34797466 226 17167865283110583044
394071 54 16702292490893173296
4073 2 18262520419703330483
4144715 1 18187651340648804433
4340502 62 18335978757722547686
439807 62 18114742633994600202
46194498 28 17966967227823833388
5104073 3 18059576845399131017
6441014 3 17258215164728524906
9831232 110 18040998419168610647

> <PUBCHEM_SHAPE_MULTIPOLES>
532.67
23.09
2.99
1.24
34.92
2.37
0
4.3
1.31
-5.56
0.56
-0.96
0.06
1.31

> <PUBCHEM_SHAPE_SELFOVERLAP>
1110.38

> <PUBCHEM_SHAPE_VOLUME>
301.4

> <PUBCHEM_COORDINATE_TYPE>
2
5
10

$$$$
