11053
  -OEChem-03292013323D

 39 43  0     0  0  0  0  0  0999 V2000
    1.0758   -0.8445    2.6203 O   0  0  0  0  0  0  0  0  0  0  0  0
    3.0711    2.5113    1.3925 O   0  0  0  0  0  0  0  0  0  0  0  0
   -5.5513   -2.6033    1.1179 O   0  0  0  0  0  0  0  0  0  0  0  0
   -0.7360   -0.1160    1.3367 N   0  0  0  0  0  0  0  0  0  0  0  0
   -3.8967    1.9185   -1.5036 N   0  0  0  0  0  0  0  0  0  0  0  0
    4.8199    1.3128    0.4358 N   0  0  0  0  0  0  0  0  0  0  0  0
   -2.2966    0.8547   -0.3925 C   0  0  0  0  0  0  0  0  0  0  0  0
   -0.9693    0.5353    0.1534 C   0  0  0  0  0  0  0  0  0  0  0  0
    1.2529    0.3358    0.4580 C   0  0  0  0  0  0  0  0  0  0  0  0
   -3.5132    0.1384   -0.2148 C   0  0  0  0  0  0  0  0  0  0  0  0
    2.6672    0.4125    0.2798 C   0  0  0  0  0  0  0  0  0  0  0  0
    0.2511    0.8278   -0.4146 C   0  0  0  0  0  0  0  0  0  0  0  0
   -4.5012    0.8270   -0.9218 C   0  0  0  0  0  0  0  0  0  0  0  0
    0.6144   -0.2427    1.5327 C   0  0  0  0  0  0  0  0  0  0  0  0
    3.5026   -0.4416   -0.3194 C   0  0  0  0  0  0  0  0  0  0  0  0
   -2.5644    1.9437   -1.1894 C   0  0  0  0  0  0  0  0  0  0  0  0
   -3.8698   -1.0334    0.4818 C   0  0  0  0  0  0  0  0  0  0  0  0
    4.8245    0.1810   -0.1862 C   0  0  0  0  0  0  0  0  0  0  0  0
    3.5044    1.5491    0.7767 C   0  0  0  0  0  0  0  0  0  0  0  0
   -5.8333    0.4009   -0.9670 C   0  0  0  0  0  0  0  0  0  0  0  0
    3.3445   -1.6919   -1.0006 C   0  0  0  0  0  0  0  0  0  0  0  0
   -5.1985   -1.4716    0.4456 C   0  0  0  0  0  0  0  0  0  0  0  0
   -6.1636   -0.7638   -0.2681 C   0  0  0  0  0  0  0  0  0  0  0  0
    5.9793   -0.5370   -0.7642 C   0  0  0  0  0  0  0  0  0  0  0  0
    4.4318   -2.2950   -1.5075 C   0  0  0  0  0  0  0  0  0  0  0  0
    5.7545   -1.7081   -1.3817 C   0  0  0  0  0  0  0  0  0  0  0  0
    0.4096    1.3378   -1.3561 H   0  0  0  0  0  0  0  0  0  0  0  0
   -1.4428   -0.4384    1.9827 H   0  0  0  0  0  0  0  0  0  0  0  0
   -1.9339    2.7391   -1.5632 H   0  0  0  0  0  0  0  0  0  0  0  0
   -4.3691    2.6022   -2.0788 H   0  0  0  0  0  0  0  0  0  0  0  0
   -3.1266   -1.6006    1.0341 H   0  0  0  0  0  0  0  0  0  0  0  0
   -6.5854    0.9512   -1.5225 H   0  0  0  0  0  0  0  0  0  0  0  0
    2.3600   -2.1341   -1.0984 H   0  0  0  0  0  0  0  0  0  0  0  0
   -7.1921   -1.1168   -0.2865 H   0  0  0  0  0  0  0  0  0  0  0  0
    6.9683   -0.1059   -0.6770 H   0  0  0  0  0  0  0  0  0  0  0  0
    4.3479   -3.2425   -2.0286 H   0  0  0  0  0  0  0  0  0  0  0  0
    6.5813   -2.2604   -1.8169 H   0  0  0  0  0  0  0  0  0  0  0  0
    2.0475   -0.8332    2.5720 H   0  0  0  0  0  0  0  0  0  0  0  0
   -4.7643   -2.9676    1.5584 H   0  0  0  0  0  0  0  0  0  0  0  0
  1 14  1  0  0  0  0
  1 38  1  0  0  0  0
  2 19  2  0  0  0  0
  3 22  1  0  0  0  0
  3 39  1  0  0  0  0
  4  8  1  0  0  0  0
  4 14  1  0  0  0  0
  4 28  1  0  0  0  0
  5 13  1  0  0  0  0
  5 16  1  0  0  0  0
  5 30  1  0  0  0  0
  6 18  2  0  0  0  0
  6 19  1  0  0  0  0
  7  8  1  0  0  0  0
  7 10  1  0  0  0  0
  7 16  2  0  0  0  0
  8 12  2  0  0  0  0
  9 11  1  0  0  0  0
  9 12  1  0  0  0  0
  9 14  2  0  0  0  0
 10 13  2  0  0  0  0
 10 17  1  0  0  0  0
 11 15  2  0  0  0  0
 11 19  1  0  0  0  0
 12 27  1  0  0  0  0
 13 20  1  0  0  0  0
 15 18  1  0  0  0  0
 15 21  1  0  0  0  0
 16 29  1  0  0  0  0
 17 22  2  0  0  0  0
 17 31  1  0  0  0  0
 18 24  1  0  0  0  0
 20 23  2  0  0  0  0
 20 32  1  0  0  0  0
 21 25  2  0  0  0  0
 21 33  1  0  0  0  0
 22 23  1  0  0  0  0
 23 34  1  0  0  0  0
 24 26  2  0  0  0  0
 24 35  1  0  0  0  0
 25 26  1  0  0  0  0
 25 36  1  0  0  0  0
 26 37  1  0  0  0  0
M  END
> <PUBCHEM_COMPOUND_CID>
11053

> <PUBCHEM_CONFORMER_RMSD>
0.6

> <PUBCHEM_CONFORMER_DIVERSEORDER>
5
15
29
9
31
18
16
22
24
8
32
21
12
2
11
23
7
26
35
6
33
17
3
13
30
14
10
19
27
25
34
1
28
4
36
20

> <PUBCHEM_MMFF94_PARTIAL_CHARGES>
37
1 -0.51
11 0.06
12 -0.15
13 -0.15
14 -0.09
15 0.01
16 -0.3
17 -0.15
18 0.42
19 0.77
2 -0.57
20 -0.15
21 -0.15
22 0.08
23 -0.15
24 -0.14
25 -0.15
26 -0.15
27 0.15
28 0.27
29 0.15
3 -0.53
30 0.27
31 0.15
32 0.15
33 0.15
34 0.15
35 0.15
36 0.15
37 0.15
38 0.45
39 0.45
4 0.03
5 0.03
6 -0.66
8 -0.15
9 -0.05

> <PUBCHEM_EFFECTIVE_ROTOR_COUNT>
2

> <PUBCHEM_PHARMACOPHORE_FEATURES>
14
1 1 donor
1 2 acceptor
1 3 donor
1 4 cation
1 4 donor
1 5 cation
1 5 donor
1 6 acceptor
1 6 donor
5 4 8 9 12 14 rings
5 5 7 10 13 16 rings
5 6 11 15 18 19 rings
6 10 13 17 20 22 23 rings
6 15 18 21 24 25 26 rings

> <PUBCHEM_HEAVY_ATOM_COUNT>
26

> <PUBCHEM_ATOM_DEF_STEREO_COUNT>
0

> <PUBCHEM_ATOM_UDEF_STEREO_COUNT>
0

> <PUBCHEM_BOND_DEF_STEREO_COUNT>
0

> <PUBCHEM_BOND_UDEF_STEREO_COUNT>
1

> <PUBCHEM_ISOTOPIC_ATOM_COUNT>
0

> <PUBCHEM_COMPONENT_COUNT>
1

> <PUBCHEM_CACTVS_TAUTO_COUNT>
98

> <PUBCHEM_CONFORMER_ID>
00002B2D00000005

> <PUBCHEM_MMFF94_ENERGY>
50.8799

> <PUBCHEM_FEATURE_SELFOVERLAP>
71.335

> <PUBCHEM_SHAPE_FINGERPRINT>
10670039 82 16950565416005803404
11089746 13 15647060378216302262
11315621 246 17967252009914896511
12236239 1 15068341215749100000
12553582 1 14979952553823373624
12616971 3 16271927125036560356
12633257 1 14836117775883607869
12730499 353 18272370932040371200
13103583 49 15913332416239971455
13402501 40 18413395336553057911
13533116 47 17418093222271468874
13782708 43 18411700984633809766
13955234 65 17774713264610186072
14294032 229 16951401015380055605
14528608 73 16877943845142749580
14950920 106 16343143666569792907
15142383 8 16773804645195523985
15183329 4 18261674779044382443
15352257 5 18131070467714281959
15537594 2 17275381019263933092
15629462 23 18199760136970786800
15788980 27 17060617776475952309
15799311 1 17560803272772663223
15961568 22 17749389342727767172
17349148 13 16153418454970751665
17844677 252 18060703883646581105
19377110 9 16272206384316471050
200 152 17346317060149925608
20567600 247 17775557641604951574
20645477 70 18202003209922336446
21033650 10 17532097098361527980
21054139 6 17240760722294195019
21267235 1 17560809788918513286
21623969 137 17846503620913327502
22061861 79 18272931604943441327
221357 26 18341608183620500260
22393880 68 18260823761539651107
2297311 6 18260832596883504197
2303208 19 18410862074641665207
23522609 53 16127828507276914401
23557571 272 18261108578101482853
23559900 14 18408317787776947973
23569914 152 17332779684047059095
23569917 315 16008747991931768554
239999 70 18335697273834363592
2838139 119 13551193302939292103
314194 84 17346313769894000822
33382 64 17988649579442650166
3472631 163 16226345801972594038
34797466 226 18335138721658642557
351380 3 16128654137234648166
4073 2 18409452479286263777
4340502 62 17703778254954108906
46194498 28 18408886256979824236
465052 167 17632580435753448294
4990 188 18335417941893326712
5104073 3 17774723048350325826
5281201 14 18413670197327403964
5718773 13 18126007066840669534
57527295 17 18119259355184533226
59755656 215 18187644691416807995
6608658 132 16443626801080139293
7495541 125 18343865528452768324
8863177 126 18341615948847557518
9841814 1 14620499147730359610

> <PUBCHEM_SHAPE_MULTIPOLES>
502.52
15.96
2.17
1.56
4.71
0.28
0.5
6.23
-4.42
-0.63
-0.14
-0.06
0.14
3.41

> <PUBCHEM_SHAPE_SELFOVERLAP>
1157.521

> <PUBCHEM_SHAPE_VOLUME>
259.1

> <PUBCHEM_COORDINATE_TYPE>
2
5
10

$$$$
