11058305
  -OEChem-03292013303D

 44 47  0     0  0  0  0  0  0999 V2000
   -3.1403    2.3410   -0.5863 O   0  0  0  0  0  0  0  0  0  0  0  0
    0.7327   -1.9708    0.7777 O   0  0  0  0  0  0  0  0  0  0  0  0
   -4.0213   -2.6625    1.3893 O   0  0  0  0  0  0  0  0  0  0  0  0
   -0.3935    5.9647    0.3435 O   0  0  0  0  0  0  0  0  0  0  0  0
   -4.2932   -3.5575   -1.2280 O   0  0  0  0  0  0  0  0  0  0  0  0
    6.8197   -1.4468   -0.5462 O   0  0  0  0  0  0  0  0  0  0  0  0
    1.2255    1.5359    0.5412 N   0  0  0  0  0  0  0  0  0  0  0  0
    0.5326    3.8596    0.4799 N   0  0  0  0  0  0  0  0  0  0  0  0
   -1.7524    4.1467   -0.1181 N   0  0  0  0  0  0  0  0  0  0  0  0
   -0.6947    0.5452   -0.0272 C   0  0  0  0  0  0  0  0  0  0  0  0
   -0.8950    1.9446   -0.0062 C   0  0  0  0  0  0  0  0  0  0  0  0
    0.6252    0.3195    0.3155 C   0  0  0  0  0  0  0  0  0  0  0  0
    0.3009    2.5168    0.3454 C   0  0  0  0  0  0  0  0  0  0  0  0
   -1.6201   -0.5102   -0.3316 C   0  0  0  0  0  0  0  0  0  0  0  0
   -2.0401    2.7800   -0.2685 C   0  0  0  0  0  0  0  0  0  0  0  0
    1.3265   -0.9229    0.4380 C   0  0  0  0  0  0  0  0  0  0  0  0
   -2.3831   -1.0846    0.6847 C   0  0  0  0  0  0  0  0  0  0  0  0
   -1.7559   -0.9594   -1.6450 C   0  0  0  0  0  0  0  0  0  0  0  0
   -0.5218    4.7426    0.2445 C   0  0  0  0  0  0  0  0  0  0  0  0
    2.8025   -1.0648    0.1731 C   0  0  0  0  0  0  0  0  0  0  0  0
   -3.2823   -2.1087    0.3877 C   0  0  0  0  0  0  0  0  0  0  0  0
   -2.6551   -1.9835   -1.9422 C   0  0  0  0  0  0  0  0  0  0  0  0
   -3.4183   -2.5580   -0.9258 C   0  0  0  0  0  0  0  0  0  0  0  0
    3.3758   -0.2282   -0.7474 C   0  0  0  0  0  0  0  0  0  0  0  0
    3.4944   -2.0221    0.8666 C   0  0  0  0  0  0  0  0  0  0  0  0
    4.7427   -0.3586   -0.9928 C   0  0  0  0  0  0  0  0  0  0  0  0
    4.8615   -2.1523    0.6214 C   0  0  0  0  0  0  0  0  0  0  0  0
    5.4856   -1.3206   -0.3084 C   0  0  0  0  0  0  0  0  0  0  0  0
   -3.4585   -3.7853    2.0651 C   0  0  0  0  0  0  0  0  0  0  0  0
    2.1838    1.6840    0.8271 H   0  0  0  0  0  0  0  0  0  0  0  0
    1.4535    4.1934    0.7447 H   0  0  0  0  0  0  0  0  0  0  0  0
   -2.2846   -0.7397    1.7120 H   0  0  0  0  0  0  0  0  0  0  0  0
   -1.1685   -0.5219   -2.4490 H   0  0  0  0  0  0  0  0  0  0  0  0
   -2.5228    4.7869   -0.2905 H   0  0  0  0  0  0  0  0  0  0  0  0
   -2.7511   -2.3240   -2.9697 H   0  0  0  0  0  0  0  0  0  0  0  0
    2.8176    0.5028   -1.3218 H   0  0  0  0  0  0  0  0  0  0  0  0
    3.0236   -2.6707    1.5981 H   0  0  0  0  0  0  0  0  0  0  0  0
    5.2159    0.2900   -1.7253 H   0  0  0  0  0  0  0  0  0  0  0  0
    5.4354   -2.9021    1.1590 H   0  0  0  0  0  0  0  0  0  0  0  0
   -4.2517   -3.7367   -2.1830 H   0  0  0  0  0  0  0  0  0  0  0  0
   -2.5188   -3.5075    2.5531 H   0  0  0  0  0  0  0  0  0  0  0  0
   -3.2893   -4.6107    1.3664 H   0  0  0  0  0  0  0  0  0  0  0  0
   -4.1662   -4.1146    2.8307 H   0  0  0  0  0  0  0  0  0  0  0  0
    7.0834   -0.7926   -1.2160 H   0  0  0  0  0  0  0  0  0  0  0  0
  1 15  2  0  0  0  0
  2 16  2  0  0  0  0
  3 21  1  0  0  0  0
  3 29  1  0  0  0  0
  4 19  2  0  0  0  0
  5 23  1  0  0  0  0
  5 40  1  0  0  0  0
  6 28  1  0  0  0  0
  6 44  1  0  0  0  0
  7 12  1  0  0  0  0
  7 13  1  0  0  0  0
  7 30  1  0  0  0  0
  8 13  1  0  0  0  0
  8 19  1  0  0  0  0
  8 31  1  0  0  0  0
  9 15  1  0  0  0  0
  9 19  1  0  0  0  0
  9 34  1  0  0  0  0
 10 11  1  0  0  0  0
 10 12  2  0  0  0  0
 10 14  1  0  0  0  0
 11 13  2  0  0  0  0
 11 15  1  0  0  0  0
 12 16  1  0  0  0  0
 14 17  2  0  0  0  0
 14 18  1  0  0  0  0
 16 20  1  0  0  0  0
 17 21  1  0  0  0  0
 17 32  1  0  0  0  0
 18 22  2  0  0  0  0
 18 33  1  0  0  0  0
 20 24  2  0  0  0  0
 20 25  1  0  0  0  0
 21 23  2  0  0  0  0
 22 23  1  0  0  0  0
 22 35  1  0  0  0  0
 24 26  1  0  0  0  0
 24 36  1  0  0  0  0
 25 27  2  0  0  0  0
 25 37  1  0  0  0  0
 26 28  2  0  0  0  0
 26 38  1  0  0  0  0
 27 28  1  0  0  0  0
 27 39  1  0  0  0  0
 29 41  1  0  0  0  0
 29 42  1  0  0  0  0
 29 43  1  0  0  0  0
M  END
> <PUBCHEM_COMPOUND_CID>
11058305

> <PUBCHEM_CONFORMER_RMSD>
0.8

> <PUBCHEM_CONFORMER_DIVERSEORDER>
3
10
11
5
16
1
9
12
15
6
13
14
8
17
7
18
2
4

> <PUBCHEM_MMFF94_PARTIAL_CHARGES>
41
1 -0.57
10 -0.05
11 -0.09
12 -0.24
13 -0.09
14 0.05
15 0.72
16 0.57
17 -0.15
18 -0.15
19 0.69
2 -0.57
20 0.09
21 0.08
22 -0.15
23 0.08
24 -0.15
25 -0.15
26 -0.15
27 -0.15
28 0.08
29 0.28
3 -0.36
30 0.27
31 0.37
32 0.15
33 0.15
34 0.37
35 0.15
36 0.15
37 0.15
38 0.15
39 0.15
4 -0.57
40 0.45
44 0.45
5 -0.53
6 -0.53
7 0.03
8 -0.49
9 -0.49

> <PUBCHEM_EFFECTIVE_ROTOR_COUNT>
4

> <PUBCHEM_PHARMACOPHORE_FEATURES>
14
1 1 acceptor
1 2 acceptor
1 3 acceptor
1 4 acceptor
1 5 donor
1 6 donor
1 7 cation
1 7 donor
1 8 donor
1 9 donor
5 7 10 11 12 13 rings
6 14 17 18 21 22 23 rings
6 20 24 25 26 27 28 rings
6 8 9 11 13 15 19 rings

> <PUBCHEM_HEAVY_ATOM_COUNT>
29

> <PUBCHEM_ATOM_DEF_STEREO_COUNT>
0

> <PUBCHEM_ATOM_UDEF_STEREO_COUNT>
0

> <PUBCHEM_BOND_DEF_STEREO_COUNT>
0

> <PUBCHEM_BOND_UDEF_STEREO_COUNT>
0

> <PUBCHEM_ISOTOPIC_ATOM_COUNT>
0

> <PUBCHEM_COMPONENT_COUNT>
1

> <PUBCHEM_CACTVS_TAUTO_COUNT>
660

> <PUBCHEM_CONFORMER_ID>
00A8BC8100000003

> <PUBCHEM_MMFF94_ENERGY>
91.3027

> <PUBCHEM_FEATURE_SELFOVERLAP>
71.218

> <PUBCHEM_SHAPE_FINGERPRINT>
10411042 1 18339920519018144791
10622 236 17270022171669654431
10764073 3 13538858878772911722
10794284 68 17619685393010520344
1100329 8 18409730617121598689
11049842 53 14855487868325768931
11056379 131 18339931394555820318
11578080 2 17488438928086542713
12160290 23 17986114006696811152
12553582 1 18411694426287521898
12714826 92 18060415781593127658
12788726 201 18192137218787171379
13140716 1 18411138021885066680
13690498 29 18270978868841679934
138480 1 15529677203465337248
13911987 19 17975680702755467469
14251757 5 18338231548940702357
14363568 33 17976833299603319787
14844126 61 18268977722618346882
15042514 8 18339366249409575113
16087824 20 18267583504174598141
1813 80 18129674117626421726
19427546 20 18336830788981875380
20101258 96 18411985771166929648
20587220 46 15256017061452397829
21120745 212 18338248102103695132
21796203 349 17905644268439211250
23598288 3 18337963289641593678
255183 451 18055911237089225279
3178227 256 18265342712330372737
4409770 3 18265332807486564837
5219985 13 17545598955638947148
5309563 4 18337955717514803355
6058803 2 18043819689392034262
6371380 46 18187080702894081171
6673363 416 18339940315999531596
6700243 42 17843715247215138828
70251023 43 18196359536901601367
7970288 3 18341891948047596702
9981440 41 17544758928349034449

> <PUBCHEM_SHAPE_MULTIPOLES>
546.65
9.53
6.56
1.32
14.98
10.35
-0.12
-11.99
-1.24
-6.64
1.53
-1.18
-1.4
0.24

> <PUBCHEM_SHAPE_SELFOVERLAP>
1228.603

> <PUBCHEM_SHAPE_VOLUME>
287

> <PUBCHEM_COORDINATE_TYPE>
2
5
10

$$$$
