11054122
  -OEChem-03292013303D

 30 32  0     1  0  0  0  0  0999 V2000
   -2.0799   -0.1524    0.8958 O   0  0  0  0  0  0  0  0  0  0  0  0
   -2.9844    2.6688    0.0275 O   0  0  0  0  0  0  0  0  0  0  0  0
   -4.2710   -1.8707    0.6477 O   0  0  0  0  0  0  0  0  0  0  0  0
    4.1031    2.1019    0.3650 O   0  0  0  0  0  0  0  0  0  0  0  0
    0.1166   -0.3979    0.0340 N   0  0  0  0  0  0  0  0  0  0  0  0
    2.0738    1.0754    0.2382 N   0  0  0  0  0  0  0  0  0  0  0  0
    1.2167   -2.3216   -0.3328 N   0  0  0  0  0  0  0  0  0  0  0  0
    4.1537   -0.1584   -0.0340 N   0  0  0  0  0  0  0  0  0  0  0  0
   -0.9996    0.5206    0.2262 C   0  0  1  0  0  0  0  0  0  0  0  0
   -2.9886    1.4153   -0.6522 C   0  0  1  0  0  0  0  0  0  0  0  0
   -1.5710    1.0903   -1.0642 C   0  0  0  0  0  0  0  0  0  0  0  0
   -3.3288    0.3015    0.3325 C   0  0  1  0  0  0  0  0  0  0  0  0
   -4.0040   -0.8876   -0.3368 C   0  0  0  0  0  0  0  0  0  0  0  0
    1.4440   -0.1147    0.0469 C   0  0  0  0  0  0  0  0  0  0  0  0
    0.0301   -1.7538   -0.2003 C   0  0  0  0  0  0  0  0  0  0  0  0
    2.0922   -1.2896   -0.1768 C   0  0  0  0  0  0  0  0  0  0  0  0
    3.5175   -1.2781   -0.2134 C   0  0  0  0  0  0  0  0  0  0  0  0
    3.4795    1.0511    0.1966 C   0  0  0  0  0  0  0  0  0  0  0  0
   -0.6529    1.3155    0.8967 H   0  0  0  0  0  0  0  0  0  0  0  0
   -1.5751    0.3332   -1.8573 H   0  0  0  0  0  0  0  0  0  0  0  0
   -0.9976    1.9553   -1.4119 H   0  0  0  0  0  0  0  0  0  0  0  0
   -3.6815    1.4957   -1.4938 H   0  0  0  0  0  0  0  0  0  0  0  0
   -3.9427    0.6589    1.1670 H   0  0  0  0  0  0  0  0  0  0  0  0
   -3.3554   -1.3415   -1.0929 H   0  0  0  0  0  0  0  0  0  0  0  0
   -4.9489   -0.5904   -0.8021 H   0  0  0  0  0  0  0  0  0  0  0  0
   -0.9183   -2.2693   -0.2686 H   0  0  0  0  0  0  0  0  0  0  0  0
   -2.4899    2.5758    0.8588 H   0  0  0  0  0  0  0  0  0  0  0  0
    1.5526    1.9299    0.4001 H   0  0  0  0  0  0  0  0  0  0  0  0
   -4.7021   -2.6174    0.1979 H   0  0  0  0  0  0  0  0  0  0  0  0
    4.0663   -2.2150   -0.3926 H   0  0  0  0  0  0  0  0  0  0  0  0
  1  9  1  0  0  0  0
  1 12  1  0  0  0  0
  2 10  1  0  0  0  0
  2 27  1  0  0  0  0
  3 13  1  0  0  0  0
  3 29  1  0  0  0  0
  4 18  2  0  0  0  0
  5  9  1  0  0  0  0
  5 14  1  0  0  0  0
  5 15  1  0  0  0  0
  6 14  1  0  0  0  0
  6 18  1  0  0  0  0
  6 28  1  0  0  0  0
  7 15  2  0  0  0  0
  7 16  1  0  0  0  0
  8 17  2  0  0  0  0
  8 18  1  0  0  0  0
  9 11  1  0  0  0  0
  9 19  1  0  0  0  0
 10 11  1  0  0  0  0
 10 12  1  0  0  0  0
 10 22  1  0  0  0  0
 11 20  1  0  0  0  0
 11 21  1  0  0  0  0
 12 13  1  0  0  0  0
 12 23  1  0  0  0  0
 13 24  1  0  0  0  0
 13 25  1  0  0  0  0
 14 16  2  0  0  0  0
 15 26  1  0  0  0  0
 16 17  1  0  0  0  0
 17 30  1  0  0  0  0
M  END
> <PUBCHEM_COMPOUND_CID>
11054122

> <PUBCHEM_CONFORMER_RMSD>
0.6

> <PUBCHEM_CONFORMER_DIVERSEORDER>
1
7
13
8
15
3
11
9
6
10
4
2
14
5
12

> <PUBCHEM_MMFF94_PARTIAL_CHARGES>
22
1 -0.56
10 0.28
12 0.28
13 0.28
14 -0.09
15 0.04
16 0.14
17 0.48
18 0.84
2 -0.68
26 0.15
27 0.4
28 0.37
29 0.4
3 -0.68
30 0.06
4 -0.57
5 0.05
6 -0.49
7 -0.57
8 -0.66
9 0.54

> <PUBCHEM_EFFECTIVE_ROTOR_COUNT>
3

> <PUBCHEM_PHARMACOPHORE_FEATURES>
13
1 1 acceptor
1 2 acceptor
1 2 donor
1 3 acceptor
1 3 donor
1 4 acceptor
1 6 donor
1 8 acceptor
1 8 donor
3 5 7 15 cation
5 1 9 10 11 12 rings
5 5 7 14 15 16 rings
6 6 8 14 16 17 18 rings

> <PUBCHEM_HEAVY_ATOM_COUNT>
18

> <PUBCHEM_ATOM_DEF_STEREO_COUNT>
3

> <PUBCHEM_ATOM_UDEF_STEREO_COUNT>
0

> <PUBCHEM_BOND_DEF_STEREO_COUNT>
0

> <PUBCHEM_BOND_UDEF_STEREO_COUNT>
0

> <PUBCHEM_ISOTOPIC_ATOM_COUNT>
0

> <PUBCHEM_COMPONENT_COUNT>
1

> <PUBCHEM_CACTVS_TAUTO_COUNT>
3

> <PUBCHEM_CONFORMER_ID>
00A8AC2A00000001

> <PUBCHEM_MMFF94_ENERGY>
44.1275

> <PUBCHEM_FEATURE_SELFOVERLAP>
66.178

> <PUBCHEM_SHAPE_FINGERPRINT>
10608611 8 18337107856604923165
11132069 177 18113054930795418421
11405975 8 18265614290641350849
11471102 20 18268707217240616156
11615757 297 17989209234981699082
11759241 127 18334293218686061533
12403259 226 18336542729519638812
12403259 415 18413107273217463976
12403260 363 18408876335198694306
12916754 54 18342462517050402251
13583140 156 17386825305952392754
14026960 21 18263648522891543780
14289901 80 18412540990184499459
14415576 193 18411137992004697420
14787075 74 18199747123267014155
15196674 1 18411418410097420372
15219456 202 18336547122901897917
15375462 6 18410572877234609199
18175812 5 18334576798022634679
18186145 218 18131076995916157204
19930381 70 18196085762432247121
200 152 18130780153783851487
20449540 30 18272654506886857161
20510252 161 18412265047278776929
20645477 56 18116998789205712941
20645477 70 18058724685243227487
21501502 16 18263077717527204299
21524375 3 18341330093415284602
221490 88 18339930320360412998
22854114 111 18411699872616477590
22854114 59 18411982481116466336
23402539 116 18040428928159098523
23402655 69 18272649000564580316
23557571 272 17821730494737304829
23559900 14 18195240019041736882
25 1 18339358548791481478
2748010 2 18341058509911760990
2871803 45 18408035221994698991
3286 77 18335419041520927782
474229 33 18339078318870412087
4990 188 18059867129849338902
5104073 3 18410011005154378176
5283173 99 18041826334792843165
58051976 378 18341326725902377535
6333272 397 18337670918591192192
633830 44 17845946147106245308
69090 78 18341328980702386718
77779 3 18411982433877178661
81228 2 17478586358697919722
9709674 26 18268432339260312927

> <PUBCHEM_SHAPE_MULTIPOLES>
327.03
8.28
2.31
0.77
0.15
0.21
-0.06
0.95
0.51
-0.23
-0.04
-0.35
0.04
0.77

> <PUBCHEM_SHAPE_SELFOVERLAP>
711.663

> <PUBCHEM_SHAPE_VOLUME>
176.8

> <PUBCHEM_COORDINATE_TYPE>
2
5
10

$$$$
