11068650
  -OEChem-03292013303D

 52 52  0     1  0  0  0  0  0999 V2000
    1.2946   -1.8205    1.6018 O   0  0  0  0  0  0  0  0  0  0  0  0
   -1.1946   -1.3944   -1.7728 O   0  0  0  0  0  0  0  0  0  0  0  0
    2.6610    2.0429    0.3899 O   0  0  0  0  0  0  0  0  0  0  0  0
   -3.7089    1.2144    0.1942 O   0  0  0  0  0  0  0  0  0  0  0  0
    4.1633    3.7411    0.3788 O   0  0  0  0  0  0  0  0  0  0  0  0
    1.4919   -3.7607    0.3634 O   0  0  0  0  0  0  0  0  0  0  0  0
   -1.6514    0.5677   -2.9034 O   0  0  0  0  0  0  0  0  0  0  0  0
   -3.6779    1.9409    2.3869 O   0  0  0  0  0  0  0  0  0  0  0  0
    0.6445   -1.1778    0.5077 C   0  0  1  0  0  0  0  0  0  0  0  0
   -0.8671   -1.4346    0.6065 C   0  0  0  0  0  0  0  0  0  0  0  0
   -1.6583   -0.8129   -0.5574 C   0  0  2  0  0  0  0  0  0  0  0  0
    0.9994    0.3157    0.4979 C   0  0  0  0  0  0  0  0  0  0  0  0
    2.4917    0.6090    0.4359 C   0  0  1  0  0  0  0  0  0  0  0  0
   -3.1657   -1.0718   -0.3859 C   0  0  0  0  0  0  0  0  0  0  0  0
   -3.8310   -0.1348    0.6326 C   0  0  2  0  0  0  0  0  0  0  0  0
    3.1386   -0.0443   -0.7779 C   0  0  0  0  0  0  0  0  0  0  0  0
   -5.3108   -0.4607    0.7917 C   0  0  0  0  0  0  0  0  0  0  0  0
    4.5332    0.4648   -0.9144 C   0  0  0  0  0  0  0  0  0  0  0  0
    3.8925    2.5675    0.1496 C   0  0  0  0  0  0  0  0  0  0  0  0
    4.8932    1.6641   -0.4477 C   0  0  0  0  0  0  0  0  0  0  0  0
    1.6658   -3.1175    1.3898 C   0  0  0  0  0  0  0  0  0  0  0  0
   -1.2480   -0.5871   -2.8735 C   0  0  0  0  0  0  0  0  0  0  0  0
   -3.6422    2.1554    1.1827 C   0  0  0  0  0  0  0  0  0  0  0  0
    2.3333   -3.6600    2.6170 C   0  0  0  0  0  0  0  0  0  0  0  0
   -0.7314   -1.3269   -4.0702 C   0  0  0  0  0  0  0  0  0  0  0  0
   -3.5157    3.5204    0.5769 C   0  0  0  0  0  0  0  0  0  0  0  0
    0.9952   -1.6039   -0.4399 H   0  0  0  0  0  0  0  0  0  0  0  0
   -1.0356   -2.5193    0.6254 H   0  0  0  0  0  0  0  0  0  0  0  0
   -1.2277   -1.0568    1.5703 H   0  0  0  0  0  0  0  0  0  0  0  0
   -1.4875    0.2680   -0.5639 H   0  0  0  0  0  0  0  0  0  0  0  0
    0.5972    0.7919    1.4021 H   0  0  0  0  0  0  0  0  0  0  0  0
    0.5200    0.8267   -0.3444 H   0  0  0  0  0  0  0  0  0  0  0  0
    2.9674    0.2582    1.3616 H   0  0  0  0  0  0  0  0  0  0  0  0
   -3.6522   -0.9300   -1.3602 H   0  0  0  0  0  0  0  0  0  0  0  0
   -3.3370   -2.1214   -0.1156 H   0  0  0  0  0  0  0  0  0  0  0  0
   -3.3387   -0.2773    1.6017 H   0  0  0  0  0  0  0  0  0  0  0  0
    3.1733   -1.1319   -0.6575 H   0  0  0  0  0  0  0  0  0  0  0  0
    2.5913    0.1802   -1.7008 H   0  0  0  0  0  0  0  0  0  0  0  0
   -5.7789    0.1980    1.5307 H   0  0  0  0  0  0  0  0  0  0  0  0
   -5.4568   -1.4967    1.1129 H   0  0  0  0  0  0  0  0  0  0  0  0
   -5.8484   -0.3071   -0.1506 H   0  0  0  0  0  0  0  0  0  0  0  0
    5.2670   -0.1620   -1.4111 H   0  0  0  0  0  0  0  0  0  0  0  0
    5.9068    2.0300   -0.5624 H   0  0  0  0  0  0  0  0  0  0  0  0
    3.2292   -3.0752    2.8401 H   0  0  0  0  0  0  0  0  0  0  0  0
    2.6296   -4.6979    2.4401 H   0  0  0  0  0  0  0  0  0  0  0  0
    1.6370   -3.6351    3.4590 H   0  0  0  0  0  0  0  0  0  0  0  0
   -1.3512   -2.2072   -4.2573 H   0  0  0  0  0  0  0  0  0  0  0  0
   -0.7772   -0.6751   -4.9474 H   0  0  0  0  0  0  0  0  0  0  0  0
    0.3095   -1.6160   -3.9050 H   0  0  0  0  0  0  0  0  0  0  0  0
   -2.6018    3.5768   -0.0198 H   0  0  0  0  0  0  0  0  0  0  0  0
   -3.4582    4.2672    1.3738 H   0  0  0  0  0  0  0  0  0  0  0  0
   -4.3924    3.7346   -0.0394 H   0  0  0  0  0  0  0  0  0  0  0  0
  1  9  1  0  0  0  0
  1 21  1  0  0  0  0
  2 11  1  0  0  0  0
  2 22  1  0  0  0  0
  3 13  1  0  0  0  0
  3 19  1  0  0  0  0
  4 15  1  0  0  0  0
  4 23  1  0  0  0  0
  5 19  2  0  0  0  0
  6 21  2  0  0  0  0
  7 22  2  0  0  0  0
  8 23  2  0  0  0  0
  9 10  1  0  0  0  0
  9 12  1  0  0  0  0
  9 27  1  0  0  0  0
 10 11  1  0  0  0  0
 10 28  1  0  0  0  0
 10 29  1  0  0  0  0
 11 14  1  0  0  0  0
 11 30  1  0  0  0  0
 12 13  1  0  0  0  0
 12 31  1  0  0  0  0
 12 32  1  0  0  0  0
 13 16  1  0  0  0  0
 13 33  1  0  0  0  0
 14 15  1  0  0  0  0
 14 34  1  0  0  0  0
 14 35  1  0  0  0  0
 15 17  1  0  0  0  0
 15 36  1  0  0  0  0
 16 18  1  0  0  0  0
 16 37  1  0  0  0  0
 16 38  1  0  0  0  0
 17 39  1  0  0  0  0
 17 40  1  0  0  0  0
 17 41  1  0  0  0  0
 18 20  2  0  0  0  0
 18 42  1  0  0  0  0
 19 20  1  0  0  0  0
 20 43  1  0  0  0  0
 21 24  1  0  0  0  0
 22 25  1  0  0  0  0
 23 26  1  0  0  0  0
 24 44  1  0  0  0  0
 24 45  1  0  0  0  0
 24 46  1  0  0  0  0
 25 47  1  0  0  0  0
 25 48  1  0  0  0  0
 25 49  1  0  0  0  0
 26 50  1  0  0  0  0
 26 51  1  0  0  0  0
 26 52  1  0  0  0  0
M  END
> <PUBCHEM_COMPOUND_CID>
11068650

> <PUBCHEM_CONFORMER_RMSD>
1.2

> <PUBCHEM_CONFORMER_DIVERSEORDER>
1
6
121
167
49
181
174
208
126
196
177
110
165
129
15
169
113
182
61
33
72
186
178
157
131
52
210
193
168
106
98
192
20
119
127
187
134
160
136
156
171
179
99
197
198
44
66
14
161
145
211
11
152
139
73
37
172
109
59
51
166
55
180
128
78
122
88
112
10
80
191
23
148
56
104
194
74
147
137
62
24
70
75
195
4
144
7
29
68
83
190
215
103
35
101
120
81
3
124
42
151
130
71
90
188
123
155
207
45
96
201
140
27
18
133
38
135
57
111
34
48
170
46
176
97
28
25
84
107
184
185
41
9
53
141
118
163
12
153
31
146
39
199
138
47
117
77
65
183
60
69
93
64
159
203
8
26
204
92
86
189
16
40
173
115
142
212
162
202
116
108
2
54
205
82
114
158
50
63
94
100
13
125
22
30
95
36
214
209
19
200
149
87
32
58
154
213
150
206
175
67
91
164
21
216
17
5
143
102
76
43
89
85
132
79
105

> <PUBCHEM_MMFF94_PARTIAL_CHARGES>
24
1 -0.43
11 0.28
13 0.28
15 0.28
16 0.14
18 -0.29
19 0.71
2 -0.43
20 -0.14
21 0.66
22 0.66
23 0.66
24 0.06
25 0.06
26 0.06
3 -0.43
4 -0.43
42 0.15
43 0.15
5 -0.57
6 -0.57
7 -0.57
8 -0.57
9 0.28

> <PUBCHEM_EFFECTIVE_ROTOR_COUNT>
12.6

> <PUBCHEM_PHARMACOPHORE_FEATURES>
5
1 5 acceptor
1 6 acceptor
1 7 acceptor
1 8 acceptor
6 3 13 16 18 19 20 rings

> <PUBCHEM_HEAVY_ATOM_COUNT>
26

> <PUBCHEM_ATOM_DEF_STEREO_COUNT>
4

> <PUBCHEM_ATOM_UDEF_STEREO_COUNT>
0

> <PUBCHEM_BOND_DEF_STEREO_COUNT>
0

> <PUBCHEM_BOND_UDEF_STEREO_COUNT>
0

> <PUBCHEM_ISOTOPIC_ATOM_COUNT>
0

> <PUBCHEM_COMPONENT_COUNT>
1

> <PUBCHEM_CACTVS_TAUTO_COUNT>
1

> <PUBCHEM_CONFORMER_ID>
00A8E4EA00000001

> <PUBCHEM_MMFF94_ENERGY>
44.8259

> <PUBCHEM_FEATURE_SELFOVERLAP>
25.374

> <PUBCHEM_SHAPE_FINGERPRINT>
10165383 225 17967542302396025806
11578080 2 17532365371114673229
12160290 23 17322368846488737258
12173636 292 18265898149546443574
12363563 72 11527405847372716282
12549972 3 16083597125591193523
12633257 1 17832990447494250905
12788726 201 17916281988072477911
14251751 93 17846502530239365325
17921350 177 18054228717783681140
469060 322 16372399514082699743
59755656 520 18190178069839956224
6049 1 17024576798924806591
621550 34 17676478454266656879
633830 44 18340200907990037164
7288768 16 18119809359700348768
81228 2 16886380638887745882

> <PUBCHEM_SHAPE_MULTIPOLES>
488.11
9.53
4.32
2.86
0.78
0.21
-3.42
-7.9
2.71
-3.21
3.08
1.5
1.77
-2.6

> <PUBCHEM_SHAPE_SELFOVERLAP>
973.007

> <PUBCHEM_SHAPE_VOLUME>
285.9

> <PUBCHEM_COORDINATE_TYPE>
2
5
10

$$$$
