11068647
  -OEChem-03292013303D

 41 44  0     1  0  0  0  0  0999 V2000
    2.3345   -2.0069   -0.2660 O   0  0  0  0  0  0  0  0  0  0  0  0
   -1.2648   -1.9946   -0.1212 O   0  0  0  0  0  0  0  0  0  0  0  0
    1.5383    2.3189   -0.1829 O   0  0  0  0  0  0  0  0  0  0  0  0
    1.0041   -3.8923   -0.2869 O   0  0  0  0  0  0  0  0  0  0  0  0
   -6.4280    0.9469    0.1076 O   0  0  0  0  0  0  0  0  0  0  0  0
   -6.3412   -1.3237    0.0493 O   0  0  0  0  0  0  0  0  0  0  0  0
   -3.8870    1.2322    0.0384 N   0  0  0  0  0  0  0  0  0  0  0  0
    4.8087    0.6161    0.0258 N   0  0  0  0  0  0  0  0  0  0  0  0
    6.6305    1.4526   -1.1376 N   0  0  0  0  0  0  0  0  0  0  0  0
    7.0595   -0.0806    0.4936 N   0  0  0  0  0  0  0  0  0  0  0  0
    2.1080   -0.5833   -0.1263 C   0  0  1  0  0  0  0  0  0  0  0  0
    0.6353   -0.4914   -0.0957 C   0  0  0  0  0  0  0  0  0  0  0  0
   -0.2357    0.6759   -0.0667 C   0  0  0  0  0  0  0  0  0  0  0  0
    2.8024   -0.1813    1.1722 C   0  0  0  0  0  0  0  0  0  0  0  0
    0.0728   -1.6978   -0.1364 C   0  0  0  0  0  0  0  0  0  0  0  0
   -1.6257    0.4168   -0.0376 C   0  0  0  0  0  0  0  0  0  0  0  0
   -2.1158   -0.9038   -0.0581 C   0  0  0  0  0  0  0  0  0  0  0  0
    1.1447   -2.6840   -0.2321 C   0  0  0  0  0  0  0  0  0  0  0  0
   -2.5604    1.4676    0.0052 C   0  0  0  0  0  0  0  0  0  0  0  0
    0.2226    1.9906   -0.0769 C   0  0  0  0  0  0  0  0  0  0  0  0
    4.3182   -0.2781    1.0757 C   0  0  0  0  0  0  0  0  0  0  0  0
   -2.0689    2.7695    0.0073 C   0  0  0  0  0  0  0  0  0  0  0  0
   -0.6967    3.0354   -0.0371 C   0  0  0  0  0  0  0  0  0  0  0  0
   -3.4780   -1.1533   -0.0264 C   0  0  0  0  0  0  0  0  0  0  0  0
   -4.3132   -0.0545    0.0233 C   0  0  0  0  0  0  0  0  0  0  0  0
   -5.7544   -0.2356    0.0591 C   0  0  0  0  0  0  0  0  0  0  0  0
    6.0904    0.6388   -0.1697 C   0  0  0  0  0  0  0  0  0  0  0  0
    2.5219   -0.0862   -1.0094 H   0  0  0  0  0  0  0  0  0  0  0  0
    2.4771   -0.8380    1.9903 H   0  0  0  0  0  0  0  0  0  0  0  0
    2.5349    0.8377    1.4674 H   0  0  0  0  0  0  0  0  0  0  0  0
    4.7446    0.0081    2.0450 H   0  0  0  0  0  0  0  0  0  0  0  0
    4.6095   -1.3146    0.8669 H   0  0  0  0  0  0  0  0  0  0  0  0
   -2.7618    3.6085    0.0363 H   0  0  0  0  0  0  0  0  0  0  0  0
   -0.3653    4.0709   -0.0500 H   0  0  0  0  0  0  0  0  0  0  0  0
   -3.8575   -2.1690   -0.0422 H   0  0  0  0  0  0  0  0  0  0  0  0
    1.6355    3.2864   -0.1799 H   0  0  0  0  0  0  0  0  0  0  0  0
    6.0411    2.0452   -1.7122 H   0  0  0  0  0  0  0  0  0  0  0  0
    7.6299    1.4846   -1.3064 H   0  0  0  0  0  0  0  0  0  0  0  0
    8.0400    0.0191    0.2536 H   0  0  0  0  0  0  0  0  0  0  0  0
    6.8363   -0.7295    1.2397 H   0  0  0  0  0  0  0  0  0  0  0  0
   -7.3995    0.8126    0.1319 H   0  0  0  0  0  0  0  0  0  0  0  0
  1 11  1  0  0  0  0
  1 18  1  0  0  0  0
  2 15  1  0  0  0  0
  2 17  1  0  0  0  0
  3 20  1  0  0  0  0
  3 36  1  0  0  0  0
  4 18  2  0  0  0  0
  5 26  1  0  0  0  0
  5 41  1  0  0  0  0
  6 26  2  0  0  0  0
  7 19  1  0  0  0  0
  7 25  2  0  0  0  0
  8 21  1  0  0  0  0
  8 27  2  0  0  0  0
  9 27  1  0  0  0  0
  9 37  1  0  0  0  0
  9 38  1  0  0  0  0
 10 27  1  0  0  0  0
 10 39  1  0  0  0  0
 10 40  1  0  0  0  0
 11 12  1  0  0  0  0
 11 14  1  0  0  0  0
 11 28  1  0  0  0  0
 12 13  1  0  0  0  0
 12 15  2  0  0  0  0
 13 16  1  0  0  0  0
 13 20  2  0  0  0  0
 14 21  1  0  0  0  0
 14 29  1  0  0  0  0
 14 30  1  0  0  0  0
 15 18  1  0  0  0  0
 16 17  1  0  0  0  0
 16 19  2  0  0  0  0
 17 24  2  0  0  0  0
 19 22  1  0  0  0  0
 20 23  1  0  0  0  0
 21 31  1  0  0  0  0
 21 32  1  0  0  0  0
 22 23  2  0  0  0  0
 22 33  1  0  0  0  0
 23 34  1  0  0  0  0
 24 25  1  0  0  0  0
 24 35  1  0  0  0  0
 25 26  1  0  0  0  0
M  END
> <PUBCHEM_COMPOUND_CID>
11068647

> <PUBCHEM_CONFORMER_RMSD>
0.8

> <PUBCHEM_CONFORMER_DIVERSEORDER>
1
8
14
10
2
15
16
9
13
17
4
5
12
11
7
6
3

> <PUBCHEM_MMFF94_PARTIAL_CHARGES>
34
1 -0.43
10 -0.85
11 0.42
12 -0.17
13 0.03
15 0.09
17 0.08
18 0.71
19 0.31
2 -0.16
20 0.08
21 0.25
22 -0.15
23 -0.15
24 -0.15
25 0.4
26 0.63
27 0.55
3 -0.53
33 0.15
34 0.15
35 0.15
36 0.45
37 0.4
38 0.4
39 0.4
4 -0.57
40 0.4
41 0.5
5 -0.65
6 -0.57
7 -0.62
8 -0.7
9 -0.85

> <PUBCHEM_EFFECTIVE_ROTOR_COUNT>
4.6

> <PUBCHEM_PHARMACOPHORE_FEATURES>
14
1 10 donor
1 2 acceptor
1 3 donor
1 4 acceptor
1 5 acceptor
1 6 acceptor
1 7 acceptor
1 9 donor
3 5 6 26 anion
4 8 9 10 27 cation
5 1 11 12 15 18 rings
6 13 16 19 20 22 23 rings
6 2 12 13 15 16 17 rings
6 7 16 17 19 24 25 rings

> <PUBCHEM_HEAVY_ATOM_COUNT>
27

> <PUBCHEM_ATOM_DEF_STEREO_COUNT>
0

> <PUBCHEM_ATOM_UDEF_STEREO_COUNT>
1

> <PUBCHEM_BOND_DEF_STEREO_COUNT>
0

> <PUBCHEM_BOND_UDEF_STEREO_COUNT>
0

> <PUBCHEM_ISOTOPIC_ATOM_COUNT>
0

> <PUBCHEM_COMPONENT_COUNT>
1

> <PUBCHEM_CACTVS_TAUTO_COUNT>
12

> <PUBCHEM_CONFORMER_ID>
00A8E4E700000001

> <PUBCHEM_MMFF94_ENERGY>
79.2856

> <PUBCHEM_FEATURE_SELFOVERLAP>
71.355

> <PUBCHEM_SHAPE_FINGERPRINT>
10050765 1 18122907521089184011
10670039 82 18336274444941512572
10906281 52 18334872601316264777
10967382 1 18411138052413593415
1100329 8 18267020742011963566
11578080 2 16952796273326773397
11963148 33 18336818771131748379
12011746 2 18413105073924981664
12236239 1 17894348891408444916
12390115 104 18058740095517703344
12596602 18 17385438817352453642
12788726 201 18335696105292380585
12838862 33 18339342128841871613
13140716 1 18267298923192006507
13402501 40 18412823594653271384
13911987 19 18335404786134128335
1454969 45 18410291423690550045
14787075 74 18260546723142747281
14790565 3 18411425050260025312
15131766 46 15721099404441063956
15196674 1 18339360739150962275
15575132 122 18187082841318029852
15685185 35 17098637966223158500
15927050 60 17692251159231614732
15961568 22 18408325462730525380
17980427 23 17822019678742858356
18681886 176 18338231673742998616
19319366 153 17749661970419208450
19591789 44 18194965368477486884
19611394 137 18042700566036646643
19784866 170 18411699876479175186
20028762 73 18058163002664471815
20642791 178 18188782771982647837
20642791 35 18265331901628487856
21267235 1 18410296947403581977
22311459 1 18411417327755099269
23366157 5 17901106326669923498
23559900 14 18411131476682046033
2748010 2 18051409565954163999
3178227 256 18337966678608076313
335352 9 18410572925038464365
34934 24 18411694366658840903
350125 39 18410011056742107204
4461854 278 18058460975017345783
474229 33 18410291406705859490
5104073 3 18195248815561748419
5486654 2 18411703209811438894
59755656 215 18412825776380522278
9981440 41 18334860489661971490

> <PUBCHEM_SHAPE_MULTIPOLES>
500.51
13.65
3.14
0.75
7.71
0.57
-0.07
-2
-0.14
-0.15
0.42
0.69
-0.03
-0.4

> <PUBCHEM_SHAPE_SELFOVERLAP>
1125.92

> <PUBCHEM_SHAPE_VOLUME>
261.3

> <PUBCHEM_COORDINATE_TYPE>
2
5
10

$$$$
