11079919
  -OEChem-03292013303D

 55 57  0     1  0  0  0  0  0999 V2000
   -0.2601    2.3430   -0.0260 O   0  0  0  0  0  0  0  0  0  0  0  0
    1.8920    1.0027   -1.4648 O   0  0  0  0  0  0  0  0  0  0  0  0
    1.3011   -1.6240    1.9498 O   0  0  0  0  0  0  0  0  0  0  0  0
   -2.8265    2.3755   -0.8177 O   0  0  0  0  0  0  0  0  0  0  0  0
   -5.6168   -1.4649   -0.2776 O   0  0  0  0  0  0  0  0  0  0  0  0
   -3.4881   -2.6499    0.8539 O   0  0  0  0  0  0  0  0  0  0  0  0
    6.3023   -1.6352    0.6964 O   0  0  0  0  0  0  0  0  0  0  0  0
    1.6837    1.2320    0.9139 C   0  0  2  0  0  0  0  0  0  0  0  0
    0.9761    2.5957    0.6920 C   0  0  1  0  0  0  0  0  0  0  0  0
    2.5953    0.7983   -0.2435 C   0  0  1  0  0  0  0  0  0  0  0  0
    0.4557    0.3747    0.9277 C   0  0  0  0  0  0  0  0  0  0  0  0
    2.4627    1.2184    2.2312 C   0  0  0  0  0  0  0  0  0  0  0  0
   -0.6061    1.0671    0.3517 C   0  0  0  0  0  0  0  0  0  0  0  0
    2.9644   -0.6803   -0.1205 C   0  0  0  0  0  0  0  0  0  0  0  0
    1.7747    3.6407   -0.0741 C   0  0  0  0  0  0  0  0  0  0  0  0
    0.2937   -0.9296    1.3619 C   0  0  0  0  0  0  0  0  0  0  0  0
   -1.8546    0.4825    0.1739 C   0  0  0  0  0  0  0  0  0  0  0  0
   -2.0248   -0.8292    0.6137 C   0  0  0  0  0  0  0  0  0  0  0  0
   -0.9567   -1.5316    1.2079 C   0  0  0  0  0  0  0  0  0  0  0  0
    3.8275   -1.1279   -1.2699 C   0  0  0  0  0  0  0  0  0  0  0  0
   -2.9716    1.2148   -0.4493 C   0  0  0  0  0  0  0  0  0  0  0  0
   -3.3258   -1.4996    0.4606 C   0  0  0  0  0  0  0  0  0  0  0  0
   -4.2815    0.5112   -0.6180 C   0  0  0  0  0  0  0  0  0  0  0  0
   -4.4380   -0.7522   -0.1820 C   0  0  0  0  0  0  0  0  0  0  0  0
    5.1722   -1.1184   -1.3495 C   0  0  0  0  0  0  0  0  0  0  0  0
   -5.3399    1.3343   -1.3030 C   0  0  0  0  0  0  0  0  0  0  0  0
    5.9940   -0.5800   -0.2050 C   0  0  0  0  0  0  0  0  0  0  0  0
    5.9654   -1.5849   -2.5394 C   0  0  0  0  0  0  0  0  0  0  0  0
   -5.6701   -2.1831   -1.4943 C   0  0  0  0  0  0  0  0  0  0  0  0
    0.6846    3.0351    1.6579 H   0  0  0  0  0  0  0  0  0  0  0  0
    3.4956    1.4220   -0.2790 H   0  0  0  0  0  0  0  0  0  0  0  0
    3.2892    1.9373    2.1971 H   0  0  0  0  0  0  0  0  0  0  0  0
    1.8182    1.5033    3.0720 H   0  0  0  0  0  0  0  0  0  0  0  0
    2.8886    0.2465    2.4898 H   0  0  0  0  0  0  0  0  0  0  0  0
    3.4647   -0.9199    0.8203 H   0  0  0  0  0  0  0  0  0  0  0  0
    2.0987   -1.3345   -0.2373 H   0  0  0  0  0  0  0  0  0  0  0  0
    1.2387    4.5968   -0.0511 H   0  0  0  0  0  0  0  0  0  0  0  0
    2.7609    3.7977    0.3725 H   0  0  0  0  0  0  0  0  0  0  0  0
    1.8893    3.3996   -1.1340 H   0  0  0  0  0  0  0  0  0  0  0  0
   -1.0984   -2.5543    1.5508 H   0  0  0  0  0  0  0  0  0  0  0  0
    1.2406    0.2907   -1.5796 H   0  0  0  0  0  0  0  0  0  0  0  0
    3.2798   -1.4998   -2.1356 H   0  0  0  0  0  0  0  0  0  0  0  0
    0.9845   -2.5141    2.1803 H   0  0  0  0  0  0  0  0  0  0  0  0
   -5.5263    2.2593   -0.7470 H   0  0  0  0  0  0  0  0  0  0  0  0
   -6.2933    0.8019   -1.3753 H   0  0  0  0  0  0  0  0  0  0  0  0
   -5.0254    1.5921   -2.3197 H   0  0  0  0  0  0  0  0  0  0  0  0
    6.9296   -0.1365   -0.5629 H   0  0  0  0  0  0  0  0  0  0  0  0
    5.4770    0.2038    0.3555 H   0  0  0  0  0  0  0  0  0  0  0  0
    6.6461   -2.3923   -2.2520 H   0  0  0  0  0  0  0  0  0  0  0  0
    6.5537   -0.7599   -2.9537 H   0  0  0  0  0  0  0  0  0  0  0  0
    5.3143   -1.9635   -3.3341 H   0  0  0  0  0  0  0  0  0  0  0  0
   -4.8591   -2.9164   -1.5643 H   0  0  0  0  0  0  0  0  0  0  0  0
   -5.6412   -1.5118   -2.3596 H   0  0  0  0  0  0  0  0  0  0  0  0
   -6.6182   -2.7287   -1.5257 H   0  0  0  0  0  0  0  0  0  0  0  0
    6.8303   -2.2937    0.2135 H   0  0  0  0  0  0  0  0  0  0  0  0
  1  9  1  0  0  0  0
  1 13  1  0  0  0  0
  2 10  1  0  0  0  0
  2 41  1  0  0  0  0
  3 16  1  0  0  0  0
  3 43  1  0  0  0  0
  4 21  2  0  0  0  0
  5 24  1  0  0  0  0
  5 29  1  0  0  0  0
  6 22  2  0  0  0  0
  7 27  1  0  0  0  0
  7 55  1  0  0  0  0
  8  9  1  0  0  0  0
  8 10  1  0  0  0  0
  8 11  1  0  0  0  0
  8 12  1  0  0  0  0
  9 15  1  0  0  0  0
  9 30  1  0  0  0  0
 10 14  1  0  0  0  0
 10 31  1  0  0  0  0
 11 13  1  0  0  0  0
 11 16  2  0  0  0  0
 12 32  1  0  0  0  0
 12 33  1  0  0  0  0
 12 34  1  0  0  0  0
 13 17  2  0  0  0  0
 14 20  1  0  0  0  0
 14 35  1  0  0  0  0
 14 36  1  0  0  0  0
 15 37  1  0  0  0  0
 15 38  1  0  0  0  0
 15 39  1  0  0  0  0
 16 19  1  0  0  0  0
 17 18  1  0  0  0  0
 17 21  1  0  0  0  0
 18 19  2  0  0  0  0
 18 22  1  0  0  0  0
 19 40  1  0  0  0  0
 20 25  2  0  0  0  0
 20 42  1  0  0  0  0
 21 23  1  0  0  0  0
 22 24  1  0  0  0  0
 23 24  2  0  0  0  0
 23 26  1  0  0  0  0
 25 27  1  0  0  0  0
 25 28  1  0  0  0  0
 26 44  1  0  0  0  0
 26 45  1  0  0  0  0
 26 46  1  0  0  0  0
 27 47  1  0  0  0  0
 27 48  1  0  0  0  0
 28 49  1  0  0  0  0
 28 50  1  0  0  0  0
 28 51  1  0  0  0  0
 29 52  1  0  0  0  0
 29 53  1  0  0  0  0
 29 54  1  0  0  0  0
M  END
> <PUBCHEM_COMPOUND_CID>
11079919

> <PUBCHEM_CONFORMER_RMSD>
0.8

> <PUBCHEM_CONFORMER_DIVERSEORDER>
2
7
6
3
5
4
1

> <PUBCHEM_MMFF94_PARTIAL_CHARGES>
32
1 -0.36
10 0.28
11 -0.14
13 0.08
14 0.14
16 0.08
17 0.09
18 0.09
19 -0.15
2 -0.68
20 -0.29
21 0.47
22 0.47
23 -0.12
24 0.09
25 -0.28
26 0.14
27 0.42
28 0.14
29 0.28
3 -0.53
4 -0.57
40 0.15
41 0.4
42 0.15
43 0.45
5 -0.36
55 0.4
6 -0.57
7 -0.68
8 0.14
9 0.28

> <PUBCHEM_EFFECTIVE_ROTOR_COUNT>
5.6

> <PUBCHEM_PHARMACOPHORE_FEATURES>
13
1 1 acceptor
1 2 acceptor
1 2 donor
1 28 hydrophobe
1 3 donor
1 4 acceptor
1 5 acceptor
1 6 acceptor
1 7 acceptor
1 7 donor
5 1 8 9 11 13 rings
6 11 13 16 17 18 19 rings
6 17 18 21 22 23 24 rings

> <PUBCHEM_HEAVY_ATOM_COUNT>
29

> <PUBCHEM_ATOM_DEF_STEREO_COUNT>
3

> <PUBCHEM_ATOM_UDEF_STEREO_COUNT>
0

> <PUBCHEM_BOND_DEF_STEREO_COUNT>
1

> <PUBCHEM_BOND_UDEF_STEREO_COUNT>
0

> <PUBCHEM_ISOTOPIC_ATOM_COUNT>
0

> <PUBCHEM_COMPONENT_COUNT>
1

> <PUBCHEM_CACTVS_TAUTO_COUNT>
15

> <PUBCHEM_CONFORMER_ID>
00A910EF00000002

> <PUBCHEM_MMFF94_ENERGY>
98.7207

> <PUBCHEM_FEATURE_SELFOVERLAP>
66.11

> <PUBCHEM_SHAPE_FINGERPRINT>
10670039 82 17603579716990689167
10930396 42 18194936675098507474
12596602 18 14117793592389563670
12633257 1 13398622870629876429
12788726 201 18118409445349263440
12954195 1 18339928100178598197
13134695 92 17561083639579694080
13140716 1 18043514200794730049
13540713 4 18190737721026723737
13544653 18 17346043268991007248
13583140 156 14908183023859108787
13782708 43 18131067177505510863
14251751 18 17632576076019264655
14790565 3 17403181391530007104
15183329 4 17167584869555387654
1813 80 15841280276842274896
19784866 240 17489597757148985743
20775438 99 17837194236444903255
21033650 10 17894912893138860529
21267235 1 18261672662596020987
21756936 100 7853275473104420214
21781051 124 17458914850674724747
22122407 14 13623521342836305751
221357 26 18409447011988061813
22393880 68 18261662727909371405
23379529 103 18200315566642571063
23559900 14 18410569617207199609
2838139 119 15140683561987342374
3004659 81 18259992557209972582
335352 9 18335693915497122253
392239 28 13326567415733926630
4280585 95 18335416842740622388
46194498 28 18339924942833972772
5283173 99 18334014956872960772
6823239 73 18410845577598474320
86090 222 16916523475422618446
9709674 26 18265608961061780825

> <PUBCHEM_SHAPE_MULTIPOLES>
555.72
13.12
3.01
1.75
3.69
1.59
-0.03
-9.51
-7.2
-0.21
-0.27
1.4
-0.57
1.71

> <PUBCHEM_SHAPE_SELFOVERLAP>
1203.905

> <PUBCHEM_SHAPE_VOLUME>
304.5

> <PUBCHEM_COORDINATE_TYPE>
2
5
10

$$$$
