11079110
  -OEChem-03292013303D

 50 50  0     1  0  0  0  0  0999 V2000
    1.9567    0.7887    0.1020 O   0  0  0  0  0  0  0  0  0  0  0  0
    0.6102   -2.6092    0.6453 O   0  0  0  0  0  0  0  0  0  0  0  0
   -3.1485    0.5987   -0.1234 O   0  0  0  0  0  0  0  0  0  0  0  0
   -2.1018    2.7769   -1.7612 O   0  0  0  0  0  0  0  0  0  0  0  0
    2.1607   -2.1981   -1.0096 O   0  0  0  0  0  0  0  0  0  0  0  0
    4.1670    2.4022   -0.2179 O   0  0  0  0  0  0  0  0  0  0  0  0
    1.0681    1.6142    2.0714 O   0  0  0  0  0  0  0  0  0  0  0  0
   -5.1971   -0.1765   -0.8408 O   0  0  0  0  0  0  0  0  0  0  0  0
    3.0037    0.0686    0.7851 C   0  0  1  0  0  0  0  0  0  0  0  0
    2.4839   -1.3050    1.2285 C   0  0  0  0  0  0  0  0  0  0  0  0
    4.2040   -0.0138   -0.1507 C   0  0  0  0  0  0  0  0  0  0  0  0
   -0.2332   -3.3643   -0.2558 C   0  0  2  0  0  0  0  0  0  0  0  0
   -3.5765    1.9809   -0.0508 C   0  0  2  0  0  0  0  0  0  0  0  0
   -1.6660   -3.3355    0.2972 C   0  0  0  0  0  0  0  0  0  0  0  0
   -2.3518    2.8686   -0.3568 C   0  0  1  0  0  0  0  0  0  0  0  0
    1.7591   -2.0721    0.1388 C   0  0  0  0  0  0  0  0  0  0  0  0
    4.6976    1.3530   -0.5795 C   0  0  0  0  0  0  0  0  0  0  0  0
    0.2852   -4.7986   -0.3169 C   0  0  0  0  0  0  0  0  0  0  0  0
   -1.1333    2.4809    0.4505 C   0  0  0  0  0  0  0  0  0  0  0  0
   -4.1615    2.2345    1.3349 C   0  0  0  0  0  0  0  0  0  0  0  0
   -2.2751   -1.9617    0.2065 C   0  0  0  0  0  0  0  0  0  0  0  0
    1.0461    1.4531    0.8622 C   0  0  0  0  0  0  0  0  0  0  0  0
   -0.0294    1.9045   -0.0465 C   0  0  0  0  0  0  0  0  0  0  0  0
    5.8972    1.3636   -1.4912 C   0  0  0  0  0  0  0  0  0  0  0  0
   -3.4259   -1.7005   -0.4317 C   0  0  0  0  0  0  0  0  0  0  0  0
   -4.0393   -0.3530   -0.4898 C   0  0  0  0  0  0  0  0  0  0  0  0
    3.3107    0.6336    1.6756 H   0  0  0  0  0  0  0  0  0  0  0  0
    1.7751   -1.1476    2.0514 H   0  0  0  0  0  0  0  0  0  0  0  0
    3.2939   -1.9324    1.6153 H   0  0  0  0  0  0  0  0  0  0  0  0
    3.9464   -0.5404   -1.0744 H   0  0  0  0  0  0  0  0  0  0  0  0
    5.0294   -0.5406    0.3397 H   0  0  0  0  0  0  0  0  0  0  0  0
   -0.2133   -2.9153   -1.2571 H   0  0  0  0  0  0  0  0  0  0  0  0
   -4.3438    2.1623   -0.8143 H   0  0  0  0  0  0  0  0  0  0  0  0
   -1.6624   -3.6285    1.3546 H   0  0  0  0  0  0  0  0  0  0  0  0
   -2.2867   -4.0603   -0.2435 H   0  0  0  0  0  0  0  0  0  0  0  0
   -2.5899    3.9186   -0.1549 H   0  0  0  0  0  0  0  0  0  0  0  0
    0.3089   -5.2484    0.6818 H   0  0  0  0  0  0  0  0  0  0  0  0
   -0.3396   -5.4185   -0.9671 H   0  0  0  0  0  0  0  0  0  0  0  0
    1.3113   -4.8268   -0.6978 H   0  0  0  0  0  0  0  0  0  0  0  0
   -1.2080    2.6594    1.5209 H   0  0  0  0  0  0  0  0  0  0  0  0
   -3.4613    1.9492    2.1269 H   0  0  0  0  0  0  0  0  0  0  0  0
   -4.4346    3.2862    1.4633 H   0  0  0  0  0  0  0  0  0  0  0  0
   -5.0597    1.6259    1.4859 H   0  0  0  0  0  0  0  0  0  0  0  0
   -1.7353   -1.1706    0.7205 H   0  0  0  0  0  0  0  0  0  0  0  0
    0.0802    1.6938   -1.1046 H   0  0  0  0  0  0  0  0  0  0  0  0
    5.6587    0.8348   -2.4173 H   0  0  0  0  0  0  0  0  0  0  0  0
    6.1674    2.3952   -1.7332 H   0  0  0  0  0  0  0  0  0  0  0  0
    6.7426    0.8857   -0.9901 H   0  0  0  0  0  0  0  0  0  0  0  0
   -3.9859   -2.4969   -0.9121 H   0  0  0  0  0  0  0  0  0  0  0  0
   -2.0942    1.8354   -2.0058 H   0  0  0  0  0  0  0  0  0  0  0  0
  1  9  1  0  0  0  0
  1 22  1  0  0  0  0
  2 12  1  0  0  0  0
  2 16  1  0  0  0  0
  3 13  1  0  0  0  0
  3 26  1  0  0  0  0
  4 15  1  0  0  0  0
  4 50  1  0  0  0  0
  5 16  2  0  0  0  0
  6 17  2  0  0  0  0
  7 22  2  0  0  0  0
  8 26  2  0  0  0  0
  9 10  1  0  0  0  0
  9 11  1  0  0  0  0
  9 27  1  0  0  0  0
 10 16  1  0  0  0  0
 10 28  1  0  0  0  0
 10 29  1  0  0  0  0
 11 17  1  0  0  0  0
 11 30  1  0  0  0  0
 11 31  1  0  0  0  0
 12 14  1  0  0  0  0
 12 18  1  0  0  0  0
 12 32  1  0  0  0  0
 13 15  1  0  0  0  0
 13 20  1  0  0  0  0
 13 33  1  0  0  0  0
 14 21  1  0  0  0  0
 14 34  1  0  0  0  0
 14 35  1  0  0  0  0
 15 19  1  0  0  0  0
 15 36  1  0  0  0  0
 17 24  1  0  0  0  0
 18 37  1  0  0  0  0
 18 38  1  0  0  0  0
 18 39  1  0  0  0  0
 19 23  2  0  0  0  0
 19 40  1  0  0  0  0
 20 41  1  0  0  0  0
 20 42  1  0  0  0  0
 20 43  1  0  0  0  0
 21 25  2  0  0  0  0
 21 44  1  0  0  0  0
 22 23  1  0  0  0  0
 23 45  1  0  0  0  0
 24 46  1  0  0  0  0
 24 47  1  0  0  0  0
 24 48  1  0  0  0  0
 25 26  1  0  0  0  0
 25 49  1  0  0  0  0
M  END
> <PUBCHEM_COMPOUND_CID>
11079110

> <PUBCHEM_CONFORMER_RMSD>
0.8

> <PUBCHEM_CONFORMER_DIVERSEORDER>
1
2
3

> <PUBCHEM_MMFF94_PARTIAL_CHARGES>
29
1 -0.43
10 0.06
11 0.06
12 0.28
13 0.28
14 0.14
15 0.42
16 0.66
17 0.45
19 -0.29
2 -0.43
21 -0.29
22 0.71
23 -0.14
24 0.06
25 -0.14
26 0.71
3 -0.43
4 -0.68
40 0.15
44 0.15
45 0.15
49 0.15
5 -0.57
50 0.4
6 -0.57
7 -0.57
8 -0.57
9 0.28

> <PUBCHEM_EFFECTIVE_ROTOR_COUNT>
3.8

> <PUBCHEM_PHARMACOPHORE_FEATURES>
6
1 4 acceptor
1 4 donor
1 5 acceptor
1 6 acceptor
1 7 acceptor
1 8 acceptor

> <PUBCHEM_HEAVY_ATOM_COUNT>
26

> <PUBCHEM_ATOM_DEF_STEREO_COUNT>
4

> <PUBCHEM_ATOM_UDEF_STEREO_COUNT>
0

> <PUBCHEM_BOND_DEF_STEREO_COUNT>
2

> <PUBCHEM_BOND_UDEF_STEREO_COUNT>
0

> <PUBCHEM_ISOTOPIC_ATOM_COUNT>
0

> <PUBCHEM_COMPONENT_COUNT>
1

> <PUBCHEM_CACTVS_TAUTO_COUNT>
3

> <PUBCHEM_CONFORMER_ID>
00A90DC600000001

> <PUBCHEM_MMFF94_ENERGY>
43.7967

> <PUBCHEM_FEATURE_SELFOVERLAP>
30.45

> <PUBCHEM_SHAPE_FINGERPRINT>
10366900 7 18200866370480576861
10616163 171 18410291406563434761
10670039 82 18408888473092751798
10759866 29 18113893862710272706
11014199 57 17474392851409169354
11211813 163 18336283271252124532
11513181 2 18273216387219836414
12539773 59 16191111659549774649
12553582 1 18338505460896800985
12788726 201 18342454829143410265
13122387 1 17908133288133910811
13402501 40 18340204201940166511
138480 1 17474107596671230139
13941206 138 18114183064291308282
14114211 80 18270976712309388179
14251757 17 17916887732942399524
14251757 5 18193844957934604486
14289585 56 17385724656533129532
14363568 33 17182516516200417259
14617045 38 18411985762951684225
14765038 42 18128839511102408849
14790565 3 18411143527980353440
14840074 17 17967542284752167125
14930077 153 17755886438988567012
14931854 50 18413101762900641079
14932702 115 18054242195771065048
15328829 1 17604972854669859000
15629462 23 16987182456563223792
17492 54 18334288794980561427
23559900 14 17980187592036804120
3052486 1 18118672456192756664
5283173 99 18196658621634381696

> <PUBCHEM_SHAPE_MULTIPOLES>
488.11
9.7
5.29
1.23
4.72
4.9
-0.13
-6.12
2.96
-1.85
0.38
0.33
-0.62
-0.74

> <PUBCHEM_SHAPE_SELFOVERLAP>
978.02

> <PUBCHEM_SHAPE_VOLUME>
282.7

> <PUBCHEM_COORDINATE_TYPE>
2
5
10

$$$$
