11079427
  -OEChem-03292013303D

 51 53  0     1  0  0  0  0  0999 V2000
    1.2834    0.0977   -0.7439 O   0  0  0  0  0  0  0  0  0  0  0  0
    0.7381    2.1574    0.2071 O   0  0  0  0  0  0  0  0  0  0  0  0
    4.5750   -0.2964    1.6801 O   0  0  0  0  0  0  0  0  0  0  0  0
    4.3326   -1.9302   -0.6921 O   0  0  0  0  0  0  0  0  0  0  0  0
    3.3671    2.3538    1.2354 O   0  0  0  0  0  0  0  0  0  0  0  0
   -3.1558    1.8089   -0.6836 O   0  0  0  0  0  0  0  0  0  0  0  0
    0.7168   -1.5635   -2.8595 O   0  0  0  0  0  0  0  0  0  0  0  0
   -2.0574   -4.3648    0.1967 O   0  0  0  0  0  0  0  0  0  0  0  0
    3.8690    0.1089    0.5063 C   0  0  1  0  0  0  0  0  0  0  0  0
    3.2787   -1.1415   -0.1457 C   0  0  1  0  0  0  0  0  0  0  0  0
    2.7726    1.1031    0.8896 C   0  0  2  0  0  0  0  0  0  0  0  0
    2.3005   -0.7627   -1.2601 C   0  0  1  0  0  0  0  0  0  0  0  0
    1.8043    1.3372   -0.2698 C   0  0  1  0  0  0  0  0  0  0  0  0
    1.6105   -1.9898   -1.8473 C   0  0  0  0  0  0  0  0  0  0  0  0
   -2.4793    2.5806    0.3440 C   0  0  1  0  0  0  0  0  0  0  0  0
   -0.2079    2.4209   -0.8173 C   0  0  0  0  0  0  0  0  0  0  0  0
   -2.0828    1.6438    1.4993 C   0  0  0  0  0  0  0  0  0  0  0  0
   -1.3104    3.2850   -0.2741 C   0  0  0  0  0  0  0  0  0  0  0  0
   -2.2338    0.3326    0.8299 C   0  0  0  0  0  0  0  0  0  0  0  0
   -2.8706    0.5012   -0.3884 C   0  0  0  0  0  0  0  0  0  0  0  0
   -1.8853   -0.9281    1.2797 C   0  0  0  0  0  0  0  0  0  0  0  0
   -3.1843   -0.5691   -1.2040 C   0  0  0  0  0  0  0  0  0  0  0  0
   -1.2411    4.6241   -0.3195 C   0  0  0  0  0  0  0  0  0  0  0  0
   -2.1843   -2.0253    0.4678 C   0  0  0  0  0  0  0  0  0  0  0  0
   -2.8310   -1.8467   -0.7662 C   0  0  0  0  0  0  0  0  0  0  0  0
   -1.8135   -3.3639    0.8994 C   0  0  0  0  0  0  0  0  0  0  0  0
   -1.1111   -3.5731    2.2363 C   0  0  0  0  0  0  0  0  0  0  0  0
    4.6084    0.5790   -0.1538 H   0  0  0  0  0  0  0  0  0  0  0  0
    2.7768   -1.7483    0.6180 H   0  0  0  0  0  0  0  0  0  0  0  0
    2.2364    0.7455    1.7776 H   0  0  0  0  0  0  0  0  0  0  0  0
    2.8163   -0.2402   -2.0773 H   0  0  0  0  0  0  0  0  0  0  0  0
    2.3080    1.8715   -1.0870 H   0  0  0  0  0  0  0  0  0  0  0  0
    1.0266   -2.5226   -1.0892 H   0  0  0  0  0  0  0  0  0  0  0  0
    2.3286   -2.6845   -2.2919 H   0  0  0  0  0  0  0  0  0  0  0  0
   -3.2050    3.3138    0.7195 H   0  0  0  0  0  0  0  0  0  0  0  0
    0.3029    2.9592   -1.6274 H   0  0  0  0  0  0  0  0  0  0  0  0
   -0.5933    1.5032   -1.2678 H   0  0  0  0  0  0  0  0  0  0  0  0
   -2.8135    1.7185    2.3131 H   0  0  0  0  0  0  0  0  0  0  0  0
   -1.0866    1.8222    1.9105 H   0  0  0  0  0  0  0  0  0  0  0  0
    4.9210    0.5084    2.1026 H   0  0  0  0  0  0  0  0  0  0  0  0
    4.7769   -1.4039   -1.3786 H   0  0  0  0  0  0  0  0  0  0  0  0
    2.6460    2.9666    1.4596 H   0  0  0  0  0  0  0  0  0  0  0  0
   -1.3959   -1.0224    2.2424 H   0  0  0  0  0  0  0  0  0  0  0  0
    0.0792   -0.9533   -2.4505 H   0  0  0  0  0  0  0  0  0  0  0  0
   -3.6841   -0.4271   -2.1556 H   0  0  0  0  0  0  0  0  0  0  0  0
   -0.3864    5.1283   -0.7581 H   0  0  0  0  0  0  0  0  0  0  0  0
   -2.0337    5.2471    0.0812 H   0  0  0  0  0  0  0  0  0  0  0  0
   -3.0669   -2.6954   -1.4033 H   0  0  0  0  0  0  0  0  0  0  0  0
   -1.7485   -3.2323    3.0562 H   0  0  0  0  0  0  0  0  0  0  0  0
   -0.1479   -3.0561    2.2417 H   0  0  0  0  0  0  0  0  0  0  0  0
   -0.9216   -4.6420    2.3775 H   0  0  0  0  0  0  0  0  0  0  0  0
  1 12  1  0  0  0  0
  1 13  1  0  0  0  0
  2 13  1  0  0  0  0
  2 16  1  0  0  0  0
  3  9  1  0  0  0  0
  3 40  1  0  0  0  0
  4 10  1  0  0  0  0
  4 41  1  0  0  0  0
  5 11  1  0  0  0  0
  5 42  1  0  0  0  0
  6 15  1  0  0  0  0
  6 20  1  0  0  0  0
  7 14  1  0  0  0  0
  7 44  1  0  0  0  0
  8 26  2  0  0  0  0
  9 10  1  0  0  0  0
  9 11  1  0  0  0  0
  9 28  1  0  0  0  0
 10 12  1  0  0  0  0
 10 29  1  0  0  0  0
 11 13  1  0  0  0  0
 11 30  1  0  0  0  0
 12 14  1  0  0  0  0
 12 31  1  0  0  0  0
 13 32  1  0  0  0  0
 14 33  1  0  0  0  0
 14 34  1  0  0  0  0
 15 17  1  0  0  0  0
 15 18  1  0  0  0  0
 15 35  1  0  0  0  0
 16 18  1  0  0  0  0
 16 36  1  0  0  0  0
 16 37  1  0  0  0  0
 17 19  1  0  0  0  0
 17 38  1  0  0  0  0
 17 39  1  0  0  0  0
 18 23  2  0  0  0  0
 19 20  2  0  0  0  0
 19 21  1  0  0  0  0
 20 22  1  0  0  0  0
 21 24  2  0  0  0  0
 21 43  1  0  0  0  0
 22 25  2  0  0  0  0
 22 45  1  0  0  0  0
 23 46  1  0  0  0  0
 23 47  1  0  0  0  0
 24 25  1  0  0  0  0
 24 26  1  0  0  0  0
 25 48  1  0  0  0  0
 26 27  1  0  0  0  0
 27 49  1  0  0  0  0
 27 50  1  0  0  0  0
 27 51  1  0  0  0  0
M  END
> <PUBCHEM_COMPOUND_CID>
11079427

> <PUBCHEM_CONFORMER_RMSD>
1

> <PUBCHEM_CONFORMER_DIVERSEORDER>
2
319
136
309
62
154
22
192
107
131
338
209
161
9
143
149
206
150
55
336
285
12
186
87
63
255
294
30
83
193
153
282
280
272
24
26
168
307
175
1
305
21
110
43
183
201
117
141
13
347
296
278
57
34
46
42
210
293
350
211
351
188
159
243
226
356
118
120
165
182
221
284
304
64
10
218
300
320
28
36
44
306
275
5
185
126
228
49
92
15
106
105
260
236
35
348
232
140
225
79
353
291
7
171
31
276
238
20
219
179
50
254
14
229
326
355
146
17
197
337
61
163
248
274
32
312
301
295
191
357
133
184
160
45
82
97
130
90
297
3
148
247
38
152
354
303
101
333
138
70
167
115
290
262
137
322
147
39
69
86
77
169
195
96
109
53
25
270
139
299
200
108
123
89
18
170
135
224
98
4
116
250
302
332
176
40
58
198
252
204
157
215
335
104
132
76
172
244
112
327
16
6
358
114
94
199
41
298
342
310
8
345
318
88
360
59
75
257
268
129
56
325
74
230
258
155
240
341
91
265
48
205
122
241
245
181
178
73
134
78
220
187
194
251
324
27
207
256
11
316
242
331
71
203
68
124
308
227
102
151
339
213
52
328
173
359
216
67
288
158
249
51
273
125
266
234
222
95
212
33
349
277
352
177
281
196
145
164
65
287
111
329
208
286
233
19
261
72
253
162
99
343
37
334
267
85
23
66
269
81
47
311
314
313
289
235
127
142
144
292
128
174
346
344
264
239
231
340
103
54
156
190
223
271
84
119
29
317
315
80
113
202
283
323
60
166
121
237
246
214
180
189
93
321
100
217
330
263
279
259

> <PUBCHEM_MMFF94_PARTIAL_CHARGES>
36
1 -0.56
10 0.28
11 0.28
12 0.28
13 0.56
14 0.28
15 0.42
16 0.42
17 0.14
18 -0.28
19 -0.14
2 -0.56
20 0.08
21 -0.15
22 -0.15
23 -0.3
24 0.09
25 -0.15
26 0.42
27 0.06
3 -0.68
4 -0.68
40 0.4
41 0.4
42 0.4
43 0.15
44 0.4
45 0.15
46 0.15
47 0.15
48 0.15
5 -0.68
6 -0.36
7 -0.68
8 -0.57
9 0.28

> <PUBCHEM_EFFECTIVE_ROTOR_COUNT>
7.8

> <PUBCHEM_PHARMACOPHORE_FEATURES>
16
1 1 acceptor
1 2 acceptor
1 23 hydrophobe
1 3 acceptor
1 3 donor
1 4 acceptor
1 4 donor
1 5 acceptor
1 5 donor
1 6 acceptor
1 7 acceptor
1 7 donor
1 8 acceptor
5 6 15 17 19 20 rings
6 1 9 10 11 12 13 rings
6 19 20 21 22 24 25 rings

> <PUBCHEM_HEAVY_ATOM_COUNT>
27

> <PUBCHEM_ATOM_DEF_STEREO_COUNT>
6

> <PUBCHEM_ATOM_UDEF_STEREO_COUNT>
0

> <PUBCHEM_BOND_DEF_STEREO_COUNT>
0

> <PUBCHEM_BOND_UDEF_STEREO_COUNT>
0

> <PUBCHEM_ISOTOPIC_ATOM_COUNT>
0

> <PUBCHEM_COMPONENT_COUNT>
1

> <PUBCHEM_CACTVS_TAUTO_COUNT>
2

> <PUBCHEM_CONFORMER_ID>
00A90F0300000002

> <PUBCHEM_MMFF94_ENERGY>
75.4928

> <PUBCHEM_FEATURE_SELFOVERLAP>
81.362

> <PUBCHEM_SHAPE_FINGERPRINT>
10366900 7 18201995551674219072
10906281 52 18340214110677924221
12553582 1 18193574469378748325
12633257 1 18269554944942823712
14251757 5 18120966956608637910
20600515 1 18114168791602968981
20775530 9 17975135653634514891
20905425 154 16895696263996359653
21421861 104 17257126038525856347
23559900 14 18268696367995880672
3027735 51 18192696857441983773
3298306 158 17398957076545765589
35225 105 17971443304720521702
469060 322 17265502096330340006
484985 159 16957823309651690474
5265222 85 17758423789465406606
81228 2 18341067275813359793
9709674 26 18413666924530266544

> <PUBCHEM_SHAPE_MULTIPOLES>
508.69
6.69
5.33
1.8
6.87
0.25
-0.31
-1
0.84
-4.02
0.87
0.47
-1.21
1.34

> <PUBCHEM_SHAPE_SELFOVERLAP>
1080.159

> <PUBCHEM_SHAPE_VOLUME>
282

> <PUBCHEM_COORDINATE_TYPE>
2
5
10

$$$$
