11079644
  -OEChem-03292013303D

 30 32  0     0  0  0  0  0  0999 V2000
    3.0233   -1.6893    0.6793 Br  0  0  0  0  0  0  0  0  0  0  0  0
    4.6242    1.5256   -0.0106 Br  0  0  0  0  0  0  0  0  0  0  0  0
   -0.9031    3.2982   -0.5192 O   0  0  0  0  0  0  0  0  0  0  0  0
   -1.7824    1.1979   -0.0587 N   0  0  0  0  0  0  0  0  0  0  0  0
    1.7935    2.0834   -0.1948 N   0  0  0  0  0  0  0  0  0  0  0  0
   -0.1822   -2.0124    0.6763 N   0  0  0  0  0  0  0  0  0  0  0  0
    0.1229   -4.2203   -0.2709 N   0  0  0  0  0  0  0  0  0  0  0  0
   -0.1409   -2.3983   -1.6109 N   0  0  0  0  0  0  0  0  0  0  0  0
   -1.6017   -0.1527    0.2308 C   0  0  0  0  0  0  0  0  0  0  0  0
   -2.9410   -0.8204    0.3546 C   0  0  0  0  0  0  0  0  0  0  0  0
   -3.2013    1.5246   -0.1421 C   0  0  0  0  0  0  0  0  0  0  0  0
   -3.8759    0.3687    0.5841 C   0  0  0  0  0  0  0  0  0  0  0  0
   -0.3754   -0.6923    0.3825 C   0  0  0  0  0  0  0  0  0  0  0  0
   -0.7406    2.1112   -0.2493 C   0  0  0  0  0  0  0  0  0  0  0  0
    0.7656    0.1580    0.2174 C   0  0  0  0  0  0  0  0  0  0  0  0
    0.5618    1.4939   -0.0868 C   0  0  0  0  0  0  0  0  0  0  0  0
    2.1572   -0.0649    0.2960 C   0  0  0  0  0  0  0  0  0  0  0  0
    2.7694    1.1447    0.0367 C   0  0  0  0  0  0  0  0  0  0  0  0
   -0.0735   -2.8558   -0.3144 C   0  0  0  0  0  0  0  0  0  0  0  0
   -3.1942   -1.3280   -0.5826 H   0  0  0  0  0  0  0  0  0  0  0  0
   -2.9928   -1.5353    1.1806 H   0  0  0  0  0  0  0  0  0  0  0  0
   -3.4768    1.5606   -1.2019 H   0  0  0  0  0  0  0  0  0  0  0  0
   -3.4042    2.4982    0.3135 H   0  0  0  0  0  0  0  0  0  0  0  0
   -4.8935    0.1842    0.2278 H   0  0  0  0  0  0  0  0  0  0  0  0
   -3.9311    0.5887    1.6580 H   0  0  0  0  0  0  0  0  0  0  0  0
    1.9619    3.0565   -0.4100 H   0  0  0  0  0  0  0  0  0  0  0  0
    0.1992   -4.7094    0.6143 H   0  0  0  0  0  0  0  0  0  0  0  0
    0.1941   -4.7733   -1.1178 H   0  0  0  0  0  0  0  0  0  0  0  0
   -0.0552   -3.0472   -2.3863 H   0  0  0  0  0  0  0  0  0  0  0  0
   -0.2762   -1.4272   -1.8655 H   0  0  0  0  0  0  0  0  0  0  0  0
  1 17  1  0  0  0  0
  2 18  1  0  0  0  0
  3 14  2  0  0  0  0
  4  9  1  0  0  0  0
  4 11  1  0  0  0  0
  4 14  1  0  0  0  0
  5 16  1  0  0  0  0
  5 18  1  0  0  0  0
  5 26  1  0  0  0  0
  6 13  1  0  0  0  0
  6 19  2  0  0  0  0
  7 19  1  0  0  0  0
  7 27  1  0  0  0  0
  7 28  1  0  0  0  0
  8 19  1  0  0  0  0
  8 29  1  0  0  0  0
  8 30  1  0  0  0  0
  9 10  1  0  0  0  0
  9 13  2  0  0  0  0
 10 12  1  0  0  0  0
 10 20  1  0  0  0  0
 10 21  1  0  0  0  0
 11 12  1  0  0  0  0
 11 22  1  0  0  0  0
 11 23  1  0  0  0  0
 12 24  1  0  0  0  0
 12 25  1  0  0  0  0
 13 15  1  0  0  0  0
 14 16  1  0  0  0  0
 15 16  2  0  0  0  0
 15 17  1  0  0  0  0
 17 18  2  0  0  0  0
M  END
> <PUBCHEM_COMPOUND_CID>
11079644

> <PUBCHEM_CONFORMER_RMSD>
0.6

> <PUBCHEM_CONFORMER_DIVERSEORDER>
1
2

> <PUBCHEM_MMFF94_PARTIAL_CHARGES>
23
1 -0.06
10 0.14
11 0.3
13 0.22
14 0.71
15 -0.05
16 -0.24
17 0.06
18 -0.09
19 0.55
2 -0.06
26 0.27
27 0.4
28 0.4
29 0.4
3 -0.57
30 0.4
4 -0.47
5 0.03
6 -0.62
7 -0.85
8 -0.85
9 -0.03

> <PUBCHEM_EFFECTIVE_ROTOR_COUNT>
1.6

> <PUBCHEM_PHARMACOPHORE_FEATURES>
11
1 1 hydrophobe
1 2 hydrophobe
1 3 acceptor
1 5 cation
1 5 donor
1 7 donor
1 8 donor
4 6 7 8 19 cation
5 4 9 10 11 12 rings
5 5 15 16 17 18 rings
6 4 9 13 14 15 16 rings

> <PUBCHEM_HEAVY_ATOM_COUNT>
19

> <PUBCHEM_ATOM_DEF_STEREO_COUNT>
0

> <PUBCHEM_ATOM_UDEF_STEREO_COUNT>
0

> <PUBCHEM_BOND_DEF_STEREO_COUNT>
0

> <PUBCHEM_BOND_UDEF_STEREO_COUNT>
0

> <PUBCHEM_ISOTOPIC_ATOM_COUNT>
0

> <PUBCHEM_COMPONENT_COUNT>
1

> <PUBCHEM_CACTVS_TAUTO_COUNT>
4

> <PUBCHEM_CONFORMER_ID>
00A90FDC00000001

> <PUBCHEM_MMFF94_ENERGY>
48.4362

> <PUBCHEM_FEATURE_SELFOVERLAP>
56.064

> <PUBCHEM_SHAPE_FINGERPRINT>
10411042 1 17257652223490748859
10967382 1 18408604794196567744
1100329 8 17906173210914597425
12553582 1 16968586772362512098
13140716 1 18410295778887589265
14178342 30 17765146173170831656
14223421 5 18121220879116650761
14790565 3 18337404823634970972
15042514 8 18264771133069637818
15196674 1 18335420136569049481
15309172 13 18411989069607023441
16945 1 18121499059684458409
193761 8 17832988252312483065
19591789 44 18410015480700444194
20028762 73 17985554596493540791
20510252 161 18342741793057111968
20645476 183 17896619434090145166
20645477 70 18263637386373518325
20739085 24 18118993350026388721
20905425 154 17691124838254238966
2334 1 18337391642500704017
23402539 116 18270394017953340453
23419403 2 17388799904008131270
23463225 33 18334575707111685737
23557571 272 17912940662493334908
23559900 14 18194393387014885850
2748010 2 18408324401773233089
3250762 1 17904485099757365109
335352 9 18047468920375059925
34934 24 18263076772782105392
350125 39 18264773164710728392
43471831 8 18336829693063581723
5104073 3 18334859364190623241
54173680 148 17906454677164333730
589210 1 17834960771888210893
69090 78 18340485676753139040
7364860 26 18124596384040078203
7832392 63 18122343738239252488
81228 2 17837471313210980979
84936 31 16771541755602441087
90525 40 18412544335953544831

> <PUBCHEM_SHAPE_MULTIPOLES>
372.12
5.85
3.9
0.84
2.32
2.78
0.12
-2.92
-0.9
0.11
0.93
-0.01
0.35
-0.21

> <PUBCHEM_SHAPE_SELFOVERLAP>
792.774

> <PUBCHEM_SHAPE_VOLUME>
214.3

> <PUBCHEM_COORDINATE_TYPE>
2
5
10

$$$$
