11089915
  -OEChem-03292013303D

 54 56  0     1  0  0  0  0  0999 V2000
    1.7260    0.8134   -1.2054 O   0  0  0  0  0  0  0  0  0  0  0  0
    3.6027    2.1122   -0.8426 O   0  0  0  0  0  0  0  0  0  0  0  0
    1.6083   -3.0351    0.2548 O   0  0  0  0  0  0  0  0  0  0  0  0
    1.2612    1.9117    1.8365 O   0  0  0  0  0  0  0  0  0  0  0  0
   -2.1919   -0.2849    0.5578 O   0  0  0  0  0  0  0  0  0  0  0  0
    0.4598   -4.8744   -0.5308 O   0  0  0  0  0  0  0  0  0  0  0  0
   -2.5298    1.9800    0.8324 O   0  0  0  0  0  0  0  0  0  0  0  0
    0.5078    1.5409   -1.3260 C   0  0  2  0  0  0  0  0  0  0  0  0
    2.5699    1.3559   -0.1856 C   0  0  2  0  0  0  0  0  0  0  0  0
    3.2222    0.1783    0.5978 C   0  0  2  0  0  0  0  0  0  0  0  0
    0.5735    2.7020   -0.3288 C   0  0  0  0  0  0  0  0  0  0  0  0
    1.7402    2.3838    0.5919 C   0  0  1  0  0  0  0  0  0  0  0  0
   -0.6800    0.5654   -1.1234 C   0  0  0  0  0  0  0  0  0  0  0  0
   -0.1298   -1.4945    0.4469 C   0  0  2  0  0  0  0  0  0  0  0  0
   -0.7983   -0.1212    0.2487 C   0  0  2  0  0  0  0  0  0  0  0  0
    1.3693   -1.6078    0.1837 C   0  0  1  0  0  0  0  0  0  0  0  0
    2.2593   -0.8826    1.2037 C   0  0  0  0  0  0  0  0  0  0  0  0
    0.4517    2.0776   -2.7636 C   0  0  0  0  0  0  0  0  0  0  0  0
    4.1855    0.6827    1.6831 C   0  0  0  0  0  0  0  0  0  0  0  0
   -0.5657   -2.6840   -0.3529 C   0  0  0  0  0  0  0  0  0  0  0  0
    0.5197   -3.6912   -0.2522 C   0  0  0  0  0  0  0  0  0  0  0  0
   -1.6562   -2.9189   -1.0856 C   0  0  0  0  0  0  0  0  0  0  0  0
   -2.9424    0.8612    0.5562 C   0  0  0  0  0  0  0  0  0  0  0  0
   -4.3748    0.5360    0.1704 C   0  0  0  0  0  0  0  0  0  0  0  0
   -5.1787    0.1934    1.4190 C   0  0  0  0  0  0  0  0  0  0  0  0
   -5.0093    1.7002   -0.5859 C   0  0  0  0  0  0  0  0  0  0  0  0
    3.8462   -0.3639   -0.1285 H   0  0  0  0  0  0  0  0  0  0  0  0
   -0.3665    2.8745    0.1970 H   0  0  0  0  0  0  0  0  0  0  0  0
    0.8042    3.6350   -0.8590 H   0  0  0  0  0  0  0  0  0  0  0  0
    2.3161    3.2899    0.8142 H   0  0  0  0  0  0  0  0  0  0  0  0
   -0.5955   -0.2280   -1.8783 H   0  0  0  0  0  0  0  0  0  0  0  0
   -1.5944    1.1020   -1.3985 H   0  0  0  0  0  0  0  0  0  0  0  0
   -0.3250   -1.7814    1.4933 H   0  0  0  0  0  0  0  0  0  0  0  0
   -0.4090    0.5323    1.0272 H   0  0  0  0  0  0  0  0  0  0  0  0
    1.6410   -1.3514   -0.8432 H   0  0  0  0  0  0  0  0  0  0  0  0
    2.8768   -1.6307    1.7198 H   0  0  0  0  0  0  0  0  0  0  0  0
    1.6479   -0.4292    1.9891 H   0  0  0  0  0  0  0  0  0  0  0  0
    0.4695    1.2560   -3.4890 H   0  0  0  0  0  0  0  0  0  0  0  0
   -0.4496    2.6750   -2.9356 H   0  0  0  0  0  0  0  0  0  0  0  0
    1.3282    2.6973   -2.9859 H   0  0  0  0  0  0  0  0  0  0  0  0
    3.6566    1.1932    2.4930 H   0  0  0  0  0  0  0  0  0  0  0  0
    4.7381   -0.1539    2.1248 H   0  0  0  0  0  0  0  0  0  0  0  0
    4.9238    1.3763    1.2683 H   0  0  0  0  0  0  0  0  0  0  0  0
    3.2263    2.9541   -1.1491 H   0  0  0  0  0  0  0  0  0  0  0  0
    0.7244    2.6177    2.2350 H   0  0  0  0  0  0  0  0  0  0  0  0
   -2.4455   -2.1829   -1.1817 H   0  0  0  0  0  0  0  0  0  0  0  0
   -1.7923   -3.8548   -1.6178 H   0  0  0  0  0  0  0  0  0  0  0  0
   -4.3599   -0.3281   -0.5054 H   0  0  0  0  0  0  0  0  0  0  0  0
   -5.2050    1.0362    2.1188 H   0  0  0  0  0  0  0  0  0  0  0  0
   -4.7337   -0.6569    1.9470 H   0  0  0  0  0  0  0  0  0  0  0  0
   -6.2095   -0.0700    1.1610 H   0  0  0  0  0  0  0  0  0  0  0  0
   -5.0782    2.5962    0.0410 H   0  0  0  0  0  0  0  0  0  0  0  0
   -6.0191    1.4423   -0.9216 H   0  0  0  0  0  0  0  0  0  0  0  0
   -4.4137    1.9598   -1.4679 H   0  0  0  0  0  0  0  0  0  0  0  0
  1  8  1  0  0  0  0
  1  9  1  0  0  0  0
  2  9  1  0  0  0  0
  2 44  1  0  0  0  0
  3 16  1  0  0  0  0
  3 21  1  0  0  0  0
  4 12  1  0  0  0  0
  4 45  1  0  0  0  0
  5 15  1  0  0  0  0
  5 23  1  0  0  0  0
  6 21  2  0  0  0  0
  7 23  2  0  0  0  0
  8 11  1  0  0  0  0
  8 13  1  0  0  0  0
  8 18  1  0  0  0  0
  9 10  1  0  0  0  0
  9 12  1  0  0  0  0
 10 17  1  0  0  0  0
 10 19  1  0  0  0  0
 10 27  1  0  0  0  0
 11 12  1  0  0  0  0
 11 28  1  0  0  0  0
 11 29  1  0  0  0  0
 12 30  1  0  0  0  0
 13 15  1  0  0  0  0
 13 31  1  0  0  0  0
 13 32  1  0  0  0  0
 14 15  1  0  0  0  0
 14 16  1  0  0  0  0
 14 20  1  0  0  0  0
 14 33  1  0  0  0  0
 15 34  1  0  0  0  0
 16 17  1  0  0  0  0
 16 35  1  0  0  0  0
 17 36  1  0  0  0  0
 17 37  1  0  0  0  0
 18 38  1  0  0  0  0
 18 39  1  0  0  0  0
 18 40  1  0  0  0  0
 19 41  1  0  0  0  0
 19 42  1  0  0  0  0
 19 43  1  0  0  0  0
 20 21  1  0  0  0  0
 20 22  2  0  0  0  0
 22 46  1  0  0  0  0
 22 47  1  0  0  0  0
 23 24  1  0  0  0  0
 24 25  1  0  0  0  0
 24 26  1  0  0  0  0
 24 48  1  0  0  0  0
 25 49  1  0  0  0  0
 25 50  1  0  0  0  0
 25 51  1  0  0  0  0
 26 52  1  0  0  0  0
 26 53  1  0  0  0  0
 26 54  1  0  0  0  0
M  END
> <PUBCHEM_COMPOUND_CID>
11089915

> <PUBCHEM_CONFORMER_RMSD>
0.8

> <PUBCHEM_CONFORMER_DIVERSEORDER>
1
5
10
8
6
13
11
12
4
2
3
7
9

> <PUBCHEM_MMFF94_PARTIAL_CHARGES>
22
1 -0.56
12 0.28
14 0.14
15 0.28
16 0.28
2 -0.68
20 -0.12
21 0.71
22 -0.3
23 0.66
24 0.06
3 -0.43
4 -0.68
44 0.4
45 0.4
46 0.15
47 0.15
5 -0.43
6 -0.57
7 -0.57
8 0.28
9 0.56

> <PUBCHEM_EFFECTIVE_ROTOR_COUNT>
4.6

> <PUBCHEM_PHARMACOPHORE_FEATURES>
10
1 1 acceptor
1 2 acceptor
1 2 donor
1 4 acceptor
1 4 donor
1 6 acceptor
1 7 acceptor
3 24 25 26 hydrophobe
5 1 8 9 11 12 rings
5 3 14 16 20 21 rings

> <PUBCHEM_HEAVY_ATOM_COUNT>
26

> <PUBCHEM_ATOM_DEF_STEREO_COUNT>
7

> <PUBCHEM_ATOM_UDEF_STEREO_COUNT>
0

> <PUBCHEM_BOND_DEF_STEREO_COUNT>
0

> <PUBCHEM_BOND_UDEF_STEREO_COUNT>
0

> <PUBCHEM_ISOTOPIC_ATOM_COUNT>
0

> <PUBCHEM_COMPONENT_COUNT>
1

> <PUBCHEM_CACTVS_TAUTO_COUNT>
1

> <PUBCHEM_CONFORMER_ID>
00A937FB00000001

> <PUBCHEM_MMFF94_ENERGY>
93.9819

> <PUBCHEM_FEATURE_SELFOVERLAP>
50.796

> <PUBCHEM_SHAPE_FINGERPRINT>
10064457 181 18340483490614960904
10493431 412 18340760533333043872
10675989 125 17184451657156056207
1100329 8 18269550692782801728
11370993 70 18341040887191486385
11582403 64 16987410144762419592
12422481 6 18115850941503960368
12633257 1 18197752566641690464
12788726 201 17836367425080232063
12839892 36 18337115674168238187
13009979 54 17541369581230268944
13140716 1 18262508295263725106
13965767 371 18264464266056187680
14178342 30 17833533971068161712
14790565 3 18409738348258053380
14863182 85 18337688437583424991
14955137 171 18335996310578809378
15420108 30 18268973367373679322
1601671 61 18261116248701868892
16752209 62 18050855716852092895
16945 1 18336538348695376796
17357779 13 17685205076461312791
17492 54 17607282842151831326
19591789 44 18196092140843192662
1979834 28 18335992978248748601
20028762 73 18201155572256966935
20691752 17 17025733455255882409
20739085 24 18113623369495543548
20905425 154 18050295760300726101
21285901 2 17678453057191550989
22182313 1 17902773194850155918
23184049 59 18260824886641780153
23419403 2 17684074795413508823
23558518 356 17470174021014236828
23559900 14 18193557770830725427
2748010 2 17614539472839701910
3060560 45 18410862027265312190
350125 39 18266460004383678123
465052 167 17386013900905276369
513532 50 18059013856991067821
6287921 2 18198909110987162871
6443956 14 17977668602481857405
7064713 232 18340756135054261810
7364860 26 18267593416293634475
81228 2 17333955525775764883

> <PUBCHEM_SHAPE_MULTIPOLES>
493.98
6.92
4.51
1.63
7.92
5.66
-0.49
-4.23
3.07
-1.25
-1.41
-0.37
-0.98
-0.38

> <PUBCHEM_SHAPE_SELFOVERLAP>
1036.208

> <PUBCHEM_SHAPE_VOLUME>
278

> <PUBCHEM_COORDINATE_TYPE>
2
5
10

$$$$
