11096831
  -OEChem-03292013303D

 25 25  0     1  0  0  0  0  0999 V2000
    1.3505   -1.9791   -0.9224 O   0  0  0  0  0  0  0  0  0  0  0  0
    2.0018   -0.3236    1.8569 O   0  0  0  0  0  0  0  0  0  0  0  0
    3.8726   -0.7214    0.6369 O   0  0  0  0  0  0  0  0  0  0  0  0
   -3.0693   -1.7353    0.3828 O   0  0  0  0  0  0  0  0  0  0  0  0
   -2.8409    2.3392    0.0907 O   0  5  0  0  0  0  0  0  0  0  0  0
   -4.0682    0.5709    0.5573 O   0  0  0  0  0  0  0  0  0  0  0  0
    0.3590    0.1295   -0.7445 N   0  0  0  0  0  0  0  0  0  0  0  0
   -0.8486   -1.8511   -0.2703 N   0  0  0  0  0  0  0  0  0  0  0  0
    3.6856    1.8206   -0.4015 N   0  0  0  0  0  0  0  0  0  0  0  0
   -3.0093    1.1157    0.2091 N   0  3  0  0  0  0  0  0  0  0  0  0
    1.5742    0.8270   -1.1486 C   0  0  0  0  0  0  0  0  0  0  0  0
    2.4549    1.1759    0.0521 C   0  0  1  0  0  0  0  0  0  0  0  0
   -0.7720    0.8670   -0.4471 C   0  0  0  0  0  0  0  0  0  0  0  0
    0.3701   -1.2758   -0.6681 C   0  0  0  0  0  0  0  0  0  0  0  0
   -1.9042    0.2739   -0.0750 C   0  0  0  0  0  0  0  0  0  0  0  0
    2.8721   -0.0490    0.8484 C   0  0  0  0  0  0  0  0  0  0  0  0
   -2.0282   -1.1844    0.0434 C   0  0  0  0  0  0  0  0  0  0  0  0
    2.1257    0.1779   -1.8415 H   0  0  0  0  0  0  0  0  0  0  0  0
    1.3036    1.7287   -1.7130 H   0  0  0  0  0  0  0  0  0  0  0  0
    1.9388    1.8659    0.7297 H   0  0  0  0  0  0  0  0  0  0  0  0
   -0.6421    1.9396   -0.5422 H   0  0  0  0  0  0  0  0  0  0  0  0
   -0.8694   -2.8652   -0.2069 H   0  0  0  0  0  0  0  0  0  0  0  0
    3.4544    2.6688   -0.9179 H   0  0  0  0  0  0  0  0  0  0  0  0
    4.1700    1.2163   -1.0651 H   0  0  0  0  0  0  0  0  0  0  0  0
    2.2757   -1.1132    2.3705 H   0  0  0  0  0  0  0  0  0  0  0  0
  1 14  2  0  0  0  0
  2 16  1  0  0  0  0
  2 25  1  0  0  0  0
  3 16  2  0  0  0  0
  4 17  2  0  0  0  0
  5 10  1  0  0  0  0
  6 10  2  0  0  0  0
  7 11  1  0  0  0  0
  7 13  1  0  0  0  0
  7 14  1  0  0  0  0
  8 14  1  0  0  0  0
  8 17  1  0  0  0  0
  8 22  1  0  0  0  0
  9 12  1  0  0  0  0
  9 23  1  0  0  0  0
  9 24  1  0  0  0  0
 10 15  1  0  0  0  0
 11 12  1  0  0  0  0
 11 18  1  0  0  0  0
 11 19  1  0  0  0  0
 12 16  1  0  0  0  0
 12 20  1  0  0  0  0
 13 15  2  0  0  0  0
 13 21  1  0  0  0  0
 15 17  1  0  0  0  0
M  CHG  2   5  -1  10   1
M  END
> <PUBCHEM_COMPOUND_CID>
11096831

> <PUBCHEM_CONFORMER_RMSD>
0.6

> <PUBCHEM_CONFORMER_DIVERSEORDER>
1
11
6
10
2
5
8
4
9
3
7

> <PUBCHEM_MMFF94_PARTIAL_CHARGES>
22
1 -0.57
10 0.84
11 0.3
12 0.33
13 -0.04
14 0.69
15 0.22
16 0.66
17 0.62
2 -0.65
21 0.15
22 0.37
23 0.36
24 0.36
25 0.5
3 -0.57
4 -0.57
5 -0.52
6 -0.52
7 -0.47
8 -0.49
9 -0.99

> <PUBCHEM_EFFECTIVE_ROTOR_COUNT>
4

> <PUBCHEM_PHARMACOPHORE_FEATURES>
12
1 1 acceptor
1 2 acceptor
1 3 acceptor
1 4 acceptor
1 5 acceptor
1 5 anion
1 6 acceptor
1 8 donor
1 9 cation
1 9 donor
3 2 3 16 anion
6 7 8 13 14 15 17 rings

> <PUBCHEM_HEAVY_ATOM_COUNT>
17

> <PUBCHEM_ATOM_DEF_STEREO_COUNT>
1

> <PUBCHEM_ATOM_UDEF_STEREO_COUNT>
0

> <PUBCHEM_BOND_DEF_STEREO_COUNT>
0

> <PUBCHEM_BOND_UDEF_STEREO_COUNT>
0

> <PUBCHEM_ISOTOPIC_ATOM_COUNT>
0

> <PUBCHEM_COMPONENT_COUNT>
1

> <PUBCHEM_CACTVS_TAUTO_COUNT>
3

> <PUBCHEM_CONFORMER_ID>
00A952FF00000001

> <PUBCHEM_MMFF94_ENERGY>
37.1848

> <PUBCHEM_FEATURE_SELFOVERLAP>
61.054

> <PUBCHEM_SHAPE_FINGERPRINT>
11680986 33 18269845207116945935
12251169 10 18334008367791267632
12382932 28 18411141324820054753
12932764 1 17131833213299931750
13380535 76 18413106130803460743
13583140 156 17023183799839903913
13764800 53 18202290216495125689
14787075 74 16814616622664099250
15076042 46 18337383945898190998
15219456 202 18272939292840293207
15375462 189 17458896047148964752
15775835 57 18335986462377308376
16945 1 18189044300803973711
17349148 13 18337092528415205367
17804303 29 18411983538169167998
18186145 218 17843413890529112021
19422 9 18187642539933124218
201361 129 18188770677718797232
20510252 161 18200040671370478649
20525323 117 18340485664111077295
21501502 16 18410291432180322742
21524375 3 18201152178968486927
22445834 79 18041550442656223866
23388829 49 18120931977977890415
23402539 116 18339630201499863309
23419403 2 15972117487333265194
23463225 33 18334012821688190972
23559900 14 18198908015327384582
23598294 1 18339643472162778641
2748010 2 18268166300496115711
53812653 166 18131915953115551129
7097593 13 18042670737662615034
7364860 26 17915465990855709687
81228 2 16839359985218031238
84936 31 16987437503904607542

> <PUBCHEM_SHAPE_MULTIPOLES>
294.71
6.3
2.06
1.05
0.16
0.02
0.19
-1.8
1.69
0.68
-0.26
-0.69
0.12
-0.34

> <PUBCHEM_SHAPE_SELFOVERLAP>
615.763

> <PUBCHEM_SHAPE_VOLUME>
164.6

> <PUBCHEM_COORDINATE_TYPE>
2
5
10

$$$$
