11098986
  -OEChem-03292013303D

 35 37  0     0  0  0  0  0  0999 V2000
   -0.9231   -2.3085   -0.1138 O   0  0  0  0  0  0  0  0  0  0  0  0
   -1.5872    2.9895    0.0950 O   0  0  0  0  0  0  0  0  0  0  0  0
    3.3938    2.3496   -0.1284 O   0  0  0  0  0  0  0  0  0  0  0  0
   -3.4394   -2.7207   -0.0257 O   0  0  0  0  0  0  0  0  0  0  0  0
    4.3669   -0.6454    1.0032 O   0  0  0  0  0  0  0  0  0  0  0  0
    4.4577   -0.6413   -1.2968 O   0  0  0  0  0  0  0  0  0  0  0  0
    0.1016   -0.1883   -0.0838 C   0  0  0  0  0  0  0  0  0  0  0  0
   -0.0751    1.1959   -0.0288 C   0  0  0  0  0  0  0  0  0  0  0  0
    1.3927   -0.7251   -0.1548 C   0  0  0  0  0  0  0  0  0  0  0  0
   -2.4219   -0.5141    0.0084 C   0  0  0  0  0  0  0  0  0  0  0  0
   -2.5987    0.8700    0.0633 C   0  0  0  0  0  0  0  0  0  0  0  0
   -1.0654   -1.0939   -0.0670 C   0  0  0  0  0  0  0  0  0  0  0  0
   -1.4318    1.7756    0.0462 C   0  0  0  0  0  0  0  0  0  0  0  0
    2.5004    0.1229   -0.1701 C   0  0  0  0  0  0  0  0  0  0  0  0
    1.0392    2.0432   -0.0443 C   0  0  0  0  0  0  0  0  0  0  0  0
    2.3240    1.5041   -0.1147 C   0  0  0  0  0  0  0  0  0  0  0  0
   -3.5363   -1.3615    0.0252 C   0  0  0  0  0  0  0  0  0  0  0  0
    1.6614   -2.1989   -0.2168 C   0  0  0  0  0  0  0  0  0  0  0  0
   -3.8898    1.4068    0.1346 C   0  0  0  0  0  0  0  0  0  0  0  0
   -4.8210   -0.8225    0.0966 C   0  0  0  0  0  0  0  0  0  0  0  0
   -4.9975    0.5587    0.1511 C   0  0  0  0  0  0  0  0  0  0  0  0
    3.8547   -0.4187   -0.2426 C   0  0  0  0  0  0  0  0  0  0  0  0
    5.6946   -1.1774    1.0642 C   0  0  0  0  0  0  0  0  0  0  0  0
    0.9126    3.1223   -0.0018 H   0  0  0  0  0  0  0  0  0  0  0  0
    2.7168   -2.4766   -0.2738 H   0  0  0  0  0  0  0  0  0  0  0  0
    1.2862   -2.6941    0.6855 H   0  0  0  0  0  0  0  0  0  0  0  0
    1.2069   -2.6330   -1.1141 H   0  0  0  0  0  0  0  0  0  0  0  0
   -4.0541    2.4801    0.1781 H   0  0  0  0  0  0  0  0  0  0  0  0
   -5.6911   -1.4737    0.1100 H   0  0  0  0  0  0  0  0  0  0  0  0
   -5.9988    0.9758    0.2065 H   0  0  0  0  0  0  0  0  0  0  0  0
    3.0760    3.2676   -0.0833 H   0  0  0  0  0  0  0  0  0  0  0  0
   -2.5129   -2.9987   -0.0756 H   0  0  0  0  0  0  0  0  0  0  0  0
    6.4010   -0.4826    0.6004 H   0  0  0  0  0  0  0  0  0  0  0  0
    5.7324   -2.1536    0.5719 H   0  0  0  0  0  0  0  0  0  0  0  0
    5.9631   -1.3027    2.1165 H   0  0  0  0  0  0  0  0  0  0  0  0
  1 12  2  0  0  0  0
  2 13  2  0  0  0  0
  3 16  1  0  0  0  0
  3 31  1  0  0  0  0
  4 17  1  0  0  0  0
  4 32  1  0  0  0  0
  5 22  1  0  0  0  0
  5 23  1  0  0  0  0
  6 22  2  0  0  0  0
  7  8  1  0  0  0  0
  7  9  2  0  0  0  0
  7 12  1  0  0  0  0
  8 13  1  0  0  0  0
  8 15  2  0  0  0  0
  9 14  1  0  0  0  0
  9 18  1  0  0  0  0
 10 11  2  0  0  0  0
 10 12  1  0  0  0  0
 10 17  1  0  0  0  0
 11 13  1  0  0  0  0
 11 19  1  0  0  0  0
 14 16  2  0  0  0  0
 14 22  1  0  0  0  0
 15 16  1  0  0  0  0
 15 24  1  0  0  0  0
 17 20  2  0  0  0  0
 18 25  1  0  0  0  0
 18 26  1  0  0  0  0
 18 27  1  0  0  0  0
 19 21  2  0  0  0  0
 19 28  1  0  0  0  0
 20 21  1  0  0  0  0
 20 29  1  0  0  0  0
 21 30  1  0  0  0  0
 23 33  1  0  0  0  0
 23 34  1  0  0  0  0
 23 35  1  0  0  0  0
M  END
> <PUBCHEM_COMPOUND_CID>
11098986

> <PUBCHEM_CONFORMER_RMSD>
0.6

> <PUBCHEM_CONFORMER_DIVERSEORDER>
2
1

> <PUBCHEM_MMFF94_PARTIAL_CHARGES>
29
1 -0.57
10 0.09
11 0.09
12 0.4
13 0.4
14 0.09
15 -0.15
16 0.08
17 0.08
18 0.14
19 -0.15
2 -0.57
20 -0.15
21 -0.15
22 0.63
23 0.28
24 0.15
28 0.15
29 0.15
3 -0.53
30 0.15
31 0.45
32 0.45
4 -0.53
5 -0.43
6 -0.57
7 0.09
8 0.09
9 -0.14

> <PUBCHEM_EFFECTIVE_ROTOR_COUNT>
2

> <PUBCHEM_PHARMACOPHORE_FEATURES>
8
1 1 acceptor
1 2 acceptor
1 3 donor
1 4 donor
1 6 acceptor
6 10 11 17 19 20 21 rings
6 7 8 10 11 12 13 rings
6 7 8 9 14 15 16 rings

> <PUBCHEM_HEAVY_ATOM_COUNT>
23

> <PUBCHEM_ATOM_DEF_STEREO_COUNT>
0

> <PUBCHEM_ATOM_UDEF_STEREO_COUNT>
0

> <PUBCHEM_BOND_DEF_STEREO_COUNT>
0

> <PUBCHEM_BOND_UDEF_STEREO_COUNT>
0

> <PUBCHEM_ISOTOPIC_ATOM_COUNT>
0

> <PUBCHEM_COMPONENT_COUNT>
1

> <PUBCHEM_CACTVS_TAUTO_COUNT>
81

> <PUBCHEM_CONFORMER_ID>
00A95B6A00000002

> <PUBCHEM_MMFF94_ENERGY>
83.6342

> <PUBCHEM_FEATURE_SELFOVERLAP>
40.639

> <PUBCHEM_SHAPE_FINGERPRINT>
10062212 137 18411414042448295055
10319926 262 18198038328475615690
10616163 171 18412830183418219319
10967382 1 18411421704838470365
1100329 8 18410009952882108763
11132069 177 18272090478627333067
11578080 2 16915086563573729147
12236239 1 17821730494884958426
12403259 226 18411412938304414688
12403260 363 18410851070676944516
12553582 1 18410852149093485487
12633257 1 18410859832410254544
12838862 33 18266721538033072041
12839892 36 18266162955945645402
13140716 1 18339357577775464298
13675066 3 17917990585759422758
13862211 1 18410570691312760583
14178342 30 18125438618748210896
14790565 3 18338809999489539372
15042514 8 18410293631631216419
15196674 1 18338800116975019269
15442244 35 18410011082469121820
15536298 74 18342177807805081597
16945 1 18411140190711344340
17349148 13 18334293167003983143
17492 89 18192713568722512643
17804303 29 18412829087842745612
1813 80 17530969068271680508
19591789 44 18339363088382366471
200 152 18060699494389899445
20028762 73 18201433709659233175
21033648 29 17130969993962113114
21267235 1 18410866468636029455
21859007 373 17824798105987815060
221490 88 18265061399469648979
22182313 1 17986676969957205958
2334 1 18123471849663790893
23402539 116 18341323440231355495
23557571 272 18059025977183171924
23559900 14 18342175587671116344
2748010 2 18195529422279707845
3004659 81 18261118452763728230
335352 9 18410575059231035109
34934 24 18338793416984442455
350125 39 18410292527982876824
3680242 22 18336268925059263082
4214541 1 18410857650988952033
4409770 3 17463109259748396892
5104073 3 18340209690792138697
59755656 215 18339644417040143047
67856867 119 18263081166724072820
8809292 202 18334581269358032675
9709674 26 18341338811893090039
9981440 41 17324927452706399752

> <PUBCHEM_SHAPE_MULTIPOLES>
438.11
10.14
2.71
0.75
3.45
0.39
0.01
-2.61
1.41
-0.71
-0.03
0.69
-0.11
-0.35

> <PUBCHEM_SHAPE_SELFOVERLAP>
985.738

> <PUBCHEM_SHAPE_VOLUME>
230.8

> <PUBCHEM_COORDINATE_TYPE>
2
5
10

$$$$
