11092114
  -OEChem-03292013303D

 77 78  0     1  0  0  0  0  0999 V2000
    1.7170    0.2167   -0.5097 O   0  0  0  0  0  0  0  0  0  0  0  0
    3.3444    1.1165    0.8995 O   0  0  0  0  0  0  0  0  0  0  0  0
    3.5231   -1.8134   -1.2792 O   0  0  0  0  0  0  0  0  0  0  0  0
   -2.6670   -1.3306   -0.2653 O   0  0  0  0  0  0  0  0  0  0  0  0
   -1.5264   -1.5590    1.7288 O   0  0  0  0  0  0  0  0  0  0  0  0
   -6.1472   -0.3286    0.4205 O   0  0  0  0  0  0  0  0  0  0  0  0
   -3.2544    3.6949    0.6767 O   0  0  0  0  0  0  0  0  0  0  0  0
   -5.7975   -2.9004    0.7708 O   0  0  0  0  0  0  0  0  0  0  0  0
    6.3760   -1.0312   -1.0193 N   0  0  0  0  0  0  0  0  0  0  0  0
    5.3196   -0.7466   -0.0472 C   0  0  2  0  0  0  0  0  0  0  0  0
    0.5476    0.0186    0.2868 C   0  0  1  0  0  0  0  0  0  0  0  0
    3.9672   -0.5652   -0.7496 C   0  0  2  0  0  0  0  0  0  0  0  0
    2.9030   -0.0648    0.2331 C   0  0  2  0  0  0  0  0  0  0  0  0
   -0.1789    1.3872    0.4451 C   0  0  2  0  0  0  0  0  0  0  0  0
    5.6817    0.5094    0.7492 C   0  0  0  0  0  0  0  0  0  0  0  0
    4.5274    0.9017    1.6725 C   0  0  1  0  0  0  0  0  0  0  0  0
   -0.3207   -1.1043   -0.3288 C   0  0  1  0  0  0  0  0  0  0  0  0
   -0.5000    2.0571   -0.9164 C   0  0  0  0  0  0  0  0  0  0  0  0
   -1.4177    3.2968   -0.8294 C   0  0  2  0  0  0  0  0  0  0  0  0
    0.6821    2.3217    1.3105 C   0  0  0  0  0  0  0  0  0  0  0  0
    4.8362    2.1926    2.4180 C   0  0  0  0  0  0  0  0  0  0  0  0
    0.4369   -2.4271   -0.4636 C   0  0  0  0  0  0  0  0  0  0  0  0
   -1.5537   -1.3620    0.5209 C   0  0  0  0  0  0  0  0  0  0  0  0
   -3.9631   -1.4002    0.3782 C   0  0  1  0  0  0  0  0  0  0  0  0
   -4.8666   -0.2886   -0.2223 C   0  0  2  0  0  0  0  0  0  0  0  0
    6.0493   -2.2288   -1.7916 C   0  0  0  0  0  0  0  0  0  0  0  0
    7.6618   -1.1933   -0.3424 C   0  0  0  0  0  0  0  0  0  0  0  0
   -2.7841    2.9918   -0.2162 C   0  0  0  0  0  0  0  0  0  0  0  0
   -1.6061    3.9358   -2.2051 C   0  0  0  0  0  0  0  0  0  0  0  0
   -4.5014   -2.8168    0.1908 C   0  0  1  0  0  0  0  0  0  0  0  0
   -4.2309    1.0520    0.1106 C   0  0  0  0  0  0  0  0  0  0  0  0
   -3.5266    1.8129   -0.7387 C   0  0  0  0  0  0  0  0  0  0  0  0
   -5.1373   -0.4931   -1.7197 C   0  0  0  0  0  0  0  0  0  0  0  0
   -3.5937   -3.8517    0.8327 C   0  0  0  0  0  0  0  0  0  0  0  0
    5.2363   -1.5895    0.6558 H   0  0  0  0  0  0  0  0  0  0  0  0
    0.8078   -0.3055    1.3051 H   0  0  0  0  0  0  0  0  0  0  0  0
    4.0552    0.1403   -1.5856 H   0  0  0  0  0  0  0  0  0  0  0  0
    2.7166   -0.8574    0.9711 H   0  0  0  0  0  0  0  0  0  0  0  0
   -1.1100    1.2123    0.9951 H   0  0  0  0  0  0  0  0  0  0  0  0
    6.5664    0.3587    1.3768 H   0  0  0  0  0  0  0  0  0  0  0  0
    5.8921    1.3358    0.0566 H   0  0  0  0  0  0  0  0  0  0  0  0
    4.3350    0.1098    2.4075 H   0  0  0  0  0  0  0  0  0  0  0  0
   -0.6332   -0.8131   -1.3383 H   0  0  0  0  0  0  0  0  0  0  0  0
   -0.9593    1.3236   -1.5870 H   0  0  0  0  0  0  0  0  0  0  0  0
    0.4400    2.3540   -1.4002 H   0  0  0  0  0  0  0  0  0  0  0  0
   -0.9393    4.0427   -0.1833 H   0  0  0  0  0  0  0  0  0  0  0  0
    1.5160    2.7481    0.7462 H   0  0  0  0  0  0  0  0  0  0  0  0
    0.0802    3.1617    1.6739 H   0  0  0  0  0  0  0  0  0  0  0  0
    1.0688    1.8087    2.1969 H   0  0  0  0  0  0  0  0  0  0  0  0
    5.7308    2.0901    3.0397 H   0  0  0  0  0  0  0  0  0  0  0  0
    4.9850    3.0241    1.7202 H   0  0  0  0  0  0  0  0  0  0  0  0
    3.9940    2.4708    3.0610 H   0  0  0  0  0  0  0  0  0  0  0  0
    1.1432   -2.3808   -1.2944 H   0  0  0  0  0  0  0  0  0  0  0  0
    0.9795   -2.6782    0.4536 H   0  0  0  0  0  0  0  0  0  0  0  0
   -0.2508   -3.2538   -0.6753 H   0  0  0  0  0  0  0  0  0  0  0  0
   -3.8793   -1.2077    1.4581 H   0  0  0  0  0  0  0  0  0  0  0  0
    3.4418   -2.4414   -0.5410 H   0  0  0  0  0  0  0  0  0  0  0  0
    5.7192   -3.0702   -1.1718 H   0  0  0  0  0  0  0  0  0  0  0  0
    6.9355   -2.5778   -2.3384 H   0  0  0  0  0  0  0  0  0  0  0  0
    5.3332   -2.0166   -2.5909 H   0  0  0  0  0  0  0  0  0  0  0  0
    8.0531   -0.2421    0.0316 H   0  0  0  0  0  0  0  0  0  0  0  0
    8.4263   -1.5423   -1.0476 H   0  0  0  0  0  0  0  0  0  0  0  0
    7.6170   -1.9173    0.4794 H   0  0  0  0  0  0  0  0  0  0  0  0
   -2.0334    3.2302   -2.9255 H   0  0  0  0  0  0  0  0  0  0  0  0
   -2.2810    4.7967   -2.1460 H   0  0  0  0  0  0  0  0  0  0  0  0
   -0.6477    4.2845   -2.6039 H   0  0  0  0  0  0  0  0  0  0  0  0
   -4.5854   -3.0608   -0.8739 H   0  0  0  0  0  0  0  0  0  0  0  0
   -4.2981    1.3505    1.1561 H   0  0  0  0  0  0  0  0  0  0  0  0
   -3.3593    1.5303   -1.7699 H   0  0  0  0  0  0  0  0  0  0  0  0
   -5.7516   -1.3822   -1.9014 H   0  0  0  0  0  0  0  0  0  0  0  0
   -5.7128    0.3468   -2.1282 H   0  0  0  0  0  0  0  0  0  0  0  0
   -4.2160   -0.5935   -2.3026 H   0  0  0  0  0  0  0  0  0  0  0  0
   -4.0507   -4.8460    0.7715 H   0  0  0  0  0  0  0  0  0  0  0  0
   -2.6170   -3.9070    0.3450 H   0  0  0  0  0  0  0  0  0  0  0  0
   -3.4512   -3.6461    1.8992 H   0  0  0  0  0  0  0  0  0  0  0  0
   -6.5874   -1.1612    0.1809 H   0  0  0  0  0  0  0  0  0  0  0  0
   -6.1321   -3.8004    0.6168 H   0  0  0  0  0  0  0  0  0  0  0  0
  1 11  1  0  0  0  0
  1 13  1  0  0  0  0
  2 13  1  0  0  0  0
  2 16  1  0  0  0  0
  3 12  1  0  0  0  0
  3 57  1  0  0  0  0
  4 23  1  0  0  0  0
  4 24  1  0  0  0  0
  5 23  2  0  0  0  0
  6 25  1  0  0  0  0
  6 76  1  0  0  0  0
  7 28  2  0  0  0  0
  8 30  1  0  0  0  0
  8 77  1  0  0  0  0
  9 10  1  0  0  0  0
  9 26  1  0  0  0  0
  9 27  1  0  0  0  0
 10 12  1  0  0  0  0
 10 15  1  0  0  0  0
 10 35  1  0  0  0  0
 11 14  1  0  0  0  0
 11 17  1  0  0  0  0
 11 36  1  0  0  0  0
 12 13  1  0  0  0  0
 12 37  1  0  0  0  0
 13 38  1  0  0  0  0
 14 18  1  0  0  0  0
 14 20  1  0  0  0  0
 14 39  1  0  0  0  0
 15 16  1  0  0  0  0
 15 40  1  0  0  0  0
 15 41  1  0  0  0  0
 16 21  1  0  0  0  0
 16 42  1  0  0  0  0
 17 22  1  0  0  0  0
 17 23  1  0  0  0  0
 17 43  1  0  0  0  0
 18 19  1  0  0  0  0
 18 44  1  0  0  0  0
 18 45  1  0  0  0  0
 19 28  1  0  0  0  0
 19 29  1  0  0  0  0
 19 46  1  0  0  0  0
 20 47  1  0  0  0  0
 20 48  1  0  0  0  0
 20 49  1  0  0  0  0
 21 50  1  0  0  0  0
 21 51  1  0  0  0  0
 21 52  1  0  0  0  0
 22 53  1  0  0  0  0
 22 54  1  0  0  0  0
 22 55  1  0  0  0  0
 24 25  1  0  0  0  0
 24 30  1  0  0  0  0
 24 56  1  0  0  0  0
 25 31  1  0  0  0  0
 25 33  1  0  0  0  0
 26 58  1  0  0  0  0
 26 59  1  0  0  0  0
 26 60  1  0  0  0  0
 27 61  1  0  0  0  0
 27 62  1  0  0  0  0
 27 63  1  0  0  0  0
 28 32  1  0  0  0  0
 29 64  1  0  0  0  0
 29 65  1  0  0  0  0
 29 66  1  0  0  0  0
 30 34  1  0  0  0  0
 30 67  1  0  0  0  0
 31 32  2  0  0  0  0
 31 68  1  0  0  0  0
 32 69  1  0  0  0  0
 33 70  1  0  0  0  0
 33 71  1  0  0  0  0
 33 72  1  0  0  0  0
 34 73  1  0  0  0  0
 34 74  1  0  0  0  0
 34 75  1  0  0  0  0
M  END
> <PUBCHEM_COMPOUND_CID>
11092114

> <PUBCHEM_CONFORMER_RMSD>
1

> <PUBCHEM_CONFORMER_DIVERSEORDER>
2
3
1

> <PUBCHEM_MMFF94_PARTIAL_CHARGES>
30
1 -0.56
10 0.27
11 0.28
12 0.28
13 0.56
16 0.28
17 0.06
19 0.06
2 -0.56
23 0.66
24 0.28
25 0.42
26 0.27
27 0.27
28 0.49
3 -0.68
30 0.28
31 -0.29
32 -0.14
4 -0.43
5 -0.57
57 0.4
6 -0.68
68 0.15
69 0.15
7 -0.57
76 0.4
77 0.4
8 -0.68
9 -0.81

> <PUBCHEM_EFFECTIVE_ROTOR_COUNT>
6.8

> <PUBCHEM_PHARMACOPHORE_FEATURES>
12
1 1 acceptor
1 2 acceptor
1 3 acceptor
1 3 donor
1 5 acceptor
1 6 acceptor
1 6 donor
1 7 acceptor
1 8 acceptor
1 8 donor
1 9 cation
6 2 10 12 13 15 16 rings

> <PUBCHEM_HEAVY_ATOM_COUNT>
34

> <PUBCHEM_ATOM_DEF_STEREO_COUNT>
11

> <PUBCHEM_ATOM_UDEF_STEREO_COUNT>
0

> <PUBCHEM_BOND_DEF_STEREO_COUNT>
1

> <PUBCHEM_BOND_UDEF_STEREO_COUNT>
0

> <PUBCHEM_ISOTOPIC_ATOM_COUNT>
0

> <PUBCHEM_COMPONENT_COUNT>
1

> <PUBCHEM_CACTVS_TAUTO_COUNT>
2

> <PUBCHEM_CONFORMER_ID>
00A9409200000002

> <PUBCHEM_MMFF94_ENERGY>
102.9353

> <PUBCHEM_FEATURE_SELFOVERLAP>
60.969

> <PUBCHEM_SHAPE_FINGERPRINT>
10411042 1 18263932210325245963
10670039 82 18188208702479995452
11315621 246 18261111842213116676
12128747 34 18266178336329021094
12166972 35 17386007338247748919
12422481 6 18059574736580419517
12645989 146 18196937880144801991
12788726 201 17967809410263980848
13140716 1 18265613376520367241
13402501 40 18342735208829464104
13540713 4 18271796918351565360
13561361 72 18409440397675538152
13782708 43 18273495659215537198
13811026 1 18411132563630037975
14117953 113 18261100882379639629
14294032 229 17751640940609456525
14415360 78 16338888659544001792
15131766 46 15982826043171601264
15183329 4 16008743641225484698
15328829 1 16877950421312679862
15361156 5 18342175613366703868
15419008 47 18343022190213042680
15629462 23 17128746687230585528
17492 89 17904487655717139075
18608769 82 18411136935859428438
19958102 18 18263642862224978998
21033648 29 17916293004267869067
21033650 10 17967537826760405144
21236236 1 18340207392858215901
22182313 1 18200580454871867392
23559900 14 18412824651753491020
244849 19 17631711821298856944
25223398 141 18336826399430405652
255183 451 18120661494303064159
3004659 81 17749390416347394110
350125 39 18342741806553254628
4073 2 18342175527657547504
469060 322 17748828475679989749
484989 97 18272377447816878766
508706 21 18337946805441359268
5283173 99 18340486660501369760
59755656 215 18409445847630483791
59755656 520 18053953844156029328
6608658 132 17168427035222134676
7226269 152 18040151816499765599

> <PUBCHEM_SHAPE_MULTIPOLES>
647.77
15.98
4.45
1.62
17.17
1.56
0.02
-8.68
-0.9
-5.46
-0.39
1.35
0.69
3.97

> <PUBCHEM_SHAPE_SELFOVERLAP>
1310.439

> <PUBCHEM_SHAPE_VOLUME>
375.9

> <PUBCHEM_COORDINATE_TYPE>
2
5
10

$$$$
