11101250
  -OEChem-03292013303D

 49 52  0     1  0  0  0  0  0999 V2000
    0.0976    0.4055    1.8625 O   0  0  0  0  0  0  0  0  0  0  0  0
    2.6811   -3.2337   -0.9725 O   0  0  0  0  0  0  0  0  0  0  0  0
   -5.6548   -1.9708    0.7073 O   0  5  0  0  0  0  0  0  0  0  0  0
   -3.4756   -1.9241    0.4465 O   0  0  0  0  0  0  0  0  0  0  0  0
    0.6623   -2.1998   -0.4094 N   0  0  0  0  0  0  0  0  0  0  0  0
    2.0605   -0.4568    1.0329 N   0  0  0  0  0  0  0  0  0  0  0  0
   -2.3154    2.5540   -0.7511 N   0  0  0  0  0  0  0  0  0  0  0  0
   -4.5943   -1.3540    0.4391 N   0  3  0  0  0  0  0  0  0  0  0  0
    0.0143   -0.8920   -0.1946 C   0  0  1  0  0  0  0  0  0  0  0  0
    2.7615   -0.9737   -0.1291 C   0  0  2  0  0  0  0  0  0  0  0  0
   -1.5014   -0.9255   -0.0148 C   0  0  0  0  0  0  0  0  0  0  0  0
    0.6876   -0.2762    1.0282 C   0  0  0  0  0  0  0  0  0  0  0  0
    2.0627   -2.2732   -0.5158 C   0  0  0  0  0  0  0  0  0  0  0  0
   -2.1197    0.4225   -0.2659 C   0  0  0  0  0  0  0  0  0  0  0  0
    4.2378   -1.1847    0.1688 C   0  0  0  0  0  0  0  0  0  0  0  0
   -3.4877    0.7419   -0.1861 C   0  0  0  0  0  0  0  0  0  0  0  0
   -0.1411   -3.3587   -0.7781 C   0  0  0  0  0  0  0  0  0  0  0  0
   -1.4134    1.5336   -0.6105 C   0  0  0  0  0  0  0  0  0  0  0  0
   -3.5899    2.0994   -0.4976 C   0  0  0  0  0  0  0  0  0  0  0  0
    5.0143    0.1039    0.0945 C   0  0  0  0  0  0  0  0  0  0  0  0
   -4.6624    0.0257    0.1183 C   0  0  0  0  0  0  0  0  0  0  0  0
   -4.8130    2.7792   -0.5199 C   0  0  0  0  0  0  0  0  0  0  0  0
   -5.8929    0.6926    0.1000 C   0  0  0  0  0  0  0  0  0  0  0  0
    5.5750    0.4943   -1.1133 C   0  0  0  0  0  0  0  0  0  0  0  0
    5.1572    0.8818    1.2347 C   0  0  0  0  0  0  0  0  0  0  0  0
   -5.9645    2.0482   -0.2144 C   0  0  0  0  0  0  0  0  0  0  0  0
    6.2939    1.6876   -1.1823 C   0  0  0  0  0  0  0  0  0  0  0  0
    5.8761    2.0752    1.1654 C   0  0  0  0  0  0  0  0  0  0  0  0
    6.4444    2.4780   -0.0430 C   0  0  0  0  0  0  0  0  0  0  0  0
    0.2952   -0.3084   -1.0797 H   0  0  0  0  0  0  0  0  0  0  0  0
    2.6207   -0.2668   -0.9569 H   0  0  0  0  0  0  0  0  0  0  0  0
   -1.6529   -1.2524    1.0196 H   0  0  0  0  0  0  0  0  0  0  0  0
   -1.8710   -1.5879   -0.8033 H   0  0  0  0  0  0  0  0  0  0  0  0
    2.5865   -0.0271    1.7869 H   0  0  0  0  0  0  0  0  0  0  0  0
    4.6874   -1.8867   -0.5457 H   0  0  0  0  0  0  0  0  0  0  0  0
    4.3795   -1.6514    1.1532 H   0  0  0  0  0  0  0  0  0  0  0  0
   -0.6109   -3.1738   -1.7482 H   0  0  0  0  0  0  0  0  0  0  0  0
   -0.8946   -3.5426   -0.0079 H   0  0  0  0  0  0  0  0  0  0  0  0
    0.4812   -4.2541   -0.8638 H   0  0  0  0  0  0  0  0  0  0  0  0
   -0.3655    1.7390   -0.7753 H   0  0  0  0  0  0  0  0  0  0  0  0
   -2.0805    3.5041   -1.0033 H   0  0  0  0  0  0  0  0  0  0  0  0
   -4.8699    3.8344   -0.7646 H   0  0  0  0  0  0  0  0  0  0  0  0
   -6.8220    0.1756    0.3291 H   0  0  0  0  0  0  0  0  0  0  0  0
    5.4615   -0.1126   -2.0071 H   0  0  0  0  0  0  0  0  0  0  0  0
    4.7290    0.5759    2.1846 H   0  0  0  0  0  0  0  0  0  0  0  0
   -6.9305    2.5469   -0.2228 H   0  0  0  0  0  0  0  0  0  0  0  0
    6.7359    2.0017   -2.1234 H   0  0  0  0  0  0  0  0  0  0  0  0
    5.9953    2.6897    2.0530 H   0  0  0  0  0  0  0  0  0  0  0  0
    7.0044    3.4070   -0.0968 H   0  0  0  0  0  0  0  0  0  0  0  0
  1 12  2  0  0  0  0
  2 13  2  0  0  0  0
  3  8  1  0  0  0  0
  4  8  2  0  0  0  0
  5  9  1  0  0  0  0
  5 13  1  0  0  0  0
  5 17  1  0  0  0  0
  6 10  1  0  0  0  0
  6 12  1  0  0  0  0
  6 34  1  0  0  0  0
  7 18  1  0  0  0  0
  7 19  1  0  0  0  0
  7 41  1  0  0  0  0
  8 21  1  0  0  0  0
  9 11  1  0  0  0  0
  9 12  1  0  0  0  0
  9 30  1  0  0  0  0
 10 13  1  0  0  0  0
 10 15  1  0  0  0  0
 10 31  1  0  0  0  0
 11 14  1  0  0  0  0
 11 32  1  0  0  0  0
 11 33  1  0  0  0  0
 14 16  1  0  0  0  0
 14 18  2  0  0  0  0
 15 20  1  0  0  0  0
 15 35  1  0  0  0  0
 15 36  1  0  0  0  0
 16 19  2  0  0  0  0
 16 21  1  0  0  0  0
 17 37  1  0  0  0  0
 17 38  1  0  0  0  0
 17 39  1  0  0  0  0
 18 40  1  0  0  0  0
 19 22  1  0  0  0  0
 20 24  2  0  0  0  0
 20 25  1  0  0  0  0
 21 23  2  0  0  0  0
 22 26  2  0  0  0  0
 22 42  1  0  0  0  0
 23 26  1  0  0  0  0
 23 43  1  0  0  0  0
 24 27  1  0  0  0  0
 24 44  1  0  0  0  0
 25 28  2  0  0  0  0
 25 45  1  0  0  0  0
 26 46  1  0  0  0  0
 27 29  2  0  0  0  0
 27 47  1  0  0  0  0
 28 29  1  0  0  0  0
 28 48  1  0  0  0  0
 29 49  1  0  0  0  0
M  CHG  2   3  -1   8   1
M  END
> <PUBCHEM_COMPOUND_CID>
11101250

> <PUBCHEM_CONFORMER_RMSD>
0.8

> <PUBCHEM_CONFORMER_DIVERSEORDER>
1
4
9
5
10
3
11
2
6
8
7

> <PUBCHEM_MMFF94_PARTIAL_CHARGES>
39
1 -0.57
10 0.36
11 0.18
12 0.57
13 0.57
14 -0.18
15 0.14
17 0.3
18 -0.3
19 -0.15
2 -0.57
20 -0.14
21 0.13
22 -0.15
23 -0.15
24 -0.15
25 -0.15
26 -0.15
27 -0.15
28 -0.15
29 -0.15
3 -0.52
34 0.37
4 -0.52
40 0.15
41 0.27
42 0.15
43 0.15
44 0.15
45 0.15
46 0.15
47 0.15
48 0.15
49 0.15
5 -0.66
6 -0.73
7 0.03
8 0.91
9 0.36

> <PUBCHEM_EFFECTIVE_ROTOR_COUNT>
5.8

> <PUBCHEM_PHARMACOPHORE_FEATURES>
12
1 1 acceptor
1 2 acceptor
1 3 acceptor
1 3 anion
1 4 acceptor
1 6 donor
1 7 cation
1 7 donor
5 7 14 16 18 19 rings
6 16 19 21 22 23 26 rings
6 20 24 25 27 28 29 rings
6 5 6 9 10 12 13 rings

> <PUBCHEM_HEAVY_ATOM_COUNT>
29

> <PUBCHEM_ATOM_DEF_STEREO_COUNT>
2

> <PUBCHEM_ATOM_UDEF_STEREO_COUNT>
0

> <PUBCHEM_BOND_DEF_STEREO_COUNT>
0

> <PUBCHEM_BOND_UDEF_STEREO_COUNT>
0

> <PUBCHEM_ISOTOPIC_ATOM_COUNT>
0

> <PUBCHEM_COMPONENT_COUNT>
1

> <PUBCHEM_CACTVS_TAUTO_COUNT>
2

> <PUBCHEM_CONFORMER_ID>
00A9644200000001

> <PUBCHEM_MMFF94_ENERGY>
117.2343

> <PUBCHEM_FEATURE_SELFOVERLAP>
61.071

> <PUBCHEM_SHAPE_FINGERPRINT>
10 15 18186242822786739105
10369192 42 18341330089215432300
10673678 19 18413393146462218804
12422481 6 17749385936733564596
12596602 18 17313096475694106592
12730499 353 18342741784688183930
13726171 33 18410579461483278369
13911987 19 17775288269851030378
14294032 229 18128531751337173062
14341114 328 17603584119126594584
1454969 45 18339920523940729967
14790565 3 18412262861050739088
15183329 4 13039190303433851968
15575132 122 18411702114278241454
15961568 22 18113903741056322436
17349148 13 13840275740599126779
17980427 23 17821453477741410383
19377110 9 17385718097426958504
19611394 137 17896897636069843555
20511986 3 16878213161784489201
21033648 29 18271515512067957864
21302155 148 18408886252220197668
21641784 216 17417817184360203432
23522609 53 17488754359249268817
23559900 14 18052253994826588759
23569914 2 17612260335354697284
2747138 104 18189350120030261059
2838139 119 18337098021847292236
3246875 12 18410292544698106616
34797466 226 18130512941797568693
350125 39 18411701023546699025
4073 2 18187088351433847547
44249763 50 17773023375489044786
44317340 157 18060140921087293990
5104073 3 18263363603393241043
5219985 13 18341891939862850062
53794403 172 18122344846784894340
550186 72 18407755941641301789
6695519 79 18059022790497657450
7808743 9 18339073891381362298

> <PUBCHEM_SHAPE_MULTIPOLES>
553.41
16.87
3.48
1.1
6.16
1.11
-0.19
-11.87
0.05
-0.16
0.9
1.07
-0.14
1.39

> <PUBCHEM_SHAPE_SELFOVERLAP>
1221.302

> <PUBCHEM_SHAPE_VOLUME>
295.5

> <PUBCHEM_COORDINATE_TYPE>
2
5
10

$$$$
