11102156
  -OEChem-03292013303D

 52 54  0     1  0  0  0  0  0999 V2000
    1.2205    0.4986    0.6367 O   0  0  0  0  0  0  0  0  0  0  0  0
   -3.1658    0.5470    0.8128 O   0  0  0  0  0  0  0  0  0  0  0  0
    2.3072   -0.6655    2.3396 O   0  0  0  0  0  0  0  0  0  0  0  0
    0.7208   -4.6828   -3.0404 O   0  0  0  0  0  0  0  0  0  0  0  0
   -2.7894   -0.2024    2.9510 O   0  0  0  0  0  0  0  0  0  0  0  0
    6.9000    1.8584   -1.7539 O   0  5  0  0  0  0  0  0  0  0  0  0
    6.6405    3.5625   -0.3946 O   0  0  0  0  0  0  0  0  0  0  0  0
   -1.1421   -0.2904    1.3192 N   0  0  0  0  0  0  0  0  0  0  0  0
    6.2275    2.4942   -0.9067 N   0  3  0  0  0  0  0  0  0  0  0  0
   -0.0920   -0.8788    2.1118 C   0  0  1  0  0  0  0  0  0  0  0  0
   -0.1568   -2.4130    2.0728 C   0  0  0  0  0  0  0  0  0  0  0  0
    0.0770   -3.0193    0.7074 C   0  0  0  0  0  0  0  0  0  0  0  0
    1.2887   -0.3605    1.7267 C   0  0  0  0  0  0  0  0  0  0  0  0
    1.3701   -3.3545    0.3060 C   0  0  0  0  0  0  0  0  0  0  0  0
   -0.9997   -3.2431   -0.1506 C   0  0  0  0  0  0  0  0  0  0  0  0
   -2.4022   -0.0016    1.8046 C   0  0  0  0  0  0  0  0  0  0  0  0
    1.5865   -3.9138   -0.9533 C   0  0  0  0  0  0  0  0  0  0  0  0
   -0.7833   -3.8024   -1.4100 C   0  0  0  0  0  0  0  0  0  0  0  0
    0.5099   -4.1377   -1.8113 C   0  0  0  0  0  0  0  0  0  0  0  0
    2.4676    0.9961    0.2518 C   0  0  0  0  0  0  0  0  0  0  0  0
   -4.5053    0.8980    1.1780 C   0  0  0  0  0  0  0  0  0  0  0  0
   -5.2014    1.4822   -0.0160 C   0  0  0  0  0  0  0  0  0  0  0  0
    3.2335    0.3067   -0.6883 C   0  0  0  0  0  0  0  0  0  0  0  0
    2.9474    2.1818    0.8083 C   0  0  0  0  0  0  0  0  0  0  0  0
   -5.1491    2.8562   -0.2507 C   0  0  0  0  0  0  0  0  0  0  0  0
   -5.9009    0.6514   -0.8911 C   0  0  0  0  0  0  0  0  0  0  0  0
    4.4792    0.8032   -1.0721 C   0  0  0  0  0  0  0  0  0  0  0  0
    4.1932    2.6782    0.4245 C   0  0  0  0  0  0  0  0  0  0  0  0
    4.9591    1.9890   -0.5157 C   0  0  0  0  0  0  0  0  0  0  0  0
   -5.7965    3.3994   -1.3604 C   0  0  0  0  0  0  0  0  0  0  0  0
   -6.5483    1.1945   -2.0009 C   0  0  0  0  0  0  0  0  0  0  0  0
   -6.4961    2.5686   -2.2355 C   0  0  0  0  0  0  0  0  0  0  0  0
   -0.2532   -0.5515    3.1471 H   0  0  0  0  0  0  0  0  0  0  0  0
    0.5826   -2.8289    2.7704 H   0  0  0  0  0  0  0  0  0  0  0  0
   -1.1316   -2.7528    2.4479 H   0  0  0  0  0  0  0  0  0  0  0  0
   -0.9525   -0.0834    0.3429 H   0  0  0  0  0  0  0  0  0  0  0  0
    2.2184   -3.1904    0.9649 H   0  0  0  0  0  0  0  0  0  0  0  0
   -2.0124   -2.9879    0.1501 H   0  0  0  0  0  0  0  0  0  0  0  0
    2.5987   -4.1707   -1.2538 H   0  0  0  0  0  0  0  0  0  0  0  0
   -1.6261   -3.9744   -2.0740 H   0  0  0  0  0  0  0  0  0  0  0  0
   -5.0392    0.0058    1.5283 H   0  0  0  0  0  0  0  0  0  0  0  0
   -4.4866    1.6258    1.9988 H   0  0  0  0  0  0  0  0  0  0  0  0
    2.8641   -0.6166   -1.1260 H   0  0  0  0  0  0  0  0  0  0  0  0
    2.3546    2.7229    1.5407 H   0  0  0  0  0  0  0  0  0  0  0  0
   -4.6055    3.5136    0.4227 H   0  0  0  0  0  0  0  0  0  0  0  0
   -5.9470   -0.4209   -0.7201 H   0  0  0  0  0  0  0  0  0  0  0  0
    5.0480    0.2397   -1.8073 H   0  0  0  0  0  0  0  0  0  0  0  0
    4.5348    3.6046    0.8790 H   0  0  0  0  0  0  0  0  0  0  0  0
    1.6724   -4.8511   -3.1512 H   0  0  0  0  0  0  0  0  0  0  0  0
   -5.7554    4.4691   -1.5435 H   0  0  0  0  0  0  0  0  0  0  0  0
   -7.0925    0.5475   -2.6827 H   0  0  0  0  0  0  0  0  0  0  0  0
   -6.9998    2.9914   -3.0997 H   0  0  0  0  0  0  0  0  0  0  0  0
  1 13  1  0  0  0  0
  1 20  1  0  0  0  0
  2 16  1  0  0  0  0
  2 21  1  0  0  0  0
  3 13  2  0  0  0  0
  4 19  1  0  0  0  0
  4 49  1  0  0  0  0
  5 16  2  0  0  0  0
  6  9  1  0  0  0  0
  7  9  2  0  0  0  0
  8 10  1  0  0  0  0
  8 16  1  0  0  0  0
  8 36  1  0  0  0  0
  9 29  1  0  0  0  0
 10 11  1  0  0  0  0
 10 13  1  0  0  0  0
 10 33  1  0  0  0  0
 11 12  1  0  0  0  0
 11 34  1  0  0  0  0
 11 35  1  0  0  0  0
 12 14  2  0  0  0  0
 12 15  1  0  0  0  0
 14 17  1  0  0  0  0
 14 37  1  0  0  0  0
 15 18  2  0  0  0  0
 15 38  1  0  0  0  0
 17 19  2  0  0  0  0
 17 39  1  0  0  0  0
 18 19  1  0  0  0  0
 18 40  1  0  0  0  0
 20 23  2  0  0  0  0
 20 24  1  0  0  0  0
 21 22  1  0  0  0  0
 21 41  1  0  0  0  0
 21 42  1  0  0  0  0
 22 25  2  0  0  0  0
 22 26  1  0  0  0  0
 23 27  1  0  0  0  0
 23 43  1  0  0  0  0
 24 28  2  0  0  0  0
 24 44  1  0  0  0  0
 25 30  1  0  0  0  0
 25 45  1  0  0  0  0
 26 31  2  0  0  0  0
 26 46  1  0  0  0  0
 27 29  2  0  0  0  0
 27 47  1  0  0  0  0
 28 29  1  0  0  0  0
 28 48  1  0  0  0  0
 30 32  2  0  0  0  0
 30 50  1  0  0  0  0
 31 32  1  0  0  0  0
 31 51  1  0  0  0  0
 32 52  1  0  0  0  0
M  CHG  2   6  -1   9   1
M  END
> <PUBCHEM_COMPOUND_CID>
11102156

> <PUBCHEM_CONFORMER_RMSD>
1.2

> <PUBCHEM_CONFORMER_DIVERSEORDER>
1
95
61
68
30
37
6
58
36
93
46
27
34
84
23
44
42
57
62
90
52
70
89
35
45
74
31
43
17
67
20
14
10
86
33
88
48
87
15
79
16
78
40
63
72
24
22
81
55
9
59
49
38
66
65
53
54
91
56
98
19
32
11
71
76
26
85
96
51
75
2
4
83
92
82
47
25
77
97
21
41
12
5
28
8
13
73
29
64
7
50
39
69
60
99
94
100
80
3
18

> <PUBCHEM_MMFF94_PARTIAL_CHARGES>
47
1 -0.23
10 0.36
11 0.14
12 -0.14
13 0.66
14 -0.15
15 -0.15
16 0.78
17 -0.15
18 -0.15
19 0.08
2 -0.43
20 0.08
21 0.42
22 -0.14
23 -0.15
24 -0.15
25 -0.15
26 -0.15
27 -0.15
28 -0.15
29 0.13
3 -0.57
30 -0.15
31 -0.15
32 -0.15
36 0.37
37 0.15
38 0.15
39 0.15
4 -0.53
40 0.15
43 0.15
44 0.15
45 0.15
46 0.15
47 0.15
48 0.15
49 0.45
5 -0.57
50 0.15
51 0.15
52 0.15
6 -0.52
7 -0.52
8 -0.73
9 0.91

> <PUBCHEM_EFFECTIVE_ROTOR_COUNT>
11

> <PUBCHEM_PHARMACOPHORE_FEATURES>
10
1 3 acceptor
1 4 donor
1 5 acceptor
1 6 acceptor
1 6 anion
1 7 acceptor
1 8 donor
6 12 14 15 17 18 19 rings
6 20 23 24 27 28 29 rings
6 22 25 26 30 31 32 rings

> <PUBCHEM_HEAVY_ATOM_COUNT>
32

> <PUBCHEM_ATOM_DEF_STEREO_COUNT>
1

> <PUBCHEM_ATOM_UDEF_STEREO_COUNT>
0

> <PUBCHEM_BOND_DEF_STEREO_COUNT>
0

> <PUBCHEM_BOND_UDEF_STEREO_COUNT>
0

> <PUBCHEM_ISOTOPIC_ATOM_COUNT>
0

> <PUBCHEM_COMPONENT_COUNT>
1

> <PUBCHEM_CACTVS_TAUTO_COUNT>
4

> <PUBCHEM_CONFORMER_ID>
00A967CC00000001

> <PUBCHEM_MMFF94_ENERGY>
87.0521

> <PUBCHEM_FEATURE_SELFOVERLAP>
50.829

> <PUBCHEM_SHAPE_FINGERPRINT>
10369192 42 18338815497675088297
10556698 54 17611461935536221933
11093857 51 17702933730549666063
11513181 2 18196085535357903037
11621639 307 17173505950272683300
11763715 3 15003089791712598291
11828422 8 17823140012345743691
12422481 6 13767923520531966487
14930077 153 17831022686272723709
14950920 106 8213558057605979005
15064981 113 18271255958567526116
15475509 35 10158825028577693269
15803439 3 18130788983693638086
17899979 129 18265901263398415217
21033648 29 14924210583477126409
21304303 282 17909799344418327034
21857420 4 16893127804343199749
21860390 5 17970060055211296709
21968339 14 18340760438691016328
22121540 332 17532081705641227782
23523787 8 17846775234628873862
25025965 108 15551390647966960732
312425 83 18123181313298109533
34797466 226 18190733139024488869
376196 1 18260548935161818057
4173938 306 17988636446229068984
44249763 50 18125718139768581192
44802255 64 18264505047103050054
46194498 28 18122339078695485133
5223283 242 17114371548003416429
6677587 24 18048004447262711165

> <PUBCHEM_SHAPE_MULTIPOLES>
607.5
15.58
6.19
2.6
10.16
5.72
0.24
-26.71
-10.25
-4.66
-4.37
1.21
1.61
1.19

> <PUBCHEM_SHAPE_SELFOVERLAP>
1303.001

> <PUBCHEM_SHAPE_VOLUME>
332.8

> <PUBCHEM_COORDINATE_TYPE>
2
5
10

$$$$
