11100659
  -OEChem-03292013303D

 40 41  0     0  0  0  0  0  0999 V2000
   -3.4735    3.0298   -0.2189 Cl  0  0  0  0  0  0  0  0  0  0  0  0
   -4.5186    0.3615   -1.0554 O   0  0  0  0  0  0  0  0  0  0  0  0
   -0.7644    2.6039    0.9227 O   0  0  0  0  0  0  0  0  0  0  0  0
    0.5106    0.5557   -1.6027 O   0  0  0  0  0  0  0  0  0  0  0  0
    3.2002    0.0996    2.3452 O   0  0  0  0  0  0  0  0  0  0  0  0
    0.7565    0.0351    2.4179 O   0  0  0  0  0  0  0  0  0  0  0  0
   -1.0445   -3.1111   -0.6969 O   0  0  0  0  0  0  0  0  0  0  0  0
    0.1321   -2.5008    1.1738 O   0  0  0  0  0  0  0  0  0  0  0  0
   -0.7180    0.2381    0.6138 C   0  0  0  0  0  0  0  0  0  0  0  0
    1.8531    0.3266    0.3726 C   0  0  0  0  0  0  0  0  0  0  0  0
    0.6186    0.1912    1.1982 C   0  0  0  0  0  0  0  0  0  0  0  0
   -1.3361   -0.9332    0.1757 C   0  0  0  0  0  0  0  0  0  0  0  0
   -1.3769    1.4617    0.4927 C   0  0  0  0  0  0  0  0  0  0  0  0
    1.7264    0.5020   -0.9890 C   0  0  0  0  0  0  0  0  0  0  0  0
    3.0805    0.2717    0.9986 C   0  0  0  0  0  0  0  0  0  0  0  0
   -2.6129   -0.8811   -0.3834 C   0  0  0  0  0  0  0  0  0  0  0  0
    4.1355    0.5765   -1.1536 C   0  0  0  0  0  0  0  0  0  0  0  0
   -3.2716    0.3424   -0.5045 C   0  0  0  0  0  0  0  0  0  0  0  0
   -2.6538    1.5138   -0.0665 C   0  0  0  0  0  0  0  0  0  0  0  0
    2.8812    0.6284   -1.7612 C   0  0  0  0  0  0  0  0  0  0  0  0
    4.2352    0.3980    0.2262 C   0  0  0  0  0  0  0  0  0  0  0  0
   -0.6761   -2.2279    0.2861 C   0  0  0  0  0  0  0  0  0  0  0  0
    5.3703    0.7134   -1.9786 C   0  0  0  0  0  0  0  0  0  0  0  0
   -5.6217    0.2094   -0.1650 C   0  0  0  0  0  0  0  0  0  0  0  0
   -0.4322   -4.4048   -0.6480 C   0  0  0  0  0  0  0  0  0  0  0  0
   -3.1186   -1.7824   -0.7216 H   0  0  0  0  0  0  0  0  0  0  0  0
    2.8055    0.7697   -2.8368 H   0  0  0  0  0  0  0  0  0  0  0  0
    5.2142    0.3601    0.6982 H   0  0  0  0  0  0  0  0  0  0  0  0
    5.2151    0.3238   -2.9905 H   0  0  0  0  0  0  0  0  0  0  0  0
    5.6601    1.7664   -2.0489 H   0  0  0  0  0  0  0  0  0  0  0  0
    6.2015    0.1487   -1.5428 H   0  0  0  0  0  0  0  0  0  0  0  0
   -1.3632    3.3531    0.7601 H   0  0  0  0  0  0  0  0  0  0  0  0
    0.6407    0.6822   -2.5581 H   0  0  0  0  0  0  0  0  0  0  0  0
    4.1433    0.0891    2.5825 H   0  0  0  0  0  0  0  0  0  0  0  0
   -5.5990    0.9650    0.6264 H   0  0  0  0  0  0  0  0  0  0  0  0
   -5.6167   -0.7924    0.2761 H   0  0  0  0  0  0  0  0  0  0  0  0
   -6.5442    0.3329   -0.7389 H   0  0  0  0  0  0  0  0  0  0  0  0
   -0.8162   -4.9942   -1.4848 H   0  0  0  0  0  0  0  0  0  0  0  0
   -0.6916   -4.9104    0.2869 H   0  0  0  0  0  0  0  0  0  0  0  0
    0.6532   -4.3130   -0.7511 H   0  0  0  0  0  0  0  0  0  0  0  0
  1 19  1  0  0  0  0
  2 18  1  0  0  0  0
  2 24  1  0  0  0  0
  3 13  1  0  0  0  0
  3 32  1  0  0  0  0
  4 14  1  0  0  0  0
  4 33  1  0  0  0  0
  5 15  1  0  0  0  0
  5 34  1  0  0  0  0
  6 11  2  0  0  0  0
  7 22  1  0  0  0  0
  7 25  1  0  0  0  0
  8 22  2  0  0  0  0
  9 11  1  0  0  0  0
  9 12  1  0  0  0  0
  9 13  2  0  0  0  0
 10 11  1  0  0  0  0
 10 14  2  0  0  0  0
 10 15  1  0  0  0  0
 12 16  2  0  0  0  0
 12 22  1  0  0  0  0
 13 19  1  0  0  0  0
 14 20  1  0  0  0  0
 15 21  2  0  0  0  0
 16 18  1  0  0  0  0
 16 26  1  0  0  0  0
 17 20  2  0  0  0  0
 17 21  1  0  0  0  0
 17 23  1  0  0  0  0
 18 19  2  0  0  0  0
 20 27  1  0  0  0  0
 21 28  1  0  0  0  0
 23 29  1  0  0  0  0
 23 30  1  0  0  0  0
 23 31  1  0  0  0  0
 24 35  1  0  0  0  0
 24 36  1  0  0  0  0
 24 37  1  0  0  0  0
 25 38  1  0  0  0  0
 25 39  1  0  0  0  0
 25 40  1  0  0  0  0
M  END
> <PUBCHEM_COMPOUND_CID>
11100659

> <PUBCHEM_CONFORMER_RMSD>
0.8

> <PUBCHEM_CONFORMER_DIVERSEORDER>
4
1
12
7
13
3
11
10
2
8
5
9
6

> <PUBCHEM_MMFF94_PARTIAL_CHARGES>
31
1 -0.18
10 0.09
11 0.4
12 0.09
13 0.08
14 0.08
15 0.08
16 -0.15
17 -0.14
18 0.08
19 0.18
2 -0.36
20 -0.15
21 -0.15
22 0.63
23 0.14
24 0.28
25 0.28
26 0.15
27 0.15
28 0.15
3 -0.53
32 0.45
33 0.45
34 0.45
4 -0.53
5 -0.53
6 -0.57
7 -0.43
8 -0.57
9 0.09

> <PUBCHEM_EFFECTIVE_ROTOR_COUNT>
5

> <PUBCHEM_PHARMACOPHORE_FEATURES>
8
1 2 acceptor
1 3 donor
1 4 donor
1 5 donor
1 6 acceptor
1 8 acceptor
6 10 14 15 17 20 21 rings
6 9 12 13 16 18 19 rings

> <PUBCHEM_HEAVY_ATOM_COUNT>
25

> <PUBCHEM_ATOM_DEF_STEREO_COUNT>
0

> <PUBCHEM_ATOM_UDEF_STEREO_COUNT>
0

> <PUBCHEM_BOND_DEF_STEREO_COUNT>
0

> <PUBCHEM_BOND_UDEF_STEREO_COUNT>
0

> <PUBCHEM_ISOTOPIC_ATOM_COUNT>
0

> <PUBCHEM_COMPONENT_COUNT>
1

> <PUBCHEM_CACTVS_TAUTO_COUNT>
70

> <PUBCHEM_CONFORMER_ID>
00A961F300000004

> <PUBCHEM_MMFF94_ENERGY>
100.4569

> <PUBCHEM_FEATURE_SELFOVERLAP>
40.599

> <PUBCHEM_SHAPE_FINGERPRINT>
10366900 7 17560532763169108148
11370993 70 18412832361035093638
11578080 2 17697610135570360440
11582403 64 15978283823181837450
11640471 11 17894636971812930228
12236239 1 17821726130597045785
12592029 89 17822290150224073483
12788726 201 17825393135025440483
13140716 1 18195516207599060425
13149001 5 18198334268189995849
133893 2 17901392194949473507
14251757 5 18266187320925610126
14790565 3 18412831296200397225
15163728 17 18117852005364265997
15342168 16 15285650936036066054
15463212 79 18115025328831258206
15664445 248 16392683523836009111
16752209 62 18410289216014056337
16945 1 18342459282934545898
20028762 73 17843116168272168959
20511986 3 17749937977644269788
20567600 347 18341610378565034047
20600515 1 18126826391042537161
20602899 9 18272664445114190770
20642791 178 17978793406855697435
20645476 183 17676489505180352579
21344244 181 17775573060965156807
21781051 124 18335711563170088747
23366157 5 17829044312973309603
23402539 116 18343294894628800837
23419403 2 16986596617853297754
23557571 272 17983852564997921304
23559900 14 18272370932013997288
298252 57 18187369834831323754
34934 24 17385728036556320196
474 4 16805329920081385100
58260988 647 16343716442838370495
77492 1 17822283583113615328
8272917 22 16515959268402982473
90525 40 18186522115703609847

> <PUBCHEM_SHAPE_MULTIPOLES>
475.27
8.67
3.15
1.72
0.95
3.75
-0.43
-4.46
3.67
-2.65
0.45
2.02
-0.17
-0.54

> <PUBCHEM_SHAPE_SELFOVERLAP>
1029.187

> <PUBCHEM_SHAPE_VOLUME>
263

> <PUBCHEM_COORDINATE_TYPE>
2
5
10

$$$$
