111081
  -OEChem-03292013323D

 30 31  0     1  0  0  0  0  0999 V2000
    1.6022   -0.1783   -0.9947 O   0  0  0  0  0  0  0  0  0  0  0  0
    3.8063    1.6293    0.1219 O   0  0  0  0  0  0  0  0  0  0  0  0
    2.3390   -2.8425   -0.5952 O   0  0  0  0  0  0  0  0  0  0  0  0
   -1.1829    2.8027   -0.3830 O   0  0  0  0  0  0  0  0  0  0  0  0
   -4.3515   -0.4692    0.2323 O   0  0  0  0  0  0  0  0  0  0  0  0
   -0.4534    0.5942   -0.1868 N   0  0  0  0  0  0  0  0  0  0  0  0
   -2.7515    1.1585   -0.0764 N   0  0  0  0  0  0  0  0  0  0  0  0
   -2.4536   -2.4640    0.3168 N   0  0  0  0  0  0  0  0  0  0  0  0
    3.0308    0.5990    0.7304 C   0  0  1  0  0  0  0  0  0  0  0  0
    0.9391    0.9050   -0.3275 C   0  0  1  0  0  0  0  0  0  0  0  0
    1.6355    1.1086    1.0082 C   0  0  0  0  0  0  0  0  0  0  0  0
    2.7944   -0.5281   -0.2653 C   0  0  1  0  0  0  0  0  0  0  0  0
    2.5537   -1.8729    0.4081 C   0  0  0  0  0  0  0  0  0  0  0  0
   -0.8210   -0.7328   -0.0062 C   0  0  0  0  0  0  0  0  0  0  0  0
   -1.4353    1.6061   -0.2278 C   0  0  0  0  0  0  0  0  0  0  0  0
   -2.0803   -1.1652    0.1394 C   0  0  0  0  0  0  0  0  0  0  0  0
   -3.1716   -0.1503    0.1059 C   0  0  0  0  0  0  0  0  0  0  0  0
    3.5617    0.2748    1.6304 H   0  0  0  0  0  0  0  0  0  0  0  0
    1.0592    1.7961   -0.9550 H   0  0  0  0  0  0  0  0  0  0  0  0
    1.1701    0.4999    1.7929 H   0  0  0  0  0  0  0  0  0  0  0  0
    1.5956    2.1551    1.3264 H   0  0  0  0  0  0  0  0  0  0  0  0
    3.6043   -0.6118   -0.9985 H   0  0  0  0  0  0  0  0  0  0  0  0
    1.7050   -1.8739    1.0956 H   0  0  0  0  0  0  0  0  0  0  0  0
    3.4386   -2.1728    0.9786 H   0  0  0  0  0  0  0  0  0  0  0  0
    3.8850    2.3532    0.7665 H   0  0  0  0  0  0  0  0  0  0  0  0
   -0.0362   -1.4708    0.0152 H   0  0  0  0  0  0  0  0  0  0  0  0
   -3.4771    1.8696   -0.1026 H   0  0  0  0  0  0  0  0  0  0  0  0
    1.5911   -2.5479   -1.1419 H   0  0  0  0  0  0  0  0  0  0  0  0
   -3.4330   -2.6987    0.4187 H   0  0  0  0  0  0  0  0  0  0  0  0
   -1.7514   -3.1926    0.3473 H   0  0  0  0  0  0  0  0  0  0  0  0
  1 10  1  0  0  0  0
  1 12  1  0  0  0  0
  2  9  1  0  0  0  0
  2 25  1  0  0  0  0
  3 13  1  0  0  0  0
  3 28  1  0  0  0  0
  4 15  2  0  0  0  0
  5 17  2  0  0  0  0
  6 10  1  0  0  0  0
  6 14  1  0  0  0  0
  6 15  1  0  0  0  0
  7 15  1  0  0  0  0
  7 17  1  0  0  0  0
  7 27  1  0  0  0  0
  8 16  1  0  0  0  0
  8 29  1  0  0  0  0
  8 30  1  0  0  0  0
  9 11  1  0  0  0  0
  9 12  1  0  0  0  0
  9 18  1  0  0  0  0
 10 11  1  0  0  0  0
 10 19  1  0  0  0  0
 11 20  1  0  0  0  0
 11 21  1  0  0  0  0
 12 13  1  0  0  0  0
 12 22  1  0  0  0  0
 13 23  1  0  0  0  0
 13 24  1  0  0  0  0
 14 16  2  0  0  0  0
 14 26  1  0  0  0  0
 16 17  1  0  0  0  0
M  END
> <PUBCHEM_COMPOUND_CID>
111081

> <PUBCHEM_CONFORMER_RMSD>
0.6

> <PUBCHEM_CONFORMER_DIVERSEORDER>
1
10
14
4
5
12
11
9
8
7
13
15
2
6
3

> <PUBCHEM_MMFF94_PARTIAL_CHARGES>
22
1 -0.56
10 0.58
12 0.28
13 0.28
14 -0.04
15 0.69
16 0.11
17 0.62
2 -0.68
25 0.4
26 0.15
27 0.37
28 0.4
29 0.4
3 -0.68
30 0.4
4 -0.57
5 -0.57
6 -0.47
7 -0.49
8 -0.9
9 0.28

> <PUBCHEM_EFFECTIVE_ROTOR_COUNT>
3

> <PUBCHEM_PHARMACOPHORE_FEATURES>
12
1 1 acceptor
1 2 acceptor
1 2 donor
1 3 acceptor
1 3 donor
1 4 acceptor
1 5 acceptor
1 7 donor
1 8 cation
1 8 donor
5 1 9 10 11 12 rings
6 6 7 14 15 16 17 rings

> <PUBCHEM_HEAVY_ATOM_COUNT>
17

> <PUBCHEM_ATOM_DEF_STEREO_COUNT>
3

> <PUBCHEM_ATOM_UDEF_STEREO_COUNT>
0

> <PUBCHEM_BOND_DEF_STEREO_COUNT>
0

> <PUBCHEM_BOND_UDEF_STEREO_COUNT>
0

> <PUBCHEM_ISOTOPIC_ATOM_COUNT>
0

> <PUBCHEM_COMPONENT_COUNT>
1

> <PUBCHEM_CACTVS_TAUTO_COUNT>
6

> <PUBCHEM_CONFORMER_ID>
0001B1E900000001

> <PUBCHEM_MMFF94_ENERGY>
45.465

> <PUBCHEM_FEATURE_SELFOVERLAP>
60.903

> <PUBCHEM_SHAPE_FINGERPRINT>
10366900 7 18129654317689855025
10608611 8 18411413973549580640
10616163 171 18337954613860669306
10618630 7 18334013899788227127
10922523 26 18260547779799725519
10967382 1 18410292540271192559
12382932 28 18337672026381752243
12500047 106 18191300490311755244
12553582 1 17975429215071410219
12932764 1 17632002113711433180
13140716 1 18122903397862843745
13380535 21 18411987940241536496
14144814 61 18409448068196653761
14178342 30 18196084667283638827
14252887 29 18335711571616845027
15219456 202 18341890766682526656
15375358 24 18335695091663715163
15375462 6 18411417315118396668
15442244 35 18194964041596291170
15775835 57 18130507534523504182
16945 1 18409450288573608357
17804303 29 18267028245494195502
17834074 16 18411419479760632882
19049666 15 18198054790156754584
19784866 170 18339360889327475512
20201158 50 18412543236278360818
20510252 161 18340767053236194193
20645477 70 18343015562835704063
21501502 16 18341331089483635464
23184049 29 18337666391537510634
23402539 116 18264193867568043716
23463225 33 18408888442695664519
23559900 14 18411131407999141580
2748010 2 18191583051825475533
34934 24 18337947995495128439
58051976 378 18410855495042054716
69090 78 18343577460886030495
7364860 26 18341895165161567494
81228 2 18260271824046335945
8809292 202 18267589009314375302
9709674 26 18411419475323663086

> <PUBCHEM_SHAPE_MULTIPOLES>
305.56
6.31
2.59
0.78
1.35
0.63
0.04
0.86
0.64
-0.31
-0.18
-0.33
-0.02
0.6

> <PUBCHEM_SHAPE_SELFOVERLAP>
644.332

> <PUBCHEM_SHAPE_VOLUME>
171.4

> <PUBCHEM_COORDINATE_TYPE>
2
5
10

$$$$
