11100922
  -OEChem-03292013303D

 57 61  0     1  0  0  0  0  0999 V2000
   -3.6880    0.0394   -1.2460 O   0  0  0  0  0  0  0  0  0  0  0  0
   -2.9406   -0.2988    2.2393 O   0  0  0  0  0  0  0  0  0  0  0  0
    0.1640    2.1856   -1.1484 O   0  0  0  0  0  0  0  0  0  0  0  0
   -5.3202   -0.7195    0.2874 O   0  0  0  0  0  0  0  0  0  0  0  0
   -5.6011    1.8834   -0.2379 O   0  0  0  0  0  0  0  0  0  0  0  0
    6.0904    0.0639    1.7361 O   0  0  0  0  0  0  0  0  0  0  0  0
   -1.6862    0.0050    0.1332 C   0  0  1  0  0  0  0  0  0  0  0  0
   -0.6875   -1.1706    0.1791 C   0  0  2  0  0  0  0  0  0  0  0  0
   -2.9246   -0.5787    0.8519 C   0  0  1  0  0  0  0  0  0  0  0  0
    0.5916   -0.9204   -0.6343 C   0  0  1  0  0  0  0  0  0  0  0  0
    1.3324    0.3200   -0.0204 C   0  0  2  0  0  0  0  0  0  0  0  0
   -0.9702    1.2160    0.7643 C   0  0  0  0  0  0  0  0  0  0  0  0
   -1.5385   -2.3754   -0.1718 C   0  0  0  0  0  0  0  0  0  0  0  0
   -2.8095   -2.1241    0.6415 C   0  0  0  0  0  0  0  0  0  0  0  0
    0.3871    1.5480    0.1014 C   0  0  2  0  0  0  0  0  0  0  0  0
   -2.2755    0.3331   -1.2626 C   0  0  0  0  0  0  0  0  0  0  0  0
    2.7244    0.5760   -0.7138 C   0  0  2  0  0  0  0  0  0  0  0  0
   -4.1239    0.0417    0.1212 C   0  0  1  0  0  0  0  0  0  0  0  0
    1.4899   -2.1763   -0.6435 C   0  0  0  0  0  0  0  0  0  0  0  0
    3.4993   -0.7393   -0.5651 C   0  0  0  0  0  0  0  0  0  0  0  0
    2.8730   -1.9297   -1.2453 C   0  0  0  0  0  0  0  0  0  0  0  0
    3.5226    1.7430   -0.0672 C   0  0  0  0  0  0  0  0  0  0  0  0
    2.6088    0.9367   -2.2165 C   0  0  0  0  0  0  0  0  0  0  0  0
   -4.4920    1.4669    0.5348 C   0  0  0  0  0  0  0  0  0  0  0  0
    4.1450    1.3863    1.2705 C   0  0  0  0  0  0  0  0  0  0  0  0
    4.5834   -0.9017    0.2111 C   0  0  0  0  0  0  0  0  0  0  0  0
    5.0457    0.1891    1.1011 C   0  0  0  0  0  0  0  0  0  0  0  0
   -0.3746   -1.3135    1.2272 H   0  0  0  0  0  0  0  0  0  0  0  0
    0.3185   -0.7009   -1.6718 H   0  0  0  0  0  0  0  0  0  0  0  0
    1.5550    0.0399    1.0224 H   0  0  0  0  0  0  0  0  0  0  0  0
   -0.7808    1.0107    1.8260 H   0  0  0  0  0  0  0  0  0  0  0  0
   -1.6077    2.1041    0.7274 H   0  0  0  0  0  0  0  0  0  0  0  0
   -1.0697   -3.3228    0.1118 H   0  0  0  0  0  0  0  0  0  0  0  0
   -1.7629   -2.4186   -1.2430 H   0  0  0  0  0  0  0  0  0  0  0  0
   -3.6535   -2.5892    0.1297 H   0  0  0  0  0  0  0  0  0  0  0  0
   -2.7191   -2.6256    1.6136 H   0  0  0  0  0  0  0  0  0  0  0  0
    0.8614    2.2927    0.7522 H   0  0  0  0  0  0  0  0  0  0  0  0
   -2.1871    1.3950   -1.5110 H   0  0  0  0  0  0  0  0  0  0  0  0
   -1.8256   -0.2339   -2.0813 H   0  0  0  0  0  0  0  0  0  0  0  0
    1.0008   -2.9796   -1.2074 H   0  0  0  0  0  0  0  0  0  0  0  0
    1.6111   -2.5450    0.3843 H   0  0  0  0  0  0  0  0  0  0  0  0
    2.8002   -1.7633   -2.3253 H   0  0  0  0  0  0  0  0  0  0  0  0
    3.4823   -2.8328   -1.1180 H   0  0  0  0  0  0  0  0  0  0  0  0
    2.9031    2.6392    0.0396 H   0  0  0  0  0  0  0  0  0  0  0  0
    4.3417    2.0344   -0.7420 H   0  0  0  0  0  0  0  0  0  0  0  0
   -3.7599   -0.6731    2.6059 H   0  0  0  0  0  0  0  0  0  0  0  0
    3.5749    0.8095   -2.7220 H   0  0  0  0  0  0  0  0  0  0  0  0
    1.8853    0.3193   -2.7548 H   0  0  0  0  0  0  0  0  0  0  0  0
    2.3223    1.9816   -2.3677 H   0  0  0  0  0  0  0  0  0  0  0  0
   -3.6937    2.1900    0.3661 H   0  0  0  0  0  0  0  0  0  0  0  0
   -4.7945    1.5102    1.5855 H   0  0  0  0  0  0  0  0  0  0  0  0
    0.7942    2.9220   -1.2198 H   0  0  0  0  0  0  0  0  0  0  0  0
   -5.2270   -1.5472   -0.2088 H   0  0  0  0  0  0  0  0  0  0  0  0
    3.3898    1.1621    2.0300 H   0  0  0  0  0  0  0  0  0  0  0  0
    4.7488    2.2288    1.6252 H   0  0  0  0  0  0  0  0  0  0  0  0
    5.0936   -1.8548    0.2974 H   0  0  0  0  0  0  0  0  0  0  0  0
   -5.3400    1.8405   -1.1738 H   0  0  0  0  0  0  0  0  0  0  0  0
  1 16  1  0  0  0  0
  1 18  1  0  0  0  0
  2  9  1  0  0  0  0
  2 46  1  0  0  0  0
  3 15  1  0  0  0  0
  3 52  1  0  0  0  0
  4 18  1  0  0  0  0
  4 53  1  0  0  0  0
  5 24  1  0  0  0  0
  5 57  1  0  0  0  0
  6 27  2  0  0  0  0
  7  8  1  0  0  0  0
  7  9  1  0  0  0  0
  7 12  1  0  0  0  0
  7 16  1  0  0  0  0
  8 10  1  0  0  0  0
  8 13  1  0  0  0  0
  8 28  1  0  0  0  0
  9 14  1  0  0  0  0
  9 18  1  0  0  0  0
 10 11  1  0  0  0  0
 10 19  1  0  0  0  0
 10 29  1  0  0  0  0
 11 15  1  0  0  0  0
 11 17  1  0  0  0  0
 11 30  1  0  0  0  0
 12 15  1  0  0  0  0
 12 31  1  0  0  0  0
 12 32  1  0  0  0  0
 13 14  1  0  0  0  0
 13 33  1  0  0  0  0
 13 34  1  0  0  0  0
 14 35  1  0  0  0  0
 14 36  1  0  0  0  0
 15 37  1  0  0  0  0
 16 38  1  0  0  0  0
 16 39  1  0  0  0  0
 17 20  1  0  0  0  0
 17 22  1  0  0  0  0
 17 23  1  0  0  0  0
 18 24  1  0  0  0  0
 19 21  1  0  0  0  0
 19 40  1  0  0  0  0
 19 41  1  0  0  0  0
 20 21  1  0  0  0  0
 20 26  2  0  0  0  0
 21 42  1  0  0  0  0
 21 43  1  0  0  0  0
 22 25  1  0  0  0  0
 22 44  1  0  0  0  0
 22 45  1  0  0  0  0
 23 47  1  0  0  0  0
 23 48  1  0  0  0  0
 23 49  1  0  0  0  0
 24 50  1  0  0  0  0
 24 51  1  0  0  0  0
 25 27  1  0  0  0  0
 25 54  1  0  0  0  0
 25 55  1  0  0  0  0
 26 27  1  0  0  0  0
 26 56  1  0  0  0  0
M  END
> <PUBCHEM_COMPOUND_CID>
11100922

> <PUBCHEM_CONFORMER_RMSD>
0.8

> <PUBCHEM_CONFORMER_DIVERSEORDER>
1

> <PUBCHEM_MMFF94_PARTIAL_CHARGES>
22
1 -0.56
15 0.28
16 0.28
17 0.14
18 0.56
2 -0.68
20 -0.28
21 0.14
24 0.28
25 0.06
26 -0.14
27 0.49
3 -0.68
4 -0.68
46 0.4
5 -0.68
52 0.4
53 0.4
56 0.15
57 0.4
6 -0.57
9 0.28

> <PUBCHEM_EFFECTIVE_ROTOR_COUNT>
3.2

> <PUBCHEM_PHARMACOPHORE_FEATURES>
15
1 1 acceptor
1 2 acceptor
1 2 donor
1 3 acceptor
1 3 donor
1 4 acceptor
1 4 donor
1 5 acceptor
1 5 donor
1 6 acceptor
5 1 7 9 16 18 rings
5 7 8 9 13 14 rings
6 10 11 17 19 20 21 rings
6 17 20 22 25 26 27 rings
6 7 8 10 11 12 15 rings

> <PUBCHEM_HEAVY_ATOM_COUNT>
27

> <PUBCHEM_ATOM_DEF_STEREO_COUNT>
8

> <PUBCHEM_ATOM_UDEF_STEREO_COUNT>
0

> <PUBCHEM_BOND_DEF_STEREO_COUNT>
0

> <PUBCHEM_BOND_UDEF_STEREO_COUNT>
0

> <PUBCHEM_ISOTOPIC_ATOM_COUNT>
0

> <PUBCHEM_COMPONENT_COUNT>
1

> <PUBCHEM_CACTVS_TAUTO_COUNT>
5

> <PUBCHEM_CONFORMER_ID>
00A962FA00000001

> <PUBCHEM_MMFF94_ENERGY>
111.1623

> <PUBCHEM_FEATURE_SELFOVERLAP>
76.876

> <PUBCHEM_SHAPE_FINGERPRINT>
10366900 7 17418097645877001880
11112241 14 17345452946609707112
11132069 177 18412267250570697086
11370993 70 18272651251064282690
11405975 8 17676212393758409352
11578080 2 17773870892078823024
11796584 16 16370728127902307970
11961588 58 12966834772252237722
12035758 1 18260840280532452793
12236239 1 13840271381597711559
12403260 363 18263640848038057271
12403814 3 17749389299729594415
12422481 6 18261669294613679964
12553582 1 18269860703385083012
12633257 1 17603868909548824518
12788726 201 17917444106974726296
128620 24 15123513618108752870
13140716 1 18267865171416528048
13224815 77 17918000489906541038
13583140 156 17417525920888656675
13675066 3 18187366566577541122
14178342 30 18270407207956350202
15142383 8 16009019545449621660
15163728 17 14348933081715683198
15196674 1 18411985775356525239
15238133 3 17240768337123329253
15375358 24 18343303673357233271
15788980 27 17676483973283275320
15840311 113 17843697560772636305
16945 1 18270417060436851228
17349148 13 18412260657494957550
17980427 23 18263916808514182636
1813 80 16950280690050079238
200 152 17917991663849007143
20511986 3 17703492321115549399
20715895 44 18336543803198529589
21033648 29 18334861576040283333
21421861 104 17895746293409858978
21452121 103 18272930488631914546
21859007 373 17823966836684643325
22149856 69 18129124315443742979
22182313 1 18191302680618398116
23402539 116 18412536605017563549
23559900 14 18341625797797898014
296302 2 16845573127598997814
3004659 81 18113909260062332548
335352 9 18410296865393086854
34797466 226 14261351400820642112
34934 24 18341889679971651662
350125 39 18412547592282703180
3633792 109 17702663229683082501
3680242 22 18262519182694798634
394222 165 17390244946509023644
4340502 62 17918275372018924510
474 4 17632573894555185928
495365 180 17846493712571156190
5104073 3 18041285468638163137
59755656 215 18271530793455861446
6004065 56 18129647721221624365
633830 44 17240771725868369218
7226269 152 18335976502290237264
9709674 26 18272378537768160574

> <PUBCHEM_SHAPE_MULTIPOLES>
520.43
11.09
2.23
1.48
0.18
0.47
-0.05
-2.34
3.31
0.25
-0.24
-0.82
-0.23
0.72

> <PUBCHEM_SHAPE_SELFOVERLAP>
1137.917

> <PUBCHEM_SHAPE_VOLUME>
277.3

> <PUBCHEM_COORDINATE_TYPE>
2
5
10

$$$$
