111098
  -OEChem-03292013323D

 50 51  0     1  0  0  0  0  0999 V2000
    1.1751    1.0526   -1.5605 O   0  0  0  0  0  0  0  0  0  0  0  0
   -1.0268    1.9090    1.6201 O   0  0  0  0  0  0  0  0  0  0  0  0
   -6.5805    0.8198    1.3948 O   0  0  0  0  0  0  0  0  0  0  0  0
   -6.4198    1.5500   -0.7495 O   0  0  0  0  0  0  0  0  0  0  0  0
    8.1049   -0.4836    0.9910 O   0  5  0  0  0  0  0  0  0  0  0  0
    7.9667    0.8811   -0.7230 O   0  0  0  0  0  0  0  0  0  0  0  0
   -1.3208    1.0267   -0.5058 N   0  0  0  0  0  0  0  0  0  0  0  0
    1.8481   -0.3573    0.1905 N   0  0  0  0  0  0  0  0  0  0  0  0
    7.4302    0.1445    0.1396 N   0  3  0  0  0  0  0  0  0  0  0  0
   -0.5037   -0.1478   -0.3124 C   0  0  1  0  0  0  0  0  0  0  0  0
   -0.9999   -1.2985   -1.1958 C   0  0  0  0  0  0  0  0  0  0  0  0
   -2.2286   -1.9857   -0.6525 C   0  0  0  0  0  0  0  0  0  0  0  0
    0.9316    0.2517   -0.6619 C   0  0  0  0  0  0  0  0  0  0  0  0
   -2.4373    3.0868    0.0413 C   0  0  0  0  0  0  0  0  0  0  0  0
   -1.5140    1.9684    0.4945 C   0  0  0  0  0  0  0  0  0  0  0  0
   -3.8301    2.6077   -0.3635 C   0  0  0  0  0  0  0  0  0  0  0  0
   -2.0810   -3.0668    0.2026 C   0  0  0  0  0  0  0  0  0  0  0  0
   -3.4836   -1.5243   -1.0182 C   0  0  0  0  0  0  0  0  0  0  0  0
   -4.5574    1.8972    0.7799 C   0  0  0  0  0  0  0  0  0  0  0  0
    3.2569   -0.2307    0.1776 C   0  0  0  0  0  0  0  0  0  0  0  0
   -3.2168   -3.7024    0.7045 C   0  0  0  0  0  0  0  0  0  0  0  0
   -4.6193   -2.1597   -0.5162 C   0  0  0  0  0  0  0  0  0  0  0  0
   -4.4859   -3.2488    0.3451 C   0  0  0  0  0  0  0  0  0  0  0  0
    4.0082   -0.9212    1.1144 C   0  0  0  0  0  0  0  0  0  0  0  0
    3.8562    0.5812   -0.7715 C   0  0  0  0  0  0  0  0  0  0  0  0
   -5.9313    1.4230    0.3646 C   0  0  0  0  0  0  0  0  0  0  0  0
    5.3975   -0.7962    1.1018 C   0  0  0  0  0  0  0  0  0  0  0  0
    5.2454    0.7059   -0.7841 C   0  0  0  0  0  0  0  0  0  0  0  0
    6.0160    0.0173    0.1525 C   0  0  0  0  0  0  0  0  0  0  0  0
   -0.5539   -0.4281    0.7472 H   0  0  0  0  0  0  0  0  0  0  0  0
   -0.2039   -2.0483   -1.3042 H   0  0  0  0  0  0  0  0  0  0  0  0
   -1.1947   -0.9490   -2.2192 H   0  0  0  0  0  0  0  0  0  0  0  0
   -1.6824    1.2108   -1.4371 H   0  0  0  0  0  0  0  0  0  0  0  0
   -1.9622    3.5994   -0.8035 H   0  0  0  0  0  0  0  0  0  0  0  0
   -2.5143    3.8149    0.8573 H   0  0  0  0  0  0  0  0  0  0  0  0
   -4.4196    3.4752   -0.6862 H   0  0  0  0  0  0  0  0  0  0  0  0
   -3.7705    1.9417   -1.2323 H   0  0  0  0  0  0  0  0  0  0  0  0
    1.4822   -0.9826    0.9052 H   0  0  0  0  0  0  0  0  0  0  0  0
   -4.6738    2.5834    1.6260 H   0  0  0  0  0  0  0  0  0  0  0  0
   -3.9915    1.0189    1.1076 H   0  0  0  0  0  0  0  0  0  0  0  0
   -1.0969   -3.4256    0.4906 H   0  0  0  0  0  0  0  0  0  0  0  0
   -3.5992   -0.6784   -1.6895 H   0  0  0  0  0  0  0  0  0  0  0  0
   -3.1130   -4.5497    1.3760 H   0  0  0  0  0  0  0  0  0  0  0  0
   -5.6074   -1.8059   -0.7955 H   0  0  0  0  0  0  0  0  0  0  0  0
   -5.3703   -3.7430    0.7364 H   0  0  0  0  0  0  0  0  0  0  0  0
    3.5361   -1.5573    1.8580 H   0  0  0  0  0  0  0  0  0  0  0  0
    3.3306    1.1420   -1.5300 H   0  0  0  0  0  0  0  0  0  0  0  0
    5.9657   -1.3475    1.8467 H   0  0  0  0  0  0  0  0  0  0  0  0
    5.6942    1.3476   -1.5383 H   0  0  0  0  0  0  0  0  0  0  0  0
   -7.4719    0.5062    1.1311 H   0  0  0  0  0  0  0  0  0  0  0  0
  1 13  2  0  0  0  0
  2 15  2  0  0  0  0
  3 26  1  0  0  0  0
  3 50  1  0  0  0  0
  4 26  2  0  0  0  0
  5  9  1  0  0  0  0
  6  9  2  0  0  0  0
  7 10  1  0  0  0  0
  7 15  1  0  0  0  0
  7 33  1  0  0  0  0
  8 13  1  0  0  0  0
  8 20  1  0  0  0  0
  8 38  1  0  0  0  0
  9 29  1  0  0  0  0
 10 11  1  0  0  0  0
 10 13  1  0  0  0  0
 10 30  1  0  0  0  0
 11 12  1  0  0  0  0
 11 31  1  0  0  0  0
 11 32  1  0  0  0  0
 12 17  2  0  0  0  0
 12 18  1  0  0  0  0
 14 15  1  0  0  0  0
 14 16  1  0  0  0  0
 14 34  1  0  0  0  0
 14 35  1  0  0  0  0
 16 19  1  0  0  0  0
 16 36  1  0  0  0  0
 16 37  1  0  0  0  0
 17 21  1  0  0  0  0
 17 41  1  0  0  0  0
 18 22  2  0  0  0  0
 18 42  1  0  0  0  0
 19 26  1  0  0  0  0
 19 39  1  0  0  0  0
 19 40  1  0  0  0  0
 20 24  2  0  0  0  0
 20 25  1  0  0  0  0
 21 23  2  0  0  0  0
 21 43  1  0  0  0  0
 22 23  1  0  0  0  0
 22 44  1  0  0  0  0
 23 45  1  0  0  0  0
 24 27  1  0  0  0  0
 24 46  1  0  0  0  0
 25 28  2  0  0  0  0
 25 47  1  0  0  0  0
 27 29  2  0  0  0  0
 27 48  1  0  0  0  0
 28 29  1  0  0  0  0
 28 49  1  0  0  0  0
M  CHG  2   5  -1   9   1
M  END
> <PUBCHEM_COMPOUND_CID>
111098

> <PUBCHEM_CONFORMER_RMSD>
1

> <PUBCHEM_CONFORMER_DIVERSEORDER>
1
59
77
24
98
37
10
105
58
65
96
45
60
18
28
13
68
47
52
90
38
87
56
64
54
104
5
85
102
103
107
34
26
94
49
67
73
19
86
72
30
95
42
82
99
69
66
14
50
61
108
8
91
70
7
81
80
88
36
43
78
101
29
71
40
74
11
17
41
32
3
12
31
23
46
9
100
51
97
83
75
53
44
76
6
79
84
62
25
20
89
2
35
57
15
22
93
55
21
16
39
106
92
27
63
48
33
4

> <PUBCHEM_MMFF94_PARTIAL_CHARGES>
40
1 -0.57
10 0.36
11 0.14
12 -0.14
13 0.57
14 0.06
15 0.57
17 -0.15
18 -0.15
19 0.06
2 -0.57
20 0.12
21 -0.15
22 -0.15
23 -0.15
24 -0.15
25 -0.15
26 0.66
27 -0.15
28 -0.15
29 0.13
3 -0.65
33 0.37
38 0.37
4 -0.57
41 0.15
42 0.15
43 0.15
44 0.15
45 0.15
46 0.15
47 0.15
48 0.15
49 0.15
5 -0.52
50 0.5
6 -0.52
7 -0.73
8 -0.55
9 0.91

> <PUBCHEM_EFFECTIVE_ROTOR_COUNT>
12

> <PUBCHEM_PHARMACOPHORE_FEATURES>
12
1 1 acceptor
1 2 acceptor
1 3 acceptor
1 4 acceptor
1 5 acceptor
1 5 anion
1 6 acceptor
1 7 donor
1 8 donor
3 3 4 26 anion
6 12 17 18 21 22 23 rings
6 20 24 25 27 28 29 rings

> <PUBCHEM_HEAVY_ATOM_COUNT>
29

> <PUBCHEM_ATOM_DEF_STEREO_COUNT>
1

> <PUBCHEM_ATOM_UDEF_STEREO_COUNT>
0

> <PUBCHEM_BOND_DEF_STEREO_COUNT>
0

> <PUBCHEM_BOND_UDEF_STEREO_COUNT>
0

> <PUBCHEM_ISOTOPIC_ATOM_COUNT>
0

> <PUBCHEM_COMPONENT_COUNT>
1

> <PUBCHEM_CACTVS_TAUTO_COUNT>
4

> <PUBCHEM_CONFORMER_ID>
0001B1FA00000001

> <PUBCHEM_MMFF94_ENERGY>
73.4689

> <PUBCHEM_FEATURE_SELFOVERLAP>
61.039

> <PUBCHEM_SHAPE_FINGERPRINT>
10411042 1 18051410970979065463
10554248 39 14548743932834290136
10838868 229 18048314449302548738
1100329 8 18411140260185545777
12236239 1 18333447656296419046
12788726 201 18409442613520181562
12838862 33 18341040819522081169
13052359 8 18409730643328505415
13631057 29 18335132146295898626
13692115 27 17983870148842645767
13947920 75 18408317787507578595
14844126 61 18410856603191401739
14866123 147 18409729582545975603
15021287 119 17168147849272594821
15131766 46 15721961399043362316
15328829 1 17967822643200605740
1577012 14 18259987089959178300
21033648 29 17346015845825289410
21236236 1 18342455958978083351
21792961 116 17203618056594780844
23522609 53 17750256814351390172
23559900 14 18343011225029563144
25147074 1 17968669314662423332
25269216 80 18192172545378751038
4073 2 18411703175884684942
497634 4 18114455730442608174
5028188 123 18335149679438597910
5104073 3 18337656586934088120
5171179 24 17630308965005650841
5486654 2 18270962341633892601
7226269 152 18343300349696182873

> <PUBCHEM_SHAPE_MULTIPOLES>
546.65
18.98
3.66
1.19
31.37
1.6
-0.07
-2.47
-2.95
-8.59
-0.52
0.04
-0.06
-1.21

> <PUBCHEM_SHAPE_SELFOVERLAP>
1145.468

> <PUBCHEM_SHAPE_VOLUME>
306.2

> <PUBCHEM_COORDINATE_TYPE>
2
5
10

$$$$
