11111690
  -OEChem-03292013303D

 51 55  0     1  0  0  0  0  0999 V2000
   -2.0216   -0.8019   -1.2280 O   0  0  0  0  0  0  0  0  0  0  0  0
    2.2973    1.2929    1.7305 O   0  0  0  0  0  0  0  0  0  0  0  0
   -2.2578    0.0619    1.5908 O   0  0  0  0  0  0  0  0  0  0  0  0
   -0.0623   -2.7554   -0.8953 O   0  0  0  0  0  0  0  0  0  0  0  0
    3.1754    2.0496   -1.5705 O   0  0  0  0  0  0  0  0  0  0  0  0
    2.7072   -2.1804    1.0268 O   0  0  0  0  0  0  0  0  0  0  0  0
    3.2625   -0.3949    2.8642 O   0  0  0  0  0  0  0  0  0  0  0  0
   -3.4463   -1.7563    2.3259 O   0  0  0  0  0  0  0  0  0  0  0  0
    1.3103    0.9409   -0.5707 C   0  0  2  0  0  0  0  0  0  0  0  0
   -1.0031    1.6082    0.1198 C   0  0  2  0  0  0  0  0  0  0  0  0
   -0.1781    0.6516   -0.7022 C   0  0  0  0  0  0  0  0  0  0  0  0
    2.1252   -0.3779   -0.5035 C   0  0  2  0  0  0  0  0  0  0  0  0
    1.3687    1.7660    0.7358 C   0  0  1  0  0  0  0  0  0  0  0  0
   -0.0567    1.7888    1.3203 C   0  0  0  0  0  0  0  0  0  0  0  0
   -2.3628    0.9769    0.4804 C   0  0  1  0  0  0  0  0  0  0  0  0
    1.7094   -1.2985   -1.6954 C   0  0  2  0  0  0  0  0  0  0  0  0
   -0.6826   -0.4823   -1.2195 C   0  0  0  0  0  0  0  0  0  0  0  0
   -2.9587    0.1073   -0.6262 C   0  0  2  0  0  0  0  0  0  0  0  0
    0.1948   -1.6078   -1.7103 C   0  0  2  0  0  0  0  0  0  0  0  0
    1.7988    1.8074   -1.7538 C   0  0  0  0  0  0  0  0  0  0  0  0
    1.9775   -0.9700    0.9055 C   0  0  2  0  0  0  0  0  0  0  0  0
   -1.2247    2.9510   -0.6023 C   0  0  0  0  0  0  0  0  0  0  0  0
   -3.9326   -0.7556    0.1715 C   0  0  0  0  0  0  0  0  0  0  0  0
    2.5737   -0.0196    1.9196 C   0  0  0  0  0  0  0  0  0  0  0  0
    2.5713   -2.5553   -1.8527 C   0  0  0  0  0  0  0  0  0  0  0  0
   -3.6738    0.8633   -1.7389 C   0  0  0  0  0  0  0  0  0  0  0  0
   -3.2111   -0.9100    1.4780 C   0  0  0  0  0  0  0  0  0  0  0  0
    3.1950   -0.1636   -0.6382 H   0  0  0  0  0  0  0  0  0  0  0  0
    1.6585    2.8040    0.5356 H   0  0  0  0  0  0  0  0  0  0  0  0
   -0.1534    0.9899    2.0647 H   0  0  0  0  0  0  0  0  0  0  0  0
   -0.2455    2.7248    1.8594 H   0  0  0  0  0  0  0  0  0  0  0  0
   -3.0663    1.7548    0.8058 H   0  0  0  0  0  0  0  0  0  0  0  0
    1.9087   -0.7264   -2.6102 H   0  0  0  0  0  0  0  0  0  0  0  0
   -0.0990   -1.8755   -2.7320 H   0  0  0  0  0  0  0  0  0  0  0  0
    1.2905    2.7731   -1.8180 H   0  0  0  0  0  0  0  0  0  0  0  0
    1.6554    1.3250   -2.7242 H   0  0  0  0  0  0  0  0  0  0  0  0
    0.9398   -1.1628    1.1891 H   0  0  0  0  0  0  0  0  0  0  0  0
   -0.3253    3.5739   -0.6138 H   0  0  0  0  0  0  0  0  0  0  0  0
   -1.5355    2.8155   -1.6418 H   0  0  0  0  0  0  0  0  0  0  0  0
   -1.9930    3.5456   -0.0950 H   0  0  0  0  0  0  0  0  0  0  0  0
   -4.0897   -1.7380   -0.2827 H   0  0  0  0  0  0  0  0  0  0  0  0
   -4.8854   -0.2522    0.3627 H   0  0  0  0  0  0  0  0  0  0  0  0
    2.3668   -3.0309   -2.8186 H   0  0  0  0  0  0  0  0  0  0  0  0
    3.6360   -2.3008   -1.8299 H   0  0  0  0  0  0  0  0  0  0  0  0
    2.3818   -3.3060   -1.0818 H   0  0  0  0  0  0  0  0  0  0  0  0
   -2.9656    1.3498   -2.4152 H   0  0  0  0  0  0  0  0  0  0  0  0
   -4.2518    0.1702   -2.3617 H   0  0  0  0  0  0  0  0  0  0  0  0
   -4.3598    1.6183   -1.3423 H   0  0  0  0  0  0  0  0  0  0  0  0
   -0.1756   -2.4740    0.0269 H   0  0  0  0  0  0  0  0  0  0  0  0
    3.2871    2.6605   -0.8238 H   0  0  0  0  0  0  0  0  0  0  0  0
    2.5047   -2.5609    1.8987 H   0  0  0  0  0  0  0  0  0  0  0  0
  1 17  1  0  0  0  0
  1 18  1  0  0  0  0
  2 13  1  0  0  0  0
  2 24  1  0  0  0  0
  3 15  1  0  0  0  0
  3 27  1  0  0  0  0
  4 19  1  0  0  0  0
  4 49  1  0  0  0  0
  5 20  1  0  0  0  0
  5 50  1  0  0  0  0
  6 21  1  0  0  0  0
  6 51  1  0  0  0  0
  7 24  2  0  0  0  0
  8 27  2  0  0  0  0
  9 11  1  0  0  0  0
  9 12  1  0  0  0  0
  9 13  1  0  0  0  0
  9 20  1  0  0  0  0
 10 11  1  0  0  0  0
 10 14  1  0  0  0  0
 10 15  1  0  0  0  0
 10 22  1  0  0  0  0
 11 17  2  0  0  0  0
 12 16  1  0  0  0  0
 12 21  1  0  0  0  0
 12 28  1  0  0  0  0
 13 14  1  0  0  0  0
 13 29  1  0  0  0  0
 14 30  1  0  0  0  0
 14 31  1  0  0  0  0
 15 18  1  0  0  0  0
 15 32  1  0  0  0  0
 16 19  1  0  0  0  0
 16 25  1  0  0  0  0
 16 33  1  0  0  0  0
 17 19  1  0  0  0  0
 18 23  1  0  0  0  0
 18 26  1  0  0  0  0
 19 34  1  0  0  0  0
 20 35  1  0  0  0  0
 20 36  1  0  0  0  0
 21 24  1  0  0  0  0
 21 37  1  0  0  0  0
 22 38  1  0  0  0  0
 22 39  1  0  0  0  0
 22 40  1  0  0  0  0
 23 27  1  0  0  0  0
 23 41  1  0  0  0  0
 23 42  1  0  0  0  0
 25 43  1  0  0  0  0
 25 44  1  0  0  0  0
 25 45  1  0  0  0  0
 26 46  1  0  0  0  0
 26 47  1  0  0  0  0
 26 48  1  0  0  0  0
M  END
> <PUBCHEM_COMPOUND_CID>
11111690

> <PUBCHEM_CONFORMER_RMSD>
0.6

> <PUBCHEM_CONFORMER_DIVERSEORDER>
1
3
2
4
5

> <PUBCHEM_MMFF94_PARTIAL_CHARGES>
24
1 -0.36
10 0.14
11 -0.28
13 0.28
15 0.28
17 -0.06
18 0.28
19 0.42
2 -0.43
20 0.28
21 0.34
23 0.06
24 0.66
27 0.66
3 -0.43
4 -0.68
49 0.4
5 -0.68
50 0.4
51 0.4
6 -0.68
7 -0.57
8 -0.57
9 0.14

> <PUBCHEM_EFFECTIVE_ROTOR_COUNT>
2.6

> <PUBCHEM_PHARMACOPHORE_FEATURES>
14
1 1 acceptor
1 4 acceptor
1 4 donor
1 5 acceptor
1 5 donor
1 6 acceptor
1 6 donor
1 7 acceptor
1 8 acceptor
5 3 15 18 23 27 rings
5 9 10 11 13 14 rings
6 1 10 11 15 17 18 rings
6 2 9 12 13 21 24 rings
6 9 11 12 16 17 19 rings

> <PUBCHEM_HEAVY_ATOM_COUNT>
27

> <PUBCHEM_ATOM_DEF_STEREO_COUNT>
9

> <PUBCHEM_ATOM_UDEF_STEREO_COUNT>
0

> <PUBCHEM_BOND_DEF_STEREO_COUNT>
0

> <PUBCHEM_BOND_UDEF_STEREO_COUNT>
0

> <PUBCHEM_ISOTOPIC_ATOM_COUNT>
0

> <PUBCHEM_COMPONENT_COUNT>
1

> <PUBCHEM_CACTVS_TAUTO_COUNT>
2

> <PUBCHEM_CONFORMER_ID>
00A98D0A00000001

> <PUBCHEM_MMFF94_ENERGY>
91.252

> <PUBCHEM_FEATURE_SELFOVERLAP>
71.84

> <PUBCHEM_SHAPE_FINGERPRINT>
10863032 1 17167856504218411725
10948715 1 17243309484784249908
11578080 2 17345744175874358921
11582403 64 16606799880104187829
11640471 11 14189276132891843450
12011746 2 17845067654796052236
13027679 85 17126213364683813620
13140716 1 17771903002461365604
13224815 77 18201723950842698037
13583140 156 17751342105089539501
14115302 16 17168414948962019265
14178342 30 17703221948866974479
14223421 5 17774148003283734005
14787075 74 17247264483685322668
15664445 248 16374131254156002511
16945 1 17846498175126689925
18981168 100 17129876159838418762
20600515 1 17972031449178831144
20691752 17 17917432050884740669
23419403 2 17115477681573938172
23493267 7 18187375345443513813
23559900 14 18114462266707501455
25222932 49 17101732038655564731
2748010 2 17914887639275860100
2818148 4 17915766325171025863
3380486 77 17264088119781763030
35225 105 17975135658093298547
3797600 57 17972054779145556632
394222 165 18116432729337370652
427121 178 16845020137674963595
5845 1 8906707654527742510
81228 2 18050567348590405301

> <PUBCHEM_SHAPE_MULTIPOLES>
508.69
5.73
2.74
2.42
2.98
0.39
1.02
1.2
1.52
-1.23
-0.81
-0.72
0.08
0.81

> <PUBCHEM_SHAPE_SELFOVERLAP>
1133.519

> <PUBCHEM_SHAPE_VOLUME>
267.6

> <PUBCHEM_COORDINATE_TYPE>
2
5
10

$$$$
