11119723
  -OEChem-03292013303D

 33 34  0     1  0  0  0  0  0999 V2000
   -0.9410    0.2289    1.0499 O   0  0  0  0  0  0  0  0  0  0  0  0
   -2.2554    2.8549    0.4446 O   0  0  0  0  0  0  0  0  0  0  0  0
    0.0333    2.9802   -1.0334 O   0  0  0  0  0  0  0  0  0  0  0  0
   -2.1805   -3.0743   -0.4720 O   0  0  0  0  0  0  0  0  0  0  0  0
   -2.8361   -2.0955    1.4709 O   0  0  0  0  0  0  0  0  0  0  0  0
    2.7063    2.0938    0.7259 O   0  0  0  0  0  0  0  0  0  0  0  0
    4.5394   -1.9580   -0.4857 O   0  0  0  0  0  0  0  0  0  0  0  0
    1.2570    0.3214    0.2597 N   0  0  0  0  0  0  0  0  0  0  0  0
   -3.7740   -0.5637   -1.1799 N   0  0  0  0  0  0  0  0  0  0  0  0
    3.6172    0.0755    0.1217 N   0  0  0  0  0  0  0  0  0  0  0  0
   -2.1848    0.4712    0.3564 C   0  0  1  0  0  0  0  0  0  0  0  0
   -1.9811    1.7597   -0.4287 C   0  0  2  0  0  0  0  0  0  0  0  0
   -0.5030    1.7037   -0.7523 C   0  0  2  0  0  0  0  0  0  0  0  0
    0.0738    1.0931    0.5132 C   0  0  1  0  0  0  0  0  0  0  0  0
   -2.4768   -0.7332   -0.5286 C   0  0  1  0  0  0  0  0  0  0  0  0
   -2.5251   -2.0045    0.2920 C   0  0  0  0  0  0  0  0  0  0  0  0
    2.5322    0.9193    0.3940 C   0  0  0  0  0  0  0  0  0  0  0  0
    1.1482   -1.0121   -0.1173 C   0  0  0  0  0  0  0  0  0  0  0  0
    2.1917   -1.8037   -0.3736 C   0  0  0  0  0  0  0  0  0  0  0  0
    3.5585   -1.2568   -0.2569 C   0  0  0  0  0  0  0  0  0  0  0  0
   -2.9576    0.5873    1.1269 H   0  0  0  0  0  0  0  0  0  0  0  0
   -2.6150    1.8811   -1.3102 H   0  0  0  0  0  0  0  0  0  0  0  0
   -0.3383    1.0607   -1.6252 H   0  0  0  0  0  0  0  0  0  0  0  0
    0.2977    1.8618    1.2625 H   0  0  0  0  0  0  0  0  0  0  0  0
   -1.7005   -0.8457   -1.2924 H   0  0  0  0  0  0  0  0  0  0  0  0
   -1.7749    2.7234    1.2789 H   0  0  0  0  0  0  0  0  0  0  0  0
    0.9933    2.8751   -1.1463 H   0  0  0  0  0  0  0  0  0  0  0  0
   -4.5116   -0.4864   -0.4808 H   0  0  0  0  0  0  0  0  0  0  0  0
   -3.9898   -1.3854   -1.7427 H   0  0  0  0  0  0  0  0  0  0  0  0
    0.1588   -1.4299   -0.2136 H   0  0  0  0  0  0  0  0  0  0  0  0
    4.5433    0.4842    0.2118 H   0  0  0  0  0  0  0  0  0  0  0  0
    2.0683   -2.8388   -0.6677 H   0  0  0  0  0  0  0  0  0  0  0  0
   -2.2089   -3.9117    0.0381 H   0  0  0  0  0  0  0  0  0  0  0  0
  1 11  1  0  0  0  0
  1 14  1  0  0  0  0
  2 12  1  0  0  0  0
  2 26  1  0  0  0  0
  3 13  1  0  0  0  0
  3 27  1  0  0  0  0
  4 16  1  0  0  0  0
  4 33  1  0  0  0  0
  5 16  2  0  0  0  0
  6 17  2  0  0  0  0
  7 20  2  0  0  0  0
  8 14  1  0  0  0  0
  8 17  1  0  0  0  0
  8 18  1  0  0  0  0
  9 15  1  0  0  0  0
  9 28  1  0  0  0  0
  9 29  1  0  0  0  0
 10 17  1  0  0  0  0
 10 20  1  0  0  0  0
 10 31  1  0  0  0  0
 11 12  1  0  0  0  0
 11 15  1  0  0  0  0
 11 21  1  0  0  0  0
 12 13  1  0  0  0  0
 12 22  1  0  0  0  0
 13 14  1  0  0  0  0
 13 23  1  0  0  0  0
 14 24  1  0  0  0  0
 15 16  1  0  0  0  0
 15 25  1  0  0  0  0
 18 19  2  0  0  0  0
 18 30  1  0  0  0  0
 19 20  1  0  0  0  0
 19 32  1  0  0  0  0
M  END
> <PUBCHEM_COMPOUND_CID>
11119723

> <PUBCHEM_CONFORMER_RMSD>
0.6

> <PUBCHEM_CONFORMER_DIVERSEORDER>
1
20
12
19
22
26
17
25
3
21
15
14
27
6
13
10
16
5
9
18
2
8
11
23
7
4
24

> <PUBCHEM_MMFF94_PARTIAL_CHARGES>
28
1 -0.56
10 -0.49
11 0.28
12 0.28
13 0.28
14 0.58
15 0.33
16 0.66
17 0.69
18 -0.04
19 -0.14
2 -0.68
20 0.62
26 0.4
27 0.4
28 0.36
29 0.36
3 -0.68
30 0.15
31 0.37
32 0.15
33 0.5
4 -0.65
5 -0.57
6 -0.57
7 -0.57
8 -0.47
9 -0.99

> <PUBCHEM_EFFECTIVE_ROTOR_COUNT>
4

> <PUBCHEM_PHARMACOPHORE_FEATURES>
15
1 1 acceptor
1 10 donor
1 2 acceptor
1 2 donor
1 3 acceptor
1 3 donor
1 4 acceptor
1 5 acceptor
1 6 acceptor
1 7 acceptor
1 9 cation
1 9 donor
3 4 5 16 anion
5 1 11 12 13 14 rings
6 8 10 17 18 19 20 rings

> <PUBCHEM_HEAVY_ATOM_COUNT>
20

> <PUBCHEM_ATOM_DEF_STEREO_COUNT>
5

> <PUBCHEM_ATOM_UDEF_STEREO_COUNT>
0

> <PUBCHEM_BOND_DEF_STEREO_COUNT>
0

> <PUBCHEM_BOND_UDEF_STEREO_COUNT>
0

> <PUBCHEM_ISOTOPIC_ATOM_COUNT>
0

> <PUBCHEM_COMPONENT_COUNT>
1

> <PUBCHEM_CACTVS_TAUTO_COUNT>
3

> <PUBCHEM_CONFORMER_ID>
00A9AC6B00000001

> <PUBCHEM_MMFF94_ENERGY>
49.1077

> <PUBCHEM_FEATURE_SELFOVERLAP>
76.197

> <PUBCHEM_SHAPE_FINGERPRINT>
10967382 1 17834675281037775330
11578080 2 17059188471884980025
116883 192 18409724084491672229
12500047 106 18192992617210875996
12553582 1 18121790683674437071
12969540 114 17752752547049338533
13140716 1 18411140208128421810
14223421 5 18341609351972430392
14251705 54 18048319143400362411
14251745 187 18410285917721909290
14790565 3 17619921552130532784
14965852 173 18340207384452852088
15375462 6 18339640143985357684
16945 1 18269274723753723657
17357779 13 18341036502119619527
19591789 44 17618225001224445833
200 152 17703497835684810767
20871999 31 18261665961914237621
21501502 16 18411699842409658448
221490 88 18411986875459035634
22802520 49 18410294704950573178
2334 1 18337673121719569490
23388829 49 18050852413932499853
23557571 272 18261381295339125176
23559900 14 18341038692684867480
238 59 15514725030696815292
2748010 2 18410568517816371406
2871803 45 18409440388695233047
3084891 72 17691399707713608240
46194498 28 17681805717590282383
69090 78 18193555558653763153
81228 2 18334289860222511545
8809292 202 18339081458791938970
9709674 26 18413100667204036022

> <PUBCHEM_SHAPE_MULTIPOLES>
355.56
6.47
3.28
0.97
4.26
0.26
0.05
-3.35
-0.52
-1.35
-0.22
-0.5
-0.01
0.69

> <PUBCHEM_SHAPE_SELFOVERLAP>
752.68

> <PUBCHEM_SHAPE_VOLUME>
198

> <PUBCHEM_COORDINATE_TYPE>
2
5
10

$$$$
