11123535
  -OEChem-03292013303D

 63 64  0     1  0  0  0  0  0999 V2000
    1.3044    5.0323   -0.5719 Cl  0  0  0  0  0  0  0  0  0  0  0  0
   -1.9659    0.7227   -0.3195 O   0  0  0  0  0  0  0  0  0  0  0  0
    0.2594   -0.9796   -1.4998 O   0  0  0  0  0  0  0  0  0  0  0  0
   -2.6358   -2.0091   -2.6651 O   0  0  0  0  0  0  0  0  0  0  0  0
    2.0172   -0.6165   -2.9535 O   0  0  0  0  0  0  0  0  0  0  0  0
    3.3865   -2.3818    1.0168 O   0  0  0  0  0  0  0  0  0  0  0  0
   -7.3641    0.0736    1.7723 O   0  0  0  0  0  0  0  0  0  0  0  0
   -5.4113    1.0783    1.1789 O   0  0  0  0  0  0  0  0  0  0  0  0
    3.9536   -0.7466    2.5469 O   0  0  0  0  0  0  0  0  0  0  0  0
   -0.5180    0.0777   -2.0959 C   0  0  1  0  0  0  0  0  0  0  0  0
   -1.9556    0.0257   -1.5829 C   0  0  1  0  0  0  0  0  0  0  0  0
   -0.6789    1.3467   -0.1294 C   0  0  1  0  0  0  0  0  0  0  0  0
   -0.0621    1.4041   -1.5216 C   0  0  0  0  0  0  0  0  0  0  0  0
   -0.8584    2.6946    0.5639 C   0  0  0  0  0  0  0  0  0  0  0  0
   -2.5300   -1.3665   -1.3937 C   0  0  1  0  0  0  0  0  0  0  0  0
    0.4060    3.2177    1.2600 C   0  0  0  0  0  0  0  0  0  0  0  0
   -3.9093   -1.3115   -0.7956 C   0  0  0  0  0  0  0  0  0  0  0  0
    1.5221   -1.1650   -1.9781 C   0  0  0  0  0  0  0  0  0  0  0  0
    1.5515    3.5780    0.3549 C   0  0  0  0  0  0  0  0  0  0  0  0
   -4.2346   -1.3890    0.5098 C   0  0  0  0  0  0  0  0  0  0  0  0
    2.2679   -2.1117   -1.0748 C   0  0  0  0  0  0  0  0  0  0  0  0
    2.8943   -1.3803    0.1207 C   0  0  2  0  0  0  0  0  0  0  0  0
    2.7345    2.9464    0.2511 C   0  0  0  0  0  0  0  0  0  0  0  0
   -5.6460   -1.3523    1.0394 C   0  0  0  0  0  0  0  0  0  0  0  0
    4.0313   -0.4345   -0.2284 C   0  0  0  0  0  0  0  0  0  0  0  0
   -3.1612   -1.5491    1.5545 C   0  0  0  0  0  0  0  0  0  0  0  0
    3.1525    1.6873    0.9669 C   0  0  0  0  0  0  0  0  0  0  0  0
    4.1047    0.8623    0.1388 C   0  0  0  0  0  0  0  0  0  0  0  0
    5.1744   -1.0340   -1.0148 C   0  0  0  0  0  0  0  0  0  0  0  0
   -6.0807    0.0667    1.3262 C   0  0  0  0  0  0  0  0  0  0  0  0
    3.8886   -1.9169    2.1962 C   0  0  0  0  0  0  0  0  0  0  0  0
    4.3630   -3.0698    3.0279 C   0  0  0  0  0  0  0  0  0  0  0  0
   -0.4662    0.0143   -3.1877 H   0  0  0  0  0  0  0  0  0  0  0  0
   -2.5875    0.6136   -2.2629 H   0  0  0  0  0  0  0  0  0  0  0  0
   -0.1072    0.6732    0.5208 H   0  0  0  0  0  0  0  0  0  0  0  0
    1.0226    1.5127   -1.4928 H   0  0  0  0  0  0  0  0  0  0  0  0
   -0.4883    2.2285   -2.1054 H   0  0  0  0  0  0  0  0  0  0  0  0
   -1.6402    2.5894    1.3284 H   0  0  0  0  0  0  0  0  0  0  0  0
   -1.2511    3.4351   -0.1437 H   0  0  0  0  0  0  0  0  0  0  0  0
   -1.8788   -1.9998   -0.7865 H   0  0  0  0  0  0  0  0  0  0  0  0
    0.1318    4.1100    1.8393 H   0  0  0  0  0  0  0  0  0  0  0  0
    0.7207    2.4859    2.0129 H   0  0  0  0  0  0  0  0  0  0  0  0
   -4.7264   -1.1776   -1.5040 H   0  0  0  0  0  0  0  0  0  0  0  0
   -3.1368   -1.4266   -3.2616 H   0  0  0  0  0  0  0  0  0  0  0  0
    3.0121   -2.6580   -1.6655 H   0  0  0  0  0  0  0  0  0  0  0  0
    1.5747   -2.8885   -0.7256 H   0  0  0  0  0  0  0  0  0  0  0  0
    2.0817   -0.8556    0.6342 H   0  0  0  0  0  0  0  0  0  0  0  0
    3.4876    3.3828   -0.4054 H   0  0  0  0  0  0  0  0  0  0  0  0
   -6.3317   -1.7725    0.2941 H   0  0  0  0  0  0  0  0  0  0  0  0
   -5.7287   -1.9497    1.9536 H   0  0  0  0  0  0  0  0  0  0  0  0
   -3.2600   -2.5264    2.0392 H   0  0  0  0  0  0  0  0  0  0  0  0
   -2.1361   -1.4678    1.1906 H   0  0  0  0  0  0  0  0  0  0  0  0
   -3.2773   -0.7777    2.3242 H   0  0  0  0  0  0  0  0  0  0  0  0
    2.2806    1.1076    1.2725 H   0  0  0  0  0  0  0  0  0  0  0  0
    3.6816    1.9820    1.8812 H   0  0  0  0  0  0  0  0  0  0  0  0
    4.9985    1.4110   -0.1623 H   0  0  0  0  0  0  0  0  0  0  0  0
    4.8560   -1.2781   -2.0327 H   0  0  0  0  0  0  0  0  0  0  0  0
    6.0274   -0.3513   -1.0963 H   0  0  0  0  0  0  0  0  0  0  0  0
    5.5395   -1.9467   -0.5331 H   0  0  0  0  0  0  0  0  0  0  0  0
   -7.6799    0.9828    1.9623 H   0  0  0  0  0  0  0  0  0  0  0  0
    4.7663   -2.6936    3.9725 H   0  0  0  0  0  0  0  0  0  0  0  0
    3.5262   -3.7374    3.2479 H   0  0  0  0  0  0  0  0  0  0  0  0
    5.1557   -3.6059    2.5001 H   0  0  0  0  0  0  0  0  0  0  0  0
  1 19  1  0  0  0  0
  2 11  1  0  0  0  0
  2 12  1  0  0  0  0
  3 10  1  0  0  0  0
  3 18  1  0  0  0  0
  4 15  1  0  0  0  0
  4 44  1  0  0  0  0
  5 18  2  0  0  0  0
  6 22  1  0  0  0  0
  6 31  1  0  0  0  0
  7 30  1  0  0  0  0
  7 60  1  0  0  0  0
  8 30  2  0  0  0  0
  9 31  2  0  0  0  0
 10 11  1  0  0  0  0
 10 13  1  0  0  0  0
 10 33  1  0  0  0  0
 11 15  1  0  0  0  0
 11 34  1  0  0  0  0
 12 13  1  0  0  0  0
 12 14  1  0  0  0  0
 12 35  1  0  0  0  0
 13 36  1  0  0  0  0
 13 37  1  0  0  0  0
 14 16  1  0  0  0  0
 14 38  1  0  0  0  0
 14 39  1  0  0  0  0
 15 17  1  0  0  0  0
 15 40  1  0  0  0  0
 16 19  1  0  0  0  0
 16 41  1  0  0  0  0
 16 42  1  0  0  0  0
 17 20  2  0  0  0  0
 17 43  1  0  0  0  0
 18 21  1  0  0  0  0
 19 23  2  0  0  0  0
 20 24  1  0  0  0  0
 20 26  1  0  0  0  0
 21 22  1  0  0  0  0
 21 45  1  0  0  0  0
 21 46  1  0  0  0  0
 22 25  1  0  0  0  0
 22 47  1  0  0  0  0
 23 27  1  0  0  0  0
 23 48  1  0  0  0  0
 24 30  1  0  0  0  0
 24 49  1  0  0  0  0
 24 50  1  0  0  0  0
 25 28  2  0  0  0  0
 25 29  1  0  0  0  0
 26 51  1  0  0  0  0
 26 52  1  0  0  0  0
 26 53  1  0  0  0  0
 27 28  1  0  0  0  0
 27 54  1  0  0  0  0
 27 55  1  0  0  0  0
 28 56  1  0  0  0  0
 29 57  1  0  0  0  0
 29 58  1  0  0  0  0
 29 59  1  0  0  0  0
 31 32  1  0  0  0  0
 32 61  1  0  0  0  0
 32 62  1  0  0  0  0
 32 63  1  0  0  0  0
M  END
> <PUBCHEM_COMPOUND_CID>
11123535

> <PUBCHEM_CONFORMER_RMSD>
1

> <PUBCHEM_CONFORMER_DIVERSEORDER>
1
11
7
12
4
10
6
3
2
8
9
5

> <PUBCHEM_MMFF94_PARTIAL_CHARGES>
34
1 -0.14
10 0.28
11 0.28
12 0.28
15 0.42
16 0.14
17 -0.29
18 0.66
2 -0.56
20 -0.28
21 0.06
22 0.42
23 -0.29
24 0.2
25 -0.28
26 0.14
27 0.28
28 -0.29
29 0.14
3 -0.43
30 0.66
31 0.66
32 0.06
4 -0.68
43 0.15
44 0.4
48 0.15
5 -0.57
56 0.15
6 -0.43
60 0.5
7 -0.65
8 -0.57
9 -0.57

> <PUBCHEM_EFFECTIVE_ROTOR_COUNT>
7.8

> <PUBCHEM_PHARMACOPHORE_FEATURES>
10
1 2 acceptor
1 26 hydrophobe
1 4 acceptor
1 4 donor
1 5 acceptor
1 7 acceptor
1 8 acceptor
1 9 acceptor
3 7 8 30 anion
5 2 10 11 12 13 rings

> <PUBCHEM_HEAVY_ATOM_COUNT>
32

> <PUBCHEM_ATOM_DEF_STEREO_COUNT>
5

> <PUBCHEM_ATOM_UDEF_STEREO_COUNT>
0

> <PUBCHEM_BOND_DEF_STEREO_COUNT>
3

> <PUBCHEM_BOND_UDEF_STEREO_COUNT>
0

> <PUBCHEM_ISOTOPIC_ATOM_COUNT>
0

> <PUBCHEM_COMPONENT_COUNT>
1

> <PUBCHEM_CACTVS_TAUTO_COUNT>
1

> <PUBCHEM_CONFORMER_ID>
00A9BB4F00000001

> <PUBCHEM_MMFF94_ENERGY>
59.0942

> <PUBCHEM_FEATURE_SELFOVERLAP>
50.806

> <PUBCHEM_SHAPE_FINGERPRINT>
10305334 12 16121864872177658608
11421498 54 18334583391804996270
12128747 34 18260552264436672825
12422481 6 17774715377116890817
12553582 1 18343010086921005262
12633257 1 18270950327914124422
133893 2 18052514845538370317
13583140 156 18188753041918078607
13947947 140 17534326856408864971
13965767 371 16987980723121116358
14790565 3 17551518068685843081
15297060 5 16629414716831194134
15475509 35 17895767308706054107
19319366 153 18117266172753239620
20739085 24 18202007671992709812
20775530 9 18334845092319791556
21421861 104 18341334469554578977
22223350 30 17604723295210438667
23559900 14 16701205039501955023
2838139 119 14189298115204961931
3117164 225 18271250516653511837
3187 122 18127675059589981772
3411729 13 18198354046314232701
3472631 163 13542455467000835243
35225 105 17543371357833385120
392239 28 18263066872935527922
4058900 60 17831032577430237381
460360 51 18410290311837904805
484985 159 16382787314165388058

> <PUBCHEM_SHAPE_MULTIPOLES>
613.46
12.17
4.46
2.69
17.18
5.44
0.2
-7.03
-8.12
-4.71
-1.55
-0.81
-2.03
-1.71

> <PUBCHEM_SHAPE_SELFOVERLAP>
1243.016

> <PUBCHEM_SHAPE_VOLUME>
354.3

> <PUBCHEM_COORDINATE_TYPE>
2
5
10

$$$$
