11134539
  -OEChem-03292013303D

 64 67  0     1  0  0  0  0  0999 V2000
    4.1122   -1.0727   -0.6560 O   0  0  0  0  0  0  0  0  0  0  0  0
   -1.2726    1.3026   -1.6268 O   0  0  0  0  0  0  0  0  0  0  0  0
   -2.8040    2.3239    0.3291 O   0  0  0  0  0  0  0  0  0  0  0  0
    3.6094   -3.1715   -1.2915 O   0  0  0  0  0  0  0  0  0  0  0  0
   -3.0470   -2.8746    1.8701 O   0  0  0  0  0  0  0  0  0  0  0  0
   -4.3285   -2.5960   -0.0377 O   0  0  0  0  0  0  0  0  0  0  0  0
    5.9242    2.4641    1.5597 O   0  0  0  0  0  0  0  0  0  0  0  0
   -1.6755    3.5503   -1.2769 O   0  0  0  0  0  0  0  0  0  0  0  0
   -4.0146    2.1021    2.2841 O   0  0  0  0  0  0  0  0  0  0  0  0
    1.2895   -0.4609   -0.7544 C   0  0  2  0  0  0  0  0  0  0  0  0
   -0.1575   -0.3024   -0.1417 C   0  0  2  0  0  0  0  0  0  0  0  0
   -1.1829   -1.4817   -0.4290 C   0  0  1  0  0  0  0  0  0  0  0  0
    1.8349   -1.8438   -0.3302 C   0  0  1  0  0  0  0  0  0  0  0  0
   -0.4851   -2.8060   -0.0187 C   0  0  0  0  0  0  0  0  0  0  0  0
   -0.8167    1.0900   -0.2980 C   0  0  2  0  0  0  0  0  0  0  0  0
    0.8865   -2.9948   -0.6744 C   0  0  0  0  0  0  0  0  0  0  0  0
    2.2594    0.5469   -0.0835 C   0  0  0  0  0  0  0  0  0  0  0  0
    1.3442   -0.2326   -2.2788 C   0  0  0  0  0  0  0  0  0  0  0  0
   -2.4482   -1.2206    0.3979 C   0  0  0  0  0  0  0  0  0  0  0  0
   -1.9775    1.2264    0.7054 C   0  0  2  0  0  0  0  0  0  0  0  0
   -1.6879   -1.6359   -1.8830 C   0  0  0  0  0  0  0  0  0  0  0  0
    3.7323    0.3168   -0.4611 C   0  0  1  0  0  0  0  0  0  0  0  0
    3.2399   -2.0934   -0.8357 C   0  0  0  0  0  0  0  0  0  0  0  0
   -2.8004   -0.0168    0.8811 C   0  0  0  0  0  0  0  0  0  0  0  0
   -3.3986   -2.3039    0.6923 C   0  0  0  0  0  0  0  0  0  0  0  0
    4.6432    0.9468    0.5237 C   0  0  0  0  0  0  0  0  0  0  0  0
   -1.8976    2.4971   -1.8587 C   0  0  0  0  0  0  0  0  0  0  0  0
    5.1967    0.3403    1.6702 C   0  0  0  0  0  0  0  0  0  0  0  0
    5.1107    2.2349    0.4956 C   0  0  0  0  0  0  0  0  0  0  0  0
   -3.7883    2.6559    1.2168 C   0  0  0  0  0  0  0  0  0  0  0  0
   -2.9150    2.3382   -2.9476 C   0  0  0  0  0  0  0  0  0  0  0  0
    5.9712    1.3062    2.2696 C   0  0  0  0  0  0  0  0  0  0  0  0
   -3.8839   -3.9551    2.2956 C   0  0  0  0  0  0  0  0  0  0  0  0
   -4.5725    3.8204    0.6925 C   0  0  0  0  0  0  0  0  0  0  0  0
    0.0322   -0.3756    0.9451 H   0  0  0  0  0  0  0  0  0  0  0  0
    1.9382   -1.8627    0.7666 H   0  0  0  0  0  0  0  0  0  0  0  0
   -0.3543   -2.8330    1.0718 H   0  0  0  0  0  0  0  0  0  0  0  0
   -1.1140   -3.6696   -0.2710 H   0  0  0  0  0  0  0  0  0  0  0  0
   -0.0909    1.8788   -0.0733 H   0  0  0  0  0  0  0  0  0  0  0  0
    0.7898   -3.1089   -1.7595 H   0  0  0  0  0  0  0  0  0  0  0  0
    1.3092   -3.9415   -0.3136 H   0  0  0  0  0  0  0  0  0  0  0  0
    2.1492    0.4708    1.0080 H   0  0  0  0  0  0  0  0  0  0  0  0
    1.9989    1.5823   -0.3344 H   0  0  0  0  0  0  0  0  0  0  0  0
    0.7741   -0.9622   -2.8460 H   0  0  0  0  0  0  0  0  0  0  0  0
    0.9855    0.7655   -2.5465 H   0  0  0  0  0  0  0  0  0  0  0  0
    2.3629   -0.3047   -2.6730 H   0  0  0  0  0  0  0  0  0  0  0  0
   -1.5327    1.4548    1.6847 H   0  0  0  0  0  0  0  0  0  0  0  0
   -0.9040   -1.8828   -2.5945 H   0  0  0  0  0  0  0  0  0  0  0  0
   -2.4030   -2.4658   -1.9590 H   0  0  0  0  0  0  0  0  0  0  0  0
   -2.2162   -0.7533   -2.2504 H   0  0  0  0  0  0  0  0  0  0  0  0
    3.9161    0.7918   -1.4337 H   0  0  0  0  0  0  0  0  0  0  0  0
   -3.7174    0.0269    1.4598 H   0  0  0  0  0  0  0  0  0  0  0  0
    5.0542   -0.6704    2.0255 H   0  0  0  0  0  0  0  0  0  0  0  0
    4.9700    3.0721   -0.1727 H   0  0  0  0  0  0  0  0  0  0  0  0
   -3.4036    3.2995   -3.1303 H   0  0  0  0  0  0  0  0  0  0  0  0
   -2.4239    2.0152   -3.8689 H   0  0  0  0  0  0  0  0  0  0  0  0
   -3.6742    1.6141   -2.6412 H   0  0  0  0  0  0  0  0  0  0  0  0
    6.5849    1.3274    3.1582 H   0  0  0  0  0  0  0  0  0  0  0  0
   -4.9103   -3.6048    2.4411 H   0  0  0  0  0  0  0  0  0  0  0  0
   -3.5008   -4.3260    3.2500 H   0  0  0  0  0  0  0  0  0  0  0  0
   -3.8525   -4.7686    1.5645 H   0  0  0  0  0  0  0  0  0  0  0  0
   -5.3803    4.0578    1.3906 H   0  0  0  0  0  0  0  0  0  0  0  0
   -3.9217    4.6933    0.6000 H   0  0  0  0  0  0  0  0  0  0  0  0
   -5.0135    3.5646   -0.2744 H   0  0  0  0  0  0  0  0  0  0  0  0
  1 22  1  0  0  0  0
  1 23  1  0  0  0  0
  2 15  1  0  0  0  0
  2 27  1  0  0  0  0
  3 20  1  0  0  0  0
  3 30  1  0  0  0  0
  4 23  2  0  0  0  0
  5 25  1  0  0  0  0
  5 33  1  0  0  0  0
  6 25  2  0  0  0  0
  7 29  1  0  0  0  0
  7 32  1  0  0  0  0
  8 27  2  0  0  0  0
  9 30  2  0  0  0  0
 10 11  1  0  0  0  0
 10 13  1  0  0  0  0
 10 17  1  0  0  0  0
 10 18  1  0  0  0  0
 11 12  1  0  0  0  0
 11 15  1  0  0  0  0
 11 35  1  0  0  0  0
 12 14  1  0  0  0  0
 12 19  1  0  0  0  0
 12 21  1  0  0  0  0
 13 16  1  0  0  0  0
 13 23  1  0  0  0  0
 13 36  1  0  0  0  0
 14 16  1  0  0  0  0
 14 37  1  0  0  0  0
 14 38  1  0  0  0  0
 15 20  1  0  0  0  0
 15 39  1  0  0  0  0
 16 40  1  0  0  0  0
 16 41  1  0  0  0  0
 17 22  1  0  0  0  0
 17 42  1  0  0  0  0
 17 43  1  0  0  0  0
 18 44  1  0  0  0  0
 18 45  1  0  0  0  0
 18 46  1  0  0  0  0
 19 24  2  0  0  0  0
 19 25  1  0  0  0  0
 20 24  1  0  0  0  0
 20 47  1  0  0  0  0
 21 48  1  0  0  0  0
 21 49  1  0  0  0  0
 21 50  1  0  0  0  0
 22 26  1  0  0  0  0
 22 51  1  0  0  0  0
 24 52  1  0  0  0  0
 26 28  1  0  0  0  0
 26 29  2  0  0  0  0
 27 31  1  0  0  0  0
 28 32  2  0  0  0  0
 28 53  1  0  0  0  0
 29 54  1  0  0  0  0
 30 34  1  0  0  0  0
 31 55  1  0  0  0  0
 31 56  1  0  0  0  0
 31 57  1  0  0  0  0
 32 58  1  0  0  0  0
 33 59  1  0  0  0  0
 33 60  1  0  0  0  0
 33 61  1  0  0  0  0
 34 62  1  0  0  0  0
 34 63  1  0  0  0  0
 34 64  1  0  0  0  0
M  END
> <PUBCHEM_COMPOUND_CID>
11134539

> <PUBCHEM_CONFORMER_RMSD>
1

> <PUBCHEM_CONFORMER_DIVERSEORDER>
1
2

> <PUBCHEM_MMFF94_PARTIAL_CHARGES>
31
1 -0.43
12 0.14
13 0.06
15 0.28
19 -0.12
2 -0.43
20 0.42
22 0.46
23 0.66
24 -0.29
25 0.71
26 -0.18
27 0.66
28 -0.15
29 -0.01
3 -0.43
30 0.66
31 0.06
32 -0.01
33 0.28
34 0.06
4 -0.57
5 -0.43
52 0.15
53 0.15
54 0.15
58 0.15
6 -0.57
7 -0.28
8 -0.57
9 -0.57

> <PUBCHEM_EFFECTIVE_ROTOR_COUNT>
8.4

> <PUBCHEM_PHARMACOPHORE_FEATURES>
9
1 4 acceptor
1 6 acceptor
1 7 acceptor
1 8 acceptor
1 9 acceptor
5 7 26 28 29 32 rings
6 1 10 13 17 22 23 rings
6 10 11 12 13 14 16 rings
6 11 12 15 19 20 24 rings

> <PUBCHEM_HEAVY_ATOM_COUNT>
34

> <PUBCHEM_ATOM_DEF_STEREO_COUNT>
7

> <PUBCHEM_ATOM_UDEF_STEREO_COUNT>
0

> <PUBCHEM_BOND_DEF_STEREO_COUNT>
0

> <PUBCHEM_BOND_UDEF_STEREO_COUNT>
0

> <PUBCHEM_ISOTOPIC_ATOM_COUNT>
0

> <PUBCHEM_COMPONENT_COUNT>
1

> <PUBCHEM_CACTVS_TAUTO_COUNT>
1

> <PUBCHEM_CONFORMER_ID>
00A9E64B00000001

> <PUBCHEM_MMFF94_ENERGY>
117.2592

> <PUBCHEM_FEATURE_SELFOVERLAP>
45.708

> <PUBCHEM_SHAPE_FINGERPRINT>
10074138 170 18187366523923267833
10319926 262 18410008819965940674
10369192 42 17915746577708048212
10670039 82 18263378030932297396
10930396 42 17834082592852025938
11578080 2 18201727223396774824
11595378 159 18261662788118015626
12422481 6 18114191782568412593
12596602 18 17605543560927671088
12892183 10 18341906224328302038
12925494 130 18272649017792280096
12930653 34 18341898497660751658
131258 38 14858988837469831721
13140716 1 18340204064701757490
13540713 4 18271818890955865142
140371 6 18118703216833309515
14068700 686 18342187703610516438
14142880 1 18412822491242542541
14178342 30 18262815028647912043
16114785 44 18131345341346974007
18393751 57 17910387617973601090
20642791 13 18411989074666966115
21033648 144 18268985402135657164
21033648 29 17971470689532683012
21049683 118 18116991083733269219
21344244 78 17908169890141042499
22182313 1 18412261727617405374
23559900 14 18057608660089053798
27425 322 17342672054946202185
283562 15 18269538597954721903
3117164 225 17971733507814563970
3187 122 18188779464736373875
3380486 145 17766263655078767879
3380486 77 16371288955941859606
376196 1 17982453694408239097
3886686 26 17608625260024275194
392239 28 18053104209588745178
460360 51 18261659399584036558
469060 322 18262244433599787553
5104073 3 18411985737176859746
56638632 10 17543059087814951515
57527293 21 17749111089118400292
6004065 56 17981038932223777887
613672 6 18191032411497030483
633830 44 17845651443999554220
6371380 46 18050573932853962610
7399639 24 18341898540911468934
9981440 41 18194371495070803406

> <PUBCHEM_SHAPE_MULTIPOLES>
646.88
11.13
4.94
2.29
13.72
0.37
0.24
-5.55
-7.39
-5.72
-0.82
-0.89
-0.58
3.35

> <PUBCHEM_SHAPE_SELFOVERLAP>
1392.498

> <PUBCHEM_SHAPE_VOLUME>
351.9

> <PUBCHEM_COORDINATE_TYPE>
2
5
10

$$$$
