111308
  -OEChem-03292013323D

 50 51  0     1  0  0  0  0  0999 V2000
   -3.5592    1.4956   -0.8014 O   0  0  0  0  0  0  0  0  0  0  0  0
    0.6296    0.5583    0.1374 O   0  0  0  0  0  0  0  0  0  0  0  0
    1.0388   -0.3177    2.2589 O   0  0  0  0  0  0  0  0  0  0  0  0
   -3.8045    1.2587    1.4699 O   0  0  0  0  0  0  0  0  0  0  0  0
    6.8252    0.1438   -0.9887 O   0  5  0  0  0  0  0  0  0  0  0  0
    6.7294    2.1560   -0.1163 O   0  0  0  0  0  0  0  0  0  0  0  0
   -1.9428    0.4418    0.3521 N   0  0  0  0  0  0  0  0  0  0  0  0
    6.1761    1.0919   -0.4847 N   0  3  0  0  0  0  0  0  0  0  0  0
   -4.8125    2.1776   -0.8621 C   0  0  0  0  0  0  0  0  0  0  0  0
   -1.2458   -0.1163    1.4879 C   0  0  1  0  0  0  0  0  0  0  0  0
   -1.6771   -1.5671    1.7492 C   0  0  0  0  0  0  0  0  0  0  0  0
   -1.3352   -2.5359    0.6397 C   0  0  0  0  0  0  0  0  0  0  0  0
   -4.7281    3.4285    0.0111 C   0  0  0  0  0  0  0  0  0  0  0  0
   -5.0602    2.5560   -2.3207 C   0  0  0  0  0  0  0  0  0  0  0  0
   -5.9043    1.2345   -0.3588 C   0  0  0  0  0  0  0  0  0  0  0  0
    0.2681    0.0104    1.3620 C   0  0  0  0  0  0  0  0  0  0  0  0
   -3.1616    1.0810    0.4404 C   0  0  0  0  0  0  0  0  0  0  0  0
   -2.2433   -2.7597   -0.3952 C   0  0  0  0  0  0  0  0  0  0  0  0
   -0.1116   -3.2056    0.6508 C   0  0  0  0  0  0  0  0  0  0  0  0
   -1.9281   -3.6532   -1.4189 C   0  0  0  0  0  0  0  0  0  0  0  0
    0.2037   -4.0991   -0.3730 C   0  0  0  0  0  0  0  0  0  0  0  0
   -0.7046   -4.3228   -1.4077 C   0  0  0  0  0  0  0  0  0  0  0  0
    2.0115    0.6912   -0.0174 C   0  0  0  0  0  0  0  0  0  0  0  0
    2.7540   -0.3499   -0.5745 C   0  0  0  0  0  0  0  0  0  0  0  0
    2.6487    1.8649    0.3853 C   0  0  0  0  0  0  0  0  0  0  0  0
    4.1338   -0.2171   -0.7293 C   0  0  0  0  0  0  0  0  0  0  0  0
    4.0287    1.9976    0.2307 C   0  0  0  0  0  0  0  0  0  0  0  0
    4.7712    0.9565   -0.3266 C   0  0  0  0  0  0  0  0  0  0  0  0
   -1.5227    0.4904    2.3597 H   0  0  0  0  0  0  0  0  0  0  0  0
   -2.7598   -1.6051    1.9301 H   0  0  0  0  0  0  0  0  0  0  0  0
   -1.2154   -1.9249    2.6793 H   0  0  0  0  0  0  0  0  0  0  0  0
   -1.5197    0.3517   -0.5669 H   0  0  0  0  0  0  0  0  0  0  0  0
   -4.8080    3.2407    1.0848 H   0  0  0  0  0  0  0  0  0  0  0  0
   -3.7842    3.9607   -0.1550 H   0  0  0  0  0  0  0  0  0  0  0  0
   -5.5475    4.1171   -0.2280 H   0  0  0  0  0  0  0  0  0  0  0  0
   -5.0723    1.6635   -2.9568 H   0  0  0  0  0  0  0  0  0  0  0  0
   -4.2533    3.1944   -2.6987 H   0  0  0  0  0  0  0  0  0  0  0  0
   -6.0097    3.0857   -2.4494 H   0  0  0  0  0  0  0  0  0  0  0  0
   -5.7908    0.2355   -0.7958 H   0  0  0  0  0  0  0  0  0  0  0  0
   -5.9327    1.1087    0.7264 H   0  0  0  0  0  0  0  0  0  0  0  0
   -6.8950    1.6125   -0.6386 H   0  0  0  0  0  0  0  0  0  0  0  0
   -3.2007   -2.2456   -0.4155 H   0  0  0  0  0  0  0  0  0  0  0  0
    0.6042   -3.0455    1.4522 H   0  0  0  0  0  0  0  0  0  0  0  0
   -2.6353   -3.8275   -2.2246 H   0  0  0  0  0  0  0  0  0  0  0  0
    1.1563   -4.6208   -0.3641 H   0  0  0  0  0  0  0  0  0  0  0  0
   -0.4590   -5.0184   -2.2048 H   0  0  0  0  0  0  0  0  0  0  0  0
    2.2626   -1.2657   -0.8912 H   0  0  0  0  0  0  0  0  0  0  0  0
    2.0748    2.6791    0.8195 H   0  0  0  0  0  0  0  0  0  0  0  0
    4.6799   -1.0485   -1.1676 H   0  0  0  0  0  0  0  0  0  0  0  0
    4.4911    2.9262    0.5555 H   0  0  0  0  0  0  0  0  0  0  0  0
  1  9  1  0  0  0  0
  1 17  1  0  0  0  0
  2 16  1  0  0  0  0
  2 23  1  0  0  0  0
  3 16  2  0  0  0  0
  4 17  2  0  0  0  0
  5  8  1  0  0  0  0
  6  8  2  0  0  0  0
  7 10  1  0  0  0  0
  7 17  1  0  0  0  0
  7 32  1  0  0  0  0
  8 28  1  0  0  0  0
  9 13  1  0  0  0  0
  9 14  1  0  0  0  0
  9 15  1  0  0  0  0
 10 11  1  0  0  0  0
 10 16  1  0  0  0  0
 10 29  1  0  0  0  0
 11 12  1  0  0  0  0
 11 30  1  0  0  0  0
 11 31  1  0  0  0  0
 12 18  2  0  0  0  0
 12 19  1  0  0  0  0
 13 33  1  0  0  0  0
 13 34  1  0  0  0  0
 13 35  1  0  0  0  0
 14 36  1  0  0  0  0
 14 37  1  0  0  0  0
 14 38  1  0  0  0  0
 15 39  1  0  0  0  0
 15 40  1  0  0  0  0
 15 41  1  0  0  0  0
 18 20  1  0  0  0  0
 18 42  1  0  0  0  0
 19 21  2  0  0  0  0
 19 43  1  0  0  0  0
 20 22  2  0  0  0  0
 20 44  1  0  0  0  0
 21 22  1  0  0  0  0
 21 45  1  0  0  0  0
 22 46  1  0  0  0  0
 23 24  2  0  0  0  0
 23 25  1  0  0  0  0
 24 26  1  0  0  0  0
 24 47  1  0  0  0  0
 25 27  2  0  0  0  0
 25 48  1  0  0  0  0
 26 28  2  0  0  0  0
 26 49  1  0  0  0  0
 27 28  1  0  0  0  0
 27 50  1  0  0  0  0
M  CHG  2   5  -1   8   1
M  END
> <PUBCHEM_COMPOUND_CID>
111308

> <PUBCHEM_CONFORMER_RMSD>
1

> <PUBCHEM_CONFORMER_DIVERSEORDER>
1
176
34
170
201
130
9
68
199
185
4
92
100
61
235
192
12
214
149
85
229
164
20
91
181
177
74
114
212
19
29
194
33
43
22
48
159
64
230
69
50
35
200
101
70
77
180
171
25
88
206
26
221
113
7
196
208
65
40
184
178
111
38
72
129
220
228
11
73
98
188
134
215
124
211
42
147
213
145
86
120
36
174
237
207
30
128
189
10
79
23
216
115
232
138
234
141
109
219
105
39
137
186
150
160
223
191
133
117
62
127
83
106
136
71
144
90
154
140
183
37
205
204
112
103
27
108
67
53
80
46
187
227
209
123
155
172
222
82
32
2
169
45
151
165
119
41
217
102
175
8
107
56
14
24
104
15
202
99
193
135
190
143
96
6
218
162
131
182
97
161
195
51
224
152
132
54
44
231
142
153
226
84
156
3
157
21
197
78
18
58
210
116
125
87
89
55
47
63
163
81
236
94
166
75
5
167
121
13
57
203
146
110
66
179
139
225
233
31
173
148
16
118
95
122
52
198
59
168
158
17
60
49
76
126
28
93

> <PUBCHEM_MMFF94_PARTIAL_CHARGES>
35
1 -0.43
10 0.36
11 0.14
12 -0.14
16 0.66
17 0.78
18 -0.15
19 -0.15
2 -0.23
20 -0.15
21 -0.15
22 -0.15
23 0.08
24 -0.15
25 -0.15
26 -0.15
27 -0.15
28 0.13
3 -0.57
32 0.37
4 -0.57
42 0.15
43 0.15
44 0.15
45 0.15
46 0.15
47 0.15
48 0.15
49 0.15
5 -0.52
50 0.15
6 -0.52
7 -0.73
8 0.91
9 0.28

> <PUBCHEM_EFFECTIVE_ROTOR_COUNT>
10

> <PUBCHEM_PHARMACOPHORE_FEATURES>
9
1 3 acceptor
1 4 acceptor
1 5 acceptor
1 5 anion
1 6 acceptor
1 7 donor
4 9 13 14 15 hydrophobe
6 12 18 19 20 21 22 rings
6 23 24 25 26 27 28 rings

> <PUBCHEM_HEAVY_ATOM_COUNT>
28

> <PUBCHEM_ATOM_DEF_STEREO_COUNT>
1

> <PUBCHEM_ATOM_UDEF_STEREO_COUNT>
0

> <PUBCHEM_BOND_DEF_STEREO_COUNT>
0

> <PUBCHEM_BOND_UDEF_STEREO_COUNT>
0

> <PUBCHEM_ISOTOPIC_ATOM_COUNT>
0

> <PUBCHEM_COMPONENT_COUNT>
1

> <PUBCHEM_CACTVS_TAUTO_COUNT>
2

> <PUBCHEM_CONFORMER_ID>
0001B2CC00000001

> <PUBCHEM_MMFF94_ENERGY>
83.5261

> <PUBCHEM_FEATURE_SELFOVERLAP>
45.753

> <PUBCHEM_SHAPE_FINGERPRINT>
10190206 1 18340474677980380039
10369192 42 18335708213464570589
105312 117 18334017176885191013
10577160 183 18115006560167183442
11200772 48 18412829092570067710
11297750 10 17627222699869129907
11488393 25 18123479280754493547
12373685 5 18269255981571290506
12788726 201 18121481716902390611
12895837 130 18115315612886652916
13150687 139 18409728426693007311
13257819 101 17386560263831793455
13257819 37 18411133654425455519
13911987 19 18412539895501296849
14713325 29 18334860575851590739
14930077 153 18044377368776986493
15439362 3 18120938296122643765
15463212 79 18335974358932498251
15664445 248 17331118291950251035
15803439 3 18200297862776399383
167882 2 18194122915038070891
17899979 129 18049157770541714381
20511986 3 18260823813791318360
20771845 165 18262807237661653196
20775438 99 17196250404701559909
21033648 144 18041840602400159613
21344244 246 18127410055881995175
21756936 100 17530684342026105104
22121540 332 16880741947822443438
23559900 14 18060421365488443472
238 59 18197219144567225507
26353 1 17403726148512944175
32027 91 17843990086884634382
3298306 158 18336554797987772603
38695281 34 18339080380586349187
4015057 19 16988563549971953696
44249763 50 18266734856911702036
44802255 64 18334587862249071614
5085150 59 18131344216134627542
5283173 99 18341329006693496312
53917941 68 18410569626055200770
59755656 520 18342177769561618429
6669772 16 18270971149963035735

> <PUBCHEM_SHAPE_MULTIPOLES>
531.05
13.14
5.15
1.62
12.52
6.06
-0.15
-16.91
5.55
-4.37
2.03
-1.33
0.23
0.84

> <PUBCHEM_SHAPE_SELFOVERLAP>
1118.21

> <PUBCHEM_SHAPE_VOLUME>
296.6

> <PUBCHEM_COORDINATE_TYPE>
2
5
10

$$$$
