11144085
  -OEChem-03292013303D

 50 53  0     1  0  0  0  0  0999 V2000
   -3.0862   -3.4133    1.0613 O   0  0  0  0  0  0  0  0  0  0  0  0
   -4.4671   -2.7021   -0.7800 O   0  0  0  0  0  0  0  0  0  0  0  0
   -2.6770    1.8302   -2.3296 O   0  0  0  0  0  0  0  0  0  0  0  0
   -0.9372    3.2978    2.6960 O   0  0  0  0  0  0  0  0  0  0  0  0
   -2.7372    2.8977    1.3558 O   0  0  0  0  0  0  0  0  0  0  0  0
    2.9544   -0.2428   -2.5397 O   0  0  0  0  0  0  0  0  0  0  0  0
    4.1085   -1.0918    2.0304 O   0  0  0  0  0  0  0  0  0  0  0  0
    4.7869   -1.1158   -0.6543 O   0  0  0  0  0  0  0  0  0  0  0  0
   -0.3277    0.7066    0.9758 C   0  0  1  0  0  0  0  0  0  0  0  0
   -0.5253    2.2004    0.6540 C   0  0  1  0  0  0  0  0  0  0  0  0
   -1.4635   -0.1592    0.4552 C   0  0  0  0  0  0  0  0  0  0  0  0
    1.0487    0.2166    0.5367 C   0  0  0  0  0  0  0  0  0  0  0  0
   -2.2776    0.2495   -0.6288 C   0  0  0  0  0  0  0  0  0  0  0  0
   -1.0181    2.4547   -0.7383 C   0  0  0  0  0  0  0  0  0  0  0  0
   -2.0426    1.5419   -1.3211 C   0  0  0  0  0  0  0  0  0  0  0  0
   -1.6983   -1.4061    1.0657 C   0  0  0  0  0  0  0  0  0  0  0  0
   -1.5377    2.8233    1.5773 C   0  0  0  0  0  0  0  0  0  0  0  0
   -3.3159   -0.5735   -1.0941 C   0  0  0  0  0  0  0  0  0  0  0  0
   -2.7266   -2.1899    0.5863 C   0  0  0  0  0  0  0  0  0  0  0  0
   -3.5133   -1.7842   -0.4632 C   0  0  0  0  0  0  0  0  0  0  0  0
    1.9602   -0.2179    1.4916 C   0  0  0  0  0  0  0  0  0  0  0  0
    1.3779    0.2094   -0.8138 C   0  0  0  0  0  0  0  0  0  0  0  0
   -0.5673    3.4619   -1.5008 C   0  0  0  0  0  0  0  0  0  0  0  0
    2.6366   -0.2386   -1.2149 C   0  0  0  0  0  0  0  0  0  0  0  0
    3.2189   -0.6659    1.0908 C   0  0  0  0  0  0  0  0  0  0  0  0
    3.5571   -0.6764   -0.2626 C   0  0  0  0  0  0  0  0  0  0  0  0
   -4.1917   -3.7314    0.1918 C   0  0  0  0  0  0  0  0  0  0  0  0
    3.5591    0.9373   -3.0647 C   0  0  0  0  0  0  0  0  0  0  0  0
    4.9869   -0.1128    2.5820 C   0  0  0  0  0  0  0  0  0  0  0  0
    4.9150   -2.5058   -0.9448 C   0  0  0  0  0  0  0  0  0  0  0  0
   -0.3694    0.6211    2.0728 H   0  0  0  0  0  0  0  0  0  0  0  0
    0.4203    2.7414    0.8064 H   0  0  0  0  0  0  0  0  0  0  0  0
   -1.0881   -1.7467    1.8964 H   0  0  0  0  0  0  0  0  0  0  0  0
   -3.9527   -0.2843   -1.9236 H   0  0  0  0  0  0  0  0  0  0  0  0
    1.7040   -0.2139    2.5479 H   0  0  0  0  0  0  0  0  0  0  0  0
    0.6758    0.5246   -1.5776 H   0  0  0  0  0  0  0  0  0  0  0  0
    0.1830    4.1504   -1.1247 H   0  0  0  0  0  0  0  0  0  0  0  0
   -0.9206    3.6329   -2.5121 H   0  0  0  0  0  0  0  0  0  0  0  0
   -5.0876   -3.8847    0.8045 H   0  0  0  0  0  0  0  0  0  0  0  0
   -3.9642   -4.6633   -0.3386 H   0  0  0  0  0  0  0  0  0  0  0  0
   -1.5813    3.7088    3.3111 H   0  0  0  0  0  0  0  0  0  0  0  0
    2.8838    1.7926   -2.9606 H   0  0  0  0  0  0  0  0  0  0  0  0
    3.7585    0.7764   -4.1277 H   0  0  0  0  0  0  0  0  0  0  0  0
    4.5072    1.1430   -2.5579 H   0  0  0  0  0  0  0  0  0  0  0  0
    5.6095    0.3316    1.7990 H   0  0  0  0  0  0  0  0  0  0  0  0
    5.6382   -0.6071    3.3081 H   0  0  0  0  0  0  0  0  0  0  0  0
    4.4168    0.6670    3.0968 H   0  0  0  0  0  0  0  0  0  0  0  0
    4.6868   -3.1073   -0.0593 H   0  0  0  0  0  0  0  0  0  0  0  0
    5.9494   -2.6996   -1.2414 H   0  0  0  0  0  0  0  0  0  0  0  0
    4.2555   -2.7892   -1.7712 H   0  0  0  0  0  0  0  0  0  0  0  0
  1 19  1  0  0  0  0
  1 27  1  0  0  0  0
  2 20  1  0  0  0  0
  2 27  1  0  0  0  0
  3 15  2  0  0  0  0
  4 17  1  0  0  0  0
  4 41  1  0  0  0  0
  5 17  2  0  0  0  0
  6 24  1  0  0  0  0
  6 28  1  0  0  0  0
  7 25  1  0  0  0  0
  7 29  1  0  0  0  0
  8 26  1  0  0  0  0
  8 30  1  0  0  0  0
  9 10  1  0  0  0  0
  9 11  1  0  0  0  0
  9 12  1  0  0  0  0
  9 31  1  0  0  0  0
 10 14  1  0  0  0  0
 10 17  1  0  0  0  0
 10 32  1  0  0  0  0
 11 13  1  0  0  0  0
 11 16  2  0  0  0  0
 12 21  2  0  0  0  0
 12 22  1  0  0  0  0
 13 15  1  0  0  0  0
 13 18  2  0  0  0  0
 14 15  1  0  0  0  0
 14 23  2  0  0  0  0
 16 19  1  0  0  0  0
 16 33  1  0  0  0  0
 18 20  1  0  0  0  0
 18 34  1  0  0  0  0
 19 20  2  0  0  0  0
 21 25  1  0  0  0  0
 21 35  1  0  0  0  0
 22 24  2  0  0  0  0
 22 36  1  0  0  0  0
 23 37  1  0  0  0  0
 23 38  1  0  0  0  0
 24 26  1  0  0  0  0
 25 26  2  0  0  0  0
 27 39  1  0  0  0  0
 27 40  1  0  0  0  0
 28 42  1  0  0  0  0
 28 43  1  0  0  0  0
 28 44  1  0  0  0  0
 29 45  1  0  0  0  0
 29 46  1  0  0  0  0
 29 47  1  0  0  0  0
 30 48  1  0  0  0  0
 30 49  1  0  0  0  0
 30 50  1  0  0  0  0
M  END
> <PUBCHEM_COMPOUND_CID>
11144085

> <PUBCHEM_CONFORMER_RMSD>
0.8

> <PUBCHEM_CONFORMER_DIVERSEORDER>
1
5
8
6
4
3
7
2

> <PUBCHEM_MMFF94_PARTIAL_CHARGES>
37
1 -0.36
10 0.2
11 -0.14
12 -0.14
13 0.09
14 -0.12
15 0.47
16 -0.15
17 0.66
18 -0.15
19 0.08
2 -0.36
20 0.08
21 -0.15
22 -0.15
23 -0.3
24 0.08
25 0.08
26 0.08
27 0.56
28 0.28
29 0.28
3 -0.57
30 0.28
33 0.15
34 0.15
35 0.15
36 0.15
37 0.15
38 0.15
4 -0.65
41 0.5
5 -0.57
6 -0.36
7 -0.36
8 -0.36
9 0.29

> <PUBCHEM_EFFECTIVE_ROTOR_COUNT>
6

> <PUBCHEM_PHARMACOPHORE_FEATURES>
13
1 1 acceptor
1 2 acceptor
1 3 acceptor
1 4 acceptor
1 5 acceptor
1 6 acceptor
1 7 acceptor
1 8 acceptor
3 4 5 17 anion
5 1 2 19 20 27 rings
6 11 13 16 18 19 20 rings
6 12 21 22 24 25 26 rings
6 9 10 11 13 14 15 rings

> <PUBCHEM_HEAVY_ATOM_COUNT>
30

> <PUBCHEM_ATOM_DEF_STEREO_COUNT>
2

> <PUBCHEM_ATOM_UDEF_STEREO_COUNT>
0

> <PUBCHEM_BOND_DEF_STEREO_COUNT>
0

> <PUBCHEM_BOND_UDEF_STEREO_COUNT>
0

> <PUBCHEM_ISOTOPIC_ATOM_COUNT>
0

> <PUBCHEM_COMPONENT_COUNT>
1

> <PUBCHEM_CACTVS_TAUTO_COUNT>
1

> <PUBCHEM_CONFORMER_ID>
00AA0B9500000001

> <PUBCHEM_MMFF94_ENERGY>
114.6965

> <PUBCHEM_FEATURE_SELFOVERLAP>
66.22

> <PUBCHEM_SHAPE_FINGERPRINT>
10721379 63 17899424374426676629
10764073 3 15621491119274641451
11578080 2 16701756981027253568
12160290 23 18265347122443432881
12363563 72 18270679886824279419
12549972 3 17273422656053665866
12553582 1 18188215398091865307
12788726 201 18268455510666611329
13135754 10 17487928677149565161
13583140 156 18055890162174683538
17349148 13 17385433303025902058
1813 80 17916317210777401439
20600515 1 18338220652856735265
20775438 99 17111555148204983639
2132832 1 17386271173846489364
22440779 20 16841401567835658020
23419403 2 17909512337624147441
23557571 272 18340473526353851992
23559900 14 18267567041179123026
3004659 81 18040432234925662230
3380486 145 17630301220678352094
463206 1 18338791346552723979
4921388 177 18198630938607869668
495365 180 7996323086708039827
59755656 520 17981609264882764657
6786 2 17048848445499348993
81228 2 18340494374183343425

> <PUBCHEM_SHAPE_MULTIPOLES>
570.43
8.97
4.12
2.55
7.27
0.36
-0.16
-8.56
-0.79
-5.45
0.57
2.48
1.5
-0.39

> <PUBCHEM_SHAPE_SELFOVERLAP>
1261.374

> <PUBCHEM_SHAPE_VOLUME>
305

> <PUBCHEM_COORDINATE_TYPE>
2
5
10

$$$$
