11141421
  -OEChem-03292013303D

 40 43  0     1  0  0  0  0  0999 V2000
   -0.8931    2.2655    0.6163 O   0  0  0  0  0  0  0  0  0  0  0  0
    0.9450   -1.8234    0.9059 O   0  0  0  0  0  0  0  0  0  0  0  0
    2.5447   -0.2305   -1.3240 O   0  0  0  0  0  0  0  0  0  0  0  0
    1.9008    1.6228    1.5139 O   0  0  0  0  0  0  0  0  0  0  0  0
   -1.6063   -1.6034   -1.5576 O   0  0  0  0  0  0  0  0  0  0  0  0
    3.8299   -0.1798    0.5721 O   0  0  0  0  0  0  0  0  0  0  0  0
    0.4016   -3.2399   -0.7504 O   0  0  0  0  0  0  0  0  0  0  0  0
   -0.7762    1.1241   -0.3039 C   0  0  2  0  0  0  0  0  0  0  0  0
   -1.3470   -0.1415    0.4309 C   0  0  2  0  0  0  0  0  0  0  0  0
    0.7420    1.1060   -0.6001 C   0  0  1  0  0  0  0  0  0  0  0  0
    1.5108    0.5724    0.6396 C   0  0  2  0  0  0  0  0  0  0  0  0
   -0.6711   -0.2326    1.7991 C   0  0  0  0  0  0  0  0  0  0  0  0
    0.8084   -0.5156    1.5070 C   0  0  1  0  0  0  0  0  0  0  0  0
   -1.7813    1.4003   -1.4272 C   0  0  0  0  0  0  0  0  0  0  0  0
   -1.2238   -1.5606   -0.1917 C   0  0  2  0  0  0  0  0  0  0  0  0
   -2.8246    0.2296    0.3523 C   0  0  0  0  0  0  0  0  0  0  0  0
    1.2224    0.1817   -1.7133 C   0  0  0  0  0  0  0  0  0  0  0  0
    1.2381    2.5324   -1.0048 C   0  0  0  0  0  0  0  0  0  0  0  0
   -3.0573    1.0136   -0.7179 C   0  0  0  0  0  0  0  0  0  0  0  0
    2.7686    0.0251    0.0025 C   0  0  0  0  0  0  0  0  0  0  0  0
    0.1108   -2.2667   -0.0583 C   0  0  0  0  0  0  0  0  0  0  0  0
   -3.8423   -0.2799    1.3095 C   0  0  0  0  0  0  0  0  0  0  0  0
   -1.1003   -1.0631    2.3758 H   0  0  0  0  0  0  0  0  0  0  0  0
   -0.8007    0.6595    2.4187 H   0  0  0  0  0  0  0  0  0  0  0  0
    1.3205   -0.5930    2.4741 H   0  0  0  0  0  0  0  0  0  0  0  0
   -1.6274    0.7986   -2.3258 H   0  0  0  0  0  0  0  0  0  0  0  0
   -1.8121    2.4612   -1.6954 H   0  0  0  0  0  0  0  0  0  0  0  0
   -1.9197   -2.2235    0.3428 H   0  0  0  0  0  0  0  0  0  0  0  0
    0.6261   -0.7064   -1.8874 H   0  0  0  0  0  0  0  0  0  0  0  0
    1.2964    0.6912   -2.6807 H   0  0  0  0  0  0  0  0  0  0  0  0
    2.3081    2.5323   -1.2448 H   0  0  0  0  0  0  0  0  0  0  0  0
    0.7062    2.8879   -1.8948 H   0  0  0  0  0  0  0  0  0  0  0  0
    1.0964    3.2804   -0.2185 H   0  0  0  0  0  0  0  0  0  0  0  0
   -4.0317    1.3710   -1.0192 H   0  0  0  0  0  0  0  0  0  0  0  0
   -0.1961    2.2213    1.2900 H   0  0  0  0  0  0  0  0  0  0  0  0
    2.4513    1.2472    2.2218 H   0  0  0  0  0  0  0  0  0  0  0  0
   -3.6096    0.0529    2.3258 H   0  0  0  0  0  0  0  0  0  0  0  0
   -3.8770   -1.3729    1.3012 H   0  0  0  0  0  0  0  0  0  0  0  0
   -4.8438    0.0865    1.0610 H   0  0  0  0  0  0  0  0  0  0  0  0
   -1.7049   -2.5375   -1.8095 H   0  0  0  0  0  0  0  0  0  0  0  0
  1  8  1  0  0  0  0
  1 35  1  0  0  0  0
  2 13  1  0  0  0  0
  2 21  1  0  0  0  0
  3 17  1  0  0  0  0
  3 20  1  0  0  0  0
  4 11  1  0  0  0  0
  4 36  1  0  0  0  0
  5 15  1  0  0  0  0
  5 40  1  0  0  0  0
  6 20  2  0  0  0  0
  7 21  2  0  0  0  0
  8  9  1  0  0  0  0
  8 10  1  0  0  0  0
  8 14  1  0  0  0  0
  9 12  1  0  0  0  0
  9 15  1  0  0  0  0
  9 16  1  0  0  0  0
 10 11  1  0  0  0  0
 10 17  1  0  0  0  0
 10 18  1  0  0  0  0
 11 13  1  0  0  0  0
 11 20  1  0  0  0  0
 12 13  1  0  0  0  0
 12 23  1  0  0  0  0
 12 24  1  0  0  0  0
 13 25  1  0  0  0  0
 14 19  1  0  0  0  0
 14 26  1  0  0  0  0
 14 27  1  0  0  0  0
 15 21  1  0  0  0  0
 15 28  1  0  0  0  0
 16 19  2  0  0  0  0
 16 22  1  0  0  0  0
 17 29  1  0  0  0  0
 17 30  1  0  0  0  0
 18 31  1  0  0  0  0
 18 32  1  0  0  0  0
 18 33  1  0  0  0  0
 19 34  1  0  0  0  0
 22 37  1  0  0  0  0
 22 38  1  0  0  0  0
 22 39  1  0  0  0  0
M  END
> <PUBCHEM_COMPOUND_CID>
11141421

> <PUBCHEM_CONFORMER_RMSD>
0.6

> <PUBCHEM_CONFORMER_DIVERSEORDER>
1

> <PUBCHEM_MMFF94_PARTIAL_CHARGES>
23
1 -0.68
11 0.34
13 0.28
14 0.14
15 0.34
16 -0.28
17 0.28
19 -0.29
2 -0.43
20 0.66
21 0.66
22 0.14
3 -0.43
34 0.15
35 0.4
36 0.4
4 -0.68
40 0.4
5 -0.68
6 -0.57
7 -0.57
8 0.28
9 0.14

> <PUBCHEM_EFFECTIVE_ROTOR_COUNT>
1.2

> <PUBCHEM_PHARMACOPHORE_FEATURES>
12
1 1 acceptor
1 1 donor
1 4 acceptor
1 4 donor
1 5 acceptor
1 5 donor
1 6 acceptor
1 7 acceptor
5 3 10 11 17 20 rings
5 8 9 14 16 19 rings
6 2 9 12 13 15 21 rings
6 8 9 10 11 12 13 rings

> <PUBCHEM_HEAVY_ATOM_COUNT>
22

> <PUBCHEM_ATOM_DEF_STEREO_COUNT>
6

> <PUBCHEM_ATOM_UDEF_STEREO_COUNT>
0

> <PUBCHEM_BOND_DEF_STEREO_COUNT>
0

> <PUBCHEM_BOND_UDEF_STEREO_COUNT>
0

> <PUBCHEM_ISOTOPIC_ATOM_COUNT>
0

> <PUBCHEM_COMPONENT_COUNT>
1

> <PUBCHEM_CACTVS_TAUTO_COUNT>
1

> <PUBCHEM_CONFORMER_ID>
00AA012D00000001

> <PUBCHEM_MMFF94_ENERGY>
92.0948

> <PUBCHEM_FEATURE_SELFOVERLAP>
62.385

> <PUBCHEM_SHAPE_FINGERPRINT>
10863032 1 17096076966231176104
10948715 1 18115018598237827332
12423570 1 12746952211593234491
12654903 92 18338525234477708980
12808571 1 17313393330621630062
13027679 85 17045703738990543142
13140716 1 18264777725696523385
13172582 1 18336267933021797161
13581323 91 18272090530061445617
141345 1 12785511405758753142
144361 1 17969223334814268144
15775835 57 18410572885745448434
15881359 60 18266480851775170219
1601671 61 18261963925476476173
16945 1 18263948582217942689
18981168 100 14997388729654837956
20511035 2 17678756736779701748
20905425 154 17825380786956813030
21501502 16 18054789752265746204
2334 1 18049165763174391925
23419403 2 17760090618268642871
23493267 7 17532364279871388521
23559900 14 18272931640405583192
2748010 2 18190186878311588505
296302 2 17632580478460683464
3060560 45 18340474591532212559
465052 167 17677914485741436139
81228 2 17762324113132315531
90525 40 18260551116841634565

> <PUBCHEM_SHAPE_MULTIPOLES>
411.66
4.31
2.48
1.62
0.75
0.62
0.05
-0.46
0.62
-0.21
-0.7
-0.02
0.07
0.15

> <PUBCHEM_SHAPE_SELFOVERLAP>
924.413

> <PUBCHEM_SHAPE_VOLUME>
215.9

> <PUBCHEM_COORDINATE_TYPE>
2
5
10

$$$$
