11154476
  -OEChem-03292013303D

 54 59  0     1  0  0  0  0  0999 V2000
    0.7669    0.1408    1.4748 O   0  0  0  0  0  0  0  0  0  0  0  0
   -0.4739    2.7171   -0.3337 O   0  0  0  0  0  0  0  0  0  0  0  0
    0.3448   -2.1438    1.0169 O   0  0  0  0  0  0  0  0  0  0  0  0
    2.6275   -1.3650   -0.6486 O   0  0  0  0  0  0  0  0  0  0  0  0
    2.6154    2.1547   -0.9776 O   0  0  0  0  0  0  0  0  0  0  0  0
   -3.1353    2.4193   -0.8224 O   0  0  0  0  0  0  0  0  0  0  0  0
   -1.7334   -1.8902   -1.8402 O   0  0  0  0  0  0  0  0  0  0  0  0
    0.7873    3.0082    1.5521 O   0  0  0  0  0  0  0  0  0  0  0  0
    0.0901   -3.7652   -0.5874 O   0  0  0  0  0  0  0  0  0  0  0  0
    3.9375   -1.8430    1.1699 O   0  0  0  0  0  0  0  0  0  0  0  0
   -0.0643    0.3945   -0.7540 C   0  0  2  0  0  0  0  0  0  0  0  0
   -1.0482   -0.4976    0.0573 C   0  0  2  0  0  0  0  0  0  0  0  0
    0.9009    0.9306    0.2996 C   0  0  2  0  0  0  0  0  0  0  0  0
   -0.8532    1.6323   -1.2023 C   0  0  1  0  0  0  0  0  0  0  0  0
   -2.2480    0.4495    0.3412 C   0  0  1  0  0  0  0  0  0  0  0  0
    2.3156    0.9307   -0.3219 C   0  0  1  0  0  0  0  0  0  0  0  0
    0.8202   -0.2227   -1.8544 C   0  0  0  0  0  0  0  0  0  0  0  0
   -0.2399   -0.8583    1.2897 C   0  0  2  0  0  0  0  0  0  0  0  0
   -2.3146    1.2735   -0.9474 C   0  0  1  0  0  0  0  0  0  0  0  0
    2.2616   -0.1783   -1.3512 C   0  0  2  0  0  0  0  0  0  0  0  0
   -1.4354   -1.8729   -0.4722 C   0  0  2  0  0  0  0  0  0  0  0  0
    0.4207    2.3199    0.6122 C   0  0  0  0  0  0  0  0  0  0  0  0
   -3.5886   -0.1898    0.6856 C   0  0  0  0  0  0  0  0  0  0  0  0
    3.4393    0.4699    0.6023 C   0  0  1  0  0  0  0  0  0  0  0  0
   -0.2614   -2.7201   -0.0646 C   0  0  0  0  0  0  0  0  0  0  0  0
    3.3839   -1.0321    0.4428 C   0  0  0  0  0  0  0  0  0  0  0  0
   -4.6617    0.9015    0.8478 C   0  0  0  0  0  0  0  0  0  0  0  0
   -4.0141   -1.1506   -0.4390 C   0  0  0  0  0  0  0  0  0  0  0  0
   -3.4693   -0.9776    2.0023 C   0  0  0  0  0  0  0  0  0  0  0  0
    4.8298    0.9648    0.2224 C   0  0  0  0  0  0  0  0  0  0  0  0
   -0.6845    1.9551   -2.2335 H   0  0  0  0  0  0  0  0  0  0  0  0
   -1.9923    1.1204    1.1750 H   0  0  0  0  0  0  0  0  0  0  0  0
    0.7497    0.3760   -2.7700 H   0  0  0  0  0  0  0  0  0  0  0  0
    0.5717   -1.2474   -2.1279 H   0  0  0  0  0  0  0  0  0  0  0  0
   -0.8051   -0.9405    2.2194 H   0  0  0  0  0  0  0  0  0  0  0  0
   -2.6737    0.7136   -1.8114 H   0  0  0  0  0  0  0  0  0  0  0  0
    2.9547   -0.0455   -2.1902 H   0  0  0  0  0  0  0  0  0  0  0  0
   -2.1843   -2.4107    0.0941 H   0  0  0  0  0  0  0  0  0  0  0  0
    3.2263    0.7365    1.6426 H   0  0  0  0  0  0  0  0  0  0  0  0
    1.9415    2.3122   -1.6604 H   0  0  0  0  0  0  0  0  0  0  0  0
   -2.7569    2.9825   -0.1259 H   0  0  0  0  0  0  0  0  0  0  0  0
   -4.3085    1.7317    1.4694 H   0  0  0  0  0  0  0  0  0  0  0  0
   -5.5490    0.4927    1.3481 H   0  0  0  0  0  0  0  0  0  0  0  0
   -5.0240    1.2910   -0.1084 H   0  0  0  0  0  0  0  0  0  0  0  0
   -3.9423   -2.2192   -0.2249 H   0  0  0  0  0  0  0  0  0  0  0  0
   -3.7175   -0.9015   -1.4537 H   0  0  0  0  0  0  0  0  0  0  0  0
   -5.1118   -1.0695   -0.5184 H   0  0  0  0  0  0  0  0  0  0  0  0
   -2.8044   -1.8407    1.9594 H   0  0  0  0  0  0  0  0  0  0  0  0
   -4.4498   -1.3685    2.3013 H   0  0  0  0  0  0  0  0  0  0  0  0
   -3.1250   -0.3278    2.8152 H   0  0  0  0  0  0  0  0  0  0  0  0
    5.5892    0.5163    0.8723 H   0  0  0  0  0  0  0  0  0  0  0  0
    5.0880    0.6991   -0.8087 H   0  0  0  0  0  0  0  0  0  0  0  0
    4.9012    2.0521    0.3268 H   0  0  0  0  0  0  0  0  0  0  0  0
   -1.4471   -1.0712   -2.2699 H   0  0  0  0  0  0  0  0  0  0  0  0
  1 13  1  0  0  0  0
  1 18  1  0  0  0  0
  2 14  1  0  0  0  0
  2 22  1  0  0  0  0
  3 18  1  0  0  0  0
  3 25  1  0  0  0  0
  4 20  1  0  0  0  0
  4 26  1  0  0  0  0
  5 16  1  0  0  0  0
  5 40  1  0  0  0  0
  6 19  1  0  0  0  0
  6 41  1  0  0  0  0
  7 21  1  0  0  0  0
  7 54  1  0  0  0  0
  8 22  2  0  0  0  0
  9 25  2  0  0  0  0
 10 26  2  0  0  0  0
 11 12  1  0  0  0  0
 11 13  1  0  0  0  0
 11 14  1  0  0  0  0
 11 17  1  0  0  0  0
 12 15  1  0  0  0  0
 12 18  1  0  0  0  0
 12 21  1  0  0  0  0
 13 16  1  0  0  0  0
 13 22  1  0  0  0  0
 14 19  1  0  0  0  0
 14 31  1  0  0  0  0
 15 19  1  0  0  0  0
 15 23  1  0  0  0  0
 15 32  1  0  0  0  0
 16 20  1  0  0  0  0
 16 24  1  0  0  0  0
 17 20  1  0  0  0  0
 17 33  1  0  0  0  0
 17 34  1  0  0  0  0
 18 35  1  0  0  0  0
 19 36  1  0  0  0  0
 20 37  1  0  0  0  0
 21 25  1  0  0  0  0
 21 38  1  0  0  0  0
 23 27  1  0  0  0  0
 23 28  1  0  0  0  0
 23 29  1  0  0  0  0
 24 26  1  0  0  0  0
 24 30  1  0  0  0  0
 24 39  1  0  0  0  0
 27 42  1  0  0  0  0
 27 43  1  0  0  0  0
 27 44  1  0  0  0  0
 28 45  1  0  0  0  0
 28 46  1  0  0  0  0
 28 47  1  0  0  0  0
 29 48  1  0  0  0  0
 29 49  1  0  0  0  0
 29 50  1  0  0  0  0
 30 51  1  0  0  0  0
 30 52  1  0  0  0  0
 30 53  1  0  0  0  0
M  END
> <PUBCHEM_COMPOUND_CID>
11154476

> <PUBCHEM_CONFORMER_RMSD>
0.8

> <PUBCHEM_CONFORMER_DIVERSEORDER>
1

> <PUBCHEM_MMFF94_PARTIAL_CHARGES>
24
1 -0.56
10 -0.57
13 0.34
14 0.28
16 0.28
18 0.56
19 0.28
2 -0.43
20 0.28
21 0.34
22 0.66
24 0.06
25 0.66
26 0.66
3 -0.43
4 -0.43
40 0.4
41 0.4
5 -0.68
54 0.4
6 -0.68
7 -0.68
8 -0.57
9 -0.57

> <PUBCHEM_EFFECTIVE_ROTOR_COUNT>
2.8

> <PUBCHEM_PHARMACOPHORE_FEATURES>
17
1 1 acceptor
1 10 acceptor
1 5 acceptor
1 5 donor
1 6 acceptor
1 6 donor
1 7 acceptor
1 7 donor
1 8 acceptor
1 9 acceptor
4 23 27 28 29 hydrophobe
5 1 11 12 13 18 rings
5 11 12 14 15 19 rings
5 11 13 16 17 20 rings
5 2 11 13 14 22 rings
5 3 12 18 21 25 rings
5 4 16 20 24 26 rings

> <PUBCHEM_HEAVY_ATOM_COUNT>
30

> <PUBCHEM_ATOM_DEF_STEREO_COUNT>
11

> <PUBCHEM_ATOM_UDEF_STEREO_COUNT>
0

> <PUBCHEM_BOND_DEF_STEREO_COUNT>
0

> <PUBCHEM_BOND_UDEF_STEREO_COUNT>
0

> <PUBCHEM_ISOTOPIC_ATOM_COUNT>
0

> <PUBCHEM_COMPONENT_COUNT>
1

> <PUBCHEM_CACTVS_TAUTO_COUNT>
6

> <PUBCHEM_CONFORMER_ID>
00AA342C00000001

> <PUBCHEM_MMFF94_ENERGY>
150.2742

> <PUBCHEM_FEATURE_SELFOVERLAP>
89.67

> <PUBCHEM_SHAPE_FINGERPRINT>
10863032 1 18187642440906406636
10948715 1 18201159952743131028
11578080 2 14043187184105416186
11680986 33 17832425298016530863
12035758 1 18340771562561082040
12035759 4 18197189573833483159
12403814 3 18335982051477277557
12422481 6 18047192947245804337
12553582 1 18337388374209972316
12592029 89 18339086982252042979
12633257 1 18129108985755468609
12788726 201 18271819973472357184
13140716 1 18336549300408411528
13224815 77 18259987067671938759
14223421 5 18049163271940353477
14787075 74 18336264638850621840
14790565 3 18412272717806180385
1601671 61 18339649923815807929
16945 1 18122901198855282260
17349148 13 17346598603434630375
19591789 44 18409444799916601355
20028762 73 17986679379730109111
20691752 17 18118668057750463271
20905425 154 18048040675201153703
23184049 59 18409457989650306763
2334 1 18409449214842190980
23419403 2 15735635745927348385
23559900 14 18341331077400450662
2748010 2 18334283284532648773
296302 2 17346885567458653634
350125 39 18197501929566853803
4340502 62 17632026260792953491
5265222 85 18337122237268500830

> <PUBCHEM_SHAPE_MULTIPOLES>
558.69
6.74
3.09
1.54
0.25
0.54
0
-0.38
-1.62
-0.03
0.14
-0.31
0.1
-0.01

> <PUBCHEM_SHAPE_SELFOVERLAP>
1282.866

> <PUBCHEM_SHAPE_VOLUME>
293.2

> <PUBCHEM_COORDINATE_TYPE>
2
5
10

$$$$
