11155437
  -OEChem-03292013303D

 68 70  0     1  0  0  0  0  0999 V2000
    3.2020    4.6646    0.8767 O   0  0  0  0  0  0  0  0  0  0  0  0
    1.2464   -0.1480    2.2185 O   0  0  0  0  0  0  0  0  0  0  0  0
    3.6472   -2.5740    0.1680 O   0  0  0  0  0  0  0  0  0  0  0  0
   -0.0116    0.3335   -1.7627 O   0  0  0  0  0  0  0  0  0  0  0  0
   -2.2879    1.6789   -1.8833 O   0  0  0  0  0  0  0  0  0  0  0  0
   -8.2840    1.6733    0.9039 O   0  0  0  0  0  0  0  0  0  0  0  0
    2.6586   -0.1335    0.3855 N   0  0  0  0  0  0  0  0  0  0  0  0
    4.0485   -2.4313   -2.0931 N   0  0  0  0  0  0  0  0  0  0  0  0
   -0.5945   -0.7749    0.1963 N   0  0  0  0  0  0  0  0  0  0  0  0
    4.7967    0.7944   -0.0066 C   0  0  1  0  0  0  0  0  0  0  0  0
    3.5678    0.8972    0.9100 C   0  0  1  0  0  0  0  0  0  0  0  0
    4.1688    0.4230   -1.3584 C   0  0  0  0  0  0  0  0  0  0  0  0
    3.0577   -0.5502   -0.9604 C   0  0  1  0  0  0  0  0  0  0  0  0
    5.6991    2.0242   -0.0374 C   0  0  0  0  0  0  0  0  0  0  0  0
    2.8909    2.2761    0.8738 C   0  0  0  0  0  0  0  0  0  0  0  0
    3.8874    3.4225    0.9989 C   0  0  1  0  0  0  0  0  0  0  0  0
    4.9415    3.3428   -0.0983 C   0  0  0  0  0  0  0  0  0  0  0  0
    1.5285   -0.5362    1.0828 C   0  0  0  0  0  0  0  0  0  0  0  0
    3.6007   -1.9464   -0.8870 C   0  0  0  0  0  0  0  0  0  0  0  0
    0.6222   -1.5113    0.3743 C   0  0  1  0  0  0  0  0  0  0  0  0
    0.4385   -2.7679    1.2166 C   0  0  0  0  0  0  0  0  0  0  0  0
    0.0196   -4.0131    0.4091 C   0  0  0  0  0  0  0  0  0  0  0  0
   -0.8190    0.0973   -0.8667 C   0  0  0  0  0  0  0  0  0  0  0  0
   -1.3097   -3.8153   -0.3205 C   0  0  0  0  0  0  0  0  0  0  0  0
   -0.0792   -5.2243    1.3408 C   0  0  0  0  0  0  0  0  0  0  0  0
   -2.1885    0.7619   -0.8031 C   0  0  2  0  0  0  0  0  0  0  0  0
   -3.3005   -0.2840   -0.9339 C   0  0  0  0  0  0  0  0  0  0  0  0
   -4.6298    0.2378   -0.4432 C   0  0  0  0  0  0  0  0  0  0  0  0
   -4.9937    0.0741    0.8934 C   0  0  0  0  0  0  0  0  0  0  0  0
   -5.4940    0.8839   -1.3272 C   0  0  0  0  0  0  0  0  0  0  0  0
   -6.2217    0.5564    1.3460 C   0  0  0  0  0  0  0  0  0  0  0  0
   -6.7221    1.3662   -0.8747 C   0  0  0  0  0  0  0  0  0  0  0  0
   -7.0860    1.2023    0.4619 C   0  0  0  0  0  0  0  0  0  0  0  0
    5.4075   -0.0606    0.3176 H   0  0  0  0  0  0  0  0  0  0  0  0
    3.8316    0.6512    1.9456 H   0  0  0  0  0  0  0  0  0  0  0  0
    3.7267    1.3073   -1.8330 H   0  0  0  0  0  0  0  0  0  0  0  0
    4.9139    0.0176   -2.0492 H   0  0  0  0  0  0  0  0  0  0  0  0
    2.2326   -0.5125   -1.6714 H   0  0  0  0  0  0  0  0  0  0  0  0
    6.3105    2.0241    0.8744 H   0  0  0  0  0  0  0  0  0  0  0  0
    6.3980    1.9589   -0.8793 H   0  0  0  0  0  0  0  0  0  0  0  0
    2.1431    2.3500    1.6735 H   0  0  0  0  0  0  0  0  0  0  0  0
    2.3141    2.3997   -0.0537 H   0  0  0  0  0  0  0  0  0  0  0  0
    4.3697    3.4009    1.9832 H   0  0  0  0  0  0  0  0  0  0  0  0
    4.4711    3.4693   -1.0815 H   0  0  0  0  0  0  0  0  0  0  0  0
    5.6426    4.1807   -0.0001 H   0  0  0  0  0  0  0  0  0  0  0  0
    0.9826   -1.7950   -0.6126 H   0  0  0  0  0  0  0  0  0  0  0  0
    2.5347    4.7015    1.5831 H   0  0  0  0  0  0  0  0  0  0  0  0
    1.3856   -3.0055    1.7198 H   0  0  0  0  0  0  0  0  0  0  0  0
   -0.2898   -2.5882    2.0192 H   0  0  0  0  0  0  0  0  0  0  0  0
    4.4455   -3.3623   -2.1648 H   0  0  0  0  0  0  0  0  0  0  0  0
    3.9796   -1.8997   -2.9550 H   0  0  0  0  0  0  0  0  0  0  0  0
   -1.2925   -0.8280    0.9330 H   0  0  0  0  0  0  0  0  0  0  0  0
    0.7944   -4.2257   -0.3384 H   0  0  0  0  0  0  0  0  0  0  0  0
   -1.6310   -4.7471   -0.7989 H   0  0  0  0  0  0  0  0  0  0  0  0
   -1.2232   -3.0662   -1.1128 H   0  0  0  0  0  0  0  0  0  0  0  0
   -2.1004   -3.5029    0.3697 H   0  0  0  0  0  0  0  0  0  0  0  0
    0.8749   -5.4046    1.8473 H   0  0  0  0  0  0  0  0  0  0  0  0
   -0.3325   -6.1289    0.7777 H   0  0  0  0  0  0  0  0  0  0  0  0
   -0.8479   -5.0755    2.1069 H   0  0  0  0  0  0  0  0  0  0  0  0
   -2.2552    1.3252    0.1345 H   0  0  0  0  0  0  0  0  0  0  0  0
   -3.0733   -1.1973   -0.3721 H   0  0  0  0  0  0  0  0  0  0  0  0
   -3.4068   -0.6064   -1.9784 H   0  0  0  0  0  0  0  0  0  0  0  0
   -2.2603    1.1748   -2.7144 H   0  0  0  0  0  0  0  0  0  0  0  0
   -4.3276   -0.4255    1.5919 H   0  0  0  0  0  0  0  0  0  0  0  0
   -5.2218    1.0182   -2.3707 H   0  0  0  0  0  0  0  0  0  0  0  0
   -6.4994    0.4264    2.3884 H   0  0  0  0  0  0  0  0  0  0  0  0
   -7.3863    1.8680   -1.5732 H   0  0  0  0  0  0  0  0  0  0  0  0
   -8.7520    2.0907    0.1604 H   0  0  0  0  0  0  0  0  0  0  0  0
  1 16  1  0  0  0  0
  1 47  1  0  0  0  0
  2 18  2  0  0  0  0
  3 19  2  0  0  0  0
  4 23  2  0  0  0  0
  5 26  1  0  0  0  0
  5 63  1  0  0  0  0
  6 33  1  0  0  0  0
  6 68  1  0  0  0  0
  7 11  1  0  0  0  0
  7 13  1  0  0  0  0
  7 18  1  0  0  0  0
  8 19  1  0  0  0  0
  8 50  1  0  0  0  0
  8 51  1  0  0  0  0
  9 20  1  0  0  0  0
  9 23  1  0  0  0  0
  9 52  1  0  0  0  0
 10 11  1  0  0  0  0
 10 12  1  0  0  0  0
 10 14  1  0  0  0  0
 10 34  1  0  0  0  0
 11 15  1  0  0  0  0
 11 35  1  0  0  0  0
 12 13  1  0  0  0  0
 12 36  1  0  0  0  0
 12 37  1  0  0  0  0
 13 19  1  0  0  0  0
 13 38  1  0  0  0  0
 14 17  1  0  0  0  0
 14 39  1  0  0  0  0
 14 40  1  0  0  0  0
 15 16  1  0  0  0  0
 15 41  1  0  0  0  0
 15 42  1  0  0  0  0
 16 17  1  0  0  0  0
 16 43  1  0  0  0  0
 17 44  1  0  0  0  0
 17 45  1  0  0  0  0
 18 20  1  0  0  0  0
 20 21  1  0  0  0  0
 20 46  1  0  0  0  0
 21 22  1  0  0  0  0
 21 48  1  0  0  0  0
 21 49  1  0  0  0  0
 22 24  1  0  0  0  0
 22 25  1  0  0  0  0
 22 53  1  0  0  0  0
 23 26  1  0  0  0  0
 24 54  1  0  0  0  0
 24 55  1  0  0  0  0
 24 56  1  0  0  0  0
 25 57  1  0  0  0  0
 25 58  1  0  0  0  0
 25 59  1  0  0  0  0
 26 27  1  0  0  0  0
 26 60  1  0  0  0  0
 27 28  1  0  0  0  0
 27 61  1  0  0  0  0
 27 62  1  0  0  0  0
 28 29  2  0  0  0  0
 28 30  1  0  0  0  0
 29 31  1  0  0  0  0
 29 64  1  0  0  0  0
 30 32  2  0  0  0  0
 30 65  1  0  0  0  0
 31 33  2  0  0  0  0
 31 66  1  0  0  0  0
 32 33  1  0  0  0  0
 32 67  1  0  0  0  0
M  END
> <PUBCHEM_COMPOUND_CID>
11155437

> <PUBCHEM_CONFORMER_RMSD>
1.2

> <PUBCHEM_CONFORMER_DIVERSEORDER>
1
11
40
91
8
60
14
27
84
20
43
61
87
18
65
83
26
38
85
48
36
73
35
54
47
72
63
71
17
64
86
62
3
45
37
68
50
82
69
12
77
59
52
49
53
28
29
22
90
89
41
88
19
44
21
79
78
51
57
74
32
5
76
25
39
67
75
58
80
70
15
24
6
34
46
10
66
13
56
4
55
93
42
2
7
81
31
16
92
30
9
23
33

> <PUBCHEM_MMFF94_PARTIAL_CHARGES>
34
1 -0.68
11 0.3
13 0.36
16 0.28
18 0.57
19 0.57
2 -0.57
20 0.36
23 0.57
26 0.34
27 0.14
28 -0.14
29 -0.15
3 -0.57
30 -0.15
31 -0.15
32 -0.15
33 0.08
4 -0.57
47 0.4
5 -0.68
50 0.37
51 0.37
52 0.37
6 -0.53
63 0.4
64 0.15
65 0.15
66 0.15
67 0.15
68 0.45
7 -0.66
8 -0.8
9 -0.73

> <PUBCHEM_EFFECTIVE_ROTOR_COUNT>
11.4

> <PUBCHEM_PHARMACOPHORE_FEATURES>
14
1 1 acceptor
1 1 donor
1 2 acceptor
1 3 acceptor
1 4 acceptor
1 5 acceptor
1 5 donor
1 6 donor
1 8 donor
1 9 donor
3 22 24 25 hydrophobe
5 7 10 11 12 13 rings
6 10 11 14 15 16 17 rings
6 28 29 30 31 32 33 rings

> <PUBCHEM_HEAVY_ATOM_COUNT>
33

> <PUBCHEM_ATOM_DEF_STEREO_COUNT>
6

> <PUBCHEM_ATOM_UDEF_STEREO_COUNT>
0

> <PUBCHEM_BOND_DEF_STEREO_COUNT>
0

> <PUBCHEM_BOND_UDEF_STEREO_COUNT>
0

> <PUBCHEM_ISOTOPIC_ATOM_COUNT>
0

> <PUBCHEM_COMPONENT_COUNT>
1

> <PUBCHEM_CACTVS_TAUTO_COUNT>
8

> <PUBCHEM_CONFORMER_ID>
00AA37ED00000001

> <PUBCHEM_MMFF94_ENERGY>
79.4029

> <PUBCHEM_FEATURE_SELFOVERLAP>
71.207

> <PUBCHEM_SHAPE_FINGERPRINT>
10165383 225 18260555524200786404
10675989 125 18342176635579625594
10816530 23 18126844026372958786
11115154 58 17060349474396060904
11578080 2 18265909127826003358
12596602 18 18273217491848557915
12730499 353 18408889546702609162
13383665 225 17682132302576834524
13955234 65 18190173495336419619
14068700 686 17968652710419519133
146900 427 18408321060620869449
14790565 3 18409722985159139045
15183329 4 15195568988034162097
15968369 153 17688321491989579411
16114785 44 18193276527619491635
19309040 13 18058168517049026132
19319366 153 18340760460377050443
1979834 28 17968381156753315015
21033648 29 18335980977487767937
27425 322 18342173393048297999
3178227 256 18262515875623117986
394071 54 18409164437421524877
397830 11 18336557122429697785
437795 51 18409174328936461593
469060 322 16371834330962958847
57527585 21 17405973532873409548
6442390 28 18334010613980392922
9658208 31 18261402199309003510

> <PUBCHEM_SHAPE_MULTIPOLES>
628.97
16.18
5.19
1.63
28.59
4.45
-0.17
-16.18
0.44
-5.26
1.86
0.06
0.15
1.63

> <PUBCHEM_SHAPE_SELFOVERLAP>
1314.682

> <PUBCHEM_SHAPE_VOLUME>
354.6

> <PUBCHEM_COORDINATE_TYPE>
2
5
10

$$$$
