11152667
  -OEChem-03292013303D

 44 46  0     1  0  0  0  0  0999 V2000
   -0.1214   -0.6857   -0.3351 S   0  0  0  0  0  0  0  0  0  0  0  0
   -4.9884   -2.7322    1.9689 F   0  0  0  0  0  0  0  0  0  0  0  0
    2.6263    1.9856   -0.1066 O   0  0  0  0  0  0  0  0  0  0  0  0
   -1.9966    4.2921    0.2565 O   0  0  0  0  0  0  0  0  0  0  0  0
    4.2894   -2.8893   -0.7323 N   0  0  0  0  0  0  0  0  0  0  0  0
    2.7191   -0.3158   -0.3776 N   0  0  0  0  0  0  0  0  0  0  0  0
    0.0795    3.1920    0.0770 N   0  0  0  0  0  0  0  0  0  0  0  0
   -0.0492    5.4838    0.3278 N   0  0  0  0  0  0  0  0  0  0  0  0
    4.1615   -0.4249   -0.4066 C   0  0  1  0  0  0  0  0  0  0  0  0
    4.7309   -0.5832    1.0062 C   0  0  0  0  0  0  0  0  0  0  0  0
    4.4636   -1.9818    1.5605 C   0  0  0  0  0  0  0  0  0  0  0  0
    4.6107   -1.5810   -1.3090 C   0  0  0  0  0  0  0  0  0  0  0  0
    4.9123   -3.0628    0.5799 C   0  0  0  0  0  0  0  0  0  0  0  0
    2.0664    0.8992   -0.2277 C   0  0  0  0  0  0  0  0  0  0  0  0
    0.5824    0.8394   -0.1911 C   0  0  0  0  0  0  0  0  0  0  0  0
   -0.2744    1.8636   -0.0558 C   0  0  0  0  0  0  0  0  0  0  0  0
   -1.6780    0.0177   -0.2140 C   0  0  0  0  0  0  0  0  0  0  0  0
   -1.6168    1.3861   -0.0682 C   0  0  0  0  0  0  0  0  0  0  0  0
   -2.8379   -0.8400   -0.2725 C   0  0  0  0  0  0  0  0  0  0  0  0
   -3.3626   -1.3823    0.8998 C   0  0  0  0  0  0  0  0  0  0  0  0
   -3.4322   -1.1240   -1.5013 C   0  0  0  0  0  0  0  0  0  0  0  0
   -0.7688    4.3010    0.2212 C   0  0  0  0  0  0  0  0  0  0  0  0
   -4.4837   -2.2102    0.8433 C   0  0  0  0  0  0  0  0  0  0  0  0
   -4.5533   -1.9520   -1.5578 C   0  0  0  0  0  0  0  0  0  0  0  0
   -5.0790   -2.4951   -0.3856 C   0  0  0  0  0  0  0  0  0  0  0  0
    4.5517    0.5097   -0.8284 H   0  0  0  0  0  0  0  0  0  0  0  0
    4.3143    0.1696    1.6856 H   0  0  0  0  0  0  0  0  0  0  0  0
    5.8156   -0.4190    0.9741 H   0  0  0  0  0  0  0  0  0  0  0  0
    4.9899   -2.1063    2.5137 H   0  0  0  0  0  0  0  0  0  0  0  0
    3.3930   -2.0966    1.7719 H   0  0  0  0  0  0  0  0  0  0  0  0
    4.1196   -1.5008   -2.2858 H   0  0  0  0  0  0  0  0  0  0  0  0
    5.6912   -1.5155   -1.4885 H   0  0  0  0  0  0  0  0  0  0  0  0
    6.0048   -3.0558    0.4819 H   0  0  0  0  0  0  0  0  0  0  0  0
    4.6333   -4.0448    0.9770 H   0  0  0  0  0  0  0  0  0  0  0  0
    4.6185   -3.6224   -1.3600 H   0  0  0  0  0  0  0  0  0  0  0  0
    2.1734   -1.1718   -0.4189 H   0  0  0  0  0  0  0  0  0  0  0  0
   -2.5113    1.9875    0.0226 H   0  0  0  0  0  0  0  0  0  0  0  0
    1.0774    3.3846    0.0685 H   0  0  0  0  0  0  0  0  0  0  0  0
   -2.9114   -1.1699    1.8661 H   0  0  0  0  0  0  0  0  0  0  0  0
   -3.0357   -0.7080   -2.4246 H   0  0  0  0  0  0  0  0  0  0  0  0
   -5.0171   -2.1738   -2.5145 H   0  0  0  0  0  0  0  0  0  0  0  0
   -5.9518   -3.1399   -0.4293 H   0  0  0  0  0  0  0  0  0  0  0  0
   -0.5198    6.3757    0.4380 H   0  0  0  0  0  0  0  0  0  0  0  0
    0.9647    5.4959    0.2993 H   0  0  0  0  0  0  0  0  0  0  0  0
  1 15  1  0  0  0  0
  1 17  1  0  0  0  0
  2 23  1  0  0  0  0
  3 14  2  0  0  0  0
  4 22  2  0  0  0  0
  5 12  1  0  0  0  0
  5 13  1  0  0  0  0
  5 35  1  0  0  0  0
  6  9  1  0  0  0  0
  6 14  1  0  0  0  0
  6 36  1  0  0  0  0
  7 16  1  0  0  0  0
  7 22  1  0  0  0  0
  7 38  1  0  0  0  0
  8 22  1  0  0  0  0
  8 43  1  0  0  0  0
  8 44  1  0  0  0  0
  9 10  1  0  0  0  0
  9 12  1  0  0  0  0
  9 26  1  0  0  0  0
 10 11  1  0  0  0  0
 10 27  1  0  0  0  0
 10 28  1  0  0  0  0
 11 13  1  0  0  0  0
 11 29  1  0  0  0  0
 11 30  1  0  0  0  0
 12 31  1  0  0  0  0
 12 32  1  0  0  0  0
 13 33  1  0  0  0  0
 13 34  1  0  0  0  0
 14 15  1  0  0  0  0
 15 16  2  0  0  0  0
 16 18  1  0  0  0  0
 17 18  2  0  0  0  0
 17 19  1  0  0  0  0
 18 37  1  0  0  0  0
 19 20  2  0  0  0  0
 19 21  1  0  0  0  0
 20 23  1  0  0  0  0
 20 39  1  0  0  0  0
 21 24  2  0  0  0  0
 21 40  1  0  0  0  0
 23 25  2  0  0  0  0
 24 25  1  0  0  0  0
 24 41  1  0  0  0  0
 25 42  1  0  0  0  0
M  END
> <PUBCHEM_COMPOUND_CID>
11152667

> <PUBCHEM_CONFORMER_RMSD>
0.8

> <PUBCHEM_CONFORMER_DIVERSEORDER>
1
202
146
147
61
155
33
39
141
102
70
196
50
96
200
49
130
123
187
164
192
77
170
174
148
162
20
87
24
4
172
181
52
54
183
161
194
195
204
186
57
133
55
115
180
26
201
76
8
48
74
65
175
92
3
121
143
207
34
139
78
89
160
198
66
138
151
2
152
132
16
42
38
190
153
145
45
22
165
199
86
63
11
173
30
36
95
120
193
98
90
127
56
85
167
82
5
17
75
188
112
83
158
163
176
41
6
150
126
43
19
197
73
47
35
119
140
189
60
58
166
31
62
37
106
51
28
178
177
88
64
105
69
124
53
136
171
157
100
93
15
159
25
137
191
9
71
91
144
23
68
12
134
149
110
107
29
184
135
59
116
122
99
94
125
18
113
169
154
97
104
168
81
118
179
203
7
129
206
46
114
44
182
156
40
185
111
80
108
117
84
27
79
32
109
103
205
14
131
142
101
10
13
128
67
21
72

> <PUBCHEM_MMFF94_PARTIAL_CHARGES>
33
1 -0.08
12 0.27
13 0.27
14 0.71
15 -0.05
16 0.06
17 -0.01
18 -0.15
19 0.05
2 -0.19
20 -0.15
21 -0.15
22 0.69
23 0.19
24 -0.15
25 -0.15
3 -0.57
35 0.36
36 0.37
37 0.15
38 0.37
39 0.15
4 -0.57
40 0.15
41 0.15
42 0.15
43 0.37
44 0.37
5 -0.9
6 -0.73
7 -0.49
8 -0.8
9 0.3

> <PUBCHEM_EFFECTIVE_ROTOR_COUNT>
7.2

> <PUBCHEM_PHARMACOPHORE_FEATURES>
10
1 3 acceptor
1 4 acceptor
1 5 cation
1 5 donor
1 6 donor
1 7 donor
1 8 donor
5 1 15 16 17 18 rings
6 19 20 21 23 24 25 rings
6 5 9 10 11 12 13 rings

> <PUBCHEM_HEAVY_ATOM_COUNT>
25

> <PUBCHEM_ATOM_DEF_STEREO_COUNT>
1

> <PUBCHEM_ATOM_UDEF_STEREO_COUNT>
0

> <PUBCHEM_BOND_DEF_STEREO_COUNT>
0

> <PUBCHEM_BOND_UDEF_STEREO_COUNT>
0

> <PUBCHEM_ISOTOPIC_ATOM_COUNT>
0

> <PUBCHEM_COMPONENT_COUNT>
1

> <PUBCHEM_CACTVS_TAUTO_COUNT>
8

> <PUBCHEM_CONFORMER_ID>
00AA2D1B00000001

> <PUBCHEM_MMFF94_ENERGY>
46.6245

> <PUBCHEM_FEATURE_SELFOVERLAP>
50.796

> <PUBCHEM_SHAPE_FINGERPRINT>
10074138 170 18195800770014094809
10254770 206 16461636517881524562
10411042 1 18412262856544775463
11049842 53 15071946493450231019
11763715 3 18264512653379771108
11796584 16 17531232985480691779
11991303 11 17899703358259182221
12107183 9 18270699640285761379
12342043 65 17605847047834073299
12363563 72 18410298024986998022
12422481 6 17703240520221413399
12549972 3 17485339220250647522
12553582 1 18341898532152450246
12788726 201 18408045096108558330
13052359 8 18050002199260268189
13134695 92 18267016344414131725
13140716 1 18411419483918956953
13544653 18 18408884057265283535
13583140 156 14476688438301887030
13690498 29 18199204914243532966
13692114 37 17911508801737625837
13782708 43 17749952305982756267
13911987 19 17684108137667608356
13955234 65 17907301310050709985
14848178 5 18186792561547754506
14866123 147 18049441444192910203
15042514 8 18339084761727706937
17492 89 18338515240832966886
1813 80 18129677399075952735
193927 3 18335704952877549886
204376 136 9223240654227275471
21478907 32 18411698759940639525
21703447 108 18340756118433958008
22033318 11 17910434755508376289
23559900 14 17460302477340536599
3091708 16 8991973784756122441
314194 84 18266741470522664239
3421961 26 18268147737183088993
345986 75 17917159393628818217
34797466 226 16154271757740969527
463206 1 18335136552600541755
5104073 3 18413952784436394048
5309563 4 18411421738687233454
59025328 239 17556256813650906237
613672 6 18338505417594018382
621550 5 17895758521197412461
7164475 11 18410858733458120876
77188 2 18411698832881737261
7970288 3 18410851096516424423
79837 15 17837213670997558264

> <PUBCHEM_SHAPE_MULTIPOLES>
479.4
11.63
5.69
1.26
3.4
9.57
0.13
-16.35
0.98
-1.8
1.09
-0.46
-1.13
0.05

> <PUBCHEM_SHAPE_SELFOVERLAP>
1015.046

> <PUBCHEM_SHAPE_VOLUME>
269.2

> <PUBCHEM_COORDINATE_TYPE>
2
5
10

$$$$
