11155879
  -OEChem-03292013303D

 70 74  0     1  0  0  0  0  0999 V2000
    0.8009   -2.4671   -0.8916 O   0  0  0  0  0  0  0  0  0  0  0  0
    0.5370    1.7660    0.7322 O   0  0  0  0  0  0  0  0  0  0  0  0
   -2.1025   -2.7246   -1.3623 O   0  0  0  0  0  0  0  0  0  0  0  0
   -1.0378   -4.3036    0.5471 O   0  0  0  0  0  0  0  0  0  0  0  0
    2.8401   -0.3167    0.1381 O   0  0  0  0  0  0  0  0  0  0  0  0
   -5.0400    0.8481   -1.3267 O   0  0  0  0  0  0  0  0  0  0  0  0
   -4.0490   -0.3706    1.9143 O   0  0  0  0  0  0  0  0  0  0  0  0
    2.1952    1.9134    2.2759 O   0  0  0  0  0  0  0  0  0  0  0  0
    4.3631    0.8916    1.3803 O   0  0  0  0  0  0  0  0  0  0  0  0
   -0.1453   -0.3272   -0.3609 C   0  0  2  0  0  0  0  0  0  0  0  0
   -1.6804   -0.6052   -0.1368 C   0  0  1  0  0  0  0  0  0  0  0  0
    0.5618   -0.9118    0.8822 C   0  0  1  0  0  0  0  0  0  0  0  0
   -2.6805    0.2765   -0.9899 C   0  0  2  0  0  0  0  0  0  0  0  0
    0.5371   -2.4011    0.5207 C   0  0  1  0  0  0  0  0  0  0  0  0
    0.2263    1.1514   -0.5378 C   0  0  1  0  0  0  0  0  0  0  0  0
   -1.9779   -2.1421   -0.0693 C   0  0  2  0  0  0  0  0  0  0  0  0
   -2.2758    1.7960   -0.8691 C   0  0  2  0  0  0  0  0  0  0  0  0
    0.4792   -1.1916   -1.4729 C   0  0  0  0  0  0  0  0  0  0  0  0
   -0.9163   -2.9011    0.7669 C   0  0  1  0  0  0  0  0  0  0  0  0
   -0.8029    1.9986   -1.2817 C   0  0  0  0  0  0  0  0  0  0  0  0
    1.8913   -0.2096    1.1715 C   0  0  2  0  0  0  0  0  0  0  0  0
   -4.1533    0.1204   -0.4639 C   0  0  1  0  0  0  0  0  0  0  0  0
   -2.6901   -0.0972   -2.4957 C   0  0  0  0  0  0  0  0  0  0  0  0
    1.5648   -3.2526    1.2564 C   0  0  0  0  0  0  0  0  0  0  0  0
   -2.6671    2.4358    0.4632 C   0  0  0  0  0  0  0  0  0  0  0  0
    1.5786    1.2508    1.4481 C   0  0  0  0  0  0  0  0  0  0  0  0
   -4.3705    0.6423    0.9660 C   0  0  2  0  0  0  0  0  0  0  0  0
   -3.5874    1.8840    1.2752 C   0  0  0  0  0  0  0  0  0  0  0  0
   -2.1007    3.7890    0.8026 C   0  0  0  0  0  0  0  0  0  0  0  0
    4.0567    0.2833    0.3629 C   0  0  0  0  0  0  0  0  0  0  0  0
    4.9625    0.1114   -0.8446 C   0  0  1  0  0  0  0  0  0  0  0  0
    5.3450    1.4662   -1.4582 C   0  0  0  0  0  0  0  0  0  0  0  0
    6.2058   -0.6580   -0.4072 C   0  0  0  0  0  0  0  0  0  0  0  0
    4.1321    2.2551   -1.9349 C   0  0  0  0  0  0  0  0  0  0  0  0
   -1.8436   -0.2656    0.8936 H   0  0  0  0  0  0  0  0  0  0  0  0
   -0.0316   -0.7527    1.7953 H   0  0  0  0  0  0  0  0  0  0  0  0
    1.1498    1.2442   -1.1247 H   0  0  0  0  0  0  0  0  0  0  0  0
   -2.9484   -2.3041    0.4111 H   0  0  0  0  0  0  0  0  0  0  0  0
   -2.8618    2.3595   -1.6120 H   0  0  0  0  0  0  0  0  0  0  0  0
   -0.1685   -1.3612   -2.3321 H   0  0  0  0  0  0  0  0  0  0  0  0
    1.4131   -0.7797   -1.8682 H   0  0  0  0  0  0  0  0  0  0  0  0
   -1.1431   -2.7398    1.8296 H   0  0  0  0  0  0  0  0  0  0  0  0
   -0.7138    1.7732   -2.3520 H   0  0  0  0  0  0  0  0  0  0  0  0
   -0.5313    3.0575   -1.1945 H   0  0  0  0  0  0  0  0  0  0  0  0
    2.3051   -0.6433    2.0915 H   0  0  0  0  0  0  0  0  0  0  0  0
   -4.4566   -0.9302   -0.5340 H   0  0  0  0  0  0  0  0  0  0  0  0
   -3.1722   -1.0619   -2.6753 H   0  0  0  0  0  0  0  0  0  0  0  0
   -3.2541    0.6371   -3.0836 H   0  0  0  0  0  0  0  0  0  0  0  0
   -1.6930   -0.1270   -2.9338 H   0  0  0  0  0  0  0  0  0  0  0  0
    1.4170   -3.2113    2.3400 H   0  0  0  0  0  0  0  0  0  0  0  0
    1.5124   -4.2993    0.9372 H   0  0  0  0  0  0  0  0  0  0  0  0
    2.5857   -2.9273    1.0294 H   0  0  0  0  0  0  0  0  0  0  0  0
   -5.4307    0.8842    1.1116 H   0  0  0  0  0  0  0  0  0  0  0  0
   -3.8488    2.3847    2.2051 H   0  0  0  0  0  0  0  0  0  0  0  0
   -2.2712   -3.6745   -1.2434 H   0  0  0  0  0  0  0  0  0  0  0  0
   -1.9459   -4.5589    0.7835 H   0  0  0  0  0  0  0  0  0  0  0  0
   -5.9499    0.6494   -1.0472 H   0  0  0  0  0  0  0  0  0  0  0  0
   -1.0365    3.7289    1.0403 H   0  0  0  0  0  0  0  0  0  0  0  0
   -2.5993    4.2401    1.6678 H   0  0  0  0  0  0  0  0  0  0  0  0
   -2.2353    4.4767   -0.0389 H   0  0  0  0  0  0  0  0  0  0  0  0
   -4.6426   -1.1234    1.7521 H   0  0  0  0  0  0  0  0  0  0  0  0
    4.4365   -0.4860   -1.6001 H   0  0  0  0  0  0  0  0  0  0  0  0
    5.8931    2.0735   -0.7272 H   0  0  0  0  0  0  0  0  0  0  0  0
    6.0175    1.3036   -2.3090 H   0  0  0  0  0  0  0  0  0  0  0  0
    5.9304   -1.6193    0.0407 H   0  0  0  0  0  0  0  0  0  0  0  0
    6.8605   -0.8579   -1.2618 H   0  0  0  0  0  0  0  0  0  0  0  0
    6.7819   -0.1000    0.3394 H   0  0  0  0  0  0  0  0  0  0  0  0
    3.5418    1.6733   -2.6500 H   0  0  0  0  0  0  0  0  0  0  0  0
    4.4549    3.1758   -2.4314 H   0  0  0  0  0  0  0  0  0  0  0  0
    3.4833    2.5381   -1.1004 H   0  0  0  0  0  0  0  0  0  0  0  0
  1 14  1  0  0  0  0
  1 18  1  0  0  0  0
  2 15  1  0  0  0  0
  2 26  1  0  0  0  0
  3 16  1  0  0  0  0
  3 55  1  0  0  0  0
  4 19  1  0  0  0  0
  4 56  1  0  0  0  0
  5 21  1  0  0  0  0
  5 30  1  0  0  0  0
  6 22  1  0  0  0  0
  6 57  1  0  0  0  0
  7 27  1  0  0  0  0
  7 61  1  0  0  0  0
  8 26  2  0  0  0  0
  9 30  2  0  0  0  0
 10 11  1  0  0  0  0
 10 12  1  0  0  0  0
 10 15  1  0  0  0  0
 10 18  1  0  0  0  0
 11 13  1  0  0  0  0
 11 16  1  0  0  0  0
 11 35  1  0  0  0  0
 12 14  1  0  0  0  0
 12 21  1  0  0  0  0
 12 36  1  0  0  0  0
 13 17  1  0  0  0  0
 13 22  1  0  0  0  0
 13 23  1  0  0  0  0
 14 19  1  0  0  0  0
 14 24  1  0  0  0  0
 15 20  1  0  0  0  0
 15 37  1  0  0  0  0
 16 19  1  0  0  0  0
 16 38  1  0  0  0  0
 17 20  1  0  0  0  0
 17 25  1  0  0  0  0
 17 39  1  0  0  0  0
 18 40  1  0  0  0  0
 18 41  1  0  0  0  0
 19 42  1  0  0  0  0
 20 43  1  0  0  0  0
 20 44  1  0  0  0  0
 21 26  1  0  0  0  0
 21 45  1  0  0  0  0
 22 27  1  0  0  0  0
 22 46  1  0  0  0  0
 23 47  1  0  0  0  0
 23 48  1  0  0  0  0
 23 49  1  0  0  0  0
 24 50  1  0  0  0  0
 24 51  1  0  0  0  0
 24 52  1  0  0  0  0
 25 28  2  0  0  0  0
 25 29  1  0  0  0  0
 27 28  1  0  0  0  0
 27 53  1  0  0  0  0
 28 54  1  0  0  0  0
 29 58  1  0  0  0  0
 29 59  1  0  0  0  0
 29 60  1  0  0  0  0
 30 31  1  0  0  0  0
 31 32  1  0  0  0  0
 31 33  1  0  0  0  0
 31 62  1  0  0  0  0
 32 34  1  0  0  0  0
 32 63  1  0  0  0  0
 32 64  1  0  0  0  0
 33 65  1  0  0  0  0
 33 66  1  0  0  0  0
 33 67  1  0  0  0  0
 34 68  1  0  0  0  0
 34 69  1  0  0  0  0
 34 70  1  0  0  0  0
M  END
> <PUBCHEM_COMPOUND_CID>
11155879

> <PUBCHEM_CONFORMER_RMSD>
0.8

> <PUBCHEM_CONFORMER_DIVERSEORDER>
6
93
100
73
30
91
60
28
98
49
45
74
27
80
32
12
43
89
41
65
62
59
24
22
64
96
54
61
7
25
15
52
21
99
75
39
46
50
56
14
23
42
105
48
79
19
63
40
20
104
17
103
18
86
55
71
29
38
101
3
58
34
97
77
4
94
44
68
1
37
26
81
35
16
82
36
10
92
95
70
31
76
69
67
66
53
85
57
83
51
72
84
5
78
9
2
47
90
87
11
88
8
102
33
13

> <PUBCHEM_MMFF94_PARTIAL_CHARGES>
29
1 -0.56
14 0.28
15 0.28
16 0.28
17 0.14
18 0.28
19 0.28
2 -0.43
21 0.34
22 0.28
25 -0.28
26 0.66
27 0.42
28 -0.29
29 0.14
3 -0.68
30 0.66
31 0.06
4 -0.68
5 -0.43
54 0.15
55 0.4
56 0.4
57 0.4
6 -0.68
61 0.4
7 -0.68
8 -0.57
9 -0.57

> <PUBCHEM_EFFECTIVE_ROTOR_COUNT>
5.8

> <PUBCHEM_PHARMACOPHORE_FEATURES>
17
1 1 acceptor
1 3 acceptor
1 3 donor
1 33 hydrophobe
1 34 hydrophobe
1 4 acceptor
1 4 donor
1 6 acceptor
1 6 donor
1 7 acceptor
1 7 donor
1 8 acceptor
1 9 acceptor
6 10 11 13 15 17 20 rings
6 13 17 22 25 27 28 rings
6 2 10 12 15 21 26 rings
8 1 10 11 12 14 16 18 19 rings

> <PUBCHEM_HEAVY_ATOM_COUNT>
34

> <PUBCHEM_ATOM_DEF_STEREO_COUNT>
8

> <PUBCHEM_ATOM_UDEF_STEREO_COUNT>
5

> <PUBCHEM_BOND_DEF_STEREO_COUNT>
0

> <PUBCHEM_BOND_UDEF_STEREO_COUNT>
0

> <PUBCHEM_ISOTOPIC_ATOM_COUNT>
0

> <PUBCHEM_COMPONENT_COUNT>
1

> <PUBCHEM_CACTVS_TAUTO_COUNT>
1

> <PUBCHEM_CONFORMER_ID>
00AA39A700000006

> <PUBCHEM_MMFF94_ENERGY>
136.8636

> <PUBCHEM_FEATURE_SELFOVERLAP>
86.448

> <PUBCHEM_SHAPE_FINGERPRINT>
10119406 146 18269286669023579894
10165383 225 18410300168106970601
10366900 7 18412256212768614361
10906281 52 17968658195261547837
1100329 8 18265895937928559801
11007060 377 18343303686743743848
11578080 2 17681266655802154677
1200032 147 16698957513318107065
12011746 2 18411410696779489445
12156800 1 17191852271863634025
12160290 23 18047166820902369530
12788726 201 17828204621128844818
13140716 1 18266174127038940017
13583140 156 16443336551448370444
13617811 41 18335130995266146101
13782708 43 13470106554575646605
13911987 19 18259697909067490085
14223421 5 18192989319097868913
14251757 17 16486701259999325036
14251757 5 18264498454122515690
14400156 96 17977121063378653089
14713325 29 18337965591966025890
14787075 74 18342743987674097333
14790565 3 18336274465467406388
14840074 17 17749399169063839644
14955137 171 18041295334241332140
15021287 119 17458332015233173312
15082195 135 17898823817666025461
15209289 33 18343581841372870665
16945 1 18198317650913911987
19319366 153 18268433421433380491
19591789 44 18267299837751067234
20775438 99 16325939843441178143
21033650 10 17844274872864645124
21756936 100 18341894065428250768
22121540 332 16975398933685469744
22907989 373 18265336299167960468
23419403 2 17617710549983839042
23559900 14 17679856007989691863
35225 105 17458616865621831483
392239 28 18337411399735199523
404807 14 14687835271176709484
469060 322 13335865062241418442
70251023 43 17129273602049755919

> <PUBCHEM_SHAPE_MULTIPOLES>
646.88
9.52
3.88
1.89
9.3
2.15
0.18
-4.54
1.59
-1.14
-0.7
-0.13
-0.55
-1.03

> <PUBCHEM_SHAPE_SELFOVERLAP>
1398.72

> <PUBCHEM_SHAPE_VOLUME>
346.9

> <PUBCHEM_COORDINATE_TYPE>
2
5
10

$$$$
