11154925
  -OEChem-03292013303D

 56 59  0     1  0  0  0  0  0999 V2000
   -3.6007    0.2491   -1.9612 F   0  0  0  0  0  0  0  0  0  0  0  0
    3.4577   -0.5689   -0.4018 O   0  0  0  0  0  0  0  0  0  0  0  0
   -1.8877    0.6637    0.1453 O   0  0  0  0  0  0  0  0  0  0  0  0
    6.1040   -0.0502    0.3424 O   0  0  0  0  0  0  0  0  0  0  0  0
    8.3312    0.0293   -0.2441 O   0  0  0  0  0  0  0  0  0  0  0  0
    0.3998   -2.1063    0.3887 N   0  0  0  0  0  0  0  0  0  0  0  0
   -7.3396    0.9213    0.6630 N   0  0  0  0  0  0  0  0  0  0  0  0
   -0.4216   -3.1369    0.7329 N   0  0  0  0  0  0  0  0  0  0  0  0
   -2.2416   -1.5470    0.6709 N   0  0  0  0  0  0  0  0  0  0  0  0
    8.5726    2.5715    0.6645 N   0  0  0  0  0  0  0  0  0  0  0  0
   -0.0372   -0.8229    0.1815 C   0  0  0  0  0  0  0  0  0  0  0  0
    1.0461   -0.0424   -0.1489 C   0  0  0  0  0  0  0  0  0  0  0  0
    2.1827   -0.8915   -0.1397 C   0  0  0  0  0  0  0  0  0  0  0  0
    5.8042   -1.0465   -0.6339 C   0  0  1  0  0  0  0  0  0  0  0  0
    4.4271   -1.6201   -0.3252 C   0  0  0  0  0  0  0  0  0  0  0  0
    1.7552   -2.1600    0.1950 C   0  0  0  0  0  0  0  0  0  0  0  0
   -5.4893    0.6089   -0.5436 C   0  0  0  0  0  0  0  0  0  0  0  0
   -1.4304   -0.5946    0.3443 C   0  0  0  0  0  0  0  0  0  0  0  0
   -5.9650    0.9007    0.7365 C   0  0  0  0  0  0  0  0  0  0  0  0
    1.0834    1.4010   -0.4624 C   0  0  0  0  0  0  0  0  0  0  0  0
   -3.2352    0.7397    0.3340 C   0  0  0  0  0  0  0  0  0  0  0  0
   -7.7481    0.6533   -0.6160 C   0  0  0  0  0  0  0  0  0  0  0  0
   -4.0975    0.5271   -0.7476 C   0  0  0  0  0  0  0  0  0  0  0  0
   -6.6255    0.4553   -1.3864 C   0  0  0  0  0  0  0  0  0  0  0  0
   -5.1149    1.1158    1.8273 C   0  0  0  0  0  0  0  0  0  0  0  0
    5.8452   -0.4100   -2.0149 C   0  0  0  0  0  0  0  0  0  0  0  0
   -3.7383    1.0294    1.6008 C   0  0  0  0  0  0  0  0  0  0  0  0
   -9.1788    0.6139   -0.9705 C   0  0  0  0  0  0  0  0  0  0  0  0
    7.2428    1.9714    0.7539 C   0  0  2  0  0  0  0  0  0  0  0  0
   -1.6793   -2.8022    0.8529 C   0  0  0  0  0  0  0  0  0  0  0  0
    7.3271    0.5539    0.2197 C   0  0  0  0  0  0  0  0  0  0  0  0
    6.2515    2.7942   -0.0575 C   0  0  0  0  0  0  0  0  0  0  0  0
    6.5412   -1.8559   -0.5650 H   0  0  0  0  0  0  0  0  0  0  0  0
    4.1875   -2.4118   -1.0455 H   0  0  0  0  0  0  0  0  0  0  0  0
    4.4364   -2.0278    0.6936 H   0  0  0  0  0  0  0  0  0  0  0  0
    2.2795   -3.0988    0.3155 H   0  0  0  0  0  0  0  0  0  0  0  0
    2.0978    1.7464   -0.6861 H   0  0  0  0  0  0  0  0  0  0  0  0
    0.4576    1.6202   -1.3338 H   0  0  0  0  0  0  0  0  0  0  0  0
    0.7120    1.9869    0.3847 H   0  0  0  0  0  0  0  0  0  0  0  0
   -6.6191    0.2245   -2.4432 H   0  0  0  0  0  0  0  0  0  0  0  0
   -7.9551    1.1077    1.4429 H   0  0  0  0  0  0  0  0  0  0  0  0
   -5.5056    1.3416    2.8137 H   0  0  0  0  0  0  0  0  0  0  0  0
    6.8605   -0.1222   -2.3048 H   0  0  0  0  0  0  0  0  0  0  0  0
    5.4790   -1.1064   -2.7766 H   0  0  0  0  0  0  0  0  0  0  0  0
    5.2377    0.5008   -2.0576 H   0  0  0  0  0  0  0  0  0  0  0  0
   -3.0563    1.1940    2.4319 H   0  0  0  0  0  0  0  0  0  0  0  0
   -9.7004   -0.1550   -0.3915 H   0  0  0  0  0  0  0  0  0  0  0  0
   -9.3167    0.3863   -2.0325 H   0  0  0  0  0  0  0  0  0  0  0  0
   -9.6545    1.5792   -0.7692 H   0  0  0  0  0  0  0  0  0  0  0  0
    6.9478    1.9264    1.8075 H   0  0  0  0  0  0  0  0  0  0  0  0
   -2.3883   -3.5995    1.1304 H   0  0  0  0  0  0  0  0  0  0  0  0
    6.5024    2.7914   -1.1246 H   0  0  0  0  0  0  0  0  0  0  0  0
    5.2360    2.3944    0.0389 H   0  0  0  0  0  0  0  0  0  0  0  0
    6.2277    3.8346    0.2849 H   0  0  0  0  0  0  0  0  0  0  0  0
    8.8466    2.6627   -0.3136 H   0  0  0  0  0  0  0  0  0  0  0  0
    8.5428    3.5215    1.0335 H   0  0  0  0  0  0  0  0  0  0  0  0
  1 23  1  0  0  0  0
  2 13  1  0  0  0  0
  2 15  1  0  0  0  0
  3 18  1  0  0  0  0
  3 21  1  0  0  0  0
  4 14  1  0  0  0  0
  4 31  1  0  0  0  0
  5 31  2  0  0  0  0
  6  8  1  0  0  0  0
  6 11  1  0  0  0  0
  6 16  1  0  0  0  0
  7 19  1  0  0  0  0
  7 22  1  0  0  0  0
  7 41  1  0  0  0  0
  8 30  2  0  0  0  0
  9 18  2  0  0  0  0
  9 30  1  0  0  0  0
 10 29  1  0  0  0  0
 10 55  1  0  0  0  0
 10 56  1  0  0  0  0
 11 12  2  0  0  0  0
 11 18  1  0  0  0  0
 12 13  1  0  0  0  0
 12 20  1  0  0  0  0
 13 16  2  0  0  0  0
 14 15  1  0  0  0  0
 14 26  1  0  0  0  0
 14 33  1  0  0  0  0
 15 34  1  0  0  0  0
 15 35  1  0  0  0  0
 16 36  1  0  0  0  0
 17 19  2  0  0  0  0
 17 23  1  0  0  0  0
 17 24  1  0  0  0  0
 19 25  1  0  0  0  0
 20 37  1  0  0  0  0
 20 38  1  0  0  0  0
 20 39  1  0  0  0  0
 21 23  2  0  0  0  0
 21 27  1  0  0  0  0
 22 24  2  0  0  0  0
 22 28  1  0  0  0  0
 24 40  1  0  0  0  0
 25 27  2  0  0  0  0
 25 42  1  0  0  0  0
 26 43  1  0  0  0  0
 26 44  1  0  0  0  0
 26 45  1  0  0  0  0
 27 46  1  0  0  0  0
 28 47  1  0  0  0  0
 28 48  1  0  0  0  0
 28 49  1  0  0  0  0
 29 31  1  0  0  0  0
 29 32  1  0  0  0  0
 29 50  1  0  0  0  0
 30 51  1  0  0  0  0
 32 52  1  0  0  0  0
 32 53  1  0  0  0  0
 32 54  1  0  0  0  0
M  END
> <PUBCHEM_COMPOUND_CID>
11154925

> <PUBCHEM_CONFORMER_RMSD>
1

> <PUBCHEM_CONFORMER_DIVERSEORDER>
1
87
49
76
116
102
44
181
48
188
150
131
66
83
113
106
15
173
164
63
138
158
146
110
82
89
32
12
175
74
53
85
177
122
182
47
19
109
137
142
21
132
80
144
126
23
25
128
38
186
54
86
103
161
108
155
17
39
43
185
59
180
20
88
101
167
73
13
98
156
31
111
41
124
163
18
169
60
130
29
61
84
166
121
92
70
8
62
135
105
81
120
127
171
168
26
136
104
115
65
28
149
37
129
14
119
183
78
72
36
172
67
27
57
152
141
56
153
58
69
11
10
96
179
95
64
77
178
55
46
97
162
16
24
159
174
133
100
165
40
117
123
148
143
99
75
93
140
187
145
5
45
151
112
154
114
33
68
176
35
107
50
118
30
3
71
160
7
184
170
134
125
157
90
2
79
6
4
91
34
22
9
52
42
51
147
139
94

> <PUBCHEM_MMFF94_PARTIAL_CHARGES>
37
1 -0.19
10 -0.99
11 -0.24
12 -0.18
13 0.06
14 0.28
15 0.28
16 -0.3
18 0.69
19 -0.15
2 -0.34
20 0.18
21 0.08
22 -0.33
23 0.19
24 -0.15
25 -0.15
27 -0.15
28 0.18
29 0.33
3 -0.23
30 0.6
31 0.66
36 0.15
4 -0.43
40 0.15
41 0.27
42 0.15
46 0.15
5 -0.57
51 0.06
55 0.36
56 0.36
6 0.51
7 0.03
8 -0.65
9 -0.66

> <PUBCHEM_EFFECTIVE_ROTOR_COUNT>
8

> <PUBCHEM_PHARMACOPHORE_FEATURES>
11
1 10 cation
1 10 donor
1 2 acceptor
1 5 acceptor
1 7 cation
1 7 donor
3 8 9 30 cation
5 6 11 12 13 16 rings
5 7 17 19 22 24 rings
6 17 19 21 23 25 27 rings
6 6 8 9 11 18 30 rings

> <PUBCHEM_HEAVY_ATOM_COUNT>
32

> <PUBCHEM_ATOM_DEF_STEREO_COUNT>
2

> <PUBCHEM_ATOM_UDEF_STEREO_COUNT>
0

> <PUBCHEM_BOND_DEF_STEREO_COUNT>
0

> <PUBCHEM_BOND_UDEF_STEREO_COUNT>
0

> <PUBCHEM_ISOTOPIC_ATOM_COUNT>
0

> <PUBCHEM_COMPONENT_COUNT>
1

> <PUBCHEM_CACTVS_TAUTO_COUNT>
1

> <PUBCHEM_CONFORMER_ID>
00AA35ED00000001

> <PUBCHEM_MMFF94_ENERGY>
75.0843

> <PUBCHEM_FEATURE_SELFOVERLAP>
56.029

> <PUBCHEM_SHAPE_FINGERPRINT>
10 15 17530685411878811788
10299344 5 17060617772428625863
10533779 1 18269268149315055800
10835480 77 18342178895302037754
11007060 377 18412272722538114571
11135609 187 18336825295787359763
11315181 36 18130787850887498241
12236239 1 17987515923715894931
12539765 74 17917158199337980486
12838862 33 18187354433379364989
12925494 130 18197214957201173544
13383668 254 18200890517514989257
14849402 71 18273216417247651409
15684393 108 11527948976653791976
1577012 14 18058453106493463899
15840311 113 18412265030447080628
18365409 1 17845928640946687631
18681886 176 17346024611779674259
20105231 36 12103844566394354253
20554085 129 17168140139737798248
21033648 29 17749385923869611885
21150785 3 17203608177173136822
21521721 280 18411983537662843922
21585482 111 18192432090727837836
21792934 111 17822004281965167820
21859007 373 17603855681276952700
22224240 67 18260830384416333259
23522609 53 17059232357459955467
23569943 247 17483693207920726239
24771293 8 18341337725282493488
335352 9 18335991878948513782
34797466 226 17704077266097666628
3633792 109 18411418384802987529
4093350 32 17632301164258666060
439807 62 9655582920479505704
4403749 210 18187088403174266187
445580 167 17989203742019447997
5104073 3 18259990392541674858
5265222 85 15841258320309679031
5758199 1 18410859824316231147
6201320 215 12468901080819172583
6669772 16 18336832974773186679
9961470 85 18195244648858798320

> <PUBCHEM_SHAPE_MULTIPOLES>
602.89
26.7
2.51
1.31
9.66
0.77
0.19
-17.67
3.98
3.81
-0.8
-1.26
-0.16
1.01

> <PUBCHEM_SHAPE_SELFOVERLAP>
1319.065

> <PUBCHEM_SHAPE_VOLUME>
331.2

> <PUBCHEM_COORDINATE_TYPE>
2
5
10

$$$$
