11165377
  -OEChem-03292013303D

 49 51  0     0  0  0  0  0  0999 V2000
    0.0420   -2.5599    0.3198 O   0  0  0  0  0  0  0  0  0  0  0  0
    2.7815   -1.6670    1.9668 O   0  0  0  0  0  0  0  0  0  0  0  0
   -2.4596   -2.4306   -0.1141 O   0  0  0  0  0  0  0  0  0  0  0  0
   -2.4408    2.8989    0.2803 O   0  0  0  0  0  0  0  0  0  0  0  0
   -4.9787   -2.4762   -0.5631 O   0  0  0  0  0  0  0  0  0  0  0  0
    4.3591    2.6610    0.1621 O   0  0  0  0  0  0  0  0  0  0  0  0
    2.8243    1.8136   -1.3368 O   0  0  0  0  0  0  0  0  0  0  0  0
   -1.1971   -0.4827    0.2537 C   0  0  0  0  0  0  0  0  0  0  0  0
    1.1862   -0.5195    0.6754 C   0  0  0  0  0  0  0  0  0  0  0  0
   -1.1931    0.9099    0.3578 C   0  0  0  0  0  0  0  0  0  0  0  0
    1.1901    0.8700    0.7793 C   0  0  0  0  0  0  0  0  0  0  0  0
   -0.0042   -1.1981    0.4128 C   0  0  0  0  0  0  0  0  0  0  0  0
    0.0036    1.5870    0.6210 C   0  0  0  0  0  0  0  0  0  0  0  0
    3.3147   -1.5569   -0.3812 C   0  0  0  0  0  0  0  0  0  0  0  0
    2.4305   -1.2646    0.8418 C   0  0  0  0  0  0  0  0  0  0  0  0
   -3.7043   -0.4424   -0.1876 C   0  0  0  0  0  0  0  0  0  0  0  0
   -2.4529   -1.2098   -0.0226 C   0  0  0  0  0  0  0  0  0  0  0  0
   -3.7002    0.9501   -0.0838 C   0  0  0  0  0  0  0  0  0  0  0  0
   -2.4443    1.6772    0.1920 C   0  0  0  0  0  0  0  0  0  0  0  0
    4.8055   -1.6319   -0.0459 C   0  0  0  0  0  0  0  0  0  0  0  0
    2.4511    1.6217    1.0597 C   0  0  0  0  0  0  0  0  0  0  0  0
    5.6446   -1.8862   -1.2976 C   0  0  0  0  0  0  0  0  0  0  0  0
   -4.9014   -1.1195   -0.4491 C   0  0  0  0  0  0  0  0  0  0  0  0
   -4.8933    1.6655   -0.2413 C   0  0  0  0  0  0  0  0  0  0  0  0
   -6.0882   -0.4028   -0.6052 C   0  0  0  0  0  0  0  0  0  0  0  0
   -6.0842    0.9868   -0.5014 C   0  0  0  0  0  0  0  0  0  0  0  0
    3.2021    2.0258   -0.1925 C   0  0  0  0  0  0  0  0  0  0  0  0
    7.1298   -1.9238   -0.9747 C   0  0  0  0  0  0  0  0  0  0  0  0
    5.1772    3.1041   -0.9255 C   0  0  0  0  0  0  0  0  0  0  0  0
    0.0178    2.6714    0.7011 H   0  0  0  0  0  0  0  0  0  0  0  0
    2.9793   -2.5132   -0.7997 H   0  0  0  0  0  0  0  0  0  0  0  0
    3.1411   -0.7878   -1.1397 H   0  0  0  0  0  0  0  0  0  0  0  0
    4.9821   -2.4298    0.6855 H   0  0  0  0  0  0  0  0  0  0  0  0
    5.1183   -0.6940    0.4294 H   0  0  0  0  0  0  0  0  0  0  0  0
    2.2123    2.5394    1.6130 H   0  0  0  0  0  0  0  0  0  0  0  0
    3.1225    1.0441    1.7043 H   0  0  0  0  0  0  0  0  0  0  0  0
    5.4592   -1.0977   -2.0363 H   0  0  0  0  0  0  0  0  0  0  0  0
    5.3499   -2.8372   -1.7563 H   0  0  0  0  0  0  0  0  0  0  0  0
   -4.9167    2.7493   -0.1651 H   0  0  0  0  0  0  0  0  0  0  0  0
   -7.0216   -0.9213   -0.8082 H   0  0  0  0  0  0  0  0  0  0  0  0
   -7.0094    1.5426   -0.6233 H   0  0  0  0  0  0  0  0  0  0  0  0
    7.7108   -2.1076   -1.8838 H   0  0  0  0  0  0  0  0  0  0  0  0
    7.3556   -2.7213   -0.2597 H   0  0  0  0  0  0  0  0  0  0  0  0
    7.4619   -0.9730   -0.5457 H   0  0  0  0  0  0  0  0  0  0  0  0
    0.9173   -2.9078    0.5505 H   0  0  0  0  0  0  0  0  0  0  0  0
   -4.1076   -2.8822   -0.4422 H   0  0  0  0  0  0  0  0  0  0  0  0
    6.0599    3.5961   -0.5085 H   0  0  0  0  0  0  0  0  0  0  0  0
    4.6311    3.8248   -1.5415 H   0  0  0  0  0  0  0  0  0  0  0  0
    5.5023    2.2490   -1.5260 H   0  0  0  0  0  0  0  0  0  0  0  0
  1 12  1  0  0  0  0
  1 45  1  0  0  0  0
  2 15  2  0  0  0  0
  3 17  2  0  0  0  0
  4 19  2  0  0  0  0
  5 23  1  0  0  0  0
  5 46  1  0  0  0  0
  6 27  1  0  0  0  0
  6 29  1  0  0  0  0
  7 27  2  0  0  0  0
  8 10  2  0  0  0  0
  8 12  1  0  0  0  0
  8 17  1  0  0  0  0
  9 11  1  0  0  0  0
  9 12  2  0  0  0  0
  9 15  1  0  0  0  0
 10 13  1  0  0  0  0
 10 19  1  0  0  0  0
 11 13  2  0  0  0  0
 11 21  1  0  0  0  0
 13 30  1  0  0  0  0
 14 15  1  0  0  0  0
 14 20  1  0  0  0  0
 14 31  1  0  0  0  0
 14 32  1  0  0  0  0
 16 17  1  0  0  0  0
 16 18  2  0  0  0  0
 16 23  1  0  0  0  0
 18 19  1  0  0  0  0
 18 24  1  0  0  0  0
 20 22  1  0  0  0  0
 20 33  1  0  0  0  0
 20 34  1  0  0  0  0
 21 27  1  0  0  0  0
 21 35  1  0  0  0  0
 21 36  1  0  0  0  0
 22 28  1  0  0  0  0
 22 37  1  0  0  0  0
 22 38  1  0  0  0  0
 23 25  2  0  0  0  0
 24 26  2  0  0  0  0
 24 39  1  0  0  0  0
 25 26  1  0  0  0  0
 25 40  1  0  0  0  0
 26 41  1  0  0  0  0
 28 42  1  0  0  0  0
 28 43  1  0  0  0  0
 28 44  1  0  0  0  0
 29 47  1  0  0  0  0
 29 48  1  0  0  0  0
 29 49  1  0  0  0  0
M  END
> <PUBCHEM_COMPOUND_CID>
11165377

> <PUBCHEM_CONFORMER_RMSD>
0.8

> <PUBCHEM_CONFORMER_DIVERSEORDER>
1
18
52
44
35
50
48
34
12
49
3
15
23
43
9
11
26
39
19
13
40
42
45
30
53
4
33
38
29
31
25
27
46
41
37
8
51
47
17
32
2
6
5
22
24
7
20
16
28
21
14
10
36

> <PUBCHEM_MMFF94_PARTIAL_CHARGES>
32
1 -0.53
10 0.09
11 -0.14
12 0.08
13 -0.15
14 0.06
15 0.42
16 0.09
17 0.4
18 0.09
19 0.4
2 -0.57
21 0.2
23 0.08
24 -0.15
25 -0.15
26 -0.15
27 0.66
29 0.28
3 -0.57
30 0.15
39 0.15
4 -0.57
40 0.15
41 0.15
45 0.45
46 0.45
5 -0.53
6 -0.43
7 -0.57
8 0.09
9 0.09

> <PUBCHEM_EFFECTIVE_ROTOR_COUNT>
7

> <PUBCHEM_PHARMACOPHORE_FEATURES>
10
1 1 donor
1 2 acceptor
1 28 hydrophobe
1 3 acceptor
1 4 acceptor
1 5 donor
1 7 acceptor
6 16 18 23 24 25 26 rings
6 8 10 16 17 18 19 rings
6 8 9 10 11 12 13 rings

> <PUBCHEM_HEAVY_ATOM_COUNT>
29

> <PUBCHEM_ATOM_DEF_STEREO_COUNT>
0

> <PUBCHEM_ATOM_UDEF_STEREO_COUNT>
0

> <PUBCHEM_BOND_DEF_STEREO_COUNT>
0

> <PUBCHEM_BOND_UDEF_STEREO_COUNT>
0

> <PUBCHEM_ISOTOPIC_ATOM_COUNT>
0

> <PUBCHEM_COMPONENT_COUNT>
1

> <PUBCHEM_CACTVS_TAUTO_COUNT>
191

> <PUBCHEM_CONFORMER_ID>
00AA5EC100000001

> <PUBCHEM_MMFF94_ENERGY>
81.1804

> <PUBCHEM_FEATURE_SELFOVERLAP>
50.789

> <PUBCHEM_SHAPE_FINGERPRINT>
12236239 1 17822856355499279203
12788726 201 17846504720963265905
13140716 1 18338782477760664995
14068700 675 18269557148767435328
14790565 3 18411138022428301057
15183329 4 18410863131556970254
15196674 1 18411130355963989929
18681886 176 18342170047316181650
20554085 129 17986945453407536800
20612939 158 18410015433503244208
20691752 17 17458338637175951176
21033648 29 16009017368407715327
21267235 1 18413108351850295707
21279426 13 18411415107684320837
21781055 127 17274272630397666193
22149856 69 18342184388765605179
22393880 68 18335134250470878877
23559900 14 18272080565684681994
3004659 81 18409726240237999249
335352 9 18341608162910054781
350125 39 18337106774341710337
46194498 28 18412829066826650790
474 4 17604147150589708740
484989 97 18336276724593707099
5104073 3 18410847777275630617
67856867 119 18334564759414271216
9709674 26 18338793537359558587

> <PUBCHEM_SHAPE_MULTIPOLES>
555.72
14.82
3.39
1.06
2.34
1.1
0.1
-2.88
-6.24
3.09
-0.41
1.13
-0.1
-0.23

> <PUBCHEM_SHAPE_SELFOVERLAP>
1213.252

> <PUBCHEM_SHAPE_VOLUME>
301.4

> <PUBCHEM_COORDINATE_TYPE>
2
5
10

$$$$
