11167261
  -OEChem-03292013303D

 55 60  0     1  0  0  0  0  0999 V2000
    1.0565    2.3845   -1.4666 O   0  0  0  0  0  0  0  0  0  0  0  0
   -4.1829   -0.1035   -0.3215 O   0  0  0  0  0  0  0  0  0  0  0  0
   -2.6390   -3.8213   -0.3849 O   0  0  0  0  0  0  0  0  0  0  0  0
   -3.1965    4.5857   -1.7405 O   0  0  0  0  0  0  0  0  0  0  0  0
    1.1756   -3.9013   -3.1851 O   0  0  0  0  0  0  0  0  0  0  0  0
    6.4147    0.4107    1.1120 O   0  0  0  0  0  0  0  0  0  0  0  0
    0.0344    0.1573    5.5417 O   0  0  0  0  0  0  0  0  0  0  0  0
    0.2030    0.2394   -0.6605 C   0  0  1  0  0  0  0  0  0  0  0  0
    1.3683    0.9680   -1.4001 C   0  0  2  0  0  0  0  0  0  0  0  0
   -0.8829    1.2380   -0.9175 C   0  0  0  0  0  0  0  0  0  0  0  0
   -0.1283   -1.1839   -1.0675 C   0  0  0  0  0  0  0  0  0  0  0  0
   -2.1872   -1.1506    0.4857 C   0  0  2  0  0  0  0  0  0  0  0  0
   -1.2556   -1.8344   -0.5098 C   0  0  0  0  0  0  0  0  0  0  0  0
   -2.2570    1.1724   -0.7270 C   0  0  0  0  0  0  0  0  0  0  0  0
   -0.3085    2.4281   -1.3558 C   0  0  0  0  0  0  0  0  0  0  0  0
   -2.9592   -0.0312   -0.2029 C   0  0  0  0  0  0  0  0  0  0  0  0
    2.7175    0.8192   -0.7285 C   0  0  0  0  0  0  0  0  0  0  0  0
    0.6779   -1.9136   -1.9592 C   0  0  0  0  0  0  0  0  0  0  0  0
   -1.5520   -3.1614   -0.8838 C   0  0  0  0  0  0  0  0  0  0  0  0
   -3.0288    2.3109   -1.0232 C   0  0  0  0  0  0  0  0  0  0  0  0
   -1.5887   -0.7981    1.8477 C   0  0  0  0  0  0  0  0  0  0  0  0
   -1.0472    3.5640   -1.6315 C   0  0  0  0  0  0  0  0  0  0  0  0
   -2.4264    3.4955   -1.4706 C   0  0  0  0  0  0  0  0  0  0  0  0
    0.3729   -3.2295   -2.3145 C   0  0  0  0  0  0  0  0  0  0  0  0
   -0.7441   -3.8530   -1.7800 C   0  0  0  0  0  0  0  0  0  0  0  0
    3.8071    0.3374   -1.4530 C   0  0  0  0  0  0  0  0  0  0  0  0
    2.8691    1.1641    0.6142 C   0  0  0  0  0  0  0  0  0  0  0  0
   -0.5061   -1.5241    2.3378 C   0  0  0  0  0  0  0  0  0  0  0  0
   -2.1289    0.2476    2.5924 C   0  0  0  0  0  0  0  0  0  0  0  0
    5.0497    0.2001   -0.8343 C   0  0  0  0  0  0  0  0  0  0  0  0
    4.1118    1.0270    1.2331 C   0  0  0  0  0  0  0  0  0  0  0  0
    5.2021    0.5450    0.5087 C   0  0  0  0  0  0  0  0  0  0  0  0
    0.0398   -1.2025    3.5805 C   0  0  0  0  0  0  0  0  0  0  0  0
   -1.5829    0.5692    3.8351 C   0  0  0  0  0  0  0  0  0  0  0  0
   -0.4984   -0.1559    4.3292 C   0  0  0  0  0  0  0  0  0  0  0  0
    0.4069    0.2428    0.4131 H   0  0  0  0  0  0  0  0  0  0  0  0
    1.4346    0.6511   -2.4496 H   0  0  0  0  0  0  0  0  0  0  0  0
   -2.9748   -1.8515    0.7896 H   0  0  0  0  0  0  0  0  0  0  0  0
    1.5697   -1.4764   -2.3964 H   0  0  0  0  0  0  0  0  0  0  0  0
   -4.1088    2.2997   -0.8908 H   0  0  0  0  0  0  0  0  0  0  0  0
   -0.5600    4.4735   -1.9670 H   0  0  0  0  0  0  0  0  0  0  0  0
   -0.9896   -4.8761   -2.0530 H   0  0  0  0  0  0  0  0  0  0  0  0
    3.7050    0.0665   -2.5003 H   0  0  0  0  0  0  0  0  0  0  0  0
    2.0392    1.5595    1.1933 H   0  0  0  0  0  0  0  0  0  0  0  0
   -0.0733   -2.3558    1.7906 H   0  0  0  0  0  0  0  0  0  0  0  0
   -2.9831    0.8200    2.2442 H   0  0  0  0  0  0  0  0  0  0  0  0
    5.8953   -0.1756   -1.4038 H   0  0  0  0  0  0  0  0  0  0  0  0
    4.2182    1.3028    2.2788 H   0  0  0  0  0  0  0  0  0  0  0  0
   -3.4131   -3.2394   -0.4697 H   0  0  0  0  0  0  0  0  0  0  0  0
    0.8824   -1.7771    3.9558 H   0  0  0  0  0  0  0  0  0  0  0  0
   -2.0087    1.3833    4.4154 H   0  0  0  0  0  0  0  0  0  0  0  0
   -2.6213    5.3126   -2.0352 H   0  0  0  0  0  0  0  0  0  0  0  0
    0.8186   -4.7963   -3.3179 H   0  0  0  0  0  0  0  0  0  0  0  0
    6.3383    0.6943    2.0392 H   0  0  0  0  0  0  0  0  0  0  0  0
    0.7765   -0.4444    5.7247 H   0  0  0  0  0  0  0  0  0  0  0  0
  1  9  1  0  0  0  0
  1 15  1  0  0  0  0
  2 16  2  0  0  0  0
  3 19  1  0  0  0  0
  3 49  1  0  0  0  0
  4 23  1  0  0  0  0
  4 52  1  0  0  0  0
  5 24  1  0  0  0  0
  5 53  1  0  0  0  0
  6 32  1  0  0  0  0
  6 54  1  0  0  0  0
  7 35  1  0  0  0  0
  7 55  1  0  0  0  0
  8  9  1  0  0  0  0
  8 10  1  0  0  0  0
  8 11  1  0  0  0  0
  8 36  1  0  0  0  0
  9 17  1  0  0  0  0
  9 37  1  0  0  0  0
 10 14  2  0  0  0  0
 10 15  1  0  0  0  0
 11 13  2  0  0  0  0
 11 18  1  0  0  0  0
 12 13  1  0  0  0  0
 12 16  1  0  0  0  0
 12 21  1  0  0  0  0
 12 38  1  0  0  0  0
 13 19  1  0  0  0  0
 14 16  1  0  0  0  0
 14 20  1  0  0  0  0
 15 22  2  0  0  0  0
 17 26  2  0  0  0  0
 17 27  1  0  0  0  0
 18 24  2  0  0  0  0
 18 39  1  0  0  0  0
 19 25  2  0  0  0  0
 20 23  2  0  0  0  0
 20 40  1  0  0  0  0
 21 28  2  0  0  0  0
 21 29  1  0  0  0  0
 22 23  1  0  0  0  0
 22 41  1  0  0  0  0
 24 25  1  0  0  0  0
 25 42  1  0  0  0  0
 26 30  1  0  0  0  0
 26 43  1  0  0  0  0
 27 31  2  0  0  0  0
 27 44  1  0  0  0  0
 28 33  1  0  0  0  0
 28 45  1  0  0  0  0
 29 34  2  0  0  0  0
 29 46  1  0  0  0  0
 30 32  2  0  0  0  0
 30 47  1  0  0  0  0
 31 32  1  0  0  0  0
 31 48  1  0  0  0  0
 33 35  2  0  0  0  0
 33 50  1  0  0  0  0
 34 35  1  0  0  0  0
 34 51  1  0  0  0  0
M  END
> <PUBCHEM_COMPOUND_CID>
11167261

> <PUBCHEM_CONFORMER_RMSD>
0.8

> <PUBCHEM_CONFORMER_DIVERSEORDER>
1

> <PUBCHEM_MMFF94_PARTIAL_CHARGES>
52
1 -0.36
10 -0.14
11 -0.14
12 0.35
13 -0.14
14 0.09
15 0.08
16 0.42
17 -0.14
18 -0.15
19 0.08
2 -0.57
20 -0.15
21 -0.14
22 -0.15
23 0.08
24 0.08
25 -0.15
26 -0.15
27 -0.15
28 -0.15
29 -0.15
3 -0.53
30 -0.15
31 -0.15
32 0.08
33 -0.15
34 -0.15
35 0.08
39 0.15
4 -0.53
40 0.15
41 0.15
42 0.15
43 0.15
44 0.15
45 0.15
46 0.15
47 0.15
48 0.15
49 0.45
5 -0.53
50 0.15
51 0.15
52 0.45
53 0.45
54 0.45
55 0.45
6 -0.53
7 -0.53
8 0.29
9 0.42

> <PUBCHEM_EFFECTIVE_ROTOR_COUNT>
2.6

> <PUBCHEM_PHARMACOPHORE_FEATURES>
13
1 1 acceptor
1 2 acceptor
1 3 donor
1 4 donor
1 5 donor
1 6 donor
1 7 donor
5 1 8 9 10 15 rings
6 10 14 15 20 22 23 rings
6 11 13 18 19 24 25 rings
6 17 26 27 30 31 32 rings
6 21 28 29 33 34 35 rings
7 8 10 11 12 13 14 16 rings

> <PUBCHEM_HEAVY_ATOM_COUNT>
35

> <PUBCHEM_ATOM_DEF_STEREO_COUNT>
3

> <PUBCHEM_ATOM_UDEF_STEREO_COUNT>
0

> <PUBCHEM_BOND_DEF_STEREO_COUNT>
0

> <PUBCHEM_BOND_UDEF_STEREO_COUNT>
0

> <PUBCHEM_ISOTOPIC_ATOM_COUNT>
0

> <PUBCHEM_COMPONENT_COUNT>
1

> <PUBCHEM_CACTVS_TAUTO_COUNT>
998

> <PUBCHEM_CONFORMER_ID>
00AA661D00000001

> <PUBCHEM_MMFF94_ENERGY>
123.9948

> <PUBCHEM_FEATURE_SELFOVERLAP>
66.119

> <PUBCHEM_SHAPE_FINGERPRINT>
10169797 241 16165519370978448845
10305334 12 17387963180265370008
107951 10 17387992867026305852
11578080 2 17915461585036876449
12156800 1 17477425106941176639
12422481 6 18053129451401901763
12655364 131 17055272879541371486
12788726 201 17967543388564192492
13004483 165 17980463882919547238
131258 38 9118853518376659628
13583140 156 15120742810463262916
13965767 371 17983611591547331754
14114206 34 17169527779325786252
14400156 96 16901658013405338577
14844126 61 18261943129202358100
15361156 5 18041283257763973764
20600515 1 17128191746842856575
20771845 35 17402957353541258459
21033648 29 18058145303252041408
22223350 30 16837399594873079631
23419403 2 17329477905899048889
3380486 77 17621893405638015055
3411729 13 17391907059887321997
3493558 16 16116239272568006680
35225 105 17265191883574503627
376196 1 17973989675051274740
469060 322 18121227738232624906
56638632 10 16765670295354973650
59444896 2 17246346129978782821
6376802 137 13738427312751553581
9981440 41 18265610979185025588

> <PUBCHEM_SHAPE_MULTIPOLES>
679.2
6.91
4.66
4.46
12.85
1.88
6.77
2.97
0.97
-4.63
-4.78
-0.94
-3.95
1.16

> <PUBCHEM_SHAPE_SELFOVERLAP>
1547.963

> <PUBCHEM_SHAPE_VOLUME>
350.2

> <PUBCHEM_COORDINATE_TYPE>
2
5
10

$$$$
