11165858
  -OEChem-03292013303D

 53 56  0     1  0  0  0  0  0999 V2000
    1.2160    0.1349   -0.4414 O   0  0  0  0  0  0  0  0  0  0  0  0
    4.0833   -1.9439    0.1960 O   0  0  0  0  0  0  0  0  0  0  0  0
   -2.1022    2.3407    1.5307 O   0  0  0  0  0  0  0  0  0  0  0  0
    0.4652    3.0526    1.6093 O   0  0  0  0  0  0  0  0  0  0  0  0
    2.5947    3.3292   -0.2905 O   0  0  0  0  0  0  0  0  0  0  0  0
    0.2102    2.2387   -2.4251 O   0  0  0  0  0  0  0  0  0  0  0  0
   -1.1739   -0.6329    1.6204 O   0  0  0  0  0  0  0  0  0  0  0  0
   -1.2835    1.9983   -0.6379 N   0  0  0  0  0  0  0  0  0  0  0  0
    0.9707    1.5293   -0.2164 C   0  0  1  0  0  0  0  0  0  0  0  0
    0.2376    1.7347    1.1187 C   0  0  2  0  0  0  0  0  0  0  0  0
   -1.2317    1.5724    0.7315 C   0  0  1  0  0  0  0  0  0  0  0  0
    3.1230   -1.3966   -0.7004 C   0  0  2  0  0  0  0  0  0  0  0  0
    2.6028   -0.0277   -0.5320 C   0  0  0  0  0  0  0  0  0  0  0  0
    2.7363   -2.4193    0.3146 C   0  0  1  0  0  0  0  0  0  0  0  0
    2.3354    2.1365   -0.3140 C   0  0  0  0  0  0  0  0  0  0  0  0
   -0.0356    1.9754   -1.2580 C   0  0  0  0  0  0  0  0  0  0  0  0
    3.3387    1.0869   -0.4688 C   0  0  0  0  0  0  0  0  0  0  0  0
   -1.6810    0.1425    0.8131 C   0  0  0  0  0  0  0  0  0  0  0  0
    2.3336   -3.7350   -0.1569 C   0  0  0  0  0  0  0  0  0  0  0  0
    4.7947    1.3259   -0.5428 C   0  0  0  0  0  0  0  0  0  0  0  0
   -2.7574   -0.3322   -0.1018 C   0  0  0  0  0  0  0  0  0  0  0  0
   -2.0851    1.9222    2.8936 C   0  0  0  0  0  0  0  0  0  0  0  0
    1.1137   -4.2762   -0.0164 C   0  0  0  0  0  0  0  0  0  0  0  0
   -2.4030   -0.8511   -1.3272 C   0  0  0  0  0  0  0  0  0  0  0  0
   -4.0673   -0.2344    0.3118 C   0  0  0  0  0  0  0  0  0  0  0  0
   -0.0352   -3.5898    0.6607 C   0  0  0  0  0  0  0  0  0  0  0  0
   -3.4107   -1.2950   -2.1836 C   0  0  0  0  0  0  0  0  0  0  0  0
   -5.0750   -0.6783   -0.5444 C   0  0  0  0  0  0  0  0  0  0  0  0
   -0.0677   -3.8995    2.1491 C   0  0  0  0  0  0  0  0  0  0  0  0
   -4.7467   -1.2086   -1.7921 C   0  0  0  0  0  0  0  0  0  0  0  0
    0.5730    1.0284    1.8857 H   0  0  0  0  0  0  0  0  0  0  0  0
    3.2039   -1.7002   -1.7389 H   0  0  0  0  0  0  0  0  0  0  0  0
    2.2357   -2.0908    1.2198 H   0  0  0  0  0  0  0  0  0  0  0  0
   -2.1406    2.2445   -1.1234 H   0  0  0  0  0  0  0  0  0  0  0  0
    1.3895    3.0998    1.9070 H   0  0  0  0  0  0  0  0  0  0  0  0
    3.0928   -4.3337   -0.6550 H   0  0  0  0  0  0  0  0  0  0  0  0
    5.0279    2.0148   -1.3608 H   0  0  0  0  0  0  0  0  0  0  0  0
    5.3531    0.4017   -0.7182 H   0  0  0  0  0  0  0  0  0  0  0  0
    5.1569    1.7661    0.3914 H   0  0  0  0  0  0  0  0  0  0  0  0
   -2.6094    2.6898    3.4717 H   0  0  0  0  0  0  0  0  0  0  0  0
   -1.0793    1.8338    3.3115 H   0  0  0  0  0  0  0  0  0  0  0  0
   -2.6420    0.9913    3.0321 H   0  0  0  0  0  0  0  0  0  0  0  0
    0.9399   -5.2798   -0.3957 H   0  0  0  0  0  0  0  0  0  0  0  0
   -1.3647   -0.9276   -1.6351 H   0  0  0  0  0  0  0  0  0  0  0  0
   -4.3299    0.1762    1.2817 H   0  0  0  0  0  0  0  0  0  0  0  0
    0.0133   -2.5102    0.4979 H   0  0  0  0  0  0  0  0  0  0  0  0
   -0.9690   -3.9248    0.1940 H   0  0  0  0  0  0  0  0  0  0  0  0
   -3.1548   -1.7095   -3.1543 H   0  0  0  0  0  0  0  0  0  0  0  0
   -6.1153   -0.6113   -0.2396 H   0  0  0  0  0  0  0  0  0  0  0  0
   -0.1487   -4.9774    2.3269 H   0  0  0  0  0  0  0  0  0  0  0  0
   -0.9326   -3.4166    2.6153 H   0  0  0  0  0  0  0  0  0  0  0  0
    0.8327   -3.5382    2.6564 H   0  0  0  0  0  0  0  0  0  0  0  0
   -5.5313   -1.5546   -2.4586 H   0  0  0  0  0  0  0  0  0  0  0  0
  1  9  1  0  0  0  0
  1 13  1  0  0  0  0
  2 12  1  0  0  0  0
  2 14  1  0  0  0  0
  3 11  1  0  0  0  0
  3 22  1  0  0  0  0
  4 10  1  0  0  0  0
  4 35  1  0  0  0  0
  5 15  2  0  0  0  0
  6 16  2  0  0  0  0
  7 18  2  0  0  0  0
  8 11  1  0  0  0  0
  8 16  1  0  0  0  0
  8 34  1  0  0  0  0
  9 10  1  0  0  0  0
  9 15  1  0  0  0  0
  9 16  1  0  0  0  0
 10 11  1  0  0  0  0
 10 31  1  0  0  0  0
 11 18  1  0  0  0  0
 12 13  1  0  0  0  0
 12 14  1  0  0  0  0
 12 32  1  0  0  0  0
 13 17  2  0  0  0  0
 14 19  1  0  0  0  0
 14 33  1  0  0  0  0
 15 17  1  0  0  0  0
 17 20  1  0  0  0  0
 18 21  1  0  0  0  0
 19 23  2  0  0  0  0
 19 36  1  0  0  0  0
 20 37  1  0  0  0  0
 20 38  1  0  0  0  0
 20 39  1  0  0  0  0
 21 24  2  0  0  0  0
 21 25  1  0  0  0  0
 22 40  1  0  0  0  0
 22 41  1  0  0  0  0
 22 42  1  0  0  0  0
 23 26  1  0  0  0  0
 23 43  1  0  0  0  0
 24 27  1  0  0  0  0
 24 44  1  0  0  0  0
 25 28  2  0  0  0  0
 25 45  1  0  0  0  0
 26 29  1  0  0  0  0
 26 46  1  0  0  0  0
 26 47  1  0  0  0  0
 27 30  2  0  0  0  0
 27 48  1  0  0  0  0
 28 30  1  0  0  0  0
 28 49  1  0  0  0  0
 29 50  1  0  0  0  0
 29 51  1  0  0  0  0
 29 52  1  0  0  0  0
 30 53  1  0  0  0  0
M  END
> <PUBCHEM_COMPOUND_CID>
11165858

> <PUBCHEM_CONFORMER_RMSD>
1

> <PUBCHEM_CONFORMER_DIVERSEORDER>
1
43
53
27
33
51
18
8
37
21
35
34
44
14
17
10
49
48
40
16
2
54
55
28
50
39
30
22
46
25
6
29
31
23
52
19
20
9
41
24
5
4
47
13
15
11
36
12
7
26
45
42
3
38
32

> <PUBCHEM_MMFF94_PARTIAL_CHARGES>
40
1 -0.36
10 0.28
11 0.64
12 0.09
13 0.04
14 0.09
15 0.49
16 0.57
17 -0.12
18 0.42
19 -0.19
2 -0.3
20 0.14
21 0.09
22 0.28
23 -0.29
24 -0.15
25 -0.15
26 0.14
27 -0.15
28 -0.15
3 -0.56
30 -0.15
32 0.1
33 0.1
34 0.37
35 0.4
36 0.15
4 -0.68
43 0.15
44 0.15
45 0.15
48 0.15
49 0.15
5 -0.57
53 0.15
6 -0.57
7 -0.57
8 -0.73
9 0.4

> <PUBCHEM_EFFECTIVE_ROTOR_COUNT>
7.4

> <PUBCHEM_PHARMACOPHORE_FEATURES>
13
1 1 acceptor
1 2 acceptor
1 29 hydrophobe
1 3 acceptor
1 4 acceptor
1 4 donor
1 5 acceptor
1 6 acceptor
1 7 acceptor
1 8 donor
5 1 9 13 15 17 rings
5 8 9 10 11 16 rings
6 21 24 25 27 28 30 rings

> <PUBCHEM_HEAVY_ATOM_COUNT>
30

> <PUBCHEM_ATOM_DEF_STEREO_COUNT>
5

> <PUBCHEM_ATOM_UDEF_STEREO_COUNT>
0

> <PUBCHEM_BOND_DEF_STEREO_COUNT>
1

> <PUBCHEM_BOND_UDEF_STEREO_COUNT>
0

> <PUBCHEM_ISOTOPIC_ATOM_COUNT>
0

> <PUBCHEM_COMPONENT_COUNT>
1

> <PUBCHEM_CACTVS_TAUTO_COUNT>
2

> <PUBCHEM_CONFORMER_ID>
00AA60A200000001

> <PUBCHEM_MMFF94_ENERGY>
80.3786

> <PUBCHEM_FEATURE_SELFOVERLAP>
66.006

> <PUBCHEM_SHAPE_FINGERPRINT>
10675989 125 18411128156751460365
10721379 63 17608054656618135255
1100329 8 18197211671418673116
11135609 187 18409166649091817865
11578080 2 17914023483313911049
12156800 1 16390341220550564338
12422481 6 17696502619062353161
12539773 59 17843130194875156747
12788726 201 17703801305711400865
13122387 1 18337114565523642314
13140716 1 17979081814410543432
13911987 19 17970645197103098876
14178342 30 17981034224965404266
14251757 17 17749381585984180791
14787075 74 17701536436365552888
15420108 30 17264704516498126089
17138139 8 17771332355905782855
19930381 70 18334858286111723835
20511986 3 17917698137363025189
20626108 58 16270790325219970405
20775438 99 17253378524582324591
20775530 9 18195519290399771702
21285901 2 17749379360827209669
21421861 104 18129399145525186583
23419403 2 17840547549298471168
23559900 14 18121217838438612960
238 59 18333730225646388426
25265897 201 11820412321240829066
3027735 51 18335696092375316365
3380486 145 17902800656586255368
392239 28 17774135990893295042
4409770 3 15963680474866754737
46194498 28 17532365560267236335
463206 1 18342170102897847623
57527585 103 17680458579059241323
66674814 147 18119508075997326927
7097593 13 17838065801541598072
9981440 41 15758768844101290201

> <PUBCHEM_SHAPE_MULTIPOLES>
571.32
7.55
5.03
2.01
2.81
4.33
0.58
1.33
-3.18
-3.58
1.66
1.9
-0.5
-1.59

> <PUBCHEM_SHAPE_SELFOVERLAP>
1243.073

> <PUBCHEM_SHAPE_VOLUME>
313.3

> <PUBCHEM_COORDINATE_TYPE>
2
5
10

$$$$
