11161844
  -OEChem-03292013303D

 35 37  0     0  0  0  0  0  0999 V2000
   -2.8220    1.8244    0.0475 O   0  0  0  0  0  0  0  0  0  0  0  0
    5.7073    0.3185   -0.0533 O   0  0  0  0  0  0  0  0  0  0  0  0
   -0.5244    2.3729    0.0025 N   0  0  0  0  0  0  0  0  0  0  0  0
   -3.8616   -0.7799   -1.0908 N   0  0  0  0  0  0  0  0  0  0  0  0
    3.8056   -1.0702    0.0030 N   0  0  0  0  0  0  0  0  0  0  0  0
    5.9400   -1.9543   -0.0120 N   0  0  0  0  0  0  0  0  0  0  0  0
    0.3965    0.2659    0.0301 C   0  0  0  0  0  0  0  0  0  0  0  0
   -1.0575    0.1476    0.0548 C   0  0  0  0  0  0  0  0  0  0  0  0
    0.6659    1.6373   -0.0013 C   0  0  0  0  0  0  0  0  0  0  0  0
   -1.8014   -0.9597    0.0886 C   0  0  0  0  0  0  0  0  0  0  0  0
   -1.6407    1.5309    0.0362 C   0  0  0  0  0  0  0  0  0  0  0  0
    1.4264   -0.6557    0.0321 C   0  0  0  0  0  0  0  0  0  0  0  0
   -3.2412   -0.8146    0.1077 C   0  0  0  0  0  0  0  0  0  0  0  0
    1.9529    2.1376   -0.0312 C   0  0  0  0  0  0  0  0  0  0  0  0
    2.7382   -0.1704    0.0018 C   0  0  0  0  0  0  0  0  0  0  0  0
    2.9988    1.2127   -0.0295 C   0  0  0  0  0  0  0  0  0  0  0  0
   -1.1225   -2.3160    0.0940 C   0  0  0  0  0  0  0  0  0  0  0  0
   -4.1320   -0.7032    1.1122 C   0  0  0  0  0  0  0  0  0  0  0  0
   -5.2065   -0.6416   -0.8657 C   0  0  0  0  0  0  0  0  0  0  0  0
   -5.4032   -0.5909    0.4967 C   0  0  0  0  0  0  0  0  0  0  0  0
    5.1816   -0.7913   -0.0235 C   0  0  0  0  0  0  0  0  0  0  0  0
   -0.5568    3.3853   -0.0174 H   0  0  0  0  0  0  0  0  0  0  0  0
    1.2785   -1.7251    0.0562 H   0  0  0  0  0  0  0  0  0  0  0  0
    2.1505    3.2032   -0.0553 H   0  0  0  0  0  0  0  0  0  0  0  0
    3.9916    1.6398   -0.0536 H   0  0  0  0  0  0  0  0  0  0  0  0
   -1.8845   -3.1055    0.1134 H   0  0  0  0  0  0  0  0  0  0  0  0
   -0.5458   -2.4831   -0.8205 H   0  0  0  0  0  0  0  0  0  0  0  0
   -0.5209   -2.4625    0.9960 H   0  0  0  0  0  0  0  0  0  0  0  0
   -3.4270   -0.8438   -2.0022 H   0  0  0  0  0  0  0  0  0  0  0  0
   -3.9239   -0.6998    2.1731 H   0  0  0  0  0  0  0  0  0  0  0  0
    3.5536   -2.0553    0.0264 H   0  0  0  0  0  0  0  0  0  0  0  0
   -5.9011   -0.5912   -1.6924 H   0  0  0  0  0  0  0  0  0  0  0  0
   -6.3584   -0.4846    0.9915 H   0  0  0  0  0  0  0  0  0  0  0  0
    6.9537   -1.9192   -0.0282 H   0  0  0  0  0  0  0  0  0  0  0  0
    5.5092   -2.8723    0.0127 H   0  0  0  0  0  0  0  0  0  0  0  0
  1 11  2  0  0  0  0
  2 21  2  0  0  0  0
  3  9  1  0  0  0  0
  3 11  1  0  0  0  0
  3 22  1  0  0  0  0
  4 13  1  0  0  0  0
  4 19  1  0  0  0  0
  4 29  1  0  0  0  0
  5 15  1  0  0  0  0
  5 21  1  0  0  0  0
  5 31  1  0  0  0  0
  6 21  1  0  0  0  0
  6 34  1  0  0  0  0
  6 35  1  0  0  0  0
  7  8  1  0  0  0  0
  7  9  2  0  0  0  0
  7 12  1  0  0  0  0
  8 10  2  0  0  0  0
  8 11  1  0  0  0  0
  9 14  1  0  0  0  0
 10 13  1  0  0  0  0
 10 17  1  0  0  0  0
 12 15  2  0  0  0  0
 12 23  1  0  0  0  0
 13 18  2  0  0  0  0
 14 16  2  0  0  0  0
 14 24  1  0  0  0  0
 15 16  1  0  0  0  0
 16 25  1  0  0  0  0
 17 26  1  0  0  0  0
 17 27  1  0  0  0  0
 17 28  1  0  0  0  0
 18 20  1  0  0  0  0
 18 30  1  0  0  0  0
 19 20  2  0  0  0  0
 19 32  1  0  0  0  0
 20 33  1  0  0  0  0
M  END
> <PUBCHEM_COMPOUND_CID>
11161844

> <PUBCHEM_CONFORMER_RMSD>
0.6

> <PUBCHEM_CONFORMER_DIVERSEORDER>
3
8
11
5
15
10
1
16
9
7
12
6
14
2
13
4

> <PUBCHEM_MMFF94_PARTIAL_CHARGES>
32
1 -0.57
10 -0.09
11 0.62
12 -0.15
13 -0.2
14 -0.15
15 0.12
16 -0.15
17 0.14
18 -0.15
19 -0.3
2 -0.57
20 -0.15
21 0.69
22 0.37
23 0.15
24 0.15
25 0.15
29 0.27
3 -0.55
30 0.15
31 0.37
32 0.15
33 0.15
34 0.37
35 0.37
4 0.03
5 -0.55
6 -0.8
7 0.03
8 -0.01
9 0.12

> <PUBCHEM_EFFECTIVE_ROTOR_COUNT>
3.2

> <PUBCHEM_PHARMACOPHORE_FEATURES>
11
1 1 acceptor
1 17 hydrophobe
1 2 acceptor
1 3 donor
1 4 cation
1 4 donor
1 5 donor
1 6 donor
5 3 7 8 9 11 rings
5 4 13 18 19 20 rings
6 7 9 12 14 15 16 rings

> <PUBCHEM_HEAVY_ATOM_COUNT>
21

> <PUBCHEM_ATOM_DEF_STEREO_COUNT>
0

> <PUBCHEM_ATOM_UDEF_STEREO_COUNT>
0

> <PUBCHEM_BOND_DEF_STEREO_COUNT>
1

> <PUBCHEM_BOND_UDEF_STEREO_COUNT>
0

> <PUBCHEM_ISOTOPIC_ATOM_COUNT>
0

> <PUBCHEM_COMPONENT_COUNT>
1

> <PUBCHEM_CACTVS_TAUTO_COUNT>
6

> <PUBCHEM_CONFORMER_ID>
00AA50F400000003

> <PUBCHEM_MMFF94_ENERGY>
74.1635

> <PUBCHEM_FEATURE_SELFOVERLAP>
55.958

> <PUBCHEM_SHAPE_FINGERPRINT>
10906281 52 18268732600054262782
10968037 39 18336267924621916086
12236239 1 17846218899589823083
12553582 1 18337096921797763122
12555020 224 18410003373525630407
12760667 363 18412263909112612042
13140716 1 18267871772728865299
13288520 33 18410857637718817941
13533116 47 18272087236248999088
13551218 46 18271810081793480614
13685833 64 18335707165107272539
13760787 5 18338518642156544837
13862211 1 18411979161059715406
14115302 16 17894919576017925718
14739800 52 16557899203305606984
15099037 51 18408885156993266839
15196674 1 18410575076179061616
16752209 62 18336253575072766233
16945 1 18194403518516059569
17492 89 17981038936307846071
1813 80 18262252048819513844
18186145 218 17604139432823121553
18222031 100 18341322349478324322
19141452 34 18130506426385285135
19784866 140 18114178618546092930
200 152 18272930531423214969
20028762 73 18131346449011369231
20403669 9 18341618092516006854
20612939 158 18262238927320059661
20645477 70 18335980968881846255
21029758 11 18413105073851232648
21236236 1 18340206289336535369
21267235 1 18409738360656995882
21279426 13 18263922150772828191
221490 88 18190185778815564346
2297311 6 18270973353881956374
23175994 123 18186803612656252085
23198884 109 14562529561566101086
23402539 116 18343579633896603423
23522609 53 18125191361449549344
23559900 14 18337667637067665464
25147074 1 18339942462117148064
2871803 45 18259981570229825090
3004659 81 18113618959418691974
3286 77 17131545137232683377
335352 9 18410575093838634807
34934 24 18196085770910768520
350125 39 18410859849701426033
4325135 7 18335143116348884484
4463277 17 18410294713540657000
465052 167 18341338876148826878
5104073 3 18341608162762440296
559249 180 18262796246914071698
59755656 215 18336827489925246239
6138700 20 18409166576045933179
8863177 126 17824557485209243307
9709674 26 18191586569398448603
9971528 1 18341043124811555016

> <PUBCHEM_SHAPE_MULTIPOLES>
400.51
11.9
2.2
0.75
6
0.6
-0.01
-5.84
-0.32
0.91
0.02
-0.74
-0.1
-0.02

> <PUBCHEM_SHAPE_SELFOVERLAP>
891.523

> <PUBCHEM_SHAPE_VOLUME>
214.9

> <PUBCHEM_COORDINATE_TYPE>
2
5
10

$$$$
