11174640
  -OEChem-03292013303D

 37 38  0     1  0  0  0  0  0999 V2000
   -1.6074   -1.1835   -0.0376 S   0  0  0  0  0  0  0  0  0  0  0  0
    4.1961    1.2986   -0.2904 S   0  0  0  0  0  0  0  0  0  0  0  0
    0.8275    1.5906    1.2534 O   0  0  0  0  0  0  0  0  0  0  0  0
    1.1809   -0.6083    0.6913 N   0  0  0  0  0  0  0  0  0  0  0  0
   -3.3280    0.7317    0.1947 N   0  0  0  0  0  0  0  0  0  0  0  0
   -4.2044   -1.3169   -0.5963 N   0  0  0  0  0  0  0  0  0  0  0  0
    3.4572   -2.9097    1.8238 N   0  0  0  0  0  0  0  0  0  0  0  0
   -2.0989    1.2241    0.5880 C   0  0  0  0  0  0  0  0  0  0  0  0
   -1.0467    0.3344    0.5305 C   0  0  0  0  0  0  0  0  0  0  0  0
   -2.0242    2.6334    1.0259 C   0  0  0  0  0  0  0  0  0  0  0  0
    2.6023   -0.5799    0.9527 C   0  0  2  0  0  0  0  0  0  0  0  0
   -3.1845   -0.5243   -0.1541 C   0  0  0  0  0  0  0  0  0  0  0  0
    0.3297    0.5070    0.8567 C   0  0  0  0  0  0  0  0  0  0  0  0
    3.3297   -0.1607   -0.3033 C   0  0  0  0  0  0  0  0  0  0  0  0
   -1.7302    3.6054   -0.1189 C   0  0  0  0  0  0  0  0  0  0  0  0
   -5.5710   -0.8776   -0.7374 C   0  0  0  0  0  0  0  0  0  0  0  0
    3.3825   -0.8241   -1.4874 C   0  0  0  0  0  0  0  0  0  0  0  0
   -6.4301   -2.0071   -1.2724 C   0  0  0  0  0  0  0  0  0  0  0  0
    4.1688   -0.1112   -2.4379 C   0  0  0  0  0  0  0  0  0  0  0  0
    3.0788   -1.8829    1.4368 C   0  0  0  0  0  0  0  0  0  0  0  0
    4.6718    1.0611   -1.9181 C   0  0  0  0  0  0  0  0  0  0  0  0
   -2.9853    2.9157    1.4748 H   0  0  0  0  0  0  0  0  0  0  0  0
   -1.2829    2.7652    1.8208 H   0  0  0  0  0  0  0  0  0  0  0  0
    2.7756    0.1518    1.7520 H   0  0  0  0  0  0  0  0  0  0  0  0
    0.7786   -1.4691    0.3292 H   0  0  0  0  0  0  0  0  0  0  0  0
   -0.7606    3.3893   -0.5797 H   0  0  0  0  0  0  0  0  0  0  0  0
   -1.7108    4.6343    0.2535 H   0  0  0  0  0  0  0  0  0  0  0  0
   -2.4965    3.5371   -0.8985 H   0  0  0  0  0  0  0  0  0  0  0  0
   -4.0006   -2.2818   -0.8439 H   0  0  0  0  0  0  0  0  0  0  0  0
   -5.9626   -0.5518    0.2329 H   0  0  0  0  0  0  0  0  0  0  0  0
   -5.6231   -0.0261   -1.4254 H   0  0  0  0  0  0  0  0  0  0  0  0
    2.8921   -1.7682   -1.6875 H   0  0  0  0  0  0  0  0  0  0  0  0
   -6.0728   -2.3437   -2.2516 H   0  0  0  0  0  0  0  0  0  0  0  0
   -6.4137   -2.8685   -0.5961 H   0  0  0  0  0  0  0  0  0  0  0  0
   -7.4682   -1.6785   -1.3819 H   0  0  0  0  0  0  0  0  0  0  0  0
    4.3556   -0.4412   -3.4516 H   0  0  0  0  0  0  0  0  0  0  0  0
    5.2956    1.7897   -2.4164 H   0  0  0  0  0  0  0  0  0  0  0  0
  1  9  1  0  0  0  0
  1 12  1  0  0  0  0
  2 14  1  0  0  0  0
  2 21  1  0  0  0  0
  3 13  2  0  0  0  0
  4 11  1  0  0  0  0
  4 13  1  0  0  0  0
  4 25  1  0  0  0  0
  5  8  1  0  0  0  0
  5 12  2  0  0  0  0
  6 12  1  0  0  0  0
  6 16  1  0  0  0  0
  6 29  1  0  0  0  0
  7 20  3  0  0  0  0
  8  9  2  0  0  0  0
  8 10  1  0  0  0  0
  9 13  1  0  0  0  0
 10 15  1  0  0  0  0
 10 22  1  0  0  0  0
 10 23  1  0  0  0  0
 11 14  1  0  0  0  0
 11 20  1  0  0  0  0
 11 24  1  0  0  0  0
 14 17  2  0  0  0  0
 15 26  1  0  0  0  0
 15 27  1  0  0  0  0
 15 28  1  0  0  0  0
 16 18  1  0  0  0  0
 16 30  1  0  0  0  0
 16 31  1  0  0  0  0
 17 19  1  0  0  0  0
 17 32  1  0  0  0  0
 18 33  1  0  0  0  0
 18 34  1  0  0  0  0
 18 35  1  0  0  0  0
 19 21  2  0  0  0  0
 19 36  1  0  0  0  0
 21 37  1  0  0  0  0
M  END
> <PUBCHEM_COMPOUND_CID>
11174640

> <PUBCHEM_CONFORMER_RMSD>
0.8

> <PUBCHEM_CONFORMER_DIVERSEORDER>
1
254
48
152
197
166
208
251
110
232
125
122
175
216
26
54
91
165
240
64
81
138
120
230
119
217
143
96
11
35
113
183
204
205
233
61
87
214
49
195
161
252
221
199
198
88
9
86
170
226
225
130
255
126
114
133
101
169
250
248
142
72
75
90
247
201
168
60
132
136
93
231
176
67
134
147
180
194
153
68
243
108
242
118
117
237
36
89
187
239
66
164
244
56
159
178
253
156
139
16
102
63
174
223
160
227
245
76
12
14
151
218
8
246
85
17
83
29
111
171
131
127
167
129
158
42
220
186
52
202
51
211
179
43
229
13
228
234
38
99
32
181
235
128
210
27
116
25
219
182
57
82
104
189
24
206
238
59
31
100
146
185
74
47
65
112
10
190
249
105
73
192
191
84
157
155
58
212
34
121
95
92
236
135
172
23
6
213
50
173
123
41
200
40
149
5
78
140
37
55
163
71
69
150
188
98
94
203
45
145
30
215
21
77
207
79
7
44
193
162
137
15
28
3
4
107
148
141
103
144
184
22
39
53
222
109
209
2
19
115
124
154
106
62
196
241
97
224
80
70
177
18
33
20
46

> <PUBCHEM_MMFF94_PARTIAL_CHARGES>
24
1 -0.08
10 0.18
11 0.68
12 0.46
13 0.71
14 -0.14
16 0.37
17 -0.15
19 -0.15
2 -0.08
20 0.36
21 -0.11
25 0.37
29 0.4
3 -0.57
32 0.15
36 0.15
37 0.15
4 -0.73
5 -0.57
6 -0.85
7 -0.56
8 0.05
9 -0.05

> <PUBCHEM_EFFECTIVE_ROTOR_COUNT>
7

> <PUBCHEM_PHARMACOPHORE_FEATURES>
8
1 15 hydrophobe
1 3 acceptor
1 4 donor
1 6 donor
1 7 acceptor
3 5 6 12 cation
5 1 5 8 9 12 rings
5 2 14 17 19 21 rings

> <PUBCHEM_HEAVY_ATOM_COUNT>
21

> <PUBCHEM_ATOM_DEF_STEREO_COUNT>
0

> <PUBCHEM_ATOM_UDEF_STEREO_COUNT>
1

> <PUBCHEM_BOND_DEF_STEREO_COUNT>
0

> <PUBCHEM_BOND_UDEF_STEREO_COUNT>
0

> <PUBCHEM_ISOTOPIC_ATOM_COUNT>
0

> <PUBCHEM_COMPONENT_COUNT>
1

> <PUBCHEM_CACTVS_TAUTO_COUNT>
5

> <PUBCHEM_CONFORMER_ID>
00AA82F000000001

> <PUBCHEM_MMFF94_ENERGY>
20.2739

> <PUBCHEM_FEATURE_SELFOVERLAP>
40.594

> <PUBCHEM_SHAPE_FINGERPRINT>
10042902 136 16987714774350421983
10498660 4 18410577257953934900
10692045 39 11170449358428976789
11069576 57 18189320317089241522
12553582 1 18341336664667859547
12788726 201 18412829075326985739
13583140 156 16592258636815389273
15342816 4 18413666911518686090
15475509 35 15123515830064611207
15664445 248 18194113242661301377
15842332 3 18117565032944999688
16752209 62 18271526403276669659
1813 80 18272645796962024205
18222031 100 17988637545497953887
19319366 153 18114450249390040570
20871999 31 18130238085428868116
21452121 103 11242787311236674245
21618674 25 13118272690267550169
21641784 216 18259988158884341789
21713013 43 17702962343858512556
2255824 54 17604718738297421498
23016692 55 18059861701058077879
23557571 272 18060415794810274416
23558518 356 17976537218107993603
23559900 14 17700137595597347430
23598291 2 18042690494575297826
23622692 118 18337100156140031274
25147074 1 18262802843756868520
2916195 48 13334730263394628863
3004659 81 18041547066485466539
312423 11 18188215277790154146
312425 54 14764348293016732327
465052 167 16558478594477674167
474 4 17458923616649694860
495365 180 14273727452326636328
633830 44 16806740464223574240
7164475 11 18263636282055187904
7237137 82 18335416851541735997
7615 1 18188771617994622184

> <PUBCHEM_SHAPE_MULTIPOLES>
414.08
12.02
2.91
1.79
9.84
1.72
0.51
-6
7.01
1.46
-0.88
-2.47
-0.64
-2.74

> <PUBCHEM_SHAPE_SELFOVERLAP>
836.661

> <PUBCHEM_SHAPE_VOLUME>
244.1

> <PUBCHEM_COORDINATE_TYPE>
2
5
10

$$$$
