11173202
  -OEChem-03292013303D

 31 33  0     1  0  0  0  0  0999 V2000
    1.9843   -0.5136   -0.9504 O   0  0  0  0  0  0  0  0  0  0  0  0
    1.1544    2.2648    1.1738 O   0  0  0  0  0  0  0  0  0  0  0  0
    3.3435    2.1666   -0.4335 O   0  0  0  0  0  0  0  0  0  0  0  0
    3.8096   -2.5648   -0.3817 O   0  0  0  0  0  0  0  0  0  0  0  0
   -0.2302   -0.2863   -0.1291 N   0  0  0  0  0  0  0  0  0  0  0  0
   -0.2156   -1.5852    0.2343 N   0  0  0  0  0  0  0  0  0  0  0  0
   -1.8481    1.4765   -0.5358 N   0  0  0  0  0  0  0  0  0  0  0  0
   -4.0241    0.8146   -0.2326 N   0  0  0  0  0  0  0  0  0  0  0  0
   -3.0972    1.7260   -0.5382 N   0  0  0  0  0  0  0  0  0  0  0  0
   -4.6836   -1.3956    0.4225 N   0  0  0  0  0  0  0  0  0  0  0  0
    1.6828    0.9949    0.8503 C   0  0  2  0  0  0  0  0  0  0  0  0
    3.1379    1.0472    0.4282 C   0  0  1  0  0  0  0  0  0  0  0  0
    1.0286    0.4078   -0.3911 C   0  0  1  0  0  0  0  0  0  0  0  0
    3.2865   -0.2341   -0.3861 C   0  0  1  0  0  0  0  0  0  0  0  0
    3.7101   -1.4280    0.4581 C   0  0  0  0  0  0  0  0  0  0  0  0
   -1.4878    0.2325   -0.2066 C   0  0  0  0  0  0  0  0  0  0  0  0
   -2.3497   -0.7851    0.1252 C   0  0  0  0  0  0  0  0  0  0  0  0
   -1.5121   -1.8821    0.3875 C   0  0  0  0  0  0  0  0  0  0  0  0
   -3.6893   -0.4561    0.1055 C   0  0  0  0  0  0  0  0  0  0  0  0
    1.5598    0.3329    1.7153 H   0  0  0  0  0  0  0  0  0  0  0  0
    3.8313    1.1397    1.2689 H   0  0  0  0  0  0  0  0  0  0  0  0
    0.8164    1.1713   -1.1495 H   0  0  0  0  0  0  0  0  0  0  0  0
    3.9740   -0.1131   -1.2309 H   0  0  0  0  0  0  0  0  0  0  0  0
    2.9807   -1.6571    1.2414 H   0  0  0  0  0  0  0  0  0  0  0  0
    4.6851   -1.2562    0.9232 H   0  0  0  0  0  0  0  0  0  0  0  0
    1.3165    2.8587    0.4211 H   0  0  0  0  0  0  0  0  0  0  0  0
    4.2719    2.1437   -0.7220 H   0  0  0  0  0  0  0  0  0  0  0  0
   -1.7827   -2.8856    0.6835 H   0  0  0  0  0  0  0  0  0  0  0  0
    2.9385   -2.7044   -0.7908 H   0  0  0  0  0  0  0  0  0  0  0  0
   -4.4342   -2.3421    0.6750 H   0  0  0  0  0  0  0  0  0  0  0  0
   -5.6542   -1.1139    0.3966 H   0  0  0  0  0  0  0  0  0  0  0  0
  1 13  1  0  0  0  0
  1 14  1  0  0  0  0
  2 11  1  0  0  0  0
  2 26  1  0  0  0  0
  3 12  1  0  0  0  0
  3 27  1  0  0  0  0
  4 15  1  0  0  0  0
  4 29  1  0  0  0  0
  5  6  1  0  0  0  0
  5 13  1  0  0  0  0
  5 16  1  0  0  0  0
  6 18  2  0  0  0  0
  7  9  1  0  0  0  0
  7 16  2  0  0  0  0
  8  9  2  0  0  0  0
  8 19  1  0  0  0  0
 10 19  1  0  0  0  0
 10 30  1  0  0  0  0
 10 31  1  0  0  0  0
 11 12  1  0  0  0  0
 11 13  1  0  0  0  0
 11 20  1  0  0  0  0
 12 14  1  0  0  0  0
 12 21  1  0  0  0  0
 13 22  1  0  0  0  0
 14 15  1  0  0  0  0
 14 23  1  0  0  0  0
 15 24  1  0  0  0  0
 15 25  1  0  0  0  0
 16 17  1  0  0  0  0
 17 18  1  0  0  0  0
 17 19  2  0  0  0  0
 18 28  1  0  0  0  0
M  END
> <PUBCHEM_COMPOUND_CID>
11173202

> <PUBCHEM_CONFORMER_RMSD>
0.6

> <PUBCHEM_CONFORMER_DIVERSEORDER>
4
11
15
3
8
12
1
6
9
14
2
5
13
10
7

> <PUBCHEM_MMFF94_PARTIAL_CHARGES>
23
1 -0.56
10 -0.9
11 0.28
12 0.28
13 0.54
14 0.28
15 0.28
16 0.11
18 0.14
19 0.41
2 -0.68
26 0.4
27 0.4
28 0.15
29 0.4
3 -0.68
30 0.4
31 0.4
4 -0.68
5 0.31
6 -0.71
7 -0.26
8 -0.31

> <PUBCHEM_EFFECTIVE_ROTOR_COUNT>
3

> <PUBCHEM_PHARMACOPHORE_FEATURES>
14
1 1 acceptor
1 10 cation
1 10 donor
1 2 acceptor
1 2 donor
1 3 acceptor
1 3 donor
1 4 acceptor
1 4 donor
1 6 acceptor
3 5 7 16 cation
5 1 11 12 13 14 rings
5 5 6 16 17 18 rings
6 7 8 9 16 17 19 rings

> <PUBCHEM_HEAVY_ATOM_COUNT>
19

> <PUBCHEM_ATOM_DEF_STEREO_COUNT>
4

> <PUBCHEM_ATOM_UDEF_STEREO_COUNT>
0

> <PUBCHEM_BOND_DEF_STEREO_COUNT>
0

> <PUBCHEM_BOND_UDEF_STEREO_COUNT>
0

> <PUBCHEM_ISOTOPIC_ATOM_COUNT>
0

> <PUBCHEM_COMPONENT_COUNT>
1

> <PUBCHEM_CACTVS_TAUTO_COUNT>
5

> <PUBCHEM_CONFORMER_ID>
00AA7D5200000004

> <PUBCHEM_MMFF94_ENERGY>
47.9284

> <PUBCHEM_FEATURE_SELFOVERLAP>
71.185

> <PUBCHEM_SHAPE_FINGERPRINT>
10608611 8 18410852200253583709
1100329 8 16538483588758016274
11578080 2 14188460218434871994
12403259 226 18410851058156071965
12403259 415 18333447625794096989
12507560 14 18059574655118796702
13134695 92 17703211924492485416
13581323 91 18333729156288598287
13675066 3 18271515421261448194
14866123 147 16974214588227678626
15196674 1 18408885140029344133
15219456 202 18341610438319600820
15442244 35 18338798905857558328
15536298 74 18409727357061644314
15653759 3 18408602573735379425
16945 1 18124021588493092424
17804303 29 18336268954992158438
18186145 218 18343310236093661277
19049666 15 18411697694804392592
200 152 17703781514538829103
20510252 161 18410576210493500697
20645477 70 18343305868465719718
21267235 1 18408612456592589330
21501502 16 18341325707963447230
23402539 116 18338508755432194359
23559900 14 18410853244447276572
3004659 81 17970074340727113366
3286 77 18413105061119058287
335352 9 18193837046467546109
474 4 16155127225068910644
5104073 3 18409731755303081689
633830 44 18260821592744716647
69090 78 18272647995705977783
7364860 26 18411138069693650366
77779 3 18408324388756319509
81228 2 17899410072101139147
9709674 26 18408326613607927290

> <PUBCHEM_SHAPE_MULTIPOLES>
337.65
8.06
2.3
0.82
2.4
0.09
0.07
1.42
-0.09
-1.2
0.14
-0.28
-0.16
0.72

> <PUBCHEM_SHAPE_SELFOVERLAP>
734.649

> <PUBCHEM_SHAPE_VOLUME>
181.6

> <PUBCHEM_COORDINATE_TYPE>
2
5
10

$$$$
