11172711
  -OEChem-03292013303D

 29 32  0     1  0  0  0  0  0999 V2000
   -2.2703   -0.3210   -1.2622 O   0  0  0  0  0  0  0  0  0  0  0  0
   -4.3129   -0.8871    0.9628 O   0  0  0  0  0  0  0  0  0  0  0  0
   -1.6626    2.5495   -0.9782 O   0  0  0  0  0  0  0  0  0  0  0  0
   -0.1650   -0.3444   -0.2930 N   0  0  0  0  0  0  0  0  0  0  0  0
    0.8599    1.5189    0.3580 N   0  0  0  0  0  0  0  0  0  0  0  0
    1.7393   -1.8434   -0.4943 N   0  0  0  0  0  0  0  0  0  0  0  0
    3.8151   -0.6918    0.0702 N   0  0  0  0  0  0  0  0  0  0  0  0
    3.8724    1.6075    0.7278 N   0  0  0  0  0  0  0  0  0  0  0  0
   -2.7590    0.5344   -0.1950 C   0  0  1  0  0  0  0  0  0  0  0  0
   -1.3115   -1.1767   -0.6084 C   0  0  1  0  0  0  0  0  0  0  0  0
   -2.9594   -0.4422    0.9680 C   0  0  2  0  0  0  0  0  0  0  0  0
   -2.0402   -1.6229    0.6510 C   0  0  0  0  0  0  0  0  0  0  0  0
   -1.6644    1.5924    0.0766 C   0  0  1  0  0  0  0  0  0  0  0  0
   -0.3057    0.9755    0.0702 C   0  0  0  0  0  0  0  0  0  0  0  0
    1.1534   -0.6648   -0.2323 C   0  0  0  0  0  0  0  0  0  0  0  0
    1.7764    0.5085    0.1733 C   0  0  0  0  0  0  0  0  0  0  0  0
    3.1594    0.4665    0.3213 C   0  0  0  0  0  0  0  0  0  0  0  0
    3.0752   -1.7589   -0.3158 C   0  0  0  0  0  0  0  0  0  0  0  0
   -3.6895    1.0030   -0.5323 H   0  0  0  0  0  0  0  0  0  0  0  0
   -1.0032   -1.9911   -1.2692 H   0  0  0  0  0  0  0  0  0  0  0  0
   -2.7602    0.0138    1.9426 H   0  0  0  0  0  0  0  0  0  0  0  0
   -1.3552   -1.8465    1.4756 H   0  0  0  0  0  0  0  0  0  0  0  0
   -2.6263   -2.5262    0.4451 H   0  0  0  0  0  0  0  0  0  0  0  0
   -1.8524    2.1246    1.0140 H   0  0  0  0  0  0  0  0  0  0  0  0
   -4.4080   -1.5348    1.6820 H   0  0  0  0  0  0  0  0  0  0  0  0
   -1.6308    2.0693   -1.8237 H   0  0  0  0  0  0  0  0  0  0  0  0
    3.6331   -2.6693   -0.5071 H   0  0  0  0  0  0  0  0  0  0  0  0
    3.3858    2.4735    0.9165 H   0  0  0  0  0  0  0  0  0  0  0  0
    4.8767    1.5521    0.8287 H   0  0  0  0  0  0  0  0  0  0  0  0
  1  9  1  0  0  0  0
  1 10  1  0  0  0  0
  2 11  1  0  0  0  0
  2 25  1  0  0  0  0
  3 13  1  0  0  0  0
  3 26  1  0  0  0  0
  4 10  1  0  0  0  0
  4 14  1  0  0  0  0
  4 15  1  0  0  0  0
  5 14  2  0  0  0  0
  5 16  1  0  0  0  0
  6 15  2  0  0  0  0
  6 18  1  0  0  0  0
  7 17  1  0  0  0  0
  7 18  2  0  0  0  0
  8 17  1  0  0  0  0
  8 28  1  0  0  0  0
  8 29  1  0  0  0  0
  9 11  1  0  0  0  0
  9 13  1  0  0  0  0
  9 19  1  0  0  0  0
 10 12  1  0  0  0  0
 10 20  1  0  0  0  0
 11 12  1  0  0  0  0
 11 21  1  0  0  0  0
 12 22  1  0  0  0  0
 12 23  1  0  0  0  0
 13 14  1  0  0  0  0
 13 24  1  0  0  0  0
 15 16  1  0  0  0  0
 16 17  2  0  0  0  0
 18 27  1  0  0  0  0
M  END
> <PUBCHEM_COMPOUND_CID>
11172711

> <PUBCHEM_CONFORMER_RMSD>
0.6

> <PUBCHEM_CONFORMER_DIVERSEORDER>
1

> <PUBCHEM_MMFF94_PARTIAL_CHARGES>
22
1 -0.56
10 0.54
11 0.28
13 0.46
14 0.01
15 0.11
16 0.23
17 0.41
18 0.47
2 -0.68
25 0.4
26 0.4
27 0.15
28 0.4
29 0.4
3 -0.68
4 0.05
5 -0.57
6 -0.57
7 -0.62
8 -0.9
9 0.28

> <PUBCHEM_EFFECTIVE_ROTOR_COUNT>
0.8

> <PUBCHEM_PHARMACOPHORE_FEATURES>
13
1 1 acceptor
1 2 acceptor
1 2 donor
1 3 acceptor
1 3 donor
1 8 cation
1 8 donor
3 4 5 14 cation
3 4 6 15 cation
3 6 7 18 cation
5 4 5 14 15 16 rings
6 6 7 15 16 17 18 rings
8 1 4 9 10 11 12 13 14 rings

> <PUBCHEM_HEAVY_ATOM_COUNT>
18

> <PUBCHEM_ATOM_DEF_STEREO_COUNT>
4

> <PUBCHEM_ATOM_UDEF_STEREO_COUNT>
0

> <PUBCHEM_BOND_DEF_STEREO_COUNT>
0

> <PUBCHEM_BOND_UDEF_STEREO_COUNT>
0

> <PUBCHEM_ISOTOPIC_ATOM_COUNT>
0

> <PUBCHEM_COMPONENT_COUNT>
1

> <PUBCHEM_CACTVS_TAUTO_COUNT>
3

> <PUBCHEM_CONFORMER_ID>
00AA7B6700000001

> <PUBCHEM_MMFF94_ENERGY>
46.5272

> <PUBCHEM_FEATURE_SELFOVERLAP>
66.598

> <PUBCHEM_SHAPE_FINGERPRINT>
10608611 8 18339355275884321284
10618630 7 18408327691681096163
10922523 26 18338797814793362620
10967382 1 18341047527310964012
1100329 8 14158628840101718707
11132069 177 18342448292303146000
12032990 46 18339649949247936350
12251169 10 18200883971235456891
12382932 28 18341897432350580922
12730499 353 17034438160349764061
12892183 10 18129682875507590395
12932764 1 17917706911796347372
13024252 1 17894346657977913431
13140716 1 17979632665061329392
13296908 3 18335139769640939202
13581323 91 18040719172973568562
13583140 156 17098581813277014432
14144814 61 18413388722244749954
14223421 5 18410012104913937922
14790565 3 17906465676492196184
15219456 202 18411980247775676832
15309172 13 17846500322367686359
15375358 24 18335975432827088345
15375462 189 18060419135672201826
15653759 3 18259990353089902683
15775835 57 17775005734101780698
16945 1 18339920510459442980
17804303 29 18267314140129442766
17844478 74 18335145284389405745
19049666 15 18264488373470476474
19784866 170 18337961206619430192
200 152 17917139598588884655
20510252 161 18411982429761787185
20645477 70 18201429234186584022
21267235 1 18341903969649611822
21501502 16 18342732979836272612
221490 88 18339647737746071202
22721475 48 18411143549365083787
2334 1 17475788127427397780
23402539 116 18410566315025851295
23419403 2 14794930001576800843
23463225 33 18412261723084644876
23557571 272 17748826310725984516
23559900 14 18265609875963882194
25 1 17617649960901397293
2748010 2 18269269071729567684
5104073 3 18411136892397930000
598444 67 18264216798810081991
6049 1 18339368457117509628
81228 2 18113912519868994721
8809292 202 18335988579769844082
9709674 26 18340767035766077166

> <PUBCHEM_SHAPE_MULTIPOLES>
327.92
6.43
2.08
0.91
1.78
0.45
-0.03
-0.84
1.41
0.18
-0.2
-0.51
-0.01
0.93

> <PUBCHEM_SHAPE_SELFOVERLAP>
742.335

> <PUBCHEM_SHAPE_VOLUME>
168.3

> <PUBCHEM_COORDINATE_TYPE>
2
5
10

$$$$
