11178395
  -OEChem-03292013303D

 68 71  0     1  0  0  0  0  0999 V2000
    2.4312   -2.2143    0.8515 O   0  0  0  0  0  0  0  0  0  0  0  0
    1.0759    0.3301    1.4419 O   0  0  0  0  0  0  0  0  0  0  0  0
    1.1859   -0.5370   -2.1586 O   0  0  0  0  0  0  0  0  0  0  0  0
    2.5534   -2.7337   -1.4645 O   0  0  0  0  0  0  0  0  0  0  0  0
    0.1961    2.1899   -1.3289 O   0  0  0  0  0  0  0  0  0  0  0  0
   -5.9737    2.1375   -0.3557 O   0  0  0  0  0  0  0  0  0  0  0  0
   -3.0742   -0.7012    1.4493 O   0  0  0  0  0  0  0  0  0  0  0  0
    2.5600    1.2967   -0.1766 C   0  0  1  0  0  0  0  0  0  0  0  0
    3.7508    0.4213    0.2486 C   0  0  1  0  0  0  0  0  0  0  0  0
    1.2382    0.5368    0.0410 C   0  0  1  0  0  0  0  0  0  0  0  0
    3.8416   -0.8571   -0.5893 C   0  0  2  0  0  0  0  0  0  0  0  0
    1.2459   -0.8200   -0.7516 C   0  0  2  0  0  0  0  0  0  0  0  0
    2.8318    2.5644    0.6611 C   0  0  1  0  0  0  0  0  0  0  0  0
    2.5244   -1.6833   -0.4808 C   0  0  2  0  0  0  0  0  0  0  0  0
    4.9291    1.3860    0.1397 C   0  0  0  0  0  0  0  0  0  0  0  0
    4.3596    2.7459    0.5545 C   0  0  0  0  0  0  0  0  0  0  0  0
    0.0766    1.3897   -0.4011 C   0  0  0  0  0  0  0  0  0  0  0  0
    5.0780   -1.6667   -0.1524 C   0  0  0  0  0  0  0  0  0  0  0  0
    0.0117   -1.6341   -0.4220 C   0  0  0  0  0  0  0  0  0  0  0  0
    2.0900    3.8129    0.2059 C   0  0  0  0  0  0  0  0  0  0  0  0
   -1.2470    1.1775    0.3285 C   0  0  2  0  0  0  0  0  0  0  0  0
    0.0614   -2.7046    0.3882 C   0  0  0  0  0  0  0  0  0  0  0  0
    1.3552   -3.1443    1.0228 C   0  0  0  0  0  0  0  0  0  0  0  0
   -2.4529    1.4611   -0.5789 C   0  0  0  0  0  0  0  0  0  0  0  0
   -1.2727    2.0828    1.5574 C   0  0  0  0  0  0  0  0  0  0  0  0
   -1.1513   -3.5244    0.7079 C   0  0  0  0  0  0  0  0  0  0  0  0
   -3.7823    1.2005    0.1178 C   0  0  1  0  0  0  0  0  0  0  0  0
   -4.9733    1.2556   -0.8463 C   0  0  1  0  0  0  0  0  0  0  0  0
   -3.8358   -0.2239    0.6204 C   0  0  0  0  0  0  0  0  0  0  0  0
   -5.5284   -0.1336   -0.8439 C   0  0  0  0  0  0  0  0  0  0  0  0
   -4.9145   -0.9918   -0.0258 C   0  0  0  0  0  0  0  0  0  0  0  0
   -5.1912   -2.4189    0.2400 C   0  0  0  0  0  0  0  0  0  0  0  0
    2.6661    1.5490   -1.2428 H   0  0  0  0  0  0  0  0  0  0  0  0
    3.6528    0.1454    1.3088 H   0  0  0  0  0  0  0  0  0  0  0  0
    3.9897   -0.5911   -1.6451 H   0  0  0  0  0  0  0  0  0  0  0  0
    2.5847    2.3815    1.7151 H   0  0  0  0  0  0  0  0  0  0  0  0
    5.2997    1.4396   -0.8909 H   0  0  0  0  0  0  0  0  0  0  0  0
    5.7661    1.0905    0.7803 H   0  0  0  0  0  0  0  0  0  0  0  0
    4.7717    3.0674    1.5176 H   0  0  0  0  0  0  0  0  0  0  0  0
    4.6355    3.5044   -0.1871 H   0  0  0  0  0  0  0  0  0  0  0  0
    5.0553   -1.8929    0.9188 H   0  0  0  0  0  0  0  0  0  0  0  0
    5.1321   -2.6146   -0.6978 H   0  0  0  0  0  0  0  0  0  0  0  0
    6.0018   -1.1182   -0.3628 H   0  0  0  0  0  0  0  0  0  0  0  0
   -0.9305   -1.3622   -0.8901 H   0  0  0  0  0  0  0  0  0  0  0  0
    2.4957    4.6990    0.7073 H   0  0  0  0  0  0  0  0  0  0  0  0
    2.1874    3.9700   -0.8731 H   0  0  0  0  0  0  0  0  0  0  0  0
    1.0297    3.7677    0.4638 H   0  0  0  0  0  0  0  0  0  0  0  0
    1.5116   -0.5006    1.6915 H   0  0  0  0  0  0  0  0  0  0  0  0
   -1.2526    0.1515    0.6700 H   0  0  0  0  0  0  0  0  0  0  0  0
    0.3296   -0.1256   -2.3641 H   0  0  0  0  0  0  0  0  0  0  0  0
    1.6694   -2.8582   -1.8447 H   0  0  0  0  0  0  0  0  0  0  0  0
    1.2164   -3.2653    2.1023 H   0  0  0  0  0  0  0  0  0  0  0  0
    1.6647   -4.1150    0.6192 H   0  0  0  0  0  0  0  0  0  0  0  0
   -2.4280    2.4984   -0.9371 H   0  0  0  0  0  0  0  0  0  0  0  0
   -2.3659    0.8286   -1.4730 H   0  0  0  0  0  0  0  0  0  0  0  0
   -1.4684    3.1229    1.2704 H   0  0  0  0  0  0  0  0  0  0  0  0
   -0.3310    2.0926    2.1118 H   0  0  0  0  0  0  0  0  0  0  0  0
   -2.0530    1.7789    2.2620 H   0  0  0  0  0  0  0  0  0  0  0  0
   -1.3752   -3.4719    1.7780 H   0  0  0  0  0  0  0  0  0  0  0  0
   -0.9837   -4.5718    0.4370 H   0  0  0  0  0  0  0  0  0  0  0  0
   -2.0326   -3.1784    0.1609 H   0  0  0  0  0  0  0  0  0  0  0  0
   -3.9409    1.8822    0.9605 H   0  0  0  0  0  0  0  0  0  0  0  0
   -4.6879    1.5753   -1.8537 H   0  0  0  0  0  0  0  0  0  0  0  0
   -6.3740   -0.4101   -1.4609 H   0  0  0  0  0  0  0  0  0  0  0  0
   -6.7065    2.1382   -0.9953 H   0  0  0  0  0  0  0  0  0  0  0  0
   -6.0977   -2.7513   -0.2765 H   0  0  0  0  0  0  0  0  0  0  0  0
   -5.3350   -2.5905    1.3113 H   0  0  0  0  0  0  0  0  0  0  0  0
   -4.3624   -3.0433   -0.1036 H   0  0  0  0  0  0  0  0  0  0  0  0
  1 14  1  0  0  0  0
  1 23  1  0  0  0  0
  2 10  1  0  0  0  0
  2 48  1  0  0  0  0
  3 12  1  0  0  0  0
  3 50  1  0  0  0  0
  4 14  1  0  0  0  0
  4 51  1  0  0  0  0
  5 17  2  0  0  0  0
  6 28  1  0  0  0  0
  6 65  1  0  0  0  0
  7 29  2  0  0  0  0
  8  9  1  0  0  0  0
  8 10  1  0  0  0  0
  8 13  1  0  0  0  0
  8 33  1  0  0  0  0
  9 11  1  0  0  0  0
  9 15  1  0  0  0  0
  9 34  1  0  0  0  0
 10 12  1  0  0  0  0
 10 17  1  0  0  0  0
 11 14  1  0  0  0  0
 11 18  1  0  0  0  0
 11 35  1  0  0  0  0
 12 14  1  0  0  0  0
 12 19  1  0  0  0  0
 13 16  1  0  0  0  0
 13 20  1  0  0  0  0
 13 36  1  0  0  0  0
 15 16  1  0  0  0  0
 15 37  1  0  0  0  0
 15 38  1  0  0  0  0
 16 39  1  0  0  0  0
 16 40  1  0  0  0  0
 17 21  1  0  0  0  0
 18 41  1  0  0  0  0
 18 42  1  0  0  0  0
 18 43  1  0  0  0  0
 19 22  2  0  0  0  0
 19 44  1  0  0  0  0
 20 45  1  0  0  0  0
 20 46  1  0  0  0  0
 20 47  1  0  0  0  0
 21 24  1  0  0  0  0
 21 25  1  0  0  0  0
 21 49  1  0  0  0  0
 22 23  1  0  0  0  0
 22 26  1  0  0  0  0
 23 52  1  0  0  0  0
 23 53  1  0  0  0  0
 24 27  1  0  0  0  0
 24 54  1  0  0  0  0
 24 55  1  0  0  0  0
 25 56  1  0  0  0  0
 25 57  1  0  0  0  0
 25 58  1  0  0  0  0
 26 59  1  0  0  0  0
 26 60  1  0  0  0  0
 26 61  1  0  0  0  0
 27 28  1  0  0  0  0
 27 29  1  0  0  0  0
 27 62  1  0  0  0  0
 28 30  1  0  0  0  0
 28 63  1  0  0  0  0
 29 31  1  0  0  0  0
 30 31  2  0  0  0  0
 30 64  1  0  0  0  0
 31 32  1  0  0  0  0
 32 66  1  0  0  0  0
 32 67  1  0  0  0  0
 32 68  1  0  0  0  0
M  END
> <PUBCHEM_COMPOUND_CID>
11178395

> <PUBCHEM_CONFORMER_RMSD>
0.8

> <PUBCHEM_CONFORMER_DIVERSEORDER>
1
6
5
3
2
4

> <PUBCHEM_MMFF94_PARTIAL_CHARGES>
28
1 -0.56
10 0.34
12 0.42
14 0.56
17 0.45
19 -0.29
2 -0.68
21 0.06
22 -0.28
23 0.42
26 0.14
27 0.06
28 0.42
29 0.49
3 -0.68
30 -0.29
31 -0.12
32 0.14
4 -0.68
44 0.15
48 0.4
5 -0.57
50 0.4
51 0.4
6 -0.68
64 0.15
65 0.4
7 -0.57

> <PUBCHEM_EFFECTIVE_ROTOR_COUNT>
5.8

> <PUBCHEM_PHARMACOPHORE_FEATURES>
16
1 1 acceptor
1 2 acceptor
1 2 donor
1 25 hydrophobe
1 3 acceptor
1 3 donor
1 4 acceptor
1 4 donor
1 5 acceptor
1 6 acceptor
1 6 donor
1 7 acceptor
5 27 28 29 30 31 rings
5 8 9 13 15 16 rings
6 1 12 14 19 22 23 rings
6 8 9 10 11 12 14 rings

> <PUBCHEM_HEAVY_ATOM_COUNT>
32

> <PUBCHEM_ATOM_DEF_STEREO_COUNT>
10

> <PUBCHEM_ATOM_UDEF_STEREO_COUNT>
0

> <PUBCHEM_BOND_DEF_STEREO_COUNT>
0

> <PUBCHEM_BOND_UDEF_STEREO_COUNT>
0

> <PUBCHEM_ISOTOPIC_ATOM_COUNT>
0

> <PUBCHEM_COMPONENT_COUNT>
1

> <PUBCHEM_CACTVS_TAUTO_COUNT>
4

> <PUBCHEM_CONFORMER_ID>
00AA919B00000001

> <PUBCHEM_MMFF94_ENERGY>
92.5676

> <PUBCHEM_FEATURE_SELFOVERLAP>
81.372

> <PUBCHEM_SHAPE_FINGERPRINT>
10675989 125 17903911163895162273
108634 29 18337402637564942247
10930396 42 18191000384863810418
1100329 8 18410569574827011634
11370993 70 18336543914872642257
11421498 54 16701754794709200723
11488393 25 17702400476147484830
11513181 2 18201157745252229119
12011746 2 18409737235923969830
12156800 1 16768695416461609586
12422481 6 18266159790838903216
12553582 1 17690289213563974769
13140716 1 17979913813984691184
13224815 77 18271812302570491145
13402501 40 18335139790909910892
14117953 113 17834103153182809199
14787075 74 18201154476781349353
14790565 3 17688033428659812852
14955137 171 17916582026013489558
15196674 1 18410856568657115543
16114785 44 16835142310279979864
16728300 4 17245233368904257482
17093844 170 18407759239879791546
18681886 176 18271799086719218970
19591789 44 18336828594084801178
20028762 73 18201715141665139310
20197701 30 18340762753578038440
20511986 3 18059559270973294869
21033648 29 18339632468758078617
21033650 10 16371852829339597821
21197605 99 18124317365795860023
22393880 68 18336266752190965367
23559900 14 18411411787701481489
239999 70 18343302526827955294
3298306 158 18269268122663458809
3380486 145 17978810209137025123
338550 245 18262237844961700117
350125 39 18409446969265391604
3633792 109 18267576928627062981
392239 28 18412268315400645195
4073 2 18334577958376246745
4340502 62 18341607157355158824
463206 1 18269554009093912655
484989 97 18337682996203285042
508706 21 18040437724405257611
5104073 3 18409453566398410409
59755656 215 18411985780342472252
9709674 26 18334860558613082073
9896288 288 17478317644876070026

> <PUBCHEM_SHAPE_MULTIPOLES>
617.46
11.17
4.19
1.21
10.85
0.81
-0.1
-2.1
-0.88
-1.9
0.69
0.04
0.12
1.16

> <PUBCHEM_SHAPE_SELFOVERLAP>
1325.927

> <PUBCHEM_SHAPE_VOLUME>
338.7

> <PUBCHEM_COORDINATE_TYPE>
2
5
10

$$$$
