11176685
  -OEChem-03292013303D

 46 49  0     0  0  0  0  0  0999 V2000
    0.4096   -3.0033   -0.2174 O   0  0  0  0  0  0  0  0  0  0  0  0
    1.9933    1.7998   -1.2712 O   0  0  0  0  0  0  0  0  0  0  0  0
   -0.1709    1.2418    0.4259 N   0  0  0  0  0  0  0  0  0  0  0  0
   -2.2042    0.7534   -0.3271 N   0  0  0  0  0  0  0  0  0  0  0  0
   -2.9065   -2.1166    0.3850 N   0  0  0  0  0  0  0  0  0  0  0  0
    0.5241   -1.6122   -0.2493 N   0  0  0  0  0  0  0  0  0  0  0  0
   -0.9075   -3.3963    0.0282 N   0  0  0  0  0  0  0  0  0  0  0  0
    6.9745   -1.8630    0.1559 N   0  0  0  0  0  0  0  0  0  0  0  0
   -6.1451   -1.2764   -1.1977 N   0  0  0  0  0  0  0  0  0  0  0  0
   -0.8251    2.4434    0.3330 C   0  0  0  0  0  0  0  0  0  0  0  0
   -1.0356    0.2633    0.0212 C   0  0  0  0  0  0  0  0  0  0  0  0
    1.1907    1.0518    0.8737 C   0  0  0  0  0  0  0  0  0  0  0  0
   -2.0921    2.1119   -0.1394 C   0  0  0  0  0  0  0  0  0  0  0  0
   -0.7120   -1.1779   -0.0258 C   0  0  0  0  0  0  0  0  0  0  0  0
   -0.4297    3.7519    0.6129 C   0  0  0  0  0  0  0  0  0  0  0  0
    2.1897    1.1209   -0.2657 C   0  0  0  0  0  0  0  0  0  0  0  0
   -3.0331    3.1337   -0.3509 C   0  0  0  0  0  0  0  0  0  0  0  0
   -1.5787   -2.2516    0.1420 C   0  0  0  0  0  0  0  0  0  0  0  0
    3.4517    0.3324   -0.1549 C   0  0  0  0  0  0  0  0  0  0  0  0
   -1.3789    4.7562    0.3969 C   0  0  0  0  0  0  0  0  0  0  0  0
   -2.6579    4.4547   -0.0765 C   0  0  0  0  0  0  0  0  0  0  0  0
   -3.8352   -3.2290    0.5645 C   0  0  0  0  0  0  0  0  0  0  0  0
    3.9760    0.1000    1.0963 C   0  0  0  0  0  0  0  0  0  0  0  0
    4.0438   -0.1316   -1.3075 C   0  0  0  0  0  0  0  0  0  0  0  0
    5.1562   -0.6360    1.2005 C   0  0  0  0  0  0  0  0  0  0  0  0
    5.2240   -0.8677   -1.2033 C   0  0  0  0  0  0  0  0  0  0  0  0
    5.7803   -1.1199    0.0507 C   0  0  0  0  0  0  0  0  0  0  0  0
   -5.2516   -2.7202    0.8119 C   0  0  0  0  0  0  0  0  0  0  0  0
   -5.7499   -1.9134   -0.3119 C   0  0  0  0  0  0  0  0  0  0  0  0
    1.4283    1.8497    1.5860 H   0  0  0  0  0  0  0  0  0  0  0  0
    1.2459    0.1104    1.4255 H   0  0  0  0  0  0  0  0  0  0  0  0
    0.5626    3.9919    0.9772 H   0  0  0  0  0  0  0  0  0  0  0  0
   -4.0295    2.9096   -0.7183 H   0  0  0  0  0  0  0  0  0  0  0  0
   -1.1149    5.7911    0.6006 H   0  0  0  0  0  0  0  0  0  0  0  0
   -3.3739    5.2571   -0.2349 H   0  0  0  0  0  0  0  0  0  0  0  0
   -3.3111   -1.1879    0.4801 H   0  0  0  0  0  0  0  0  0  0  0  0
   -3.5173   -3.8379    1.4188 H   0  0  0  0  0  0  0  0  0  0  0  0
   -3.8182   -3.8658   -0.3286 H   0  0  0  0  0  0  0  0  0  0  0  0
    3.5201    0.4807    2.0043 H   0  0  0  0  0  0  0  0  0  0  0  0
    3.6185    0.0527   -2.2893 H   0  0  0  0  0  0  0  0  0  0  0  0
    5.5822   -0.8225    2.1831 H   0  0  0  0  0  0  0  0  0  0  0  0
    5.7002   -1.2403   -2.1066 H   0  0  0  0  0  0  0  0  0  0  0  0
   -5.9186   -3.5745    0.9735 H   0  0  0  0  0  0  0  0  0  0  0  0
   -5.2743   -2.1170    1.7274 H   0  0  0  0  0  0  0  0  0  0  0  0
    7.3772   -2.0479    1.0649 H   0  0  0  0  0  0  0  0  0  0  0  0
    7.4262   -2.2157   -0.6774 H   0  0  0  0  0  0  0  0  0  0  0  0
  1  6  1  0  0  0  0
  1  7  1  0  0  0  0
  2 16  2  0  0  0  0
  3 10  1  0  0  0  0
  3 11  1  0  0  0  0
  3 12  1  0  0  0  0
  4 11  2  0  0  0  0
  4 13  1  0  0  0  0
  5 18  1  0  0  0  0
  5 22  1  0  0  0  0
  5 36  1  0  0  0  0
  6 14  2  0  0  0  0
  7 18  2  0  0  0  0
  8 27  1  0  0  0  0
  8 45  1  0  0  0  0
  8 46  1  0  0  0  0
  9 29  3  0  0  0  0
 10 13  1  0  0  0  0
 10 15  2  0  0  0  0
 11 14  1  0  0  0  0
 12 16  1  0  0  0  0
 12 30  1  0  0  0  0
 12 31  1  0  0  0  0
 13 17  2  0  0  0  0
 14 18  1  0  0  0  0
 15 20  1  0  0  0  0
 15 32  1  0  0  0  0
 16 19  1  0  0  0  0
 17 21  1  0  0  0  0
 17 33  1  0  0  0  0
 19 23  2  0  0  0  0
 19 24  1  0  0  0  0
 20 21  2  0  0  0  0
 20 34  1  0  0  0  0
 21 35  1  0  0  0  0
 22 28  1  0  0  0  0
 22 37  1  0  0  0  0
 22 38  1  0  0  0  0
 23 25  1  0  0  0  0
 23 39  1  0  0  0  0
 24 26  2  0  0  0  0
 24 40  1  0  0  0  0
 25 27  2  0  0  0  0
 25 41  1  0  0  0  0
 26 27  1  0  0  0  0
 26 42  1  0  0  0  0
 28 29  1  0  0  0  0
 28 43  1  0  0  0  0
 28 44  1  0  0  0  0
M  END
> <PUBCHEM_COMPOUND_CID>
11176685

> <PUBCHEM_CONFORMER_RMSD>
1

> <PUBCHEM_CONFORMER_DIVERSEORDER>
1
56
232
58
290
272
438
555
610
549
247
280
143
61
266
235
427
393
479
288
543
379
572
365
283
500
307
49
206
355
223
509
148
181
444
361
529
437
51
402
237
72
425
326
502
5
246
575
491
396
564
67
274
294
71
285
551
94
251
442
538
220
109
339
45
250
573
93
238
576
577
48
144
7
489
125
197
46
191
221
337
167
171
108
111
395
480
87
343
236
259
103
556
620
166
196
154
138
227
218
312
42
262
605
2
366
96
436
541
569
208
135
411
256
26
207
542
37
373
29
464
487
263
360
596
177
114
50
242
82
83
384
80
568
99
64
157
36
66
215
498
55
387
152
205
440
73
558
270
530
313
611
478
352
598
95
90
115
239
275
316
201
57
33
342
4
582
132
414
13
6
41
9
468
447
217
8
22
15
122
53
127
14
117
163
11
32
65
43
31

> <PUBCHEM_MMFF94_PARTIAL_CHARGES>
40
1 0.24
10 -0.15
11 0.19
12 0.32
13 0.23
14 0.29
15 -0.15
16 0.42
17 -0.15
18 0.37
19 0.09
2 -0.57
20 -0.15
21 -0.15
22 0.37
23 -0.15
24 -0.15
25 -0.15
26 -0.15
27 0.1
28 0.2
29 0.36
3 0.05
32 0.15
33 0.15
34 0.15
35 0.15
36 0.4
39 0.15
4 -0.57
40 0.15
41 0.15
42 0.15
45 0.4
46 0.4
5 -0.85
6 -0.41
7 -0.41
8 -0.9
9 -0.56

> <PUBCHEM_EFFECTIVE_ROTOR_COUNT>
7

> <PUBCHEM_PHARMACOPHORE_FEATURES>
12
1 2 acceptor
1 5 donor
1 6 acceptor
1 8 cation
1 8 donor
1 9 acceptor
3 3 4 11 cation
3 5 7 18 cation
5 1 6 7 14 18 rings
5 3 4 10 11 13 rings
6 10 13 15 17 20 21 rings
6 19 23 24 25 26 27 rings

> <PUBCHEM_HEAVY_ATOM_COUNT>
29

> <PUBCHEM_ATOM_DEF_STEREO_COUNT>
0

> <PUBCHEM_ATOM_UDEF_STEREO_COUNT>
0

> <PUBCHEM_BOND_DEF_STEREO_COUNT>
0

> <PUBCHEM_BOND_UDEF_STEREO_COUNT>
0

> <PUBCHEM_ISOTOPIC_ATOM_COUNT>
0

> <PUBCHEM_COMPONENT_COUNT>
1

> <PUBCHEM_CACTVS_TAUTO_COUNT>
14

> <PUBCHEM_CONFORMER_ID>
00AA8AED00000001

> <PUBCHEM_MMFF94_ENERGY>
67.2497

> <PUBCHEM_FEATURE_SELFOVERLAP>
61.004

> <PUBCHEM_SHAPE_FINGERPRINT>
10411042 1 18338518667715728771
12645989 146 18197494228865176415
12788726 201 18262531393555696602
13004483 165 18339357590955758528
13140716 1 18412828009785232440
138480 1 16248566535967869760
14725015 67 18412822499764197698
14866123 147 18411706448528133585
14955137 171 18191595361766644659
15042514 8 18410576180133272009
15081414 286 18051138291567122345
15420108 30 17829605063534158005
15439362 3 17618503177871754692
15664445 248 17690856969934622492
15927050 60 17980481166200177095
16087824 20 18338798906823403069
19591789 44 18338800121591934865
20642791 105 18335979779223546892
21279426 13 18335131051342839575
21285901 2 18059311931726694854
21478907 32 18410296942712982313
23536364 44 18337654366146099301
24771750 20 17035294121260833485
3004659 81 18113898320907535190
3091708 16 9059257269251726849
3103668 31 18334850598921955509
4409770 3 18335137549644104457
5385378 56 17547580279544373096
59755656 215 18339356349789526477
79837 15 18194407688486186305
9981440 41 17904209126391616336

> <PUBCHEM_SHAPE_MULTIPOLES>
550.2
12.55
5.75
1.01
9.27
4.95
-0.07
-11.8
-0.92
-8.67
0.67
0.63
-0.04
0.32

> <PUBCHEM_SHAPE_SELFOVERLAP>
1204.748

> <PUBCHEM_SHAPE_VOLUME>
296

> <PUBCHEM_COORDINATE_TYPE>
2
5
10

$$$$
