11191162
  -OEChem-03292013303D

 57 61  0     0  0  0  0  0  0999 V2000
   -1.2944    2.0834   -2.5089 Cl  0  0  0  0  0  0  0  0  0  0  0  0
   -7.5816   -1.5574   -0.4426 Cl  0  0  0  0  0  0  0  0  0  0  0  0
    5.6020   -0.1909   -2.2790 O   0  0  0  0  0  0  0  0  0  0  0  0
    2.7341   -0.7146    0.6108 N   0  0  0  0  0  0  0  0  0  0  0  0
    5.0092    0.8234    0.8992 N   0  0  0  0  0  0  0  0  0  0  0  0
    0.3847   -0.8005    0.3722 N   0  0  0  0  0  0  0  0  0  0  0  0
    6.8304   -1.0744   -0.5618 N   0  0  0  0  0  0  0  0  0  0  0  0
    1.5586   -2.7681    0.4624 N   0  0  0  0  0  0  0  0  0  0  0  0
    0.2721    0.5399    0.3798 N   0  0  0  0  0  0  0  0  0  0  0  0
   -0.8286   -2.8146    0.2195 N   0  0  0  0  0  0  0  0  0  0  0  0
    4.6037   -0.2167   -0.0481 C   0  0  0  0  0  0  0  0  0  0  0  0
    3.9939   -1.3848    0.7276 C   0  0  0  0  0  0  0  0  0  0  0  0
    3.1727    0.0616   -0.5096 C   0  0  0  0  0  0  0  0  0  0  0  0
    5.7002   -0.4793   -1.0826 C   0  0  0  0  0  0  0  0  0  0  0  0
    1.5985   -1.4665    0.4855 C   0  0  0  0  0  0  0  0  0  0  0  0
    5.2706    2.0748    0.2067 C   0  0  0  0  0  0  0  0  0  0  0  0
   -0.8059   -1.4611    0.2418 C   0  0  0  0  0  0  0  0  0  0  0  0
    5.6593    3.1719    1.1833 C   0  0  0  0  0  0  0  0  0  0  0  0
   -1.7645   -0.4774    0.1589 C   0  0  0  0  0  0  0  0  0  0  0  0
    0.3310   -3.3973    0.3291 C   0  0  0  0  0  0  0  0  0  0  0  0
   -1.0440    0.7309    0.2491 C   0  0  0  0  0  0  0  0  0  0  0  0
   -3.1664   -0.7378    0.0140 C   0  0  0  0  0  0  0  0  0  0  0  0
   -1.5786    2.0692    0.2143 C   0  0  0  0  0  0  0  0  0  0  0  0
    0.4050   -4.8983    0.3139 C   0  0  0  0  0  0  0  0  0  0  0  0
   -3.7306   -0.8474   -1.2587 C   0  0  0  0  0  0  0  0  0  0  0  0
   -3.9725   -0.8830    1.1448 C   0  0  0  0  0  0  0  0  0  0  0  0
   -1.7335    2.7679   -0.9819 C   0  0  0  0  0  0  0  0  0  0  0  0
   -1.9454    2.6604    1.4224 C   0  0  0  0  0  0  0  0  0  0  0  0
   -5.0951   -1.1008   -1.3997 C   0  0  0  0  0  0  0  0  0  0  0  0
   -5.3371   -1.1361    1.0039 C   0  0  0  0  0  0  0  0  0  0  0  0
   -2.2564    4.0610   -0.9702 C   0  0  0  0  0  0  0  0  0  0  0  0
   -2.4689    3.9534    1.4344 C   0  0  0  0  0  0  0  0  0  0  0  0
   -5.8983   -1.2449   -0.2684 C   0  0  0  0  0  0  0  0  0  0  0  0
   -2.6241    4.6538    0.2379 C   0  0  0  0  0  0  0  0  0  0  0  0
    4.0503   -2.3433    0.1979 H   0  0  0  0  0  0  0  0  0  0  0  0
    4.3088   -1.5252    1.7661 H   0  0  0  0  0  0  0  0  0  0  0  0
    2.7892    1.0839   -0.4910 H   0  0  0  0  0  0  0  0  0  0  0  0
    2.9091   -0.3946   -1.4728 H   0  0  0  0  0  0  0  0  0  0  0  0
    5.8185    0.5704    1.4659 H   0  0  0  0  0  0  0  0  0  0  0  0
    6.0970    1.9705   -0.5054 H   0  0  0  0  0  0  0  0  0  0  0  0
    4.4011    2.4287   -0.3550 H   0  0  0  0  0  0  0  0  0  0  0  0
    7.6243   -1.2960   -1.1534 H   0  0  0  0  0  0  0  0  0  0  0  0
    6.9123   -1.3097    0.4220 H   0  0  0  0  0  0  0  0  0  0  0  0
    6.5667    2.9076    1.7368 H   0  0  0  0  0  0  0  0  0  0  0  0
    5.8531    4.1064    0.6467 H   0  0  0  0  0  0  0  0  0  0  0  0
    4.8581    3.3582    1.9066 H   0  0  0  0  0  0  0  0  0  0  0  0
    1.0266   -5.2228   -0.5254 H   0  0  0  0  0  0  0  0  0  0  0  0
   -0.5925   -5.3337    0.2107 H   0  0  0  0  0  0  0  0  0  0  0  0
    0.8549   -5.2494    1.2469 H   0  0  0  0  0  0  0  0  0  0  0  0
   -3.1192   -0.7398   -2.1516 H   0  0  0  0  0  0  0  0  0  0  0  0
   -3.5513   -0.8002    2.1441 H   0  0  0  0  0  0  0  0  0  0  0  0
   -1.8324    2.1297    2.3650 H   0  0  0  0  0  0  0  0  0  0  0  0
   -5.5187   -1.1836   -2.3973 H   0  0  0  0  0  0  0  0  0  0  0  0
   -5.9508   -1.2460    1.8943 H   0  0  0  0  0  0  0  0  0  0  0  0
   -2.3843    4.6211   -1.8931 H   0  0  0  0  0  0  0  0  0  0  0  0
   -2.7555    4.4149    2.3748 H   0  0  0  0  0  0  0  0  0  0  0  0
   -3.0315    5.6604    0.2471 H   0  0  0  0  0  0  0  0  0  0  0  0
  1 27  1  0  0  0  0
  2 33  1  0  0  0  0
  3 14  2  0  0  0  0
  4 12  1  0  0  0  0
  4 13  1  0  0  0  0
  4 15  1  0  0  0  0
  5 11  1  0  0  0  0
  5 16  1  0  0  0  0
  5 39  1  0  0  0  0
  6  9  1  0  0  0  0
  6 15  1  0  0  0  0
  6 17  1  0  0  0  0
  7 14  1  0  0  0  0
  7 42  1  0  0  0  0
  7 43  1  0  0  0  0
  8 15  2  0  0  0  0
  8 20  1  0  0  0  0
  9 21  2  0  0  0  0
 10 17  1  0  0  0  0
 10 20  2  0  0  0  0
 11 12  1  0  0  0  0
 11 13  1  0  0  0  0
 11 14  1  0  0  0  0
 12 35  1  0  0  0  0
 12 36  1  0  0  0  0
 13 37  1  0  0  0  0
 13 38  1  0  0  0  0
 16 18  1  0  0  0  0
 16 40  1  0  0  0  0
 16 41  1  0  0  0  0
 17 19  2  0  0  0  0
 18 44  1  0  0  0  0
 18 45  1  0  0  0  0
 18 46  1  0  0  0  0
 19 21  1  0  0  0  0
 19 22  1  0  0  0  0
 20 24  1  0  0  0  0
 21 23  1  0  0  0  0
 22 25  2  0  0  0  0
 22 26  1  0  0  0  0
 23 27  1  0  0  0  0
 23 28  2  0  0  0  0
 24 47  1  0  0  0  0
 24 48  1  0  0  0  0
 24 49  1  0  0  0  0
 25 29  1  0  0  0  0
 25 50  1  0  0  0  0
 26 30  2  0  0  0  0
 26 51  1  0  0  0  0
 27 31  2  0  0  0  0
 28 32  1  0  0  0  0
 28 52  1  0  0  0  0
 29 33  2  0  0  0  0
 29 53  1  0  0  0  0
 30 33  1  0  0  0  0
 30 54  1  0  0  0  0
 31 34  1  0  0  0  0
 31 55  1  0  0  0  0
 32 34  2  0  0  0  0
 32 56  1  0  0  0  0
 34 57  1  0  0  0  0
M  END
> <PUBCHEM_COMPOUND_CID>
11191162

> <PUBCHEM_CONFORMER_RMSD>
1

> <PUBCHEM_CONFORMER_DIVERSEORDER>
1
18
12
6
16
13
15
14
5
3
10
9
11
4
17
7
8
2

> <PUBCHEM_MMFF94_PARTIAL_CHARGES>
44
1 -0.18
10 -0.58
11 0.26
12 0.25
13 0.25
14 0.58
15 0.51
16 0.27
17 -0.03
19 -0.05
2 -0.18
20 0.6
21 0.23
22 0.05
23 0.05
24 0.06
25 -0.15
26 -0.15
27 0.18
28 -0.15
29 -0.15
3 -0.57
30 -0.15
31 -0.15
32 -0.15
33 0.18
34 -0.15
39 0.36
4 -0.54
42 0.37
43 0.37
5 -0.84
50 0.15
51 0.15
52 0.15
53 0.15
54 0.15
55 0.15
56 0.15
57 0.15
6 0.56
7 -0.8
8 -0.66
9 -0.71

> <PUBCHEM_EFFECTIVE_ROTOR_COUNT>
6.8

> <PUBCHEM_PHARMACOPHORE_FEATURES>
11
1 3 acceptor
1 5 cation
1 5 donor
1 7 donor
1 9 acceptor
4 4 11 12 13 rings
4 4 6 8 15 cation
5 6 9 17 19 21 rings
6 22 25 26 29 30 33 rings
6 23 27 28 31 32 34 rings
6 6 8 10 15 17 20 rings

> <PUBCHEM_HEAVY_ATOM_COUNT>
34

> <PUBCHEM_ATOM_DEF_STEREO_COUNT>
0

> <PUBCHEM_ATOM_UDEF_STEREO_COUNT>
0

> <PUBCHEM_BOND_DEF_STEREO_COUNT>
0

> <PUBCHEM_BOND_UDEF_STEREO_COUNT>
0

> <PUBCHEM_ISOTOPIC_ATOM_COUNT>
0

> <PUBCHEM_COMPONENT_COUNT>
1

> <PUBCHEM_CACTVS_TAUTO_COUNT>
2

> <PUBCHEM_CONFORMER_ID>
00AAC37A00000001

> <PUBCHEM_MMFF94_ENERGY>
103.9587

> <PUBCHEM_FEATURE_SELFOVERLAP>
55.966

> <PUBCHEM_SHAPE_FINGERPRINT>
10050765 1 18122626046229122171
10190108 129 18338816541346587305
102385 1 17977102354131157563
10670039 82 18335148557729414190
10930396 42 18122878062304511048
1100329 8 18122062280336766649
11578080 2 16914841136753314429
11607047 74 16839640353036956843
12107698 1 18201441376776476388
12516196 113 18410853304851424107
12788726 201 18336539439569591195
13140716 1 18192713568790746962
13383668 90 17274556381306273495
13540713 5 18046623408612623394
13583140 156 16231117415373865177
13617811 41 18262797487896350380
13631057 29 18411980226649116873
13911987 19 18261117413028714975
140371 6 18114196228339319699
14068700 675 18409445907976200133
14118638 360 18261674784357500170
14347332 77 18270963440733894998
14394314 77 18412546535710432889
14790565 3 18412268345681960425
14840074 17 18272088335713141239
14955137 171 18193003831887613107
15131766 46 15552453003104450496
15276724 80 18343585144018085661
15439362 3 17907570686516588873
15575132 122 18335139773830366229
16087824 20 18267866091901311721
21049683 271 18188209922788647975
21641784 216 18261401018129687741
21796203 349 17684411534378820795
22311459 1 18410575093823459962
23559900 14 18270686497770386946
249057 25 17822016376809351286
2747138 104 18335150833381735795
283562 15 18409446951895599107
3178227 256 18192441973220310779
350125 39 18410015390569363248
46194498 28 17846508032677780948
469060 322 18261405416397789953
5252454 2 18047197354178239724
5486654 2 18408606989115325087
5912855 24 18196934371208267881
6004065 56 18266173023707371307
6371009 1 18336253592663994512
6677587 24 15293472583026920469

> <PUBCHEM_SHAPE_MULTIPOLES>
662.71
14.63
5.49
1.48
8.13
3.03
-0.68
-2.61
-2.22
-2.3
1.05
-0.03
0.88
0.45

> <PUBCHEM_SHAPE_SELFOVERLAP>
1446.244

> <PUBCHEM_SHAPE_VOLUME>
363.7

> <PUBCHEM_COORDINATE_TYPE>
2
5
10

$$$$
