11201358
  -OEChem-03292013303D

 57 62  0     1  0  0  0  0  0999 V2000
    0.1167   -1.1367   -1.4220 O   0  0  0  0  0  0  0  0  0  0  0  0
    2.4714    1.3845    1.8827 O   0  0  0  0  0  0  0  0  0  0  0  0
    4.8814   -0.4499   -1.2523 O   0  0  0  0  0  0  0  0  0  0  0  0
    0.1755    2.8756   -0.4772 O   0  0  0  0  0  0  0  0  0  0  0  0
    0.3504    0.9565    2.5706 O   0  0  0  0  0  0  0  0  0  0  0  0
   -3.2481   -1.9790   -0.2646 O   0  0  0  0  0  0  0  0  0  0  0  0
   -1.1750   -3.0532   -1.7621 O   0  0  0  0  0  0  0  0  0  0  0  0
   -5.1610   -0.6771   -0.7054 O   0  0  0  0  0  0  0  0  0  0  0  0
   -1.4612    3.4530   -2.0019 O   0  0  0  0  0  0  0  0  0  0  0  0
    0.9856    0.6711    0.1275 C   0  0  2  0  0  0  0  0  0  0  0  0
    2.3886    0.9040   -0.4754 C   0  0  2  0  0  0  0  0  0  0  0  0
    2.5127   -0.5497   -0.9459 C   0  0  2  0  0  0  0  0  0  0  0  0
    1.0813   -0.8197   -0.3782 C   0  0  2  0  0  0  0  0  0  0  0  0
    3.2925    1.0849    0.7438 C   0  0  2  0  0  0  0  0  0  0  0  0
    3.8714   -0.9740   -0.3805 C   0  0  2  0  0  0  0  0  0  0  0  0
    3.9774   -0.2689    0.9668 C   0  0  0  0  0  0  0  0  0  0  0  0
   -0.1440    1.4778   -0.5465 C   0  0  1  0  0  0  0  0  0  0  0  0
    1.1729    0.9938    1.6637 C   0  0  0  0  0  0  0  0  0  0  0  0
    0.8906   -1.8576    0.6563 C   0  0  0  0  0  0  0  0  0  0  0  0
   -0.9032   -1.9811   -0.8659 C   0  0  1  0  0  0  0  0  0  0  0  0
   -1.5306    1.3327    0.1002 C   0  0  0  0  0  0  0  0  0  0  0  0
   -0.2438   -2.5196    0.3824 C   0  0  0  0  0  0  0  0  0  0  0  0
    4.0518   -2.4808   -0.3205 C   0  0  0  0  0  0  0  0  0  0  0  0
   -2.1565   -1.1130   -0.6380 C   0  0  2  0  0  0  0  0  0  0  0  0
   -2.0756   -0.0543    0.4801 C   0  0  2  0  0  0  0  0  0  0  0  0
   -3.5167   -0.0167    0.9388 C   0  0  0  0  0  0  0  0  0  0  0  0
   -0.8256   -3.6274    1.1865 C   0  0  0  0  0  0  0  0  0  0  0  0
   -4.2644   -1.1406    0.2978 C   0  0  2  0  0  0  0  0  0  0  0  0
   -0.7348    3.7103   -1.0514 C   0  0  0  0  0  0  0  0  0  0  0  0
   -4.0559    0.8283    1.8266 C   0  0  0  0  0  0  0  0  0  0  0  0
   -0.7236    5.0270   -0.3360 C   0  0  0  0  0  0  0  0  0  0  0  0
    2.4804    1.6701   -1.2502 H   0  0  0  0  0  0  0  0  0  0  0  0
    2.5076   -0.6491   -2.0416 H   0  0  0  0  0  0  0  0  0  0  0  0
    4.0168    1.8917    0.5944 H   0  0  0  0  0  0  0  0  0  0  0  0
    5.0190   -0.1192    1.2726 H   0  0  0  0  0  0  0  0  0  0  0  0
    3.4838   -0.8336    1.7649 H   0  0  0  0  0  0  0  0  0  0  0  0
   -0.2009    1.2174   -1.6107 H   0  0  0  0  0  0  0  0  0  0  0  0
    1.5245   -2.0406    1.5100 H   0  0  0  0  0  0  0  0  0  0  0  0
   -2.2832    1.7835   -0.5586 H   0  0  0  0  0  0  0  0  0  0  0  0
   -1.5510    1.9611    1.0021 H   0  0  0  0  0  0  0  0  0  0  0  0
    5.0780   -2.7340   -0.0306 H   0  0  0  0  0  0  0  0  0  0  0  0
    3.3749   -2.9617    0.3888 H   0  0  0  0  0  0  0  0  0  0  0  0
    3.8818   -2.9324   -1.3046 H   0  0  0  0  0  0  0  0  0  0  0  0
   -2.4346   -0.6365   -1.5892 H   0  0  0  0  0  0  0  0  0  0  0  0
   -1.5088   -0.4452    1.3311 H   0  0  0  0  0  0  0  0  0  0  0  0
    4.8003   -0.8985   -2.1114 H   0  0  0  0  0  0  0  0  0  0  0  0
   -0.1852   -3.8825    2.0373 H   0  0  0  0  0  0  0  0  0  0  0  0
   -0.9429   -4.5293    0.5785 H   0  0  0  0  0  0  0  0  0  0  0  0
   -1.8049   -3.3447    1.5833 H   0  0  0  0  0  0  0  0  0  0  0  0
   -0.5196   -3.7571   -1.6228 H   0  0  0  0  0  0  0  0  0  0  0  0
   -4.8230   -1.7252    1.0367 H   0  0  0  0  0  0  0  0  0  0  0  0
   -5.1013    0.7495    2.1060 H   0  0  0  0  0  0  0  0  0  0  0  0
   -3.4692    1.6081    2.2983 H   0  0  0  0  0  0  0  0  0  0  0  0
   -5.8581   -1.3484   -0.7985 H   0  0  0  0  0  0  0  0  0  0  0  0
    0.2661    5.4836   -0.4148 H   0  0  0  0  0  0  0  0  0  0  0  0
   -0.9989    4.8815    0.7117 H   0  0  0  0  0  0  0  0  0  0  0  0
   -1.4543    5.6970   -0.7982 H   0  0  0  0  0  0  0  0  0  0  0  0
  1 13  1  0  0  0  0
  1 20  1  0  0  0  0
  2 14  1  0  0  0  0
  2 18  1  0  0  0  0
  3 15  1  0  0  0  0
  3 46  1  0  0  0  0
  4 17  1  0  0  0  0
  4 29  1  0  0  0  0
  5 18  2  0  0  0  0
  6 24  1  0  0  0  0
  6 28  1  0  0  0  0
  7 20  1  0  0  0  0
  7 50  1  0  0  0  0
  8 28  1  0  0  0  0
  8 54  1  0  0  0  0
  9 29  2  0  0  0  0
 10 11  1  0  0  0  0
 10 13  1  0  0  0  0
 10 17  1  0  0  0  0
 10 18  1  0  0  0  0
 11 12  1  0  0  0  0
 11 14  1  0  0  0  0
 11 32  1  0  0  0  0
 12 13  1  0  0  0  0
 12 15  1  0  0  0  0
 12 33  1  0  0  0  0
 13 19  1  0  0  0  0
 14 16  1  0  0  0  0
 14 34  1  0  0  0  0
 15 16  1  0  0  0  0
 15 23  1  0  0  0  0
 16 35  1  0  0  0  0
 16 36  1  0  0  0  0
 17 21  1  0  0  0  0
 17 37  1  0  0  0  0
 19 22  2  0  0  0  0
 19 38  1  0  0  0  0
 20 22  1  0  0  0  0
 20 24  1  0  0  0  0
 21 25  1  0  0  0  0
 21 39  1  0  0  0  0
 21 40  1  0  0  0  0
 22 27  1  0  0  0  0
 23 41  1  0  0  0  0
 23 42  1  0  0  0  0
 23 43  1  0  0  0  0
 24 25  1  0  0  0  0
 24 44  1  0  0  0  0
 25 26  1  0  0  0  0
 25 45  1  0  0  0  0
 26 28  1  0  0  0  0
 26 30  2  0  0  0  0
 27 47  1  0  0  0  0
 27 48  1  0  0  0  0
 27 49  1  0  0  0  0
 28 51  1  0  0  0  0
 29 31  1  0  0  0  0
 30 52  1  0  0  0  0
 30 53  1  0  0  0  0
 31 55  1  0  0  0  0
 31 56  1  0  0  0  0
 31 57  1  0  0  0  0
M  END
> <PUBCHEM_COMPOUND_CID>
11201358

> <PUBCHEM_CONFORMER_RMSD>
0.8

> <PUBCHEM_CONFORMER_DIVERSEORDER>
1

> <PUBCHEM_MMFF94_PARTIAL_CHARGES>
32
1 -0.54
10 0.05
13 0.37
14 0.28
15 0.28
17 0.28
18 0.67
19 -0.27
2 -0.43
20 0.7
22 -0.28
24 0.28
25 0.14
26 -0.28
27 0.14
28 0.7
29 0.66
3 -0.68
30 -0.3
31 0.06
38 0.15
4 -0.43
46 0.4
5 -0.57
50 0.4
52 0.15
53 0.15
54 0.4
6 -0.56
7 -0.68
8 -0.68
9 -0.57

> <PUBCHEM_EFFECTIVE_ROTOR_COUNT>
3.6

> <PUBCHEM_PHARMACOPHORE_FEATURES>
13
1 1 acceptor
1 3 acceptor
1 3 donor
1 5 acceptor
1 6 acceptor
1 7 acceptor
1 7 donor
1 8 acceptor
1 8 donor
1 9 acceptor
5 1 13 19 20 22 rings
5 6 24 25 26 28 rings
9 2 10 11 12 13 14 15 16 18 rings

> <PUBCHEM_HEAVY_ATOM_COUNT>
31

> <PUBCHEM_ATOM_DEF_STEREO_COUNT>
11

> <PUBCHEM_ATOM_UDEF_STEREO_COUNT>
0

> <PUBCHEM_BOND_DEF_STEREO_COUNT>
0

> <PUBCHEM_BOND_UDEF_STEREO_COUNT>
0

> <PUBCHEM_ISOTOPIC_ATOM_COUNT>
0

> <PUBCHEM_COMPONENT_COUNT>
1

> <PUBCHEM_CACTVS_TAUTO_COUNT>
1

> <PUBCHEM_CONFORMER_ID>
00AAEB4E00000001

> <PUBCHEM_MMFF94_ENERGY>
93.4563

> <PUBCHEM_FEATURE_SELFOVERLAP>
66.064

> <PUBCHEM_SHAPE_FINGERPRINT>
10165383 225 17909283385438788417
10863032 1 16987715873361213898
11578080 2 18201141170862546872
12156800 1 17761250671934902109
12166972 35 18270960271633118631
12403259 226 18342453703835325258
12422481 6 18052555282671370803
12553582 1 18335979891129885332
12788726 201 18260269629581356480
13140716 1 18339084783101907553
133893 2 16812340594871527109
13965767 371 17911544007689546537
14022347 108 18261109716336134642
14178342 30 17767108071282315250
14251751 93 18118123563530066682
14713325 29 17901117325764384484
14955137 171 18190484781902164681
15209289 33 18342464724494988995
15238133 3 17386547112557822485
15420108 30 17985275063031094393
15484559 13 15392863550114421350
16945 1 18341038641324432606
17980427 23 17621859312102943296
1813 80 18334293214238489761
19591789 44 18267585710811374374
20600515 1 18199487582482646988
20691752 17 18408319995031279683
20739085 24 18267045949554988097
20905425 154 18123471583513397447
21285901 2 18272379641685454510
21330990 113 18270694060078816364
22907989 373 18262515879886378588
23419403 2 17774137042970599064
23558518 356 17616521200525158419
23559900 14 18340771563062286726
238 59 17621006808555664269
3286 77 17704351091204807963
3493558 16 17702384146502490704
350125 39 18266184924681732444
4409770 3 18193832639662405732
6287921 2 17838895189475131440
81228 2 18195794378838565362

> <PUBCHEM_SHAPE_MULTIPOLES>
585.14
7.13
4.52
1.66
0.18
3.94
0.47
-2.7
0.36
-2
-1.34
-0.12
0.35
0.51

> <PUBCHEM_SHAPE_SELFOVERLAP>
1304.123

> <PUBCHEM_SHAPE_VOLUME>
310.7

> <PUBCHEM_COORDINATE_TYPE>
2
5
10

$$$$
