11201041
  -OEChem-03292013303D

 47 52  0     1  0  0  0  0  0999 V2000
    4.9838   -1.3487   -0.1325 S   0  0  0  0  0  0  0  0  0  0  0  0
   -4.9680    1.7618   -0.4573 O   0  0  0  0  0  0  0  0  0  0  0  0
   -2.5740    3.2200    0.3031 O   0  0  0  0  0  0  0  0  0  0  0  0
    2.1758   -2.3666    0.1984 O   0  0  0  0  0  0  0  0  0  0  0  0
    2.3834    2.9618   -0.0535 O   0  0  0  0  0  0  0  0  0  0  0  0
    5.4357   -1.6315    1.2175 O   0  0  0  0  0  0  0  0  0  0  0  0
    4.8169   -2.4279   -1.0894 O   0  0  0  0  0  0  0  0  0  0  0  0
    4.7497    1.6589   -0.1924 N   0  0  0  0  0  0  0  0  0  0  0  0
   -2.7864   -1.0408    0.5115 C   0  0  2  0  0  0  0  0  0  0  0  0
   -2.9511   -2.3669   -0.2942 C   0  0  0  0  0  0  0  0  0  0  0  0
   -3.8619   -0.1233    0.0489 C   0  0  0  0  0  0  0  0  0  0  0  0
   -1.4639   -0.2736    0.2875 C   0  0  0  0  0  0  0  0  0  0  0  0
   -4.4081   -2.9009   -0.2694 C   0  0  0  0  0  0  0  0  0  0  0  0
   -5.1043   -0.4958   -0.5069 C   0  0  0  0  0  0  0  0  0  0  0  0
   -5.4616   -1.9056   -0.8060 C   0  0  0  0  0  0  0  0  0  0  0  0
   -2.9223   -1.3064    2.0267 C   0  0  0  0  0  0  0  0  0  0  0  0
   -3.7962    1.2377   -0.0213 C   0  0  0  0  0  0  0  0  0  0  0  0
   -1.3778    1.1495    0.2279 C   0  0  0  0  0  0  0  0  0  0  0  0
   -0.2575   -0.9969    0.2483 C   0  0  0  0  0  0  0  0  0  0  0  0
   -2.6157    2.0025    0.2008 C   0  0  0  0  0  0  0  0  0  0  0  0
    0.9812   -0.3459    0.1417 C   0  0  0  0  0  0  0  0  0  0  0  0
   -5.7668    0.6894   -0.7554 C   0  0  0  0  0  0  0  0  0  0  0  0
   -0.1376    1.7939    0.1288 C   0  0  0  0  0  0  0  0  0  0  0  0
    1.0417    1.0422    0.0850 C   0  0  0  0  0  0  0  0  0  0  0  0
    3.5041   -0.4213   -0.0450 C   0  0  0  0  0  0  0  0  0  0  0  0
    2.2172   -1.1454    0.1044 C   0  0  0  0  0  0  0  0  0  0  0  0
    3.5896    0.9190   -0.0858 C   0  0  0  0  0  0  0  0  0  0  0  0
    2.3394    1.7357   -0.0200 C   0  0  0  0  0  0  0  0  0  0  0  0
    6.1415   -0.2048   -0.8577 C   0  0  0  0  0  0  0  0  0  0  0  0
    6.0933    1.1299   -0.1436 C   0  0  0  0  0  0  0  0  0  0  0  0
   -2.2877   -3.1450    0.1019 H   0  0  0  0  0  0  0  0  0  0  0  0
   -2.6583   -2.2085   -1.3415 H   0  0  0  0  0  0  0  0  0  0  0  0
   -4.6709   -3.1738    0.7597 H   0  0  0  0  0  0  0  0  0  0  0  0
   -4.4661   -3.8297   -0.8495 H   0  0  0  0  0  0  0  0  0  0  0  0
   -6.4463   -2.1517   -0.3935 H   0  0  0  0  0  0  0  0  0  0  0  0
   -5.5287   -2.0206   -1.8950 H   0  0  0  0  0  0  0  0  0  0  0  0
   -2.1644   -2.0183    2.3739 H   0  0  0  0  0  0  0  0  0  0  0  0
   -2.7970   -0.3861    2.6116 H   0  0  0  0  0  0  0  0  0  0  0  0
   -3.9060   -1.7105    2.2886 H   0  0  0  0  0  0  0  0  0  0  0  0
   -0.2852   -2.0812    0.3224 H   0  0  0  0  0  0  0  0  0  0  0  0
   -6.7335    0.9354   -1.1705 H   0  0  0  0  0  0  0  0  0  0  0  0
   -0.0942    2.8789    0.0730 H   0  0  0  0  0  0  0  0  0  0  0  0
    5.8774   -0.0998   -1.9159 H   0  0  0  0  0  0  0  0  0  0  0  0
    7.1364   -0.6547   -0.7902 H   0  0  0  0  0  0  0  0  0  0  0  0
    6.4005    1.0220    0.9027 H   0  0  0  0  0  0  0  0  0  0  0  0
    6.7825    1.8353   -0.6189 H   0  0  0  0  0  0  0  0  0  0  0  0
    4.6433    2.6688   -0.1973 H   0  0  0  0  0  0  0  0  0  0  0  0
  1  6  2  0  0  0  0
  1  7  2  0  0  0  0
  1 25  1  0  0  0  0
  1 29  1  0  0  0  0
  2 17  1  0  0  0  0
  2 22  1  0  0  0  0
  3 20  2  0  0  0  0
  4 26  2  0  0  0  0
  5 28  2  0  0  0  0
  8 27  1  0  0  0  0
  8 30  1  0  0  0  0
  8 47  1  0  0  0  0
  9 10  1  0  0  0  0
  9 11  1  0  0  0  0
  9 12  1  0  0  0  0
  9 16  1  0  0  0  0
 10 13  1  0  0  0  0
 10 31  1  0  0  0  0
 10 32  1  0  0  0  0
 11 14  1  0  0  0  0
 11 17  2  0  0  0  0
 12 18  2  0  0  0  0
 12 19  1  0  0  0  0
 13 15  1  0  0  0  0
 13 33  1  0  0  0  0
 13 34  1  0  0  0  0
 14 15  1  0  0  0  0
 14 22  2  0  0  0  0
 15 35  1  0  0  0  0
 15 36  1  0  0  0  0
 16 37  1  0  0  0  0
 16 38  1  0  0  0  0
 16 39  1  0  0  0  0
 17 20  1  0  0  0  0
 18 20  1  0  0  0  0
 18 23  1  0  0  0  0
 19 21  2  0  0  0  0
 19 40  1  0  0  0  0
 21 24  1  0  0  0  0
 21 26  1  0  0  0  0
 22 41  1  0  0  0  0
 23 24  2  0  0  0  0
 23 42  1  0  0  0  0
 24 28  1  0  0  0  0
 25 26  1  0  0  0  0
 25 27  2  0  0  0  0
 27 28  1  0  0  0  0
 29 30  1  0  0  0  0
 29 43  1  0  0  0  0
 29 44  1  0  0  0  0
 30 45  1  0  0  0  0
 30 46  1  0  0  0  0
M  END
> <PUBCHEM_COMPOUND_CID>
11201041

> <PUBCHEM_CONFORMER_RMSD>
0.6

> <PUBCHEM_CONFORMER_DIVERSEORDER>
1

> <PUBCHEM_MMFF94_PARTIAL_CHARGES>
30
1 1.21
11 -0.18
12 -0.14
14 -0.18
15 0.18
17 0.05
18 0.09
19 -0.15
2 -0.28
20 0.57
21 0.09
22 -0.01
23 -0.15
24 0.09
26 0.47
27 0.11
28 0.47
29 0.11
3 -0.57
30 0.37
4 -0.57
40 0.15
41 0.15
42 0.15
47 0.4
5 -0.57
6 -0.65
7 -0.65
8 -0.87
9 0.32

> <PUBCHEM_EFFECTIVE_ROTOR_COUNT>
1.2

> <PUBCHEM_PHARMACOPHORE_FEATURES>
14
1 2 acceptor
1 3 acceptor
1 4 acceptor
1 5 acceptor
1 6 acceptor
1 7 acceptor
1 8 cation
1 8 donor
5 2 11 14 17 22 rings
6 1 8 25 27 29 30 rings
6 12 18 19 21 23 24 rings
6 21 24 25 26 27 28 rings
6 9 10 11 13 14 15 rings
6 9 11 12 17 18 20 rings

> <PUBCHEM_HEAVY_ATOM_COUNT>
30

> <PUBCHEM_ATOM_DEF_STEREO_COUNT>
1

> <PUBCHEM_ATOM_UDEF_STEREO_COUNT>
0

> <PUBCHEM_BOND_DEF_STEREO_COUNT>
0

> <PUBCHEM_BOND_UDEF_STEREO_COUNT>
0

> <PUBCHEM_ISOTOPIC_ATOM_COUNT>
0

> <PUBCHEM_COMPONENT_COUNT>
1

> <PUBCHEM_CACTVS_TAUTO_COUNT>
3

> <PUBCHEM_CONFORMER_ID>
00AAEA1100000001

> <PUBCHEM_MMFF94_ENERGY>
80.3196

> <PUBCHEM_FEATURE_SELFOVERLAP>
71.353

> <PUBCHEM_SHAPE_FINGERPRINT>
10595046 47 18409730677429891324
10906281 52 18270976626478380081
11135609 12 17823716324432513929
11315181 36 18272937132519242176
11488393 25 17202222715498279982
11578080 2 17096912582357484063
12107183 9 17760644763792107394
12166972 35 17895477037419926477
12236239 1 18040996224155102354
12516196 113 18131068246951932328
12788726 201 17917149382440294553
13782708 43 17418375800496118934
13944108 23 16819373668861305589
14341114 176 18410579478435955700
14347332 77 18411696595403489005
14528608 73 18408887343442558110
14931854 50 18263346093592147599
15082195 135 18116433837091014237
15183329 4 18410573967971588471
15196674 1 18410292527359890920
15250474 111 18335975372740394186
15361156 5 18260842513250938196
15788980 27 18334860532194529122
16087824 20 18410855431609581701
17349148 13 18186799192628476305
17492 89 18337953527376621523
17844677 252 18412834568690240926
17857418 61 18411135840173068064
18681886 176 18341889744928677424
19958102 18 18187917370453464831
200 152 18202282515571264985
20028762 73 18343299237411209318
20511986 3 18114168718746708522
20775438 99 16618098693973174967
21133410 171 17474328895352695799
21236236 1 18411983559538346873
21267235 1 18338521936649772211
21279426 13 18336827506898802501
21709351 56 18335699498179043316
21857420 4 13282607484713940317
22393880 68 18408036312451876095
23522609 53 18124909890667670209
23559900 14 18339916104129446193
3004659 81 18334009501562309492
335352 9 18411697674105204669
34797466 226 17489873756606831460
350125 39 18411136939421341545
4015057 19 18338510954265584609
4073 2 18040721419605409730
4214541 1 18410855460550245957
5104073 3 18412263947439933160
5283173 99 18334851693510705621
59755656 215 18409166610631940444
59755656 520 17095242515075215475
9709674 26 18335706091275485347

> <PUBCHEM_SHAPE_MULTIPOLES>
581.04
14.78
3.09
0.93
7.86
0.29
0.25
-3.25
-3.19
-0.96
-0.1
-0.29
-0.36
-0.05

> <PUBCHEM_SHAPE_SELFOVERLAP>
1319.284

> <PUBCHEM_SHAPE_VOLUME>
305.3

> <PUBCHEM_COORDINATE_TYPE>
2
5
10

$$$$
