11205154
  -OEChem-03292013303D

 52 54  0     1  0  0  0  0  0999 V2000
   -0.0781   -0.9103    2.0355 Cl  0  0  0  0  0  0  0  0  0  0  0  0
    2.1736    3.2475   -0.6875 S   0  0  0  0  0  0  0  0  0  0  0  0
    3.8758   -2.6633   -0.4423 O   0  0  0  0  0  0  0  0  0  0  0  0
    2.8454   -0.1137    0.2222 O   0  0  0  0  0  0  0  0  0  0  0  0
   -5.2427    1.1561    0.1964 O   0  0  0  0  0  0  0  0  0  0  0  0
   -2.8442   -2.6999    0.5636 O   0  0  0  0  0  0  0  0  0  0  0  0
   -3.0671   -0.0005    2.0480 O   0  0  0  0  0  0  0  0  0  0  0  0
    3.2323    2.3203   -1.0550 O   0  0  0  0  0  0  0  0  0  0  0  0
    1.7447    4.2703   -1.6292 O   0  0  0  0  0  0  0  0  0  0  0  0
    4.7098   -1.4954   -0.3600 C   0  0  2  0  0  0  0  0  0  0  0  0
    6.1001   -1.9925   -0.0036 C   0  0  0  0  0  0  0  0  0  0  0  0
    6.1370   -3.3198   -0.7185 C   0  0  0  0  0  0  0  0  0  0  0  0
    4.7217   -3.8203   -0.5222 C   0  0  0  0  0  0  0  0  0  0  0  0
    4.1365   -0.5237    0.6531 C   0  0  0  0  0  0  0  0  0  0  0  0
   -3.5455   -0.5194   -0.2234 C   0  0  0  0  0  0  0  0  0  0  0  0
   -5.9550   -2.0877   -0.9580 C   0  0  0  0  0  0  0  0  0  0  0  0
   -5.9019   -0.6019   -1.2794 C   0  0  0  0  0  0  0  0  0  0  0  0
   -4.5800   -2.7274   -1.0760 C   0  0  0  0  0  0  0  0  0  0  0  0
   -4.9347    0.0962   -0.3482 C   0  0  0  0  0  0  0  0  0  0  0  0
   -3.6057   -2.0406   -0.1438 C   0  0  0  0  0  0  0  0  0  0  0  0
   -2.7264    0.1000    0.8716 C   0  0  0  0  0  0  0  0  0  0  0  0
    0.9023    1.1959    0.6297 C   0  0  0  0  0  0  0  0  0  0  0  0
    2.2561    0.8009    1.1350 C   0  0  0  0  0  0  0  0  0  0  0  0
   -1.4851    0.8439    0.5158 C   0  0  0  0  0  0  0  0  0  0  0  0
    0.7790    2.3034   -0.2091 C   0  0  0  0  0  0  0  0  0  0  0  0
   -0.2298    0.4662    0.9923 C   0  0  0  0  0  0  0  0  0  0  0  0
   -1.6085    1.9513   -0.3232 C   0  0  0  0  0  0  0  0  0  0  0  0
   -0.4763    2.6811   -0.6856 C   0  0  0  0  0  0  0  0  0  0  0  0
    2.6669    4.0833    0.8015 C   0  0  0  0  0  0  0  0  0  0  0  0
    4.7053   -1.0421   -1.3590 H   0  0  0  0  0  0  0  0  0  0  0  0
    6.8906   -1.3063   -0.3199 H   0  0  0  0  0  0  0  0  0  0  0  0
    6.1962   -2.1537    1.0770 H   0  0  0  0  0  0  0  0  0  0  0  0
    6.8913   -4.0089   -0.3300 H   0  0  0  0  0  0  0  0  0  0  0  0
    6.3335   -3.1619   -1.7855 H   0  0  0  0  0  0  0  0  0  0  0  0
    4.3874   -4.4657   -1.3393 H   0  0  0  0  0  0  0  0  0  0  0  0
    4.6229   -4.3698    0.4200 H   0  0  0  0  0  0  0  0  0  0  0  0
    4.0403   -1.0124    1.6302 H   0  0  0  0  0  0  0  0  0  0  0  0
    4.7920    0.3495    0.7492 H   0  0  0  0  0  0  0  0  0  0  0  0
   -3.0481   -0.3100   -1.1807 H   0  0  0  0  0  0  0  0  0  0  0  0
   -6.3358   -2.2270    0.0618 H   0  0  0  0  0  0  0  0  0  0  0  0
   -6.6531   -2.5870   -1.6387 H   0  0  0  0  0  0  0  0  0  0  0  0
   -6.8963   -0.1604   -1.1547 H   0  0  0  0  0  0  0  0  0  0  0  0
   -5.5769   -0.4278   -2.3106 H   0  0  0  0  0  0  0  0  0  0  0  0
   -4.1922   -2.6546   -2.0975 H   0  0  0  0  0  0  0  0  0  0  0  0
   -4.6409   -3.7875   -0.8078 H   0  0  0  0  0  0  0  0  0  0  0  0
    2.1867    0.3350    2.1248 H   0  0  0  0  0  0  0  0  0  0  0  0
    2.9458    1.6202    1.3045 H   0  0  0  0  0  0  0  0  0  0  0  0
   -2.5794    2.2636   -0.6990 H   0  0  0  0  0  0  0  0  0  0  0  0
   -0.6071    3.5399   -1.3372 H   0  0  0  0  0  0  0  0  0  0  0  0
    2.6357    3.4636    1.6912 H   0  0  0  0  0  0  0  0  0  0  0  0
    1.9870    4.9273    0.9484 H   0  0  0  0  0  0  0  0  0  0  0  0
    3.6798    4.4646    0.6510 H   0  0  0  0  0  0  0  0  0  0  0  0
  1 26  1  0  0  0  0
  2  8  2  0  0  0  0
  2  9  2  0  0  0  0
  2 25  1  0  0  0  0
  2 29  1  0  0  0  0
  3 10  1  0  0  0  0
  3 13  1  0  0  0  0
  4 14  1  0  0  0  0
  4 23  1  0  0  0  0
  5 19  2  0  0  0  0
  6 20  2  0  0  0  0
  7 21  2  0  0  0  0
 10 11  1  0  0  0  0
 10 14  1  0  0  0  0
 10 30  1  0  0  0  0
 11 12  1  0  0  0  0
 11 31  1  0  0  0  0
 11 32  1  0  0  0  0
 12 13  1  0  0  0  0
 12 33  1  0  0  0  0
 12 34  1  0  0  0  0
 13 35  1  0  0  0  0
 13 36  1  0  0  0  0
 14 37  1  0  0  0  0
 14 38  1  0  0  0  0
 15 19  1  0  0  0  0
 15 20  1  0  0  0  0
 15 21  1  0  0  0  0
 15 39  1  0  0  0  0
 16 17  1  0  0  0  0
 16 18  1  0  0  0  0
 16 40  1  0  0  0  0
 16 41  1  0  0  0  0
 17 19  1  0  0  0  0
 17 42  1  0  0  0  0
 17 43  1  0  0  0  0
 18 20  1  0  0  0  0
 18 44  1  0  0  0  0
 18 45  1  0  0  0  0
 21 24  1  0  0  0  0
 22 23  1  0  0  0  0
 22 25  2  0  0  0  0
 22 26  1  0  0  0  0
 23 46  1  0  0  0  0
 23 47  1  0  0  0  0
 24 26  2  0  0  0  0
 24 27  1  0  0  0  0
 25 28  1  0  0  0  0
 27 28  2  0  0  0  0
 27 48  1  0  0  0  0
 28 49  1  0  0  0  0
 29 50  1  0  0  0  0
 29 51  1  0  0  0  0
 29 52  1  0  0  0  0
M  END
> <PUBCHEM_COMPOUND_CID>
11205154

> <PUBCHEM_CONFORMER_RMSD>
1

> <PUBCHEM_CONFORMER_DIVERSEORDER>
3
92
52
119
189
187
59
155
55
91
17
66
58
103
120
166
159
167
142
101
63
7
122
185
190
53
172
153
96
108
157
163
37
78
25
36
60
67
137
111
32
114
179
23
70
164
40
99
98
116
124
95
74
161
192
104
72
64
100
88
115
54
129
68
141
34
125
5
135
134
56
4
147
186
178
188
109
82
89
31
57
65
87
170
2
83
46
117
9
154
18
160
80
1
145
15
165
175
102
177
75
61
146
158
84
38
42
180
49
6
27
8
30
181
184
112
10
79
39
51
136
139
47
90
69
19
128
62
81
77
121
85
133
132
127
16
110
171
130
149
48
173
11
26
86
50
123
93
24
76
140
106
73
71
21
14
113
97
94
28
44
33
29
20
12
118
22
35
41
151
176
182
131
150
143
13
105
183
191
152
174
168
107
162
45
156
169
148
144
126
138
43

> <PUBCHEM_MMFF94_PARTIAL_CHARGES>
28
1 -0.18
10 0.28
13 0.28
14 0.28
15 0.18
17 0.06
18 0.06
19 0.45
2 1.2
20 0.45
21 0.42
22 -0.14
23 0.42
24 0.09
25 -0.01
26 0.18
27 -0.15
28 -0.15
29 0.11
3 -0.56
4 -0.56
48 0.15
49 0.15
5 -0.57
6 -0.57
7 -0.57
8 -0.65
9 -0.65

> <PUBCHEM_EFFECTIVE_ROTOR_COUNT>
8.8

> <PUBCHEM_PHARMACOPHORE_FEATURES>
11
1 15 anion
1 3 acceptor
1 4 acceptor
1 5 acceptor
1 6 acceptor
1 7 acceptor
1 8 acceptor
1 9 acceptor
5 3 10 11 12 13 rings
6 15 16 17 18 19 20 rings
6 22 24 25 26 27 28 rings

> <PUBCHEM_HEAVY_ATOM_COUNT>
29

> <PUBCHEM_ATOM_DEF_STEREO_COUNT>
0

> <PUBCHEM_ATOM_UDEF_STEREO_COUNT>
1

> <PUBCHEM_BOND_DEF_STEREO_COUNT>
0

> <PUBCHEM_BOND_UDEF_STEREO_COUNT>
0

> <PUBCHEM_ISOTOPIC_ATOM_COUNT>
0

> <PUBCHEM_COMPONENT_COUNT>
1

> <PUBCHEM_CACTVS_TAUTO_COUNT>
8

> <PUBCHEM_CONFORMER_ID>
00AAFA2200000003

> <PUBCHEM_MMFF94_ENERGY>
69.2922

> <PUBCHEM_FEATURE_SELFOVERLAP>
55.853

> <PUBCHEM_SHAPE_FINGERPRINT>
10622 236 17986937730338939943
10693767 8 18339069471543977959
11135609 201 8646188334418728014
11621639 179 17535170174165407653
11719270 70 18123461946234805536
12107183 9 18199477575926603593
12390115 104 10015278262259106506
13533116 47 18199744916165481499
1361 2 18410855495174053314
14068700 675 18342454807710557280
1454969 45 18410296930946230486
14910302 57 18271230621959205122
15392192 29 18268168490818991378
15475509 8 18263364677277736169
15803439 3 17248677361271556196
16628084 112 17683806501913839507
17492 89 18267304416582233147
17909252 39 18338797935058091888
18393751 57 10879690105495924119
18603816 31 17345168061919807943
20775438 99 18049145954738522998
21307412 95 18124308307487696244
23559900 14 18342446063394500035
24180151 214 17267802278608374048
249057 3 18339079268770477389
2838139 119 11602834505507413906
3004659 81 18408595980934355827
3459 83 18411981369347638499
4280585 95 18337383855730712842
46194498 28 18041833034118632133
463206 1 18336274444293172498
5081480 168 16877665677459597671
5207 123 18411416198173588175
5326457 24 18272086166664842783
59682541 52 18338504365959495143
613672 6 18260272919637536874
70251023 43 18409445899254143233
7808743 9 8430301429559848926
7970288 3 18340765940776529910

> <PUBCHEM_SHAPE_MULTIPOLES>
561.44
14.08
5.23
1.38
1.33
1.66
-0.38
-16.3
4.44
-7.11
2.05
0.42
0.24
-0.26

> <PUBCHEM_SHAPE_SELFOVERLAP>
1167.24

> <PUBCHEM_SHAPE_VOLUME>
321.4

> <PUBCHEM_COORDINATE_TYPE>
2
5
10

$$$$
