11207624
  -OEChem-03292013303D

 32 33  0     1  0  0  0  0  0999 V2000
    1.6793    0.5185    0.9978 O   0  0  0  0  0  0  0  0  0  0  0  0
    1.2615   -2.3228   -1.1522 O   0  0  0  0  0  0  0  0  0  0  0  0
    3.4618   -1.8385    0.3756 O   0  0  0  0  0  0  0  0  0  0  0  0
    3.0010    2.9007    0.3385 O   0  0  0  0  0  0  0  0  0  0  0  0
   -1.4529   -2.1138    0.6616 O   0  0  0  0  0  0  0  0  0  0  0  0
   -4.2866    1.4404   -0.4360 O   0  0  0  0  0  0  0  0  0  0  0  0
   -2.9296   -0.3816    0.1242 N   0  0  0  0  0  0  0  0  0  0  0  0
   -2.0232    1.7421   -0.3422 N   0  0  0  0  0  0  0  0  0  0  0  0
    1.5664   -0.9807   -0.8298 C   0  0  2  0  0  0  0  0  0  0  0  0
    3.0235   -0.7747   -0.4689 C   0  0  1  0  0  0  0  0  0  0  0  0
    0.8621   -0.5275    0.4414 C   0  0  2  0  0  0  0  0  0  0  0  0
    2.9689    0.5119    0.3459 C   0  0  1  0  0  0  0  0  0  0  0  0
   -0.5116    0.0005    0.2066 C   0  0  0  0  0  0  0  0  0  0  0  0
    3.0726    1.7675   -0.5092 C   0  0  0  0  0  0  0  0  0  0  0  0
   -1.6617   -0.9403    0.3562 C   0  0  0  0  0  0  0  0  0  0  0  0
   -0.7623    1.2692   -0.1295 C   0  0  0  0  0  0  0  0  0  0  0  0
   -3.1662    0.9669   -0.2323 C   0  0  0  0  0  0  0  0  0  0  0  0
   -4.1030   -1.2377    0.2525 C   0  0  0  0  0  0  0  0  0  0  0  0
    1.3062   -0.3477   -1.6870 H   0  0  0  0  0  0  0  0  0  0  0  0
    3.6915   -0.7397   -1.3334 H   0  0  0  0  0  0  0  0  0  0  0  0
    0.8325   -1.3277    1.1907 H   0  0  0  0  0  0  0  0  0  0  0  0
    3.7247    0.5345    1.1392 H   0  0  0  0  0  0  0  0  0  0  0  0
    2.2542    1.8388   -1.2316 H   0  0  0  0  0  0  0  0  0  0  0  0
    4.0261    1.7926   -1.0460 H   0  0  0  0  0  0  0  0  0  0  0  0
    0.3038   -2.3773   -1.3103 H   0  0  0  0  0  0  0  0  0  0  0  0
    2.9889   -1.7870    1.2227 H   0  0  0  0  0  0  0  0  0  0  0  0
    0.0167    2.0098   -0.2599 H   0  0  0  0  0  0  0  0  0  0  0  0
   -2.1224    2.7206   -0.5961 H   0  0  0  0  0  0  0  0  0  0  0  0
    3.0745    3.6876   -0.2279 H   0  0  0  0  0  0  0  0  0  0  0  0
   -4.6315   -1.2542   -0.7060 H   0  0  0  0  0  0  0  0  0  0  0  0
   -4.7716   -0.8082    1.0054 H   0  0  0  0  0  0  0  0  0  0  0  0
   -3.8419   -2.2588    0.5400 H   0  0  0  0  0  0  0  0  0  0  0  0
  1 11  1  0  0  0  0
  1 12  1  0  0  0  0
  2  9  1  0  0  0  0
  2 25  1  0  0  0  0
  3 10  1  0  0  0  0
  3 26  1  0  0  0  0
  4 14  1  0  0  0  0
  4 29  1  0  0  0  0
  5 15  2  0  0  0  0
  6 17  2  0  0  0  0
  7 15  1  0  0  0  0
  7 17  1  0  0  0  0
  7 18  1  0  0  0  0
  8 16  1  0  0  0  0
  8 17  1  0  0  0  0
  8 28  1  0  0  0  0
  9 10  1  0  0  0  0
  9 11  1  0  0  0  0
  9 19  1  0  0  0  0
 10 12  1  0  0  0  0
 10 20  1  0  0  0  0
 11 13  1  0  0  0  0
 11 21  1  0  0  0  0
 12 14  1  0  0  0  0
 12 22  1  0  0  0  0
 13 15  1  0  0  0  0
 13 16  2  0  0  0  0
 14 23  1  0  0  0  0
 14 24  1  0  0  0  0
 16 27  1  0  0  0  0
 18 30  1  0  0  0  0
 18 31  1  0  0  0  0
 18 32  1  0  0  0  0
M  END
> <PUBCHEM_COMPOUND_CID>
11207624

> <PUBCHEM_CONFORMER_RMSD>
0.6

> <PUBCHEM_CONFORMER_DIVERSEORDER>
2
5
14
11
3
6
7
13
8
12
9
10
1
4

> <PUBCHEM_MMFF94_PARTIAL_CHARGES>
23
1 -0.56
10 0.28
11 0.42
12 0.28
13 -0.12
14 0.28
15 0.62
16 -0.04
17 0.69
18 0.3
2 -0.68
25 0.4
26 0.4
27 0.15
28 0.37
29 0.4
3 -0.68
4 -0.68
5 -0.57
6 -0.57
7 -0.42
8 -0.54
9 0.28

> <PUBCHEM_EFFECTIVE_ROTOR_COUNT>
3

> <PUBCHEM_PHARMACOPHORE_FEATURES>
12
1 1 acceptor
1 2 acceptor
1 2 donor
1 3 acceptor
1 3 donor
1 4 acceptor
1 4 donor
1 5 acceptor
1 6 acceptor
1 8 donor
5 1 9 10 11 12 rings
6 7 8 13 15 16 17 rings

> <PUBCHEM_HEAVY_ATOM_COUNT>
18

> <PUBCHEM_ATOM_DEF_STEREO_COUNT>
4

> <PUBCHEM_ATOM_UDEF_STEREO_COUNT>
0

> <PUBCHEM_BOND_DEF_STEREO_COUNT>
0

> <PUBCHEM_BOND_UDEF_STEREO_COUNT>
0

> <PUBCHEM_ISOTOPIC_ATOM_COUNT>
0

> <PUBCHEM_COMPONENT_COUNT>
1

> <PUBCHEM_CACTVS_TAUTO_COUNT>
3

> <PUBCHEM_CONFORMER_ID>
00AB03C800000002

> <PUBCHEM_MMFF94_ENERGY>
42.4944

> <PUBCHEM_FEATURE_SELFOVERLAP>
60.917

> <PUBCHEM_SHAPE_FINGERPRINT>
10608611 8 18409729568853737609
10967382 1 18338237196812075440
11132069 177 18409722967673685089
12403259 226 18262515875511646254
12507560 14 18047741603733154594
13296908 3 18408323289508409891
13897977 150 18411701006092536149
14415576 193 18412266142268622844
14648413 74 18410295796246897112
15196674 1 18408603669352907969
15219456 202 18413107264242089113
15375462 6 18337112375195095318
15536298 74 18409731780746168365
16945 1 18198075693820541378
18175812 5 18410292488858153373
18186145 218 17967245373778603501
200 152 17417521420026615903
20201158 50 18200313204072499503
20510252 161 18410858780771177097
20645477 70 18271805687962529823
21501502 16 18412266133572978752
21524375 3 18196376046897967496
221490 88 18409738352330915826
23402539 116 18335693901820903590
23419403 2 15370911766137568458
23557571 272 18263938776580681183
23559900 14 18339638949915832122
2748010 2 18339932631052266014
3060560 45 18130793330759301444
495365 180 17917412225220926009
5104073 3 18408041814479095505
58051976 378 18339635646938282037
633830 44 18339636725476278925
69090 78 18341324505631158167
7364860 26 18411699885659836392
8809292 202 18336551525222511307
93112 12 18409732833118313036
9709674 26 18411143519422294719

> <PUBCHEM_SHAPE_MULTIPOLES>
325.25
7.12
2.45
0.84
3.19
0.42
0.05
1.22
0.17
-1.05
0.17
-0.27
-0.16
0.68

> <PUBCHEM_SHAPE_SELFOVERLAP>
685.98

> <PUBCHEM_SHAPE_VOLUME>
182.6

> <PUBCHEM_COORDINATE_TYPE>
2
5
10

$$$$
