11209399
  -OEChem-03292013303D

 39 41  0     1  0  0  0  0  0999 V2000
    4.0683    0.5991   -1.3579 O   0  0  0  0  0  0  0  0  0  0  0  0
    3.0648   -2.0082   -0.9124 O   0  0  0  0  0  0  0  0  0  0  0  0
    0.0357    2.6574   -0.0094 O   0  0  0  0  0  0  0  0  0  0  0  0
    0.3666   -2.8475    0.2213 O   0  0  0  0  0  0  0  0  0  0  0  0
   -2.4719    2.4102   -0.2235 O   0  0  0  0  0  0  0  0  0  0  0  0
   -2.1618   -2.9188    0.0080 O   0  0  0  0  0  0  0  0  0  0  0  0
   -4.8046    0.9862   -0.3573 O   0  0  0  0  0  0  0  0  0  0  0  0
    3.9041    0.8273    0.0439 C   0  0  2  0  0  0  0  0  0  0  0  0
    3.9013   -0.5089    0.8023 C   0  0  0  0  0  0  0  0  0  0  0  0
    2.5727    1.5645    0.2570 C   0  0  0  0  0  0  0  0  0  0  0  0
    2.7595   -1.4284    0.3544 C   0  0  1  0  0  0  0  0  0  0  0  0
    1.3500    0.6807    0.1548 C   0  0  0  0  0  0  0  0  0  0  0  0
    1.4341   -0.7197    0.2332 C   0  0  0  0  0  0  0  0  0  0  0  0
    5.0720    1.7051    0.5026 C   0  0  0  0  0  0  0  0  0  0  0  0
    0.0904    1.2915    0.0320 C   0  0  0  0  0  0  0  0  0  0  0  0
    0.2576   -1.4857    0.1618 C   0  0  0  0  0  0  0  0  0  0  0  0
   -1.0753    0.5204   -0.0341 C   0  0  0  0  0  0  0  0  0  0  0  0
   -0.9906   -0.8680    0.0291 C   0  0  0  0  0  0  0  0  0  0  0  0
   -2.3853    1.1891   -0.1680 C   0  0  0  0  0  0  0  0  0  0  0  0
   -2.2091   -1.6958   -0.0416 C   0  0  0  0  0  0  0  0  0  0  0  0
   -3.5951    0.3340   -0.2333 C   0  0  0  0  0  0  0  0  0  0  0  0
   -3.5049   -0.9985   -0.1741 C   0  0  0  0  0  0  0  0  0  0  0  0
   -5.6782    0.7139    0.7112 C   0  0  0  0  0  0  0  0  0  0  0  0
    3.8046   -0.3111    1.8780 H   0  0  0  0  0  0  0  0  0  0  0  0
    4.8567   -1.0248    0.6435 H   0  0  0  0  0  0  0  0  0  0  0  0
    2.4978    2.3676   -0.4877 H   0  0  0  0  0  0  0  0  0  0  0  0
    2.5580    2.0206    1.2556 H   0  0  0  0  0  0  0  0  0  0  0  0
    2.6813   -2.2442    1.0835 H   0  0  0  0  0  0  0  0  0  0  0  0
    6.0311    1.2107    0.3101 H   0  0  0  0  0  0  0  0  0  0  0  0
    5.0917    2.6483   -0.0552 H   0  0  0  0  0  0  0  0  0  0  0  0
    5.0111    1.9349    1.5713 H   0  0  0  0  0  0  0  0  0  0  0  0
    4.8922    0.0984   -1.4845 H   0  0  0  0  0  0  0  0  0  0  0  0
    3.8985   -2.4996   -0.8176 H   0  0  0  0  0  0  0  0  0  0  0  0
   -0.8702    2.9734    0.1230 H   0  0  0  0  0  0  0  0  0  0  0  0
   -0.5000   -3.2642    0.3345 H   0  0  0  0  0  0  0  0  0  0  0  0
   -4.3849   -1.6304   -0.2356 H   0  0  0  0  0  0  0  0  0  0  0  0
   -5.1903    0.8593    1.6821 H   0  0  0  0  0  0  0  0  0  0  0  0
   -6.0929   -0.2972    0.6442 H   0  0  0  0  0  0  0  0  0  0  0  0
   -6.5162    1.4156    0.6533 H   0  0  0  0  0  0  0  0  0  0  0  0
  1  8  1  0  0  0  0
  1 32  1  0  0  0  0
  2 11  1  0  0  0  0
  2 33  1  0  0  0  0
  3 15  1  0  0  0  0
  3 34  1  0  0  0  0
  4 16  1  0  0  0  0
  4 35  1  0  0  0  0
  5 19  2  0  0  0  0
  6 20  2  0  0  0  0
  7 21  1  0  0  0  0
  7 23  1  0  0  0  0
  8  9  1  0  0  0  0
  8 10  1  0  0  0  0
  8 14  1  0  0  0  0
  9 11  1  0  0  0  0
  9 24  1  0  0  0  0
  9 25  1  0  0  0  0
 10 12  1  0  0  0  0
 10 26  1  0  0  0  0
 10 27  1  0  0  0  0
 11 13  1  0  0  0  0
 11 28  1  0  0  0  0
 12 13  2  0  0  0  0
 12 15  1  0  0  0  0
 13 16  1  0  0  0  0
 14 29  1  0  0  0  0
 14 30  1  0  0  0  0
 14 31  1  0  0  0  0
 15 17  2  0  0  0  0
 16 18  2  0  0  0  0
 17 18  1  0  0  0  0
 17 19  1  0  0  0  0
 18 20  1  0  0  0  0
 19 21  1  0  0  0  0
 20 22  1  0  0  0  0
 21 22  2  0  0  0  0
 22 36  1  0  0  0  0
 23 37  1  0  0  0  0
 23 38  1  0  0  0  0
 23 39  1  0  0  0  0
M  END
> <PUBCHEM_COMPOUND_CID>
11209399

> <PUBCHEM_CONFORMER_RMSD>
0.6

> <PUBCHEM_CONFORMER_DIVERSEORDER>
1
2

> <PUBCHEM_MMFF94_PARTIAL_CHARGES>
26
1 -0.68
10 0.14
11 0.42
12 -0.14
13 -0.14
15 0.08
16 0.08
17 0.09
18 0.09
19 0.47
2 -0.68
20 0.47
21 0.09
22 -0.14
23 0.28
3 -0.53
32 0.4
33 0.4
34 0.45
35 0.45
36 0.15
4 -0.53
5 -0.57
6 -0.57
7 -0.36
8 0.28

> <PUBCHEM_EFFECTIVE_ROTOR_COUNT>
1.8

> <PUBCHEM_PHARMACOPHORE_FEATURES>
12
1 1 acceptor
1 1 donor
1 2 acceptor
1 2 donor
1 3 donor
1 4 donor
1 5 acceptor
1 6 acceptor
1 7 acceptor
6 12 13 15 16 17 18 rings
6 17 18 19 20 21 22 rings
6 8 9 10 11 12 13 rings

> <PUBCHEM_HEAVY_ATOM_COUNT>
23

> <PUBCHEM_ATOM_DEF_STEREO_COUNT>
2

> <PUBCHEM_ATOM_UDEF_STEREO_COUNT>
0

> <PUBCHEM_BOND_DEF_STEREO_COUNT>
0

> <PUBCHEM_BOND_UDEF_STEREO_COUNT>
0

> <PUBCHEM_ISOTOPIC_ATOM_COUNT>
0

> <PUBCHEM_COMPONENT_COUNT>
1

> <PUBCHEM_CACTVS_TAUTO_COUNT>
27

> <PUBCHEM_CONFORMER_ID>
00AB0AB700000001

> <PUBCHEM_MMFF94_ENERGY>
77.1065

> <PUBCHEM_FEATURE_SELFOVERLAP>
60.952

> <PUBCHEM_SHAPE_FINGERPRINT>
10319926 262 18125417926249881296
10411042 1 17474386873068413979
10493431 412 18411420622564805681
10498660 4 18409446998749777556
10616163 171 18339079414255760798
10759866 29 18113058242510453050
10967382 1 18410289177290798275
1100329 8 18338517572520303777
11112241 14 16556194986126217328
11132069 177 18408880750140140552
11578080 2 17058073652814354523
12173636 292 18409442566259145389
12236239 1 17846495895179440161
12403814 3 17603578630321875517
12592029 89 18335702689476946363
12788726 201 17560528300229180841
12838862 33 18265874969766826129
13140716 1 18409442609288257907
13224815 77 18410572898814875690
13583140 156 14332864727907585846
138480 1 17545879326603210843
14790565 3 18267872688010807273
15081414 286 18412833464477996593
15196674 1 18410290328442390307
15536298 74 18342174440840618550
1601671 61 18411418440405089920
16945 1 18411133649497128067
17980427 23 17896596387776072804
1813 80 17167864157818537157
19591789 44 18266178331653569539
20510252 161 18271241608538386633
20642791 178 18043819907512804756
20739085 24 18120397379457413921
21267235 1 18337678511866830074
21421861 104 17969207963622429130
22182313 1 18268730426827769454
23227448 37 18411415133406853359
2334 1 18410008870745697682
23402539 116 18341322401054744780
23557571 272 18270971270290418606
23559900 14 18342458149717203412
2748010 2 18410573998173717462
335352 9 18410571743358182862
34934 24 18411695517240226986
350125 39 18336544907315854234
3545911 37 18410575085032512956
3680242 22 18263360291757093491
474 4 17458631150688169420
495365 180 17489010648299657546
5104073 3 18408881862573802275
537710 114 18409450275836574812
58051976 378 18411415133364694220
59755656 215 18411703154240640854
69090 78 18412257324974992615
9709674 26 18412826897657500558

> <PUBCHEM_SHAPE_MULTIPOLES>
432.24
9.51
2.73
0.77
2.13
0.79
-0.06
-3.31
0.6
0.17
-0.04
-0.36
0.01
0.11

> <PUBCHEM_SHAPE_SELFOVERLAP>
956.684

> <PUBCHEM_SHAPE_VOLUME>
228.8

> <PUBCHEM_COORDINATE_TYPE>
2
5
10

$$$$
