11202081
  -OEChem-03292013303D

 58 60  0     1  0  0  0  0  0999 V2000
    5.3181   -0.7718   -1.1668 S   0  0  0  0  0  0  0  0  0  0  0  0
   -1.9455    5.4584    0.0136 F   0  0  0  0  0  0  0  0  0  0  0  0
   -3.9372    0.0012   -0.4877 O   0  0  0  0  0  0  0  0  0  0  0  0
   -5.8022   -3.0759   -1.2943 O   0  0  0  0  0  0  0  0  0  0  0  0
   -5.9578    0.8108   -1.1166 O   0  0  0  0  0  0  0  0  0  0  0  0
    4.9802   -2.1808   -1.0804 O   0  0  0  0  0  0  0  0  0  0  0  0
    6.7023   -0.3625   -1.3133 O   0  0  0  0  0  0  0  0  0  0  0  0
    2.7669   -1.3479    0.6112 N   0  0  0  0  0  0  0  0  0  0  0  0
    4.5890    0.0771    0.1490 N   0  0  0  0  0  0  0  0  0  0  0  0
    2.4247    1.0100    0.2503 N   0  0  0  0  0  0  0  0  0  0  0  0
   -3.7344   -2.3971   -0.2853 C   0  0  0  0  0  0  0  0  0  0  0  0
   -3.2346   -1.0463    0.2147 C   0  0  1  0  0  0  0  0  0  0  0  0
   -5.2478   -2.5214   -0.1024 C   0  0  1  0  0  0  0  0  0  0  0  0
   -5.9233   -1.1911    0.2136 C   0  0  0  0  0  0  0  0  0  0  0  0
   -1.7734   -0.8703   -0.0402 C   0  0  0  0  0  0  0  0  0  0  0  0
    0.5648   -0.4191    0.7208 C   0  0  0  0  0  0  0  0  0  0  0  0
    0.9623   -2.8626    1.0866 C   0  0  0  0  0  0  0  0  0  0  0  0
    1.4363   -1.4750    0.7948 C   0  0  0  0  0  0  0  0  0  0  0  0
   -5.2953   -0.0456   -0.5406 C   0  0  0  0  0  0  0  0  0  0  0  0
   -0.8809   -0.6087    0.9271 C   0  0  0  0  0  0  0  0  0  0  0  0
    1.1046    0.8105    0.4449 C   0  0  0  0  0  0  0  0  0  0  0  0
    1.5475   -3.4174    2.3974 C   0  0  0  0  0  0  0  0  0  0  0  0
    1.2506   -3.8352   -0.0708 C   0  0  0  0  0  0  0  0  0  0  0  0
    3.1868   -0.0960    0.3465 C   0  0  0  0  0  0  0  0  0  0  0  0
    0.3127    2.0170    0.3330 C   0  0  0  0  0  0  0  0  0  0  0  0
    0.0735    2.8007    1.4614 C   0  0  0  0  0  0  0  0  0  0  0  0
   -0.2106    2.3950   -0.9032 C   0  0  0  0  0  0  0  0  0  0  0  0
    5.1816    1.3917    0.5305 C   0  0  0  0  0  0  0  0  0  0  0  0
    4.4176   -0.1105   -2.5535 C   0  0  0  0  0  0  0  0  0  0  0  0
   -0.6896    3.9633    1.3535 C   0  0  0  0  0  0  0  0  0  0  0  0
   -0.9736    3.5577   -1.0111 C   0  0  0  0  0  0  0  0  0  0  0  0
   -1.2131    4.3419    0.1172 C   0  0  0  0  0  0  0  0  0  0  0  0
   -3.2302   -3.2136    0.2466 H   0  0  0  0  0  0  0  0  0  0  0  0
   -3.4826   -2.5192   -1.3478 H   0  0  0  0  0  0  0  0  0  0  0  0
   -3.4433   -0.9317    1.2865 H   0  0  0  0  0  0  0  0  0  0  0  0
   -5.4619   -3.2317    0.7046 H   0  0  0  0  0  0  0  0  0  0  0  0
   -6.9872   -1.2291   -0.0468 H   0  0  0  0  0  0  0  0  0  0  0  0
   -5.8495   -0.9577    1.2821 H   0  0  0  0  0  0  0  0  0  0  0  0
   -1.4335   -0.9491   -1.0709 H   0  0  0  0  0  0  0  0  0  0  0  0
   -0.1232   -2.8919    1.2258 H   0  0  0  0  0  0  0  0  0  0  0  0
   -1.2063   -0.5213    1.9610 H   0  0  0  0  0  0  0  0  0  0  0  0
    2.6378   -3.5109    2.3434 H   0  0  0  0  0  0  0  0  0  0  0  0
    1.1352   -4.4079    2.6180 H   0  0  0  0  0  0  0  0  0  0  0  0
    1.3094   -2.7572    3.2387 H   0  0  0  0  0  0  0  0  0  0  0  0
    0.7988   -3.4748   -1.0017 H   0  0  0  0  0  0  0  0  0  0  0  0
    0.8375   -4.8267    0.1433 H   0  0  0  0  0  0  0  0  0  0  0  0
    2.3266   -3.9485   -0.2430 H   0  0  0  0  0  0  0  0  0  0  0  0
   -6.7541   -3.2052   -1.1437 H   0  0  0  0  0  0  0  0  0  0  0  0
    0.4746    2.5197    2.4323 H   0  0  0  0  0  0  0  0  0  0  0  0
   -0.0328    1.7948   -1.7925 H   0  0  0  0  0  0  0  0  0  0  0  0
    4.9711    2.1445   -0.2346 H   0  0  0  0  0  0  0  0  0  0  0  0
    4.7742    1.7286    1.4896 H   0  0  0  0  0  0  0  0  0  0  0  0
    6.2631    1.2939    0.6606 H   0  0  0  0  0  0  0  0  0  0  0  0
    3.3654   -0.3884   -2.4748 H   0  0  0  0  0  0  0  0  0  0  0  0
    4.8411   -0.5437   -3.4627 H   0  0  0  0  0  0  0  0  0  0  0  0
    4.5400    0.9738   -2.5736 H   0  0  0  0  0  0  0  0  0  0  0  0
   -0.8763    4.5742    2.2317 H   0  0  0  0  0  0  0  0  0  0  0  0
   -1.3815    3.8525   -1.9734 H   0  0  0  0  0  0  0  0  0  0  0  0
  1  6  2  0  0  0  0
  1  7  2  0  0  0  0
  1  9  1  0  0  0  0
  1 29  1  0  0  0  0
  2 32  1  0  0  0  0
  3 12  1  0  0  0  0
  3 19  1  0  0  0  0
  4 13  1  0  0  0  0
  4 48  1  0  0  0  0
  5 19  2  0  0  0  0
  8 18  2  0  0  0  0
  8 24  1  0  0  0  0
  9 24  1  0  0  0  0
  9 28  1  0  0  0  0
 10 21  1  0  0  0  0
 10 24  2  0  0  0  0
 11 12  1  0  0  0  0
 11 13  1  0  0  0  0
 11 33  1  0  0  0  0
 11 34  1  0  0  0  0
 12 15  1  0  0  0  0
 12 35  1  0  0  0  0
 13 14  1  0  0  0  0
 13 36  1  0  0  0  0
 14 19  1  0  0  0  0
 14 37  1  0  0  0  0
 14 38  1  0  0  0  0
 15 20  2  0  0  0  0
 15 39  1  0  0  0  0
 16 18  1  0  0  0  0
 16 20  1  0  0  0  0
 16 21  2  0  0  0  0
 17 18  1  0  0  0  0
 17 22  1  0  0  0  0
 17 23  1  0  0  0  0
 17 40  1  0  0  0  0
 20 41  1  0  0  0  0
 21 25  1  0  0  0  0
 22 42  1  0  0  0  0
 22 43  1  0  0  0  0
 22 44  1  0  0  0  0
 23 45  1  0  0  0  0
 23 46  1  0  0  0  0
 23 47  1  0  0  0  0
 25 26  2  0  0  0  0
 25 27  1  0  0  0  0
 26 30  1  0  0  0  0
 26 49  1  0  0  0  0
 27 31  2  0  0  0  0
 27 50  1  0  0  0  0
 28 51  1  0  0  0  0
 28 52  1  0  0  0  0
 28 53  1  0  0  0  0
 29 54  1  0  0  0  0
 29 55  1  0  0  0  0
 29 56  1  0  0  0  0
 30 32  2  0  0  0  0
 30 57  1  0  0  0  0
 31 32  1  0  0  0  0
 31 58  1  0  0  0  0
M  END
> <PUBCHEM_COMPOUND_CID>
11202081

> <PUBCHEM_CONFORMER_RMSD>
1

> <PUBCHEM_CONFORMER_DIVERSEORDER>
1
64
66
99
82
89
102
27
22
54
78
86
47
72
63
100
101
61
77
59
79
75
74
68
35
91
58
105
70
42
106
44
23
26
96
56
107
41
43
21
24
20
104
39
62
11
73
49
12
36
5
45
50
15
83
65
29
3
108
60
33
9
18
40
13
85
98
52
81
71
103
48
14
95
7
51
32
94
69
8
30
25
46
88
38
87
37
31
67
93
92
6
76
19
80
34
57
2
53
28
16
97
17
90
55
84
4
10

> <PUBCHEM_MMFF94_PARTIAL_CHARGES>
35
1 1.33
10 -0.62
12 0.42
13 0.28
14 0.06
15 -0.29
16 0.03
17 0.14
18 0.17
19 0.66
2 -0.19
20 -0.18
21 0.31
24 0.82
26 -0.15
27 -0.15
28 0.36
29 0.11
3 -0.43
30 -0.15
31 -0.15
32 0.19
39 0.15
4 -0.68
41 0.15
48 0.4
49 0.15
5 -0.57
50 0.15
57 0.15
58 0.15
6 -0.65
7 -0.65
8 -0.62
9 -0.69

> <PUBCHEM_EFFECTIVE_ROTOR_COUNT>
7

> <PUBCHEM_PHARMACOPHORE_FEATURES>
10
1 4 acceptor
1 4 donor
1 5 acceptor
1 6 acceptor
1 7 acceptor
1 8 acceptor
3 17 22 23 hydrophobe
6 25 26 27 30 31 32 rings
6 3 11 12 13 14 19 rings
6 8 10 16 18 21 24 rings

> <PUBCHEM_HEAVY_ATOM_COUNT>
32

> <PUBCHEM_ATOM_DEF_STEREO_COUNT>
0

> <PUBCHEM_ATOM_UDEF_STEREO_COUNT>
2

> <PUBCHEM_BOND_DEF_STEREO_COUNT>
1

> <PUBCHEM_BOND_UDEF_STEREO_COUNT>
0

> <PUBCHEM_ISOTOPIC_ATOM_COUNT>
0

> <PUBCHEM_COMPONENT_COUNT>
1

> <PUBCHEM_CACTVS_TAUTO_COUNT>
3

> <PUBCHEM_CONFORMER_ID>
00AAEE2100000001

> <PUBCHEM_MMFF94_ENERGY>
89.8725

> <PUBCHEM_FEATURE_SELFOVERLAP>
50.768

> <PUBCHEM_SHAPE_FINGERPRINT>
10190108 129 18046941231976246513
10190206 1 18336275539815216540
10675989 125 18262241127007758296
10930396 42 17977070743599160680
11421498 54 18333733485616003083
12788726 201 18264767662619933939
13149001 5 17902800991620234226
13540713 5 17898289403807270330
13636023 20 18269823358892364651
13911987 19 17969239973929334870
14068700 675 18408045126220874124
14681490 219 18411700976027778027
14955137 171 18268718366939143927
15210252 30 17967532401937512332
15439362 3 17834110128141437737
16090146 7 17531831103311907370
17909252 39 18201159841528376586
18681886 176 18198051680806589659
20775438 99 17333354101284533503
21285901 2 18131081450066392398
21641784 216 18114474365857728420
22393880 68 18339634642143197179
23559900 14 18193262217373464835
24771293 8 18055905739536062200
249057 3 18340766036030278999
25147074 1 17897726458058931154
266924 87 18337115549286956746
283562 15 18408325471525934928
3178227 256 18117846718755429443
4353968 344 18339649915764372726
437815 12 18272086128200216837
469060 322 18186805742522856576

> <PUBCHEM_SHAPE_MULTIPOLES>
610.83
12.71
5.75
1.56
3.62
5.68
0.15
-8.19
7.07
3.35
-1.34
-1.43
-0.42
-0.34

> <PUBCHEM_SHAPE_SELFOVERLAP>
1282.165

> <PUBCHEM_SHAPE_VOLUME>
350.1

> <PUBCHEM_COORDINATE_TYPE>
2
5
10

$$$$
