11211175
  -OEChem-03292013303D

 46 48  0     1  0  0  0  0  0999 V2000
   -0.2917    2.9016   -0.8526 S   0  0  0  0  0  0  0  0  0  0  0  0
   -3.4888   -2.1642   -0.5923 S   0  0  0  0  0  0  0  0  0  0  0  0
   -2.4195    2.4796    1.2252 O   0  0  0  0  0  0  0  0  0  0  0  0
   -0.6102   -1.9711   -1.2554 O   0  0  0  0  0  0  0  0  0  0  0  0
   -1.4524   -3.0190    1.2708 O   0  0  0  0  0  0  0  0  0  0  0  0
   -2.8574    0.3180    0.4865 N   0  0  0  0  0  0  0  0  0  0  0  0
   -0.5112    0.2647   -0.8613 N   0  0  0  0  0  0  0  0  0  0  0  0
    3.7977    1.6872   -0.0583 N   0  0  0  0  0  0  0  0  0  0  0  0
   -0.6330    1.3489    0.0863 C   0  0  1  0  0  0  0  0  0  0  0  0
   -2.2761   -1.0312    0.2536 C   0  0  2  0  0  0  0  0  0  0  0  0
    0.4009    1.2441    1.2056 C   0  0  0  0  0  0  0  0  0  0  0  0
   -2.0517    1.4563    0.6399 C   0  0  0  0  0  0  0  0  0  0  0  0
   -1.0766   -0.9745   -0.7006 C   0  0  0  0  0  0  0  0  0  0  0  0
    1.7920    1.1385    0.6736 C   0  0  0  0  0  0  0  0  0  0  0  0
   -1.8780   -1.7076    1.5690 C   0  0  0  0  0  0  0  0  0  0  0  0
   -4.2496    0.4207    0.9382 C   0  0  0  0  0  0  0  0  0  0  0  0
    2.4737   -0.0591    0.3592 C   0  0  0  0  0  0  0  0  0  0  0  0
    2.6172    2.1961    0.4126 C   0  0  0  0  0  0  0  0  0  0  0  0
    3.7386    0.3125   -0.1018 C   0  0  0  0  0  0  0  0  0  0  0  0
   -1.6163    2.7565   -2.0715 C   0  0  0  0  0  0  0  0  0  0  0  0
    2.1485   -1.4288    0.4175 C   0  0  0  0  0  0  0  0  0  0  0  0
   -3.7053   -1.2010   -2.1026 C   0  0  0  0  0  0  0  0  0  0  0  0
    4.6980   -0.6209   -0.5098 C   0  0  0  0  0  0  0  0  0  0  0  0
    3.0983   -2.3738    0.0122 C   0  0  0  0  0  0  0  0  0  0  0  0
    4.3528   -1.9737   -0.4440 C   0  0  0  0  0  0  0  0  0  0  0  0
    0.2057    0.3805    1.8455 H   0  0  0  0  0  0  0  0  0  0  0  0
    0.3279    2.1071    1.8832 H   0  0  0  0  0  0  0  0  0  0  0  0
    0.2421    0.3364   -1.5384 H   0  0  0  0  0  0  0  0  0  0  0  0
   -2.7094   -1.7625    2.2805 H   0  0  0  0  0  0  0  0  0  0  0  0
   -1.0603   -1.1968    2.0755 H   0  0  0  0  0  0  0  0  0  0  0  0
   -4.9374    0.0781    0.1634 H   0  0  0  0  0  0  0  0  0  0  0  0
   -4.5197    1.4549    1.1705 H   0  0  0  0  0  0  0  0  0  0  0  0
   -4.3792   -0.1751    1.8458 H   0  0  0  0  0  0  0  0  0  0  0  0
    2.4928    3.2639    0.5274 H   0  0  0  0  0  0  0  0  0  0  0  0
    4.5987    2.2399   -0.3310 H   0  0  0  0  0  0  0  0  0  0  0  0
   -2.6037    2.7740   -1.6042 H   0  0  0  0  0  0  0  0  0  0  0  0
   -1.5088    1.8566   -2.6822 H   0  0  0  0  0  0  0  0  0  0  0  0
   -1.5581    3.6172   -2.7444 H   0  0  0  0  0  0  0  0  0  0  0  0
    1.1899   -1.7642    0.7974 H   0  0  0  0  0  0  0  0  0  0  0  0
   -3.9438   -0.1531   -1.9099 H   0  0  0  0  0  0  0  0  0  0  0  0
   -4.5396   -1.6300   -2.6657 H   0  0  0  0  0  0  0  0  0  0  0  0
   -2.8198   -1.2608   -2.7404 H   0  0  0  0  0  0  0  0  0  0  0  0
   -2.2079   -3.4980    0.8902 H   0  0  0  0  0  0  0  0  0  0  0  0
    5.6750   -0.3105   -0.8646 H   0  0  0  0  0  0  0  0  0  0  0  0
    2.8551   -3.4320    0.0611 H   0  0  0  0  0  0  0  0  0  0  0  0
    5.0758   -2.7246   -0.7522 H   0  0  0  0  0  0  0  0  0  0  0  0
  1  9  1  0  0  0  0
  1 20  1  0  0  0  0
  2 10  1  0  0  0  0
  2 22  1  0  0  0  0
  3 12  2  0  0  0  0
  4 13  2  0  0  0  0
  5 15  1  0  0  0  0
  5 43  1  0  0  0  0
  6 10  1  0  0  0  0
  6 12  1  0  0  0  0
  6 16  1  0  0  0  0
  7  9  1  0  0  0  0
  7 13  1  0  0  0  0
  7 28  1  0  0  0  0
  8 18  1  0  0  0  0
  8 19  1  0  0  0  0
  8 35  1  0  0  0  0
  9 11  1  0  0  0  0
  9 12  1  0  0  0  0
 10 13  1  0  0  0  0
 10 15  1  0  0  0  0
 11 14  1  0  0  0  0
 11 26  1  0  0  0  0
 11 27  1  0  0  0  0
 14 17  1  0  0  0  0
 14 18  2  0  0  0  0
 15 29  1  0  0  0  0
 15 30  1  0  0  0  0
 16 31  1  0  0  0  0
 16 32  1  0  0  0  0
 16 33  1  0  0  0  0
 17 19  1  0  0  0  0
 17 21  2  0  0  0  0
 18 34  1  0  0  0  0
 19 23  2  0  0  0  0
 20 36  1  0  0  0  0
 20 37  1  0  0  0  0
 20 38  1  0  0  0  0
 21 24  1  0  0  0  0
 21 39  1  0  0  0  0
 22 40  1  0  0  0  0
 22 41  1  0  0  0  0
 22 42  1  0  0  0  0
 23 25  1  0  0  0  0
 23 44  1  0  0  0  0
 24 25  2  0  0  0  0
 24 45  1  0  0  0  0
 25 46  1  0  0  0  0
M  END
> <PUBCHEM_COMPOUND_CID>
11211175

> <PUBCHEM_CONFORMER_RMSD>
0.8

> <PUBCHEM_CONFORMER_DIVERSEORDER>
1
7
13
12
11
5
8
3
4
2
9
10
6

> <PUBCHEM_MMFF94_PARTIAL_CHARGES>
32
1 -0.46
10 0.59
11 0.18
12 0.57
13 0.57
14 -0.18
15 0.28
16 0.3
18 -0.3
19 -0.15
2 -0.46
20 0.23
21 -0.15
22 0.23
23 -0.15
24 -0.15
25 -0.15
28 0.37
3 -0.57
34 0.15
35 0.27
39 0.15
4 -0.57
43 0.4
44 0.15
45 0.15
46 0.15
5 -0.68
6 -0.66
7 -0.73
8 0.03
9 0.59

> <PUBCHEM_EFFECTIVE_ROTOR_COUNT>
5.8

> <PUBCHEM_PHARMACOPHORE_FEATURES>
12
1 20 hydrophobe
1 22 hydrophobe
1 3 acceptor
1 4 acceptor
1 5 acceptor
1 5 donor
1 7 donor
1 8 cation
1 8 donor
5 8 14 17 18 19 rings
6 17 19 21 23 24 25 rings
6 6 7 9 10 12 13 rings

> <PUBCHEM_HEAVY_ATOM_COUNT>
25

> <PUBCHEM_ATOM_DEF_STEREO_COUNT>
2

> <PUBCHEM_ATOM_UDEF_STEREO_COUNT>
0

> <PUBCHEM_BOND_DEF_STEREO_COUNT>
0

> <PUBCHEM_BOND_UDEF_STEREO_COUNT>
0

> <PUBCHEM_ISOTOPIC_ATOM_COUNT>
0

> <PUBCHEM_COMPONENT_COUNT>
1

> <PUBCHEM_CACTVS_TAUTO_COUNT>
2

> <PUBCHEM_CONFORMER_ID>
00AB11A700000001

> <PUBCHEM_MMFF94_ENERGY>
88.5744

> <PUBCHEM_FEATURE_SELFOVERLAP>
60.99

> <PUBCHEM_SHAPE_FINGERPRINT>
10366900 7 18339640161159698802
10616163 171 18343026609581207762
1100329 8 16893142093689207699
11578080 2 17203027669308942970
12011746 2 18339647733007771509
12403814 3 18116162077361604721
12422481 6 17986416454785046035
12553582 1 18333728018264735336
12596599 1 17488764340404955110
12633257 1 18059024881913718419
12788726 201 18042107809010027845
13140716 1 18271528606620993618
13224815 77 18340764931474350834
14223421 5 18410570712824390372
14251751 93 18117838789833811016
15196674 1 18343303690763994818
15420108 30 17481146696647129241
16752209 62 18043790036009200081
16945 1 18057033833901907441
17357779 13 18339908420284669703
1813 80 17968098667705698365
19591789 44 18120378657172166161
20691752 17 18260543441703473411
21285901 2 17971724870176025789
221490 88 18338809983026614354
22907989 373 18261951851674548508
23559900 14 18341889731727589408
23566358 27 18263380203747976468
238 59 17324050673755634421
2871803 45 18337664317237124742
350125 39 18339929207879272928
46194498 28 17464516969728823359
463206 1 17262709383925281679
5104073 3 18273496797139005426
6287921 2 18117856610007141308
70251023 43 18270949211349397286
81228 2 18335690676469470761
9709674 26 18411704317786582698

> <PUBCHEM_SHAPE_MULTIPOLES>
489.64
7.84
3.52
1.49
4.48
0.51
-0.39
-3.03
-0.83
-0.58
-0.4
-1.51
0.13
0.13

> <PUBCHEM_SHAPE_SELFOVERLAP>
1025.857

> <PUBCHEM_SHAPE_VOLUME>
281.4

> <PUBCHEM_COORDINATE_TYPE>
2
5
10

$$$$
