11210971
  -OEChem-03292013303D

 47 49  0     1  0  0  0  0  0999 V2000
   -2.6115   -1.0534    1.2482 O   0  0  0  0  0  0  0  0  0  0  0  0
   -5.3419    0.0361   -0.8202 O   0  0  0  0  0  0  0  0  0  0  0  0
   -5.4107   -2.1651    0.7720 O   0  0  0  0  0  0  0  0  0  0  0  0
   -0.7410   -3.0492    0.6313 O   0  0  0  0  0  0  0  0  0  0  0  0
   -2.6553    1.1788    0.4445 N   0  0  0  0  0  0  0  0  0  0  0  0
   -2.1364    3.3394    0.2424 N   0  0  0  0  0  0  0  0  0  0  0  0
   -0.5291    0.1822   -0.1790 N   0  0  0  0  0  0  0  0  0  0  0  0
    1.1290    1.8906   -0.7159 N   0  0  0  0  0  0  0  0  0  0  0  0
    0.6416    4.2307   -0.6159 N   0  0  0  0  0  0  0  0  0  0  0  0
    7.3656    0.6250    2.2517 N   0  0  0  0  0  0  0  0  0  0  0  0
   -4.1186   -0.6054   -0.5229 C   0  0  2  0  0  0  0  0  0  0  0  0
   -4.2926   -2.0531   -0.1087 C   0  0  1  0  0  0  0  0  0  0  0  0
   -3.4539   -0.0153    0.7115 C   0  0  1  0  0  0  0  0  0  0  0  0
   -3.0154   -2.3213    0.6813 C   0  0  1  0  0  0  0  0  0  0  0  0
   -1.8790   -2.8427   -0.1869 C   0  0  0  0  0  0  0  0  0  0  0  0
   -1.3476    1.2206    0.0478 C   0  0  0  0  0  0  0  0  0  0  0  0
   -3.0838    2.4771    0.5466 C   0  0  0  0  0  0  0  0  0  0  0  0
   -1.0458    2.5678   -0.0712 C   0  0  0  0  0  0  0  0  0  0  0  0
    0.2478    2.8897   -0.4692 C   0  0  0  0  0  0  0  0  0  0  0  0
    0.6922    0.6177   -0.5577 C   0  0  0  0  0  0  0  0  0  0  0  0
    1.6526   -0.3989   -0.8267 C   0  0  0  0  0  0  0  0  0  0  0  0
    4.8985   -1.7345   -1.3388 C   0  0  0  0  0  0  0  0  0  0  0  0
    3.4749   -2.2958   -1.3212 C   0  0  0  0  0  0  0  0  0  0  0  0
    5.2937   -1.0762   -0.0090 C   0  0  0  0  0  0  0  0  0  0  0  0
    2.4725   -1.2563   -1.0513 C   0  0  0  0  0  0  0  0  0  0  0  0
    6.7158   -0.5118   -0.0284 C   0  0  0  0  0  0  0  0  0  0  0  0
    7.0782    0.1235    1.2457 C   0  0  0  0  0  0  0  0  0  0  0  0
   -3.4640   -0.5360   -1.3994 H   0  0  0  0  0  0  0  0  0  0  0  0
   -4.1819    0.2617    1.4843 H   0  0  0  0  0  0  0  0  0  0  0  0
   -4.4611   -2.7292   -0.9517 H   0  0  0  0  0  0  0  0  0  0  0  0
   -3.1821   -3.0016    1.5242 H   0  0  0  0  0  0  0  0  0  0  0  0
   -1.6048   -2.1447   -0.9828 H   0  0  0  0  0  0  0  0  0  0  0  0
   -2.1475   -3.7994   -0.6448 H   0  0  0  0  0  0  0  0  0  0  0  0
   -5.9341   -0.0772   -0.0573 H   0  0  0  0  0  0  0  0  0  0  0  0
   -5.4651   -3.0941    1.0545 H   0  0  0  0  0  0  0  0  0  0  0  0
   -4.0922    2.7306    0.8443 H   0  0  0  0  0  0  0  0  0  0  0  0
   -0.5069   -2.1927    1.0283 H   0  0  0  0  0  0  0  0  0  0  0  0
   -0.0134    4.9785   -0.4320 H   0  0  0  0  0  0  0  0  0  0  0  0
    1.5875    4.4386   -0.9058 H   0  0  0  0  0  0  0  0  0  0  0  0
    5.5982   -2.5481   -1.5649 H   0  0  0  0  0  0  0  0  0  0  0  0
    4.9920   -0.9977   -2.1467 H   0  0  0  0  0  0  0  0  0  0  0  0
    3.2640   -2.7653   -2.2889 H   0  0  0  0  0  0  0  0  0  0  0  0
    3.4003   -3.0838   -0.5628 H   0  0  0  0  0  0  0  0  0  0  0  0
    5.2030   -1.8127    0.8001 H   0  0  0  0  0  0  0  0  0  0  0  0
    4.5999   -0.2617    0.2324 H   0  0  0  0  0  0  0  0  0  0  0  0
    7.4266   -1.3171   -0.2471 H   0  0  0  0  0  0  0  0  0  0  0  0
    6.8077    0.2223   -0.8374 H   0  0  0  0  0  0  0  0  0  0  0  0
  1 13  1  0  0  0  0
  1 14  1  0  0  0  0
  2 11  1  0  0  0  0
  2 34  1  0  0  0  0
  3 12  1  0  0  0  0
  3 35  1  0  0  0  0
  4 15  1  0  0  0  0
  4 37  1  0  0  0  0
  5 13  1  0  0  0  0
  5 16  1  0  0  0  0
  5 17  1  0  0  0  0
  6 17  2  0  0  0  0
  6 18  1  0  0  0  0
  7 16  2  0  0  0  0
  7 20  1  0  0  0  0
  8 19  1  0  0  0  0
  8 20  2  0  0  0  0
  9 19  1  0  0  0  0
  9 38  1  0  0  0  0
  9 39  1  0  0  0  0
 10 27  3  0  0  0  0
 11 12  1  0  0  0  0
 11 13  1  0  0  0  0
 11 28  1  0  0  0  0
 12 14  1  0  0  0  0
 12 30  1  0  0  0  0
 13 29  1  0  0  0  0
 14 15  1  0  0  0  0
 14 31  1  0  0  0  0
 15 32  1  0  0  0  0
 15 33  1  0  0  0  0
 16 18  1  0  0  0  0
 17 36  1  0  0  0  0
 18 19  2  0  0  0  0
 20 21  1  0  0  0  0
 21 25  3  0  0  0  0
 22 23  1  0  0  0  0
 22 24  1  0  0  0  0
 22 40  1  0  0  0  0
 22 41  1  0  0  0  0
 23 25  1  0  0  0  0
 23 42  1  0  0  0  0
 23 43  1  0  0  0  0
 24 26  1  0  0  0  0
 24 44  1  0  0  0  0
 24 45  1  0  0  0  0
 26 27  1  0  0  0  0
 26 46  1  0  0  0  0
 26 47  1  0  0  0  0
M  END
> <PUBCHEM_COMPOUND_CID>
11210971

> <PUBCHEM_CONFORMER_RMSD>
0.8

> <PUBCHEM_CONFORMER_DIVERSEORDER>
8
6
147
68
140
59
122
144
91
100
120
55
10
43
52
73
145
81
29
110
101
93
45
24
71
107
13
126
56
138
118
98
106
74
92
119
12
128
142
3
113
62
41
31
11
69
146
37
49
9
2
44
88
111
124
123
47
5
58
87
134
86
22
99
143
42
96
121
82
148
112
125
103
32
95
25
127
39
76
70
132
1
129
19
50
137
38
40
85
36
130
89
75
108
23
94
15
53
7
102
109
27
67
116
16
139
131
57
54
26
17
51
141
63
84
133
14
46
4
136
114
104
35
72
64
90
30
34
135
33
61
80
97
115
66
78
105
60
79
28
21
117
18
48
65
20
77
83

> <PUBCHEM_MMFF94_PARTIAL_CHARGES>
31
1 -0.56
10 -0.56
11 0.28
12 0.28
13 0.54
14 0.28
15 0.28
16 0.11
17 0.04
18 0.23
19 0.41
2 -0.68
20 0.69
21 -0.07
23 0.2
25 -0.2
26 0.2
27 0.36
3 -0.68
34 0.4
35 0.4
36 0.15
37 0.4
38 0.4
39 0.4
4 -0.68
5 0.05
6 -0.57
7 -0.57
8 -0.62
9 -0.9

> <PUBCHEM_EFFECTIVE_ROTOR_COUNT>
6

> <PUBCHEM_PHARMACOPHORE_FEATURES>
17
1 1 acceptor
1 10 acceptor
1 2 acceptor
1 2 donor
1 3 acceptor
1 3 donor
1 4 acceptor
1 4 donor
1 9 cation
1 9 donor
3 5 6 17 cation
3 5 7 16 cation
3 7 8 20 cation
5 1 11 12 13 14 rings
5 22 23 24 25 26 hydrophobe
5 5 6 16 17 18 rings
6 7 8 16 18 19 20 rings

> <PUBCHEM_HEAVY_ATOM_COUNT>
27

> <PUBCHEM_ATOM_DEF_STEREO_COUNT>
4

> <PUBCHEM_ATOM_UDEF_STEREO_COUNT>
0

> <PUBCHEM_BOND_DEF_STEREO_COUNT>
0

> <PUBCHEM_BOND_UDEF_STEREO_COUNT>
0

> <PUBCHEM_ISOTOPIC_ATOM_COUNT>
0

> <PUBCHEM_COMPONENT_COUNT>
1

> <PUBCHEM_CACTVS_TAUTO_COUNT>
3

> <PUBCHEM_CONFORMER_ID>
00AB10DB00000008

> <PUBCHEM_MMFF94_ENERGY>
46.1384

> <PUBCHEM_FEATURE_SELFOVERLAP>
86.894

> <PUBCHEM_SHAPE_FINGERPRINT>
1100329 8 18267320759143817041
12553582 1 18195277514016313647
12838862 33 18336255748785342213
13140716 1 18269293308641949833
13782708 43 17916594125042670230
14394314 77 18336268933849618513
14659021 117 18342726447449842367
14790565 3 17187294465575872329
15183329 4 9079117744327670614
16120349 306 18116998775751222810
1768 85 17417235659337384288
20642791 13 18199755756362496789
21458453 9 18269270322356530440
23559900 14 18411697733622940137
3178227 256 18049190812331907713
3383291 50 18334020522939996163
3882209 13 17623829624356404830
4280585 95 18335133219636406293
5104073 3 18199750242067652426
5364581 5 18342736343255192992

> <PUBCHEM_SHAPE_MULTIPOLES>
502.28
14.46
4.24
1.24
26.85
2.54
0.32
-6.09
5.37
-3.23
-0.39
1.8
-0.18
1.66

> <PUBCHEM_SHAPE_SELFOVERLAP>
1062.321

> <PUBCHEM_SHAPE_VOLUME>
273.5

> <PUBCHEM_COORDINATE_TYPE>
2
5
10

$$$$
