11222428
  -OEChem-03292013303D

 53 54  0     1  0  0  0  0  0999 V2000
   -3.5242    2.0592    0.3618 O   0  0  0  0  0  0  0  0  0  0  0  0
   -1.7275    1.2153    2.4151 O   0  0  0  0  0  0  0  0  0  0  0  0
   -5.8077    1.6778    0.4732 O   0  0  0  0  0  0  0  0  0  0  0  0
    3.0810   -2.2698   -1.6798 O   0  0  0  0  0  0  0  0  0  0  0  0
    4.0205   -3.4976   -0.0234 O   0  0  0  0  0  0  0  0  0  0  0  0
    4.9430    1.5484    0.2941 O   0  0  0  0  0  0  0  0  0  0  0  0
   -0.4725    0.0803    0.8388 N   0  0  0  0  0  0  0  0  0  0  0  0
    3.4058    0.0143   -0.5234 N   0  0  0  0  0  0  0  0  0  0  0  0
    3.4528    3.5924   -0.8045 N   0  0  0  0  0  0  0  0  0  0  0  0
    1.5735   -1.3178    1.4198 C   0  0  2  0  0  0  0  0  0  0  0  0
    0.6593   -0.1654    1.6862 C   0  0  2  0  0  0  0  0  0  0  0  0
    0.6758   -1.3307    2.6221 C   0  0  0  0  0  0  0  0  0  0  0  0
    3.0337   -1.1369    1.6104 C   0  0  0  0  0  0  0  0  0  0  0  0
    3.8203   -1.1024    0.2894 C   0  0  1  0  0  0  0  0  0  0  0  0
   -2.6765    0.8906    0.1843 C   0  0  2  0  0  0  0  0  0  0  0  0
   -3.8986   -0.0058    0.1933 C   0  0  2  0  0  0  0  0  0  0  0  0
   -1.5998    0.7633    1.2732 C   0  0  0  0  0  0  0  0  0  0  0  0
   -4.2289   -0.7402   -1.1081 C   0  0  2  0  0  0  0  0  0  0  0  0
   -4.6598    1.3107    0.3631 C   0  0  0  0  0  0  0  0  0  0  0  0
    3.6638   -2.4119   -0.4654 C   0  0  0  0  0  0  0  0  0  0  0  0
   -5.7209   -1.1023   -1.1727 C   0  0  0  0  0  0  0  0  0  0  0  0
   -3.3752   -2.0068   -1.1895 C   0  0  0  0  0  0  0  0  0  0  0  0
    4.0092    1.2643   -0.4533 C   0  0  0  0  0  0  0  0  0  0  0  0
   -6.1051   -1.8430   -2.4466 C   0  0  0  0  0  0  0  0  0  0  0  0
    3.3691    2.2647   -1.4076 C   0  0  2  0  0  0  0  0  0  0  0  0
    4.0890    2.2491   -2.7503 C   0  0  0  0  0  0  0  0  0  0  0  0
    1.3156   -2.0289    0.6447 H   0  0  0  0  0  0  0  0  0  0  0  0
    1.1076    0.7569    2.0423 H   0  0  0  0  0  0  0  0  0  0  0  0
    1.1163   -1.1840    3.6010 H   0  0  0  0  0  0  0  0  0  0  0  0
   -0.1663   -2.0127    2.6137 H   0  0  0  0  0  0  0  0  0  0  0  0
    3.2463   -0.2243    2.1820 H   0  0  0  0  0  0  0  0  0  0  0  0
    3.4056   -1.9729    2.2168 H   0  0  0  0  0  0  0  0  0  0  0  0
   -0.4311   -0.2671   -0.1155 H   0  0  0  0  0  0  0  0  0  0  0  0
    4.8896   -0.9873    0.5034 H   0  0  0  0  0  0  0  0  0  0  0  0
   -2.2098    0.9600   -0.8098 H   0  0  0  0  0  0  0  0  0  0  0  0
   -3.9931   -0.6380    1.0853 H   0  0  0  0  0  0  0  0  0  0  0  0
   -3.9899   -0.1018   -1.9689 H   0  0  0  0  0  0  0  0  0  0  0  0
    2.6302   -0.1255   -1.1649 H   0  0  0  0  0  0  0  0  0  0  0  0
   -6.3273   -0.1916   -1.1312 H   0  0  0  0  0  0  0  0  0  0  0  0
   -6.0063   -1.7042   -0.3012 H   0  0  0  0  0  0  0  0  0  0  0  0
   -2.3147   -1.7693   -1.0506 H   0  0  0  0  0  0  0  0  0  0  0  0
   -3.4673   -2.4969   -2.1631 H   0  0  0  0  0  0  0  0  0  0  0  0
   -3.6524   -2.7262   -0.4111 H   0  0  0  0  0  0  0  0  0  0  0  0
   -7.1941   -1.9438   -2.5044 H   0  0  0  0  0  0  0  0  0  0  0  0
   -5.7694   -1.3008   -3.3362 H   0  0  0  0  0  0  0  0  0  0  0  0
   -5.6852   -2.8526   -2.4711 H   0  0  0  0  0  0  0  0  0  0  0  0
    2.3114    2.0159   -1.5487 H   0  0  0  0  0  0  0  0  0  0  0  0
    2.9869   -3.1285   -2.1443 H   0  0  0  0  0  0  0  0  0  0  0  0
    4.0213    1.2580   -3.2125 H   0  0  0  0  0  0  0  0  0  0  0  0
    5.1543    2.4832   -2.6401 H   0  0  0  0  0  0  0  0  0  0  0  0
    3.6491    2.9738   -3.4439 H   0  0  0  0  0  0  0  0  0  0  0  0
    4.4296    3.8722   -0.7176 H   0  0  0  0  0  0  0  0  0  0  0  0
    3.0238    4.2764   -1.4272 H   0  0  0  0  0  0  0  0  0  0  0  0
  1 15  1  0  0  0  0
  1 19  1  0  0  0  0
  2 17  2  0  0  0  0
  3 19  2  0  0  0  0
  4 20  1  0  0  0  0
  4 48  1  0  0  0  0
  5 20  2  0  0  0  0
  6 23  2  0  0  0  0
  7 11  1  0  0  0  0
  7 17  1  0  0  0  0
  7 33  1  0  0  0  0
  8 14  1  0  0  0  0
  8 23  1  0  0  0  0
  8 38  1  0  0  0  0
  9 25  1  0  0  0  0
  9 52  1  0  0  0  0
  9 53  1  0  0  0  0
 10 11  1  0  0  0  0
 10 12  1  0  0  0  0
 10 13  1  0  0  0  0
 10 27  1  0  0  0  0
 11 12  1  0  0  0  0
 11 28  1  0  0  0  0
 12 29  1  0  0  0  0
 12 30  1  0  0  0  0
 13 14  1  0  0  0  0
 13 31  1  0  0  0  0
 13 32  1  0  0  0  0
 14 20  1  0  0  0  0
 14 34  1  0  0  0  0
 15 16  1  0  0  0  0
 15 17  1  0  0  0  0
 15 35  1  0  0  0  0
 16 18  1  0  0  0  0
 16 19  1  0  0  0  0
 16 36  1  0  0  0  0
 18 21  1  0  0  0  0
 18 22  1  0  0  0  0
 18 37  1  0  0  0  0
 21 24  1  0  0  0  0
 21 39  1  0  0  0  0
 21 40  1  0  0  0  0
 22 41  1  0  0  0  0
 22 42  1  0  0  0  0
 22 43  1  0  0  0  0
 23 25  1  0  0  0  0
 24 44  1  0  0  0  0
 24 45  1  0  0  0  0
 24 46  1  0  0  0  0
 25 26  1  0  0  0  0
 25 47  1  0  0  0  0
 26 49  1  0  0  0  0
 26 50  1  0  0  0  0
 26 51  1  0  0  0  0
M  END
> <PUBCHEM_COMPOUND_CID>
11222428

> <PUBCHEM_CONFORMER_RMSD>
1

> <PUBCHEM_CONFORMER_DIVERSEORDER>
1
70
57
46
134
34
145
173
137
11
138
12
106
14
165
157
16
150
43
186
6
103
18
35
154
164
77
119
75
197
96
9
10
31
125
89
22
174
69
131
56
193
5
101
190
156
175
183
93
7
66
109
180
53
97
142
100
61
86
143
159
177
45
118
68
81
58
40
185
2
82
117
15
84
25
129
170
49
94
151
36
74
44
55
67
33
195
85
127
199
47
141
8
184
41
111
38
76
116
168
189
105
88
52
20
80
32
153
64
113
71
4
39
28
112
124
24
178
60
51
130
158
182
192
30
62
29
27
110
37
91
90
139
147
191
26
50
171
95
167
135
121
114
79
166
92
17
146
83
133
140
155
120
108
42
3
99
107
152
63
72
78
176
87
172
115
179
169
65
136
13
21
163
123
128
194
188
104
187
132
161
73
59
19
54
98
23
144
181
198
196
102
148
149
122
126
162
48
160

> <PUBCHEM_MMFF94_PARTIAL_CHARGES>
30
1 -0.41
10 -0.19
11 0.05
12 -0.2
13 0.09
14 0.36
15 0.31
16 0.05
17 0.58
19 0.67
2 -0.57
20 0.66
23 0.57
25 0.33
27 0.1
28 0.1
29 0.1
3 -0.57
30 0.1
33 0.37
38 0.37
4 -0.65
48 0.5
5 -0.57
52 0.36
53 0.36
6 -0.57
7 -0.58
8 -0.73
9 -0.99

> <PUBCHEM_EFFECTIVE_ROTOR_COUNT>
12.2

> <PUBCHEM_PHARMACOPHORE_FEATURES>
13
1 2 acceptor
1 22 hydrophobe
1 24 hydrophobe
1 3 acceptor
1 4 acceptor
1 5 acceptor
1 6 acceptor
1 7 donor
1 8 donor
1 9 cation
1 9 donor
3 4 5 20 anion
4 1 15 16 19 rings

> <PUBCHEM_HEAVY_ATOM_COUNT>
26

> <PUBCHEM_ATOM_DEF_STEREO_COUNT>
7

> <PUBCHEM_ATOM_UDEF_STEREO_COUNT>
0

> <PUBCHEM_BOND_DEF_STEREO_COUNT>
0

> <PUBCHEM_BOND_UDEF_STEREO_COUNT>
0

> <PUBCHEM_ISOTOPIC_ATOM_COUNT>
0

> <PUBCHEM_COMPONENT_COUNT>
1

> <PUBCHEM_CACTVS_TAUTO_COUNT>
4

> <PUBCHEM_CONFORMER_ID>
00AB3D9C00000001

> <PUBCHEM_MMFF94_ENERGY>
34.8672

> <PUBCHEM_FEATURE_SELFOVERLAP>
66.032

> <PUBCHEM_SHAPE_FINGERPRINT>
10928967 22 17132108087297563543
11135609 149 17826214226031138614
11135609 99 17202475603616032822
11796584 16 16845576404944095585
12616971 3 18335138648765082713
13617811 41 18199733908290922205
14251751 18 17703217404544162138
14251757 5 18059574741292546639
14251764 30 15123244267977726133
14289585 56 17827647945837618134
14848178 96 17531251703016492420
15799311 1 17703799123994816139
17980427 23 18264185055234026410
21033648 29 14707205509314862631
21388113 180 16733548350411316364
21521721 280 11599713005608826218
21860390 5 18260276231098987180
23559900 14 17702666527833026255
25222932 49 16629658752461941326
3004659 81 18130222645180064818
3459 39 13984658153356504233
437795 139 16700359429398187518
44317340 157 18333454231638446857
474 4 17894632590904116432
574716 61 18334010601464418581
633830 44 17968385562899247897
7918774 8 15698009573620007485

> <PUBCHEM_SHAPE_MULTIPOLES>
484.91
14.15
3.38
2.44
12.79
0.45
0.16
0.95
8.04
-4.65
1.37
0.35
-0.29
-3.84

> <PUBCHEM_SHAPE_SELFOVERLAP>
977.772

> <PUBCHEM_SHAPE_VOLUME>
281.6

> <PUBCHEM_COORDINATE_TYPE>
2
5
10

$$$$
