11225555
  -OEChem-03292013303D

 57 60  0     1  0  0  0  0  0999 V2000
    3.6939    3.1516   -1.0934 S   0  0  0  0  0  0  0  0  0  0  0  0
    0.7570   -4.9262   -0.9897 S   0  0  0  0  0  0  0  0  0  0  0  0
   -4.4005    1.5352   -0.1161 O   0  0  0  0  0  0  0  0  0  0  0  0
    4.3047   -2.0589   -0.8930 O   0  0  0  0  0  0  0  0  0  0  0  0
   -0.5446    4.8455   -0.8751 O   0  0  0  0  0  0  0  0  0  0  0  0
   -4.1631   -2.7161   -0.1889 O   0  0  0  0  0  0  0  0  0  0  0  0
    2.7227   -0.5487   -0.1252 N   0  0  0  0  0  0  0  0  0  0  0  0
    1.5918    2.0535   -0.0962 N   0  0  0  0  0  0  0  0  0  0  0  0
   -1.0038    2.7958    0.1020 N   0  0  0  0  0  0  0  0  0  0  0  0
   -1.9213   -2.2359    0.1772 N   0  0  0  0  0  0  0  0  0  0  0  0
    0.8314   -2.5184   -0.0840 N   0  0  0  0  0  0  0  0  0  0  0  0
   -2.4668    0.4243    0.2360 N   0  0  0  0  0  0  0  0  0  0  0  0
    3.6162    0.5966    0.0412 C   0  0  2  0  0  0  0  0  0  0  0  0
    4.1205    0.6589    1.4804 C   0  0  0  0  0  0  0  0  0  0  0  0
    2.8714    1.8489   -0.3258 C   0  0  0  0  0  0  0  0  0  0  0  0
    2.9564    0.8527    2.4501 C   0  0  0  0  0  0  0  0  0  0  0  0
    4.9054   -0.6038    1.8303 C   0  0  0  0  0  0  0  0  0  0  0  0
   -2.4478    2.9486    0.2586 C   0  0  1  0  0  0  0  0  0  0  0  0
    3.1528   -1.7947   -0.5592 C   0  0  0  0  0  0  0  0  0  0  0  0
   -1.4019   -3.6002    0.2020 C   0  0  1  0  0  0  0  0  0  0  0  0
    1.2083    3.3025   -0.5666 C   0  0  0  0  0  0  0  0  0  0  0  0
    2.0914   -2.7928   -0.5929 C   0  0  0  0  0  0  0  0  0  0  0  0
   -3.0581    1.5968    0.1422 C   0  0  0  0  0  0  0  0  0  0  0  0
    2.2307    4.0418   -1.1302 C   0  0  0  0  0  0  0  0  0  0  0  0
    0.0371   -3.5585   -0.2345 C   0  0  0  0  0  0  0  0  0  0  0  0
   -0.1766    3.7469   -0.4698 C   0  0  0  0  0  0  0  0  0  0  0  0
   -3.4769   -0.4801    0.0093 C   0  0  0  0  0  0  0  0  0  0  0  0
   -2.7713    3.5915    1.6015 C   0  0  0  0  0  0  0  0  0  0  0  0
   -4.6568    0.1976   -0.1943 C   0  0  0  0  0  0  0  0  0  0  0  0
   -1.5367   -4.1874    1.6046 C   0  0  0  0  0  0  0  0  0  0  0  0
   -3.2547   -1.9108   -0.0125 C   0  0  0  0  0  0  0  0  0  0  0  0
    2.2339   -4.0662   -1.1125 C   0  0  0  0  0  0  0  0  0  0  0  0
   -6.0445   -0.1901   -0.4755 C   0  0  0  0  0  0  0  0  0  0  0  0
    4.4657    0.4577   -0.6395 H   0  0  0  0  0  0  0  0  0  0  0  0
    4.7990    1.5154    1.5891 H   0  0  0  0  0  0  0  0  0  0  0  0
    2.1949    0.0712    2.3625 H   0  0  0  0  0  0  0  0  0  0  0  0
    3.3249    0.8212    3.4825 H   0  0  0  0  0  0  0  0  0  0  0  0
    2.4733    1.8268    2.3313 H   0  0  0  0  0  0  0  0  0  0  0  0
    4.2670   -1.4889    1.9114 H   0  0  0  0  0  0  0  0  0  0  0  0
    5.3939   -0.4796    2.8038 H   0  0  0  0  0  0  0  0  0  0  0  0
    5.6950   -0.7983    1.0974 H   0  0  0  0  0  0  0  0  0  0  0  0
    1.7447   -0.4296    0.1269 H   0  0  0  0  0  0  0  0  0  0  0  0
   -2.8148    3.5904   -0.5505 H   0  0  0  0  0  0  0  0  0  0  0  0
   -1.9992   -4.1957   -0.4986 H   0  0  0  0  0  0  0  0  0  0  0  0
    2.1911    5.0319   -1.5625 H   0  0  0  0  0  0  0  0  0  0  0  0
   -0.5846    1.9343    0.4440 H   0  0  0  0  0  0  0  0  0  0  0  0
   -1.2597   -1.4817    0.3451 H   0  0  0  0  0  0  0  0  0  0  0  0
   -2.3999    2.9849    2.4360 H   0  0  0  0  0  0  0  0  0  0  0  0
   -2.3079    4.5808    1.6821 H   0  0  0  0  0  0  0  0  0  0  0  0
   -3.8524    3.7119    1.7316 H   0  0  0  0  0  0  0  0  0  0  0  0
   -0.9748   -3.5992    2.3399 H   0  0  0  0  0  0  0  0  0  0  0  0
   -2.5844   -4.1984    1.9244 H   0  0  0  0  0  0  0  0  0  0  0  0
   -1.1623   -5.2160    1.6431 H   0  0  0  0  0  0  0  0  0  0  0  0
    3.1074   -4.5208   -1.5587 H   0  0  0  0  0  0  0  0  0  0  0  0
   -6.1051   -0.7450   -1.4168 H   0  0  0  0  0  0  0  0  0  0  0  0
   -6.4354   -0.8264    0.3245 H   0  0  0  0  0  0  0  0  0  0  0  0
   -6.6972    0.6848   -0.5580 H   0  0  0  0  0  0  0  0  0  0  0  0
  1 15  1  0  0  0  0
  1 24  1  0  0  0  0
  2 25  1  0  0  0  0
  2 32  1  0  0  0  0
  3 23  1  0  0  0  0
  3 29  1  0  0  0  0
  4 19  2  0  0  0  0
  5 26  2  0  0  0  0
  6 31  2  0  0  0  0
  7 13  1  0  0  0  0
  7 19  1  0  0  0  0
  7 42  1  0  0  0  0
  8 15  2  0  0  0  0
  8 21  1  0  0  0  0
  9 18  1  0  0  0  0
  9 26  1  0  0  0  0
  9 46  1  0  0  0  0
 10 20  1  0  0  0  0
 10 31  1  0  0  0  0
 10 47  1  0  0  0  0
 11 22  1  0  0  0  0
 11 25  2  0  0  0  0
 12 23  2  0  0  0  0
 12 27  1  0  0  0  0
 13 14  1  0  0  0  0
 13 15  1  0  0  0  0
 13 34  1  0  0  0  0
 14 16  1  0  0  0  0
 14 17  1  0  0  0  0
 14 35  1  0  0  0  0
 16 36  1  0  0  0  0
 16 37  1  0  0  0  0
 16 38  1  0  0  0  0
 17 39  1  0  0  0  0
 17 40  1  0  0  0  0
 17 41  1  0  0  0  0
 18 23  1  0  0  0  0
 18 28  1  0  0  0  0
 18 43  1  0  0  0  0
 19 22  1  0  0  0  0
 20 25  1  0  0  0  0
 20 30  1  0  0  0  0
 20 44  1  0  0  0  0
 21 24  2  0  0  0  0
 21 26  1  0  0  0  0
 22 32  2  0  0  0  0
 24 45  1  0  0  0  0
 27 29  2  0  0  0  0
 27 31  1  0  0  0  0
 28 48  1  0  0  0  0
 28 49  1  0  0  0  0
 28 50  1  0  0  0  0
 29 33  1  0  0  0  0
 30 51  1  0  0  0  0
 30 52  1  0  0  0  0
 30 53  1  0  0  0  0
 32 54  1  0  0  0  0
 33 55  1  0  0  0  0
 33 56  1  0  0  0  0
 33 57  1  0  0  0  0
M  END
> <PUBCHEM_COMPOUND_CID>
11225555

> <PUBCHEM_CONFORMER_RMSD>
0.8

> <PUBCHEM_CONFORMER_DIVERSEORDER>
1
2

> <PUBCHEM_MMFF94_PARTIAL_CHARGES>
33
1 -0.08
10 -0.73
11 -0.57
12 -0.57
13 0.48
15 0.2
18 0.48
19 0.72
2 -0.08
20 0.48
21 0.14
22 0.14
23 0.3
24 -0.11
25 0.2
26 0.72
27 0.14
29 -0.04
3 -0.28
31 0.72
32 -0.11
33 0.18
4 -0.57
42 0.37
45 0.15
46 0.37
47 0.37
5 -0.57
54 0.15
6 -0.57
7 -0.73
8 -0.57
9 -0.73

> <PUBCHEM_EFFECTIVE_ROTOR_COUNT>
2.2

> <PUBCHEM_PHARMACOPHORE_FEATURES>
12
1 10 donor
1 11 acceptor
1 4 acceptor
1 5 acceptor
1 6 acceptor
1 7 donor
1 8 acceptor
1 9 donor
3 14 16 17 hydrophobe
5 1 8 15 21 24 rings
5 2 11 22 25 32 rings
5 3 12 23 27 29 rings

> <PUBCHEM_HEAVY_ATOM_COUNT>
33

> <PUBCHEM_ATOM_DEF_STEREO_COUNT>
3

> <PUBCHEM_ATOM_UDEF_STEREO_COUNT>
0

> <PUBCHEM_BOND_DEF_STEREO_COUNT>
0

> <PUBCHEM_BOND_UDEF_STEREO_COUNT>
0

> <PUBCHEM_ISOTOPIC_ATOM_COUNT>
0

> <PUBCHEM_COMPONENT_COUNT>
1

> <PUBCHEM_CACTVS_TAUTO_COUNT>
8

> <PUBCHEM_CONFORMER_ID>
00AB49D300000001

> <PUBCHEM_MMFF94_ENERGY>
31.0862

> <PUBCHEM_FEATURE_SELFOVERLAP>
60.898

> <PUBCHEM_SHAPE_FINGERPRINT>
10439779 11 18196646303141033178
10581848 127 18198087904882011777
10794284 68 18120078736630231376
11513181 2 18129107886523845158
12038231 1 18194125109755212007
12838863 1 18266713896880447315
12978246 48 18266458904523916731
13122387 1 17978229353000404119
13402501 40 18341047437085340170
1361 2 18410855486457128273
14117953 113 18410004421096321453
14400156 96 17621931777715011099
144659 178 18337400348737146972
14725015 67 18264476296080436859
14940714 1 8906708831280170759
15297060 5 18128549334521832968
15320467 1 18266746959379683151
161222 619 18191610712016677675
17093844 170 18339919316890986474
17977149 70 17834684798991401262
19930381 70 18337674101357130943
20764821 26 18337965557273458727
21133410 171 16614431830999457070
21133410 38 18059013853134229481
22113638 7 18194954360481491220
23559900 14 18413107242893866279
238918 7 18127389208437424138
325973 47 18338521961791822215
3882209 13 17396945026433865287
45266715 3 16460195097108123404
463206 1 16683158441337720150
474144 1 17611450218743689576
5047190 69 17259331173668362194
6371009 1 18196071464443660895
6433294 58 17186446183812249981

> <PUBCHEM_SHAPE_MULTIPOLES>
633.46
9.63
8.09
1.4
5.34
1.84
0.8
-1.45
0.97
-0.5
-2.02
-1.48
-0.04
-0.35

> <PUBCHEM_SHAPE_SELFOVERLAP>
1335.113

> <PUBCHEM_SHAPE_VOLUME>
359.3

> <PUBCHEM_COORDINATE_TYPE>
2
5
10

$$$$
