1122738
  -OEChem-03292013313D

 33 35  0     0  0  0  0  0  0999 V2000
   -0.2935   -2.5889    0.6071 Cl  0  0  0  0  0  0  0  0  0  0  0  0
   -0.1819   -0.0625   -1.4106 S   0  0  0  0  0  0  0  0  0  0  0  0
    0.2304    1.0531   -2.2636 O   0  0  0  0  0  0  0  0  0  0  0  0
   -0.7108   -1.2959   -2.0004 O   0  0  0  0  0  0  0  0  0  0  0  0
    5.6748    0.2840    0.7918 O   0  5  0  0  0  0  0  0  0  0  0  0
    4.7089    1.5898   -0.6851 O   0  0  0  0  0  0  0  0  0  0  0  0
   -1.3254    0.5632   -0.3784 N   0  0  0  0  0  0  0  0  0  0  0  0
   -2.2540    1.8978    1.1370 N   0  0  0  0  0  0  0  0  0  0  0  0
    4.6794    0.6126    0.1016 N   0  3  0  0  0  0  0  0  0  0  0  0
   -2.5989    0.0862   -0.2019 C   0  0  0  0  0  0  0  0  0  0  0  0
   -1.1673    1.6450    0.4424 C   0  0  0  0  0  0  0  0  0  0  0  0
    1.2086   -0.5496   -0.4205 C   0  0  0  0  0  0  0  0  0  0  0  0
   -3.1580    0.9359    0.7486 C   0  0  0  0  0  0  0  0  0  0  0  0
   -3.2888   -0.9829   -0.7747 C   0  0  0  0  0  0  0  0  0  0  0  0
    2.3649    0.2013   -0.5436 C   0  0  0  0  0  0  0  0  0  0  0  0
    0.0942    2.4123    0.5105 C   0  0  0  0  0  0  0  0  0  0  0  0
   -4.4829    0.7211    1.1644 C   0  0  0  0  0  0  0  0  0  0  0  0
    1.1351   -1.6339    0.4345 C   0  0  0  0  0  0  0  0  0  0  0  0
   -4.6064   -1.1819   -0.3495 C   0  0  0  0  0  0  0  0  0  0  0  0
    3.4838   -0.1448    0.2140 C   0  0  0  0  0  0  0  0  0  0  0  0
   -5.1946   -0.3463    0.6027 C   0  0  0  0  0  0  0  0  0  0  0  0
    2.2542   -1.9800    1.1919 C   0  0  0  0  0  0  0  0  0  0  0  0
    3.4285   -1.2354    1.0818 C   0  0  0  0  0  0  0  0  0  0  0  0
   -2.8804   -1.6484   -1.5208 H   0  0  0  0  0  0  0  0  0  0  0  0
    2.4061    1.0478   -1.2216 H   0  0  0  0  0  0  0  0  0  0  0  0
    0.8565    1.8682    1.0722 H   0  0  0  0  0  0  0  0  0  0  0  0
    0.4779    2.7025   -0.4687 H   0  0  0  0  0  0  0  0  0  0  0  0
   -0.0818    3.3466    1.0567 H   0  0  0  0  0  0  0  0  0  0  0  0
   -4.9491    1.3647    1.9034 H   0  0  0  0  0  0  0  0  0  0  0  0
   -5.1843   -2.0013   -0.7700 H   0  0  0  0  0  0  0  0  0  0  0  0
   -6.2208   -0.5260    0.9129 H   0  0  0  0  0  0  0  0  0  0  0  0
    2.2277   -2.8271    1.8729 H   0  0  0  0  0  0  0  0  0  0  0  0
    4.2804   -1.5341    1.6873 H   0  0  0  0  0  0  0  0  0  0  0  0
  1 18  1  0  0  0  0
  2  3  2  0  0  0  0
  2  4  2  0  0  0  0
  2  7  1  0  0  0  0
  2 12  1  0  0  0  0
  5  9  1  0  0  0  0
  6  9  2  0  0  0  0
  7 10  1  0  0  0  0
  7 11  1  0  0  0  0
  8 11  2  0  0  0  0
  8 13  1  0  0  0  0
  9 20  1  0  0  0  0
 10 13  1  0  0  0  0
 10 14  2  0  0  0  0
 11 16  1  0  0  0  0
 12 15  1  0  0  0  0
 12 18  2  0  0  0  0
 13 17  2  0  0  0  0
 14 19  1  0  0  0  0
 14 24  1  0  0  0  0
 15 20  2  0  0  0  0
 15 25  1  0  0  0  0
 16 26  1  0  0  0  0
 16 27  1  0  0  0  0
 16 28  1  0  0  0  0
 17 21  1  0  0  0  0
 17 29  1  0  0  0  0
 18 22  1  0  0  0  0
 19 21  2  0  0  0  0
 19 30  1  0  0  0  0
 20 23  1  0  0  0  0
 21 31  1  0  0  0  0
 22 23  2  0  0  0  0
 22 32  1  0  0  0  0
 23 33  1  0  0  0  0
M  CHG  2   5  -1   9   1
M  END
> <PUBCHEM_COMPOUND_CID>
1122738

> <PUBCHEM_CONFORMER_RMSD>
0.6

> <PUBCHEM_CONFORMER_DIVERSEORDER>
1
10
2
6
9
5
3
4
7
8
11
12

> <PUBCHEM_MMFF94_PARTIAL_CHARGES>
30
1 -0.18
10 -0.15
11 0.01
12 -0.01
13 0.23
14 -0.15
15 -0.15
16 0.18
17 -0.15
18 0.18
19 -0.15
2 1.29
20 0.13
21 -0.15
22 -0.15
23 -0.15
24 0.15
25 0.15
29 0.15
3 -0.65
30 0.15
31 0.15
32 0.15
33 0.15
4 -0.65
5 -0.52
6 -0.52
7 0.32
8 -0.57
9 0.91

> <PUBCHEM_EFFECTIVE_ROTOR_COUNT>
3

> <PUBCHEM_PHARMACOPHORE_FEATURES>
9
1 3 acceptor
1 4 acceptor
1 5 acceptor
1 5 anion
1 6 acceptor
1 8 acceptor
5 7 8 10 11 13 rings
6 10 13 14 17 19 21 rings
6 12 15 18 20 22 23 rings

> <PUBCHEM_HEAVY_ATOM_COUNT>
23

> <PUBCHEM_ATOM_DEF_STEREO_COUNT>
0

> <PUBCHEM_ATOM_UDEF_STEREO_COUNT>
0

> <PUBCHEM_BOND_DEF_STEREO_COUNT>
0

> <PUBCHEM_BOND_UDEF_STEREO_COUNT>
0

> <PUBCHEM_ISOTOPIC_ATOM_COUNT>
0

> <PUBCHEM_COMPONENT_COUNT>
1

> <PUBCHEM_CACTVS_TAUTO_COUNT>
1

> <PUBCHEM_CONFORMER_ID>
001121B200000001

> <PUBCHEM_MMFF94_ENERGY>
62.0793

> <PUBCHEM_FEATURE_SELFOVERLAP>
45.878

> <PUBCHEM_SHAPE_FINGERPRINT>
10090160 65 18113336418572466058
10366900 7 15482386461726740483
10906281 52 17916310438194568809
1100329 8 18265897054034364538
11578080 2 17969213439553068925
12236239 1 18410575093321643975
12363563 72 15502666948709853599
12596602 18 18409731780993919523
12895836 83 16343133766506301048
13134695 92 16298680472344609757
13224815 77 18334574594725718443
13544653 18 17748829579354144005
14223421 5 18122062009484905487
14341114 328 18342178847223811553
14787075 74 18410575131907797280
14840074 17 17603877736070582838
15183329 4 9511466619131011424
15209289 33 18411134770446838027
15375462 189 18409730655923328507
1601671 61 17560806515172362137
16945 1 17906452121627118199
17834072 14 16660362554384764039
17980427 23 18341899580594176837
1813 80 17895486825164974015
19784866 170 17632021870982715149
200 152 17894625937698860419
20511986 3 18261660494684392585
21065198 48 18339079285406573235
21756936 100 18202272620383261994
22079108 93 18411696629990126336
23402539 116 18272645770517110639
23557571 272 16702026417706271367
23559900 14 17556310466345457183
23566358 27 18196375823117063206
25 1 13254791330699858598
2637199 183 12319733644405892301
347723 3 9223235143531001239
34934 24 18271808961339376369
3797600 57 18201435835809572832
392239 28 18338804514710197434
4340502 62 18187652422162437443
439807 62 17898011477028265451
5283173 99 13118275979827813022
5486654 2 18410579512832545803
6034566 193 16158800762194816060
6442390 28 17060335236294728918
7097593 13 17543913403891183891

> <PUBCHEM_SHAPE_MULTIPOLES>
440.63
9.72
2.24
1.43
2.37
0.16
0.58
-0.67
-2.59
0.28
-0.54
-0.16
0
-1.27

> <PUBCHEM_SHAPE_SELFOVERLAP>
951.731

> <PUBCHEM_SHAPE_VOLUME>
243.8

> <PUBCHEM_COORDINATE_TYPE>
2
5
10

$$$$
