11221963
  -OEChem-03292013303D

 45 48  0     0  0  0  0  0  0999 V2000
   -2.6538    1.2441    0.2497 N   0  0  0  0  0  0  0  0  0  0  0  0
   -1.7391   -0.5570   -0.6774 N   0  0  0  0  0  0  0  0  0  0  0  0
   -8.0226   -1.8374    0.2285 N   0  0  0  0  0  0  0  0  0  0  0  0
   -7.7653    0.3401    1.0367 N   0  0  0  0  0  0  0  0  0  0  0  0
    8.1468   -1.0978    0.8741 N   0  0  0  0  0  0  0  0  0  0  0  0
    7.0792   -2.8828   -0.1911 N   0  0  0  0  0  0  0  0  0  0  0  0
   -1.5174    0.6620   -0.2392 C   0  0  0  0  0  0  0  0  0  0  0  0
   -3.6768    0.3404    0.1185 C   0  0  0  0  0  0  0  0  0  0  0  0
   -0.2497    1.3510   -0.2500 C   0  0  0  0  0  0  0  0  0  0  0  0
   -3.0805   -0.7754   -0.4626 C   0  0  0  0  0  0  0  0  0  0  0  0
    2.1634    1.2952   -0.1521 C   0  0  0  0  0  0  0  0  0  0  0  0
    0.9383    0.6283   -0.1427 C   0  0  0  0  0  0  0  0  0  0  0  0
   -5.0312    0.4013    0.4482 C   0  0  0  0  0  0  0  0  0  0  0  0
    3.3962    0.5463   -0.0414 C   0  0  0  0  0  0  0  0  0  0  0  0
   -0.2131    2.7404   -0.3668 C   0  0  0  0  0  0  0  0  0  0  0  0
   -3.8672   -1.9065   -0.7382 C   0  0  0  0  0  0  0  0  0  0  0  0
   -5.7992   -0.7336    0.1671 C   0  0  0  0  0  0  0  0  0  0  0  0
    2.2002    2.6847   -0.2689 C   0  0  0  0  0  0  0  0  0  0  0  0
   -5.2294   -1.8679   -0.4157 C   0  0  0  0  0  0  0  0  0  0  0  0
    1.0119    3.4073   -0.3763 C   0  0  0  0  0  0  0  0  0  0  0  0
    4.5139    1.1268    0.5582 C   0  0  0  0  0  0  0  0  0  0  0  0
    3.4675   -0.7566   -0.5350 C   0  0  0  0  0  0  0  0  0  0  0  0
    5.7738   -0.8980    0.1707 C   0  0  0  0  0  0  0  0  0  0  0  0
    5.7026    0.4048    0.6642 C   0  0  0  0  0  0  0  0  0  0  0  0
    4.6563   -1.4787   -0.4289 C   0  0  0  0  0  0  0  0  0  0  0  0
   -7.2181   -0.7302    0.4894 C   0  0  0  0  0  0  0  0  0  0  0  0
    7.0133   -1.6506    0.2809 C   0  0  0  0  0  0  0  0  0  0  0  0
   -2.7370    2.1683    0.6522 H   0  0  0  0  0  0  0  0  0  0  0  0
    0.8817   -0.4505   -0.0165 H   0  0  0  0  0  0  0  0  0  0  0  0
   -5.4423    1.2972    0.8999 H   0  0  0  0  0  0  0  0  0  0  0  0
   -1.1192    3.3324   -0.4671 H   0  0  0  0  0  0  0  0  0  0  0  0
   -3.4330   -2.7924   -1.1908 H   0  0  0  0  0  0  0  0  0  0  0  0
    3.1304    3.2444   -0.3128 H   0  0  0  0  0  0  0  0  0  0  0  0
   -5.8011   -2.7612   -0.6445 H   0  0  0  0  0  0  0  0  0  0  0  0
    1.0406    4.4884   -0.4776 H   0  0  0  0  0  0  0  0  0  0  0  0
    4.4960    2.1264    0.9841 H   0  0  0  0  0  0  0  0  0  0  0  0
    2.6339   -1.2387   -1.0382 H   0  0  0  0  0  0  0  0  0  0  0  0
    6.5388    0.9004    1.1449 H   0  0  0  0  0  0  0  0  0  0  0  0
    4.6801   -2.4884   -0.8297 H   0  0  0  0  0  0  0  0  0  0  0  0
   -9.0106   -1.8144    0.4593 H   0  0  0  0  0  0  0  0  0  0  0  0
   -7.6877   -2.6970   -0.1877 H   0  0  0  0  0  0  0  0  0  0  0  0
   -8.7628    0.1517    1.1859 H   0  0  0  0  0  0  0  0  0  0  0  0
    9.0031   -1.6384    0.9402 H   0  0  0  0  0  0  0  0  0  0  0  0
    8.1836   -0.1622    1.2588 H   0  0  0  0  0  0  0  0  0  0  0  0
    8.0254   -3.2421   -0.0226 H   0  0  0  0  0  0  0  0  0  0  0  0
  1  7  1  0  0  0  0
  1  8  1  0  0  0  0
  1 28  1  0  0  0  0
  2  7  2  0  0  0  0
  2 10  1  0  0  0  0
  3 26  1  0  0  0  0
  3 40  1  0  0  0  0
  3 41  1  0  0  0  0
  4 26  2  0  0  0  0
  4 42  1  0  0  0  0
  5 27  1  0  0  0  0
  5 43  1  0  0  0  0
  5 44  1  0  0  0  0
  6 27  2  0  0  0  0
  6 45  1  0  0  0  0
  7  9  1  0  0  0  0
  8 10  2  0  0  0  0
  8 13  1  0  0  0  0
  9 12  1  0  0  0  0
  9 15  2  0  0  0  0
 10 16  1  0  0  0  0
 11 12  2  0  0  0  0
 11 14  1  0  0  0  0
 11 18  1  0  0  0  0
 12 29  1  0  0  0  0
 13 17  2  0  0  0  0
 13 30  1  0  0  0  0
 14 21  2  0  0  0  0
 14 22  1  0  0  0  0
 15 20  1  0  0  0  0
 15 31  1  0  0  0  0
 16 19  2  0  0  0  0
 16 32  1  0  0  0  0
 17 19  1  0  0  0  0
 17 26  1  0  0  0  0
 18 20  2  0  0  0  0
 18 33  1  0  0  0  0
 19 34  1  0  0  0  0
 20 35  1  0  0  0  0
 21 24  1  0  0  0  0
 21 36  1  0  0  0  0
 22 25  2  0  0  0  0
 22 37  1  0  0  0  0
 23 24  2  0  0  0  0
 23 25  1  0  0  0  0
 23 27  1  0  0  0  0
 24 38  1  0  0  0  0
 25 39  1  0  0  0  0
M  END
> <PUBCHEM_COMPOUND_CID>
11221963

> <PUBCHEM_CONFORMER_RMSD>
0.8

> <PUBCHEM_CONFORMER_DIVERSEORDER>
2
4
1
3

> <PUBCHEM_MMFF94_PARTIAL_CHARGES>
43
1 0.03
10 0.23
12 -0.15
13 -0.15
15 -0.15
16 -0.15
17 0.09
18 -0.15
19 -0.15
2 -0.57
20 -0.15
21 -0.15
22 -0.15
23 0.09
24 -0.15
25 -0.15
26 0.41
27 0.41
28 0.27
29 0.15
3 -0.85
30 0.15
31 0.15
32 0.15
33 0.15
34 0.15
35 0.15
36 0.15
37 0.15
38 0.15
39 0.15
4 -0.85
40 0.4
41 0.4
42 0.4
43 0.4
44 0.4
45 0.4
5 -0.85
6 -0.85
7 0.13
8 -0.15
9 0.05

> <PUBCHEM_EFFECTIVE_ROTOR_COUNT>
4

> <PUBCHEM_PHARMACOPHORE_FEATURES>
12
1 1 donor
1 3 donor
1 4 donor
1 5 donor
1 6 donor
3 1 2 7 cation
3 3 4 26 cation
3 5 6 27 cation
5 1 2 7 8 10 rings
6 14 21 22 23 24 25 rings
6 8 10 13 16 17 19 rings
6 9 11 12 15 18 20 rings

> <PUBCHEM_HEAVY_ATOM_COUNT>
27

> <PUBCHEM_ATOM_DEF_STEREO_COUNT>
0

> <PUBCHEM_ATOM_UDEF_STEREO_COUNT>
0

> <PUBCHEM_BOND_DEF_STEREO_COUNT>
0

> <PUBCHEM_BOND_UDEF_STEREO_COUNT>
0

> <PUBCHEM_ISOTOPIC_ATOM_COUNT>
0

> <PUBCHEM_COMPONENT_COUNT>
1

> <PUBCHEM_CACTVS_TAUTO_COUNT>
4

> <PUBCHEM_CONFORMER_ID>
00AB3BCB00000002

> <PUBCHEM_MMFF94_ENERGY>
88.7974

> <PUBCHEM_FEATURE_SELFOVERLAP>
61.092

> <PUBCHEM_SHAPE_FINGERPRINT>
10 15 16056876957627764720
10299344 5 18410015437908818862
10411042 1 18408603639494469524
10622 236 17627211687984823407
10753850 27 18259981566008756352
11456790 92 17846230977433415107
11963148 33 18337946797833308142
11973863 73 17823131233553566153
12107183 9 18342183258920349217
12236239 1 18342178921029766945
12516196 113 18410854373965990872
12592606 108 18411134771264749439
13248334 5 18192995057170142388
13383668 254 16199281267151684032
13533116 47 18341050829961966985
13668630 136 17676205797200339307
13673619 4 17894346678909788645
13685833 64 18334858328897333833
13690498 29 17968089798582434333
13782708 43 17749669705370354435
14216079 64 18410855447312195558
14251764 18 18202284736274994421
14347424 109 18201719586940173864
14420673 8 18408044018140403699
14428016 545 18411142399305995841
14428016 86 9511464437825629878
14556957 393 15792588352898165950
15064986 96 16629406822871183102
15250474 111 17985541406416392391
15510800 12 18114474408786360802
15927050 60 17694499648226797788
16120349 21 18341056224941797241
17492 89 18121779701717614727
1754911 235 8070032155948684331
1813 80 17894631461291158532
1979834 28 17489597753001582350
20028762 73 18413668007348049486
20721686 124 11025787688190880864
21033648 29 14261085254909343025
21130935 74 18270118053926085811
21150785 3 12829490350435565763
21267235 1 18410014317154482716
21365058 113 16877949373288250685
21792934 111 18342449335785604889
23522609 53 18121251802581437220
23559900 14 18265610064858021393
23569917 315 18339082713846627551
23569943 247 18262798441437412163
3004659 81 17967249802275007500
3103668 31 17968931977867923085
335352 9 18411138056845704741
3383291 50 18334577958091975915
3421961 26 18340203102566058996
34797466 226 16009031743346848012
3504750 166 18202560684024349813
406291 66 17532920620730544066
4073 2 18044941422204615137
439807 62 18186239511388000626
46194498 28 17313662767143075892
465052 167 18413392046887021492
5104073 3 18057895838850340681
5283384 27 12247682643348499003
54039377 194 18335143060303553334
559249 180 18411418393687820925
5718773 13 18335416812887004066
6058803 2 17912086363459672525
6138700 20 18334858303512833923
6327066 14 9511450131310737448
636775 8 18198912414835457102
6712543 237 16200148781351278342
77188 2 18409448102926852716
7970288 3 18409443683484073958
9962374 69 18339072812774923919
999808 66 17967824864083930259

> <PUBCHEM_SHAPE_MULTIPOLES>
525.76
22.57
2.9
0.8
5.42
1.25
-0.03
-18.66
-5.99
-2.5
0.48
0.1
-0.04
-0.43

> <PUBCHEM_SHAPE_SELFOVERLAP>
1180.613

> <PUBCHEM_SHAPE_VOLUME>
274.7

> <PUBCHEM_COORDINATE_TYPE>
2
5
10

$$$$
