11223118
  -OEChem-03292013303D

 59 59  0     1  0  0  0  0  0999 V2000
   -1.5446    0.1192   -1.7113 O   0  0  0  0  0  0  0  0  0  0  0  0
    0.5502    1.0475    1.5185 O   0  0  0  0  0  0  0  0  0  0  0  0
    4.2665    2.4116   -0.0389 O   0  0  0  0  0  0  0  0  0  0  0  0
    5.3258    0.6775    0.9514 O   0  0  0  0  0  0  0  0  0  0  0  0
   -0.5074   -4.9825    0.0170 O   0  0  0  0  0  0  0  0  0  0  0  0
   -1.4929    1.8476   -0.1641 N   0  0  0  0  0  0  0  0  0  0  0  0
    1.9830    1.1616   -0.3039 N   0  0  0  0  0  0  0  0  0  0  0  0
   -4.4240    0.7843   -1.4596 N   0  0  0  0  0  0  0  0  0  0  0  0
   -0.1482    2.3014   -0.4372 C   0  0  1  0  0  0  0  0  0  0  0  0
   -3.6633   -0.9020    0.2510 C   0  0  2  0  0  0  0  0  0  0  0  0
    0.0443    3.8117   -0.1838 C   0  0  0  0  0  0  0  0  0  0  0  0
   -3.5130    0.5240   -0.3449 C   0  0  1  0  0  0  0  0  0  0  0  0
   -5.1106   -1.1990    0.7065 C   0  0  0  0  0  0  0  0  0  0  0  0
   -2.0863    0.7837   -0.8299 C   0  0  0  0  0  0  0  0  0  0  0  0
    0.8148    1.4499    0.3873 C   0  0  0  0  0  0  0  0  0  0  0  0
   -2.6593   -1.1196    1.3916 C   0  0  0  0  0  0  0  0  0  0  0  0
   -0.1284    4.1468    1.3009 C   0  0  0  0  0  0  0  0  0  0  0  0
   -0.8897    4.6869   -1.0264 C   0  0  0  0  0  0  0  0  0  0  0  0
    3.0381    0.3395    0.2422 C   0  0  1  0  0  0  0  0  0  0  0  0
   -5.6031   -0.2690    1.8081 C   0  0  0  0  0  0  0  0  0  0  0  0
    3.3072   -0.8794   -0.6498 C   0  0  0  0  0  0  0  0  0  0  0  0
    2.2863   -1.9772   -0.4711 C   0  0  0  0  0  0  0  0  0  0  0  0
    4.3183    1.1409    0.4273 C   0  0  0  0  0  0  0  0  0  0  0  0
    2.5054   -2.9599    0.4807 C   0  0  0  0  0  0  0  0  0  0  0  0
    1.1493   -1.9818   -1.2632 C   0  0  0  0  0  0  0  0  0  0  0  0
    1.5624   -3.9745    0.6451 C   0  0  0  0  0  0  0  0  0  0  0  0
    0.2062   -2.9964   -1.0988 C   0  0  0  0  0  0  0  0  0  0  0  0
    0.4128   -3.9927   -0.1447 C   0  0  0  0  0  0  0  0  0  0  0  0
    0.0433    2.1065   -1.5007 H   0  0  0  0  0  0  0  0  0  0  0  0
   -3.4186   -1.6345   -0.5312 H   0  0  0  0  0  0  0  0  0  0  0  0
    1.0761    4.0705   -0.4568 H   0  0  0  0  0  0  0  0  0  0  0  0
   -3.7502    1.2572    0.4339 H   0  0  0  0  0  0  0  0  0  0  0  0
   -1.9945    2.2860    0.6011 H   0  0  0  0  0  0  0  0  0  0  0  0
   -5.7995   -1.1555   -0.1442 H   0  0  0  0  0  0  0  0  0  0  0  0
   -5.1579   -2.2308    1.0772 H   0  0  0  0  0  0  0  0  0  0  0  0
   -2.7233   -0.3307    2.1477 H   0  0  0  0  0  0  0  0  0  0  0  0
   -1.6315   -1.1344    1.0147 H   0  0  0  0  0  0  0  0  0  0  0  0
   -2.8340   -2.0818    1.8847 H   0  0  0  0  0  0  0  0  0  0  0  0
   -1.1284    3.9030    1.6716 H   0  0  0  0  0  0  0  0  0  0  0  0
    0.0227    5.2203    1.4636 H   0  0  0  0  0  0  0  0  0  0  0  0
    0.6079    3.6313    1.9242 H   0  0  0  0  0  0  0  0  0  0  0  0
   -0.6602    5.7480   -0.8822 H   0  0  0  0  0  0  0  0  0  0  0  0
   -1.9399    4.5312   -0.7587 H   0  0  0  0  0  0  0  0  0  0  0  0
   -0.7722    4.4609   -2.0913 H   0  0  0  0  0  0  0  0  0  0  0  0
    2.7460    0.0196    1.2501 H   0  0  0  0  0  0  0  0  0  0  0  0
    2.1344    1.5764   -1.2188 H   0  0  0  0  0  0  0  0  0  0  0  0
   -4.3406    0.0405   -2.1518 H   0  0  0  0  0  0  0  0  0  0  0  0
   -5.3891    0.7611   -1.1351 H   0  0  0  0  0  0  0  0  0  0  0  0
   -4.9670   -0.3125    2.6964 H   0  0  0  0  0  0  0  0  0  0  0  0
   -6.6107   -0.5691    2.1155 H   0  0  0  0  0  0  0  0  0  0  0  0
   -5.6660    0.7690    1.4711 H   0  0  0  0  0  0  0  0  0  0  0  0
    4.3000   -1.2996   -0.4388 H   0  0  0  0  0  0  0  0  0  0  0  0
    3.3478   -0.5814   -1.7068 H   0  0  0  0  0  0  0  0  0  0  0  0
    3.3963   -2.9526    1.1022 H   0  0  0  0  0  0  0  0  0  0  0  0
    0.9816   -1.2124   -2.0110 H   0  0  0  0  0  0  0  0  0  0  0  0
    1.7346   -4.7442    1.3926 H   0  0  0  0  0  0  0  0  0  0  0  0
   -0.6881   -3.0044   -1.7160 H   0  0  0  0  0  0  0  0  0  0  0  0
    5.1130    2.8877    0.0988 H   0  0  0  0  0  0  0  0  0  0  0  0
   -0.2040   -5.5832    0.7193 H   0  0  0  0  0  0  0  0  0  0  0  0
  1 14  2  0  0  0  0
  2 15  2  0  0  0  0
  3 23  1  0  0  0  0
  3 58  1  0  0  0  0
  4 23  2  0  0  0  0
  5 28  1  0  0  0  0
  5 59  1  0  0  0  0
  6  9  1  0  0  0  0
  6 14  1  0  0  0  0
  6 33  1  0  0  0  0
  7 15  1  0  0  0  0
  7 19  1  0  0  0  0
  7 46  1  0  0  0  0
  8 12  1  0  0  0  0
  8 47  1  0  0  0  0
  8 48  1  0  0  0  0
  9 11  1  0  0  0  0
  9 15  1  0  0  0  0
  9 29  1  0  0  0  0
 10 12  1  0  0  0  0
 10 13  1  0  0  0  0
 10 16  1  0  0  0  0
 10 30  1  0  0  0  0
 11 17  1  0  0  0  0
 11 18  1  0  0  0  0
 11 31  1  0  0  0  0
 12 14  1  0  0  0  0
 12 32  1  0  0  0  0
 13 20  1  0  0  0  0
 13 34  1  0  0  0  0
 13 35  1  0  0  0  0
 16 36  1  0  0  0  0
 16 37  1  0  0  0  0
 16 38  1  0  0  0  0
 17 39  1  0  0  0  0
 17 40  1  0  0  0  0
 17 41  1  0  0  0  0
 18 42  1  0  0  0  0
 18 43  1  0  0  0  0
 18 44  1  0  0  0  0
 19 21  1  0  0  0  0
 19 23  1  0  0  0  0
 19 45  1  0  0  0  0
 20 49  1  0  0  0  0
 20 50  1  0  0  0  0
 20 51  1  0  0  0  0
 21 22  1  0  0  0  0
 21 52  1  0  0  0  0
 21 53  1  0  0  0  0
 22 24  2  0  0  0  0
 22 25  1  0  0  0  0
 24 26  1  0  0  0  0
 24 54  1  0  0  0  0
 25 27  2  0  0  0  0
 25 55  1  0  0  0  0
 26 28  2  0  0  0  0
 26 56  1  0  0  0  0
 27 28  1  0  0  0  0
 27 57  1  0  0  0  0
M  END
> <PUBCHEM_COMPOUND_CID>
11223118

> <PUBCHEM_CONFORMER_RMSD>
1

> <PUBCHEM_CONFORMER_DIVERSEORDER>
1
336
237
145
67
133
71
197
407
292
297
241
85
405
374
10
366
189
128
272
171
400
401
155
299
250
234
388
204
334
179
125
368
5
308
14
381
141
408
58
347
77
31
307
59
382
304
191
367
159
229
312
409
57
168
214
72
56
389
208
173
346
294
231
391
286
335
163
29
228
274
48
156
362
305
142
248
387
139
87
289
238
30
178
52
410
254
342
257
233
356
329
303
103
263
230
66
69
33
288
132
271
65
121
205
76
202
86
236
92
341
95
279
354
158
151
188
192
261
70
384
333
82
385
212
352
358
207
22
245
343
375
287
109
398
328
332
363
309
143
165
37
361
247
81
166
268
397
331
91
193
210
291
413
17
152
134
243
74
412
83
20
182
89
373
253
105
270
196
119
324
183
200
26
283
259
226
318
338
258
44
24
90
256
380
169
365
360
135
144
227
35
282
185
353
97
379
114
146
117
284
175
355
8
43
396
394
340
285
330
246
370
213
15
73
320
315
296
199
195
60
84
298
62
19
106
51
326
225
64
404
100
13
310
339
124
79
63
216
209
327
9
235
277
116
232
215
39
153
176
395
190
262
104
344
94
251
371
78
222
323
129
281
255
4
402
136
393
244
161
364
221
123
322
16
194
45
7
137
130
224
316
162
359
300
88
390
102
12
68
376
223
113
40
112
201
350
357
120
180
406
6
148
184
53
290
46
293
138
186
378
260
98
372
34
99
18
276
49
321
47
177
273
93
101
3
147
140
61
319
392
172
403
157
50
149
239
264
75
218
349
41
240
174
386
278
170
275
38
317
249
411
219
206
27
127
2
54
25
115
164
267
11
337
21
198
311
313
96
108
181
220
203
150
383
154
269
266
167
107
55
32
314
36
265
80
399
42
377
23
325
345
126
131
302
348
211
280
242
111
118
301
295
306
122
369
187
351
110
28
160
217
252

> <PUBCHEM_MMFF94_PARTIAL_CHARGES>
31
1 -0.57
12 0.33
14 0.57
15 0.57
19 0.36
2 -0.57
21 0.14
22 -0.14
23 0.66
24 -0.15
25 -0.15
26 -0.15
27 -0.15
28 0.08
3 -0.65
33 0.37
4 -0.57
46 0.37
47 0.36
48 0.36
5 -0.53
54 0.15
55 0.15
56 0.15
57 0.15
58 0.5
59 0.45
6 -0.73
7 -0.73
8 -0.99
9 0.36

> <PUBCHEM_EFFECTIVE_ROTOR_COUNT>
12

> <PUBCHEM_PHARMACOPHORE_FEATURES>
14
1 1 acceptor
1 16 hydrophobe
1 2 acceptor
1 20 hydrophobe
1 3 acceptor
1 4 acceptor
1 5 donor
1 6 donor
1 7 donor
1 8 cation
1 8 donor
3 11 17 18 hydrophobe
3 3 4 23 anion
6 22 24 25 26 27 28 rings

> <PUBCHEM_HEAVY_ATOM_COUNT>
28

> <PUBCHEM_ATOM_DEF_STEREO_COUNT>
4

> <PUBCHEM_ATOM_UDEF_STEREO_COUNT>
0

> <PUBCHEM_BOND_DEF_STEREO_COUNT>
0

> <PUBCHEM_BOND_UDEF_STEREO_COUNT>
0

> <PUBCHEM_ISOTOPIC_ATOM_COUNT>
0

> <PUBCHEM_COMPONENT_COUNT>
1

> <PUBCHEM_CACTVS_TAUTO_COUNT>
8

> <PUBCHEM_CONFORMER_ID>
00AB404E00000001

> <PUBCHEM_MMFF94_ENERGY>
54.7073

> <PUBCHEM_FEATURE_SELFOVERLAP>
71.107

> <PUBCHEM_SHAPE_FINGERPRINT>
10675989 125 17975400331632310941
1100329 8 18123470750426567140
11828532 37 16373842104321525483
12596602 18 17346888870626342139
13140716 1 18196937673352439712
13402501 40 18335424594855957059
1361 2 18338800130256041059
13911987 19 18335138743344664412
14178342 30 17837474264544538480
14790565 3 18267312099809617068
19930381 70 18409733915925312731
20764821 26 18408879607995916055
21421861 104 18053669074843911385
21796203 349 17901137365865517040
22113638 7 18266461099204485178
23558518 356 17972607584597598232
23559900 14 18119802508895163302
392239 28 18412260631963037266
5309563 4 18410860928217901487
6438718 38 17700131290532889006
6443956 14 18337967731138891825
9709674 26 17979632334106007574

> <PUBCHEM_SHAPE_MULTIPOLES>
531.94
8.55
6.47
1.37
4.8
0.01
-0.05
-0.88
-2.66
-2.06
0.08
0.98
0.13
1.27

> <PUBCHEM_SHAPE_SELFOVERLAP>
1072.377

> <PUBCHEM_SHAPE_VOLUME>
310.1

> <PUBCHEM_COORDINATE_TYPE>
2
5
10

$$$$
