11225639
  -OEChem-03292013303D

 72 76  0     1  0  0  0  0  0999 V2000
   -2.3518   -0.4729    2.3157 O   0  0  0  0  0  0  0  0  0  0  0  0
   -1.0705    2.7686    0.8108 O   0  0  0  0  0  0  0  0  0  0  0  0
    4.4399    1.5896    0.1139 O   0  0  0  0  0  0  0  0  0  0  0  0
   -7.3598   -1.1536   -1.4641 O   0  0  0  0  0  0  0  0  0  0  0  0
    0.0080    2.0639   -1.1210 N   0  0  0  0  0  0  0  0  0  0  0  0
    3.7132   -1.6196    0.4044 N   0  0  0  0  0  0  0  0  0  0  0  0
    2.5034    2.1711    1.2630 N   0  0  0  0  0  0  0  0  0  0  0  0
    2.6773   -1.7932   -2.5270 N   0  0  0  0  0  0  0  0  0  0  0  0
   -1.3937    0.4585    0.2368 C   0  0  2  0  0  0  0  0  0  0  0  0
   -2.6182    0.4250    1.1998 C   0  0  1  0  0  0  0  0  0  0  0  0
   -0.4279   -0.3117    1.0666 C   0  0  0  0  0  0  0  0  0  0  0  0
   -0.8341    1.8704   -0.0056 C   0  0  0  0  0  0  0  0  0  0  0  0
   -1.0204   -0.7671    2.2252 C   0  0  0  0  0  0  0  0  0  0  0  0
    3.2226   -1.1218    1.7009 C   0  0  2  0  0  0  0  0  0  0  0  0
    1.7088   -1.0961    1.8366 C   0  0  0  0  0  0  0  0  0  0  0  0
    0.9209   -0.5109    0.8407 C   0  0  0  0  0  0  0  0  0  0  0  0
   -3.8870    0.0021    0.4873 C   0  0  0  0  0  0  0  0  0  0  0  0
    0.1435    1.1034   -2.2431 C   0  0  0  0  0  0  0  0  0  0  0  0
    0.5984    3.3981   -1.2957 C   0  0  0  0  0  0  0  0  0  0  0  0
   -0.2951   -1.4264    3.1989 C   0  0  0  0  0  0  0  0  0  0  0  0
    1.5392    1.0124   -2.8696 C   0  0  0  0  0  0  0  0  0  0  0  0
    3.8299    0.2617    2.0264 C   0  0  0  0  0  0  0  0  0  0  0  0
    1.0835   -1.5718    3.0080 C   0  0  0  0  0  0  0  0  0  0  0  0
    2.0578    3.5375   -0.8312 C   0  0  0  0  0  0  0  0  0  0  0  0
    1.6486   -0.0543   -3.9654 C   0  0  0  0  0  0  0  0  0  0  0  0
    3.5171   -3.0602    0.2455 C   0  0  0  0  0  0  0  0  0  0  0  0
    2.2926    3.4896    0.6807 C   0  0  0  0  0  0  0  0  0  0  0  0
    3.8236   -3.5426   -1.1782 C   0  0  0  0  0  0  0  0  0  0  0  0
    1.5988   -1.5060   -3.4747 C   0  0  0  0  0  0  0  0  0  0  0  0
   -4.7358    0.9676   -0.0500 C   0  0  0  0  0  0  0  0  0  0  0  0
   -4.2009   -1.3504    0.3712 C   0  0  0  0  0  0  0  0  0  0  0  0
    3.6276    1.3924    1.0162 C   0  0  0  0  0  0  0  0  0  0  0  0
    2.7324   -3.2181   -2.2073 C   0  0  0  0  0  0  0  0  0  0  0  0
   -5.9035    0.5788   -0.7065 C   0  0  0  0  0  0  0  0  0  0  0  0
   -5.3685   -1.7392   -0.2853 C   0  0  0  0  0  0  0  0  0  0  0  0
   -6.2199   -0.7746   -0.8240 C   0  0  0  0  0  0  0  0  0  0  0  0
   -1.6392   -0.0591   -0.6914 H   0  0  0  0  0  0  0  0  0  0  0  0
   -2.8070    1.4018    1.6627 H   0  0  0  0  0  0  0  0  0  0  0  0
    3.6142   -1.7984    2.4742 H   0  0  0  0  0  0  0  0  0  0  0  0
    1.3845   -0.1432   -0.0660 H   0  0  0  0  0  0  0  0  0  0  0  0
   -0.5824    1.4183   -3.0024 H   0  0  0  0  0  0  0  0  0  0  0  0
   -0.1527    0.1069   -1.9249 H   0  0  0  0  0  0  0  0  0  0  0  0
   -0.0086    4.1428   -0.7676 H   0  0  0  0  0  0  0  0  0  0  0  0
    0.5222    3.6600   -2.3580 H   0  0  0  0  0  0  0  0  0  0  0  0
   -0.7658   -1.7799    4.1098 H   0  0  0  0  0  0  0  0  0  0  0  0
    2.2876    0.8202   -2.0943 H   0  0  0  0  0  0  0  0  0  0  0  0
    1.7950    1.9750   -3.3271 H   0  0  0  0  0  0  0  0  0  0  0  0
    4.9170    0.1526    2.1460 H   0  0  0  0  0  0  0  0  0  0  0  0
    3.4638    0.6046    3.0037 H   0  0  0  0  0  0  0  0  0  0  0  0
    1.6763   -2.0350    3.7934 H   0  0  0  0  0  0  0  0  0  0  0  0
    2.3815    4.5323   -1.1665 H   0  0  0  0  0  0  0  0  0  0  0  0
    2.7107    2.8288   -1.3415 H   0  0  0  0  0  0  0  0  0  0  0  0
    4.7051   -1.4058    0.3022 H   0  0  0  0  0  0  0  0  0  0  0  0
    0.8500    0.0991   -4.7017 H   0  0  0  0  0  0  0  0  0  0  0  0
    2.5943    0.1011   -4.5013 H   0  0  0  0  0  0  0  0  0  0  0  0
    2.4924   -3.3554    0.4991 H   0  0  0  0  0  0  0  0  0  0  0  0
    4.1847   -3.5853    0.9398 H   0  0  0  0  0  0  0  0  0  0  0  0
    3.2005    4.0624    0.9060 H   0  0  0  0  0  0  0  0  0  0  0  0
    1.4676    3.9631    1.2224 H   0  0  0  0  0  0  0  0  0  0  0  0
    3.9261   -4.6351   -1.1419 H   0  0  0  0  0  0  0  0  0  0  0  0
    4.7955   -3.1585   -1.5139 H   0  0  0  0  0  0  0  0  0  0  0  0
    0.6282   -1.7133   -3.0115 H   0  0  0  0  0  0  0  0  0  0  0  0
    1.6878   -2.1585   -4.3521 H   0  0  0  0  0  0  0  0  0  0  0  0
   -4.4982    2.0247    0.0330 H   0  0  0  0  0  0  0  0  0  0  0  0
   -3.5479   -2.1198    0.7733 H   0  0  0  0  0  0  0  0  0  0  0  0
    2.9438   -3.7883   -3.1204 H   0  0  0  0  0  0  0  0  0  0  0  0
    1.7636   -3.5595   -1.8230 H   0  0  0  0  0  0  0  0  0  0  0  0
    1.8776    1.8972    2.0144 H   0  0  0  0  0  0  0  0  0  0  0  0
    3.5707   -1.4988   -2.9203 H   0  0  0  0  0  0  0  0  0  0  0  0
   -6.5580    1.3401   -1.1224 H   0  0  0  0  0  0  0  0  0  0  0  0
   -5.6086   -2.7951   -0.3758 H   0  0  0  0  0  0  0  0  0  0  0  0
   -7.8272   -0.3584   -1.7726 H   0  0  0  0  0  0  0  0  0  0  0  0
  1 10  1  0  0  0  0
  1 13  1  0  0  0  0
  2 12  2  0  0  0  0
  3 32  2  0  0  0  0
  4 36  1  0  0  0  0
  4 72  1  0  0  0  0
  5 12  1  0  0  0  0
  5 18  1  0  0  0  0
  5 19  1  0  0  0  0
  6 14  1  0  0  0  0
  6 26  1  0  0  0  0
  6 53  1  0  0  0  0
  7 27  1  0  0  0  0
  7 32  1  0  0  0  0
  7 68  1  0  0  0  0
  8 29  1  0  0  0  0
  8 33  1  0  0  0  0
  8 69  1  0  0  0  0
  9 10  1  0  0  0  0
  9 11  1  0  0  0  0
  9 12  1  0  0  0  0
  9 37  1  0  0  0  0
 10 17  1  0  0  0  0
 10 38  1  0  0  0  0
 11 13  2  0  0  0  0
 11 16  1  0  0  0  0
 13 20  1  0  0  0  0
 14 15  1  0  0  0  0
 14 22  1  0  0  0  0
 14 39  1  0  0  0  0
 15 16  2  0  0  0  0
 15 23  1  0  0  0  0
 16 40  1  0  0  0  0
 17 30  2  0  0  0  0
 17 31  1  0  0  0  0
 18 21  1  0  0  0  0
 18 41  1  0  0  0  0
 18 42  1  0  0  0  0
 19 24  1  0  0  0  0
 19 43  1  0  0  0  0
 19 44  1  0  0  0  0
 20 23  2  0  0  0  0
 20 45  1  0  0  0  0
 21 25  1  0  0  0  0
 21 46  1  0  0  0  0
 21 47  1  0  0  0  0
 22 32  1  0  0  0  0
 22 48  1  0  0  0  0
 22 49  1  0  0  0  0
 23 50  1  0  0  0  0
 24 27  1  0  0  0  0
 24 51  1  0  0  0  0
 24 52  1  0  0  0  0
 25 29  1  0  0  0  0
 25 54  1  0  0  0  0
 25 55  1  0  0  0  0
 26 28  1  0  0  0  0
 26 56  1  0  0  0  0
 26 57  1  0  0  0  0
 27 58  1  0  0  0  0
 27 59  1  0  0  0  0
 28 33  1  0  0  0  0
 28 60  1  0  0  0  0
 28 61  1  0  0  0  0
 29 62  1  0  0  0  0
 29 63  1  0  0  0  0
 30 34  1  0  0  0  0
 30 64  1  0  0  0  0
 31 35  2  0  0  0  0
 31 65  1  0  0  0  0
 33 66  1  0  0  0  0
 33 67  1  0  0  0  0
 34 36  2  0  0  0  0
 34 70  1  0  0  0  0
 35 36  1  0  0  0  0
 35 71  1  0  0  0  0
M  END
> <PUBCHEM_COMPOUND_CID>
11225639

> <PUBCHEM_CONFORMER_RMSD>
0.8

> <PUBCHEM_CONFORMER_DIVERSEORDER>
1
5
4
3
2
6

> <PUBCHEM_MMFF94_PARTIAL_CHARGES>
43
1 -0.36
10 0.42
11 -0.14
12 0.57
13 0.08
14 0.41
15 -0.14
16 -0.15
17 -0.14
18 0.3
19 0.3
2 -0.57
20 -0.15
22 0.06
23 -0.15
26 0.27
27 0.3
29 0.27
3 -0.57
30 -0.15
31 -0.15
32 0.57
33 0.27
34 -0.15
35 -0.15
36 0.08
4 -0.53
40 0.15
45 0.15
5 -0.66
50 0.15
53 0.36
6 -0.9
64 0.15
65 0.15
68 0.37
69 0.36
7 -0.73
70 0.15
71 0.15
72 0.45
8 -0.9
9 0.2

> <PUBCHEM_EFFECTIVE_ROTOR_COUNT>
4.2

> <PUBCHEM_PHARMACOPHORE_FEATURES>
12
1 1 acceptor
1 2 acceptor
1 3 acceptor
1 4 donor
1 6 cation
1 6 donor
1 7 donor
1 8 cation
1 8 donor
5 1 9 10 11 13 rings
6 11 13 15 16 20 23 rings
6 17 30 31 34 35 36 rings

> <PUBCHEM_HEAVY_ATOM_COUNT>
36

> <PUBCHEM_ATOM_DEF_STEREO_COUNT>
3

> <PUBCHEM_ATOM_UDEF_STEREO_COUNT>
0

> <PUBCHEM_BOND_DEF_STEREO_COUNT>
0

> <PUBCHEM_BOND_UDEF_STEREO_COUNT>
0

> <PUBCHEM_ISOTOPIC_ATOM_COUNT>
0

> <PUBCHEM_COMPONENT_COUNT>
1

> <PUBCHEM_CACTVS_TAUTO_COUNT>
4

> <PUBCHEM_CONFORMER_ID>
00AB4A2700000001

> <PUBCHEM_MMFF94_ENERGY>
87.0085

> <PUBCHEM_FEATURE_SELFOVERLAP>
60.997

> <PUBCHEM_SHAPE_FINGERPRINT>
10816530 90 14491017274573822455
11513181 2 18412268311110861232
11578080 2 16701198373713419601
11582403 64 17837209651103516669
12156800 1 16615945386090551640
12373685 5 14189280519472692357
133893 2 17629798684093514890
1361 2 18411131472070320898
14068700 675 17677327187481211294
14739800 52 7997977886363331135
15336146 87 9078850550212820767
161222 10 18114740537934950467
19315092 285 17560246825167956630
21304303 282 16980652731793728256
21860390 5 18334575784816657880
22149856 69 17313396665067120777
4017518 198 18124321768917989068
484985 159 16114895656432596062
513532 50 18335143132500125020
550186 7 15661738042061344276
57527295 17 18121533278063692949

> <PUBCHEM_SHAPE_MULTIPOLES>
697.46
10.68
3.95
3.65
21.12
1.93
2.82
-4.6
3.32
-4.53
0.33
-3.39
-1.52
1.15

> <PUBCHEM_SHAPE_SELFOVERLAP>
1482.401

> <PUBCHEM_SHAPE_VOLUME>
383

> <PUBCHEM_COORDINATE_TYPE>
2
5
10

$$$$
