11222457
  -OEChem-03292013303D

 49 52  0     1  0  0  0  0  0999 V2000
    0.9621    2.2873   -0.0073 O   0  0  0  0  0  0  0  0  0  0  0  0
    4.3107   -2.5940   -0.7974 O   0  0  0  0  0  0  0  0  0  0  0  0
   -0.1842   -2.3089   -0.6975 O   0  0  0  0  0  0  0  0  0  0  0  0
   -1.6816    2.7414   -0.0584 O   0  0  0  0  0  0  0  0  0  0  0  0
   -4.1158    2.0762    0.2767 O   0  0  0  0  0  0  0  0  0  0  0  0
   -5.1366   -2.5708    0.0371 O   0  0  0  0  0  0  0  0  0  0  0  0
    2.7765    0.7813   -0.7344 C   0  0  1  0  0  0  0  0  0  0  0  0
    2.3899    2.0609    0.0611 C   0  0  0  0  0  0  0  0  0  0  0  0
    4.2826    0.4621   -0.8311 C   0  0  0  0  0  0  0  0  0  0  0  0
    1.9476   -0.3737   -0.2044 C   0  0  0  0  0  0  0  0  0  0  0  0
    4.7887   -0.4716    0.2659 C   0  0  0  0  0  0  0  0  0  0  0  0
    3.9758   -1.7728    0.3241 C   0  0  1  0  0  0  0  0  0  0  0  0
    2.4944   -1.5151    0.2532 C   0  0  0  0  0  0  0  0  0  0  0  0
    0.5147   -0.0807   -0.1905 C   0  0  0  0  0  0  0  0  0  0  0  0
    3.0024    3.3168   -0.5838 C   0  0  0  0  0  0  0  0  0  0  0  0
    2.7807    2.0422    1.5460 C   0  0  0  0  0  0  0  0  0  0  0  0
    0.1123    1.2018   -0.0920 C   0  0  0  0  0  0  0  0  0  0  0  0
    4.3293   -2.5486    1.5973 C   0  0  0  0  0  0  0  0  0  0  0  0
   -0.4969   -1.1699   -0.3680 C   0  0  0  0  0  0  0  0  0  0  0  0
   -1.3293    1.5668   -0.0683 C   0  0  0  0  0  0  0  0  0  0  0  0
   -1.9194   -0.8398   -0.1732 C   0  0  0  0  0  0  0  0  0  0  0  0
   -2.3228    0.4845   -0.0349 C   0  0  0  0  0  0  0  0  0  0  0  0
   -3.6793    0.7912    0.1280 C   0  0  0  0  0  0  0  0  0  0  0  0
   -2.8734   -1.8650   -0.1501 C   0  0  0  0  0  0  0  0  0  0  0  0
   -4.6269   -0.2320    0.1543 C   0  0  0  0  0  0  0  0  0  0  0  0
   -4.2244   -1.5584    0.0155 C   0  0  0  0  0  0  0  0  0  0  0  0
   -6.0770    0.0888    0.3320 C   0  0  0  0  0  0  0  0  0  0  0  0
    2.4459    0.9459   -1.7731 H   0  0  0  0  0  0  0  0  0  0  0  0
    4.8901    1.3714   -0.8446 H   0  0  0  0  0  0  0  0  0  0  0  0
    4.4652   -0.0249   -1.7992 H   0  0  0  0  0  0  0  0  0  0  0  0
    5.8427   -0.7009    0.0639 H   0  0  0  0  0  0  0  0  0  0  0  0
    4.7547    0.0425    1.2322 H   0  0  0  0  0  0  0  0  0  0  0  0
    1.8595   -2.3097    0.6367 H   0  0  0  0  0  0  0  0  0  0  0  0
    4.0905    3.3542   -0.4834 H   0  0  0  0  0  0  0  0  0  0  0  0
    2.7479    3.3703   -1.6486 H   0  0  0  0  0  0  0  0  0  0  0  0
    2.5932    4.2261   -0.1266 H   0  0  0  0  0  0  0  0  0  0  0  0
    3.8657    2.0502    1.6820 H   0  0  0  0  0  0  0  0  0  0  0  0
    2.3728    2.9205    2.0610 H   0  0  0  0  0  0  0  0  0  0  0  0
    2.3689    1.1718    2.0669 H   0  0  0  0  0  0  0  0  0  0  0  0
    5.4008   -2.7785    1.6239 H   0  0  0  0  0  0  0  0  0  0  0  0
    4.0735   -1.9852    2.5013 H   0  0  0  0  0  0  0  0  0  0  0  0
    3.8082   -3.5127    1.6347 H   0  0  0  0  0  0  0  0  0  0  0  0
    3.8173   -3.4290   -0.7238 H   0  0  0  0  0  0  0  0  0  0  0  0
   -2.5702   -2.9036   -0.2584 H   0  0  0  0  0  0  0  0  0  0  0  0
   -6.2910    0.2769    1.3891 H   0  0  0  0  0  0  0  0  0  0  0  0
   -6.3584    0.9734   -0.2497 H   0  0  0  0  0  0  0  0  0  0  0  0
   -6.7308   -0.7191   -0.0116 H   0  0  0  0  0  0  0  0  0  0  0  0
   -3.3702    2.6801    0.4104 H   0  0  0  0  0  0  0  0  0  0  0  0
   -4.6742   -3.4192   -0.0737 H   0  0  0  0  0  0  0  0  0  0  0  0
  1  8  1  0  0  0  0
  1 17  1  0  0  0  0
  2 12  1  0  0  0  0
  2 43  1  0  0  0  0
  3 19  2  0  0  0  0
  4 20  2  0  0  0  0
  5 23  1  0  0  0  0
  5 48  1  0  0  0  0
  6 26  1  0  0  0  0
  6 49  1  0  0  0  0
  7  8  1  0  0  0  0
  7  9  1  0  0  0  0
  7 10  1  0  0  0  0
  7 28  1  0  0  0  0
  8 15  1  0  0  0  0
  8 16  1  0  0  0  0
  9 11  1  0  0  0  0
  9 29  1  0  0  0  0
  9 30  1  0  0  0  0
 10 13  2  0  0  0  0
 10 14  1  0  0  0  0
 11 12  1  0  0  0  0
 11 31  1  0  0  0  0
 11 32  1  0  0  0  0
 12 13  1  0  0  0  0
 12 18  1  0  0  0  0
 13 33  1  0  0  0  0
 14 17  2  0  0  0  0
 14 19  1  0  0  0  0
 15 34  1  0  0  0  0
 15 35  1  0  0  0  0
 15 36  1  0  0  0  0
 16 37  1  0  0  0  0
 16 38  1  0  0  0  0
 16 39  1  0  0  0  0
 17 20  1  0  0  0  0
 18 40  1  0  0  0  0
 18 41  1  0  0  0  0
 18 42  1  0  0  0  0
 19 21  1  0  0  0  0
 20 22  1  0  0  0  0
 21 22  1  0  0  0  0
 21 24  2  0  0  0  0
 22 23  2  0  0  0  0
 23 25  1  0  0  0  0
 24 26  1  0  0  0  0
 24 44  1  0  0  0  0
 25 26  2  0  0  0  0
 25 27  1  0  0  0  0
 27 45  1  0  0  0  0
 27 46  1  0  0  0  0
 27 47  1  0  0  0  0
M  END
> <PUBCHEM_COMPOUND_CID>
11222457

> <PUBCHEM_CONFORMER_RMSD>
0.6

> <PUBCHEM_CONFORMER_DIVERSEORDER>
1

> <PUBCHEM_MMFF94_PARTIAL_CHARGES>
27
1 -0.36
10 -0.14
12 0.42
13 -0.29
14 0.01
17 0.09
19 0.47
2 -0.68
20 0.47
21 0.09
22 0.09
23 0.08
24 -0.15
25 -0.14
26 0.08
27 0.14
3 -0.57
33 0.15
4 -0.57
43 0.4
44 0.15
48 0.45
49 0.45
5 -0.53
6 -0.53
7 0.14
8 0.28

> <PUBCHEM_EFFECTIVE_ROTOR_COUNT>
1

> <PUBCHEM_PHARMACOPHORE_FEATURES>
12
1 1 acceptor
1 2 acceptor
1 2 donor
1 3 acceptor
1 4 acceptor
1 5 donor
1 6 donor
3 8 15 16 hydrophobe
6 1 7 8 10 14 17 rings
6 14 17 19 20 21 22 rings
6 21 22 23 24 25 26 rings
6 7 9 10 11 12 13 rings

> <PUBCHEM_HEAVY_ATOM_COUNT>
27

> <PUBCHEM_ATOM_DEF_STEREO_COUNT>
2

> <PUBCHEM_ATOM_UDEF_STEREO_COUNT>
0

> <PUBCHEM_BOND_DEF_STEREO_COUNT>
0

> <PUBCHEM_BOND_UDEF_STEREO_COUNT>
0

> <PUBCHEM_ISOTOPIC_ATOM_COUNT>
0

> <PUBCHEM_COMPONENT_COUNT>
1

> <PUBCHEM_CACTVS_TAUTO_COUNT>
12

> <PUBCHEM_CONFORMER_ID>
00AB3DB900000001

> <PUBCHEM_MMFF94_ENERGY>
87.5786

> <PUBCHEM_FEATURE_SELFOVERLAP>
60.975

> <PUBCHEM_SHAPE_FINGERPRINT>
10622 236 17914313918046465455
10967382 1 18267304428944518948
1100329 8 18338235934387232657
11405975 8 18412266138353372937
11578080 2 17058635490155039698
11963148 33 17832137599807282083
12107183 9 18121783824790851585
12403259 226 18409725140716354668
12403260 363 18413103944796917245
12422481 6 18270981054863943395
12553582 1 18340758278828920606
12633257 1 18271536286391978801
12788726 201 17774458142878103128
13140716 1 18341892970196077977
13167823 11 18410012152127267455
13224815 77 18337389452114972669
13533116 47 18333731342638455395
138480 1 18410293657216637732
14341114 176 18411986831986908979
14790565 3 17544199740702834292
14866123 147 16760017628561625666
14955137 171 18059575750715089910
15042514 8 17977379431076927978
15196674 1 18339645654581171365
15250474 111 18269547402822489967
15442244 35 18410855442948299124
15536298 74 18270682077146531629
1601671 61 18343305829926779038
17349148 13 17989486303564557021
17492 89 18411139160083353663
17804303 29 18340207388457454733
17857418 61 18409726261924001107
1813 80 17385438825889893868
18681886 176 18272090526552669814
19591789 44 18411419522726260119
1979834 28 17846499197339858766
20028762 73 18202839955293500295
20691752 17 17676202489595453784
21033648 29 17313371341048445221
21267235 1 18410584993516861599
21279426 13 18265613191462188453
21421861 104 18262504992560462232
21792934 111 18412256226154507305
21859007 373 17897420840813210525
221490 88 18336272330910026754
22182313 1 18190157083875933044
23366157 5 18187084005148392268
23559900 14 18411132541358817873
3004659 81 18261116227759912494
335352 9 18339081463356023021
3411729 13 17987225807149525424
350125 39 18411420613421327268
3680242 22 18338525118782617643
4073 2 18042411398867973211
4214541 1 18410294692508834749
4409770 3 17320970941839110564
5104073 3 18341618152835323683
67856867 119 18338231673568645768
6823239 73 18059027068738166982
7970288 3 18119526536236679066
9709674 26 18335707186318338795
9981440 41 17687182406322103032

> <PUBCHEM_SHAPE_MULTIPOLES>
520.43
11.36
3.4
0.91
8.04
0.62
-0.22
-4.23
-1.25
-2.12
-0.17
-0.94
-0.09
-0.67

> <PUBCHEM_SHAPE_SELFOVERLAP>
1157.531

> <PUBCHEM_SHAPE_VOLUME>
275.7

> <PUBCHEM_COORDINATE_TYPE>
2
5
10

$$$$
