11225326
  -OEChem-03292013303D

 60 62  0     1  0  0  0  0  0999 V2000
    3.5023   -0.0845   -1.9533 S   0  0  0  0  0  0  0  0  0  0  0  0
    3.7063    1.8550    0.6560 O   0  0  0  0  0  0  0  0  0  0  0  0
   -3.2969   -0.3739    1.8834 O   0  0  0  0  0  0  0  0  0  0  0  0
   -4.0329    3.1128   -0.5177 O   0  0  0  0  0  0  0  0  0  0  0  0
   -5.4867   -2.7432    0.6509 O   0  0  0  0  0  0  0  0  0  0  0  0
    1.9329    0.7272    1.6183 O   0  0  0  0  0  0  0  0  0  0  0  0
   -0.0672    3.5162   -1.9650 O   0  0  0  0  0  0  0  0  0  0  0  0
    2.8633   -3.1163   -1.7694 O   0  0  0  0  0  0  0  0  0  0  0  0
    0.3500    1.9768   -0.2805 N   0  0  0  0  0  0  0  0  0  0  0  0
   -2.3078    1.9709    0.3886 N   0  0  0  0  0  0  0  0  0  0  0  0
    2.2101   -2.7282    0.4290 N   0  0  0  0  0  0  0  0  0  0  0  0
   -4.5136   -0.0220    1.2319 C   0  0  2  0  0  0  0  0  0  0  0  0
   -4.5789   -0.6520   -0.1736 C   0  0  0  0  0  0  0  0  0  0  0  0
   -4.6550    1.5112    1.2061 C   0  0  0  0  0  0  0  0  0  0  0  0
    1.7422    1.6932   -0.6072 C   0  0  2  0  0  0  0  0  0  0  0  0
   -4.5160   -2.1895   -0.2336 C   0  0  1  0  0  0  0  0  0  0  0  0
    4.6886    1.2334    1.5131 C   0  0  1  0  0  0  0  0  0  0  0  0
    5.4295    0.1726    0.6800 C   0  0  0  0  0  0  0  0  0  0  0  0
    1.8109    0.5076   -1.5817 C   0  0  0  0  0  0  0  0  0  0  0  0
   -3.6078    2.1798    0.3873 C   0  0  0  0  0  0  0  0  0  0  0  0
    2.4242    1.3860    0.7118 C   0  0  0  0  0  0  0  0  0  0  0  0
    4.5629   -1.0286    0.3919 C   0  0  0  0  0  0  0  0  0  0  0  0
    5.6428    2.3324    1.9632 C   0  0  0  0  0  0  0  0  0  0  0  0
    3.7324   -1.2086   -0.6512 C   0  0  0  0  0  0  0  0  0  0  0  0
   -3.1576   -2.7505    0.0918 C   0  0  0  0  0  0  0  0  0  0  0  0
   -1.8398    2.7887   -0.6139 C   0  0  0  0  0  0  0  0  0  0  0  0
   -0.4530    2.8228   -1.0287 C   0  0  0  0  0  0  0  0  0  0  0  0
   -2.8901    3.4959   -1.1527 C   0  0  0  0  0  0  0  0  0  0  0  0
    2.9178   -2.4601   -0.7327 C   0  0  0  0  0  0  0  0  0  0  0  0
   -2.2839   -3.1497   -0.8458 C   0  0  0  0  0  0  0  0  0  0  0  0
    1.2583   -3.8178    0.5469 C   0  0  0  0  0  0  0  0  0  0  0  0
   -0.9685   -3.6955   -0.5936 C   0  0  0  0  0  0  0  0  0  0  0  0
   -0.1190   -3.2623    0.3506 C   0  0  0  0  0  0  0  0  0  0  0  0
   -5.3268   -0.4229    1.8472 H   0  0  0  0  0  0  0  0  0  0  0  0
   -5.5286   -0.3389   -0.6272 H   0  0  0  0  0  0  0  0  0  0  0  0
   -3.7752   -0.2574   -0.8077 H   0  0  0  0  0  0  0  0  0  0  0  0
   -5.6495    1.7789    0.8306 H   0  0  0  0  0  0  0  0  0  0  0  0
   -4.5737    1.8979    2.2290 H   0  0  0  0  0  0  0  0  0  0  0  0
    2.1768    2.5951   -1.0539 H   0  0  0  0  0  0  0  0  0  0  0  0
   -4.8051   -2.4945   -1.2472 H   0  0  0  0  0  0  0  0  0  0  0  0
    4.2196    0.7860    2.3979 H   0  0  0  0  0  0  0  0  0  0  0  0
    5.7939    0.6105   -0.2570 H   0  0  0  0  0  0  0  0  0  0  0  0
    6.3160   -0.1775    1.2230 H   0  0  0  0  0  0  0  0  0  0  0  0
    1.2023   -0.3280   -1.2168 H   0  0  0  0  0  0  0  0  0  0  0  0
    1.3637    0.8079   -2.5366 H   0  0  0  0  0  0  0  0  0  0  0  0
   -0.0718    1.4479    0.4790 H   0  0  0  0  0  0  0  0  0  0  0  0
    4.6298   -1.8082    1.1500 H   0  0  0  0  0  0  0  0  0  0  0  0
    5.0976    3.1069    2.5134 H   0  0  0  0  0  0  0  0  0  0  0  0
    6.4306    1.9345    2.6100 H   0  0  0  0  0  0  0  0  0  0  0  0
    6.1090    2.8266    1.1035 H   0  0  0  0  0  0  0  0  0  0  0  0
   -2.8944   -2.8291    1.1437 H   0  0  0  0  0  0  0  0  0  0  0  0
   -2.5578   -0.1052    1.3118 H   0  0  0  0  0  0  0  0  0  0  0  0
   -3.0004    4.2293   -1.9376 H   0  0  0  0  0  0  0  0  0  0  0  0
   -5.4452   -3.7115    0.5686 H   0  0  0  0  0  0  0  0  0  0  0  0
   -2.5637   -3.0981   -1.8953 H   0  0  0  0  0  0  0  0  0  0  0  0
    2.2933   -2.1017    1.2247 H   0  0  0  0  0  0  0  0  0  0  0  0
    1.3536   -4.2306    1.5557 H   0  0  0  0  0  0  0  0  0  0  0  0
    1.4989   -4.6013   -0.1788 H   0  0  0  0  0  0  0  0  0  0  0  0
   -0.6540   -4.4767   -1.2811 H   0  0  0  0  0  0  0  0  0  0  0  0
   -0.4181   -2.4606    1.0231 H   0  0  0  0  0  0  0  0  0  0  0  0
  1 19  1  0  0  0  0
  1 24  1  0  0  0  0
  2 17  1  0  0  0  0
  2 21  1  0  0  0  0
  3 12  1  0  0  0  0
  3 52  1  0  0  0  0
  4 20  1  0  0  0  0
  4 28  1  0  0  0  0
  5 16  1  0  0  0  0
  5 54  1  0  0  0  0
  6 21  2  0  0  0  0
  7 27  2  0  0  0  0
  8 29  2  0  0  0  0
  9 15  1  0  0  0  0
  9 27  1  0  0  0  0
  9 46  1  0  0  0  0
 10 20  2  0  0  0  0
 10 26  1  0  0  0  0
 11 29  1  0  0  0  0
 11 31  1  0  0  0  0
 11 56  1  0  0  0  0
 12 13  1  0  0  0  0
 12 14  1  0  0  0  0
 12 34  1  0  0  0  0
 13 16  1  0  0  0  0
 13 35  1  0  0  0  0
 13 36  1  0  0  0  0
 14 20  1  0  0  0  0
 14 37  1  0  0  0  0
 14 38  1  0  0  0  0
 15 19  1  0  0  0  0
 15 21  1  0  0  0  0
 15 39  1  0  0  0  0
 16 25  1  0  0  0  0
 16 40  1  0  0  0  0
 17 18  1  0  0  0  0
 17 23  1  0  0  0  0
 17 41  1  0  0  0  0
 18 22  1  0  0  0  0
 18 42  1  0  0  0  0
 18 43  1  0  0  0  0
 19 44  1  0  0  0  0
 19 45  1  0  0  0  0
 22 24  2  0  0  0  0
 22 47  1  0  0  0  0
 23 48  1  0  0  0  0
 23 49  1  0  0  0  0
 23 50  1  0  0  0  0
 24 29  1  0  0  0  0
 25 30  2  0  0  0  0
 25 51  1  0  0  0  0
 26 27  1  0  0  0  0
 26 28  2  0  0  0  0
 28 53  1  0  0  0  0
 30 32  1  0  0  0  0
 30 55  1  0  0  0  0
 31 33  1  0  0  0  0
 31 57  1  0  0  0  0
 31 58  1  0  0  0  0
 32 33  2  0  0  0  0
 32 59  1  0  0  0  0
 33 60  1  0  0  0  0
M  END
> <PUBCHEM_COMPOUND_CID>
11225326

> <PUBCHEM_CONFORMER_RMSD>
0.8

> <PUBCHEM_CONFORMER_DIVERSEORDER>
1

> <PUBCHEM_MMFF94_PARTIAL_CHARGES>
41
1 -0.33
10 -0.57
11 -0.73
12 0.28
14 0.18
15 0.36
16 0.42
17 0.28
18 0.14
19 0.23
2 -0.43
20 0.3
21 0.66
22 -0.29
24 0.12
25 -0.29
26 0.14
27 0.72
28 -0.01
29 0.62
3 -0.68
30 -0.15
31 0.44
32 -0.15
33 -0.29
4 -0.28
46 0.37
47 0.15
5 -0.68
51 0.15
52 0.4
53 0.15
54 0.4
55 0.15
56 0.37
59 0.15
6 -0.57
60 0.15
7 -0.57
8 -0.57
9 -0.73

> <PUBCHEM_EFFECTIVE_ROTOR_COUNT>
2.4

> <PUBCHEM_PHARMACOPHORE_FEATURES>
10
1 11 donor
1 3 acceptor
1 3 donor
1 5 acceptor
1 5 donor
1 6 acceptor
1 7 acceptor
1 8 acceptor
1 9 donor
5 4 10 20 26 28 rings

> <PUBCHEM_HEAVY_ATOM_COUNT>
33

> <PUBCHEM_ATOM_DEF_STEREO_COUNT>
4

> <PUBCHEM_ATOM_UDEF_STEREO_COUNT>
0

> <PUBCHEM_BOND_DEF_STEREO_COUNT>
3

> <PUBCHEM_BOND_UDEF_STEREO_COUNT>
0

> <PUBCHEM_ISOTOPIC_ATOM_COUNT>
0

> <PUBCHEM_COMPONENT_COUNT>
1

> <PUBCHEM_CACTVS_TAUTO_COUNT>
4

> <PUBCHEM_CONFORMER_ID>
00AB48EE00000001

> <PUBCHEM_MMFF94_ENERGY>
60.6784

> <PUBCHEM_FEATURE_SELFOVERLAP>
50.75

> <PUBCHEM_SHAPE_FINGERPRINT>
10190206 1 17685225263378304092
10815517 723 18196365038622293062
10864689 126 17835806296461768406
11014199 57 18050289468279794863
11513181 2 17917713496050525447
12422481 6 18338500955687319002
13122387 1 16895401590564140119
13561361 72 18410007736995618466
13642711 20 16629667595899987066
13947930 73 17685199587731316514
14026016 164 18118956133944332322
144659 178 18120936375945241076
15001296 14 18409451392860335955
15406563 190 17968672509680903613
15419008 145 18337092533005910002
15629462 23 13625458644091642756
17093844 170 18339079397239356966
17977149 70 18266474113161348086
20764821 26 18336256873301889575
22121540 332 17697882823930394588
23559900 14 17827927226176042804
24941158 1 16844744031955967118
3052486 1 18334572460601648222
338550 245 18334865999703624054
3882209 13 17407092827063035023
4403749 210 18264187236698578496
463206 1 18120662335683403269
5047190 48 18267584796326205820
508706 21 18408891702613181151
56638632 33 17251177211771618723
59444896 2 17244152845296086420
6433294 58 17905045859013688822
653340 110 18411411821818152350
9543594 6 18411424998693530999

> <PUBCHEM_SHAPE_MULTIPOLES>
626.95
11.96
5.83
1.69
0.05
2.05
-0.08
-1.18
4.74
3.35
-1.37
-1.22
-0.74
1.95

> <PUBCHEM_SHAPE_SELFOVERLAP>
1291.327

> <PUBCHEM_SHAPE_VOLUME>
357.1

> <PUBCHEM_COORDINATE_TYPE>
2
5
10

$$$$
