11233399
  -OEChem-03292013303D

 40 44  0     1  0  0  0  0  0999 V2000
   -4.3910   -1.8545   -0.4078 O   0  0  0  0  0  0  0  0  0  0  0  0
   -1.3114   -2.5722    0.3126 O   0  0  0  0  0  0  0  0  0  0  0  0
   -4.9779    1.3316   -0.1436 O   0  0  0  0  0  0  0  0  0  0  0  0
   -3.1329    3.1377   -0.3979 O   0  0  0  0  0  0  0  0  0  0  0  0
    4.0893   -0.0706   -2.3215 O   0  0  0  0  0  0  0  0  0  0  0  0
    5.4766    0.6420   -0.3098 O   0  0  0  0  0  0  0  0  0  0  0  0
   -3.4977   -1.9118    0.7144 C   0  0  2  0  0  0  0  0  0  0  0  0
   -4.5204   -0.8269    0.5861 C   0  0  1  0  0  0  0  0  0  0  0  0
    0.7709   -0.9499    0.0857 C   0  0  1  0  0  0  0  0  0  0  0  0
   -1.7045   -0.2280    0.1125 C   0  0  0  0  0  0  0  0  0  0  0  0
   -0.3469    0.0772   -0.0371 C   0  0  0  0  0  0  0  0  0  0  0  0
   -2.0920   -1.6341    0.3754 C   0  0  0  0  0  0  0  0  0  0  0  0
   -4.1129    0.5098    0.1221 C   0  0  0  0  0  0  0  0  0  0  0  0
   -2.6632    0.7890   -0.0076 C   0  0  0  0  0  0  0  0  0  0  0  0
    1.0289   -1.6880   -1.2363 C   0  0  0  0  0  0  0  0  0  0  0  0
    2.0658   -0.4101    0.6617 C   0  0  0  0  0  0  0  0  0  0  0  0
    1.8362   -0.8575   -2.2209 C   0  0  0  0  0  0  0  0  0  0  0  0
    0.0533    1.3868   -0.3001 C   0  0  0  0  0  0  0  0  0  0  0  0
    3.1819   -0.1360   -0.1457 C   0  0  0  0  0  0  0  0  0  0  0  0
   -2.2547    2.1014   -0.2763 C   0  0  0  0  0  0  0  0  0  0  0  0
    3.1244   -0.3501   -1.6149 C   0  0  0  0  0  0  0  0  0  0  0  0
   -0.8987    2.3968   -0.4194 C   0  0  0  0  0  0  0  0  0  0  0  0
    2.1543   -0.1667    2.0427 C   0  0  0  0  0  0  0  0  0  0  0  0
    4.3613    0.3619    0.4233 C   0  0  0  0  0  0  0  0  0  0  0  0
    3.3296    0.3300    2.6056 C   0  0  0  0  0  0  0  0  0  0  0  0
    4.4317    0.5923    1.7967 C   0  0  0  0  0  0  0  0  0  0  0  0
   -3.6768   -2.6816    1.4558 H   0  0  0  0  0  0  0  0  0  0  0  0
   -5.3820   -0.8728    1.2419 H   0  0  0  0  0  0  0  0  0  0  0  0
    0.5028   -1.6936    0.8408 H   0  0  0  0  0  0  0  0  0  0  0  0
    0.0954   -2.0019   -1.7168 H   0  0  0  0  0  0  0  0  0  0  0  0
    1.5925   -2.6064   -1.0194 H   0  0  0  0  0  0  0  0  0  0  0  0
    1.2639    0.0005   -2.5877 H   0  0  0  0  0  0  0  0  0  0  0  0
    2.0914   -1.4846   -3.0830 H   0  0  0  0  0  0  0  0  0  0  0  0
    1.0894    1.6745   -0.4415 H   0  0  0  0  0  0  0  0  0  0  0  0
   -0.5773    3.4138   -0.6286 H   0  0  0  0  0  0  0  0  0  0  0  0
    1.3037   -0.3647    2.6908 H   0  0  0  0  0  0  0  0  0  0  0  0
    3.3844    0.5120    3.6749 H   0  0  0  0  0  0  0  0  0  0  0  0
    5.3439    0.9787    2.2439 H   0  0  0  0  0  0  0  0  0  0  0  0
   -4.0297    2.8551   -0.1625 H   0  0  0  0  0  0  0  0  0  0  0  0
    5.3741    0.3351   -1.2229 H   0  0  0  0  0  0  0  0  0  0  0  0
  1  7  1  0  0  0  0
  1  8  1  0  0  0  0
  2 12  2  0  0  0  0
  3 13  2  0  0  0  0
  4 20  1  0  0  0  0
  4 39  1  0  0  0  0
  5 21  2  0  0  0  0
  6 24  1  0  0  0  0
  6 40  1  0  0  0  0
  7  8  1  0  0  0  0
  7 12  1  0  0  0  0
  7 27  1  0  0  0  0
  8 13  1  0  0  0  0
  8 28  1  0  0  0  0
  9 11  1  0  0  0  0
  9 15  1  0  0  0  0
  9 16  1  0  0  0  0
  9 29  1  0  0  0  0
 10 11  2  0  0  0  0
 10 12  1  0  0  0  0
 10 14  1  0  0  0  0
 11 18  1  0  0  0  0
 13 14  1  0  0  0  0
 14 20  2  0  0  0  0
 15 17  1  0  0  0  0
 15 30  1  0  0  0  0
 15 31  1  0  0  0  0
 16 19  2  0  0  0  0
 16 23  1  0  0  0  0
 17 21  1  0  0  0  0
 17 32  1  0  0  0  0
 17 33  1  0  0  0  0
 18 22  2  0  0  0  0
 18 34  1  0  0  0  0
 19 21  1  0  0  0  0
 19 24  1  0  0  0  0
 20 22  1  0  0  0  0
 22 35  1  0  0  0  0
 23 25  2  0  0  0  0
 23 36  1  0  0  0  0
 24 26  2  0  0  0  0
 25 26  1  0  0  0  0
 25 37  1  0  0  0  0
 26 38  1  0  0  0  0
M  END
> <PUBCHEM_COMPOUND_CID>
11233399

> <PUBCHEM_CONFORMER_RMSD>
0.6

> <PUBCHEM_CONFORMER_DIVERSEORDER>
1
3
4
2

> <PUBCHEM_MMFF94_PARTIAL_CHARGES>
34
1 -0.3
10 0.09
11 -0.14
12 0.48
13 0.48
14 0.09
16 -0.14
17 0.06
18 -0.15
19 0.09
2 -0.57
20 0.08
21 0.42
22 -0.15
23 -0.15
24 0.08
25 -0.15
26 -0.15
27 0.1
28 0.1
3 -0.57
34 0.15
35 0.15
36 0.15
37 0.15
38 0.15
39 0.45
4 -0.53
40 0.45
5 -0.57
6 -0.53
7 0.05
8 0.05
9 0.29

> <PUBCHEM_EFFECTIVE_ROTOR_COUNT>
1.8

> <PUBCHEM_PHARMACOPHORE_FEATURES>
10
1 1 acceptor
1 2 acceptor
1 3 acceptor
1 4 donor
1 5 acceptor
1 6 donor
6 10 11 14 18 20 22 rings
6 16 19 23 24 25 26 rings
6 9 15 16 17 19 21 rings
7 1 7 8 10 12 13 14 rings

> <PUBCHEM_HEAVY_ATOM_COUNT>
26

> <PUBCHEM_ATOM_DEF_STEREO_COUNT>
3

> <PUBCHEM_ATOM_UDEF_STEREO_COUNT>
0

> <PUBCHEM_BOND_DEF_STEREO_COUNT>
0

> <PUBCHEM_BOND_UDEF_STEREO_COUNT>
0

> <PUBCHEM_ISOTOPIC_ATOM_COUNT>
0

> <PUBCHEM_COMPONENT_COUNT>
1

> <PUBCHEM_CACTVS_TAUTO_COUNT>
998

> <PUBCHEM_CONFORMER_ID>
00AB687700000001

> <PUBCHEM_MMFF94_ENERGY>
84.0318

> <PUBCHEM_FEATURE_SELFOVERLAP>
50.775

> <PUBCHEM_SHAPE_FINGERPRINT>
10319926 262 18339625760477429298
10366900 7 17774996873816416441
10369192 42 17344056636269472160
10498660 4 18408890603106386557
11112241 14 16987980804503702569
11370993 144 17131565963687499995
11578080 2 17916322561953231225
11595378 159 17967247576870115881
11640471 11 17241063032283599148
12236239 1 17458062673043175298
12403259 415 17917989495212354168
12553582 1 18334866056129159299
12596602 18 17458626761110189200
12788726 201 18113907065444898601
13034934 17 17917700357354545866
13134695 92 14490193799924330646
13140716 1 18191592067410183947
13224815 77 18343863307659225175
13402501 40 18059853991217339136
13583140 156 18126818609157473602
13726171 33 18044971019035962973
13782708 43 17988928868708515990
13965767 371 17244984831119837156
14081887 123 18412257316316454057
14341114 328 17967527965542042824
14739800 52 18043812194532262764
15961568 22 18265612281030218508
16752209 62 18333732412090294347
16988056 13 15160358948657255037
17138139 8 16880758745244898491
17349148 13 16877944923216366696
18915476 22 17203329970476836054
200 152 15864063282407295994
20511986 3 17313089869723428484
20600515 1 18336543931836227105
20715895 44 16881861242423415389
21033648 29 17703498952402779472
21792961 116 17846230938984294140
22182313 1 18131071510889564148
23402539 116 18409442605130323527
23557571 272 18341618117752690116
23559900 14 18339932497956071446
238 59 16772932732727976252
3052486 1 18333170561289590254
341906 21 18334293145487117605
350125 39 18192150386998820594
469060 322 18189638132400377073
474 4 15266478764799404458
6034566 193 13987799591400629190
633830 44 15338835417251708504
6442390 28 18131346449337916142
6823239 73 18343027696492991164
7097593 13 17461981190555613090
77492 1 17313106332469892602
8272917 22 15625958537717715046
9849439 229 17829605059793754653

> <PUBCHEM_SHAPE_MULTIPOLES>
499.85
9.93
2.29
1.81
0.36
0.66
0.1
0.86
1.19
-3.06
-0.35
3.03
-0.22
1.29

> <PUBCHEM_SHAPE_SELFOVERLAP>
1137.725

> <PUBCHEM_SHAPE_VOLUME>
255.5

> <PUBCHEM_COORDINATE_TYPE>
2
5
10

$$$$
