11232530
  -OEChem-03292013303D

 40 43  0     1  0  0  0  0  0999 V2000
    1.2247   -1.3482   -1.0856 O   0  0  0  0  0  0  0  0  0  0  0  0
    2.7560   -1.9226    0.5716 O   0  0  0  0  0  0  0  0  0  0  0  0
    2.1950    1.0971   -0.3607 O   0  0  0  0  0  0  0  0  0  0  0  0
   -0.5766    1.6527    2.5581 O   0  0  0  0  0  0  0  0  0  0  0  0
   -5.1256    1.0112   -0.3458 O   0  0  0  0  0  0  0  0  0  0  0  0
    3.8489    2.6167    0.1447 O   0  0  0  0  0  0  0  0  0  0  0  0
   -0.8175   -2.8162    1.0982 N   0  0  0  0  0  0  0  0  0  0  0  0
   -0.1500   -1.1900   -1.3305 N   0  0  1  0  0  0  0  0  0  0  0  0
    3.1526    2.3026   -2.0241 N   0  0  0  0  0  0  0  0  0  0  0  0
    0.5925   -2.8658    0.7083 C   0  0  1  0  0  0  0  0  0  0  0  0
   -0.5044   -3.3285   -0.2278 C   0  0  2  0  0  0  0  0  0  0  0  0
    1.3770   -1.6131    0.3261 C   0  0  2  0  0  0  0  0  0  0  0  0
   -0.8090   -2.4950   -1.4410 C   0  0  0  0  0  0  0  0  0  0  0  0
    0.9821   -0.3265    1.1257 C   0  0  2  0  0  0  0  0  0  0  0  0
   -0.3265    0.2624    0.6056 C   0  0  0  0  0  0  0  0  0  0  0  0
   -0.8526   -0.1936   -0.6212 C   0  0  0  0  0  0  0  0  0  0  0  0
    2.0762    0.7549    1.0024 C   0  0  0  0  0  0  0  0  0  0  0  0
   -1.0330    1.2180    1.3489 C   0  0  0  0  0  0  0  0  0  0  0  0
   -2.0740    0.3159   -1.0806 C   0  0  0  0  0  0  0  0  0  0  0  0
   -2.7620    1.2747   -0.3369 C   0  0  0  0  0  0  0  0  0  0  0  0
   -2.2430    1.7242    0.8755 C   0  0  0  0  0  0  0  0  0  0  0  0
   -4.0596    1.8143   -0.8369 C   0  0  0  0  0  0  0  0  0  0  0  0
    3.1288    2.0548   -0.6739 C   0  0  0  0  0  0  0  0  0  0  0  0
    1.1764   -3.6196    1.2206 H   0  0  0  0  0  0  0  0  0  0  0  0
   -0.6643   -4.3875   -0.3729 H   0  0  0  0  0  0  0  0  0  0  0  0
   -1.2270   -1.8927    1.0515 H   0  0  0  0  0  0  0  0  0  0  0  0
   -0.4079   -3.0070   -2.3237 H   0  0  0  0  0  0  0  0  0  0  0  0
   -1.8914   -2.4110   -1.5919 H   0  0  0  0  0  0  0  0  0  0  0  0
    0.8842   -0.6121    2.1804 H   0  0  0  0  0  0  0  0  0  0  0  0
    3.0362    0.3904    1.3845 H   0  0  0  0  0  0  0  0  0  0  0  0
    1.8192    1.6523    1.5759 H   0  0  0  0  0  0  0  0  0  0  0  0
    2.9271   -1.8037    1.5215 H   0  0  0  0  0  0  0  0  0  0  0  0
   -2.4858   -0.0356   -2.0242 H   0  0  0  0  0  0  0  0  0  0  0  0
   -2.7836    2.4628    1.4628 H   0  0  0  0  0  0  0  0  0  0  0  0
    0.1621    1.1108    2.8724 H   0  0  0  0  0  0  0  0  0  0  0  0
   -4.2186    2.8456   -0.5047 H   0  0  0  0  0  0  0  0  0  0  0  0
   -4.0973    1.8181   -1.9317 H   0  0  0  0  0  0  0  0  0  0  0  0
   -4.9113    0.0790   -0.5212 H   0  0  0  0  0  0  0  0  0  0  0  0
    2.5357    1.8111   -2.6621 H   0  0  0  0  0  0  0  0  0  0  0  0
    3.7872    2.9848   -2.4252 H   0  0  0  0  0  0  0  0  0  0  0  0
  1  8  1  0  0  0  0
  1 12  1  0  0  0  0
  2 12  1  0  0  0  0
  2 32  1  0  0  0  0
  3 17  1  0  0  0  0
  3 23  1  0  0  0  0
  4 18  1  0  0  0  0
  4 35  1  0  0  0  0
  5 22  1  0  0  0  0
  5 38  1  0  0  0  0
  6 23  2  0  0  0  0
  7 10  1  0  0  0  0
  7 11  1  0  0  0  0
  7 26  1  0  0  0  0
  8 13  1  0  0  0  0
  8 16  1  0  0  0  0
  9 23  1  0  0  0  0
  9 39  1  0  0  0  0
  9 40  1  0  0  0  0
 10 11  1  0  0  0  0
 10 12  1  0  0  0  0
 10 24  1  0  0  0  0
 11 13  1  0  0  0  0
 11 25  1  0  0  0  0
 12 14  1  0  0  0  0
 13 27  1  0  0  0  0
 13 28  1  0  0  0  0
 14 15  1  0  0  0  0
 14 17  1  0  0  0  0
 14 29  1  0  0  0  0
 15 16  2  0  0  0  0
 15 18  1  0  0  0  0
 16 19  1  0  0  0  0
 17 30  1  0  0  0  0
 17 31  1  0  0  0  0
 18 21  2  0  0  0  0
 19 20  2  0  0  0  0
 19 33  1  0  0  0  0
 20 21  1  0  0  0  0
 20 22  1  0  0  0  0
 21 34  1  0  0  0  0
 22 36  1  0  0  0  0
 22 37  1  0  0  0  0
M  END
> <PUBCHEM_COMPOUND_CID>
11232530

> <PUBCHEM_CONFORMER_RMSD>
0.8

> <PUBCHEM_CONFORMER_DIVERSEORDER>
1
8
2
5
6
7
3
4

> <PUBCHEM_MMFF94_PARTIAL_CHARGES>
33
1 -0.26
10 -0.04
11 -0.04
12 0.65
13 0.46
14 0.14
15 -0.14
16 0.1
17 0.28
18 0.08
19 -0.15
2 -0.68
20 -0.14
21 -0.15
22 0.42
23 0.78
24 0.1
25 0.1
26 0.36
3 -0.43
32 0.4
33 0.15
34 0.15
35 0.45
38 0.4
39 0.37
4 -0.53
40 0.37
5 -0.68
6 -0.57
7 -0.68
8 -0.49
9 -0.8

> <PUBCHEM_EFFECTIVE_ROTOR_COUNT>
4.8

> <PUBCHEM_PHARMACOPHORE_FEATURES>
12
1 2 acceptor
1 2 donor
1 4 donor
1 5 acceptor
1 5 donor
1 6 acceptor
1 7 cation
1 7 donor
1 9 donor
6 1 8 12 14 15 16 rings
6 15 16 18 19 20 21 rings
7 1 7 8 10 11 12 13 rings

> <PUBCHEM_HEAVY_ATOM_COUNT>
23

> <PUBCHEM_ATOM_DEF_STEREO_COUNT>
4

> <PUBCHEM_ATOM_UDEF_STEREO_COUNT>
0

> <PUBCHEM_BOND_DEF_STEREO_COUNT>
0

> <PUBCHEM_BOND_UDEF_STEREO_COUNT>
0

> <PUBCHEM_ISOTOPIC_ATOM_COUNT>
0

> <PUBCHEM_COMPONENT_COUNT>
1

> <PUBCHEM_CACTVS_TAUTO_COUNT>
6

> <PUBCHEM_CONFORMER_ID>
00AB651200000001

> <PUBCHEM_MMFF94_ENERGY>
87.0699

> <PUBCHEM_FEATURE_SELFOVERLAP>
61.909

> <PUBCHEM_SHAPE_FINGERPRINT>
104564 63 18050282875499382891
10764073 3 14680841427993984890
10863032 1 18187081775807034555
10948715 1 18334855038888984135
11578080 2 16811286975075206377
11582403 64 16156478404467942029
11640471 11 18115294717691260124
12173636 292 17974004247969638148
12293681 160 17846495937116913664
12788726 201 17540547141805383956
13027679 85 17182783710158167431
13134695 92 17680984085413149254
13140716 1 17985801823099904291
13681431 1 17688606969410852460
13836976 161 18198328586048204495
14142880 1 17753603843536558788
16945 1 18049149265973113787
19765921 60 18342170077111842741
20473742 2 18114741512828248598
20510252 161 17834680779018017864
20645476 183 18339918315741970677
21330990 113 17051949368626197022
21524375 3 18412263930386949532
2255824 54 18195526991528593879
22907989 373 17834983110039758204
23419403 2 17479232665250112383
23558518 356 18263909076993378566
23559900 14 18120926210374745213
238 59 18192163606981549459
3060560 45 18264203613107379374
3286 77 16227157098965754153
394222 165 18337946797088392643
4340502 62 18335706052990031657
474 4 18337104562517961889
81228 2 17619373316760636040
9999458 23 18261950722261458591

> <PUBCHEM_SHAPE_MULTIPOLES>
423.17
5.5
3.79
1.65
3.71
2.14
0.2
-5.59
-1.59
-1.99
-0.3
-0.19
-0.51
-0.98

> <PUBCHEM_SHAPE_SELFOVERLAP>
925.713

> <PUBCHEM_SHAPE_VOLUME>
226.9

> <PUBCHEM_COORDINATE_TYPE>
2
5
10

$$$$
