11242315
  -OEChem-03292013303D

 30 31  0     1  0  0  0  0  0999 V2000
    0.8190   -1.2665   -1.8309 F   0  0  0  0  0  0  0  0  0  0  0  0
    1.0641    2.5102    1.1196 O   0  0  0  0  0  0  0  0  0  0  0  0
    3.4108    1.6012    0.2218 O   0  0  0  0  0  0  0  0  0  0  0  0
    3.7851   -2.2090    0.6382 O   0  0  0  0  0  0  0  0  0  0  0  0
   -1.9694    1.7471   -1.5435 O   0  0  0  0  0  0  0  0  0  0  0  0
   -0.9701    0.2468   -0.1026 N   0  0  0  0  0  0  0  0  0  0  0  0
   -3.3576    0.3316   -0.4385 N   0  0  0  0  0  0  0  0  0  0  0  0
   -4.7747   -1.1203    0.6981 N   0  0  0  0  0  0  0  0  0  0  0  0
    0.3670    0.7042   -0.3633 C   0  0  1  0  0  0  0  0  0  0  0  0
    1.1045    1.1069    0.9225 C   0  0  1  0  0  0  0  0  0  0  0  0
    2.5502    0.6051    0.7524 C   0  0  1  0  0  0  0  0  0  0  0  0
    2.3994   -0.4888   -0.2610 C   0  0  0  0  0  0  0  0  0  0  0  0
    1.2056   -0.4218   -0.8587 C   0  0  0  0  0  0  0  0  0  0  0  0
    3.4912   -1.4590   -0.5318 C   0  0  0  0  0  0  0  0  0  0  0  0
   -1.1547   -0.7892    0.7995 C   0  0  0  0  0  0  0  0  0  0  0  0
   -2.0986    0.8234   -0.7379 C   0  0  0  0  0  0  0  0  0  0  0  0
   -2.3569   -1.2753    1.1017 C   0  0  0  0  0  0  0  0  0  0  0  0
   -3.5148   -0.6464    0.4146 C   0  0  0  0  0  0  0  0  0  0  0  0
    0.3634    1.5205   -1.0938 H   0  0  0  0  0  0  0  0  0  0  0  0
    0.6762    0.6534    1.8230 H   0  0  0  0  0  0  0  0  0  0  0  0
    2.9483    0.2529    1.7096 H   0  0  0  0  0  0  0  0  0  0  0  0
    4.4013   -0.9365   -0.8416 H   0  0  0  0  0  0  0  0  0  0  0  0
    3.2249   -2.1604   -1.3293 H   0  0  0  0  0  0  0  0  0  0  0  0
    1.6315    2.7143    1.8825 H   0  0  0  0  0  0  0  0  0  0  0  0
    4.3124    1.2369    0.2097 H   0  0  0  0  0  0  0  0  0  0  0  0
   -0.2782   -1.2284    1.2631 H   0  0  0  0  0  0  0  0  0  0  0  0
   -2.5081   -2.0881    1.7994 H   0  0  0  0  0  0  0  0  0  0  0  0
    2.9772   -2.6865    0.8940 H   0  0  0  0  0  0  0  0  0  0  0  0
   -4.9292   -1.8779    1.3551 H   0  0  0  0  0  0  0  0  0  0  0  0
   -5.5936   -0.7209    0.2524 H   0  0  0  0  0  0  0  0  0  0  0  0
  1 13  1  0  0  0  0
  2 10  1  0  0  0  0
  2 24  1  0  0  0  0
  3 11  1  0  0  0  0
  3 25  1  0  0  0  0
  4 14  1  0  0  0  0
  4 28  1  0  0  0  0
  5 16  2  0  0  0  0
  6  9  1  0  0  0  0
  6 15  1  0  0  0  0
  6 16  1  0  0  0  0
  7 16  1  0  0  0  0
  7 18  2  0  0  0  0
  8 18  1  0  0  0  0
  8 29  1  0  0  0  0
  8 30  1  0  0  0  0
  9 10  1  0  0  0  0
  9 13  1  0  0  0  0
  9 19  1  0  0  0  0
 10 11  1  0  0  0  0
 10 20  1  0  0  0  0
 11 12  1  0  0  0  0
 11 21  1  0  0  0  0
 12 13  2  0  0  0  0
 12 14  1  0  0  0  0
 14 22  1  0  0  0  0
 14 23  1  0  0  0  0
 15 17  2  0  0  0  0
 15 26  1  0  0  0  0
 17 18  1  0  0  0  0
 17 27  1  0  0  0  0
M  END
> <PUBCHEM_COMPOUND_CID>
11242315

> <PUBCHEM_CONFORMER_RMSD>
0.6

> <PUBCHEM_CONFORMER_DIVERSEORDER>
1
9
10
13
15
11
8
16
3
14
2
7
6
5
4
12

> <PUBCHEM_MMFF94_PARTIAL_CHARGES>
25
1 -0.15
10 0.28
11 0.42
12 -0.28
13 0.01
14 0.42
15 -0.04
16 0.84
17 -0.14
18 0.49
2 -0.68
24 0.4
25 0.4
26 0.15
27 0.15
28 0.4
29 0.4
3 -0.68
30 0.4
4 -0.68
5 -0.57
6 -0.47
7 -0.66
8 -0.85
9 0.44

> <PUBCHEM_EFFECTIVE_ROTOR_COUNT>
2.6

> <PUBCHEM_PHARMACOPHORE_FEATURES>
11
1 2 acceptor
1 2 donor
1 3 acceptor
1 3 donor
1 4 acceptor
1 4 donor
1 5 acceptor
1 7 donor
1 8 donor
5 9 10 11 12 13 rings
6 6 7 15 16 17 18 rings

> <PUBCHEM_HEAVY_ATOM_COUNT>
18

> <PUBCHEM_ATOM_DEF_STEREO_COUNT>
3

> <PUBCHEM_ATOM_UDEF_STEREO_COUNT>
0

> <PUBCHEM_BOND_DEF_STEREO_COUNT>
0

> <PUBCHEM_BOND_UDEF_STEREO_COUNT>
0

> <PUBCHEM_ISOTOPIC_ATOM_COUNT>
0

> <PUBCHEM_COMPONENT_COUNT>
1

> <PUBCHEM_CACTVS_TAUTO_COUNT>
3

> <PUBCHEM_CONFORMER_ID>
00AB8B4B00000001

> <PUBCHEM_MMFF94_ENERGY>
46.9791

> <PUBCHEM_FEATURE_SELFOVERLAP>
55.885

> <PUBCHEM_SHAPE_FINGERPRINT>
10465860 250 18338509721483201250
11471102 22 18131068238319656680
11543360 7 17386303012375907382
11578080 2 15142898089689789413
12236239 1 15985110733733457601
124424 183 18267012873747980534
12507560 14 18131072623349682971
12633257 1 18201452367239460971
13134695 92 18201145598968183312
13140716 1 17915182317383225376
13296908 3 18410008823295153642
13965767 371 14042694701828860723
14252887 29 18115315608380045929
15219456 202 18410852170183388492
15309172 13 17917712456287916220
15653759 3 18334294249288268982
16752209 62 16878212126644545419
16945 1 18200864201395647672
17804303 29 18260832561896128587
1813 80 16700640925797058148
19049666 15 18336255747994097009
200 152 17775557629342002343
20510252 161 18187361030628836841
20645477 70 18272646827110785639
23402539 116 18188197827865596415
23526113 38 18266998627283885521
23557571 272 17822006540459004965
23559900 14 18113897135448764014
2748010 2 18058721404300000636
31174 14 18342457101070196897
3286 77 18343023306967329683
474 4 16054889126340756800
6049 1 18334570231007544157
7364860 26 17825118244185848917
76465 3 18411129243130370367
77492 1 15985100829655015061
81228 2 17821452361314059525
8272917 22 17417270796053154475
8809292 202 18264769857026565764

> <PUBCHEM_SHAPE_MULTIPOLES>
324.74
6.91
1.97
1.26
2.76
0.32
0.24
-2.87
-0.88
-1.18
-0.28
0.06
0.09
1.22

> <PUBCHEM_SHAPE_SELFOVERLAP>
693.112

> <PUBCHEM_SHAPE_VOLUME>
180.8

> <PUBCHEM_COORDINATE_TYPE>
2
5
10

$$$$
