11247668
  -OEChem-03292013303D

 60 62  0     1  0  0  0  0  0999 V2000
   -2.4314    0.8919   -0.4636 O   0  0  0  0  0  0  0  0  0  0  0  0
    1.7552    0.5282    1.9608 O   0  0  0  0  0  0  0  0  0  0  0  0
   -0.3897   -0.6942    2.7218 O   0  0  0  0  0  0  0  0  0  0  0  0
    1.3652    3.3377   -1.8822 O   0  0  0  0  0  0  0  0  0  0  0  0
    5.8480   -2.8750    1.1838 O   0  0  0  0  0  0  0  0  0  0  0  0
   -7.4879    0.8985    0.7462 O   0  0  0  0  0  0  0  0  0  0  0  0
   -8.3276   -1.2057   -0.8643 O   0  0  0  0  0  0  0  0  0  0  0  0
   -2.8038   -0.3815    0.0862 C   0  0  1  0  0  0  0  0  0  0  0  0
   -2.4844   -0.4486    1.5783 C   0  0  0  0  0  0  0  0  0  0  0  0
   -0.3556    0.6738    0.7977 C   0  0  0  0  0  0  0  0  0  0  0  0
   -1.1112    1.1976   -0.2555 C   0  0  0  0  0  0  0  0  0  0  0  0
   -1.0084   -0.2204    1.7761 C   0  0  0  0  0  0  0  0  0  0  0  0
    1.5698    1.9176    0.0435 C   0  0  0  0  0  0  0  0  0  0  0  0
   -4.2809   -0.5984   -0.1663 C   0  0  0  0  0  0  0  0  0  0  0  0
    0.9879    1.0268    0.9462 C   0  0  0  0  0  0  0  0  0  0  0  0
    3.0125    2.3038    0.1904 C   0  0  0  0  0  0  0  0  0  0  0  0
    6.0683    0.1399   -1.1047 C   0  0  0  0  0  0  0  0  0  0  0  0
   -0.5293    2.1038   -1.1430 C   0  0  0  0  0  0  0  0  0  0  0  0
    0.8120    2.4587   -0.9957 C   0  0  0  0  0  0  0  0  0  0  0  0
    6.5058   -1.0720   -0.2767 C   0  0  0  0  0  0  0  0  0  0  0  0
    5.2164    1.0985   -0.3028 C   0  0  0  0  0  0  0  0  0  0  0  0
    3.9289    1.3888   -0.5748 C   0  0  0  0  0  0  0  0  0  0  0  0
    5.3285   -1.8453    0.3396 C   0  0  1  0  0  0  0  0  0  0  0  0
   -5.2195    0.2566    0.4104 C   0  0  0  0  0  0  0  0  0  0  0  0
   -4.7018   -1.6541   -0.9747 C   0  0  0  0  0  0  0  0  0  0  0  0
    5.8982    1.7186    0.8892 C   0  0  0  0  0  0  0  0  0  0  0  0
    4.4008   -2.4863   -0.6704 C   0  0  0  0  0  0  0  0  0  0  0  0
   -6.5802    0.0560    0.1786 C   0  0  0  0  0  0  0  0  0  0  0  0
   -6.0624   -1.8548   -1.2066 C   0  0  0  0  0  0  0  0  0  0  0  0
   -7.0017   -0.9996   -0.6300 C   0  0  0  0  0  0  0  0  0  0  0  0
    4.9888   -3.4631   -1.6505 C   0  0  0  0  0  0  0  0  0  0  0  0
    3.0894   -2.1983   -0.6870 C   0  0  0  0  0  0  0  0  0  0  0  0
   -2.2334   -1.1552   -0.4491 H   0  0  0  0  0  0  0  0  0  0  0  0
   -3.0043    0.3225    2.1579 H   0  0  0  0  0  0  0  0  0  0  0  0
   -2.7480   -1.4331    1.9807 H   0  0  0  0  0  0  0  0  0  0  0  0
    3.2780    2.3744    1.2508 H   0  0  0  0  0  0  0  0  0  0  0  0
    3.1564    3.3232   -0.1911 H   0  0  0  0  0  0  0  0  0  0  0  0
    6.9564    0.6691   -1.4712 H   0  0  0  0  0  0  0  0  0  0  0  0
    5.5283   -0.1972   -1.9977 H   0  0  0  0  0  0  0  0  0  0  0  0
   -1.1226    2.5214   -1.9529 H   0  0  0  0  0  0  0  0  0  0  0  0
    7.1168   -1.7382   -0.8987 H   0  0  0  0  0  0  0  0  0  0  0  0
    7.1832   -0.7518    0.5263 H   0  0  0  0  0  0  0  0  0  0  0  0
    3.4995    0.9222   -1.4613 H   0  0  0  0  0  0  0  0  0  0  0  0
    4.7585   -1.1876    1.0055 H   0  0  0  0  0  0  0  0  0  0  0  0
   -4.9044    1.0899    1.0331 H   0  0  0  0  0  0  0  0  0  0  0  0
   -3.9822   -2.3287   -1.4307 H   0  0  0  0  0  0  0  0  0  0  0  0
    6.9384    1.9619    0.6449 H   0  0  0  0  0  0  0  0  0  0  0  0
    5.4392    2.6580    1.2099 H   0  0  0  0  0  0  0  0  0  0  0  0
    5.8984    1.0268    1.7371 H   0  0  0  0  0  0  0  0  0  0  0  0
   -6.3771   -2.6810   -1.8384 H   0  0  0  0  0  0  0  0  0  0  0  0
    2.6862    0.4807    1.6917 H   0  0  0  0  0  0  0  0  0  0  0  0
    0.6899    3.6027   -2.5298 H   0  0  0  0  0  0  0  0  0  0  0  0
    5.5235   -4.2610   -1.1256 H   0  0  0  0  0  0  0  0  0  0  0  0
    5.6860   -2.9610   -2.3278 H   0  0  0  0  0  0  0  0  0  0  0  0
    4.2181   -3.9380   -2.2674 H   0  0  0  0  0  0  0  0  0  0  0  0
    6.3931   -2.4484    1.8668 H   0  0  0  0  0  0  0  0  0  0  0  0
    2.6529   -1.5043    0.0218 H   0  0  0  0  0  0  0  0  0  0  0  0
    2.4191   -2.6548   -1.4077 H   0  0  0  0  0  0  0  0  0  0  0  0
   -8.3790    0.6126    0.4796 H   0  0  0  0  0  0  0  0  0  0  0  0
   -8.4302   -1.9795   -1.4445 H   0  0  0  0  0  0  0  0  0  0  0  0
  1  8  1  0  0  0  0
  1 11  1  0  0  0  0
  2 15  1  0  0  0  0
  2 51  1  0  0  0  0
  3 12  2  0  0  0  0
  4 19  1  0  0  0  0
  4 52  1  0  0  0  0
  5 23  1  0  0  0  0
  5 56  1  0  0  0  0
  6 28  1  0  0  0  0
  6 59  1  0  0  0  0
  7 30  1  0  0  0  0
  7 60  1  0  0  0  0
  8  9  1  0  0  0  0
  8 14  1  0  0  0  0
  8 33  1  0  0  0  0
  9 12  1  0  0  0  0
  9 34  1  0  0  0  0
  9 35  1  0  0  0  0
 10 11  2  0  0  0  0
 10 12  1  0  0  0  0
 10 15  1  0  0  0  0
 11 18  1  0  0  0  0
 13 15  2  0  0  0  0
 13 16  1  0  0  0  0
 13 19  1  0  0  0  0
 14 24  2  0  0  0  0
 14 25  1  0  0  0  0
 16 22  1  0  0  0  0
 16 36  1  0  0  0  0
 16 37  1  0  0  0  0
 17 20  1  0  0  0  0
 17 21  1  0  0  0  0
 17 38  1  0  0  0  0
 17 39  1  0  0  0  0
 18 19  2  0  0  0  0
 18 40  1  0  0  0  0
 20 23  1  0  0  0  0
 20 41  1  0  0  0  0
 20 42  1  0  0  0  0
 21 22  2  0  0  0  0
 21 26  1  0  0  0  0
 22 43  1  0  0  0  0
 23 27  1  0  0  0  0
 23 44  1  0  0  0  0
 24 28  1  0  0  0  0
 24 45  1  0  0  0  0
 25 29  2  0  0  0  0
 25 46  1  0  0  0  0
 26 47  1  0  0  0  0
 26 48  1  0  0  0  0
 26 49  1  0  0  0  0
 27 31  1  0  0  0  0
 27 32  2  0  0  0  0
 28 30  2  0  0  0  0
 29 30  1  0  0  0  0
 29 50  1  0  0  0  0
 31 53  1  0  0  0  0
 31 54  1  0  0  0  0
 31 55  1  0  0  0  0
 32 57  1  0  0  0  0
 32 58  1  0  0  0  0
M  END
> <PUBCHEM_COMPOUND_CID>
11247668

> <PUBCHEM_CONFORMER_RMSD>
1

> <PUBCHEM_CONFORMER_DIVERSEORDER>
1
126
125
131
202
188
246
96
129
261
209
152
203
20
230
54
64
105
170
160
223
171
227
133
122
174
84
264
22
50
243
182
71
51
269
222
236
157
30
151
102
183
17
245
138
21
233
113
124
211
201
5
56
205
176
192
216
70
247
39
146
80
148
142
258
143
83
76
229
62
40
23
49
204
237
48
78
167
107
213
46
135
270
109
123
210
168
87
256
26
150
147
92
63
94
110
95
35
177
220
235
179
217
88
75
266
199
58
215
207
112
257
82
61
33
219
159
132
53
8
101
195
172
68
163
86
10
225
193
16
250
224
166
72
181
234
98
162
97
268
65
119
45
175
77
248
66
32
241
42
240
90
85
249
121
34
191
108
116
158
161
7
164
13
212
198
47
140
200
57
81
100
239
139
228
154
31
184
117
265
190
12
24
38
106
99
79
208
189
115
114
145
214
173
2
128
231
218
232
29
120
37
259
242
43
28
52
194
187
180
153
137
93
69
59
60
3
253
73
67
252
27
254
155
206
127
15
169
103
91
185
118
260
14
196
25
251
55
74
44
149
197
36
141
89
41
18
186
267
244
134
104
226
165
156
6
136
111
4
221
19
130
11
255
9
144
238
178
263
262

> <PUBCHEM_MMFF94_PARTIAL_CHARGES>
43
1 -0.36
10 0.09
11 0.08
12 0.42
13 -0.14
14 -0.14
15 0.08
16 0.28
17 0.14
18 -0.15
19 0.08
2 -0.53
21 -0.28
22 -0.29
23 0.42
24 -0.15
25 -0.15
26 0.14
27 -0.28
28 0.08
29 -0.15
3 -0.57
30 0.08
31 0.14
32 -0.3
4 -0.53
40 0.15
43 0.15
45 0.15
46 0.15
5 -0.68
50 0.15
51 0.45
52 0.45
56 0.4
57 0.15
58 0.15
59 0.45
6 -0.53
60 0.45
7 -0.53
8 0.42
9 0.06

> <PUBCHEM_EFFECTIVE_ROTOR_COUNT>
7.6

> <PUBCHEM_PHARMACOPHORE_FEATURES>
12
1 1 acceptor
1 2 donor
1 26 hydrophobe
1 3 acceptor
1 4 donor
1 5 acceptor
1 5 donor
1 6 donor
1 7 donor
6 1 8 9 10 11 12 rings
6 10 11 13 15 18 19 rings
6 14 24 25 28 29 30 rings

> <PUBCHEM_HEAVY_ATOM_COUNT>
32

> <PUBCHEM_ATOM_DEF_STEREO_COUNT>
1

> <PUBCHEM_ATOM_UDEF_STEREO_COUNT>
1

> <PUBCHEM_BOND_DEF_STEREO_COUNT>
1

> <PUBCHEM_BOND_UDEF_STEREO_COUNT>
0

> <PUBCHEM_ISOTOPIC_ATOM_COUNT>
0

> <PUBCHEM_COMPONENT_COUNT>
1

> <PUBCHEM_CACTVS_TAUTO_COUNT>
210

> <PUBCHEM_CONFORMER_ID>
00ABA03400000001

> <PUBCHEM_MMFF94_ENERGY>
78.8265

> <PUBCHEM_FEATURE_SELFOVERLAP>
60.932

> <PUBCHEM_SHAPE_FINGERPRINT>
10 15 14620515661758442344
10580692 12 18413390913142840185
10693767 8 18261663835536531050
11297010 23 17462011169385895364
11331351 85 18408044005366947901
11719270 70 16988849388429442391
11796584 16 17560808779010257629
11828532 37 17241056516496633490
11991303 11 14707216543165001185
12202916 173 18187080664233724026
12522641 33 18263922306378594232
12596602 18 17131839789485686128
13533116 47 18202003239744534120
1361 2 18410294713968314666
13617811 41 16225765211739259351
13782708 43 16916219018270279255
14068700 675 18273495650103129696
14347332 77 18411980221979928073
14681490 219 18260264131532990501
14725015 67 18188766138112536634
15119646 104 18343303664767532615
15183329 4 18412829092485560771
15352257 5 18412543219431048103
15475509 35 17775558750254899490
15475509 8 18040720242658276405
20567600 234 10807930466261034307
20567600 247 18201716292705318071
21285901 2 18186238416498414244
21307412 95 18041573506757522466
21641784 216 16081359726977179509
21781051 124 15864368951451991089
23559900 14 18113901619067748961
23569914 152 17541060235873561415
23569943 247 18261951830500574371
24771750 20 16882754380408615884
2838139 119 11746942000779942815
335352 9 17458620185146506857
3886686 26 15835676976223465046
404807 14 17695926426923508606
4073 2 18196087978439296497
4093350 32 18337670948788670288
4098825 35 18412262818454558953
463206 1 18340487880398708366
57828716 16 17417821630114857235
5951187 136 12252198355317088890
59682541 52 18333731342347837364

> <PUBCHEM_SHAPE_MULTIPOLES>
617.46
20.16
3.29
1.64
20.79
1.02
0.61
11.63
-3.53
-5.55
-1.48
-0.28
0.01
-0.59

> <PUBCHEM_SHAPE_SELFOVERLAP>
1321.549

> <PUBCHEM_SHAPE_VOLUME>
341.6

> <PUBCHEM_COORDINATE_TYPE>
2
5
10

$$$$
