112500531
  -OEChem-03292013293D

 47 49  0     0  0  0  0  0  0999 V2000
   -5.2701   -0.7546   -0.3576 S   0  0  0  0  0  0  0  0  0  0  0  0
    1.2015   -3.9712    1.2264 S   0  0  0  0  0  0  0  0  0  0  0  0
   -0.3258    2.3977    0.2863 O   0  0  0  0  0  0  0  0  0  0  0  0
   -5.5106   -0.8496   -1.9718 O   0  0  0  0  0  0  0  0  0  0  0  0
   -5.0114   -2.1075    0.1135 O   0  0  0  0  0  0  0  0  0  0  0  0
   -6.3485    0.0364    0.2142 O   0  0  0  0  0  0  0  0  0  0  0  0
    3.5592   -2.0904    0.0447 N   0  0  0  0  0  0  0  0  0  0  0  0
    1.0449    0.2275   -0.4212 N   0  0  0  0  0  0  0  0  0  0  0  0
    4.3507   -1.1343   -0.4872 N   0  0  0  0  0  0  0  0  0  0  0  0
   -0.0901   -1.6696    0.5488 N   0  0  0  0  0  0  0  0  0  0  0  0
    2.2011   -0.4526   -0.3610 C   0  0  0  0  0  0  0  0  0  0  0  0
    3.5049   -0.1269   -0.7358 C   0  0  0  0  0  0  0  0  0  0  0  0
    2.2447   -1.7264    0.1417 C   0  0  0  0  0  0  0  0  0  0  0  0
    4.0053    1.1225   -1.3315 C   0  0  0  0  0  0  0  0  0  0  0  0
   -0.0797   -0.4487    0.0615 C   0  0  0  0  0  0  0  0  0  0  0  0
    4.7367    2.0222   -0.3140 C   0  0  0  0  0  0  0  0  0  0  0  0
   -1.3960    0.2666    0.0232 C   0  0  0  0  0  0  0  0  0  0  0  0
    1.0790   -2.4130    0.6292 C   0  0  0  0  0  0  0  0  0  0  0  0
   -1.4592    1.6556    0.1361 C   0  0  0  0  0  0  0  0  0  0  0  0
    4.1911   -3.3324    0.4268 C   0  0  0  0  0  0  0  0  0  0  0  0
   -2.5678   -0.4747   -0.1282 C   0  0  0  0  0  0  0  0  0  0  0  0
    5.2849    3.2928   -0.9441 C   0  0  0  0  0  0  0  0  0  0  0  0
   -3.8027    0.1727   -0.1669 C   0  0  0  0  0  0  0  0  0  0  0  0
   -2.6941    2.3029    0.0976 C   0  0  0  0  0  0  0  0  0  0  0  0
   -3.8659    1.5616   -0.0542 C   0  0  0  0  0  0  0  0  0  0  0  0
   -0.2208    3.1863    1.4697 C   0  0  0  0  0  0  0  0  0  0  0  0
    1.2385    3.3072    1.8538 C   0  0  0  0  0  0  0  0  0  0  0  0
    4.6879    0.8850   -2.1578 H   0  0  0  0  0  0  0  0  0  0  0  0
    3.1767    1.6874   -1.7764 H   0  0  0  0  0  0  0  0  0  0  0  0
    0.9729    1.1669   -0.7991 H   0  0  0  0  0  0  0  0  0  0  0  0
    4.0510    2.2899    0.4991 H   0  0  0  0  0  0  0  0  0  0  0  0
    5.5653    1.4679    0.1438 H   0  0  0  0  0  0  0  0  0  0  0  0
    3.7711   -4.1469   -0.1666 H   0  0  0  0  0  0  0  0  0  0  0  0
    4.0738   -3.4795    1.5023 H   0  0  0  0  0  0  0  0  0  0  0  0
    5.2622   -3.2697    0.2077 H   0  0  0  0  0  0  0  0  0  0  0  0
   -2.5220   -1.5553   -0.2349 H   0  0  0  0  0  0  0  0  0  0  0  0
    6.0038    3.0580   -1.7354 H   0  0  0  0  0  0  0  0  0  0  0  0
    4.4784    3.8920   -1.3786 H   0  0  0  0  0  0  0  0  0  0  0  0
    5.7938    3.9017   -0.1905 H   0  0  0  0  0  0  0  0  0  0  0  0
   -2.7585    3.3849    0.1742 H   0  0  0  0  0  0  0  0  0  0  0  0
   -4.8150    2.0887   -0.0914 H   0  0  0  0  0  0  0  0  0  0  0  0
   -0.6373    4.1800    1.2721 H   0  0  0  0  0  0  0  0  0  0  0  0
   -0.7744    2.7290    2.2993 H   0  0  0  0  0  0  0  0  0  0  0  0
    1.6704    2.3187    2.0423 H   0  0  0  0  0  0  0  0  0  0  0  0
    1.8157    3.7559    1.0386 H   0  0  0  0  0  0  0  0  0  0  0  0
    1.3578    3.9211    2.7507 H   0  0  0  0  0  0  0  0  0  0  0  0
   -6.3111   -1.3543   -2.2486 H   0  0  0  0  0  0  0  0  0  0  0  0
  1  4  1  0  0  0  0
  1  5  2  0  0  0  0
  1  6  2  0  0  0  0
  1 23  1  0  0  0  0
  2 18  2  0  0  0  0
  3 19  1  0  0  0  0
  3 26  1  0  0  0  0
  4 47  1  0  0  0  0
  7  9  1  0  0  0  0
  7 13  1  0  0  0  0
  7 20  1  0  0  0  0
  8 11  1  0  0  0  0
  8 15  1  0  0  0  0
  8 30  1  0  0  0  0
  9 12  2  0  0  0  0
 10 15  2  0  0  0  0
 10 18  1  0  0  0  0
 11 12  1  0  0  0  0
 11 13  2  0  0  0  0
 12 14  1  0  0  0  0
 13 18  1  0  0  0  0
 14 16  1  0  0  0  0
 14 28  1  0  0  0  0
 14 29  1  0  0  0  0
 15 17  1  0  0  0  0
 16 22  1  0  0  0  0
 16 31  1  0  0  0  0
 16 32  1  0  0  0  0
 17 19  2  0  0  0  0
 17 21  1  0  0  0  0
 19 24  1  0  0  0  0
 20 33  1  0  0  0  0
 20 34  1  0  0  0  0
 20 35  1  0  0  0  0
 21 23  2  0  0  0  0
 21 36  1  0  0  0  0
 22 37  1  0  0  0  0
 22 38  1  0  0  0  0
 22 39  1  0  0  0  0
 23 25  1  0  0  0  0
 24 25  2  0  0  0  0
 24 40  1  0  0  0  0
 25 41  1  0  0  0  0
 26 27  1  0  0  0  0
 26 42  1  0  0  0  0
 26 43  1  0  0  0  0
 27 44  1  0  0  0  0
 27 45  1  0  0  0  0
 27 46  1  0  0  0  0
M  END
> <PUBCHEM_COMPOUND_CID>
112500531

> <PUBCHEM_CONFORMER_RMSD>
0.8

> <PUBCHEM_CONFORMER_DIVERSEORDER>
1
46
34
29
18
39
41
51
52
23
35
36
47
48
25
3
21
8
17
33
10
16
31
30
15
42
19
49
50
44
7
37
13
20
24
2
38
12
22
40
43
28
32
26
45
14
5
4
11
27
9
6

> <PUBCHEM_MMFF94_PARTIAL_CHARGES>
29
1 1.49
10 -0.66
11 0.08
12 0.11
13 -0.24
14 0.18
15 0.41
17 0.09
18 0.68
19 0.08
2 -0.38
20 0.26
21 -0.15
23 -0.01
24 -0.15
25 -0.15
26 0.28
3 -0.36
30 0.4
36 0.15
4 -0.68
40 0.15
41 0.15
47 0.5
5 -0.65
6 -0.65
7 0.31
8 -0.53
9 -0.71

> <PUBCHEM_EFFECTIVE_ROTOR_COUNT>
6

> <PUBCHEM_PHARMACOPHORE_FEATURES>
13
1 2 acceptor
1 22 hydrophobe
1 3 acceptor
1 4 acceptor
1 5 acceptor
1 6 acceptor
1 8 donor
1 9 acceptor
3 8 10 15 cation
4 1 4 5 6 anion
5 7 9 11 12 13 rings
6 17 19 21 23 24 25 rings
6 8 10 11 13 15 18 rings

> <PUBCHEM_HEAVY_ATOM_COUNT>
27

> <PUBCHEM_ATOM_DEF_STEREO_COUNT>
0

> <PUBCHEM_ATOM_UDEF_STEREO_COUNT>
0

> <PUBCHEM_BOND_DEF_STEREO_COUNT>
0

> <PUBCHEM_BOND_UDEF_STEREO_COUNT>
0

> <PUBCHEM_ISOTOPIC_ATOM_COUNT>
0

> <PUBCHEM_COMPONENT_COUNT>
1

> <PUBCHEM_CACTVS_TAUTO_COUNT>
8

> <PUBCHEM_CONFORMER_ID>
06B49F3300000001

> <PUBCHEM_MMFF94_ENERGY>
67.9017

> <PUBCHEM_FEATURE_SELFOVERLAP>
66.133

> <PUBCHEM_SHAPE_FINGERPRINT>
10090160 65 18260548943561730950
11135609 187 18337957912274824561
12107183 9 17255399323990992723
12166972 35 18260552191079506180
12403260 363 18337672997613884858
12553582 1 18341880867474239751
12788726 201 17910389490399669393
13009979 54 17907289962520605106
13617811 41 18190174766873871941
14767858 380 18339360893527400397
14787075 74 18412548746742714933
14790565 3 18339933597831786673
14931854 50 18341624745515755556
14932702 115 17619937362179657436
15196674 1 18337393747061111309
15927050 60 17840021085123494717
17349148 13 17968662588174172010
17492 89 18197500614901160174
18681886 176 18266172847524437866
19319366 153 18336822078271806094
200 152 18335983052331459399
20028762 73 18339637824640669310
20642791 35 17916586577888188888
21267235 1 18265060145661536455
21521721 280 18337121167130404569
21709351 56 18191020101840672318
23352939 185 18060426836839026009
23522609 53 18058472979328936737
23559900 14 18192703445531490618
23598288 3 17984974895702830837
314194 84 18413388748457990159
463206 1 18411135823336986755
474 4 17895205423782929908
484989 97 18191600850481290322
5104073 3 18262243222424252865
5171179 24 17337314533634915138
5312544 6 18334298643419906838
59755656 215 18269267044695368973
6669772 16 17983564492778007000
67856867 119 18335136454221455794
9709674 26 18191877721000319763
9981440 41 18263365966331960056

> <PUBCHEM_SHAPE_MULTIPOLES>
519.95
11.84
4.64
1.19
8.95
0.4
0.12
-0.07
-4.55
-5.26
2.09
-0.11
-0.51
-1.55

> <PUBCHEM_SHAPE_SELFOVERLAP>
1091.502

> <PUBCHEM_SHAPE_VOLUME>
297.2

> <PUBCHEM_COORDINATE_TYPE>
2
5
10

$$$$
