11269635
  -OEChem-03292013303D

 51 53  0     1  0  0  0  0  0999 V2000
    1.6435    0.2836    0.1808 O   0  0  0  0  0  0  0  0  0  0  0  0
    0.1945   -1.8974   -0.5920 O   0  0  0  0  0  0  0  0  0  0  0  0
   -4.4613    0.9338   -0.7766 O   0  0  0  0  0  0  0  0  0  0  0  0
   -0.2883    1.8434   -0.8777 O   0  0  0  0  0  0  0  0  0  0  0  0
    2.5031   -1.0051    1.8836 O   0  0  0  0  0  0  0  0  0  0  0  0
    3.6461   -2.0748   -1.1159 O   0  0  0  0  0  0  0  0  0  0  0  0
    7.6013    0.5356   -1.5961 O   0  0  0  0  0  0  0  0  0  0  0  0
   -9.2555    0.9111   -0.0582 O   0  0  0  0  0  0  0  0  0  0  0  0
    0.3305    0.1320    0.7094 C   0  0  2  0  0  0  0  0  0  0  0  0
   -0.0196   -1.3601    0.7190 C   0  0  1  0  0  0  0  0  0  0  0  0
   -1.4742   -1.6131    1.1266 C   0  0  0  0  0  0  0  0  0  0  0  0
   -2.4338   -0.6629    0.4569 C   0  0  0  0  0  0  0  0  0  0  0  0
   -0.6472    0.8920   -0.1853 C   0  0  0  0  0  0  0  0  0  0  0  0
   -2.0812    0.4707   -0.1686 C   0  0  0  0  0  0  0  0  0  0  0  0
    0.3131    0.7457    2.1123 C   0  0  0  0  0  0  0  0  0  0  0  0
   -3.0872    1.3483   -0.8591 C   0  0  0  0  0  0  0  0  0  0  0  0
   -3.8340   -1.0178    0.4742 C   0  0  0  0  0  0  0  0  0  0  0  0
   -4.7523   -0.2384   -0.1172 C   0  0  0  0  0  0  0  0  0  0  0  0
    2.6388   -0.3392    0.8690 C   0  0  0  0  0  0  0  0  0  0  0  0
    3.9529   -0.1037    0.2190 C   0  0  0  0  0  0  0  0  0  0  0  0
   -6.1529   -0.5621   -0.1138 C   0  0  0  0  0  0  0  0  0  0  0  0
    4.7057    0.9931    0.5932 C   0  0  0  0  0  0  0  0  0  0  0  0
    4.3877   -0.9925   -0.7460 C   0  0  0  0  0  0  0  0  0  0  0  0
   -7.0868    0.1999   -0.6968 C   0  0  0  0  0  0  0  0  0  0  0  0
    5.9395    1.2093   -0.0206 C   0  0  0  0  0  0  0  0  0  0  0  0
    5.6214   -0.7762   -1.3597 C   0  0  0  0  0  0  0  0  0  0  0  0
    4.2413    1.9580    1.6353 C   0  0  0  0  0  0  0  0  0  0  0  0
    6.3974    0.3246   -0.9970 C   0  0  0  0  0  0  0  0  0  0  0  0
   -8.5425   -0.1377   -0.6987 C   0  0  0  0  0  0  0  0  0  0  0  0
    0.5972   -1.9654    1.3843 H   0  0  0  0  0  0  0  0  0  0  0  0
   -1.5804   -1.5093    2.2135 H   0  0  0  0  0  0  0  0  0  0  0  0
   -1.7393   -2.6449    0.8620 H   0  0  0  0  0  0  0  0  0  0  0  0
   -0.7070    0.9872    2.4327 H   0  0  0  0  0  0  0  0  0  0  0  0
    0.7244    0.0882    2.8832 H   0  0  0  0  0  0  0  0  0  0  0  0
    0.8869    1.6796    2.1394 H   0  0  0  0  0  0  0  0  0  0  0  0
   -3.0386    2.3602   -0.4413 H   0  0  0  0  0  0  0  0  0  0  0  0
   -2.8417    1.4186   -1.9249 H   0  0  0  0  0  0  0  0  0  0  0  0
   -4.1183   -1.9338    0.9844 H   0  0  0  0  0  0  0  0  0  0  0  0
   -0.4207   -1.4724   -1.2119 H   0  0  0  0  0  0  0  0  0  0  0  0
   -6.4532   -1.4761    0.3930 H   0  0  0  0  0  0  0  0  0  0  0  0
   -6.8226    1.1177   -1.2163 H   0  0  0  0  0  0  0  0  0  0  0  0
    6.5526    2.0645    0.2536 H   0  0  0  0  0  0  0  0  0  0  0  0
    5.9797   -1.4650   -2.1211 H   0  0  0  0  0  0  0  0  0  0  0  0
    4.9921    2.7287    1.8413 H   0  0  0  0  0  0  0  0  0  0  0  0
    3.3311    2.4686    1.3042 H   0  0  0  0  0  0  0  0  0  0  0  0
    4.0436    1.4406    2.5798 H   0  0  0  0  0  0  0  0  0  0  0  0
   -8.7542   -1.0683   -0.1634 H   0  0  0  0  0  0  0  0  0  0  0  0
   -8.9119   -0.2409   -1.7237 H   0  0  0  0  0  0  0  0  0  0  0  0
    4.1245   -2.5694   -1.8033 H   0  0  0  0  0  0  0  0  0  0  0  0
    7.7593   -0.1715   -2.2449 H   0  0  0  0  0  0  0  0  0  0  0  0
   -9.1324    1.7195   -0.5850 H   0  0  0  0  0  0  0  0  0  0  0  0
  1  9  1  0  0  0  0
  1 19  1  0  0  0  0
  2 10  1  0  0  0  0
  2 39  1  0  0  0  0
  3 16  1  0  0  0  0
  3 18  1  0  0  0  0
  4 13  2  0  0  0  0
  5 19  2  0  0  0  0
  6 23  1  0  0  0  0
  6 49  1  0  0  0  0
  7 28  1  0  0  0  0
  7 50  1  0  0  0  0
  8 29  1  0  0  0  0
  8 51  1  0  0  0  0
  9 10  1  0  0  0  0
  9 13  1  0  0  0  0
  9 15  1  0  0  0  0
 10 11  1  0  0  0  0
 10 30  1  0  0  0  0
 11 12  1  0  0  0  0
 11 31  1  0  0  0  0
 11 32  1  0  0  0  0
 12 14  2  0  0  0  0
 12 17  1  0  0  0  0
 13 14  1  0  0  0  0
 14 16  1  0  0  0  0
 15 33  1  0  0  0  0
 15 34  1  0  0  0  0
 15 35  1  0  0  0  0
 16 36  1  0  0  0  0
 16 37  1  0  0  0  0
 17 18  2  0  0  0  0
 17 38  1  0  0  0  0
 18 21  1  0  0  0  0
 19 20  1  0  0  0  0
 20 22  1  0  0  0  0
 20 23  2  0  0  0  0
 21 24  2  0  0  0  0
 21 40  1  0  0  0  0
 22 25  2  0  0  0  0
 22 27  1  0  0  0  0
 23 26  1  0  0  0  0
 24 29  1  0  0  0  0
 24 41  1  0  0  0  0
 25 28  1  0  0  0  0
 25 42  1  0  0  0  0
 26 28  2  0  0  0  0
 26 43  1  0  0  0  0
 27 44  1  0  0  0  0
 27 45  1  0  0  0  0
 27 46  1  0  0  0  0
 29 47  1  0  0  0  0
 29 48  1  0  0  0  0
M  END
> <PUBCHEM_COMPOUND_CID>
11269635

> <PUBCHEM_CONFORMER_RMSD>
0.8

> <PUBCHEM_CONFORMER_DIVERSEORDER>
1
16
17
41
25
29
42
23
28
31
18
19
35
33
32
27
37
40
12
22
39
5
34
11
38
24
2
13
30
10
4
36
15
21
20
14
26
9
6
7
8
3

> <PUBCHEM_MMFF94_PARTIAL_CHARGES>
37
1 -0.43
10 0.28
11 0.14
12 -0.14
13 0.49
14 -0.12
16 0.42
17 -0.15
18 0.08
19 0.63
2 -0.68
20 0.09
21 -0.15
22 -0.14
23 0.08
24 -0.29
25 -0.15
26 -0.15
27 0.14
28 0.08
29 0.42
3 -0.36
38 0.15
39 0.4
4 -0.57
40 0.15
41 0.15
42 0.15
43 0.15
49 0.45
5 -0.57
50 0.45
51 0.4
6 -0.53
7 -0.53
8 -0.68
9 0.34

> <PUBCHEM_EFFECTIVE_ROTOR_COUNT>
6

> <PUBCHEM_PHARMACOPHORE_FEATURES>
12
1 2 acceptor
1 2 donor
1 3 acceptor
1 4 acceptor
1 5 acceptor
1 6 donor
1 7 donor
1 8 acceptor
1 8 donor
6 20 22 23 25 26 28 rings
6 3 12 14 16 17 18 rings
6 9 10 11 12 13 14 rings

> <PUBCHEM_HEAVY_ATOM_COUNT>
29

> <PUBCHEM_ATOM_DEF_STEREO_COUNT>
2

> <PUBCHEM_ATOM_UDEF_STEREO_COUNT>
0

> <PUBCHEM_BOND_DEF_STEREO_COUNT>
1

> <PUBCHEM_BOND_UDEF_STEREO_COUNT>
0

> <PUBCHEM_ISOTOPIC_ATOM_COUNT>
0

> <PUBCHEM_COMPONENT_COUNT>
1

> <PUBCHEM_CACTVS_TAUTO_COUNT>
75

> <PUBCHEM_CONFORMER_ID>
00ABF60300000001

> <PUBCHEM_MMFF94_ENERGY>
81.6378

> <PUBCHEM_FEATURE_SELFOVERLAP>
60.918

> <PUBCHEM_SHAPE_FINGERPRINT>
10 15 15936127469953272505
10299344 5 16917351437489123181
106641 1 13190343478682303697
10906281 52 17895484635506885339
11135926 11 11384115220837542653
12011746 2 18410292523334085507
12166972 35 15123786314731487123
12236239 1 16225763038865576442
12730499 353 18343303678412018242
13533116 47 17346878944466284362
13617811 41 17894348878244358589
13668630 136 16415484856611817750
14123256 10 17749108889809801461
15048467 5 16298104297907529139
15131766 46 14274321270606224894
15183329 4 17775288253193504843
15198563 99 18129954381280780960
15849732 13 18341612646644824615
1813 80 15626232325151521760
200 152 17203334390673150322
20505436 4 15864353593118257106
21150785 3 18333450945845702951
21267235 1 18261114119579738515
21521721 280 18272932751984643355
22122407 14 14418144984393173100
221357 26 18131633378959925152
23559900 14 18059292175557303344
23576562 1 18190457358857571127
3004659 81 16845574214806076234
335352 9 18114177558907534607
3472631 163 17458354074032179342
34797466 226 18408885148234488516
3633792 109 17917997182670849873
4098825 35 17775006739873350817
4325135 7 17530964687267907772
4340502 62 14345790535338056513
465052 167 15195567931123891620
5486654 2 17967249806385339107
5758199 1 18113617864312398881
6081469 158 18334580114497172766

> <PUBCHEM_SHAPE_MULTIPOLES>
549.85
20.93
1.64
1.44
25.37
0.1
0.35
-3.2
-8.97
-1.14
0.08
-1.5
-0.08
1.35

> <PUBCHEM_SHAPE_SELFOVERLAP>
1192.404

> <PUBCHEM_SHAPE_VOLUME>
297.2

> <PUBCHEM_COORDINATE_TYPE>
2
5
10

$$$$
