11269868
  -OEChem-03292013303D

 63 66  0     1  0  0  0  0  0999 V2000
    2.4846   -1.5283   -0.3345 O   0  0  0  0  0  0  0  0  0  0  0  0
   -2.2848    0.3320    1.5450 O   0  0  0  0  0  0  0  0  0  0  0  0
    4.2691   -0.3822    1.3359 O   0  0  0  0  0  0  0  0  0  0  0  0
   -1.4547   -2.6025    1.3184 O   0  0  0  0  0  0  0  0  0  0  0  0
   -3.3435    2.2773   -0.0771 O   0  0  0  0  0  0  0  0  0  0  0  0
   -5.4231    0.6737    0.0256 O   0  0  0  0  0  0  0  0  0  0  0  0
    3.7862   -1.2805   -2.2301 O   0  0  0  0  0  0  0  0  0  0  0  0
    1.0570    0.2043    0.6779 C   0  0  1  0  0  0  0  0  0  0  0  0
    0.2681    1.5020    0.2238 C   0  0  1  0  0  0  0  0  0  0  0  0
    1.9699   -0.2136   -0.4977 C   0  0  1  0  0  0  0  0  0  0  0  0
    3.0916    0.8441   -0.3892 C   0  0  2  0  0  0  0  0  0  0  0  0
    2.1124    0.5627    1.8106 C   0  0  0  0  0  0  0  0  0  0  0  0
   -2.1747   -0.4805    0.3690 C   0  0  1  0  0  0  0  0  0  0  0  0
    3.4628    0.7840    1.1069 C   0  0  1  0  0  0  0  0  0  0  0  0
    0.1986   -0.9235    1.2861 C   0  0  0  0  0  0  0  0  0  0  0  0
   -1.9282    0.4323   -0.8552 C   0  0  2  0  0  0  0  0  0  0  0  0
   -1.0152   -1.4800    0.5423 C   0  0  1  0  0  0  0  0  0  0  0  0
   -3.6158   -1.0610    0.0537 C   0  0  0  0  0  0  0  0  0  0  0  0
    1.2931    2.6539   -0.0284 C   0  0  0  0  0  0  0  0  0  0  0  0
    2.5428    2.2153   -0.8163 C   0  0  0  0  0  0  0  0  0  0  0  0
   -0.6951    1.3130   -0.9678 C   0  0  0  0  0  0  0  0  0  0  0  0
   -3.2657    1.1887   -0.9915 C   0  0  1  0  0  0  0  0  0  0  0  0
   -4.3337    0.1211   -0.6960 C   0  0  2  0  0  0  0  0  0  0  0  0
    4.2571    1.9603    1.6640 C   0  0  0  0  0  0  0  0  0  0  0  0
   -4.4085   -1.4985    1.3020 C   0  0  0  0  0  0  0  0  0  0  0  0
   -3.5689   -2.2742   -0.9095 C   0  0  0  0  0  0  0  0  0  0  0  0
   -0.5340    1.9061   -2.1706 C   0  0  0  0  0  0  0  0  0  0  0  0
    3.3863   -1.9319   -1.2758 C   0  0  0  0  0  0  0  0  0  0  0  0
    3.8662   -3.3143   -1.0217 C   0  0  0  0  0  0  0  0  0  0  0  0
   -0.3474    1.8425    1.0668 H   0  0  0  0  0  0  0  0  0  0  0  0
    1.4519   -0.1782   -1.4620 H   0  0  0  0  0  0  0  0  0  0  0  0
    3.9771    0.6190   -0.9873 H   0  0  0  0  0  0  0  0  0  0  0  0
    1.7799    1.4371    2.3807 H   0  0  0  0  0  0  0  0  0  0  0  0
    2.2056   -0.2536    2.5387 H   0  0  0  0  0  0  0  0  0  0  0  0
   -0.1308   -0.5994    2.2844 H   0  0  0  0  0  0  0  0  0  0  0  0
    0.8514   -1.7798    1.5132 H   0  0  0  0  0  0  0  0  0  0  0  0
   -1.8571   -0.2418   -1.7237 H   0  0  0  0  0  0  0  0  0  0  0  0
   -0.7044   -1.8862   -0.4264 H   0  0  0  0  0  0  0  0  0  0  0  0
    1.6080    3.0560    0.9409 H   0  0  0  0  0  0  0  0  0  0  0  0
    0.8239    3.5173   -0.5154 H   0  0  0  0  0  0  0  0  0  0  0  0
    2.3163    2.1694   -1.8866 H   0  0  0  0  0  0  0  0  0  0  0  0
    3.3169    2.9853   -0.7176 H   0  0  0  0  0  0  0  0  0  0  0  0
   -3.4096    1.5994   -1.9962 H   0  0  0  0  0  0  0  0  0  0  0  0
   -4.7366   -0.2444   -1.6486 H   0  0  0  0  0  0  0  0  0  0  0  0
    4.5295    1.7833    2.7111 H   0  0  0  0  0  0  0  0  0  0  0  0
    5.1982    2.0790    1.1149 H   0  0  0  0  0  0  0  0  0  0  0  0
    3.7147    2.9072    1.6222 H   0  0  0  0  0  0  0  0  0  0  0  0
   -4.5396   -0.6818    2.0193 H   0  0  0  0  0  0  0  0  0  0  0  0
   -5.4104   -1.8463    1.0232 H   0  0  0  0  0  0  0  0  0  0  0  0
   -3.9187   -2.3237    1.8263 H   0  0  0  0  0  0  0  0  0  0  0  0
   -3.0142   -2.0598   -1.8276 H   0  0  0  0  0  0  0  0  0  0  0  0
   -3.1130   -3.1519   -0.4425 H   0  0  0  0  0  0  0  0  0  0  0  0
   -4.5826   -2.5683   -1.2076 H   0  0  0  0  0  0  0  0  0  0  0  0
   -2.3660   -0.2561    2.3143 H   0  0  0  0  0  0  0  0  0  0  0  0
    4.4304   -0.4570    2.2920 H   0  0  0  0  0  0  0  0  0  0  0  0
   -1.2370    1.7331   -2.9808 H   0  0  0  0  0  0  0  0  0  0  0  0
    0.2765    2.5765   -2.4164 H   0  0  0  0  0  0  0  0  0  0  0  0
   -1.6703   -2.2862    2.2120 H   0  0  0  0  0  0  0  0  0  0  0  0
   -3.3404    1.9158    0.8249 H   0  0  0  0  0  0  0  0  0  0  0  0
   -5.7548    1.4332   -0.4829 H   0  0  0  0  0  0  0  0  0  0  0  0
    3.0236   -4.0098   -1.0506 H   0  0  0  0  0  0  0  0  0  0  0  0
    4.3658   -3.3596   -0.0507 H   0  0  0  0  0  0  0  0  0  0  0  0
    4.5833   -3.6058   -1.7947 H   0  0  0  0  0  0  0  0  0  0  0  0
  1 10  1  0  0  0  0
  1 28  1  0  0  0  0
  2 13  1  0  0  0  0
  2 54  1  0  0  0  0
  3 14  1  0  0  0  0
  3 55  1  0  0  0  0
  4 17  1  0  0  0  0
  4 58  1  0  0  0  0
  5 22  1  0  0  0  0
  5 59  1  0  0  0  0
  6 23  1  0  0  0  0
  6 60  1  0  0  0  0
  7 28  2  0  0  0  0
  8  9  1  0  0  0  0
  8 10  1  0  0  0  0
  8 12  1  0  0  0  0
  8 15  1  0  0  0  0
  9 19  1  0  0  0  0
  9 21  1  0  0  0  0
  9 30  1  0  0  0  0
 10 11  1  0  0  0  0
 10 31  1  0  0  0  0
 11 14  1  0  0  0  0
 11 20  1  0  0  0  0
 11 32  1  0  0  0  0
 12 14  1  0  0  0  0
 12 33  1  0  0  0  0
 12 34  1  0  0  0  0
 13 16  1  0  0  0  0
 13 17  1  0  0  0  0
 13 18  1  0  0  0  0
 14 24  1  0  0  0  0
 15 17  1  0  0  0  0
 15 35  1  0  0  0  0
 15 36  1  0  0  0  0
 16 21  1  0  0  0  0
 16 22  1  0  0  0  0
 16 37  1  0  0  0  0
 17 38  1  0  0  0  0
 18 23  1  0  0  0  0
 18 25  1  0  0  0  0
 18 26  1  0  0  0  0
 19 20  1  0  0  0  0
 19 39  1  0  0  0  0
 19 40  1  0  0  0  0
 20 41  1  0  0  0  0
 20 42  1  0  0  0  0
 21 27  2  0  0  0  0
 22 23  1  0  0  0  0
 22 43  1  0  0  0  0
 23 44  1  0  0  0  0
 24 45  1  0  0  0  0
 24 46  1  0  0  0  0
 24 47  1  0  0  0  0
 25 48  1  0  0  0  0
 25 49  1  0  0  0  0
 25 50  1  0  0  0  0
 26 51  1  0  0  0  0
 26 52  1  0  0  0  0
 26 53  1  0  0  0  0
 27 56  1  0  0  0  0
 27 57  1  0  0  0  0
 28 29  1  0  0  0  0
 29 61  1  0  0  0  0
 29 62  1  0  0  0  0
 29 63  1  0  0  0  0
M  END
> <PUBCHEM_COMPOUND_CID>
11269868

> <PUBCHEM_CONFORMER_RMSD>
0.8

> <PUBCHEM_CONFORMER_DIVERSEORDER>
1
2

> <PUBCHEM_MMFF94_PARTIAL_CHARGES>
26
1 -0.43
10 0.28
13 0.28
14 0.28
16 0.14
17 0.28
2 -0.68
21 -0.28
22 0.28
23 0.28
27 -0.3
28 0.66
29 0.06
3 -0.68
4 -0.68
5 -0.68
54 0.4
55 0.4
56 0.15
57 0.15
58 0.4
59 0.4
6 -0.68
60 0.4
7 -0.57
9 0.14

> <PUBCHEM_EFFECTIVE_ROTOR_COUNT>
4

> <PUBCHEM_PHARMACOPHORE_FEATURES>
15
1 2 acceptor
1 2 donor
1 3 acceptor
1 3 donor
1 4 acceptor
1 4 donor
1 5 acceptor
1 5 donor
1 6 acceptor
1 6 donor
1 7 acceptor
3 18 25 26 hydrophobe
5 13 16 18 22 23 rings
7 8 9 13 15 16 17 21 rings
8 8 9 10 11 12 14 19 20 rings

> <PUBCHEM_HEAVY_ATOM_COUNT>
29

> <PUBCHEM_ATOM_DEF_STEREO_COUNT>
10

> <PUBCHEM_ATOM_UDEF_STEREO_COUNT>
0

> <PUBCHEM_BOND_DEF_STEREO_COUNT>
0

> <PUBCHEM_BOND_UDEF_STEREO_COUNT>
0

> <PUBCHEM_ISOTOPIC_ATOM_COUNT>
0

> <PUBCHEM_COMPONENT_COUNT>
1

> <PUBCHEM_CACTVS_TAUTO_COUNT>
1

> <PUBCHEM_CONFORMER_ID>
00ABF6EC00000001

> <PUBCHEM_MMFF94_ENERGY>
146.0484

> <PUBCHEM_FEATURE_SELFOVERLAP>
76.178

> <PUBCHEM_SHAPE_FINGERPRINT>
10369192 42 18198334251538238556
10498660 4 17603865589882035525
10863032 1 17988925565340068437
10906281 52 18261118529788737960
1100329 8 16821349486474965409
11370993 70 18059848523544837294
11552529 35 16915372432708425079
12236239 1 16008744697765606464
12422481 6 18199442456079075498
12596599 1 18410859845506088065
12633257 1 18188761855164991984
12788726 201 18260832566107460101
13134695 92 17704065170926760312
13140716 1 17823973635564787289
13224815 77 17385720331057800193
13533116 47 17918274234100367991
13544592 145 18339081480050569247
13583140 156 17131260393828149097
14022347 108 17822015276390485496
14115302 16 15864065481594218688
14866123 147 17406562398411294945
14955137 171 17824571633031767581
15163728 17 15432880031552680060
15196674 1 17895749720529977417
15219462 58 17487084338023983426
15238133 3 16805598114908297349
15484559 13 15160695077192851570
15664445 248 17677064545793909868
15788980 27 16660912331731712113
15848702 151 18341892987338822447
16752209 62 17603863347655846988
16945 1 18338242677179945168
17349148 13 18339633551004615912
17492 89 18341614866837851255
17980427 23 17825932987309245532
1813 80 17821449066873573573
18186145 218 18335701594318086689
20600515 1 17822288032567806700
20691752 17 17822009783185271195
21033650 10 17314236553246080908
22182313 1 18335696131082730615
23402539 116 18115852152558032955
23557571 272 18261114105745076082
23559900 14 18410860957965895444
4340502 62 17131263683388177494
460360 51 18187089425017136521
5104073 3 17968934322655861097
5281201 14 18411987961558104511
6823239 73 18336555970956546974
9709674 26 18337392746233673375

> <PUBCHEM_SHAPE_MULTIPOLES>
555.72
9.14
3
1.77
3.58
1.04
-0.1
1.86
0.37
-1.64
-0.84
-1.03
0.08
2.06

> <PUBCHEM_SHAPE_SELFOVERLAP>
1193.691

> <PUBCHEM_SHAPE_VOLUME>
303.6

> <PUBCHEM_COORDINATE_TYPE>
2
5
10

$$$$
