11270720
  -OEChem-03292013303D

 56 58  0     1  0  0  0  0  0999 V2000
   -2.6694    0.8051   -0.3116 O   0  0  0  0  0  0  0  0  0  0  0  0
   -3.4134    3.1087    0.9506 O   0  0  0  0  0  0  0  0  0  0  0  0
    2.5717    1.4423    1.0489 O   0  0  0  0  0  0  0  0  0  0  0  0
   -1.1849    2.9079    2.4602 O   0  0  0  0  0  0  0  0  0  0  0  0
   -2.6034   -0.1535   -2.4035 O   0  0  0  0  0  0  0  0  0  0  0  0
   -5.5400   -0.8235   -0.8651 O   0  0  0  0  0  0  0  0  0  0  0  0
    6.5009   -1.2913    0.3033 O   0  0  0  0  0  0  0  0  0  0  0  0
   -4.5019   -4.8771    1.4114 O   0  0  0  0  0  0  0  0  0  0  0  0
    8.4626   -1.5627   -0.8863 O   0  0  0  0  0  0  0  0  0  0  0  0
   -2.1673    3.0962    0.2625 C   0  0  2  0  0  0  0  0  0  0  0  0
   -2.2446    2.0578   -0.8623 C   0  0  1  0  0  0  0  0  0  0  0  0
   -0.8973    1.8594   -1.5634 C   0  0  0  0  0  0  0  0  0  0  0  0
    0.2506    1.7684   -0.5905 C   0  0  0  0  0  0  0  0  0  0  0  0
    0.1929    2.1271    0.7012 C   0  0  0  0  0  0  0  0  0  0  0  0
   -1.0669    2.7143    1.2510 C   0  0  0  0  0  0  0  0  0  0  0  0
   -1.9051    4.5101   -0.2640 C   0  0  0  0  0  0  0  0  0  0  0  0
    1.3639    1.9635    1.6289 C   0  0  0  0  0  0  0  0  0  0  0  0
    1.4964    1.2324   -1.0880 C   0  0  0  0  0  0  0  0  0  0  0  0
    2.5616    1.0973   -0.2831 C   0  0  0  0  0  0  0  0  0  0  0  0
   -2.8062   -0.2111   -1.2005 C   0  0  0  0  0  0  0  0  0  0  0  0
    3.8157    0.5713   -0.7489 C   0  0  0  0  0  0  0  0  0  0  0  0
   -3.2500   -1.4471   -0.5077 C   0  0  0  0  0  0  0  0  0  0  0  0
   -2.3029   -2.3236   -0.0130 C   0  0  0  0  0  0  0  0  0  0  0  0
   -4.6050   -1.6876   -0.3779 C   0  0  0  0  0  0  0  0  0  0  0  0
    4.8913    0.4275    0.0352 C   0  0  0  0  0  0  0  0  0  0  0  0
   -2.7262   -3.4834    0.6360 C   0  0  0  0  0  0  0  0  0  0  0  0
   -5.0284   -2.8476    0.2711 C   0  0  0  0  0  0  0  0  0  0  0  0
   -0.8372   -2.0691   -0.1499 C   0  0  0  0  0  0  0  0  0  0  0  0
   -4.0889   -3.7455    0.7780 C   0  0  0  0  0  0  0  0  0  0  0  0
    6.1941   -0.1239   -0.4461 C   0  0  0  0  0  0  0  0  0  0  0  0
    7.6730   -1.9174   -0.0216 C   0  0  0  0  0  0  0  0  0  0  0  0
    7.8643   -3.1248    0.8454 C   0  0  0  0  0  0  0  0  0  0  0  0
   -3.0094    2.3660   -1.5879 H   0  0  0  0  0  0  0  0  0  0  0  0
   -0.8394    1.0015   -2.2311 H   0  0  0  0  0  0  0  0  0  0  0  0
   -0.7112    2.7310   -2.2058 H   0  0  0  0  0  0  0  0  0  0  0  0
   -1.9408    5.2365    0.5567 H   0  0  0  0  0  0  0  0  0  0  0  0
   -2.6815    4.8086   -0.9773 H   0  0  0  0  0  0  0  0  0  0  0  0
   -0.9286    4.6087   -0.7478 H   0  0  0  0  0  0  0  0  0  0  0  0
    1.0905    1.2891    2.4483 H   0  0  0  0  0  0  0  0  0  0  0  0
    1.6202    2.9332    2.0703 H   0  0  0  0  0  0  0  0  0  0  0  0
    1.5449    0.9460   -2.1347 H   0  0  0  0  0  0  0  0  0  0  0  0
   -3.6177    2.1954    1.2157 H   0  0  0  0  0  0  0  0  0  0  0  0
    3.8759    0.2761   -1.7938 H   0  0  0  0  0  0  0  0  0  0  0  0
    4.8687    0.7133    1.0839 H   0  0  0  0  0  0  0  0  0  0  0  0
   -2.0028   -4.1897    1.0360 H   0  0  0  0  0  0  0  0  0  0  0  0
   -6.0919   -3.0463    0.3788 H   0  0  0  0  0  0  0  0  0  0  0  0
   -0.5456   -1.2007    0.4491 H   0  0  0  0  0  0  0  0  0  0  0  0
   -0.2420   -2.9215    0.1955 H   0  0  0  0  0  0  0  0  0  0  0  0
   -0.5677   -1.8954   -1.1969 H   0  0  0  0  0  0  0  0  0  0  0  0
    6.9767    0.6277   -0.2902 H   0  0  0  0  0  0  0  0  0  0  0  0
    6.1523   -0.3736   -1.5130 H   0  0  0  0  0  0  0  0  0  0  0  0
   -5.1121   -0.0591   -1.2833 H   0  0  0  0  0  0  0  0  0  0  0  0
   -5.4743   -4.8971    1.4191 H   0  0  0  0  0  0  0  0  0  0  0  0
    8.8027   -3.6188    0.5775 H   0  0  0  0  0  0  0  0  0  0  0  0
    7.9165   -2.8229    1.8944 H   0  0  0  0  0  0  0  0  0  0  0  0
    7.0429   -3.8282    0.6871 H   0  0  0  0  0  0  0  0  0  0  0  0
  1 11  1  0  0  0  0
  1 20  1  0  0  0  0
  2 10  1  0  0  0  0
  2 42  1  0  0  0  0
  3 17  1  0  0  0  0
  3 19  1  0  0  0  0
  4 15  2  0  0  0  0
  5 20  2  0  0  0  0
  6 24  1  0  0  0  0
  6 52  1  0  0  0  0
  7 30  1  0  0  0  0
  7 31  1  0  0  0  0
  8 29  1  0  0  0  0
  8 53  1  0  0  0  0
  9 31  2  0  0  0  0
 10 11  1  0  0  0  0
 10 15  1  0  0  0  0
 10 16  1  0  0  0  0
 11 12  1  0  0  0  0
 11 33  1  0  0  0  0
 12 13  1  0  0  0  0
 12 34  1  0  0  0  0
 12 35  1  0  0  0  0
 13 14  2  0  0  0  0
 13 18  1  0  0  0  0
 14 15  1  0  0  0  0
 14 17  1  0  0  0  0
 16 36  1  0  0  0  0
 16 37  1  0  0  0  0
 16 38  1  0  0  0  0
 17 39  1  0  0  0  0
 17 40  1  0  0  0  0
 18 19  2  0  0  0  0
 18 41  1  0  0  0  0
 19 21  1  0  0  0  0
 20 22  1  0  0  0  0
 21 25  2  0  0  0  0
 21 43  1  0  0  0  0
 22 23  1  0  0  0  0
 22 24  2  0  0  0  0
 23 26  2  0  0  0  0
 23 28  1  0  0  0  0
 24 27  1  0  0  0  0
 25 30  1  0  0  0  0
 25 44  1  0  0  0  0
 26 29  1  0  0  0  0
 26 45  1  0  0  0  0
 27 29  2  0  0  0  0
 27 46  1  0  0  0  0
 28 47  1  0  0  0  0
 28 48  1  0  0  0  0
 28 49  1  0  0  0  0
 30 50  1  0  0  0  0
 30 51  1  0  0  0  0
 31 32  1  0  0  0  0
 32 54  1  0  0  0  0
 32 55  1  0  0  0  0
 32 56  1  0  0  0  0
M  END
> <PUBCHEM_COMPOUND_CID>
11270720

> <PUBCHEM_CONFORMER_RMSD>
1

> <PUBCHEM_CONFORMER_DIVERSEORDER>
2
56
35
46
10
43
42
62
50
34
44
51
33
30
41
9
52
13
65
70
53
47
36
45
21
54
14
55
11
68
22
6
66
28
49
26
64
15
12
71
48
58
31
24
17
39
60
5
23
59
8
27
3
38
16
18
37
40
29
19
67
32
69
25
4
7
20
61
1
57
63

> <PUBCHEM_MMFF94_PARTIAL_CHARGES>
39
1 -0.43
10 0.34
11 0.28
12 0.14
13 -0.14
14 -0.12
15 0.49
17 0.42
18 -0.15
19 0.08
2 -0.68
20 0.63
21 -0.15
22 0.09
23 -0.14
24 0.08
25 -0.29
26 -0.15
27 -0.15
28 0.14
29 0.08
3 -0.36
30 0.42
31 0.66
32 0.06
4 -0.57
41 0.15
42 0.4
43 0.15
44 0.15
45 0.15
46 0.15
5 -0.57
52 0.45
53 0.45
6 -0.53
7 -0.43
8 -0.53
9 -0.57

> <PUBCHEM_EFFECTIVE_ROTOR_COUNT>
8

> <PUBCHEM_PHARMACOPHORE_FEATURES>
11
1 2 acceptor
1 2 donor
1 3 acceptor
1 4 acceptor
1 5 acceptor
1 6 donor
1 8 donor
1 9 acceptor
6 10 11 12 13 14 15 rings
6 22 23 24 26 27 29 rings
6 3 13 14 17 18 19 rings

> <PUBCHEM_HEAVY_ATOM_COUNT>
32

> <PUBCHEM_ATOM_DEF_STEREO_COUNT>
2

> <PUBCHEM_ATOM_UDEF_STEREO_COUNT>
0

> <PUBCHEM_BOND_DEF_STEREO_COUNT>
1

> <PUBCHEM_BOND_UDEF_STEREO_COUNT>
0

> <PUBCHEM_ISOTOPIC_ATOM_COUNT>
0

> <PUBCHEM_COMPONENT_COUNT>
1

> <PUBCHEM_CACTVS_TAUTO_COUNT>
75

> <PUBCHEM_CONFORMER_ID>
00ABFA4000000002

> <PUBCHEM_MMFF94_ENERGY>
79.9187

> <PUBCHEM_FEATURE_SELFOVERLAP>
55.848

> <PUBCHEM_SHAPE_FINGERPRINT>
1100329 8 17764873494323975103
11456790 92 18269292308542318107
117089 54 17971201566782026674
11756154 5 18337383954894820746
11809386 21 18410854318268286732
12633257 1 16342589533487424037
12760667 363 18342735238746490478
13008946 335 17697618601537022161
1361 4 18408323311648300422
13911852 28 18123468542898273415
14150023 24 17908425749532294929
14211702 104 18271811164932257110
14251740 79 18260547822992141050
14420673 8 18262520407262020619
14725015 67 18342452660095274223
14844126 61 17774993557801068164
14856354 85 18341333276292273084
14866123 147 18411987949290231905
15230672 131 18042109986405628463
15439362 3 17109872350122341445
15927050 60 18054790573232435909
16114785 44 15051179948110852505
18603816 31 18261680276892282608
20775530 9 18190732240289816203
21307412 95 18261943159462653055
21639891 77 18131350782896855160
23466295 7 18410014359640218009
23559900 14 18265324187176134429
24893992 56 18339924935895373019
3383291 50 17417518125633953765
4073 2 18200313209511880262
437795 139 18260834800307423870
4435113 14 18057330475263488694
44802255 64 17899132715671551005
484985 159 18408323263706983511
5104073 3 17917706895234222432
531348 171 17606111780943517100
563151 74 15625676998363903069
58260988 114 18411428288728105160
70634741 139 18335984246896779444
7970288 3 18263926720697769094
9980921 52 17338428326299541983

> <PUBCHEM_SHAPE_MULTIPOLES>
605.72
16.24
5.94
1.49
44.62
1.66
-0.16
21.81
0.58
-7.07
-2.56
-0.7
-0.73
0.46

> <PUBCHEM_SHAPE_SELFOVERLAP>
1302.893

> <PUBCHEM_SHAPE_VOLUME>
330.4

> <PUBCHEM_COORDINATE_TYPE>
2
5
10

$$$$
