112758627
  -OEChem-03292013293D

 49 51  0     1  0  0  0  0  0999 V2000
    3.4025    3.5238    0.5813 O   0  0  0  0  0  0  0  0  0  0  0  0
   -2.3439    1.0844    0.1551 N   0  0  0  0  0  0  0  0  0  0  0  0
   -4.3691    0.6610    2.1658 N   0  0  0  0  0  0  0  0  0  0  0  0
   -0.0682    0.6785    0.3434 N   0  0  0  0  0  0  0  0  0  0  0  0
   -0.9015    2.8144   -0.3986 N   0  0  0  0  0  0  0  0  0  0  0  0
    2.2652    0.3015    0.5231 N   0  0  0  0  0  0  0  0  0  0  0  0
    3.4472    2.8069   -1.5964 N   0  0  0  0  0  0  0  0  0  0  0  0
   -2.6738   -0.2571    0.6021 C   0  0  1  0  0  0  0  0  0  0  0  0
   -4.1200   -0.3396    1.1272 C   0  0  2  0  0  0  0  0  0  0  0  0
   -2.4447   -1.2445   -0.5484 C   0  0  0  0  0  0  0  0  0  0  0  0
   -5.1612   -0.2032    0.0078 C   0  0  0  0  0  0  0  0  0  0  0  0
   -3.4893   -1.1133   -1.6573 C   0  0  0  0  0  0  0  0  0  0  0  0
   -4.9102   -1.2118   -1.1114 C   0  0  0  0  0  0  0  0  0  0  0  0
   -1.0491    1.5457    0.0280 C   0  0  0  0  0  0  0  0  0  0  0  0
    1.1842    1.1616    0.2073 C   0  0  0  0  0  0  0  0  0  0  0  0
    0.3764    3.2319   -0.5120 C   0  0  0  0  0  0  0  0  0  0  0  0
    1.4699    2.4421   -0.2204 C   0  0  0  0  0  0  0  0  0  0  0  0
    2.4190   -1.0921    0.4513 C   0  0  0  0  0  0  0  0  0  0  0  0
    2.8186    2.9661   -0.3647 C   0  0  0  0  0  0  0  0  0  0  0  0
    1.7249   -1.8223   -0.5135 C   0  0  0  0  0  0  0  0  0  0  0  0
    3.2662   -1.7469    1.3456 C   0  0  0  0  0  0  0  0  0  0  0  0
    1.8776   -3.2069   -0.5841 C   0  0  0  0  0  0  0  0  0  0  0  0
    3.4192   -3.1316    1.2747 C   0  0  0  0  0  0  0  0  0  0  0  0
    2.7248   -3.8616    0.3101 C   0  0  0  0  0  0  0  0  0  0  0  0
    1.1355   -3.9871   -1.6160 C   0  0  0  0  0  0  0  0  0  0  0  0
   -2.0121   -0.5315    1.4354 H   0  0  0  0  0  0  0  0  0  0  0  0
   -4.2527   -1.3289    1.5857 H   0  0  0  0  0  0  0  0  0  0  0  0
   -1.4477   -1.1346   -0.9873 H   0  0  0  0  0  0  0  0  0  0  0  0
   -2.4919   -2.2653   -0.1468 H   0  0  0  0  0  0  0  0  0  0  0  0
   -5.1485    0.8110   -0.4112 H   0  0  0  0  0  0  0  0  0  0  0  0
   -6.1694   -0.3618    0.4107 H   0  0  0  0  0  0  0  0  0  0  0  0
   -3.3294   -1.8992   -2.4044 H   0  0  0  0  0  0  0  0  0  0  0  0
   -3.3615   -0.1549   -2.1749 H   0  0  0  0  0  0  0  0  0  0  0  0
   -5.6285   -1.0474   -1.9226 H   0  0  0  0  0  0  0  0  0  0  0  0
   -5.0848   -2.2263   -0.7324 H   0  0  0  0  0  0  0  0  0  0  0  0
   -3.0874    1.7200   -0.1085 H   0  0  0  0  0  0  0  0  0  0  0  0
   -3.7166    0.5241    2.9366 H   0  0  0  0  0  0  0  0  0  0  0  0
   -5.3035    0.5312    2.5513 H   0  0  0  0  0  0  0  0  0  0  0  0
    0.4910    4.2554   -0.8554 H   0  0  0  0  0  0  0  0  0  0  0  0
    3.0021    0.7672    1.0460 H   0  0  0  0  0  0  0  0  0  0  0  0
    1.0733   -1.3229   -1.2264 H   0  0  0  0  0  0  0  0  0  0  0  0
    3.8123   -1.1903    2.1030 H   0  0  0  0  0  0  0  0  0  0  0  0
    4.0783   -3.6414    1.9713 H   0  0  0  0  0  0  0  0  0  0  0  0
    2.8520   -4.9401    0.2676 H   0  0  0  0  0  0  0  0  0  0  0  0
    0.0923   -4.1166   -1.3105 H   0  0  0  0  0  0  0  0  0  0  0  0
    1.1607   -3.4726   -2.5827 H   0  0  0  0  0  0  0  0  0  0  0  0
    1.5762   -4.9783   -1.7668 H   0  0  0  0  0  0  0  0  0  0  0  0
    2.9917    2.3476   -2.3787 H   0  0  0  0  0  0  0  0  0  0  0  0
    4.3903    3.1483   -1.7489 H   0  0  0  0  0  0  0  0  0  0  0  0
  1 19  2  0  0  0  0
  2  8  1  0  0  0  0
  2 14  1  0  0  0  0
  2 36  1  0  0  0  0
  3  9  1  0  0  0  0
  3 37  1  0  0  0  0
  3 38  1  0  0  0  0
  4 14  1  0  0  0  0
  4 15  2  0  0  0  0
  5 14  2  0  0  0  0
  5 16  1  0  0  0  0
  6 15  1  0  0  0  0
  6 18  1  0  0  0  0
  6 40  1  0  0  0  0
  7 19  1  0  0  0  0
  7 48  1  0  0  0  0
  7 49  1  0  0  0  0
  8  9  1  0  0  0  0
  8 10  1  0  0  0  0
  8 26  1  0  0  0  0
  9 11  1  0  0  0  0
  9 27  1  0  0  0  0
 10 12  1  0  0  0  0
 10 28  1  0  0  0  0
 10 29  1  0  0  0  0
 11 13  1  0  0  0  0
 11 30  1  0  0  0  0
 11 31  1  0  0  0  0
 12 13  1  0  0  0  0
 12 32  1  0  0  0  0
 12 33  1  0  0  0  0
 13 34  1  0  0  0  0
 13 35  1  0  0  0  0
 15 17  1  0  0  0  0
 16 17  2  0  0  0  0
 16 39  1  0  0  0  0
 17 19  1  0  0  0  0
 18 20  1  0  0  0  0
 18 21  2  0  0  0  0
 20 22  2  0  0  0  0
 20 41  1  0  0  0  0
 21 23  1  0  0  0  0
 21 42  1  0  0  0  0
 22 24  1  0  0  0  0
 22 25  1  0  0  0  0
 23 24  2  0  0  0  0
 23 43  1  0  0  0  0
 24 44  1  0  0  0  0
 25 45  1  0  0  0  0
 25 46  1  0  0  0  0
 25 47  1  0  0  0  0
M  END
> <PUBCHEM_COMPOUND_CID>
112758627

> <PUBCHEM_CONFORMER_RMSD>
1.2

> <PUBCHEM_CONFORMER_DIVERSEORDER>
1
76
75
62
44
51
63
55
66
20
77
39
14
71
73
18
31
30
36
25
26
69
42
3
29
47
64
65
12
61
58
74
49
46
40
70
15
16
48
72
28
53
9
23
19
21
45
38
27
32
37
24
57
56
22
52
10
78
4
7
17
33
8
59
50
41
5
68
6
54
34
2
35
60
67
13
11
43

> <PUBCHEM_MMFF94_PARTIAL_CHARGES>
32
1 -0.57
14 0.72
15 0.41
16 0.16
17 0.09
18 0.1
19 0.54
2 -0.87
20 -0.15
21 -0.15
22 -0.14
23 -0.15
24 -0.15
25 0.14
3 -0.99
36 0.4
37 0.36
38 0.36
39 0.15
4 -0.62
40 0.4
41 0.15
42 0.15
43 0.15
44 0.15
48 0.37
49 0.37
5 -0.62
6 -0.6
7 -0.8
8 0.37
9 0.27

> <PUBCHEM_EFFECTIVE_ROTOR_COUNT>
6.2

> <PUBCHEM_PHARMACOPHORE_FEATURES>
10
1 1 acceptor
1 2 donor
1 3 cation
1 3 donor
1 6 donor
1 7 donor
4 2 4 5 14 cation
6 18 20 21 22 23 24 rings
6 4 5 14 15 16 17 rings
6 8 9 10 11 12 13 rings

> <PUBCHEM_HEAVY_ATOM_COUNT>
25

> <PUBCHEM_ATOM_DEF_STEREO_COUNT>
1

> <PUBCHEM_ATOM_UDEF_STEREO_COUNT>
1

> <PUBCHEM_BOND_DEF_STEREO_COUNT>
0

> <PUBCHEM_BOND_UDEF_STEREO_COUNT>
0

> <PUBCHEM_ISOTOPIC_ATOM_COUNT>
0

> <PUBCHEM_COMPONENT_COUNT>
1

> <PUBCHEM_CACTVS_TAUTO_COUNT>
129

> <PUBCHEM_CONFORMER_ID>
06B88F6300000001

> <PUBCHEM_MMFF94_ENERGY>
78.2212

> <PUBCHEM_FEATURE_SELFOVERLAP>
50.749

> <PUBCHEM_SHAPE_FINGERPRINT>
1100329 8 17042320017372464251
11578080 2 17241323560652391732
12107183 9 18124885560553008529
12363563 72 18189336758149671715
12403259 327 16343407420089103227
12422481 6 17767993947506018937
12553582 1 18339085873712728070
13052359 8 17616527806495887912
13083527 12 18337373985990338040
13140716 1 18265895946407705490
13149001 5 17682372785631739765
13533116 47 18341613755015542099
13690498 29 17548712776890501046
138480 1 18410289173101312982
13911987 19 17827362390631959821
1454969 45 18338504288761054538
14790565 3 18121220041572245436
14844126 61 17614549350779745354
14863182 85 18117009972709825020
14866123 147 17906160008913279464
15042514 8 17543351549101285618
17138139 8 17051872506123778623
17818456 19 17701550506804703897
1813 80 18266746779165591091
19591789 44 18193278722584240284
20645477 70 18261102015538770713
21285901 2 17677872669939849005
21421861 104 18341066124498477857
21796203 349 18050321130947337994
2255824 54 18411703230948652174
23559900 14 18338784624848777601
3421961 26 18408043996222196113
38695281 34 18193273228730595324
5265222 85 15458207853024421862
57091435 65 18410016541673268142
59682541 52 18193528209071805951
6669772 16 18267030638645528684
7064713 232 17417522498248595307

> <PUBCHEM_SHAPE_MULTIPOLES>
478.73
8.75
5.48
1.43
10.12
0.65
-0.08
-3.53
-1.49
-7.99
1.57
0.56
-0.58
-1.6

> <PUBCHEM_SHAPE_SELFOVERLAP>
1016.68

> <PUBCHEM_SHAPE_VOLUME>
263.3

> <PUBCHEM_COORDINATE_TYPE>
2
5
10

$$$$
