11282283
  -OEChem-03292013303D

 53 58  0     0  0  0  0  0  0999 V2000
    2.1600    2.9699    2.7093 S   0  0  0  0  0  0  0  0  0  0  0  0
   -3.8797   -0.5834    0.6157 O   0  0  0  0  0  0  0  0  0  0  0  0
    7.4549   -0.2596   -1.9894 O   0  0  0  0  0  0  0  0  0  0  0  0
    7.6631   -2.5076   -1.1465 O   0  0  0  0  0  0  0  0  0  0  0  0
   -1.8314    1.2962   -0.3469 N   0  0  0  0  0  0  0  0  0  0  0  0
    0.7312    1.6537    0.9161 N   0  0  0  0  0  0  0  0  0  0  0  0
    2.9724    1.0224    1.0950 N   0  0  0  0  0  0  0  0  0  0  0  0
   -3.4102    1.8346   -2.0579 N   0  0  0  0  0  0  0  0  0  0  0  0
   -5.5967    0.7555   -2.1785 N   0  0  0  0  0  0  0  0  0  0  0  0
   -0.6546    1.6861   -1.1320 C   0  0  0  0  0  0  0  0  0  0  0  0
   -1.6709    1.0923    1.0974 C   0  0  0  0  0  0  0  0  0  0  0  0
    0.6280    1.1981   -0.4621 C   0  0  0  0  0  0  0  0  0  0  0  0
   -0.5061    1.9210    1.6343 C   0  0  0  0  0  0  0  0  0  0  0  0
   -3.0718    1.1256   -0.9578 C   0  0  0  0  0  0  0  0  0  0  0  0
    1.9386    1.8243    1.5105 C   0  0  0  0  0  0  0  0  0  0  0  0
   -3.9974    0.2294   -0.4663 C   0  0  0  0  0  0  0  0  0  0  0  0
   -5.2316    0.0583   -1.0751 C   0  0  0  0  0  0  0  0  0  0  0  0
   -5.9195   -0.9246   -0.3182 C   0  0  0  0  0  0  0  0  0  0  0  0
   -5.0472   -1.2859    0.7076 C   0  0  0  0  0  0  0  0  0  0  0  0
    4.3298    1.0504    1.6016 C   0  0  0  0  0  0  0  0  0  0  0  0
    5.2157    0.0696    0.8894 C   0  0  0  0  0  0  0  0  0  0  0  0
   -4.6343    1.6090   -2.5928 C   0  0  0  0  0  0  0  0  0  0  0  0
   -7.1772   -1.5498   -0.3813 C   0  0  0  0  0  0  0  0  0  0  0  0
   -5.3439   -2.2358    1.6836 C   0  0  0  0  0  0  0  0  0  0  0  0
    5.9063    0.4733   -0.2504 C   0  0  0  0  0  0  0  0  0  0  0  0
    5.3317   -1.2361    1.3853 C   0  0  0  0  0  0  0  0  0  0  0  0
    6.7078   -0.4633   -0.8702 C   0  0  0  0  0  0  0  0  0  0  0  0
   -7.5018   -2.5088    0.5877 C   0  0  0  0  0  0  0  0  0  0  0  0
   -6.5999   -2.8439    1.6006 C   0  0  0  0  0  0  0  0  0  0  0  0
    6.8267   -1.7469   -0.3890 C   0  0  0  0  0  0  0  0  0  0  0  0
    6.1504   -2.1650    0.7386 C   0  0  0  0  0  0  0  0  0  0  0  0
    8.0577   -1.5589   -2.1583 C   0  0  0  0  0  0  0  0  0  0  0  0
   -0.6387    2.7784   -1.2300 H   0  0  0  0  0  0  0  0  0  0  0  0
   -0.7054    1.2596   -2.1410 H   0  0  0  0  0  0  0  0  0  0  0  0
   -1.4837    0.0298    1.2952 H   0  0  0  0  0  0  0  0  0  0  0  0
   -2.5734    1.3955    1.6418 H   0  0  0  0  0  0  0  0  0  0  0  0
    0.6427    0.1011   -0.4411 H   0  0  0  0  0  0  0  0  0  0  0  0
    1.5003    1.5342   -1.0341 H   0  0  0  0  0  0  0  0  0  0  0  0
   -0.7303    2.9889    1.5160 H   0  0  0  0  0  0  0  0  0  0  0  0
   -0.3865    1.7127    2.7033 H   0  0  0  0  0  0  0  0  0  0  0  0
    2.7599    0.3053    0.4089 H   0  0  0  0  0  0  0  0  0  0  0  0
    4.3105    0.8281    2.6755 H   0  0  0  0  0  0  0  0  0  0  0  0
    4.7323    2.0647    1.4915 H   0  0  0  0  0  0  0  0  0  0  0  0
   -4.8739    2.1941   -3.4743 H   0  0  0  0  0  0  0  0  0  0  0  0
   -7.8892   -1.3003   -1.1623 H   0  0  0  0  0  0  0  0  0  0  0  0
   -4.6398   -2.4909    2.4667 H   0  0  0  0  0  0  0  0  0  0  0  0
    5.8209    1.4808   -0.6424 H   0  0  0  0  0  0  0  0  0  0  0  0
    4.7858   -1.5398    2.2749 H   0  0  0  0  0  0  0  0  0  0  0  0
   -8.4712   -2.9992    0.5496 H   0  0  0  0  0  0  0  0  0  0  0  0
   -6.8794   -3.5918    2.3386 H   0  0  0  0  0  0  0  0  0  0  0  0
    6.2462   -3.1775    1.1140 H   0  0  0  0  0  0  0  0  0  0  0  0
    9.1476   -1.4466   -2.1281 H   0  0  0  0  0  0  0  0  0  0  0  0
    7.7717   -1.9535   -3.1401 H   0  0  0  0  0  0  0  0  0  0  0  0
  1 15  2  0  0  0  0
  2 16  1  0  0  0  0
  2 19  1  0  0  0  0
  3 27  1  0  0  0  0
  3 32  1  0  0  0  0
  4 30  1  0  0  0  0
  4 32  1  0  0  0  0
  5 10  1  0  0  0  0
  5 11  1  0  0  0  0
  5 14  1  0  0  0  0
  6 12  1  0  0  0  0
  6 13  1  0  0  0  0
  6 15  1  0  0  0  0
  7 15  1  0  0  0  0
  7 20  1  0  0  0  0
  7 41  1  0  0  0  0
  8 14  2  0  0  0  0
  8 22  1  0  0  0  0
  9 17  1  0  0  0  0
  9 22  2  0  0  0  0
 10 12  1  0  0  0  0
 10 33  1  0  0  0  0
 10 34  1  0  0  0  0
 11 13  1  0  0  0  0
 11 35  1  0  0  0  0
 11 36  1  0  0  0  0
 12 37  1  0  0  0  0
 12 38  1  0  0  0  0
 13 39  1  0  0  0  0
 13 40  1  0  0  0  0
 14 16  1  0  0  0  0
 16 17  2  0  0  0  0
 17 18  1  0  0  0  0
 18 19  1  0  0  0  0
 18 23  2  0  0  0  0
 19 24  2  0  0  0  0
 20 21  1  0  0  0  0
 20 42  1  0  0  0  0
 20 43  1  0  0  0  0
 21 25  2  0  0  0  0
 21 26  1  0  0  0  0
 22 44  1  0  0  0  0
 23 28  1  0  0  0  0
 23 45  1  0  0  0  0
 24 29  1  0  0  0  0
 24 46  1  0  0  0  0
 25 27  1  0  0  0  0
 25 47  1  0  0  0  0
 26 31  2  0  0  0  0
 26 48  1  0  0  0  0
 27 30  2  0  0  0  0
 28 29  2  0  0  0  0
 28 49  1  0  0  0  0
 29 50  1  0  0  0  0
 30 31  1  0  0  0  0
 31 51  1  0  0  0  0
 32 52  1  0  0  0  0
 32 53  1  0  0  0  0
M  END
> <PUBCHEM_COMPOUND_CID>
11282283

> <PUBCHEM_CONFORMER_RMSD>
1

> <PUBCHEM_CONFORMER_DIVERSEORDER>
1
251
256
235
149
175
179
49
81
87
160
132
220
252
221
55
40
233
290
230
266
113
73
44
99
170
103
109
88
264
82
282
194
96
257
254
89
271
260
10
267
101
243
162
90
253
142
117
287
45
164
124
248
48
108
161
74
123
53
135
46
185
112
244
69
152
234
37
64
193
106
196
218
143
201
11
35
219
165
211
207
265
280
270
250
100
75
153
184
33
47
214
269
76
247
91
169
32
138
216
205
66
146
212
206
262
148
268
42
223
208
36
195
263
155
39
102
183
285
151
52
71
192
67
23
189
215
289
217
157
51
203
133
70
30
159
116
227
93
176
121
119
38
174
72
241
166
242
98
122
239
144
19
158
120
28
286
3
125
27
34
85
178
272
240
172
25
222
145
13
86
22
79
202
182
275
24
107
56
154
78
17
83
110
225
2
26
261
167
139
232
63
9
18
255
186
134
231
131
168
278
127
238
246
57
173
177
209
94
111
14
21
20
197
84
249
156
204
8
150
130
276
104
7
273
136
129
15
187
163
226
237
279
58
118
224
199
198
180
171
4
283
6
288
236
105
281
188
80
68
190
115
229
43
5
200
59
95
258
31
141
16
284
137
97
274
140
54
277
29
50
259
12
210
228
181
41
92
60
77
128
245
213
147
126
191
114
65
61
62

> <PUBCHEM_MMFF94_PARTIAL_CHARGES>
40
1 -0.38
10 0.37
11 0.37
12 0.3
13 0.3
14 0.41
15 0.5
16 0.14
17 0.26
19 0.14
2 -0.28
20 0.44
21 -0.14
22 0.47
23 -0.15
24 -0.15
25 -0.15
26 -0.15
27 0.08
28 -0.15
29 -0.15
3 -0.36
30 0.08
31 -0.15
32 0.56
4 -0.36
41 0.37
44 0.15
45 0.15
46 0.15
47 0.15
48 0.15
49 0.15
5 -0.84
50 0.15
51 0.15
6 -0.66
7 -0.73
8 -0.62
9 -0.57

> <PUBCHEM_EFFECTIVE_ROTOR_COUNT>
6.8

> <PUBCHEM_PHARMACOPHORE_FEATURES>
13
1 1 acceptor
1 2 acceptor
1 3 acceptor
1 4 acceptor
1 7 donor
3 5 8 14 cation
3 8 9 22 cation
5 2 16 17 18 19 rings
5 3 4 27 30 32 rings
6 18 19 23 24 28 29 rings
6 21 25 26 27 30 31 rings
6 5 6 10 11 12 13 rings
6 8 9 14 16 17 22 rings

> <PUBCHEM_HEAVY_ATOM_COUNT>
32

> <PUBCHEM_ATOM_DEF_STEREO_COUNT>
0

> <PUBCHEM_ATOM_UDEF_STEREO_COUNT>
0

> <PUBCHEM_BOND_DEF_STEREO_COUNT>
0

> <PUBCHEM_BOND_UDEF_STEREO_COUNT>
0

> <PUBCHEM_ISOTOPIC_ATOM_COUNT>
0

> <PUBCHEM_COMPONENT_COUNT>
1

> <PUBCHEM_CACTVS_TAUTO_COUNT>
2

> <PUBCHEM_CONFORMER_ID>
00AC276B00000001

> <PUBCHEM_MMFF94_ENERGY>
97.5661

> <PUBCHEM_FEATURE_SELFOVERLAP>
66.469

> <PUBCHEM_SHAPE_FINGERPRINT>
10280341 67 13697027076358575750
10319688 67 12895358806922531031
10533779 1 13263262046656112126
11408170 108 18270116959527875791
11443803 9 13542468662279533653
12047536 79 10015593788106006548
12124843 1 16877952594956606822
12342043 65 18411411847614888961
12422481 6 15698284395645540464
12655364 131 16343707621444926415
12778500 126 12175626153634208726
131258 43 18335426806875521140
13383668 40 18340486665460910615
13553643 44 18340779212057273470
13627175 4 17489870457728882182
13673619 4 18413107273054063808
13690498 29 17530960307150274117
13782708 43 18411971481642060585
14767858 380 15430031067348339153
15183329 4 16732982024576260422
15350500 185 12396301504330049654
15350500 55 8718823185589919214
15352257 5 18407758135973346563
15510800 12 18343306954770783174
16993089 31 18342455971905475975
17134984 74 18334294267628947698
18643901 69 18114183051827898875
19246450 95 16343155619199358625
195137 95 10087646970484832674
2026 5 18410008819069791087
21362857 166 17676196962880392834
21365058 113 18409729586329883172
21585481 151 14908183049945593380
21585482 310 18131357405836138966
21599406 157 16805871910362650470
21781051 124 18412545410218063262
2303208 19 18410002264985964777
23081809 10 15574984044819986232
23522609 53 15864902115696931653
23559900 14 18114166567227179949
249057 25 15213560283598593680
25269216 80 17167867469860716803
255183 451 18041561463795987717
2748736 6 13045945698991059428
312425 54 14189571940738903836
3383291 50 18060413608561741846
3504750 166 15051725378861355973
3663271 9 14333114304773696554
3862424 121 18261403285782703146
397638 26 12319464276710133859
404807 78 18187937217993640338
4107672 100 17603860062618049109
437795 70 17750517449962547739
44880168 125 18267018539612320915
44880568 143 17967248681220777772
49967989 163 16733272352066475819
504843 32 11819288762097327521
513202 73 17560799918403737377
563151 248 15985104128073886887
58083652 198 16916774197715888745
6058803 2 15336560622173506241
6712543 237 13614524047586446068
9980921 177 12391252495137030756
999808 66 18272371975042015559

> <PUBCHEM_SHAPE_MULTIPOLES>
619.88
26.03
3.13
2.44
18.11
0.32
0.52
25.69
6.65
0.15
-1.41
-0.28
-0.88
5.85

> <PUBCHEM_SHAPE_SELFOVERLAP>
1376.486

> <PUBCHEM_SHAPE_VOLUME>
335.7

> <PUBCHEM_COORDINATE_TYPE>
2
5
10

$$$$
