11281011
  -OEChem-03292013303D

 53 53  0     1  0  0  0  0  0999 V2000
   -0.0107   -4.1657   -0.0001 Cl  0  0  0  0  0  0  0  0  0  0  0  0
    1.0630    2.1031   -0.3206 O   0  0  0  0  0  0  0  0  0  0  0  0
    2.3356    0.1228   -0.0045 O   0  0  0  0  0  0  0  0  0  0  0  0
   -4.5897    0.6708    2.6276 O   0  0  0  0  0  0  0  0  0  0  0  0
    0.2438    0.5988   -1.8510 O   0  0  0  0  0  0  0  0  0  0  0  0
   -5.3378   -0.3674    0.7543 O   0  0  0  0  0  0  0  0  0  0  0  0
    4.5937   -0.1453   -0.3951 O   0  0  0  0  0  0  0  0  0  0  0  0
   -1.1003    2.2318   -0.8995 N   0  0  0  0  0  0  0  0  0  0  0  0
   -3.1813    0.8673   -0.8019 C   0  0  2  0  0  0  0  0  0  0  0  0
   -2.3321    1.8956   -1.5742 C   0  0  0  0  0  0  0  0  0  0  0  0
    3.3376    2.2881    0.5181 C   0  0  0  0  0  0  0  0  0  0  0  0
   -3.6784    1.4072    0.5577 C   0  0  0  0  0  0  0  0  0  0  0  0
   -2.3758   -0.4098   -0.5989 C   0  0  0  0  0  0  0  0  0  0  0  0
    2.3780    1.5087   -0.4073 C   0  0  2  0  0  0  0  0  0  0  0  0
    3.4483    3.7521    0.0880 C   0  0  0  0  0  0  0  0  0  0  0  0
    2.9114    2.2100    1.9880 C   0  0  0  0  0  0  0  0  0  0  0  0
   -2.3747   -1.3616   -1.5968 C   0  0  0  0  0  0  0  0  0  0  0  0
   -1.6740   -0.5740    0.5772 C   0  0  0  0  0  0  0  0  0  0  0  0
    0.0832    1.5520   -1.0960 C   0  0  0  0  0  0  0  0  0  0  0  0
    3.2518   -2.0027    0.4244 C   0  0  0  0  0  0  0  0  0  0  0  0
   -4.6124    0.4622    1.2851 C   0  0  0  0  0  0  0  0  0  0  0  0
    3.5050   -0.5814   -0.0461 C   0  0  0  0  0  0  0  0  0  0  0  0
   -1.6381   -2.5313   -1.4103 C   0  0  0  0  0  0  0  0  0  0  0  0
   -0.9373   -1.7437    0.7636 C   0  0  0  0  0  0  0  0  0  0  0  0
   -0.9192   -2.7224   -0.2302 C   0  0  0  0  0  0  0  0  0  0  0  0
    4.1810   -2.9823   -0.2875 C   0  0  0  0  0  0  0  0  0  0  0  0
    3.4293   -2.0829    1.9360 C   0  0  0  0  0  0  0  0  0  0  0  0
   -4.0662    0.6293   -1.4082 H   0  0  0  0  0  0  0  0  0  0  0  0
   -2.8946    2.8268   -1.7027 H   0  0  0  0  0  0  0  0  0  0  0  0
   -2.0893    1.5145   -2.5734 H   0  0  0  0  0  0  0  0  0  0  0  0
    4.3522    1.8871    0.4685 H   0  0  0  0  0  0  0  0  0  0  0  0
   -4.2689    2.3141    0.3684 H   0  0  0  0  0  0  0  0  0  0  0  0
   -2.8684    1.7261    1.2207 H   0  0  0  0  0  0  0  0  0  0  0  0
    2.7173    1.5704   -1.4496 H   0  0  0  0  0  0  0  0  0  0  0  0
   -1.1063    3.0043   -0.2405 H   0  0  0  0  0  0  0  0  0  0  0  0
    3.7750    3.8259   -0.9546 H   0  0  0  0  0  0  0  0  0  0  0  0
    4.1814    4.2832    0.7048 H   0  0  0  0  0  0  0  0  0  0  0  0
    2.4913    4.2761    0.1831 H   0  0  0  0  0  0  0  0  0  0  0  0
    2.8909    1.1755    2.3434 H   0  0  0  0  0  0  0  0  0  0  0  0
    3.6147    2.7602    2.6226 H   0  0  0  0  0  0  0  0  0  0  0  0
    1.9170    2.6421    2.1423 H   0  0  0  0  0  0  0  0  0  0  0  0
   -2.9303   -1.2190   -2.5185 H   0  0  0  0  0  0  0  0  0  0  0  0
   -1.6222    0.1612    1.3696 H   0  0  0  0  0  0  0  0  0  0  0  0
    2.2248   -2.2681    0.1578 H   0  0  0  0  0  0  0  0  0  0  0  0
   -1.6327   -3.2850   -2.1936 H   0  0  0  0  0  0  0  0  0  0  0  0
   -0.3741   -1.8757    1.6840 H   0  0  0  0  0  0  0  0  0  0  0  0
    5.2318   -2.7862   -0.0467 H   0  0  0  0  0  0  0  0  0  0  0  0
    4.0706   -2.9011   -1.3743 H   0  0  0  0  0  0  0  0  0  0  0  0
    3.9531   -4.0138    0.0007 H   0  0  0  0  0  0  0  0  0  0  0  0
    2.7321   -1.4090    2.4453 H   0  0  0  0  0  0  0  0  0  0  0  0
    3.2414   -3.0987    2.2986 H   0  0  0  0  0  0  0  0  0  0  0  0
    4.4431   -1.7933    2.2340 H   0  0  0  0  0  0  0  0  0  0  0  0
   -5.2071    0.0730    3.1006 H   0  0  0  0  0  0  0  0  0  0  0  0
  1 25  1  0  0  0  0
  2 14  1  0  0  0  0
  2 19  1  0  0  0  0
  3 14  1  0  0  0  0
  3 22  1  0  0  0  0
  4 21  1  0  0  0  0
  4 53  1  0  0  0  0
  5 19  2  0  0  0  0
  6 21  2  0  0  0  0
  7 22  2  0  0  0  0
  8 10  1  0  0  0  0
  8 19  1  0  0  0  0
  8 35  1  0  0  0  0
  9 10  1  0  0  0  0
  9 12  1  0  0  0  0
  9 13  1  0  0  0  0
  9 28  1  0  0  0  0
 10 29  1  0  0  0  0
 10 30  1  0  0  0  0
 11 14  1  0  0  0  0
 11 15  1  0  0  0  0
 11 16  1  0  0  0  0
 11 31  1  0  0  0  0
 12 21  1  0  0  0  0
 12 32  1  0  0  0  0
 12 33  1  0  0  0  0
 13 17  2  0  0  0  0
 13 18  1  0  0  0  0
 14 34  1  0  0  0  0
 15 36  1  0  0  0  0
 15 37  1  0  0  0  0
 15 38  1  0  0  0  0
 16 39  1  0  0  0  0
 16 40  1  0  0  0  0
 16 41  1  0  0  0  0
 17 23  1  0  0  0  0
 17 42  1  0  0  0  0
 18 24  2  0  0  0  0
 18 43  1  0  0  0  0
 20 22  1  0  0  0  0
 20 26  1  0  0  0  0
 20 27  1  0  0  0  0
 20 44  1  0  0  0  0
 23 25  2  0  0  0  0
 23 45  1  0  0  0  0
 24 25  1  0  0  0  0
 24 46  1  0  0  0  0
 26 47  1  0  0  0  0
 26 48  1  0  0  0  0
 26 49  1  0  0  0  0
 27 50  1  0  0  0  0
 27 51  1  0  0  0  0
 27 52  1  0  0  0  0
M  END
> <PUBCHEM_COMPOUND_CID>
11281011

> <PUBCHEM_CONFORMER_RMSD>
1

> <PUBCHEM_CONFORMER_DIVERSEORDER>
1
60
8
95
192
77
157
193
75
38
190
218
103
110
91
109
184
162
131
200
145
16
167
48
94
223
54
120
59
140
188
202
215
116
141
85
191
108
66
185
217
2
175
100
210
74
183
161
148
216
41
151
53
112
43
31
137
222
40
24
203
201
64
69
72
194
207
211
187
142
14
199
102
34
221
176
136
149
88
86
70
212
160
90
143
47
104
224
198
152
124
29
130
23
113
101
206
82
214
177
89
5
19
30
28
37
158
128
225
213
79
119
178
189
76
26
186
174
168
107
67
208
83
50
118
3
197
84
155
121
25
205
226
10
46
7
45
182
122
134
6
63
220
146
49
27
57
42
13
78
144
195
33
71
17
68
9
73
209
165
21
204
153
154
117
92
115
139
52
166
36
163
133
12
180
93
196
138
106
111
39
171
147
20
156
61
159
32
11
132
65
170
18
129
125
4
22
135
87
150
181
169
123
15
172
179
62
97
173
44
98
126
99
164
35
58
96
80
55
56
219
51
114
81
105
127

> <PUBCHEM_MMFF94_PARTIAL_CHARGES>
28
1 -0.18
10 0.3
12 0.06
13 -0.14
14 0.56
17 -0.15
18 -0.15
19 0.78
2 -0.43
20 0.06
21 0.66
22 0.66
23 -0.15
24 -0.15
25 0.18
3 -0.43
35 0.37
4 -0.65
42 0.15
43 0.15
45 0.15
46 0.15
5 -0.57
53 0.5
6 -0.57
7 -0.57
8 -0.73
9 0.14

> <PUBCHEM_EFFECTIVE_ROTOR_COUNT>
12

> <PUBCHEM_PHARMACOPHORE_FEATURES>
9
1 4 acceptor
1 5 acceptor
1 6 acceptor
1 7 acceptor
1 8 donor
3 11 15 16 hydrophobe
3 20 26 27 hydrophobe
3 4 6 21 anion
6 13 17 18 23 24 25 rings

> <PUBCHEM_HEAVY_ATOM_COUNT>
27

> <PUBCHEM_ATOM_DEF_STEREO_COUNT>
2

> <PUBCHEM_ATOM_UDEF_STEREO_COUNT>
0

> <PUBCHEM_BOND_DEF_STEREO_COUNT>
0

> <PUBCHEM_BOND_UDEF_STEREO_COUNT>
0

> <PUBCHEM_ISOTOPIC_ATOM_COUNT>
0

> <PUBCHEM_COMPONENT_COUNT>
1

> <PUBCHEM_CACTVS_TAUTO_COUNT>
2

> <PUBCHEM_CONFORMER_ID>
00AC227300000001

> <PUBCHEM_MMFF94_ENERGY>
50.6029

> <PUBCHEM_FEATURE_SELFOVERLAP>
45.73

> <PUBCHEM_SHAPE_FINGERPRINT>
11552529 35 17699563946273801861
12422481 6 18121511146133912313
12553582 1 18337945697977775614
12633257 1 18272364252838464806
12788726 201 17987529108759682960
13140716 1 18410294713804563535
13533116 47 18200583804571591245
14178342 30 18049439550238712130
14363568 33 18265061245283849754
14617045 38 18334305279297210724
14765038 42 18342747316785402992
14955137 171 18195537990761030107
151778 21 18410862057435331448
15238133 3 17274837834629344664
16067690 210 16558746814990267552
19319366 153 17821738230311631850
19930381 70 18266171721488385270
21796203 349 18192168014013771210
23559900 14 18339062879075049348
3298306 158 17612852825749275708
463206 1 16756050083591934270
5252454 2 18339365287426837992
5265222 85 18335435543201900726
563151 40 17976002035186530884
57527585 103 17025994339927404250
7097593 13 18339078306043630229

> <PUBCHEM_SHAPE_MULTIPOLES>
517.32
9.12
4.52
1.75
1.31
1.63
0.62
-1.53
3.73
-4.04
-0.19
1.22
-0.31
-0.35

> <PUBCHEM_SHAPE_SELFOVERLAP>
1042.343

> <PUBCHEM_SHAPE_VOLUME>
302.3

> <PUBCHEM_COORDINATE_TYPE>
2
5
10

$$$$
