11292556
  -OEChem-03292013303D

 51 53  0     1  0  0  0  0  0999 V2000
   -2.6020    0.5560   -0.4538 O   0  0  0  0  0  0  0  0  0  0  0  0
   -4.7934   -2.3581   -0.3344 O   0  0  0  0  0  0  0  0  0  0  0  0
   -1.6610    1.9084    1.2009 O   0  0  0  0  0  0  0  0  0  0  0  0
   -5.2952   -0.9990    2.2339 O   0  0  0  0  0  0  0  0  0  0  0  0
   -2.8821    0.2665    3.1895 O   0  0  0  0  0  0  0  0  0  0  0  0
   -5.5310   -1.7199   -2.4285 O   0  0  0  0  0  0  0  0  0  0  0  0
    0.2835    5.0334   -1.8386 O   0  0  0  0  0  0  0  0  0  0  0  0
    7.8064   -2.9733    0.0903 O   0  0  0  0  0  0  0  0  0  0  0  0
   -4.0686   -0.9572    1.5035 C   0  0  2  0  0  0  0  0  0  0  0  0
   -3.3561    0.3512    1.8457 C   0  0  2  0  0  0  0  0  0  0  0  0
   -4.3632   -1.0451    0.0065 C   0  0  1  0  0  0  0  0  0  0  0  0
   -2.1770    0.6110    0.9067 C   0  0  1  0  0  0  0  0  0  0  0  0
   -3.1161   -0.7239   -0.8050 C   0  0  0  0  0  0  0  0  0  0  0  0
   -0.5947    2.3269    0.4534 C   0  0  0  0  0  0  0  0  0  0  0  0
   -5.0976   -2.5599   -1.6516 C   0  0  0  0  0  0  0  0  0  0  0  0
    0.5904    1.5977    0.4708 C   0  0  0  0  0  0  0  0  0  0  0  0
   -0.7027    3.4796   -0.3188 C   0  0  0  0  0  0  0  0  0  0  0  0
    1.6778    2.0252   -0.2912 C   0  0  0  0  0  0  0  0  0  0  0  0
   -4.8209   -3.9848   -2.0247 C   0  0  0  0  0  0  0  0  0  0  0  0
    0.3846    3.9069   -1.0809 C   0  0  0  0  0  0  0  0  0  0  0  0
    1.5749    3.1798   -1.0672 C   0  0  0  0  0  0  0  0  0  0  0  0
    2.9188    1.2670   -0.2769 C   0  0  0  0  0  0  0  0  0  0  0  0
    3.0378   -0.0279    0.1011 C   0  0  0  0  0  0  0  0  0  0  0  0
    4.2915   -0.8023    0.0973 C   0  0  0  0  0  0  0  0  0  0  0  0
    5.5033   -0.1309    0.0939 C   0  0  0  0  0  0  0  0  0  0  0  0
    4.2336   -2.1864    0.0985 C   0  0  0  0  0  0  0  0  0  0  0  0
    6.6900   -0.8638    0.0912 C   0  0  0  0  0  0  0  0  0  0  0  0
    5.4204   -2.9193    0.0961 C   0  0  0  0  0  0  0  0  0  0  0  0
    6.6486   -2.2580    0.0923 C   0  0  0  0  0  0  0  0  0  0  0  0
   -3.4816   -1.8244    1.8304 H   0  0  0  0  0  0  0  0  0  0  0  0
   -4.0680    1.1856    1.8101 H   0  0  0  0  0  0  0  0  0  0  0  0
   -5.1681   -0.3353   -0.2282 H   0  0  0  0  0  0  0  0  0  0  0  0
   -1.3980   -0.1413    1.0876 H   0  0  0  0  0  0  0  0  0  0  0  0
   -2.3391   -1.4875   -0.6690 H   0  0  0  0  0  0  0  0  0  0  0  0
   -3.3229   -0.6909   -1.8783 H   0  0  0  0  0  0  0  0  0  0  0  0
   -5.0742   -0.9263    3.1782 H   0  0  0  0  0  0  0  0  0  0  0  0
   -2.4098    1.0943    3.3832 H   0  0  0  0  0  0  0  0  0  0  0  0
    0.6563    0.7289    1.1183 H   0  0  0  0  0  0  0  0  0  0  0  0
   -1.6310    4.0448   -0.3290 H   0  0  0  0  0  0  0  0  0  0  0  0
   -5.4402   -4.6529   -1.4210 H   0  0  0  0  0  0  0  0  0  0  0  0
   -3.7605   -4.2059   -1.8797 H   0  0  0  0  0  0  0  0  0  0  0  0
   -5.0679   -4.1382   -3.0791 H   0  0  0  0  0  0  0  0  0  0  0  0
    2.4188    3.5175   -1.6651 H   0  0  0  0  0  0  0  0  0  0  0  0
    3.7836    1.8174   -0.6366 H   0  0  0  0  0  0  0  0  0  0  0  0
    2.1659   -0.5987    0.4090 H   0  0  0  0  0  0  0  0  0  0  0  0
    1.1273    5.1808   -2.2993 H   0  0  0  0  0  0  0  0  0  0  0  0
    5.5839    0.9511    0.1164 H   0  0  0  0  0  0  0  0  0  0  0  0
    3.2850   -2.7166    0.0998 H   0  0  0  0  0  0  0  0  0  0  0  0
    7.6407   -0.3372    0.0936 H   0  0  0  0  0  0  0  0  0  0  0  0
    5.3819   -4.0052    0.0967 H   0  0  0  0  0  0  0  0  0  0  0  0
    8.5581   -2.3560    0.0876 H   0  0  0  0  0  0  0  0  0  0  0  0
  1 12  1  0  0  0  0
  1 13  1  0  0  0  0
  2 11  1  0  0  0  0
  2 15  1  0  0  0  0
  3 12  1  0  0  0  0
  3 14  1  0  0  0  0
  4  9  1  0  0  0  0
  4 36  1  0  0  0  0
  5 10  1  0  0  0  0
  5 37  1  0  0  0  0
  6 15  2  0  0  0  0
  7 20  1  0  0  0  0
  7 46  1  0  0  0  0
  8 29  1  0  0  0  0
  8 51  1  0  0  0  0
  9 10  1  0  0  0  0
  9 11  1  0  0  0  0
  9 30  1  0  0  0  0
 10 12  1  0  0  0  0
 10 31  1  0  0  0  0
 11 13  1  0  0  0  0
 11 32  1  0  0  0  0
 12 33  1  0  0  0  0
 13 34  1  0  0  0  0
 13 35  1  0  0  0  0
 14 16  2  0  0  0  0
 14 17  1  0  0  0  0
 15 19  1  0  0  0  0
 16 18  1  0  0  0  0
 16 38  1  0  0  0  0
 17 20  2  0  0  0  0
 17 39  1  0  0  0  0
 18 21  2  0  0  0  0
 18 22  1  0  0  0  0
 19 40  1  0  0  0  0
 19 41  1  0  0  0  0
 19 42  1  0  0  0  0
 20 21  1  0  0  0  0
 21 43  1  0  0  0  0
 22 23  2  0  0  0  0
 22 44  1  0  0  0  0
 23 24  1  0  0  0  0
 23 45  1  0  0  0  0
 24 25  2  0  0  0  0
 24 26  1  0  0  0  0
 25 27  1  0  0  0  0
 25 47  1  0  0  0  0
 26 28  2  0  0  0  0
 26 48  1  0  0  0  0
 27 29  2  0  0  0  0
 27 49  1  0  0  0  0
 28 29  1  0  0  0  0
 28 50  1  0  0  0  0
M  END
> <PUBCHEM_COMPOUND_CID>
11292556

> <PUBCHEM_CONFORMER_RMSD>
0.8

> <PUBCHEM_CONFORMER_DIVERSEORDER>
1
53
292
204
360
176
158
447
23
151
278
255
228
350
409
382
56
266
328
302
44
306
186
120
52
43
454
384
195
220
18
169
402
157
2
411
416
202
218
62
241
94
213
171
224
183
397
309
314
55
58
343
47
99
115
291
105
448
311
121
231
170
270
72
35
412
235
222
79
111
68
312
243
336
98
83
374
131
430
210
130
209
264
371
178
76
97
418
421
383
429
267
323
318
112
106
236
370
28
177
34
340
12
407
339
284
229
410
245
190
87
127
269
201
260
86
113
8
89
438
257
449
4
123
74
70
203
234
181
436
24
135
66
251
293
341
242
346
109
435
456
138
377
172
15
166
337
390
108
426
281
313
275
216
280
434
134
320
259
48
196
165
253
408
304
25
417
396
298
46
415
425
197
137
451
378
38
118
268
211
187
362
156
363
22
276
437
453
78
246
422
75
333
307
316
300
160
125
200
442
287
217
290
175
327
128
261
233
404
347
19
3
92
400
180
37
82
5
95
122
373
279
361
49
443
64
258
428
140
126
69
77
27
146
238
232
332
289
375
376
424
14
283
273
441
50
405
401
60
427
288
450
142
301
63
10
348
282
286
334
331
303
57
403
392
167
40
153
395
367
250
13
65
215
420
321
297
388
36
357
263
329
431
353
59
116
265
163
214
385
252
93
330
223
325
107
21
88
119
26
162
96
193
358
155
226
141
51
90
159
387
295
192
372
364
104
30
277
45
164
439
42
174
161
244
29
17
399
305
205
247
91
100
189
389
145
432
406
344
84
179
129
114
102
299
365
351
319
256
413
386
80
308
101
239
294
237
342
143
147
423
369
285
349
272
398
185
103
310
61
419
391
326
199
324
184
6
394
352
31
356
149
124
230
148
152
227
444
225
73
393
366
117
335
206
452
39
338
254
154
173
150
455
32
144
11
136
445
446
221
345
322
207
355
296
248
198
85
182
354
208
194
139
133
20
54
9
414
359
381
240
433
41
274
315
67
71
33
380
191
188
262
168
16
7
110
379
219
249
132
271
81
368
212
440
317

> <PUBCHEM_MMFF94_PARTIAL_CHARGES>
42
1 -0.56
10 0.28
11 0.28
12 0.56
13 0.28
14 0.08
15 0.66
16 -0.15
17 -0.15
18 0.03
19 0.06
2 -0.43
20 0.08
21 -0.15
22 -0.18
23 -0.18
24 0.03
25 -0.15
26 -0.15
27 -0.15
28 -0.15
29 0.08
3 -0.36
36 0.4
37 0.4
38 0.15
39 0.15
4 -0.68
43 0.15
44 0.15
45 0.15
46 0.45
47 0.15
48 0.15
49 0.15
5 -0.68
50 0.15
51 0.45
6 -0.57
7 -0.53
8 -0.53
9 0.28

> <PUBCHEM_EFFECTIVE_ROTOR_COUNT>
7.2

> <PUBCHEM_PHARMACOPHORE_FEATURES>
12
1 1 acceptor
1 3 acceptor
1 4 acceptor
1 4 donor
1 5 acceptor
1 5 donor
1 6 acceptor
1 7 donor
1 8 donor
6 1 9 10 11 12 13 rings
6 14 16 17 18 20 21 rings
6 24 25 26 27 28 29 rings

> <PUBCHEM_HEAVY_ATOM_COUNT>
29

> <PUBCHEM_ATOM_DEF_STEREO_COUNT>
4

> <PUBCHEM_ATOM_UDEF_STEREO_COUNT>
0

> <PUBCHEM_BOND_DEF_STEREO_COUNT>
1

> <PUBCHEM_BOND_UDEF_STEREO_COUNT>
0

> <PUBCHEM_ISOTOPIC_ATOM_COUNT>
0

> <PUBCHEM_COMPONENT_COUNT>
1

> <PUBCHEM_CACTVS_TAUTO_COUNT>
16

> <PUBCHEM_CONFORMER_ID>
00AC4F8C00000001

> <PUBCHEM_MMFF94_ENERGY>
93.9565

> <PUBCHEM_FEATURE_SELFOVERLAP>
60.949

> <PUBCHEM_SHAPE_FINGERPRINT>
10319926 262 15912784833072873632
10483366 6 18193538001471094661
10622 236 18128812130923331975
11069576 57 18122060072544793957
11135609 149 18263073469778714293
11135926 11 17972052593561818772
11409948 35 17980194512338433759
11497681 19 18342740720258695484
11552529 35 18126564518913672392
11621639 183 14835301865109701098
12107183 9 18340502088546325297
12218070 45 17988921193465041734
12342043 65 16953123052051149745
12422481 6 17916598518176281358
12559416 138 18334858273464894530
12988421 55 10663818551192955048
13885169 86 9583513248302626678
14114206 34 17386006113797486352
14429380 30 18410013251871361050
14674994 50 18267303127949963805
14844126 61 18193000322271844888
14950920 106 17203323403861912720
15320294 125 17918003793327579975
15361156 5 18115324267440802828
15419009 47 18338221679939761357
15803439 3 17031879647750775668
16989713 51 18339924789191486198
16993438 75 18045774598546918373
19315092 285 17774722086024716848
19319366 153 17334493199498685101
20691028 202 9367337150711668742
20775530 9 18260828176766012296
21049683 118 15118781222075636963
21133410 171 17392146899202814562
21774942 28 12035446147786841942
23536364 44 17676486112092924257
25019877 29 17324645483792970924
25025965 108 18192695766853815314
2748736 6 8862943849411740518
314194 84 18337400434525800744
437795 70 17677590048201569869
46194498 28 16300090123286847541
484985 159 18269548352152173997
56633871 153 18270972245385144723
59025328 239 18265041604314191149
5937810 71 11310901000754909338
6058803 2 18055094278860137713
613672 6 18114737230883258488
6201460 15 17770486844392000518
6431902 208 18261398797985055738
6677587 24 16532522617145283029
6691757 9 17488754368060405433
70251023 43 18191863634003175109
7970288 3 18412258463031121694
96874 4 18130780217887432871

> <PUBCHEM_SHAPE_MULTIPOLES>
549.85
16.83
5.48
1.93
17.27
3.36
0.59
-25.07
-0.56
0.18
-3.82
-4.56
-0.23
-3.35

> <PUBCHEM_SHAPE_SELFOVERLAP>
1176.728

> <PUBCHEM_SHAPE_VOLUME>
302

> <PUBCHEM_COORDINATE_TYPE>
2
5
10

$$$$
