11290373
  -OEChem-03292013303D

 40 41  0     1  0  0  0  0  0999 V2000
   -0.8263   -0.9089   -0.3089 O   0  0  0  0  0  0  0  0  0  0  0  0
   -2.5738   -3.8474    0.4950 O   0  0  0  0  0  0  0  0  0  0  0  0
   -5.2134    3.8906    0.7859 O   0  0  0  0  0  0  0  0  0  0  0  0
   -1.0667   -3.5134   -1.1694 O   0  0  0  0  0  0  0  0  0  0  0  0
    0.2214   -2.2316    1.2690 O   0  0  0  0  0  0  0  0  0  0  0  0
    7.3367    2.0217   -0.5085 O   0  0  0  0  0  0  0  0  0  0  0  0
   -3.1218   -1.0263   -1.0253 C   0  0  0  0  0  0  0  0  0  0  0  0
   -2.0648   -1.5863   -0.0710 C   0  0  1  0  0  0  0  0  0  0  0  0
   -3.6814    0.2896   -0.5403 C   0  0  0  0  0  0  0  0  0  0  0  0
   -4.7945    0.2911    0.2846 C   0  0  0  0  0  0  0  0  0  0  0  0
   -3.0714    1.4711   -0.9300 C   0  0  0  0  0  0  0  0  0  0  0  0
   -1.8354   -3.0616   -0.3308 C   0  0  0  0  0  0  0  0  0  0  0  0
   -5.3117    1.5070    0.7318 C   0  0  0  0  0  0  0  0  0  0  0  0
   -3.5885    2.6869   -0.4827 C   0  0  0  0  0  0  0  0  0  0  0  0
   -4.7087    2.7048    0.3482 C   0  0  0  0  0  0  0  0  0  0  0  0
    0.2281   -1.3404    0.4347 C   0  0  0  0  0  0  0  0  0  0  0  0
    3.8325   -0.0348    0.3395 C   0  0  0  0  0  0  0  0  0  0  0  0
    1.4063   -0.5289    0.0540 C   0  0  0  0  0  0  0  0  0  0  0  0
    2.6048   -0.7560    0.6360 C   0  0  0  0  0  0  0  0  0  0  0  0
    3.7756    1.2182   -0.2709 C   0  0  0  0  0  0  0  0  0  0  0  0
    5.0671   -0.5967    0.6650 C   0  0  0  0  0  0  0  0  0  0  0  0
    4.9533    1.9092   -0.5557 C   0  0  0  0  0  0  0  0  0  0  0  0
    6.2447    0.0945    0.3802 C   0  0  0  0  0  0  0  0  0  0  0  0
    6.1880    1.3474   -0.2302 C   0  0  0  0  0  0  0  0  0  0  0  0
   -3.9486   -1.7396   -1.1410 H   0  0  0  0  0  0  0  0  0  0  0  0
   -2.7003   -0.8923   -2.0306 H   0  0  0  0  0  0  0  0  0  0  0  0
   -2.3475   -1.4395    0.9792 H   0  0  0  0  0  0  0  0  0  0  0  0
   -5.2695   -0.6366    0.5905 H   0  0  0  0  0  0  0  0  0  0  0  0
   -2.1981    1.4676   -1.5761 H   0  0  0  0  0  0  0  0  0  0  0  0
   -6.1841    1.5146    1.3795 H   0  0  0  0  0  0  0  0  0  0  0  0
   -3.1092    3.6131   -0.7884 H   0  0  0  0  0  0  0  0  0  0  0  0
    1.2578    0.2221   -0.7138 H   0  0  0  0  0  0  0  0  0  0  0  0
    2.6937   -1.5431    1.3820 H   0  0  0  0  0  0  0  0  0  0  0  0
    2.8375    1.7033   -0.5241 H   0  0  0  0  0  0  0  0  0  0  0  0
    5.1315   -1.5729    1.1396 H   0  0  0  0  0  0  0  0  0  0  0  0
   -2.4161   -4.8013    0.3294 H   0  0  0  0  0  0  0  0  0  0  0  0
    4.8959    2.8866   -1.0275 H   0  0  0  0  0  0  0  0  0  0  0  0
    7.2035   -0.3484    0.6356 H   0  0  0  0  0  0  0  0  0  0  0  0
   -4.6740    4.6150    0.4247 H   0  0  0  0  0  0  0  0  0  0  0  0
    7.1108    2.8689   -0.9295 H   0  0  0  0  0  0  0  0  0  0  0  0
  1  8  1  0  0  0  0
  1 16  1  0  0  0  0
  2 12  1  0  0  0  0
  2 36  1  0  0  0  0
  3 15  1  0  0  0  0
  3 39  1  0  0  0  0
  4 12  2  0  0  0  0
  5 16  2  0  0  0  0
  6 24  1  0  0  0  0
  6 40  1  0  0  0  0
  7  8  1  0  0  0  0
  7  9  1  0  0  0  0
  7 25  1  0  0  0  0
  7 26  1  0  0  0  0
  8 12  1  0  0  0  0
  8 27  1  0  0  0  0
  9 10  2  0  0  0  0
  9 11  1  0  0  0  0
 10 13  1  0  0  0  0
 10 28  1  0  0  0  0
 11 14  2  0  0  0  0
 11 29  1  0  0  0  0
 13 15  2  0  0  0  0
 13 30  1  0  0  0  0
 14 15  1  0  0  0  0
 14 31  1  0  0  0  0
 16 18  1  0  0  0  0
 17 19  1  0  0  0  0
 17 20  2  0  0  0  0
 17 21  1  0  0  0  0
 18 19  2  0  0  0  0
 18 32  1  0  0  0  0
 19 33  1  0  0  0  0
 20 22  1  0  0  0  0
 20 34  1  0  0  0  0
 21 23  2  0  0  0  0
 21 35  1  0  0  0  0
 22 24  2  0  0  0  0
 22 37  1  0  0  0  0
 23 24  1  0  0  0  0
 23 38  1  0  0  0  0
M  END
> <PUBCHEM_COMPOUND_CID>
11290373

> <PUBCHEM_CONFORMER_RMSD>
0.8

> <PUBCHEM_CONFORMER_DIVERSEORDER>
1
67
52
116
42
40
132
71
12
38
108
107
135
72
60
70
109
2
92
35
95
87
57
15
74
84
91
78
105
134
121
104
136
36
110
8
68
4
102
21
143
17
142
97
99
98
80
83
86
25
119
56
16
30
19
22
7
48
34
114
88
100
94
43
85
131
101
47
65
10
45
59
5
81
29
39
31
103
127
6
33
130
27
139
14
69
111
53
117
140
37
76
32
9
63
133
46
50
118
77
54
96
82
125
123
3
28
51
89
79
90
126
124
20
44
18
24
23
122
106
75
112
141
115
93
113
128
55
58
120
13
129
11
138
64
73
66
49
61
137
26
62
41

> <PUBCHEM_MMFF94_PARTIAL_CHARGES>
37
1 -0.43
10 -0.15
11 -0.15
12 0.66
13 -0.15
14 -0.15
15 0.08
16 0.71
17 0.03
18 -0.14
19 -0.18
2 -0.65
20 -0.15
21 -0.15
22 -0.15
23 -0.15
24 0.08
28 0.15
29 0.15
3 -0.53
30 0.15
31 0.15
32 0.15
33 0.15
34 0.15
35 0.15
36 0.5
37 0.15
38 0.15
39 0.45
4 -0.57
40 0.45
5 -0.57
6 -0.53
7 0.14
8 0.34
9 -0.14

> <PUBCHEM_EFFECTIVE_ROTOR_COUNT>
7

> <PUBCHEM_PHARMACOPHORE_FEATURES>
8
1 2 acceptor
1 3 donor
1 4 acceptor
1 5 acceptor
1 6 donor
3 2 4 12 anion
6 17 20 21 22 23 24 rings
6 9 10 11 13 14 15 rings

> <PUBCHEM_HEAVY_ATOM_COUNT>
24

> <PUBCHEM_ATOM_DEF_STEREO_COUNT>
0

> <PUBCHEM_ATOM_UDEF_STEREO_COUNT>
1

> <PUBCHEM_BOND_DEF_STEREO_COUNT>
1

> <PUBCHEM_BOND_UDEF_STEREO_COUNT>
0

> <PUBCHEM_ISOTOPIC_ATOM_COUNT>
0

> <PUBCHEM_COMPONENT_COUNT>
1

> <PUBCHEM_CACTVS_TAUTO_COUNT>
4

> <PUBCHEM_CONFORMER_ID>
00AC470500000001

> <PUBCHEM_MMFF94_ENERGY>
60.6098

> <PUBCHEM_FEATURE_SELFOVERLAP>
40.655

> <PUBCHEM_SHAPE_FINGERPRINT>
10411042 1 17762055841381561743
105312 117 18202282511081353182
10595046 47 18190737729901481614
12107183 9 18191012427388372106
12390115 104 18342464703526223113
13073987 5 18188767379352810322
13167372 99 18409165498689266784
13785724 45 17687738343011051226
13885169 86 18335146383690712513
14251757 5 18343020016516440408
14251764 75 18126291835640421977
14257110 125 18410290273119453453
14347329 18 18341887494065062912
14713325 29 18337392755066785931
14790565 3 18338800009406197337
15064981 194 18116160058932405719
15163728 17 18201727193500847615
15183329 4 18260820510898189670
15338160 23 18335990852266245907
15604295 49 18127688456516950096
15778101 99 18409732889374926518
16120349 67 18130236955757608473
16126227 98 18412268345692711185
1768 23 17823156612995853316
17844677 252 18192153905083002854
18785283 64 18050002191034473311
20101258 96 17976825611939401499
20621476 66 18341051835100202840
20691028 202 18412258407064963897
21365058 113 16762550912353407287
21756936 100 18342170068590337087
270888 7 18268147565938726809
2838139 119 18272644649847222212
312425 54 12757696583296057860
3610482 184 18188222008415240628
38570 142 18113909225897922234
397830 11 10881681365037162966
5104073 3 17895464934592151898
5283173 99 18342173423260540776
57724786 102 18193270793584255043
59755656 520 17312823775530955682
6126387 218 18201432546957004338
6299153 45 18264765468387459546
6327066 14 18337103467828919965
636775 72 18267018556929697472
6700243 42 17552113944011063534
7062679 6 18409168818261162604
7808743 9 18410570686822361307
7970288 3 9006755593510852705

> <PUBCHEM_SHAPE_MULTIPOLES>
458.69
16.56
4.15
0.95
20.55
1.27
0.02
-15.67
-0.7
-5.95
0.01
-0.35
0.12
-1.72

> <PUBCHEM_SHAPE_SELFOVERLAP>
978.805

> <PUBCHEM_SHAPE_VOLUME>
252.9

> <PUBCHEM_COORDINATE_TYPE>
2
5
10

$$$$
