11290362
  -OEChem-03292013303D

 36 36  0     1  0  0  0  0  0999 V2000
    0.9018   -3.4586    1.8434 Cl  0  0  0  0  0  0  0  0  0  0  0  0
    0.5598    4.0775    0.8796 O   0  0  0  0  0  0  0  0  0  0  0  0
    2.5575    4.1967   -0.1716 O   0  0  0  0  0  0  0  0  0  0  0  0
    2.3720   -4.2556   -0.6547 O   0  0  0  0  0  0  0  0  0  0  0  0
   -0.6913    1.0210   -1.7902 O   0  0  0  0  0  0  0  0  0  0  0  0
   -5.1725   -0.7402   -0.7777 O   0  0  0  0  0  0  0  0  0  0  0  0
   -4.4566   -0.2456    1.3627 O   0  0  0  0  0  0  0  0  0  0  0  0
    0.1498    1.5605    0.3077 N   0  0  0  0  0  0  0  0  0  0  0  0
    2.5854    1.2638    0.5053 C   0  0  0  0  0  0  0  0  0  0  0  0
    1.4351    2.0544   -0.1315 C   0  0  2  0  0  0  0  0  0  0  0  0
    2.5235   -0.2139    0.2019 C   0  0  0  0  0  0  0  0  0  0  0  0
    1.8269   -1.0541    1.0556 C   0  0  0  0  0  0  0  0  0  0  0  0
    3.1647   -0.7025   -0.9253 C   0  0  0  0  0  0  0  0  0  0  0  0
    1.5867    3.5356    0.1820 C   0  0  0  0  0  0  0  0  0  0  0  0
    1.7700   -2.4194    0.7747 C   0  0  0  0  0  0  0  0  0  0  0  0
    3.1078   -2.0675   -1.2062 C   0  0  0  0  0  0  0  0  0  0  0  0
    2.4104   -2.9259   -0.3562 C   0  0  0  0  0  0  0  0  0  0  0  0
   -0.8081    1.0831   -0.5705 C   0  0  0  0  0  0  0  0  0  0  0  0
   -2.0401    0.6400    0.1403 C   0  0  0  0  0  0  0  0  0  0  0  0
   -3.0698    0.1490   -0.5598 C   0  0  0  0  0  0  0  0  0  0  0  0
   -4.2899   -0.2888    0.1541 C   0  0  0  0  0  0  0  0  0  0  0  0
   -6.4232   -1.2095   -0.2633 C   0  0  0  0  0  0  0  0  0  0  0  0
    2.5839    1.4087    1.5948 H   0  0  0  0  0  0  0  0  0  0  0  0
    3.5513    1.6637    0.1683 H   0  0  0  0  0  0  0  0  0  0  0  0
    1.4849    1.9675   -1.2239 H   0  0  0  0  0  0  0  0  0  0  0  0
   -0.0534    1.6038    1.3024 H   0  0  0  0  0  0  0  0  0  0  0  0
    1.3317   -0.6558    1.9377 H   0  0  0  0  0  0  0  0  0  0  0  0
    3.7080   -0.0412   -1.5941 H   0  0  0  0  0  0  0  0  0  0  0  0
    3.6086   -2.4552   -2.0891 H   0  0  0  0  0  0  0  0  0  0  0  0
   -2.0697    0.7271    1.2214 H   0  0  0  0  0  0  0  0  0  0  0  0
    0.6993    5.0324    1.0555 H   0  0  0  0  0  0  0  0  0  0  0  0
    1.8508   -4.7070    0.0317 H   0  0  0  0  0  0  0  0  0  0  0  0
   -3.0484    0.0575   -1.6404 H   0  0  0  0  0  0  0  0  0  0  0  0
   -7.0350   -1.5406   -1.1067 H   0  0  0  0  0  0  0  0  0  0  0  0
   -6.2619   -2.0581    0.4083 H   0  0  0  0  0  0  0  0  0  0  0  0
   -6.9471   -0.4004    0.2546 H   0  0  0  0  0  0  0  0  0  0  0  0
  1 15  1  0  0  0  0
  2 14  1  0  0  0  0
  2 31  1  0  0  0  0
  3 14  2  0  0  0  0
  4 17  1  0  0  0  0
  4 32  1  0  0  0  0
  5 18  2  0  0  0  0
  6 21  1  0  0  0  0
  6 22  1  0  0  0  0
  7 21  2  0  0  0  0
  8 10  1  0  0  0  0
  8 18  1  0  0  0  0
  8 26  1  0  0  0  0
  9 10  1  0  0  0  0
  9 11  1  0  0  0  0
  9 23  1  0  0  0  0
  9 24  1  0  0  0  0
 10 14  1  0  0  0  0
 10 25  1  0  0  0  0
 11 12  2  0  0  0  0
 11 13  1  0  0  0  0
 12 15  1  0  0  0  0
 12 27  1  0  0  0  0
 13 16  2  0  0  0  0
 13 28  1  0  0  0  0
 15 17  2  0  0  0  0
 16 17  1  0  0  0  0
 16 29  1  0  0  0  0
 18 19  1  0  0  0  0
 19 20  2  0  0  0  0
 19 30  1  0  0  0  0
 20 21  1  0  0  0  0
 20 33  1  0  0  0  0
 22 34  1  0  0  0  0
 22 35  1  0  0  0  0
 22 36  1  0  0  0  0
M  END
> <PUBCHEM_COMPOUND_CID>
11290362

> <PUBCHEM_CONFORMER_RMSD>
0.8

> <PUBCHEM_CONFORMER_DIVERSEORDER>
1
51
101
97
128
115
159
158
50
78
48
80
93
152
150
17
7
98
25
82
119
21
73
112
77
46
102
124
41
47
9
143
67
31
108
120
127
66
160
87
138
110
151
14
43
114
96
61
141
56
130
76
63
155
72
104
30
42
54
37
90
19
26
35
142
144
136
69
169
164
81
140
16
149
109
59
106
117
68
99
94
145
22
161
118
132
89
4
168
71
157
27
36
107
113
45
103
121
105
154
147
5
11
86
28
153
40
100
111
3
38
23
88
58
44
166
146
15
10
139
95
156
85
74
116
18
12
55
70
92
134
53
20
83
49
137
62
34
29
129
162
125
84
79
122
135
163
8
24
91
148
126
60
64
13
131
52
6
133
167
39
32
33
57
123
75
2
165
65

> <PUBCHEM_MMFF94_PARTIAL_CHARGES>
30
1 -0.18
10 0.36
11 -0.14
12 -0.15
13 -0.15
14 0.66
15 0.18
16 -0.15
17 0.08
18 0.62
19 -0.14
2 -0.65
20 -0.14
21 0.71
22 0.28
26 0.37
27 0.15
28 0.15
29 0.15
3 -0.57
30 0.15
31 0.5
32 0.45
33 0.15
4 -0.53
5 -0.57
6 -0.43
7 -0.57
8 -0.73
9 0.14

> <PUBCHEM_EFFECTIVE_ROTOR_COUNT>
8

> <PUBCHEM_PHARMACOPHORE_FEATURES>
8
1 2 acceptor
1 3 acceptor
1 4 donor
1 5 acceptor
1 7 acceptor
1 8 donor
3 2 3 14 anion
6 11 12 13 15 16 17 rings

> <PUBCHEM_HEAVY_ATOM_COUNT>
22

> <PUBCHEM_ATOM_DEF_STEREO_COUNT>
1

> <PUBCHEM_ATOM_UDEF_STEREO_COUNT>
0

> <PUBCHEM_BOND_DEF_STEREO_COUNT>
1

> <PUBCHEM_BOND_UDEF_STEREO_COUNT>
0

> <PUBCHEM_ISOTOPIC_ATOM_COUNT>
0

> <PUBCHEM_COMPONENT_COUNT>
1

> <PUBCHEM_CACTVS_TAUTO_COUNT>
6

> <PUBCHEM_CONFORMER_ID>
00AC46FA00000001

> <PUBCHEM_MMFF94_ENERGY>
46.203

> <PUBCHEM_FEATURE_SELFOVERLAP>
40.658

> <PUBCHEM_SHAPE_FINGERPRINT>
114674 6 18261109686129179451
12107183 9 18055928593621410193
12553582 1 18267303127553597427
12788726 201 17471293955089744497
13464513 79 18341892978833563166
13533116 47 18342177821702541123
13692114 37 17694770127248116138
13785724 45 18056775230185282319
13955234 65 18270682099064564617
14863182 85 18410855486546883684
15422964 175 18268136570516143068
15635459 17 18187080650789568179
17818456 19 17702113469711793737
17859628 70 18411702110215616479
19427546 62 17832702748920615117
20645477 70 18336820996292987941
21197605 99 17904203981601213027
2255824 54 18339921622930046420
22849339 104 16902733146851281814
23379529 103 17695918721794650766
23558518 356 16904388474381432869
23728640 28 16608282790428954034
238 59 18335989760664135795
23845131 108 17621025891195606265
239999 70 18341050804276331919
31174 14 18409721859519141669
314173 41 18265332807169787189
3421961 26 18341610391085406089
5309563 4 18268710519812484823
57527585 21 15290193954667902654
6025842 7 18267581489138116997
6443956 14 18337392630359175301
81228 2 17548389541819761072
8272917 22 18340487888846367557
9777508 108 17044571808786502673

> <PUBCHEM_SHAPE_MULTIPOLES>
414.42
8.88
5.31
1.28
20.82
2.24
-0.09
-5.38
1.34
-6.5
-1.02
-0.24
-0.71
0.42

> <PUBCHEM_SHAPE_SELFOVERLAP>
847.286

> <PUBCHEM_SHAPE_VOLUME>
238.3

> <PUBCHEM_COORDINATE_TYPE>
2
5
10

$$$$
