11294179
  -OEChem-03292013303D

 54 57  0     1  0  0  0  0  0999 V2000
   -4.0696   -2.9526   -1.8385 F   0  0  0  0  0  0  0  0  0  0  0  0
   -2.4424   -2.6453   -0.4296 F   0  0  0  0  0  0  0  0  0  0  0  0
   -4.4662   -2.9890    0.3053 F   0  0  0  0  0  0  0  0  0  0  0  0
    6.9078    1.1534   -0.8447 O   0  0  0  0  0  0  0  0  0  0  0  0
    4.5624    0.4539   -2.3504 O   0  0  0  0  0  0  0  0  0  0  0  0
    3.1173   -0.9239    2.6091 O   0  0  0  0  0  0  0  0  0  0  0  0
    3.4035   -1.8678   -3.1182 O   0  0  0  0  0  0  0  0  0  0  0  0
    3.0866    0.5181    0.7931 N   0  0  0  0  0  0  0  0  0  0  0  0
    3.9821   -1.7274   -1.8495 N   0  0  0  0  0  0  0  0  0  0  0  0
   -3.7780   -0.0905    0.3992 N   0  0  0  0  0  0  0  0  0  0  0  0
   -4.5134   -0.2015   -1.6744 N   0  0  0  0  0  0  0  0  0  0  0  0
    4.5151    0.6643    0.6692 C   0  0  1  0  0  0  0  0  0  0  0  0
    5.1519   -0.4239   -0.2069 C   0  0  2  0  0  0  0  0  0  0  0  0
    4.9010    2.0623    0.1828 C   0  0  0  0  0  0  0  0  0  0  0  0
    6.6538   -0.1655   -0.3534 C   0  0  0  0  0  0  0  0  0  0  0  0
    6.4127    2.1681    0.0271 C   0  0  0  0  0  0  0  0  0  0  0  0
    4.5366   -0.5037   -1.5801 C   0  0  0  0  0  0  0  0  0  0  0  0
    2.5000   -0.2760    1.7677 C   0  0  0  0  0  0  0  0  0  0  0  0
    1.0161   -0.3427    1.7457 C   0  0  0  0  0  0  0  0  0  0  0  0
   -3.2293   -0.5304    1.6863 C   0  0  0  0  0  0  0  0  0  0  0  0
   -1.7395   -0.4637    1.7076 C   0  0  0  0  0  0  0  0  0  0  0  0
   -4.1232    1.1871    0.0899 C   0  0  0  0  0  0  0  0  0  0  0  0
    0.3916   -1.4651    2.2488 C   0  0  0  0  0  0  0  0  0  0  0  0
    0.3095    0.7213    1.2242 C   0  0  0  0  0  0  0  0  0  0  0  0
   -4.0218   -0.8888   -0.6679 C   0  0  0  0  0  0  0  0  0  0  0  0
   -1.0018   -1.5263    2.2295 C   0  0  0  0  0  0  0  0  0  0  0  0
   -1.0839    0.6601    1.2050 C   0  0  0  0  0  0  0  0  0  0  0  0
   -4.5840    1.0955   -1.2206 C   0  0  0  0  0  0  0  0  0  0  0  0
   -4.0804    2.3842    0.8055 C   0  0  0  0  0  0  0  0  0  0  0  0
   -3.7529   -2.3417   -0.6598 C   0  0  0  0  0  0  0  0  0  0  0  0
   -5.0324    2.2572   -1.8716 C   0  0  0  0  0  0  0  0  0  0  0  0
   -4.5308    3.5305    0.1422 C   0  0  0  0  0  0  0  0  0  0  0  0
   -4.9985    3.4702   -1.1725 C   0  0  0  0  0  0  0  0  0  0  0  0
    4.9345    0.5503    1.6789 H   0  0  0  0  0  0  0  0  0  0  0  0
    5.0236   -1.3930    0.2934 H   0  0  0  0  0  0  0  0  0  0  0  0
    4.4085    2.2932   -0.7680 H   0  0  0  0  0  0  0  0  0  0  0  0
    4.5519    2.8178    0.8972 H   0  0  0  0  0  0  0  0  0  0  0  0
    7.1700   -0.2943    0.6055 H   0  0  0  0  0  0  0  0  0  0  0  0
    7.1007   -0.8699   -1.0636 H   0  0  0  0  0  0  0  0  0  0  0  0
    6.9191    2.0929    0.9966 H   0  0  0  0  0  0  0  0  0  0  0  0
    6.6747    3.1384   -0.4065 H   0  0  0  0  0  0  0  0  0  0  0  0
    2.5209    0.9336    0.0607 H   0  0  0  0  0  0  0  0  0  0  0  0
   -3.6467    0.1141    2.4685 H   0  0  0  0  0  0  0  0  0  0  0  0
   -3.6022   -1.5393    1.8851 H   0  0  0  0  0  0  0  0  0  0  0  0
    4.0217   -2.5544   -1.2644 H   0  0  0  0  0  0  0  0  0  0  0  0
    0.9514   -2.3028    2.6537 H   0  0  0  0  0  0  0  0  0  0  0  0
    0.7807    1.6277    0.8584 H   0  0  0  0  0  0  0  0  0  0  0  0
   -1.4999   -2.4084    2.6231 H   0  0  0  0  0  0  0  0  0  0  0  0
   -1.6028    1.5209    0.8080 H   0  0  0  0  0  0  0  0  0  0  0  0
   -3.7247    2.4380    1.8281 H   0  0  0  0  0  0  0  0  0  0  0  0
   -5.3978    2.2210   -2.8929 H   0  0  0  0  0  0  0  0  0  0  0  0
   -4.5173    4.4858    0.6611 H   0  0  0  0  0  0  0  0  0  0  0  0
    3.6467   -2.7872   -3.3199 H   0  0  0  0  0  0  0  0  0  0  0  0
   -5.3422    4.3781   -1.6615 H   0  0  0  0  0  0  0  0  0  0  0  0
  1 30  1  0  0  0  0
  2 30  1  0  0  0  0
  3 30  1  0  0  0  0
  4 15  1  0  0  0  0
  4 16  1  0  0  0  0
  5 17  2  0  0  0  0
  6 18  2  0  0  0  0
  7  9  1  0  0  0  0
  7 53  1  0  0  0  0
  8 12  1  0  0  0  0
  8 18  1  0  0  0  0
  8 42  1  0  0  0  0
  9 17  1  0  0  0  0
  9 45  1  0  0  0  0
 10 20  1  0  0  0  0
 10 22  1  0  0  0  0
 10 25  1  0  0  0  0
 11 25  2  0  0  0  0
 11 28  1  0  0  0  0
 12 13  1  0  0  0  0
 12 14  1  0  0  0  0
 12 34  1  0  0  0  0
 13 15  1  0  0  0  0
 13 17  1  0  0  0  0
 13 35  1  0  0  0  0
 14 16  1  0  0  0  0
 14 36  1  0  0  0  0
 14 37  1  0  0  0  0
 15 38  1  0  0  0  0
 15 39  1  0  0  0  0
 16 40  1  0  0  0  0
 16 41  1  0  0  0  0
 18 19  1  0  0  0  0
 19 23  2  0  0  0  0
 19 24  1  0  0  0  0
 20 21  1  0  0  0  0
 20 43  1  0  0  0  0
 20 44  1  0  0  0  0
 21 26  2  0  0  0  0
 21 27  1  0  0  0  0
 22 28  1  0  0  0  0
 22 29  2  0  0  0  0
 23 26  1  0  0  0  0
 23 46  1  0  0  0  0
 24 27  2  0  0  0  0
 24 47  1  0  0  0  0
 25 30  1  0  0  0  0
 26 48  1  0  0  0  0
 27 49  1  0  0  0  0
 28 31  2  0  0  0  0
 29 32  1  0  0  0  0
 29 50  1  0  0  0  0
 31 33  1  0  0  0  0
 31 51  1  0  0  0  0
 32 33  2  0  0  0  0
 32 52  1  0  0  0  0
 33 54  1  0  0  0  0
M  END
> <PUBCHEM_COMPOUND_CID>
11294179

> <PUBCHEM_CONFORMER_RMSD>
1

> <PUBCHEM_CONFORMER_DIVERSEORDER>
1
50
6
4
20
39
64
41
33
37
56
28
75
47
51
74
24
52
48
35
71
70
65
36
13
42
68
58
30
38
61
40
5
59
49
66
34
60
26
43
67
15
63
23
69
62
27
25
32
46
55
72
18
17
53
57
10
76
45
14
73
31
9
12
16
8
44
21
3
11
7
29
22
19
54
2

> <PUBCHEM_MMFF94_PARTIAL_CHARGES>
43
1 -0.34
10 0.05
11 -0.57
12 0.3
13 0.06
15 0.28
16 0.28
17 0.57
18 0.54
19 0.09
2 -0.34
20 0.4
21 -0.14
22 -0.15
23 -0.15
24 -0.15
25 0.01
26 -0.15
27 -0.15
28 0.23
29 -0.15
3 -0.34
30 1.2
31 -0.15
32 -0.15
33 -0.15
4 -0.56
42 0.37
45 0.37
46 0.15
47 0.15
48 0.15
49 0.15
5 -0.57
50 0.15
51 0.15
52 0.15
53 0.4
54 0.15
6 -0.57
7 -0.44
8 -0.73
9 -0.39

> <PUBCHEM_EFFECTIVE_ROTOR_COUNT>
9.2

> <PUBCHEM_PHARMACOPHORE_FEATURES>
10
1 4 acceptor
1 5 acceptor
1 6 acceptor
1 8 donor
1 9 donor
3 10 11 25 cation
5 10 11 22 25 28 rings
6 19 21 23 24 26 27 rings
6 22 28 29 31 32 33 rings
6 4 12 13 14 15 16 rings

> <PUBCHEM_HEAVY_ATOM_COUNT>
33

> <PUBCHEM_ATOM_DEF_STEREO_COUNT>
2

> <PUBCHEM_ATOM_UDEF_STEREO_COUNT>
0

> <PUBCHEM_BOND_DEF_STEREO_COUNT>
0

> <PUBCHEM_BOND_UDEF_STEREO_COUNT>
0

> <PUBCHEM_ISOTOPIC_ATOM_COUNT>
0

> <PUBCHEM_COMPONENT_COUNT>
1

> <PUBCHEM_CACTVS_TAUTO_COUNT>
6

> <PUBCHEM_CONFORMER_ID>
00AC55E300000001

> <PUBCHEM_MMFF94_ENERGY>
75.4611

> <PUBCHEM_FEATURE_SELFOVERLAP>
50.857

> <PUBCHEM_SHAPE_FINGERPRINT>
105312 117 17821733840126652754
11069576 57 16772965671206437110
12422481 6 14634867535532955902
13383661 66 15333159863036960639
13690498 29 18270955881818255263
13782708 43 15626224615848671048
15064981 113 17982990298700133261
15163728 17 18262516971177069899
15183329 4 18272931596353694968
15513586 35 14636874255627157407
17857418 61 14764342717563177408
18927931 339 15123519128863017401
20691028 202 17241045380063705141
21033650 10 18408041818594591083
21599406 157 18060147561064717668
21756936 100 17894635838052301913
21774942 28 18335415722039371888
22393880 68 18339913900499617073
23559900 14 17417804071787332864
25222932 49 14405178436142440396
255183 451 17549246482875658543
2748736 6 17313100895664229884
2838139 119 17894908551385561784
312425 83 18342181046394935252
3610482 184 18186802461393896589
4169191 19 16806175509449048932
4394409 98 17839461090008438127
44249763 50 18339345448830733032
46194498 28 18056758956047639632
484985 159 15985101960070067375
497634 4 16732985332413384779
5283173 99 18411136961259999792
57724786 102 16660921063347257194
6431902 208 15123511410701161372
6608658 132 18187633675232116437
7288768 16 16733268941894175729

> <PUBCHEM_SHAPE_MULTIPOLES>
613.9
17.12
3.35
2.57
16.81
1.03
-0.94
9.63
-7.61
-5.69
-0.58
1.09
-1.39
0.01

> <PUBCHEM_SHAPE_SELFOVERLAP>
1342.071

> <PUBCHEM_SHAPE_VOLUME>
332.8

> <PUBCHEM_COORDINATE_TYPE>
2
5
10

$$$$
