11292000
  -OEChem-03292013303D

 61 64  0     1  0  0  0  0  0999 V2000
   -2.7169    1.9244   -1.2626 O   0  0  0  0  0  0  0  0  0  0  0  0
    2.0494    0.8564    1.6772 O   0  0  0  0  0  0  0  0  0  0  0  0
   -5.1321    0.9227   -0.0354 O   0  0  0  0  0  0  0  0  0  0  0  0
    0.8367    3.1537    0.6353 O   0  0  0  0  0  0  0  0  0  0  0  0
    2.8983   -2.4344   -0.1137 O   0  0  0  0  0  0  0  0  0  0  0  0
    4.3118   -0.3580    0.7283 O   0  0  0  0  0  0  0  0  0  0  0  0
   -1.7467    0.3494    0.3824 C   0  0  1  0  0  0  0  0  0  0  0  0
   -1.1849   -1.1286    0.5216 C   0  0  1  0  0  0  0  0  0  0  0  0
   -2.2448    0.5961   -1.0630 C   0  0  1  0  0  0  0  0  0  0  0  0
   -3.4358   -0.3789   -1.1376 C   0  0  2  0  0  0  0  0  0  0  0  0
    1.6249    0.8901    0.3046 C   0  0  1  0  0  0  0  0  0  0  0  0
   -3.1062    0.4103    1.1657 C   0  0  0  0  0  0  0  0  0  0  0  0
   -4.1798   -0.1266    0.2019 C   0  0  1  0  0  0  0  0  0  0  0  0
   -0.8445    1.4784    0.9558 C   0  0  0  0  0  0  0  0  0  0  0  0
    1.2364   -0.5371   -0.1694 C   0  0  2  0  0  0  0  0  0  0  0  0
    0.4315    1.8600    0.1744 C   0  0  1  0  0  0  0  0  0  0  0  0
    2.9025    1.2213   -0.5543 C   0  0  0  0  0  0  0  0  0  0  0  0
   -1.5444   -2.0524   -0.6698 C   0  0  0  0  0  0  0  0  0  0  0  0
    0.3125   -1.2562    0.7909 C   0  0  0  0  0  0  0  0  0  0  0  0
   -2.9067   -1.8048   -1.3149 C   0  0  0  0  0  0  0  0  0  0  0  0
    2.5464   -1.1935   -0.6883 C   0  0  1  0  0  0  0  0  0  0  0  0
    3.6531   -0.1433   -0.5176 C   0  0  2  0  0  0  0  0  0  0  0  0
   -4.9581   -1.3002    0.7881 C   0  0  0  0  0  0  0  0  0  0  0  0
    3.7718    2.3542    0.0235 C   0  0  0  0  0  0  0  0  0  0  0  0
    2.5712    1.5907   -2.0173 C   0  0  0  0  0  0  0  0  0  0  0  0
    0.7454   -1.9544    1.8557 C   0  0  0  0  0  0  0  0  0  0  0  0
    4.1089   -2.9393   -0.6615 C   0  0  0  0  0  0  0  0  0  0  0  0
   -1.6913   -1.5780    1.3876 H   0  0  0  0  0  0  0  0  0  0  0  0
   -1.4897    0.3919   -1.8289 H   0  0  0  0  0  0  0  0  0  0  0  0
   -4.0937   -0.1267   -1.9788 H   0  0  0  0  0  0  0  0  0  0  0  0
   -3.0566   -0.1574    2.1020 H   0  0  0  0  0  0  0  0  0  0  0  0
   -3.3492    1.4409    1.4559 H   0  0  0  0  0  0  0  0  0  0  0  0
   -0.6077    1.2603    2.0043 H   0  0  0  0  0  0  0  0  0  0  0  0
   -1.4439    2.3988    1.0215 H   0  0  0  0  0  0  0  0  0  0  0  0
    0.6591   -0.3930   -1.0931 H   0  0  0  0  0  0  0  0  0  0  0  0
    0.1669    1.9852   -0.8790 H   0  0  0  0  0  0  0  0  0  0  0  0
   -1.4836   -3.1023   -0.3533 H   0  0  0  0  0  0  0  0  0  0  0  0
   -0.7919   -1.9582   -1.4634 H   0  0  0  0  0  0  0  0  0  0  0  0
   -2.7963   -1.9957   -2.3915 H   0  0  0  0  0  0  0  0  0  0  0  0
   -3.6294   -2.5543   -0.9797 H   0  0  0  0  0  0  0  0  0  0  0  0
    2.3950   -1.3656   -1.7641 H   0  0  0  0  0  0  0  0  0  0  0  0
    4.4124   -0.2145   -1.3036 H   0  0  0  0  0  0  0  0  0  0  0  0
   -5.5428   -0.9756    1.6569 H   0  0  0  0  0  0  0  0  0  0  0  0
   -5.6786   -1.6900    0.0605 H   0  0  0  0  0  0  0  0  0  0  0  0
   -4.3042   -2.1149    1.1130 H   0  0  0  0  0  0  0  0  0  0  0  0
    4.7145    2.4334   -0.5308 H   0  0  0  0  0  0  0  0  0  0  0  0
    3.2707    3.3242   -0.0506 H   0  0  0  0  0  0  0  0  0  0  0  0
    4.0304    2.1957    1.0749 H   0  0  0  0  0  0  0  0  0  0  0  0
    3.4878    1.6582   -2.6150 H   0  0  0  0  0  0  0  0  0  0  0  0
    1.9202    0.8608   -2.5064 H   0  0  0  0  0  0  0  0  0  0  0  0
    2.0758    2.5659   -2.0771 H   0  0  0  0  0  0  0  0  0  0  0  0
   -1.9466    2.5158   -1.2796 H   0  0  0  0  0  0  0  0  0  0  0  0
    1.2928    0.6546    2.2482 H   0  0  0  0  0  0  0  0  0  0  0  0
   -4.6590    1.6907   -0.3981 H   0  0  0  0  0  0  0  0  0  0  0  0
    1.7979   -2.0326    2.1016 H   0  0  0  0  0  0  0  0  0  0  0  0
    0.0527   -2.4498    2.5281 H   0  0  0  0  0  0  0  0  0  0  0  0
    1.0974    3.0638    1.5680 H   0  0  0  0  0  0  0  0  0  0  0  0
    3.6404   -0.3955    1.4296 H   0  0  0  0  0  0  0  0  0  0  0  0
    4.9909   -2.4254   -0.2732 H   0  0  0  0  0  0  0  0  0  0  0  0
    4.0979   -2.9055   -1.7559 H   0  0  0  0  0  0  0  0  0  0  0  0
    4.1925   -3.9884   -0.3620 H   0  0  0  0  0  0  0  0  0  0  0  0
  1  9  1  0  0  0  0
  1 52  1  0  0  0  0
  2 11  1  0  0  0  0
  2 53  1  0  0  0  0
  3 13  1  0  0  0  0
  3 54  1  0  0  0  0
  4 16  1  0  0  0  0
  4 57  1  0  0  0  0
  5 21  1  0  0  0  0
  5 27  1  0  0  0  0
  6 22  1  0  0  0  0
  6 58  1  0  0  0  0
  7  8  1  0  0  0  0
  7  9  1  0  0  0  0
  7 12  1  0  0  0  0
  7 14  1  0  0  0  0
  8 18  1  0  0  0  0
  8 19  1  0  0  0  0
  8 28  1  0  0  0  0
  9 10  1  0  0  0  0
  9 29  1  0  0  0  0
 10 13  1  0  0  0  0
 10 20  1  0  0  0  0
 10 30  1  0  0  0  0
 11 15  1  0  0  0  0
 11 16  1  0  0  0  0
 11 17  1  0  0  0  0
 12 13  1  0  0  0  0
 12 31  1  0  0  0  0
 12 32  1  0  0  0  0
 13 23  1  0  0  0  0
 14 16  1  0  0  0  0
 14 33  1  0  0  0  0
 14 34  1  0  0  0  0
 15 19  1  0  0  0  0
 15 21  1  0  0  0  0
 15 35  1  0  0  0  0
 16 36  1  0  0  0  0
 17 22  1  0  0  0  0
 17 24  1  0  0  0  0
 17 25  1  0  0  0  0
 18 20  1  0  0  0  0
 18 37  1  0  0  0  0
 18 38  1  0  0  0  0
 19 26  2  0  0  0  0
 20 39  1  0  0  0  0
 20 40  1  0  0  0  0
 21 22  1  0  0  0  0
 21 41  1  0  0  0  0
 22 42  1  0  0  0  0
 23 43  1  0  0  0  0
 23 44  1  0  0  0  0
 23 45  1  0  0  0  0
 24 46  1  0  0  0  0
 24 47  1  0  0  0  0
 24 48  1  0  0  0  0
 25 49  1  0  0  0  0
 25 50  1  0  0  0  0
 25 51  1  0  0  0  0
 26 55  1  0  0  0  0
 26 56  1  0  0  0  0
 27 59  1  0  0  0  0
 27 60  1  0  0  0  0
 27 61  1  0  0  0  0
M  END
> <PUBCHEM_COMPOUND_CID>
11292000

> <PUBCHEM_CONFORMER_RMSD>
0.6

> <PUBCHEM_CONFORMER_DIVERSEORDER>
1
4
3
2

> <PUBCHEM_MMFF94_PARTIAL_CHARGES>
24
1 -0.68
11 0.28
13 0.28
15 0.14
16 0.28
19 -0.28
2 -0.68
21 0.28
22 0.28
26 -0.3
27 0.28
3 -0.68
4 -0.68
5 -0.56
52 0.4
53 0.4
54 0.4
55 0.15
56 0.15
57 0.4
58 0.4
6 -0.68
8 0.14
9 0.28

> <PUBCHEM_EFFECTIVE_ROTOR_COUNT>
3

> <PUBCHEM_PHARMACOPHORE_FEATURES>
15
1 1 acceptor
1 1 donor
1 2 acceptor
1 2 donor
1 3 acceptor
1 3 donor
1 4 acceptor
1 4 donor
1 5 acceptor
1 6 acceptor
1 6 donor
3 17 24 25 hydrophobe
5 11 15 17 21 22 rings
7 7 8 11 14 15 16 19 rings
8 7 8 9 10 12 13 18 20 rings

> <PUBCHEM_HEAVY_ATOM_COUNT>
27

> <PUBCHEM_ATOM_DEF_STEREO_COUNT>
10

> <PUBCHEM_ATOM_UDEF_STEREO_COUNT>
0

> <PUBCHEM_BOND_DEF_STEREO_COUNT>
0

> <PUBCHEM_BOND_UDEF_STEREO_COUNT>
0

> <PUBCHEM_ISOTOPIC_ATOM_COUNT>
0

> <PUBCHEM_COMPONENT_COUNT>
1

> <PUBCHEM_CACTVS_TAUTO_COUNT>
1

> <PUBCHEM_CONFORMER_ID>
00AC4D6000000001

> <PUBCHEM_MMFF94_ENERGY>
149.4481

> <PUBCHEM_FEATURE_SELFOVERLAP>
76.178

> <PUBCHEM_SHAPE_FINGERPRINT>
10863032 1 18059856224352387007
10906281 52 18336557109529166320
11578080 2 17702363083861681592
12236239 1 17917714574239569155
12403814 3 18260827129252914901
12553582 1 18273217516553095500
12596599 1 17774457095201020293
12788726 201 17131288899352260417
128620 24 18335419097202450197
13134695 92 18272644615592751620
13140716 1 17910673490253050297
13224815 77 18260261988507417755
14713325 29 16667428257103244716
14787075 74 18043822089819934043
14790565 3 18270689649881263185
15196674 1 18411139156014427665
16752209 62 17916861306204182249
16945 1 18270399524169894617
17349148 13 18335695057720701882
17492 89 18411983533331615822
17980427 23 17899400176786899428
1813 80 18114744811896265078
18186145 218 17894911832160287798
19591789 44 18410858737642331107
19862831 5 18413102870801762189
19930381 70 18270126699342279455
20691752 17 17972582549301600097
21267235 1 18342187660555114622
21634736 98 18339084791892334638
221357 26 18336264544413939685
22393880 68 17896033265453974127
23419403 2 15225876995345439080
23557571 272 16773522062380800024
23559900 14 18272082782605296282
238 59 18191296289633247230
25 1 18335421330453594760
3323516 105 18408888472865859249
34934 24 18271804652753870960
350125 39 18337679611399303517
463206 1 18342455971668430198
474 4 18041563653870033958
5104073 3 18409171017373816899
5281201 14 18260552199162772319
633830 44 18040997345431716943
9709674 26 18408045125788343854
9981440 41 17621026999254886848

> <PUBCHEM_SHAPE_MULTIPOLES>
520.43
8.61
2.89
1.45
3.66
0.21
-0.05
1.11
-0.97
-2.39
-0.13
0.03
0.01
0.01

> <PUBCHEM_SHAPE_SELFOVERLAP>
1116.509

> <PUBCHEM_SHAPE_VOLUME>
286.4

> <PUBCHEM_COORDINATE_TYPE>
2
5
10

$$$$
