11299980
  -OEChem-03292013303D

 32 32  0     1  0  0  0  0  0999 V2000
    0.9564    0.8177   -0.3542 O   0  0  0  0  0  0  0  0  0  0  0  0
    3.6537   -2.2979   -0.4309 O   0  0  0  0  0  0  0  0  0  0  0  0
    4.5496    0.3482    0.2630 O   0  0  0  0  0  0  0  0  0  0  0  0
    0.9209   -2.7505    0.4655 O   0  0  0  0  0  0  0  0  0  0  0  0
    1.6230    3.4516    0.0130 O   0  0  0  0  0  0  0  0  0  0  0  0
   -1.9367    0.6745    1.3342 O   0  0  0  0  0  0  0  0  0  0  0  0
   -0.8775   -0.5872   -0.3016 N   0  0  0  0  0  0  0  0  0  0  0  0
   -4.3730    0.2691    0.3116 N   0  0  0  0  0  0  0  0  0  0  0  0
   -5.5073    0.0756   -0.1661 N   0  3  0  0  0  0  0  0  0  0  0  0
   -6.5476   -0.0989   -0.5999 N   0  5  0  0  0  0  0  0  0  0  0  0
    2.8193   -1.3016    0.1633 C   0  0  1  0  0  0  0  0  0  0  0  0
    3.2698    0.0834   -0.3047 C   0  0  1  0  0  0  0  0  0  0  0  0
    1.3622   -1.5759   -0.2131 C   0  0  2  0  0  0  0  0  0  0  0  0
    2.2600    1.1520    0.1292 C   0  0  1  0  0  0  0  0  0  0  0  0
    0.4663   -0.4050    0.1882 C   0  0  1  0  0  0  0  0  0  0  0  0
    2.6061    2.5309   -0.4237 C   0  0  0  0  0  0  0  0  0  0  0  0
   -1.9811   -0.0226    0.3239 C   0  0  0  0  0  0  0  0  0  0  0  0
   -3.2642   -0.3632   -0.3977 C   0  0  0  0  0  0  0  0  0  0  0  0
    2.9573   -1.3995    1.2478 H   0  0  0  0  0  0  0  0  0  0  0  0
    3.3868    0.0792   -1.3951 H   0  0  0  0  0  0  0  0  0  0  0  0
    1.2978   -1.7725   -1.2909 H   0  0  0  0  0  0  0  0  0  0  0  0
    2.2156    1.2278    1.2243 H   0  0  0  0  0  0  0  0  0  0  0  0
    0.4123   -0.3190    1.2814 H   0  0  0  0  0  0  0  0  0  0  0  0
    2.6060    2.5353   -1.5187 H   0  0  0  0  0  0  0  0  0  0  0  0
    3.5828    2.8731   -0.0697 H   0  0  0  0  0  0  0  0  0  0  0  0
   -1.0082   -1.0864   -1.1769 H   0  0  0  0  0  0  0  0  0  0  0  0
    3.3293   -3.1645   -0.1318 H   0  0  0  0  0  0  0  0  0  0  0  0
    4.4470    0.3908    1.2291 H   0  0  0  0  0  0  0  0  0  0  0  0
   -0.0100   -2.8936    0.2233 H   0  0  0  0  0  0  0  0  0  0  0  0
    0.7605    3.1340   -0.3050 H   0  0  0  0  0  0  0  0  0  0  0  0
   -3.3841   -1.4527   -0.4118 H   0  0  0  0  0  0  0  0  0  0  0  0
   -3.2020    0.0080   -1.4272 H   0  0  0  0  0  0  0  0  0  0  0  0
  1 14  1  0  0  0  0
  1 15  1  0  0  0  0
  2 11  1  0  0  0  0
  2 27  1  0  0  0  0
  3 12  1  0  0  0  0
  3 28  1  0  0  0  0
  4 13  1  0  0  0  0
  4 29  1  0  0  0  0
  5 16  1  0  0  0  0
  5 30  1  0  0  0  0
  6 17  2  0  0  0  0
  7 15  1  0  0  0  0
  7 17  1  0  0  0  0
  7 26  1  0  0  0  0
  8  9  2  0  0  0  0
  8 18  1  0  0  0  0
  9 10  2  0  0  0  0
 11 12  1  0  0  0  0
 11 13  1  0  0  0  0
 11 19  1  0  0  0  0
 12 14  1  0  0  0  0
 12 20  1  0  0  0  0
 13 15  1  0  0  0  0
 13 21  1  0  0  0  0
 14 16  1  0  0  0  0
 14 22  1  0  0  0  0
 15 23  1  0  0  0  0
 16 24  1  0  0  0  0
 16 25  1  0  0  0  0
 17 18  1  0  0  0  0
 18 31  1  0  0  0  0
 18 32  1  0  0  0  0
M  CHG  2   9   1  10  -1
M  END
> <PUBCHEM_COMPOUND_CID>
11299980

> <PUBCHEM_CONFORMER_RMSD>
0.8

> <PUBCHEM_CONFORMER_DIVERSEORDER>
1
32
23
33
24
11
8
16
26
28
12
15
5
22
25
6
31
27
21
2
30
35
18
9
17
7
34
4
10
20
14
3
29
19
13

> <PUBCHEM_MMFF94_PARTIAL_CHARGES>
23
1 -0.56
10 -0.37
11 0.28
12 0.28
13 0.28
14 0.28
15 0.58
16 0.28
17 0.57
18 0.31
2 -0.68
26 0.37
27 0.4
28 0.4
29 0.4
3 -0.68
30 0.4
4 -0.68
5 -0.68
6 -0.57
7 -0.73
8 -0.56
9 0.69

> <PUBCHEM_EFFECTIVE_ROTOR_COUNT>
6.2

> <PUBCHEM_PHARMACOPHORE_FEATURES>
12
1 1 acceptor
1 2 acceptor
1 2 donor
1 3 acceptor
1 3 donor
1 4 acceptor
1 4 donor
1 5 acceptor
1 5 donor
1 6 acceptor
1 7 donor
6 1 11 12 13 14 15 rings

> <PUBCHEM_HEAVY_ATOM_COUNT>
18

> <PUBCHEM_ATOM_DEF_STEREO_COUNT>
5

> <PUBCHEM_ATOM_UDEF_STEREO_COUNT>
0

> <PUBCHEM_BOND_DEF_STEREO_COUNT>
0

> <PUBCHEM_BOND_UDEF_STEREO_COUNT>
0

> <PUBCHEM_ISOTOPIC_ATOM_COUNT>
0

> <PUBCHEM_COMPONENT_COUNT>
1

> <PUBCHEM_CACTVS_TAUTO_COUNT>
2

> <PUBCHEM_CONFORMER_ID>
00AC6C8C00000001

> <PUBCHEM_MMFF94_ENERGY>
34.1998

> <PUBCHEM_FEATURE_SELFOVERLAP>
60.917

> <PUBCHEM_SHAPE_FINGERPRINT>
10366900 7 17822583711270286571
10411042 1 18122062005929065958
11287383 113 18260550056849843059
11471102 20 18409168796443337214
12236239 1 17917993862935488143
12403259 327 16371556150031102568
13167823 11 18342453755981951791
13836976 161 18342739636766673391
14251717 144 18410013225800344242
16945 1 18337683005008958230
17834072 33 18341327877570895215
200 152 18201717328298500627
20606313 2 18409731751087254246
20645477 70 18340768152647543151
21639500 275 18337945796260928508
22289505 5 18334570201058798461
2255824 54 18411422812655436486
23402655 69 18413671301170480519
23532345 1 18408606985315509049
23559900 14 18411135848758124483
23598291 2 18058187028310059409
2748010 2 17833279988551217092
3060560 45 18412548708425645662
335352 9 18409731790237761086
33824 294 18335137574854960058
42630746 31 18412260640594903582
474 4 18410576227129732593
7364860 26 18411984676066424004
8272917 22 18411704278873264815
9999458 23 18261110802925898550

> <PUBCHEM_SHAPE_MULTIPOLES>
315.29
10.21
2.59
0.74
19.2
1.04
-0.09
0.23
1.4
-3.77
0.07
0.22
0.03
-0.16

> <PUBCHEM_SHAPE_SELFOVERLAP>
631.153

> <PUBCHEM_SHAPE_VOLUME>
182.5

> <PUBCHEM_COORDINATE_TYPE>
2
5
10

$$$$
