11293291
  -OEChem-03292013303D

 52 57  0     1  0  0  0  0  0999 V2000
    0.7162    0.7435    2.5182 S   0  0  0  0  0  0  0  0  0  0  0  0
   -0.7134   -0.7450    2.5152 S   0  0  0  0  0  0  0  0  0  0  0  0
   -0.4654    2.5634   -0.2952 O   0  0  0  0  0  0  0  0  0  0  0  0
    0.4705   -2.5545   -0.3023 O   0  0  0  0  0  0  0  0  0  0  0  0
    2.9413   -2.7051   -1.2593 O   0  0  0  0  0  0  0  0  0  0  0  0
   -2.9894    2.7020   -1.2825 O   0  0  0  0  0  0  0  0  0  0  0  0
    5.2561    2.1608    0.3085 O   0  0  0  0  0  0  0  0  0  0  0  0
   -5.2079   -2.1854    0.3182 O   0  0  0  0  0  0  0  0  0  0  0  0
    1.2839   -0.3974    0.0975 N   0  0  0  0  0  0  0  0  0  0  0  0
   -1.2839    0.4079    0.0999 N   0  0  0  0  0  0  0  0  0  0  0  0
    0.9881    0.9113    0.7127 C   0  0  2  0  0  0  0  0  0  0  0  0
   -0.9855   -0.9047    0.7089 C   0  0  2  0  0  0  0  0  0  0  0  0
    2.6129   -0.4072   -0.5134 C   0  0  1  0  0  0  0  0  0  0  0  0
   -2.6150    0.4192   -0.5109 C   0  0  1  0  0  0  0  0  0  0  0  0
    3.3133    0.7233    0.2550 C   0  0  2  0  0  0  0  0  0  0  0  0
   -3.3088   -0.7189    0.2536 C   0  0  2  0  0  0  0  0  0  0  0  0
    2.2143    1.7774    0.3727 C   0  0  0  0  0  0  0  0  0  0  0  0
   -2.2090   -1.7715    0.3651 C   0  0  0  0  0  0  0  0  0  0  0  0
   -0.3123    1.4070    0.0813 C   0  0  0  0  0  0  0  0  0  0  0  0
    0.3152   -1.3988    0.0759 C   0  0  0  0  0  0  0  0  0  0  0  0
    3.4855   -1.6628   -0.4558 C   0  0  2  0  0  0  0  0  0  0  0  0
   -3.4995    1.6673   -0.4482 C   0  0  2  0  0  0  0  0  0  0  0  0
    4.6230    1.1100   -0.4098 C   0  0  2  0  0  0  0  0  0  0  0  0
   -4.6154   -1.1161   -0.4078 C   0  0  2  0  0  0  0  0  0  0  0  0
    4.8906   -1.3518   -1.0107 C   0  0  0  0  0  0  0  0  0  0  0  0
   -4.9025    1.3415   -1.0002 C   0  0  0  0  0  0  0  0  0  0  0  0
    5.5469   -0.1139   -0.3977 C   0  0  0  0  0  0  0  0  0  0  0  0
   -5.5500    0.0987   -0.3890 C   0  0  0  0  0  0  0  0  0  0  0  0
    2.4460   -0.1320   -1.5643 H   0  0  0  0  0  0  0  0  0  0  0  0
   -2.4473    0.1440   -1.5617 H   0  0  0  0  0  0  0  0  0  0  0  0
    3.5416    0.3936    1.2813 H   0  0  0  0  0  0  0  0  0  0  0  0
   -3.5364   -0.3934    1.2815 H   0  0  0  0  0  0  0  0  0  0  0  0
    2.4355    2.5422    1.1243 H   0  0  0  0  0  0  0  0  0  0  0  0
    2.0903    2.2886   -0.5905 H   0  0  0  0  0  0  0  0  0  0  0  0
   -2.4297   -2.5412    1.1120 H   0  0  0  0  0  0  0  0  0  0  0  0
   -2.0840   -2.2771   -0.6010 H   0  0  0  0  0  0  0  0  0  0  0  0
    3.5535   -2.0312    0.5745 H   0  0  0  0  0  0  0  0  0  0  0  0
   -3.5659    2.0535    0.5746 H   0  0  0  0  0  0  0  0  0  0  0  0
    4.4614    1.4482   -1.4399 H   0  0  0  0  0  0  0  0  0  0  0  0
   -4.4439   -1.4548   -1.4361 H   0  0  0  0  0  0  0  0  0  0  0  0
    4.8219   -1.2152   -2.0986 H   0  0  0  0  0  0  0  0  0  0  0  0
    5.5413   -2.2237   -0.8691 H   0  0  0  0  0  0  0  0  0  0  0  0
   -4.8405    1.2030   -2.0885 H   0  0  0  0  0  0  0  0  0  0  0  0
   -5.5588    2.2091   -0.8579 H   0  0  0  0  0  0  0  0  0  0  0  0
    5.8490   -0.3358    0.6345 H   0  0  0  0  0  0  0  0  0  0  0  0
    6.4768    0.1202   -0.9301 H   0  0  0  0  0  0  0  0  0  0  0  0
   -5.8514    0.3147    0.6445 H   0  0  0  0  0  0  0  0  0  0  0  0
   -6.4789   -0.1401   -0.9208 H   0  0  0  0  0  0  0  0  0  0  0  0
    3.5253   -3.4780   -1.1734 H   0  0  0  0  0  0  0  0  0  0  0  0
   -2.8539    2.3364   -2.1732 H   0  0  0  0  0  0  0  0  0  0  0  0
    4.6795    2.9418    0.2566 H   0  0  0  0  0  0  0  0  0  0  0  0
   -6.0549   -2.3957   -0.1106 H   0  0  0  0  0  0  0  0  0  0  0  0
  1  2  1  0  0  0  0
  1 11  1  0  0  0  0
  2 12  1  0  0  0  0
  3 19  2  0  0  0  0
  4 20  2  0  0  0  0
  5 21  1  0  0  0  0
  5 49  1  0  0  0  0
  6 22  1  0  0  0  0
  6 50  1  0  0  0  0
  7 23  1  0  0  0  0
  7 51  1  0  0  0  0
  8 24  1  0  0  0  0
  8 52  1  0  0  0  0
  9 11  1  0  0  0  0
  9 13  1  0  0  0  0
  9 20  1  0  0  0  0
 10 12  1  0  0  0  0
 10 14  1  0  0  0  0
 10 19  1  0  0  0  0
 11 17  1  0  0  0  0
 11 19  1  0  0  0  0
 12 18  1  0  0  0  0
 12 20  1  0  0  0  0
 13 15  1  0  0  0  0
 13 21  1  0  0  0  0
 13 29  1  0  0  0  0
 14 16  1  0  0  0  0
 14 22  1  0  0  0  0
 14 30  1  0  0  0  0
 15 17  1  0  0  0  0
 15 23  1  0  0  0  0
 15 31  1  0  0  0  0
 16 18  1  0  0  0  0
 16 24  1  0  0  0  0
 16 32  1  0  0  0  0
 17 33  1  0  0  0  0
 17 34  1  0  0  0  0
 18 35  1  0  0  0  0
 18 36  1  0  0  0  0
 21 25  1  0  0  0  0
 21 37  1  0  0  0  0
 22 26  1  0  0  0  0
 22 38  1  0  0  0  0
 23 27  1  0  0  0  0
 23 39  1  0  0  0  0
 24 28  1  0  0  0  0
 24 40  1  0  0  0  0
 25 27  1  0  0  0  0
 25 41  1  0  0  0  0
 25 42  1  0  0  0  0
 26 28  1  0  0  0  0
 26 43  1  0  0  0  0
 26 44  1  0  0  0  0
 27 45  1  0  0  0  0
 27 46  1  0  0  0  0
 28 47  1  0  0  0  0
 28 48  1  0  0  0  0
M  END
> <PUBCHEM_COMPOUND_CID>
11293291

> <PUBCHEM_CONFORMER_RMSD>
0.6

> <PUBCHEM_CONFORMER_DIVERSEORDER>
1

> <PUBCHEM_MMFF94_PARTIAL_CHARGES>
24
1 -0.23
10 -0.66
11 0.59
12 0.59
13 0.3
14 0.3
19 0.57
2 -0.23
20 0.57
21 0.28
22 0.28
23 0.28
24 0.28
3 -0.57
4 -0.57
49 0.4
5 -0.68
50 0.4
51 0.4
52 0.4
6 -0.68
7 -0.68
8 -0.68
9 -0.66

> <PUBCHEM_EFFECTIVE_ROTOR_COUNT>
2.4

> <PUBCHEM_PHARMACOPHORE_FEATURES>
15
1 3 acceptor
1 4 acceptor
1 5 acceptor
1 5 donor
1 6 acceptor
1 6 donor
1 7 acceptor
1 7 donor
1 8 acceptor
1 8 donor
5 10 12 14 16 18 rings
5 9 11 13 15 17 rings
6 13 15 21 23 25 27 rings
6 14 16 22 24 26 28 rings
8 1 2 9 10 11 12 19 20 rings

> <PUBCHEM_HEAVY_ATOM_COUNT>
28

> <PUBCHEM_ATOM_DEF_STEREO_COUNT>
10

> <PUBCHEM_ATOM_UDEF_STEREO_COUNT>
0

> <PUBCHEM_BOND_DEF_STEREO_COUNT>
0

> <PUBCHEM_BOND_UDEF_STEREO_COUNT>
0

> <PUBCHEM_ISOTOPIC_ATOM_COUNT>
0

> <PUBCHEM_COMPONENT_COUNT>
1

> <PUBCHEM_CACTVS_TAUTO_COUNT>
1

> <PUBCHEM_CONFORMER_ID>
00AC526B00000001

> <PUBCHEM_MMFF94_ENERGY>
105.8512

> <PUBCHEM_FEATURE_SELFOVERLAP>
76.408

> <PUBCHEM_SHAPE_FINGERPRINT>
10498660 4 18041267778216535877
10863032 1 18411982429492417120
10906281 52 18115041808547439604
11578080 2 17271714280802492136
12403259 415 18271519900828098033
12553582 1 15770057228634062004
12788726 201 18270115699973024928
13402501 40 18410856576819658974
13782708 43 18130505352970794439
13911987 19 17774451597911919796
13944108 23 16389287553594331621
14251757 17 18339079285232369677
14573314 32 18408604764121130445
14790565 3 17619071625468490417
15082195 135 18261407684541631348
15183329 4 18410573955086680089
15196674 1 18410855455838469382
15961568 22 17895477037531320324
16945 1 18122344579662348579
1813 80 14620788293238826112
18222031 100 14476957891422426233
18608769 82 18334297579080062883
200 152 17489591134541309482
20645477 70 18060144215432776478
20691752 17 17168145585471277797
21033650 10 17678473973639947812
21267235 1 18410864286460320743
21279426 13 18338798888297725532
21285901 2 18409167684247203244
221357 26 18341326734782514333
22393880 68 18335699382220187879
23402539 116 18113613499591826501
23557571 272 18333734649419959461
23559900 14 18412538825363077320
3004659 81 18334858299623756126
3380486 145 18195543703103963827
350125 39 18341617023216472833
4280585 95 17333657072736272982
46194498 28 18263646327941755245
5104073 3 18410856533875267882
513202 73 15122410735084877564
5283173 99 18334574599152801556
59755656 215 18334288735251926717
59755656 520 16660362584354849938
9709674 26 18335706078079320910

> <PUBCHEM_SHAPE_MULTIPOLES>
538.75
11.29
2.62
1.46
0.04
0
-1.18
-0.02
4.38
-0.01
0.62
0
0
1.69

> <PUBCHEM_SHAPE_SELFOVERLAP>
1165.182

> <PUBCHEM_SHAPE_VOLUME>
298.6

> <PUBCHEM_COORDINATE_TYPE>
2
5
10

$$$$
