11301378
  -OEChem-03292013303D

 43 43  0     1  0  0  0  0  0999 V2000
    2.8670    2.2128    1.2575 O   0  0  0  0  0  0  0  0  0  0  0  0
    3.2904    0.6335    2.8457 O   0  0  0  0  0  0  0  0  0  0  0  0
    3.2838    1.6404   -2.5321 O   0  0  0  0  0  0  0  0  0  0  0  0
    1.6328    2.6973   -1.3753 O   0  0  0  0  0  0  0  0  0  0  0  0
   -5.3946    1.9501   -0.2228 O   0  0  0  0  0  0  0  0  0  0  0  0
   -6.1415   -0.1316    0.2833 O   0  0  0  0  0  0  0  0  0  0  0  0
    3.2809   -1.3415    1.0937 N   0  0  0  0  0  0  0  0  0  0  0  0
    1.5941   -0.0794   -0.0763 C   0  0  1  0  0  0  0  0  0  0  0  0
    1.1300   -1.5175    0.2335 C   0  0  2  0  0  0  0  0  0  0  0  0
    3.0044   -0.0153    0.5395 C   0  0  1  0  0  0  0  0  0  0  0  0
    2.4430   -2.2803    0.3523 C   0  0  0  0  0  0  0  0  0  0  0  0
    1.6550    0.2673   -1.5672 C   0  0  0  0  0  0  0  0  0  0  0  0
    0.1644   -2.1393   -0.7196 C   0  0  0  0  0  0  0  0  0  0  0  0
   -1.1894   -1.4801   -0.8550 C   0  0  0  0  0  0  0  0  0  0  0  0
    3.0759    0.9431    1.6832 C   0  0  0  0  0  0  0  0  0  0  0  0
    2.1485    1.6693   -1.7877 C   0  0  0  0  0  0  0  0  0  0  0  0
    0.4720   -3.2555   -1.3985 C   0  0  0  0  0  0  0  0  0  0  0  0
   -2.0072   -1.4596    0.4432 C   0  0  0  0  0  0  0  0  0  0  0  0
   -3.3841   -0.8827    0.2452 C   0  0  0  0  0  0  0  0  0  0  0  0
   -3.7843    0.3857    0.4558 C   0  0  0  0  0  0  0  0  0  0  0  0
   -2.9175    1.5163    0.9264 C   0  0  0  0  0  0  0  0  0  0  0  0
   -5.2235    0.6670    0.1754 C   0  0  0  0  0  0  0  0  0  0  0  0
    0.9046    0.6204    0.4154 H   0  0  0  0  0  0  0  0  0  0  0  0
    0.6737   -1.5172    1.2342 H   0  0  0  0  0  0  0  0  0  0  0  0
    3.7951    0.2333   -0.1760 H   0  0  0  0  0  0  0  0  0  0  0  0
    2.9312   -2.4737   -0.6101 H   0  0  0  0  0  0  0  0  0  0  0  0
    2.3418   -3.2255    0.8958 H   0  0  0  0  0  0  0  0  0  0  0  0
    2.9925   -1.3749    2.0727 H   0  0  0  0  0  0  0  0  0  0  0  0
    2.3080   -0.4393   -2.0954 H   0  0  0  0  0  0  0  0  0  0  0  0
    0.6845    0.2131   -2.0642 H   0  0  0  0  0  0  0  0  0  0  0  0
   -1.0794   -0.4519   -1.2120 H   0  0  0  0  0  0  0  0  0  0  0  0
   -1.7751   -1.9939   -1.6298 H   0  0  0  0  0  0  0  0  0  0  0  0
    1.4098   -3.7896   -1.3273 H   0  0  0  0  0  0  0  0  0  0  0  0
   -0.2543   -3.6960   -2.0762 H   0  0  0  0  0  0  0  0  0  0  0  0
   -1.4778   -0.9091    1.2268 H   0  0  0  0  0  0  0  0  0  0  0  0
   -2.1196   -2.4820    0.8265 H   0  0  0  0  0  0  0  0  0  0  0  0
    2.9078    2.8581    1.9951 H   0  0  0  0  0  0  0  0  0  0  0  0
   -4.1078   -1.6091   -0.1237 H   0  0  0  0  0  0  0  0  0  0  0  0
    3.6369    2.5409   -2.6954 H   0  0  0  0  0  0  0  0  0  0  0  0
   -2.8249    2.2789    0.1461 H   0  0  0  0  0  0  0  0  0  0  0  0
   -3.3542    1.9814    1.8164 H   0  0  0  0  0  0  0  0  0  0  0  0
   -1.9047    1.2003    1.1882 H   0  0  0  0  0  0  0  0  0  0  0  0
   -6.3356    2.1537   -0.4111 H   0  0  0  0  0  0  0  0  0  0  0  0
  1 15  1  0  0  0  0
  1 37  1  0  0  0  0
  2 15  2  0  0  0  0
  3 16  1  0  0  0  0
  3 39  1  0  0  0  0
  4 16  2  0  0  0  0
  5 22  1  0  0  0  0
  5 43  1  0  0  0  0
  6 22  2  0  0  0  0
  7 10  1  0  0  0  0
  7 11  1  0  0  0  0
  7 28  1  0  0  0  0
  8  9  1  0  0  0  0
  8 10  1  0  0  0  0
  8 12  1  0  0  0  0
  8 23  1  0  0  0  0
  9 11  1  0  0  0  0
  9 13  1  0  0  0  0
  9 24  1  0  0  0  0
 10 15  1  0  0  0  0
 10 25  1  0  0  0  0
 11 26  1  0  0  0  0
 11 27  1  0  0  0  0
 12 16  1  0  0  0  0
 12 29  1  0  0  0  0
 12 30  1  0  0  0  0
 13 14  1  0  0  0  0
 13 17  2  0  0  0  0
 14 18  1  0  0  0  0
 14 31  1  0  0  0  0
 14 32  1  0  0  0  0
 17 33  1  0  0  0  0
 17 34  1  0  0  0  0
 18 19  1  0  0  0  0
 18 35  1  0  0  0  0
 18 36  1  0  0  0  0
 19 20  2  0  0  0  0
 19 38  1  0  0  0  0
 20 21  1  0  0  0  0
 20 22  1  0  0  0  0
 21 40  1  0  0  0  0
 21 41  1  0  0  0  0
 21 42  1  0  0  0  0
M  END
> <PUBCHEM_COMPOUND_CID>
11301378

> <PUBCHEM_CONFORMER_RMSD>
0.8

> <PUBCHEM_CONFORMER_DIVERSEORDER>
2
26
54
7
20
49
34
36
50
5
58
47
38
9
15
3
16
23
21
25
17
52
45
55
44
27
14
28
31
4
53
13
24
37
35
39
10
32
19
6
56
42
12
18
46
30
43
41
48
59
22
8
51
57
1
11
33
40
29

> <PUBCHEM_MMFF94_PARTIAL_CHARGES>
28
1 -0.65
10 0.33
11 0.27
12 0.06
13 -0.28
14 0.14
15 0.66
16 0.66
17 -0.3
18 0.14
19 -0.29
2 -0.57
20 -0.12
21 0.14
22 0.71
28 0.36
3 -0.65
33 0.15
34 0.15
37 0.5
38 0.15
39 0.5
4 -0.57
43 0.5
5 -0.65
6 -0.57
7 -0.9
9 0.14

> <PUBCHEM_EFFECTIVE_ROTOR_COUNT>
9

> <PUBCHEM_PHARMACOPHORE_FEATURES>
15
1 1 acceptor
1 17 hydrophobe
1 2 acceptor
1 21 hydrophobe
1 3 acceptor
1 4 acceptor
1 5 acceptor
1 6 acceptor
1 7 cation
1 7 donor
3 1 2 15 anion
3 3 4 16 anion
3 5 6 22 anion
4 13 14 18 19 hydrophobe
5 7 8 9 10 11 rings

> <PUBCHEM_HEAVY_ATOM_COUNT>
22

> <PUBCHEM_ATOM_DEF_STEREO_COUNT>
3

> <PUBCHEM_ATOM_UDEF_STEREO_COUNT>
0

> <PUBCHEM_BOND_DEF_STEREO_COUNT>
1

> <PUBCHEM_BOND_UDEF_STEREO_COUNT>
0

> <PUBCHEM_ISOTOPIC_ATOM_COUNT>
0

> <PUBCHEM_COMPONENT_COUNT>
1

> <PUBCHEM_CACTVS_TAUTO_COUNT>
1

> <PUBCHEM_CONFORMER_ID>
00AC720200000002

> <PUBCHEM_MMFF94_ENERGY>
42.908

> <PUBCHEM_FEATURE_SELFOVERLAP>
76.297

> <PUBCHEM_SHAPE_FINGERPRINT>
10382601 240 16951128516372841820
10498660 4 18059581325487428299
11725454 13 16342276155778514450
12633257 1 17313095384619607827
12644460 14 17240483649906622606
13965767 371 18266999739901786074
14252887 29 12107790717641535543
20715895 44 18045495310658568461
20723712 36 18187638154903403166
20739085 24 18261105223969531210
21503847 285 17822298980529069286
21864079 5 18120383304516840477
22749437 52 18341615867722798049
23557571 272 17487619860295295799
23559900 14 18267310837700798023
314173 41 8862933975255286647
34797466 226 16343701033244525289
3797600 57 17464559854381155074
4409770 3 16030433316349013863
474 4 18260554411604056019
5281201 14 15410627947367204449
6328613 192 18412829101550353112
633830 44 16343161181140315179
7808743 9 17983291822589462624
960060 61 12247678266966604683
9999458 23 17988635260285611314

> <PUBCHEM_SHAPE_MULTIPOLES>
412.55
9.67
3.04
1.95
17.3
0.87
-0.16
-4.96
2.23
-1.43
-0.95
-3.08
-1.11
-0.48

> <PUBCHEM_SHAPE_SELFOVERLAP>
838.333

> <PUBCHEM_SHAPE_VOLUME>
240.1

> <PUBCHEM_COORDINATE_TYPE>
2
5
10

$$$$
