11302979
  -OEChem-03292013303D

 42 44  0     0  0  0  0  0  0999 V2000
    3.5535    1.6034    0.5749 S   0  0  0  0  0  0  0  0  0  0  0  0
    4.0179   -2.6843   -0.5881 O   0  0  0  0  0  0  0  0  0  0  0  0
    3.5981    3.0213    0.8951 O   0  0  0  0  0  0  0  0  0  0  0  0
    3.9884    0.6222    1.5570 O   0  0  0  0  0  0  0  0  0  0  0  0
   -2.3770    0.4864   -2.3008 O   0  0  0  0  0  0  0  0  0  0  0  0
   -5.1089   -0.1922   -1.3534 O   0  0  0  0  0  0  0  0  0  0  0  0
    3.2305   -1.6126   -1.0754 N   0  0  0  0  0  0  0  0  0  0  0  0
   -5.0500   -0.3624    0.9947 N   0  0  0  0  0  0  0  0  0  0  0  0
   -4.0292   -0.2551    1.8984 N   0  0  0  0  0  0  0  0  0  0  0  0
    1.5287   -0.0912   -0.1986 C   0  0  0  0  0  0  0  0  0  0  0  0
    1.9171    1.2187    0.0833 C   0  0  0  0  0  0  0  0  0  0  0  0
    0.2165   -0.3611   -0.5873 C   0  0  0  0  0  0  0  0  0  0  0  0
    2.5018   -1.1980   -0.0872 C   0  0  0  0  0  0  0  0  0  0  0  0
   -0.6716    0.6852   -0.6839 C   0  0  0  0  0  0  0  0  0  0  0  0
    2.7000   -1.9562    1.1813 C   0  0  0  0  0  0  0  0  0  0  0  0
    0.9933    2.2584   -0.0240 C   0  0  0  0  0  0  0  0  0  0  0  0
   -0.3188    1.9883   -0.4126 C   0  0  0  0  0  0  0  0  0  0  0  0
    4.0188   -2.5946    0.8383 C   0  0  0  0  0  0  0  0  0  0  0  0
   -0.2049   -1.7654   -0.8908 C   0  0  0  0  0  0  0  0  0  0  0  0
   -2.0846    0.4290   -1.0980 C   0  0  0  0  0  0  0  0  0  0  0  0
   -3.0879    0.1426   -0.0933 C   0  0  0  0  0  0  0  0  0  0  0  0
    4.5227    1.3395   -0.8912 C   0  0  0  0  0  0  0  0  0  0  0  0
   -4.5385   -0.1556   -0.2766 C   0  0  0  0  0  0  0  0  0  0  0  0
   -2.8930    0.0761    1.2278 C   0  0  0  0  0  0  0  0  0  0  0  0
   -6.4229   -0.6426    1.3103 C   0  0  0  0  0  0  0  0  0  0  0  0
    2.7061   -1.3600    2.0923 H   0  0  0  0  0  0  0  0  0  0  0  0
    1.9089   -2.7103    1.2527 H   0  0  0  0  0  0  0  0  0  0  0  0
    1.2618    3.2897    0.1847 H   0  0  0  0  0  0  0  0  0  0  0  0
   -1.0335    2.8016   -0.4957 H   0  0  0  0  0  0  0  0  0  0  0  0
    4.8706   -1.9794    1.1466 H   0  0  0  0  0  0  0  0  0  0  0  0
    4.1249   -3.5917    1.2741 H   0  0  0  0  0  0  0  0  0  0  0  0
   -1.0841   -1.8182   -1.5393 H   0  0  0  0  0  0  0  0  0  0  0  0
    0.5743   -2.3160   -1.4273 H   0  0  0  0  0  0  0  0  0  0  0  0
   -0.4358   -2.2949    0.0393 H   0  0  0  0  0  0  0  0  0  0  0  0
    5.4763    1.8549   -0.7473 H   0  0  0  0  0  0  0  0  0  0  0  0
    4.7244    0.2842   -1.0438 H   0  0  0  0  0  0  0  0  0  0  0  0
    4.0066    1.7770   -1.7478 H   0  0  0  0  0  0  0  0  0  0  0  0
   -1.9790    0.1853    1.7898 H   0  0  0  0  0  0  0  0  0  0  0  0
   -4.0289   -0.7514    2.7782 H   0  0  0  0  0  0  0  0  0  0  0  0
   -6.4789   -1.6130    1.8107 H   0  0  0  0  0  0  0  0  0  0  0  0
   -7.0292   -0.6655    0.4012 H   0  0  0  0  0  0  0  0  0  0  0  0
   -6.7975    0.1367    1.9794 H   0  0  0  0  0  0  0  0  0  0  0  0
  1  3  2  0  0  0  0
  1  4  2  0  0  0  0
  1 11  1  0  0  0  0
  1 22  1  0  0  0  0
  2  7  1  0  0  0  0
  2 18  1  0  0  0  0
  5 20  2  0  0  0  0
  6 23  2  0  0  0  0
  7 13  2  0  0  0  0
  8  9  1  0  0  0  0
  8 23  1  0  0  0  0
  8 25  1  0  0  0  0
  9 24  1  0  0  0  0
  9 39  1  0  0  0  0
 10 11  2  0  0  0  0
 10 12  1  0  0  0  0
 10 13  1  0  0  0  0
 11 16  1  0  0  0  0
 12 14  2  0  0  0  0
 12 19  1  0  0  0  0
 13 15  1  0  0  0  0
 14 17  1  0  0  0  0
 14 20  1  0  0  0  0
 15 18  1  0  0  0  0
 15 26  1  0  0  0  0
 15 27  1  0  0  0  0
 16 17  2  0  0  0  0
 16 28  1  0  0  0  0
 17 29  1  0  0  0  0
 18 30  1  0  0  0  0
 18 31  1  0  0  0  0
 19 32  1  0  0  0  0
 19 33  1  0  0  0  0
 19 34  1  0  0  0  0
 20 21  1  0  0  0  0
 21 23  1  0  0  0  0
 21 24  2  0  0  0  0
 22 35  1  0  0  0  0
 22 36  1  0  0  0  0
 22 37  1  0  0  0  0
 24 38  1  0  0  0  0
 25 40  1  0  0  0  0
 25 41  1  0  0  0  0
 25 42  1  0  0  0  0
M  END
> <PUBCHEM_COMPOUND_CID>
11302979

> <PUBCHEM_CONFORMER_RMSD>
0.8

> <PUBCHEM_CONFORMER_DIVERSEORDER>
4
14
19
36
32
16
41
24
39
13
34
20
12
26
22
31
25
6
17
10
11
38
7
42
23
35
15
21
27
28
40
37
9
3
18
5
29
30
2
33
1
8

> <PUBCHEM_MMFF94_PARTIAL_CHARGES>
29
1 1.2
10 0.09
11 -0.01
12 -0.14
13 0.3
14 0.09
15 0.06
16 -0.15
17 -0.15
18 0.28
19 0.14
2 -0.22
20 0.47
21 0.03
22 0.11
23 0.62
24 -0.05
25 0.3
28 0.15
29 0.15
3 -0.65
38 0.15
39 0.4
4 -0.65
5 -0.57
6 -0.57
7 -0.51
8 -0.34
9 -0.52

> <PUBCHEM_EFFECTIVE_ROTOR_COUNT>
4.6

> <PUBCHEM_PHARMACOPHORE_FEATURES>
10
1 21 anion
1 3 acceptor
1 4 acceptor
1 5 acceptor
1 6 acceptor
1 7 acceptor
1 9 donor
5 2 7 13 15 18 rings
5 8 9 21 23 24 rings
6 10 11 12 14 16 17 rings

> <PUBCHEM_HEAVY_ATOM_COUNT>
25

> <PUBCHEM_ATOM_DEF_STEREO_COUNT>
0

> <PUBCHEM_ATOM_UDEF_STEREO_COUNT>
0

> <PUBCHEM_BOND_DEF_STEREO_COUNT>
0

> <PUBCHEM_BOND_UDEF_STEREO_COUNT>
0

> <PUBCHEM_ISOTOPIC_ATOM_COUNT>
0

> <PUBCHEM_COMPONENT_COUNT>
1

> <PUBCHEM_CACTVS_TAUTO_COUNT>
4

> <PUBCHEM_CONFORMER_ID>
00AC784300000004

> <PUBCHEM_MMFF94_ENERGY>
89.3379

> <PUBCHEM_FEATURE_SELFOVERLAP>
50.767

> <PUBCHEM_SHAPE_FINGERPRINT>
10369192 42 17823984635635799204
11595378 159 17132116827386783369
11796584 16 17022896831409806315
12107183 9 17840601305504592641
12236239 1 17489593402574439045
12390115 104 17694222570969855752
12553582 1 18199463282122429222
12596602 18 17702952572892024337
12616971 3 18060417993849288807
12644460 14 18341895199373482826
13140716 1 18340760511900944270
13533116 47 18411705387465398787
13540713 4 18263911151794762348
13544653 18 18333448725210688229
13955234 65 18412259558626908432
14252887 29 18260829319032400376
14341114 176 18410867559789545665
14341114 328 17346327003278972795
14386348 63 17822010930247481465
14739800 52 16414901054750372018
15475509 35 17676485012523495762
15475509 84 17916591912348451473
16945 1 18341317977460430716
1813 80 17916312628237090814
18222031 100 18271802372216193791
20645477 70 18337658746284760055
20739085 24 18342469105451210580
21033650 10 15575275355097575892
21041028 32 18200594674902078936
21065201 7 16878216464144763709
22182313 1 18187910760245595308
23557571 272 17168130218157830556
23559900 14 17313106315242797782
239999 70 17749108907126892168
25147074 1 17845356894694027918
2748010 2 18194945367390173020
3004659 81 13406785636348934785
31174 14 18411136918384082104
312423 11 18340211773941090076
312425 54 18263098707802676483
3178227 256 18337391647450293176
341906 21 15410896254026848689
3421961 26 18408888408198873714
345986 75 17988644038913532264
34797466 226 16588320409328376023
465052 167 18338245877141992983
474 4 17843675805882352824
5104073 3 18339362964081633545
8863177 126 18187092766882118155

> <PUBCHEM_SHAPE_MULTIPOLES>
474.05
11.5
2.59
1.53
12.84
0.24
-0.01
2.55
3.35
-4.79
0.3
0.98
0.09
0.83

> <PUBCHEM_SHAPE_SELFOVERLAP>
1019.18

> <PUBCHEM_SHAPE_VOLUME>
265.8

> <PUBCHEM_COORDINATE_TYPE>
2
5
10

$$$$
