11304743
  -OEChem-03292013303D

 50 53  0     0  0  0  0  0  0999 V2000
   -5.6862   -0.5386    0.3128 F   0  0  0  0  0  0  0  0  0  0  0  0
    6.9635    0.8120    0.7113 O   0  0  0  0  0  0  0  0  0  0  0  0
    5.1164    0.2999    1.9322 O   0  0  0  0  0  0  0  0  0  0  0  0
   -2.5434   -0.2377   -1.0005 N   0  0  0  0  0  0  0  0  0  0  0  0
   -1.3396    0.3518   -1.1161 N   0  0  0  0  0  0  0  0  0  0  0  0
   -3.5358   -2.2945   -0.2035 N   0  0  0  0  0  0  0  0  0  0  0  0
    1.3083    0.9060   -1.0397 N   0  0  0  0  0  0  0  0  0  0  0  0
    1.6865   -1.2503   -0.0325 N   0  0  0  0  0  0  0  0  0  0  0  0
    4.9135    0.4837   -0.4145 N   0  0  0  0  0  0  0  0  0  0  0  0
    3.1235    2.3648   -1.4678 N   0  0  0  0  0  0  0  0  0  0  0  0
    3.8788   -1.9384    0.5405 N   0  0  0  0  0  0  0  0  0  0  0  0
   -1.1555   -1.7217   -0.1675 C   0  0  0  0  0  0  0  0  0  0  0  0
   -2.4929   -1.4797   -0.4395 C   0  0  0  0  0  0  0  0  0  0  0  0
   -3.7229    0.4577   -1.4591 C   0  0  0  0  0  0  0  0  0  0  0  0
   -0.4990   -0.5553   -0.6080 C   0  0  0  0  0  0  0  0  0  0  0  0
   -4.3310    1.2897   -0.3625 C   0  0  0  0  0  0  0  0  0  0  0  0
    0.9148   -0.2839   -0.5567 C   0  0  0  0  0  0  0  0  0  0  0  0
   -0.8168   -2.9464    0.4210 C   0  0  0  0  0  0  0  0  0  0  0  0
    3.5425    0.2200   -0.4647 C   0  0  0  0  0  0  0  0  0  0  0  0
   -1.8579   -3.8349    0.6903 C   0  0  0  0  0  0  0  0  0  0  0  0
   -5.2914    0.7324    0.4710 C   0  0  0  0  0  0  0  0  0  0  0  0
   -3.9221    2.6065   -0.2000 C   0  0  0  0  0  0  0  0  0  0  0  0
    2.6379    1.1268   -0.9779 C   0  0  0  0  0  0  0  0  0  0  0  0
    3.0044   -0.9633   -0.0016 C   0  0  0  0  0  0  0  0  0  0  0  0
   -3.1589   -3.4651    0.3656 C   0  0  0  0  0  0  0  0  0  0  0  0
   -5.8532    1.5066    1.4862 C   0  0  0  0  0  0  0  0  0  0  0  0
   -4.4842    3.3806    0.8152 C   0  0  0  0  0  0  0  0  0  0  0  0
   -5.4497    2.8307    1.6581 C   0  0  0  0  0  0  0  0  0  0  0  0
    5.7015    0.7561   -1.6543 C   0  0  0  0  0  0  0  0  0  0  0  0
    5.6304    0.5050    0.8351 C   0  0  0  0  0  0  0  0  0  0  0  0
    7.7186    0.8795    1.9272 C   0  0  0  0  0  0  0  0  0  0  0  0
   -4.4372   -0.2820   -1.8394 H   0  0  0  0  0  0  0  0  0  0  0  0
   -3.4415    1.0808   -2.3171 H   0  0  0  0  0  0  0  0  0  0  0  0
    0.2026   -3.2200    0.6683 H   0  0  0  0  0  0  0  0  0  0  0  0
   -1.6554   -4.7986    1.1457 H   0  0  0  0  0  0  0  0  0  0  0  0
   -3.1703    3.0449   -0.8504 H   0  0  0  0  0  0  0  0  0  0  0  0
   -3.9797   -4.1475    0.5701 H   0  0  0  0  0  0  0  0  0  0  0  0
   -6.6049    1.0783    2.1425 H   0  0  0  0  0  0  0  0  0  0  0  0
   -4.1698    4.4115    0.9494 H   0  0  0  0  0  0  0  0  0  0  0  0
   -5.8873    3.4334    2.4486 H   0  0  0  0  0  0  0  0  0  0  0  0
    6.0493    1.7928   -1.6289 H   0  0  0  0  0  0  0  0  0  0  0  0
    5.0899    0.5775   -2.5430 H   0  0  0  0  0  0  0  0  0  0  0  0
    6.5674    0.0873   -1.6756 H   0  0  0  0  0  0  0  0  0  0  0  0
    2.4334    3.0059   -1.8402 H   0  0  0  0  0  0  0  0  0  0  0  0
    3.9422    2.7619   -1.0234 H   0  0  0  0  0  0  0  0  0  0  0  0
    4.8193   -1.9928    0.1688 H   0  0  0  0  0  0  0  0  0  0  0  0
    3.4524   -2.7949    0.8728 H   0  0  0  0  0  0  0  0  0  0  0  0
    7.7072   -0.0902    2.4336 H   0  0  0  0  0  0  0  0  0  0  0  0
    7.3182    1.6627    2.5778 H   0  0  0  0  0  0  0  0  0  0  0  0
    8.7515    1.1298    1.6712 H   0  0  0  0  0  0  0  0  0  0  0  0
  1 21  1  0  0  0  0
  2 30  1  0  0  0  0
  2 31  1  0  0  0  0
  3 30  2  0  0  0  0
  4  5  1  0  0  0  0
  4 13  1  0  0  0  0
  4 14  1  0  0  0  0
  5 15  2  0  0  0  0
  6 13  1  0  0  0  0
  6 25  2  0  0  0  0
  7 17  1  0  0  0  0
  7 23  2  0  0  0  0
  8 17  2  0  0  0  0
  8 24  1  0  0  0  0
  9 19  1  0  0  0  0
  9 29  1  0  0  0  0
  9 30  1  0  0  0  0
 10 23  1  0  0  0  0
 10 44  1  0  0  0  0
 10 45  1  0  0  0  0
 11 24  1  0  0  0  0
 11 46  1  0  0  0  0
 11 47  1  0  0  0  0
 12 13  2  0  0  0  0
 12 15  1  0  0  0  0
 12 18  1  0  0  0  0
 14 16  1  0  0  0  0
 14 32  1  0  0  0  0
 14 33  1  0  0  0  0
 15 17  1  0  0  0  0
 16 21  1  0  0  0  0
 16 22  2  0  0  0  0
 18 20  2  0  0  0  0
 18 34  1  0  0  0  0
 19 23  1  0  0  0  0
 19 24  2  0  0  0  0
 20 25  1  0  0  0  0
 20 35  1  0  0  0  0
 21 26  2  0  0  0  0
 22 27  1  0  0  0  0
 22 36  1  0  0  0  0
 25 37  1  0  0  0  0
 26 28  1  0  0  0  0
 26 38  1  0  0  0  0
 27 28  2  0  0  0  0
 27 39  1  0  0  0  0
 28 40  1  0  0  0  0
 29 41  1  0  0  0  0
 29 42  1  0  0  0  0
 29 43  1  0  0  0  0
 31 48  1  0  0  0  0
 31 49  1  0  0  0  0
 31 50  1  0  0  0  0
M  END
> <PUBCHEM_COMPOUND_CID>
11304743

> <PUBCHEM_CONFORMER_RMSD>
0.8

> <PUBCHEM_CONFORMER_DIVERSEORDER>
10
147
186
180
138
145
144
194
172
202
134
129
184
137
201
183
76
133
126
150
99
80
86
101
112
91
178
168
174
196
193
120
31
113
121
203
179
104
19
181
157
96
139
149
127
35
176
114
62
79
192
47
94
140
61
23
155
189
105
136
195
146
89
119
151
88
93
198
142
71
153
128
27
148
164
188
45
103
131
67
159
26
161
65
68
90
191
17
115
187
100
58
18
175
102
95
98
117
158
97
69
111
63
50
197
83
85
66
44
132
152
78
46
34
53
160
122
169
87
30
166
162
163
167
84
14
41
48
25
15
20
51
81
123
16
165
199
110
56
156
182
32
170
108
135
116
177
82
24
54
40
143
185
37
72
200
39
125
106
173
171
109
92
55
75
124
64
190
107
141
74
12
59
57
49
60
70
33
38
8
11
154
73
118
77
52
29
3
21
7
6
42
4
130
36
28
43
5
22
2
13
9
1

> <PUBCHEM_MMFF94_PARTIAL_CHARGES>
41
1 -0.19
10 -0.9
11 -0.9
13 0.11
14 0.4
15 0.23
16 -0.14
17 0.67
18 -0.15
19 0.12
2 -0.43
20 -0.15
21 0.19
22 -0.15
23 0.41
24 0.41
25 0.16
26 -0.15
27 -0.15
28 -0.15
29 0.3
3 -0.57
30 0.78
31 0.28
34 0.15
35 0.15
36 0.15
37 0.15
38 0.15
39 0.15
4 0.31
40 0.15
44 0.4
45 0.4
46 0.4
47 0.4
5 -0.71
6 -0.57
7 -0.62
8 -0.62
9 -0.48

> <PUBCHEM_EFFECTIVE_ROTOR_COUNT>
6

> <PUBCHEM_PHARMACOPHORE_FEATURES>
12
1 10 donor
1 11 cation
1 11 donor
1 3 acceptor
1 5 acceptor
1 6 acceptor
3 7 10 23 cation
3 7 8 17 cation
5 4 5 12 13 15 rings
6 16 21 22 26 27 28 rings
6 6 12 13 18 20 25 rings
6 7 8 17 19 23 24 rings

> <PUBCHEM_HEAVY_ATOM_COUNT>
31

> <PUBCHEM_ATOM_DEF_STEREO_COUNT>
0

> <PUBCHEM_ATOM_UDEF_STEREO_COUNT>
0

> <PUBCHEM_BOND_DEF_STEREO_COUNT>
0

> <PUBCHEM_BOND_UDEF_STEREO_COUNT>
0

> <PUBCHEM_ISOTOPIC_ATOM_COUNT>
0

> <PUBCHEM_COMPONENT_COUNT>
1

> <PUBCHEM_CACTVS_TAUTO_COUNT>
5

> <PUBCHEM_CONFORMER_ID>
00AC7F270000000A

> <PUBCHEM_MMFF94_ENERGY>
110.6243

> <PUBCHEM_FEATURE_SELFOVERLAP>
61.145

> <PUBCHEM_SHAPE_FINGERPRINT>
10692045 39 18196649601654680986
11049842 53 18045251334118283990
11135609 201 17916034469523791809
11405975 8 18261955262252724460
12107183 9 18262514771995844874
12390115 104 18339936934915614311
12422481 6 17750793242612641383
12616971 3 17168140161697697150
12633257 1 18113893884016115988
13540713 5 17751651076509598598
13782708 43 12179847191225891944
14395042 24 18335429015299957643
14790565 3 18264777562514484109
14930077 153 14045753608076259291
15021287 119 17095241432089342084
15183329 4 18187081771912806046
15326921 28 18044919200092331269
15352257 5 13118275950227382272
16112460 7 18335702689651169010
16992727 255 11815073136697017923
16993089 31 14418126263374528394
18603816 31 14201397227203509705
19246450 95 17611157400726429288
21033648 29 18339651027459138993
21424621 283 18200877279470772609
21623969 137 15502373401123549240
21756936 100 18272647940076657021
22122407 14 17203322373212634720
23522609 53 17677918857886541324
23559900 14 17827065518096453918
23569914 152 16481368474196688844
23569943 247 16661742476296623186
25147074 1 17750239265225534694
3680242 22 17894903002472444586
397830 11 12108076643016326486
4073 2 18410856582017141346
44802255 64 16702299083267494532
46194498 28 12892777072301146985
484985 159 15936973063030523155
5104073 3 18334288760816502610
636775 72 18130780201002911160
6371009 1 18409161113464471117
6691757 9 18336252514094778046
6700243 42 17408567203457414791
7226269 152 18060417976137007865

> <PUBCHEM_SHAPE_MULTIPOLES>
579.11
17.12
3.77
1.5
19.05
2.1
-0.25
-12.16
-7.71
-6.24
-1.15
1.24
-0.8
-1.19

> <PUBCHEM_SHAPE_SELFOVERLAP>
1277.844

> <PUBCHEM_SHAPE_VOLUME>
311.9

> <PUBCHEM_COORDINATE_TYPE>
2
5
10

$$$$
