11305429
  -OEChem-03292013303D

 56 58  0     1  0  0  0  0  0999 V2000
   -2.0433   -0.2482   -0.1434 O   0  0  0  0  0  0  0  0  0  0  0  0
   -4.2509   -3.0252    0.7670 O   0  0  0  0  0  0  0  0  0  0  0  0
   -6.0860   -0.8504    0.2585 O   0  0  0  0  0  0  0  0  0  0  0  0
   -2.3072    2.0690   -0.0753 O   0  0  0  0  0  0  0  0  0  0  0  0
   -4.8820    1.7208    1.0460 O   0  0  0  0  0  0  0  0  0  0  0  0
   -0.1640   -2.2497   -0.0088 O   0  0  0  0  0  0  0  0  0  0  0  0
   -0.7964    2.4652   -2.3746 O   0  0  0  0  0  0  0  0  0  0  0  0
    0.5336   -4.0877   -1.2067 O   0  0  0  0  0  0  0  0  0  0  0  0
    3.8603    3.4442   -0.6948 O   0  0  0  0  0  0  0  0  0  0  0  0
    5.9585   -1.4214    0.7612 O   0  0  0  0  0  0  0  0  0  0  0  0
   -3.8884   -1.7925    0.1502 C   0  0  1  0  0  0  0  0  0  0  0  0
   -4.7486   -0.6672    0.7256 C   0  0  1  0  0  0  0  0  0  0  0  0
   -2.4026   -1.5209    0.3972 C   0  0  1  0  0  0  0  0  0  0  0  0
   -4.2372    0.7029    0.2807 C   0  0  2  0  0  0  0  0  0  0  0  0
   -2.7284    0.8288    0.4917 C   0  0  1  0  0  0  0  0  0  0  0  0
   -1.5183   -2.5700   -0.2695 C   0  0  0  0  0  0  0  0  0  0  0  0
   -0.9733    2.3600    0.0107 C   0  0  0  0  0  0  0  0  0  0  0  0
   -0.2208    2.5578   -1.1434 C   0  0  0  0  0  0  0  0  0  0  0  0
   -0.3779    2.4566    1.2654 C   0  0  0  0  0  0  0  0  0  0  0  0
    0.7685   -3.0935   -0.5373 C   0  0  0  0  0  0  0  0  0  0  0  0
    1.1384    2.8545   -1.0423 C   0  0  0  0  0  0  0  0  0  0  0  0
    0.9812    2.7533    1.3665 C   0  0  0  0  0  0  0  0  0  0  0  0
    1.7394    2.9522    0.2127 C   0  0  0  0  0  0  0  0  0  0  0  0
    2.1429   -2.6502   -0.1923 C   0  0  0  0  0  0  0  0  0  0  0  0
    3.1565    3.2616    0.3186 C   0  0  0  0  0  0  0  0  0  0  0  0
    2.3852   -1.3034   -0.0142 C   0  0  0  0  0  0  0  0  0  0  0  0
    3.1360   -3.5993   -0.0611 C   0  0  0  0  0  0  0  0  0  0  0  0
   -0.7971    1.1809   -2.9948 C   0  0  0  0  0  0  0  0  0  0  0  0
    3.6767   -0.8875    0.3092 C   0  0  0  0  0  0  0  0  0  0  0  0
    4.4276   -3.1833    0.2624 C   0  0  0  0  0  0  0  0  0  0  0  0
    3.8194    3.3699    1.6876 C   0  0  0  0  0  0  0  0  0  0  0  0
    4.6980   -1.8275    0.4475 C   0  0  0  0  0  0  0  0  0  0  0  0
   -4.0892   -1.8916   -0.9236 H   0  0  0  0  0  0  0  0  0  0  0  0
   -4.7922   -0.7260    1.8202 H   0  0  0  0  0  0  0  0  0  0  0  0
   -2.1749   -1.5196    1.4719 H   0  0  0  0  0  0  0  0  0  0  0  0
   -4.4969    0.8828   -0.7693 H   0  0  0  0  0  0  0  0  0  0  0  0
   -2.5081    0.8274    1.5672 H   0  0  0  0  0  0  0  0  0  0  0  0
   -1.6780   -2.5586   -1.3547 H   0  0  0  0  0  0  0  0  0  0  0  0
   -1.7419   -3.5691    0.1211 H   0  0  0  0  0  0  0  0  0  0  0  0
   -4.0691   -2.9494    1.7193 H   0  0  0  0  0  0  0  0  0  0  0  0
   -6.3760   -1.7334    0.5451 H   0  0  0  0  0  0  0  0  0  0  0  0
   -4.6647    1.5773    1.9829 H   0  0  0  0  0  0  0  0  0  0  0  0
   -0.9550    2.3243    2.1759 H   0  0  0  0  0  0  0  0  0  0  0  0
    1.7145    3.0066   -1.9519 H   0  0  0  0  0  0  0  0  0  0  0  0
    1.4078    2.8237    2.3621 H   0  0  0  0  0  0  0  0  0  0  0  0
    1.6104   -0.5513   -0.1295 H   0  0  0  0  0  0  0  0  0  0  0  0
    2.9372   -4.6579   -0.1996 H   0  0  0  0  0  0  0  0  0  0  0  0
   -0.8884    1.3236   -4.0751 H   0  0  0  0  0  0  0  0  0  0  0  0
    0.1288    0.6320   -2.7924 H   0  0  0  0  0  0  0  0  0  0  0  0
   -1.6582    0.6034   -2.6486 H   0  0  0  0  0  0  0  0  0  0  0  0
    3.8828    0.1699    0.4489 H   0  0  0  0  0  0  0  0  0  0  0  0
    5.2144   -3.9255    0.3677 H   0  0  0  0  0  0  0  0  0  0  0  0
    3.7488    2.4169    2.2183 H   0  0  0  0  0  0  0  0  0  0  0  0
    3.3654    4.1795    2.2646 H   0  0  0  0  0  0  0  0  0  0  0  0
    4.8804    3.6037    1.5536 H   0  0  0  0  0  0  0  0  0  0  0  0
    6.5364   -2.2018    0.8163 H   0  0  0  0  0  0  0  0  0  0  0  0
  1 13  1  0  0  0  0
  1 15  1  0  0  0  0
  2 11  1  0  0  0  0
  2 40  1  0  0  0  0
  3 12  1  0  0  0  0
  3 41  1  0  0  0  0
  4 15  1  0  0  0  0
  4 17  1  0  0  0  0
  5 14  1  0  0  0  0
  5 42  1  0  0  0  0
  6 16  1  0  0  0  0
  6 20  1  0  0  0  0
  7 18  1  0  0  0  0
  7 28  1  0  0  0  0
  8 20  2  0  0  0  0
  9 25  2  0  0  0  0
 10 32  1  0  0  0  0
 10 56  1  0  0  0  0
 11 12  1  0  0  0  0
 11 13  1  0  0  0  0
 11 33  1  0  0  0  0
 12 14  1  0  0  0  0
 12 34  1  0  0  0  0
 13 16  1  0  0  0  0
 13 35  1  0  0  0  0
 14 15  1  0  0  0  0
 14 36  1  0  0  0  0
 15 37  1  0  0  0  0
 16 38  1  0  0  0  0
 16 39  1  0  0  0  0
 17 18  2  0  0  0  0
 17 19  1  0  0  0  0
 18 21  1  0  0  0  0
 19 22  2  0  0  0  0
 19 43  1  0  0  0  0
 20 24  1  0  0  0  0
 21 23  2  0  0  0  0
 21 44  1  0  0  0  0
 22 23  1  0  0  0  0
 22 45  1  0  0  0  0
 23 25  1  0  0  0  0
 24 26  2  0  0  0  0
 24 27  1  0  0  0  0
 25 31  1  0  0  0  0
 26 29  1  0  0  0  0
 26 46  1  0  0  0  0
 27 30  2  0  0  0  0
 27 47  1  0  0  0  0
 28 48  1  0  0  0  0
 28 49  1  0  0  0  0
 28 50  1  0  0  0  0
 29 32  2  0  0  0  0
 29 51  1  0  0  0  0
 30 32  1  0  0  0  0
 30 52  1  0  0  0  0
 31 53  1  0  0  0  0
 31 54  1  0  0  0  0
 31 55  1  0  0  0  0
M  END
> <PUBCHEM_COMPOUND_CID>
11305429

> <PUBCHEM_CONFORMER_RMSD>
1

> <PUBCHEM_CONFORMER_DIVERSEORDER>
1
237
146
256
168
202
325
83
260
388
133
307
49
52
404
396
398
390
282
400
221
208
30
248
188
302
68
231
74
174
233
171
362
23
102
86
145
382
190
163
29
3
317
45
199
358
255
16
215
343
338
399
367
216
283
347
143
229
383
89
157
218
334
354
46
264
284
341
9
270
110
43
191
97
101
339
105
159
94
240
371
348
64
285
359
4
123
381
26
172
61
161
333
247
47
236
185
36
387
281
310
291
196
246
167
301
314
369
82
403
220
128
385
176
355
252
309
184
24
134
277
179
328
182
121
401
87
332
393
186
363
114
77
7
194
293
405
107
375
323
81
140
253
315
235
376
290
117
14
204
389
352
259
63
241
55
119
156
92
147
19
228
272
370
155
32
213
183
269
402
313
271
299
234
207
41
311
337
327
326
276
6
258
115
377
103
57
322
91
93
205
266
223
268
50
244
320
198
58
384
135
153
280
54
160
222
84
254
336
132
108
112
80
361
392
73
33
78
294
251
48
197
20
136
56
79
37
149
210
308
306
279
335
25
170
374
365
312
142
126
53
12
71
262
230
394
273
113
166
346
257
278
351
189
360
40
180
242
340
35
265
219
169
125
217
138
366
287
353
22
193
13
261
319
178
139
181
249
206
124
152
122
211
109
17
200
162
288
245
120
391
380
329
42
38
187
368
300
192
227
274
356
62
18
212
90
195
106
15
397
263
275
286
127
116
292
316
324
295
298
224
75
130
345
173
60
209
137
111
118
373
330
69
305
76
150
129
239
148
67
8
59
21
70
296
131
357
267
203
395
144
65
99
5
225
39
214
11
344
51
318
386
372
238
141
364
100
72
158
175
201
28
243
379
95
27
2
232
98
303
177
104
321
151
289
297
34
378
250
165
331
88
349
342
31
85
226
66
350
304
44
154
10
96
164

> <PUBCHEM_MMFF94_PARTIAL_CHARGES>
43
1 -0.56
10 -0.53
11 0.28
12 0.28
13 0.28
14 0.28
15 0.56
16 0.28
17 0.08
18 0.08
19 -0.15
2 -0.68
20 0.63
21 -0.15
22 -0.15
23 0.09
24 0.09
25 0.42
26 -0.15
27 -0.15
28 0.28
29 -0.15
3 -0.68
30 -0.15
31 0.06
32 0.08
4 -0.36
40 0.4
41 0.4
42 0.4
43 0.15
44 0.15
45 0.15
46 0.15
47 0.15
5 -0.68
51 0.15
52 0.15
56 0.45
6 -0.43
7 -0.36
8 -0.57
9 -0.57

> <PUBCHEM_EFFECTIVE_ROTOR_COUNT>
9.2

> <PUBCHEM_PHARMACOPHORE_FEATURES>
15
1 1 acceptor
1 10 donor
1 2 acceptor
1 2 donor
1 3 acceptor
1 3 donor
1 4 acceptor
1 5 acceptor
1 5 donor
1 7 acceptor
1 8 acceptor
1 9 acceptor
6 1 11 12 13 14 15 rings
6 17 18 19 21 22 23 rings
6 24 26 27 29 30 32 rings

> <PUBCHEM_HEAVY_ATOM_COUNT>
32

> <PUBCHEM_ATOM_DEF_STEREO_COUNT>
5

> <PUBCHEM_ATOM_UDEF_STEREO_COUNT>
0

> <PUBCHEM_BOND_DEF_STEREO_COUNT>
0

> <PUBCHEM_BOND_UDEF_STEREO_COUNT>
0

> <PUBCHEM_ISOTOPIC_ATOM_COUNT>
0

> <PUBCHEM_COMPONENT_COUNT>
1

> <PUBCHEM_CACTVS_TAUTO_COUNT>
6

> <PUBCHEM_CONFORMER_ID>
00AC81D500000001

> <PUBCHEM_MMFF94_ENERGY>
110.0261

> <PUBCHEM_FEATURE_SELFOVERLAP>
76.187

> <PUBCHEM_SHAPE_FINGERPRINT>
10032420 55 17604989222199055250
10670039 82 18192169100846901014
10675989 125 16469791158022624799
1100329 8 18267873791737787529
11513181 2 18058454381487510142
12422481 6 18191844907761149128
12539773 59 15829140276527788096
13140716 1 18411423920893895723
13402501 40 18195243321765852186
138480 1 18411421683057652920
14028597 1 17557455320322655819
14725015 67 18261103024439594723
15927050 60 18054790847803971894
17980427 23 18058453110999596607
18336668 15 18187934940863550421
19309040 13 14761776581973362938
19611394 137 18261972815521326698
20764821 26 18268408296317739222
20771845 165 18187348923322258757
21344244 246 18195230338897693143
23559900 14 18341041930857924985
338550 245 18192993940440974960
373842 8 18193272116408152994
469060 322 17098075839710661502
5265222 85 17616263910567787996
6287921 2 18342173392673523698
9543594 6 18340206422765091760

> <PUBCHEM_SHAPE_MULTIPOLES>
599.85
10.14
6.33
1.5
2.88
0.12
-1.07
4.96
3.91
-5.84
-0.16
0.18
-1.35
0.76

> <PUBCHEM_SHAPE_SELFOVERLAP>
1280.812

> <PUBCHEM_SHAPE_VOLUME>
330.7

> <PUBCHEM_COORDINATE_TYPE>
2
5
10

$$$$
