11303332
  -OEChem-03292013303D

 45 49  0     1  0  0  0  0  0999 V2000
   -0.4822    0.1581   -1.2532 O   0  0  0  0  0  0  0  0  0  0  0  0
   -1.9896    0.1202    2.1433 O   0  0  0  0  0  0  0  0  0  0  0  0
   -4.1129   -0.8373    0.5303 O   0  0  0  0  0  0  0  0  0  0  0  0
    0.2697   -1.4702    1.9842 O   0  0  0  0  0  0  0  0  0  0  0  0
   -3.0302    2.3548    0.9853 O   0  0  0  0  0  0  0  0  0  0  0  0
    0.1240    2.1621    1.2586 O   0  0  0  0  0  0  0  0  0  0  0  0
    1.9915   -2.5624   -0.3470 O   0  0  0  0  0  0  0  0  0  0  0  0
    4.3576   -1.6038   -0.6391 O   0  0  0  0  0  0  0  0  0  0  0  0
   -1.9130    0.2057    0.7374 C   0  0  1  0  0  0  0  0  0  0  0  0
   -0.4650    0.0528    0.1919 C   0  0  1  0  0  0  0  0  0  0  0  0
   -2.7601   -0.9084    0.0758 C   0  0  2  0  0  0  0  0  0  0  0  0
   -1.7760    0.4540   -1.8145 C   0  0  1  0  0  0  0  0  0  0  0  0
    0.1454   -1.3198    0.5680 C   0  0  2  0  0  0  0  0  0  0  0  0
   -2.7521   -0.6891   -1.4589 C   0  0  0  0  0  0  0  0  0  0  0  0
   -2.2117   -2.2961    0.4575 C   0  0  0  0  0  0  0  0  0  0  0  0
   -0.7399   -2.4818    0.0815 C   0  0  0  0  0  0  0  0  0  0  0  0
   -2.2873    1.7799   -1.2266 C   0  0  0  0  0  0  0  0  0  0  0  0
   -2.4802    1.5403    0.2511 C   0  0  0  0  0  0  0  0  0  0  0  0
    0.4889    1.1578    0.6561 C   0  0  0  0  0  0  0  0  0  0  0  0
   -1.6019    0.5728   -3.3256 C   0  0  0  0  0  0  0  0  0  0  0  0
    1.5657   -1.4726    0.0266 C   0  0  0  0  0  0  0  0  0  0  0  0
    1.9235    0.9873    0.3361 C   0  0  0  0  0  0  0  0  0  0  0  0
    2.4345   -0.2713    0.0099 C   0  0  0  0  0  0  0  0  0  0  0  0
    2.7674    2.1039    0.3543 C   0  0  0  0  0  0  0  0  0  0  0  0
    3.7896   -0.4073   -0.3144 C   0  0  0  0  0  0  0  0  0  0  0  0
    4.1174    1.9615    0.0340 C   0  0  0  0  0  0  0  0  0  0  0  0
    4.6268    0.7091   -0.3025 C   0  0  0  0  0  0  0  0  0  0  0  0
   -2.4491   -1.6077   -1.9749 H   0  0  0  0  0  0  0  0  0  0  0  0
   -3.7587   -0.4499   -1.8259 H   0  0  0  0  0  0  0  0  0  0  0  0
   -2.8147   -3.0801   -0.0186 H   0  0  0  0  0  0  0  0  0  0  0  0
   -2.3367   -2.4592    1.5362 H   0  0  0  0  0  0  0  0  0  0  0  0
   -0.3969   -3.4292    0.5176 H   0  0  0  0  0  0  0  0  0  0  0  0
   -0.6493   -2.5949   -1.0057 H   0  0  0  0  0  0  0  0  0  0  0  0
   -3.2440    2.0744   -1.6689 H   0  0  0  0  0  0  0  0  0  0  0  0
   -1.5492    2.5791   -1.3484 H   0  0  0  0  0  0  0  0  0  0  0  0
   -2.5509    0.7901   -3.8261 H   0  0  0  0  0  0  0  0  0  0  0  0
   -0.8881    1.3668   -3.5732 H   0  0  0  0  0  0  0  0  0  0  0  0
   -1.1918   -0.3533   -3.7442 H   0  0  0  0  0  0  0  0  0  0  0  0
   -1.3877    0.7839    2.5200 H   0  0  0  0  0  0  0  0  0  0  0  0
   -4.1023   -0.8900    1.5013 H   0  0  0  0  0  0  0  0  0  0  0  0
    0.7491   -0.7047    2.3419 H   0  0  0  0  0  0  0  0  0  0  0  0
    2.3907    3.0921    0.6038 H   0  0  0  0  0  0  0  0  0  0  0  0
    4.7713    2.8287    0.0438 H   0  0  0  0  0  0  0  0  0  0  0  0
    5.6815    0.6196   -0.5495 H   0  0  0  0  0  0  0  0  0  0  0  0
    5.3034   -1.4766   -0.8261 H   0  0  0  0  0  0  0  0  0  0  0  0
  1 10  1  0  0  0  0
  1 12  1  0  0  0  0
  2  9  1  0  0  0  0
  2 39  1  0  0  0  0
  3 11  1  0  0  0  0
  3 40  1  0  0  0  0
  4 13  1  0  0  0  0
  4 41  1  0  0  0  0
  5 18  2  0  0  0  0
  6 19  2  0  0  0  0
  7 21  2  0  0  0  0
  8 25  1  0  0  0  0
  8 45  1  0  0  0  0
  9 10  1  0  0  0  0
  9 11  1  0  0  0  0
  9 18  1  0  0  0  0
 10 13  1  0  0  0  0
 10 19  1  0  0  0  0
 11 14  1  0  0  0  0
 11 15  1  0  0  0  0
 12 14  1  0  0  0  0
 12 17  1  0  0  0  0
 12 20  1  0  0  0  0
 13 16  1  0  0  0  0
 13 21  1  0  0  0  0
 14 28  1  0  0  0  0
 14 29  1  0  0  0  0
 15 16  1  0  0  0  0
 15 30  1  0  0  0  0
 15 31  1  0  0  0  0
 16 32  1  0  0  0  0
 16 33  1  0  0  0  0
 17 18  1  0  0  0  0
 17 34  1  0  0  0  0
 17 35  1  0  0  0  0
 19 22  1  0  0  0  0
 20 36  1  0  0  0  0
 20 37  1  0  0  0  0
 20 38  1  0  0  0  0
 21 23  1  0  0  0  0
 22 23  2  0  0  0  0
 22 24  1  0  0  0  0
 23 25  1  0  0  0  0
 24 26  2  0  0  0  0
 24 42  1  0  0  0  0
 25 27  2  0  0  0  0
 26 27  1  0  0  0  0
 26 43  1  0  0  0  0
 27 44  1  0  0  0  0
M  END
> <PUBCHEM_COMPOUND_CID>
11303332

> <PUBCHEM_CONFORMER_RMSD>
0.6

> <PUBCHEM_CONFORMER_DIVERSEORDER>
1

> <PUBCHEM_MMFF94_PARTIAL_CHARGES>
30
1 -0.56
10 0.34
11 0.28
12 0.28
13 0.34
17 0.06
18 0.45
19 0.42
2 -0.68
21 0.42
22 0.09
23 0.09
24 -0.15
25 0.08
26 -0.15
27 -0.15
3 -0.68
39 0.4
4 -0.68
40 0.4
41 0.4
42 0.15
43 0.15
44 0.15
45 0.45
5 -0.57
6 -0.57
7 -0.57
8 -0.53
9 0.34

> <PUBCHEM_EFFECTIVE_ROTOR_COUNT>
1

> <PUBCHEM_PHARMACOPHORE_FEATURES>
15
1 1 acceptor
1 2 acceptor
1 2 donor
1 3 acceptor
1 3 donor
1 4 acceptor
1 4 donor
1 5 acceptor
1 6 acceptor
1 7 acceptor
1 8 donor
6 10 13 19 21 22 23 rings
6 22 23 24 25 26 27 rings
6 9 10 11 13 15 16 rings
8 1 9 10 11 12 14 17 18 rings

> <PUBCHEM_HEAVY_ATOM_COUNT>
27

> <PUBCHEM_ATOM_DEF_STEREO_COUNT>
5

> <PUBCHEM_ATOM_UDEF_STEREO_COUNT>
0

> <PUBCHEM_BOND_DEF_STEREO_COUNT>
0

> <PUBCHEM_BOND_UDEF_STEREO_COUNT>
0

> <PUBCHEM_ISOTOPIC_ATOM_COUNT>
0

> <PUBCHEM_COMPONENT_COUNT>
1

> <PUBCHEM_CACTVS_TAUTO_COUNT>
10

> <PUBCHEM_CONFORMER_ID>
00AC79A400000001

> <PUBCHEM_MMFF94_ENERGY>
94.6295

> <PUBCHEM_FEATURE_SELFOVERLAP>
76.589

> <PUBCHEM_SHAPE_FINGERPRINT>
10062212 137 18272363127667900514
10165383 225 17751933410221519749
10498660 4 17385708197580049932
10863032 1 18341616958501832449
10948715 1 18269843012725936361
10967382 1 18341336681863253986
1100329 8 17907020577681302930
11578080 2 17605554340720908861
121448 382 17604140532013295218
12173636 292 18413108376659860828
12236239 1 17131842005282505282
12403814 3 17749110027612124901
12592029 89 16845027761294570727
13027679 85 18340769368180972233
13140716 1 18266737982982489226
13224815 77 18187078464629783908
14142880 1 18040429993221486397
14223421 5 18410015459093628498
16752209 62 16629661982356462861
16945 1 18270108158083935403
17349148 13 18271507768178138770
17357779 13 17830999596597664303
17980427 23 17840271512203940938
1813 80 17241895482950664559
18186145 218 18261107444493516404
18981168 100 18338496591388271872
19930381 70 17908422802799114224
20600515 1 16735236173916580139
22907989 373 18042113435311502916
23227448 37 18341336608669741013
23419403 2 16750685549390479735
23557571 272 17531246192409570695
23559900 14 18197496432172622144
238 59 18048279393451216676
25 1 18337108960880932120
2748010 2 18268147742015964106
335352 9 18196661700724571164
34934 24 18130224827018001272
350125 39 18409455786126264618
404807 78 11916974259515509122
4340502 62 18263653883585839777
469060 322 16950854703501547473
6287921 2 18116444824039194644
70251023 43 17701516614906216359
81228 2 17605844843819108626
90525 40 17418376869868765229
9709674 26 18342746234490463478

> <PUBCHEM_SHAPE_MULTIPOLES>
508.69
6.77
2.6
1.78
6.07
0.43
1.01
-0.97
0.72
0.09
-0.38
-1.57
-0.49
0.58

> <PUBCHEM_SHAPE_SELFOVERLAP>
1168.129

> <PUBCHEM_SHAPE_VOLUME>
256.5

> <PUBCHEM_COORDINATE_TYPE>
2
5
10

$$$$
