11315
  -OEChem-03292013323D

 35 37  0     0  0  0  0  0  0999 V2000
    5.6603    0.3422   -0.2358 S   0  0  0  0  0  0  0  0  0  0  0  0
   -1.7710   -3.0719   -0.2644 O   0  0  0  0  0  0  0  0  0  0  0  0
    6.3102    0.4340    1.2617 O   0  0  0  0  0  0  0  0  0  0  0  0
    6.1872   -0.8658   -0.8538 O   0  0  0  0  0  0  0  0  0  0  0  0
    5.8239    1.6365   -0.8791 O   0  0  0  0  0  0  0  0  0  0  0  0
   -0.7437   -0.5142   -0.4696 N   0  0  0  0  0  0  0  0  0  0  0  0
   -0.1583   -0.4340    0.6334 N   0  0  0  0  0  0  0  0  0  0  0  0
   -2.9891    0.4015   -0.1577 C   0  0  0  0  0  0  0  0  0  0  0  0
   -4.3705    0.1754    0.0507 C   0  0  0  0  0  0  0  0  0  0  0  0
   -2.1213   -0.6979   -0.2622 C   0  0  0  0  0  0  0  0  0  0  0  0
   -4.8436   -1.1434    0.1484 C   0  0  0  0  0  0  0  0  0  0  0  0
   -2.5161    1.7201   -0.2557 C   0  0  0  0  0  0  0  0  0  0  0  0
   -2.6087   -2.0013   -0.1626 C   0  0  0  0  0  0  0  0  0  0  0  0
   -5.2383    1.2746    0.1550 C   0  0  0  0  0  0  0  0  0  0  0  0
   -3.9671   -2.2237    0.0423 C   0  0  0  0  0  0  0  0  0  0  0  0
    3.9483    0.1141    0.0207 C   0  0  0  0  0  0  0  0  0  0  0  0
   -3.3925    2.8005   -0.1496 C   0  0  0  0  0  0  0  0  0  0  0  0
   -4.7510    2.5781    0.0554 C   0  0  0  0  0  0  0  0  0  0  0  0
    1.2196   -0.2504    0.4265 C   0  0  0  0  0  0  0  0  0  0  0  0
    3.1039    1.2200    0.1192 C   0  0  0  0  0  0  0  0  0  0  0  0
    3.4248   -1.1744    0.1256 C   0  0  0  0  0  0  0  0  0  0  0  0
    1.7360    1.0373    0.3227 C   0  0  0  0  0  0  0  0  0  0  0  0
    2.0570   -1.3572    0.3289 C   0  0  0  0  0  0  0  0  0  0  0  0
   -5.9016   -1.3405    0.3084 H   0  0  0  0  0  0  0  0  0  0  0  0
   -1.4642    1.9387   -0.4217 H   0  0  0  0  0  0  0  0  0  0  0  0
   -6.3040    1.1245    0.3151 H   0  0  0  0  0  0  0  0  0  0  0  0
   -4.3604   -3.2338    0.1216 H   0  0  0  0  0  0  0  0  0  0  0  0
   -3.0142    3.8156   -0.2286 H   0  0  0  0  0  0  0  0  0  0  0  0
   -5.4328    3.4196    0.1376 H   0  0  0  0  0  0  0  0  0  0  0  0
    3.4896    2.2331    0.0487 H   0  0  0  0  0  0  0  0  0  0  0  0
    4.0642   -2.0501    0.0590 H   0  0  0  0  0  0  0  0  0  0  0  0
    1.0864    1.9046    0.4022 H   0  0  0  0  0  0  0  0  0  0  0  0
    1.6575   -2.3645    0.4119 H   0  0  0  0  0  0  0  0  0  0  0  0
   -2.2877   -3.8905   -0.1704 H   0  0  0  0  0  0  0  0  0  0  0  0
    6.2006   -0.3714    1.8202 H   0  0  0  0  0  0  0  0  0  0  0  0
  1  3  1  0  0  0  0
  1  4  2  0  0  0  0
  1  5  2  0  0  0  0
  1 16  1  0  0  0  0
  2 13  1  0  0  0  0
  2 34  1  0  0  0  0
  3 35  1  0  0  0  0
  6  7  2  0  0  0  0
  6 10  1  0  0  0  0
  7 19  1  0  0  0  0
  8  9  1  0  0  0  0
  8 10  1  0  0  0  0
  8 12  2  0  0  0  0
  9 11  1  0  0  0  0
  9 14  2  0  0  0  0
 10 13  2  0  0  0  0
 11 15  2  0  0  0  0
 11 24  1  0  0  0  0
 12 17  1  0  0  0  0
 12 25  1  0  0  0  0
 13 15  1  0  0  0  0
 14 18  1  0  0  0  0
 14 26  1  0  0  0  0
 15 27  1  0  0  0  0
 16 20  2  0  0  0  0
 16 21  1  0  0  0  0
 17 18  2  0  0  0  0
 17 28  1  0  0  0  0
 18 29  1  0  0  0  0
 19 22  2  0  0  0  0
 19 23  1  0  0  0  0
 20 22  1  0  0  0  0
 20 30  1  0  0  0  0
 21 23  2  0  0  0  0
 21 31  1  0  0  0  0
 22 32  1  0  0  0  0
 23 33  1  0  0  0  0
M  END
> <PUBCHEM_COMPOUND_CID>
11315

> <PUBCHEM_CONFORMER_RMSD>
0.6

> <PUBCHEM_CONFORMER_DIVERSEORDER>
1
2
4
3

> <PUBCHEM_MMFF94_PARTIAL_CHARGES>
33
1 1.49
10 0.18
11 -0.15
12 -0.15
13 0.08
14 -0.15
15 -0.15
16 -0.01
17 -0.15
18 -0.15
19 0.18
2 -0.53
20 -0.15
21 -0.15
22 -0.15
23 -0.15
24 0.15
25 0.15
26 0.15
27 0.15
28 0.15
29 0.15
3 -0.68
30 0.15
31 0.15
32 0.15
33 0.15
34 0.45
35 0.5
4 -0.65
5 -0.65
6 -0.18
7 -0.18

> <PUBCHEM_EFFECTIVE_ROTOR_COUNT>
3

> <PUBCHEM_PHARMACOPHORE_FEATURES>
8
1 2 donor
1 3 acceptor
1 4 acceptor
1 5 acceptor
4 1 3 4 5 anion
6 16 19 20 21 22 23 rings
6 8 9 10 11 13 15 rings
6 8 9 12 14 17 18 rings

> <PUBCHEM_HEAVY_ATOM_COUNT>
23

> <PUBCHEM_ATOM_DEF_STEREO_COUNT>
0

> <PUBCHEM_ATOM_UDEF_STEREO_COUNT>
0

> <PUBCHEM_BOND_DEF_STEREO_COUNT>
0

> <PUBCHEM_BOND_UDEF_STEREO_COUNT>
0

> <PUBCHEM_ISOTOPIC_ATOM_COUNT>
0

> <PUBCHEM_COMPONENT_COUNT>
1

> <PUBCHEM_CACTVS_TAUTO_COUNT>
3

> <PUBCHEM_CONFORMER_ID>
00002C3300000001

> <PUBCHEM_MMFF94_ENERGY>
58.8875

> <PUBCHEM_FEATURE_SELFOVERLAP>
40.678

> <PUBCHEM_SHAPE_FINGERPRINT>
10411042 1 17978510064428705519
10595046 47 18334575784901170774
10730089 173 18410295795920044252
11315181 36 18041277754881803439
12107183 9 17830446185655259714
12173636 292 18411410709854211079
12236239 1 17894911836565758492
12390115 104 18271537390388490905
12403259 415 18060133284472080336
13073987 5 18335135380321766434
14251757 5 18413672413297972065
14341114 176 18409454660871291213
15042514 8 18266180728968825723
15183329 4 18410294683971628214
15196674 1 18410292480141617968
15250474 111 18335124402280453954
16079462 125 17632002122849773656
17844677 252 18410862100680663176
19377110 9 17822001008862394306
20645477 56 18411699868300534753
21033648 29 17631716245178091880
21033650 10 18191050948854681924
21065198 48 18260542299395328971
21236236 1 18412825789972214759
21267235 1 18336552719898659243
21279426 13 18271249309762700094
21421861 104 17751347392747955074
22061861 79 17203616965103544716
221357 26 18342736359722275017
2297311 6 18340211877130964615
23081809 10 17821446872588078066
23402539 116 18408880758740644262
23402655 69 18409166602031404202
23557571 272 18343590658792900076
23559900 14 18271799155127479057
3004659 81 18410015395640056726
34797466 226 17845947337413742036
350125 39 18411139147567093345
3545911 37 18412545392505008601
4073 2 18114468941867784834
4214541 1 18411418405913352793
445580 37 18410023139006986900
5104073 3 18335698308525830802
5283173 99 18412829058226250712
542803 24 17821729442391052594
559249 180 18411697652118879274
59755656 215 18270967847654950174
6327066 14 18117833310157889325
77779 3 18410011035319537555
7808743 9 18409445847973193169
9995097 60 18273495667678416318

> <PUBCHEM_SHAPE_MULTIPOLES>
443.74
15.08
2.71
0.76
17.29
0.05
-0.03
-4.15
0.49
-3.92
0.2
0.61
-0.04
-0.1

> <PUBCHEM_SHAPE_SELFOVERLAP>
968.052

> <PUBCHEM_SHAPE_VOLUME>
241.1

> <PUBCHEM_COORDINATE_TYPE>
2
5
10

$$$$
