11315620
  -OEChem-03292013303D

 52 56  0     1  0  0  0  0  0999 V2000
    1.2572   -0.4230    2.1427 O   0  0  0  0  0  0  0  0  0  0  0  0
   -1.5730   -2.3038    0.6378 N   0  0  0  0  0  0  0  0  0  0  0  0
   -2.1284   -0.1016   -0.0144 N   0  0  0  0  0  0  0  0  0  0  0  0
   -3.2572   -1.9939   -0.9903 N   0  0  0  0  0  0  0  0  0  0  0  0
    2.4603    0.0157    1.6029 N   0  0  0  0  0  0  0  0  0  0  0  0
   -2.7113    2.1048   -0.6933 N   0  0  0  0  0  0  0  0  0  0  0  0
    3.6900   -1.0772   -1.5912 N   0  0  0  0  0  0  0  0  0  0  0  0
   -0.9090    2.4197    0.8595 N   0  0  0  0  0  0  0  0  0  0  0  0
   -0.2825    3.5427    1.2502 N   0  0  0  0  0  0  0  0  0  0  0  0
   -0.6550   -1.8728    1.7082 C   0  0  1  0  0  0  0  0  0  0  0  0
   -0.4548   -3.1605    2.5333 C   0  0  0  0  0  0  0  0  0  0  0  0
   -0.6064   -4.2761    1.5123 C   0  0  0  0  0  0  0  0  0  0  0  0
   -1.7064   -3.7610    0.5901 C   0  0  0  0  0  0  0  0  0  0  0  0
    0.6837   -1.2871    1.2771 C   0  0  0  0  0  0  0  0  0  0  0  0
   -2.3345   -1.4497   -0.1375 C   0  0  0  0  0  0  0  0  0  0  0  0
    1.4590   -1.4459    0.1718 C   0  0  0  0  0  0  0  0  0  0  0  0
    2.5592   -0.6087    0.4259 C   0  0  0  0  0  0  0  0  0  0  0  0
   -2.8886    0.7026   -0.7861 C   0  0  0  0  0  0  0  0  0  0  0  0
   -3.9827   -1.1314   -1.7322 C   0  0  0  0  0  0  0  0  0  0  0  0
   -3.8402    0.2397   -1.6717 C   0  0  0  0  0  0  0  0  0  0  0  0
    3.6975   -0.3935   -0.4268 C   0  0  0  0  0  0  0  0  0  0  0  0
   -4.9873   -1.7263   -2.6608 C   0  0  0  0  0  0  0  0  0  0  0  0
    4.7077    0.4665   -0.0337 C   0  0  0  0  0  0  0  0  0  0  0  0
   -1.8110    2.8720   -0.0069 C   0  0  0  0  0  0  0  0  0  0  0  0
   -1.7712    4.2640   -0.1761 C   0  0  0  0  0  0  0  0  0  0  0  0
    5.7853    0.6371   -0.8957 C   0  0  0  0  0  0  0  0  0  0  0  0
   -0.7616    4.6750    0.6594 C   0  0  0  0  0  0  0  0  0  0  0  0
    4.7538   -0.8862   -2.4032 C   0  0  0  0  0  0  0  0  0  0  0  0
    5.8165   -0.0485   -2.1050 C   0  0  0  0  0  0  0  0  0  0  0  0
   -0.2091    6.0071    0.9537 C   0  0  0  0  0  0  0  0  0  0  0  0
   -1.1552   -1.1323    2.3470 H   0  0  0  0  0  0  0  0  0  0  0  0
   -1.2569   -3.2456    3.2776 H   0  0  0  0  0  0  0  0  0  0  0  0
    0.5020   -3.2056    3.0631 H   0  0  0  0  0  0  0  0  0  0  0  0
    0.3271   -4.4009    0.9509 H   0  0  0  0  0  0  0  0  0  0  0  0
   -0.8597   -5.2377    1.9675 H   0  0  0  0  0  0  0  0  0  0  0  0
   -1.5800   -4.1534   -0.4244 H   0  0  0  0  0  0  0  0  0  0  0  0
   -2.6916   -4.0573    0.9684 H   0  0  0  0  0  0  0  0  0  0  0  0
    1.2570   -2.0724   -0.6849 H   0  0  0  0  0  0  0  0  0  0  0  0
   -4.4411    0.9019   -2.2838 H   0  0  0  0  0  0  0  0  0  0  0  0
   -3.3720    2.5997   -1.2914 H   0  0  0  0  0  0  0  0  0  0  0  0
   -4.9837   -2.8194   -2.5964 H   0  0  0  0  0  0  0  0  0  0  0  0
   -5.9935   -1.3769   -2.4082 H   0  0  0  0  0  0  0  0  0  0  0  0
   -4.7612   -1.4486   -3.6952 H   0  0  0  0  0  0  0  0  0  0  0  0
    4.6981    1.0085    0.9061 H   0  0  0  0  0  0  0  0  0  0  0  0
   -2.3826    4.8903   -0.8105 H   0  0  0  0  0  0  0  0  0  0  0  0
    6.5996    1.3030   -0.6261 H   0  0  0  0  0  0  0  0  0  0  0  0
    4.7301   -1.4436   -3.3338 H   0  0  0  0  0  0  0  0  0  0  0  0
    6.6463    0.0691   -2.7924 H   0  0  0  0  0  0  0  0  0  0  0  0
    0.4671    3.4619    1.9261 H   0  0  0  0  0  0  0  0  0  0  0  0
   -0.3166    6.2454    2.0168 H   0  0  0  0  0  0  0  0  0  0  0  0
    0.8542    6.0514    0.6968 H   0  0  0  0  0  0  0  0  0  0  0  0
   -0.7259    6.7840    0.3811 H   0  0  0  0  0  0  0  0  0  0  0  0
  1  5  1  0  0  0  0
  1 14  1  0  0  0  0
  2 10  1  0  0  0  0
  2 13  1  0  0  0  0
  2 15  1  0  0  0  0
  3 15  1  0  0  0  0
  3 18  2  0  0  0  0
  4 15  2  0  0  0  0
  4 19  1  0  0  0  0
  5 17  2  0  0  0  0
  6 18  1  0  0  0  0
  6 24  1  0  0  0  0
  6 40  1  0  0  0  0
  7 21  1  0  0  0  0
  7 28  2  0  0  0  0
  8  9  1  0  0  0  0
  8 24  2  0  0  0  0
  9 27  1  0  0  0  0
  9 49  1  0  0  0  0
 10 11  1  0  0  0  0
 10 14  1  0  0  0  0
 10 31  1  0  0  0  0
 11 12  1  0  0  0  0
 11 32  1  0  0  0  0
 11 33  1  0  0  0  0
 12 13  1  0  0  0  0
 12 34  1  0  0  0  0
 12 35  1  0  0  0  0
 13 36  1  0  0  0  0
 13 37  1  0  0  0  0
 14 16  2  0  0  0  0
 16 17  1  0  0  0  0
 16 38  1  0  0  0  0
 17 21  1  0  0  0  0
 18 20  1  0  0  0  0
 19 20  2  0  0  0  0
 19 22  1  0  0  0  0
 20 39  1  0  0  0  0
 21 23  2  0  0  0  0
 22 41  1  0  0  0  0
 22 42  1  0  0  0  0
 22 43  1  0  0  0  0
 23 26  1  0  0  0  0
 23 44  1  0  0  0  0
 24 25  1  0  0  0  0
 25 27  2  0  0  0  0
 25 45  1  0  0  0  0
 26 29  2  0  0  0  0
 26 46  1  0  0  0  0
 27 30  1  0  0  0  0
 28 29  1  0  0  0  0
 28 47  1  0  0  0  0
 29 48  1  0  0  0  0
 30 50  1  0  0  0  0
 30 51  1  0  0  0  0
 30 52  1  0  0  0  0
M  END
> <PUBCHEM_COMPOUND_CID>
11315620

> <PUBCHEM_CONFORMER_RMSD>
1

> <PUBCHEM_CONFORMER_DIVERSEORDER>
1
79
85
163
160
143
36
65
118
12
174
177
91
121
44
180
145
15
63
4
55
151
117
110
162
46
186
104
94
13
73
140
146
157
30
112
111
155
169
119
48
126
17
90
100
124
98
45
27
34
129
25
14
7
105
69
128
102
137
190
185
75
19
178
144
51
64
168
81
6
116
71
175
37
22
131
28
74
31
164
54
20
11
134
154
184
9
41
173
24
141
123
89
189
88
167
86
158
156
147
60
150
95
18
56
130
115
29
135
153
76
165
96
166
108
176
62
3
142
68
53
40
87
10
59
159
52
39
42
182
32
82
101
187
84
103
33
70
138
99
125
172
66
152
57
114
97
47
127
148
183
43
181
35
72
80
78
49
2
133
179
188
23
58
170
21
171
113
136
50
161
106
132
93
92
139
109
16
83
107
38
120
149
122
77
5
8
61
26
67

> <PUBCHEM_MMFF94_PARTIAL_CHARGES>
37
1 -0.02
10 0.55
13 0.37
14 -0.04
15 0.72
16 -0.15
17 0.23
18 0.41
19 0.17
2 -0.84
20 -0.15
21 0.36
22 0.14
23 -0.15
24 0.37
25 -0.15
26 -0.15
27 -0.33
28 0.16
29 -0.15
3 -0.62
30 0.18
38 0.15
39 0.15
4 -0.62
40 0.4
44 0.15
45 0.15
46 0.15
47 0.15
48 0.15
49 0.27
5 -0.41
6 -0.58
7 -0.62
8 -0.71
9 0.3

> <PUBCHEM_EFFECTIVE_ROTOR_COUNT>
6

> <PUBCHEM_PHARMACOPHORE_FEATURES>
11
1 5 acceptor
1 6 donor
1 7 acceptor
1 9 donor
3 6 8 24 cation
4 2 3 4 15 cation
5 1 5 14 16 17 rings
5 2 10 11 12 13 rings
5 8 9 24 25 27 rings
6 3 4 15 18 19 20 rings
6 7 21 23 26 28 29 rings

> <PUBCHEM_HEAVY_ATOM_COUNT>
30

> <PUBCHEM_ATOM_DEF_STEREO_COUNT>
1

> <PUBCHEM_ATOM_UDEF_STEREO_COUNT>
0

> <PUBCHEM_BOND_DEF_STEREO_COUNT>
0

> <PUBCHEM_BOND_UDEF_STEREO_COUNT>
0

> <PUBCHEM_ISOTOPIC_ATOM_COUNT>
0

> <PUBCHEM_COMPONENT_COUNT>
1

> <PUBCHEM_CACTVS_TAUTO_COUNT>
11

> <PUBCHEM_CONFORMER_ID>
00ACA9A400000001

> <PUBCHEM_MMFF94_ENERGY>
68.7679

> <PUBCHEM_FEATURE_SELFOVERLAP>
55.823

> <PUBCHEM_SHAPE_FINGERPRINT>
10006869 2 17978232656795931009
10291535 26 18336278911459307232
10871710 139 18337955567718078805
10937287 8 17903368013234443428
11200772 48 17620505427554478470
11434127 23 18412831253197152556
11828042 74 17550709563484665286
12293681 160 18261382365081283515
12788726 201 18409726235953555344
13149001 5 18046615974393316851
13165053 137 16032942028690539978
13965767 371 15169340881272702803
14114206 34 18267001913065821037
14114211 68 18042405742654773423
151778 21 17043458540357696672
15419009 47 17765728919103378150
15463212 79 18120383059967805712
15475509 8 18059568084588558439
15664445 248 18125972032485766151
15840311 113 17544216217284430003
15968369 26 17689134026344758661
161222 10 18046932401993549740
17818456 19 18117535402404007634
20587220 46 15762712740454524423
20775438 99 17332210583527370535
21033650 10 18269007388558210422
22907989 373 18191896546189377966
24893989 43 16689843824708065941
3534868 343 17689114991898749823
3610482 184 18046941245605109412
437795 70 18202560670817909093
437795 83 17902829502489274956
5081480 168 18198628937295456811
5171179 24 17759245481023162915

> <PUBCHEM_SHAPE_MULTIPOLES>
571.67
9.62
6.65
2.4
12.8
10.06
-0.53
-2.43
-10.4
-5.64
4.43
-0.02
-1.67
-0.28

> <PUBCHEM_SHAPE_SELFOVERLAP>
1254.83

> <PUBCHEM_SHAPE_VOLUME>
308.4

> <PUBCHEM_COORDINATE_TYPE>
2
5
10

$$$$
