11316460
  -OEChem-03292013303D

 54 57  0     1  0  0  0  0  0999 V2000
    1.6431    2.8132    1.2719 O   0  0  0  0  0  0  0  0  0  0  0  0
   -1.9010    3.3612   -0.1564 O   0  0  0  0  0  0  0  0  0  0  0  0
   -2.4273   -2.6885   -0.8981 O   0  0  0  0  0  0  0  0  0  0  0  0
    5.0830    1.3938    0.9110 O   0  5  0  0  0  0  0  0  0  0  0  0
    3.7634    1.9603    2.5819 O   0  0  0  0  0  0  0  0  0  0  0  0
    1.0850    1.5966   -0.6245 N   0  0  0  0  0  0  0  0  0  0  0  0
   -0.6275   -1.9288    0.2434 N   0  0  0  0  0  0  0  0  0  0  0  0
   -1.6419    1.0378   -0.3360 N   0  0  0  0  0  0  0  0  0  0  0  0
    3.9876    1.4162    1.4908 N   0  3  0  0  0  0  0  0  0  0  0  0
    0.1022    2.5339   -1.1569 C   0  0  1  0  0  0  0  0  0  0  0  0
   -0.0573    2.3557   -2.6610 C   0  0  0  0  0  0  0  0  0  0  0  0
    2.3452   -0.3519    1.7440 C   0  0  0  0  0  0  0  0  0  0  0  0
    1.3446   -1.2295    1.0649 C   0  0  0  0  0  0  0  0  0  0  0  0
    2.8455    0.7574    0.8161 C   0  0  1  0  0  0  0  0  0  0  0  0
    1.5963   -2.2789    0.1354 C   0  0  0  0  0  0  0  0  0  0  0  0
    0.3565   -2.7285   -0.3408 C   0  0  0  0  0  0  0  0  0  0  0  0
    1.8093    1.8407    0.5378 C   0  0  0  0  0  0  0  0  0  0  0  0
   -0.0216   -1.1489    1.2066 C   0  0  0  0  0  0  0  0  0  0  0  0
   -1.2462    2.3641   -0.4544 C   0  0  0  0  0  0  0  0  0  0  0  0
   -1.0515    3.3810   -3.2028 C   0  0  0  0  0  0  0  0  0  0  0  0
    1.2991    2.5026   -3.3482 C   0  0  0  0  0  0  0  0  0  0  0  0
   -1.9963   -1.8684   -0.0942 C   0  0  0  0  0  0  0  0  0  0  0  0
    2.7795   -2.8698   -0.3601 C   0  0  0  0  0  0  0  0  0  0  0  0
   -2.9564   -0.8769    0.4483 C   0  0  0  0  0  0  0  0  0  0  0  0
    0.2792   -3.7707   -1.2840 C   0  0  0  0  0  0  0  0  0  0  0  0
   -2.7837    0.5211    0.3349 C   0  0  0  0  0  0  0  0  0  0  0  0
    2.7003   -3.9062   -1.2923 C   0  0  0  0  0  0  0  0  0  0  0  0
    1.4650   -4.3519   -1.7436 C   0  0  0  0  0  0  0  0  0  0  0  0
   -4.0862   -1.4159    1.0817 C   0  0  0  0  0  0  0  0  0  0  0  0
   -3.7615    1.3476    0.9059 C   0  0  0  0  0  0  0  0  0  0  0  0
   -5.0455   -0.5730    1.6318 C   0  0  0  0  0  0  0  0  0  0  0  0
   -4.8809    0.8048    1.5471 C   0  0  0  0  0  0  0  0  0  0  0  0
    0.4622    3.5449   -0.9240 H   0  0  0  0  0  0  0  0  0  0  0  0
   -0.4423    1.3537   -2.8913 H   0  0  0  0  0  0  0  0  0  0  0  0
    1.8882    0.0745    2.6476 H   0  0  0  0  0  0  0  0  0  0  0  0
    3.1828   -0.9732    2.0884 H   0  0  0  0  0  0  0  0  0  0  0  0
    3.2255    0.3517   -0.1298 H   0  0  0  0  0  0  0  0  0  0  0  0
    1.2184    0.7149   -1.1115 H   0  0  0  0  0  0  0  0  0  0  0  0
   -0.6038   -0.5056    1.8523 H   0  0  0  0  0  0  0  0  0  0  0  0
   -0.7640    4.4027   -2.9314 H   0  0  0  0  0  0  0  0  0  0  0  0
   -1.0973    3.3294   -4.2964 H   0  0  0  0  0  0  0  0  0  0  0  0
   -2.0665    3.1988   -2.8366 H   0  0  0  0  0  0  0  0  0  0  0  0
    1.7647    3.4657   -3.1119 H   0  0  0  0  0  0  0  0  0  0  0  0
    1.1855    2.4471   -4.4366 H   0  0  0  0  0  0  0  0  0  0  0  0
    1.9938    1.7072   -3.0604 H   0  0  0  0  0  0  0  0  0  0  0  0
    3.7526   -2.5294   -0.0163 H   0  0  0  0  0  0  0  0  0  0  0  0
   -1.0208    0.3502   -0.7504 H   0  0  0  0  0  0  0  0  0  0  0  0
   -0.6693   -4.1326   -1.6649 H   0  0  0  0  0  0  0  0  0  0  0  0
    3.6114   -4.3644   -1.6666 H   0  0  0  0  0  0  0  0  0  0  0  0
    1.4173   -5.1583   -2.4708 H   0  0  0  0  0  0  0  0  0  0  0  0
   -4.2214   -2.4917    1.1620 H   0  0  0  0  0  0  0  0  0  0  0  0
   -3.7020    2.4289    0.8706 H   0  0  0  0  0  0  0  0  0  0  0  0
   -5.9173   -0.9888    2.1279 H   0  0  0  0  0  0  0  0  0  0  0  0
   -5.6277    1.4660    1.9783 H   0  0  0  0  0  0  0  0  0  0  0  0
  1 17  2  0  0  0  0
  2 19  2  0  0  0  0
  3 22  2  0  0  0  0
  4  9  1  0  0  0  0
  5  9  2  0  0  0  0
  6 10  1  0  0  0  0
  6 17  1  0  0  0  0
  6 38  1  0  0  0  0
  7 16  1  0  0  0  0
  7 18  1  0  0  0  0
  7 22  1  0  0  0  0
  8 19  1  0  0  0  0
  8 26  1  0  0  0  0
  8 47  1  0  0  0  0
  9 14  1  0  0  0  0
 10 11  1  0  0  0  0
 10 19  1  0  0  0  0
 10 33  1  0  0  0  0
 11 20  1  0  0  0  0
 11 21  1  0  0  0  0
 11 34  1  0  0  0  0
 12 13  1  0  0  0  0
 12 14  1  0  0  0  0
 12 35  1  0  0  0  0
 12 36  1  0  0  0  0
 13 15  1  0  0  0  0
 13 18  2  0  0  0  0
 14 17  1  0  0  0  0
 14 37  1  0  0  0  0
 15 16  1  0  0  0  0
 15 23  2  0  0  0  0
 16 25  2  0  0  0  0
 18 39  1  0  0  0  0
 20 40  1  0  0  0  0
 20 41  1  0  0  0  0
 20 42  1  0  0  0  0
 21 43  1  0  0  0  0
 21 44  1  0  0  0  0
 21 45  1  0  0  0  0
 22 24  1  0  0  0  0
 23 27  1  0  0  0  0
 23 46  1  0  0  0  0
 24 26  1  0  0  0  0
 24 29  2  0  0  0  0
 25 28  1  0  0  0  0
 25 48  1  0  0  0  0
 26 30  2  0  0  0  0
 27 28  2  0  0  0  0
 27 49  1  0  0  0  0
 28 50  1  0  0  0  0
 29 31  1  0  0  0  0
 29 51  1  0  0  0  0
 30 32  1  0  0  0  0
 30 52  1  0  0  0  0
 31 32  2  0  0  0  0
 31 53  1  0  0  0  0
 32 54  1  0  0  0  0
M  CHG  2   4  -1   9   1
M  END
> <PUBCHEM_COMPOUND_CID>
11316460

> <PUBCHEM_CONFORMER_RMSD>
0.8

> <PUBCHEM_CONFORMER_DIVERSEORDER>
1
9
8
5
7
2
4
3
6

> <PUBCHEM_MMFF94_PARTIAL_CHARGES>
39
1 -0.57
10 0.36
12 0.18
13 -0.18
14 0.3
16 -0.15
17 0.57
18 -0.3
19 0.57
2 -0.57
22 0.49
23 -0.15
24 0.09
25 -0.15
26 0.12
27 -0.15
28 -0.15
29 -0.15
3 -0.57
30 -0.15
31 -0.15
32 -0.15
38 0.37
39 0.15
4 -0.52
46 0.15
47 0.37
48 0.15
49 0.15
5 -0.52
50 0.15
51 0.15
52 0.15
53 0.15
54 0.15
6 -0.73
7 0.29
8 -0.55
9 0.8

> <PUBCHEM_EFFECTIVE_ROTOR_COUNT>
3

> <PUBCHEM_PHARMACOPHORE_FEATURES>
12
1 1 acceptor
1 2 acceptor
1 3 acceptor
1 4 acceptor
1 4 anion
1 5 acceptor
1 6 donor
1 8 donor
3 11 20 21 hydrophobe
5 7 13 15 16 18 rings
6 15 16 23 25 27 28 rings
6 24 26 29 30 31 32 rings

> <PUBCHEM_HEAVY_ATOM_COUNT>
32

> <PUBCHEM_ATOM_DEF_STEREO_COUNT>
2

> <PUBCHEM_ATOM_UDEF_STEREO_COUNT>
0

> <PUBCHEM_BOND_DEF_STEREO_COUNT>
0

> <PUBCHEM_BOND_UDEF_STEREO_COUNT>
0

> <PUBCHEM_ISOTOPIC_ATOM_COUNT>
0

> <PUBCHEM_COMPONENT_COUNT>
1

> <PUBCHEM_CACTVS_TAUTO_COUNT>
12

> <PUBCHEM_CONFORMER_ID>
00ACACEC00000001

> <PUBCHEM_MMFF94_ENERGY>
94.1791

> <PUBCHEM_FEATURE_SELFOVERLAP>
61.077

> <PUBCHEM_SHAPE_FINGERPRINT>
10165383 225 18202566215304014984
1100329 8 16901294461746258827
11513181 2 18130787803110283983
11582403 64 16414627310551308768
12156800 1 16049043804399270841
12422481 6 18336533946232346002
13140716 1 18046909552287116281
13149001 5 17616517468224412628
13383661 66 17697849795120264526
13383668 90 17415574374355667108
13402501 40 17618789059463818559
13642711 20 17915176820231288150
13965767 371 18340193163663083562
14415360 78 17255115649939012660
14840074 17 17969220212684839036
14863182 85 18339096976392637497
15297060 5 18053693496307875672
15420108 30 18201426026184084994
15444296 8 16950828298026755127
15463212 79 16454342976665821549
15840311 113 18055916495121010873
17357779 13 18048594812082039895
17980427 26 16987410140994557634
1979834 28 18339655520152731915
20775438 99 17833225833351131775
21049683 271 18196116390039252758
21315764 21 13284063178127396172
22182313 1 18188767228696398501
23559900 14 18263946370937747243
238 59 17110395781600624109
25019877 29 17486774353165651398
469060 322 17461692238062068704
513532 50 17845953861263024533
5265222 85 18196667391962978908
581034 39 18341058535269984732
6287921 2 18341622507510317363
9862522 239 18121465112647910792
9925002 15 17475781530210132954

> <PUBCHEM_SHAPE_MULTIPOLES>
609.27
7.26
5.65
2.59
4.69
0.85
-1.5
1.33
4.77
-3.24
-3.77
-1.23
-2.53
3.3

> <PUBCHEM_SHAPE_SELFOVERLAP>
1331.683

> <PUBCHEM_SHAPE_VOLUME>
328.8

> <PUBCHEM_COORDINATE_TYPE>
2
5
10

$$$$
