11317439
  -OEChem-03292013303D

 58 62  0     0  0  0  0  0  0999 V2000
   -0.4786    3.4101    2.2991 O   0  0  0  0  0  0  0  0  0  0  0  0
   -6.0285   -0.6169    1.8430 O   0  0  0  0  0  0  0  0  0  0  0  0
    0.2751    3.3703   -0.5715 O   0  0  0  0  0  0  0  0  0  0  0  0
    2.2448    2.9188   -2.2327 O   0  0  0  0  0  0  0  0  0  0  0  0
   -1.9162    1.9812    1.1098 N   0  0  0  0  0  0  0  0  0  0  0  0
   -3.8483   -0.0773    1.1966 N   0  0  0  0  0  0  0  0  0  0  0  0
    2.4665   -0.2209    1.2039 N   0  0  0  0  0  0  0  0  0  0  0  0
    4.9126   -1.4416   -0.0695 N   0  0  0  0  0  0  0  0  0  0  0  0
    4.6606    0.2134   -1.7320 N   0  0  0  0  0  0  0  0  0  0  0  0
    4.5311   -2.0537    1.0656 N   0  0  0  0  0  0  0  0  0  0  0  0
    6.3896   -3.0422    0.1704 N   0  0  0  0  0  0  0  0  0  0  0  0
   -3.0250    2.0678    2.0620 C   0  0  0  0  0  0  0  0  0  0  0  0
   -2.1893    1.1953   -0.1011 C   0  0  0  0  0  0  0  0  0  0  0  0
   -3.5530    0.6803    2.4138 C   0  0  0  0  0  0  0  0  0  0  0  0
   -2.7187   -0.1894    0.2630 C   0  0  0  0  0  0  0  0  0  0  0  0
   -0.7445    2.6830    1.3511 C   0  0  0  0  0  0  0  0  0  0  0  0
   -5.1026   -0.6677    1.0349 C   0  0  0  0  0  0  0  0  0  0  0  0
    1.3437    1.4993    0.4259 C   0  0  0  0  0  0  0  0  0  0  0  0
    0.3232    2.5409    0.3343 C   0  0  0  0  0  0  0  0  0  0  0  0
    2.4055    1.2587   -0.4657 C   0  0  0  0  0  0  0  0  0  0  0  0
    3.1035    0.1643    0.0475 C   0  0  0  0  0  0  0  0  0  0  0  0
   -5.3635   -1.4076   -0.2060 C   0  0  0  0  0  0  0  0  0  0  0  0
    1.3897    0.5915    1.4404 C   0  0  0  0  0  0  0  0  0  0  0  0
    2.8581    1.8461   -1.6556 C   0  0  0  0  0  0  0  0  0  0  0  0
    4.2262   -0.3556   -0.5834 C   0  0  0  0  0  0  0  0  0  0  0  0
   -5.0771   -2.7686   -0.2746 C   0  0  0  0  0  0  0  0  0  0  0  0
   -5.8959   -0.7445   -1.3088 C   0  0  0  0  0  0  0  0  0  0  0  0
    3.9853    1.2742   -2.2307 C   0  0  0  0  0  0  0  0  0  0  0  0
   -5.3246   -3.4713   -1.4538 C   0  0  0  0  0  0  0  0  0  0  0  0
   -6.1435   -1.4472   -2.4879 C   0  0  0  0  0  0  0  0  0  0  0  0
   -5.8578   -2.8106   -2.5604 C   0  0  0  0  0  0  0  0  0  0  0  0
    6.0210   -2.0397   -0.5929 C   0  0  0  0  0  0  0  0  0  0  0  0
    5.4550   -3.0116    1.1655 C   0  0  0  0  0  0  0  0  0  0  0  0
    1.2118    2.6432   -3.1756 C   0  0  0  0  0  0  0  0  0  0  0  0
    5.4637   -3.9717    2.2755 C   0  0  0  0  0  0  0  0  0  0  0  0
   -3.8104    2.6638    1.5821 H   0  0  0  0  0  0  0  0  0  0  0  0
   -2.7146    2.5947    2.9699 H   0  0  0  0  0  0  0  0  0  0  0  0
   -1.3073    1.0967   -0.7369 H   0  0  0  0  0  0  0  0  0  0  0  0
   -2.9441    1.7503   -0.6713 H   0  0  0  0  0  0  0  0  0  0  0  0
   -4.4409    0.7659    3.0479 H   0  0  0  0  0  0  0  0  0  0  0  0
   -2.7978    0.1130    2.9708 H   0  0  0  0  0  0  0  0  0  0  0  0
   -1.9417   -0.7721    0.7723 H   0  0  0  0  0  0  0  0  0  0  0  0
   -2.9906   -0.7290   -0.6462 H   0  0  0  0  0  0  0  0  0  0  0  0
    0.7695    0.4318    2.3117 H   0  0  0  0  0  0  0  0  0  0  0  0
    2.7482   -0.9904    1.7953 H   0  0  0  0  0  0  0  0  0  0  0  0
   -4.6609   -3.2922    0.5820 H   0  0  0  0  0  0  0  0  0  0  0  0
   -6.1207    0.3178   -1.2625 H   0  0  0  0  0  0  0  0  0  0  0  0
    4.3966    1.6743   -3.1532 H   0  0  0  0  0  0  0  0  0  0  0  0
   -5.1019   -4.5328   -1.5104 H   0  0  0  0  0  0  0  0  0  0  0  0
   -6.5582   -0.9328   -3.3498 H   0  0  0  0  0  0  0  0  0  0  0  0
   -6.0502   -3.3577   -3.4787 H   0  0  0  0  0  0  0  0  0  0  0  0
    6.5111   -1.7229   -1.5036 H   0  0  0  0  0  0  0  0  0  0  0  0
    0.6739    3.5726   -3.3817 H   0  0  0  0  0  0  0  0  0  0  0  0
    1.6522    2.2818   -4.1103 H   0  0  0  0  0  0  0  0  0  0  0  0
    0.5041    1.9006   -2.7927 H   0  0  0  0  0  0  0  0  0  0  0  0
    4.5352   -4.5509    2.2935 H   0  0  0  0  0  0  0  0  0  0  0  0
    5.5662   -3.4539    3.2343 H   0  0  0  0  0  0  0  0  0  0  0  0
    6.2974   -4.6745    2.1815 H   0  0  0  0  0  0  0  0  0  0  0  0
  1 16  2  0  0  0  0
  2 17  2  0  0  0  0
  3 19  2  0  0  0  0
  4 24  1  0  0  0  0
  4 34  1  0  0  0  0
  5 12  1  0  0  0  0
  5 13  1  0  0  0  0
  5 16  1  0  0  0  0
  6 14  1  0  0  0  0
  6 15  1  0  0  0  0
  6 17  1  0  0  0  0
  7 21  1  0  0  0  0
  7 23  1  0  0  0  0
  7 45  1  0  0  0  0
  8 10  1  0  0  0  0
  8 25  1  0  0  0  0
  8 32  1  0  0  0  0
  9 25  2  0  0  0  0
  9 28  1  0  0  0  0
 10 33  2  0  0  0  0
 11 32  2  0  0  0  0
 11 33  1  0  0  0  0
 12 14  1  0  0  0  0
 12 36  1  0  0  0  0
 12 37  1  0  0  0  0
 13 15  1  0  0  0  0
 13 38  1  0  0  0  0
 13 39  1  0  0  0  0
 14 40  1  0  0  0  0
 14 41  1  0  0  0  0
 15 42  1  0  0  0  0
 15 43  1  0  0  0  0
 16 19  1  0  0  0  0
 17 22  1  0  0  0  0
 18 19  1  0  0  0  0
 18 20  1  0  0  0  0
 18 23  2  0  0  0  0
 20 21  2  0  0  0  0
 20 24  1  0  0  0  0
 21 25  1  0  0  0  0
 22 26  2  0  0  0  0
 22 27  1  0  0  0  0
 23 44  1  0  0  0  0
 24 28  2  0  0  0  0
 26 29  1  0  0  0  0
 26 46  1  0  0  0  0
 27 30  2  0  0  0  0
 27 47  1  0  0  0  0
 28 48  1  0  0  0  0
 29 31  2  0  0  0  0
 29 49  1  0  0  0  0
 30 31  1  0  0  0  0
 30 50  1  0  0  0  0
 31 51  1  0  0  0  0
 32 52  1  0  0  0  0
 33 35  1  0  0  0  0
 34 53  1  0  0  0  0
 34 54  1  0  0  0  0
 34 55  1  0  0  0  0
 35 56  1  0  0  0  0
 35 57  1  0  0  0  0
 35 58  1  0  0  0  0
M  END
> <PUBCHEM_COMPOUND_CID>
11317439

> <PUBCHEM_CONFORMER_RMSD>
1

> <PUBCHEM_CONFORMER_DIVERSEORDER>
1
54
21
97
77
44
98
94
62
47
133
74
116
40
128
9
55
69
71
58
130
139
96
68
79
140
45
34
119
102
142
36
49
56
66
61
35
38
33
143
120
43
136
70
81
31
126
113
13
60
73
104
95
107
41
132
19
135
63
105
4
72
108
39
42
100
131
75
59
64
117
48
111
101
78
30
127
52
53
134
141
106
7
83
88
82
25
90
109
15
112
22
123
50
12
99
138
2
86
103
122
80
67
114
27
91
137
85
46
92
124
84
23
110
118
93
14
6
20
115
129
89
10
26
11
17
32
16
121
5
3
37
76
24
125
65
29
18
57
8
87
51
28

> <PUBCHEM_MMFF94_PARTIAL_CHARGES>
43
1 -0.57
10 -0.71
11 -0.57
12 0.3
13 0.3
14 0.3
15 0.3
16 0.63
17 0.54
18 -0.09
19 0.66
2 -0.57
21 -0.15
22 0.09
23 -0.3
24 0.08
25 0.29
26 -0.15
27 -0.15
28 0.16
29 -0.15
3 -0.57
30 -0.15
31 -0.15
32 0.04
33 0.34
34 0.28
35 0.18
4 -0.36
44 0.15
45 0.27
46 0.15
47 0.15
48 0.15
49 0.15
5 -0.66
50 0.15
51 0.15
52 0.15
6 -0.66
7 0.03
8 0.59
9 -0.62

> <PUBCHEM_EFFECTIVE_ROTOR_COUNT>
8.2

> <PUBCHEM_PHARMACOPHORE_FEATURES>
14
1 1 acceptor
1 2 acceptor
1 3 acceptor
1 4 acceptor
1 7 cation
1 7 donor
3 10 11 33 cation
3 8 11 32 cation
3 8 9 25 cation
5 7 18 20 21 23 rings
5 8 10 11 32 33 rings
6 22 26 27 29 30 31 rings
6 5 6 12 13 14 15 rings
6 9 20 21 24 25 28 rings

> <PUBCHEM_HEAVY_ATOM_COUNT>
35

> <PUBCHEM_ATOM_DEF_STEREO_COUNT>
0

> <PUBCHEM_ATOM_UDEF_STEREO_COUNT>
0

> <PUBCHEM_BOND_DEF_STEREO_COUNT>
0

> <PUBCHEM_BOND_UDEF_STEREO_COUNT>
0

> <PUBCHEM_ISOTOPIC_ATOM_COUNT>
0

> <PUBCHEM_COMPONENT_COUNT>
1

> <PUBCHEM_CACTVS_TAUTO_COUNT>
5

> <PUBCHEM_CONFORMER_ID>
00ACB0BF00000001

> <PUBCHEM_MMFF94_ENERGY>
86.7375

> <PUBCHEM_FEATURE_SELFOVERLAP>
74.021

> <PUBCHEM_SHAPE_FINGERPRINT>
10622 236 18335702706651501482
10917259 128 11170493391488854350
11135609 149 17749387057746285284
11135609 201 8358249372151464621
11135926 11 17751106758652308284
11211813 140 18271232851395728627
11497681 19 18339645543503190318
11607047 403 18198610233320012456
12166972 35 18335134315111569047
12633046 712 18117009977737450297
12977781 61 18055599955134575009
131258 38 18052519256449268750
14068700 675 18338791222050289536
14340393 91 17969202513667321623
14347329 18 12540697041510392789
15320291 9 17837480122253300263
15320294 125 18197512735752115073
15419009 47 18043518427100565517
15684393 108 18190468353905802735
16120349 67 11747217913826233081
18603816 31 18194954150450372513
19303781 99 18334014977683295794
19315092 285 18342177739945669608
19438510 23 9223220862986333846
20691028 202 13047036406263420615
20775438 99 18045779246018231906
21458453 9 15195279880225235683
23569914 152 17026529514606884015
25025965 108 17028236988274071762
25222932 49 17773031084175145844
2748736 6 7925636591933140831
32027 91 18129648820954421515
354706 109 15913334576930178071
4017518 198 17042041261394966820
437795 70 16877930612828461989
4394409 98 18201710731608900239
44880168 125 17701565938194826127
46194498 28 16372432478246977085
484985 159 18198335166117800473
50009960 94 17773853441790190095
5047190 6 18262498317855171739
563151 74 12247680491211083908
6058803 2 18269860707728459057
6677587 24 16955617937838727069
6679774 75 10573018544420308789
6691757 9 17770221548693918785
7970288 3 18272650151579295079

> <PUBCHEM_SHAPE_MULTIPOLES>
661.94
17.33
4.8
2.87
6.11
1.53
-0.92
22.82
-3.42
-3.01
0.3
1.22
-0.85
-6.87

> <PUBCHEM_SHAPE_SELFOVERLAP>
1462.685

> <PUBCHEM_SHAPE_VOLUME>
354.9

> <PUBCHEM_COORDINATE_TYPE>
2
5
10

$$$$
