11318905
  -OEChem-03292013303D

 43 43  0     1  0  0  0  0  0999 V2000
    0.8617   -0.0127   -1.4256 O   0  0  0  0  0  0  0  0  0  0  0  0
    2.5183   -2.1179   -0.0547 O   0  0  0  0  0  0  0  0  0  0  0  0
   -3.6226    2.3683   -1.4470 O   0  0  0  0  0  0  0  0  0  0  0  0
   -2.4759    2.8509    0.4511 O   0  0  0  0  0  0  0  0  0  0  0  0
   -4.6994   -2.3577    1.5662 O   0  0  0  0  0  0  0  0  0  0  0  0
   -4.1862   -2.8042   -0.5983 O   0  0  0  0  0  0  0  0  0  0  0  0
    2.8534    0.1562    0.2743 N   0  0  0  0  0  0  0  0  0  0  0  0
   -0.7154    0.8593    0.0480 N   0  0  0  0  0  0  0  0  0  0  0  0
    4.8333   -2.6401   -0.9731 N   0  0  0  0  0  0  0  0  0  0  0  0
    1.5280    0.4874    0.8187 C   0  0  2  0  0  0  0  0  0  0  0  0
    1.6621    1.9539    1.2676 C   0  0  0  0  0  0  0  0  0  0  0  0
    2.7485    2.5138    0.3574 C   0  0  0  0  0  0  0  0  0  0  0  0
    3.7051    1.3431    0.2151 C   0  0  0  0  0  0  0  0  0  0  0  0
    1.0843   -0.3945    1.9835 C   0  0  0  0  0  0  0  0  0  0  0  0
    0.5399    0.4026   -0.3154 C   0  0  0  0  0  0  0  0  0  0  0  0
    3.2416   -1.1221   -0.1074 C   0  0  0  0  0  0  0  0  0  0  0  0
   -1.8351    0.9041   -0.8645 C   0  0  1  0  0  0  0  0  0  0  0  0
    4.6504   -1.2463   -0.6330 C   0  0  0  0  0  0  0  0  0  0  0  0
   -2.6410   -0.4005   -0.8775 C   0  0  0  0  0  0  0  0  0  0  0  0
   -2.6584    2.1281   -0.5200 C   0  0  0  0  0  0  0  0  0  0  0  0
   -3.3101   -0.7859    0.4481 C   0  0  0  0  0  0  0  0  0  0  0  0
   -4.0823   -2.0860    0.3863 C   0  0  0  0  0  0  0  0  0  0  0  0
    0.7520    2.5573    1.2111 H   0  0  0  0  0  0  0  0  0  0  0  0
    2.0196    2.0027    2.3049 H   0  0  0  0  0  0  0  0  0  0  0  0
    3.2325    3.4039    0.7683 H   0  0  0  0  0  0  0  0  0  0  0  0
    2.3207    2.7746   -0.6181 H   0  0  0  0  0  0  0  0  0  0  0  0
    4.4035    1.2921    1.0576 H   0  0  0  0  0  0  0  0  0  0  0  0
    4.2728    1.3886   -0.7173 H   0  0  0  0  0  0  0  0  0  0  0  0
    1.8935   -0.5158    2.7127 H   0  0  0  0  0  0  0  0  0  0  0  0
    0.2250    0.0292    2.5151 H   0  0  0  0  0  0  0  0  0  0  0  0
    0.7883   -1.3948    1.6497 H   0  0  0  0  0  0  0  0  0  0  0  0
   -0.8875    1.1485    1.0059 H   0  0  0  0  0  0  0  0  0  0  0  0
   -1.4257    1.0728   -1.8687 H   0  0  0  0  0  0  0  0  0  0  0  0
    4.7666   -0.6342   -1.5312 H   0  0  0  0  0  0  0  0  0  0  0  0
    5.3698   -0.9350    0.1294 H   0  0  0  0  0  0  0  0  0  0  0  0
   -3.4178   -0.3330   -1.6504 H   0  0  0  0  0  0  0  0  0  0  0  0
   -1.9804   -1.2218   -1.1857 H   0  0  0  0  0  0  0  0  0  0  0  0
   -4.0113    0.0013    0.7465 H   0  0  0  0  0  0  0  0  0  0  0  0
   -2.5482   -0.8926    1.2281 H   0  0  0  0  0  0  0  0  0  0  0  0
    5.7698   -2.7775   -1.3512 H   0  0  0  0  0  0  0  0  0  0  0  0
    4.7847   -3.2127   -0.1310 H   0  0  0  0  0  0  0  0  0  0  0  0
   -4.1448    3.1702   -1.2315 H   0  0  0  0  0  0  0  0  0  0  0  0
   -5.2158   -3.1907    1.5250 H   0  0  0  0  0  0  0  0  0  0  0  0
  1 15  2  0  0  0  0
  2 16  2  0  0  0  0
  3 20  1  0  0  0  0
  3 42  1  0  0  0  0
  4 20  2  0  0  0  0
  5 22  1  0  0  0  0
  5 43  1  0  0  0  0
  6 22  2  0  0  0  0
  7 10  1  0  0  0  0
  7 13  1  0  0  0  0
  7 16  1  0  0  0  0
  8 15  1  0  0  0  0
  8 17  1  0  0  0  0
  8 32  1  0  0  0  0
  9 18  1  0  0  0  0
  9 40  1  0  0  0  0
  9 41  1  0  0  0  0
 10 11  1  0  0  0  0
 10 14  1  0  0  0  0
 10 15  1  0  0  0  0
 11 12  1  0  0  0  0
 11 23  1  0  0  0  0
 11 24  1  0  0  0  0
 12 13  1  0  0  0  0
 12 25  1  0  0  0  0
 12 26  1  0  0  0  0
 13 27  1  0  0  0  0
 13 28  1  0  0  0  0
 14 29  1  0  0  0  0
 14 30  1  0  0  0  0
 14 31  1  0  0  0  0
 16 18  1  0  0  0  0
 17 19  1  0  0  0  0
 17 20  1  0  0  0  0
 17 33  1  0  0  0  0
 18 34  1  0  0  0  0
 18 35  1  0  0  0  0
 19 21  1  0  0  0  0
 19 36  1  0  0  0  0
 19 37  1  0  0  0  0
 21 22  1  0  0  0  0
 21 38  1  0  0  0  0
 21 39  1  0  0  0  0
M  END
> <PUBCHEM_COMPOUND_CID>
11318905

> <PUBCHEM_CONFORMER_RMSD>
1

> <PUBCHEM_CONFORMER_DIVERSEORDER>
1
11
28
7
26
22
6
27
15
19
29
32
10
4
30
21
8
16
24
23
18
25
13
17
20
12
31
9
3
14
2
5

> <PUBCHEM_MMFF94_PARTIAL_CHARGES>
23
1 -0.57
10 0.36
13 0.3
15 0.57
16 0.57
17 0.36
18 0.33
2 -0.57
20 0.66
21 0.06
22 0.66
3 -0.65
32 0.37
4 -0.57
40 0.36
41 0.36
42 0.5
43 0.5
5 -0.65
6 -0.57
7 -0.66
8 -0.73
9 -0.99

> <PUBCHEM_EFFECTIVE_ROTOR_COUNT>
10

> <PUBCHEM_PHARMACOPHORE_FEATURES>
12
1 1 acceptor
1 2 acceptor
1 3 acceptor
1 4 acceptor
1 5 acceptor
1 6 acceptor
1 8 donor
1 9 cation
1 9 donor
3 3 4 20 anion
3 5 6 22 anion
5 7 10 11 12 13 rings

> <PUBCHEM_HEAVY_ATOM_COUNT>
22

> <PUBCHEM_ATOM_DEF_STEREO_COUNT>
2

> <PUBCHEM_ATOM_UDEF_STEREO_COUNT>
0

> <PUBCHEM_BOND_DEF_STEREO_COUNT>
0

> <PUBCHEM_BOND_UDEF_STEREO_COUNT>
0

> <PUBCHEM_ISOTOPIC_ATOM_COUNT>
0

> <PUBCHEM_COMPONENT_COUNT>
1

> <PUBCHEM_CACTVS_TAUTO_COUNT>
2

> <PUBCHEM_CONFORMER_ID>
00ACB67900000001

> <PUBCHEM_MMFF94_ENERGY>
47.4187

> <PUBCHEM_FEATURE_SELFOVERLAP>
61.016

> <PUBCHEM_SHAPE_FINGERPRINT>
11405975 8 18339638945288614088
11552529 35 17845091947426620571
12293681 4 18127697015278429840
12549972 3 17845352398084795921
12596599 1 18113893832133967500
12623949 98 18057341667156802199
13544653 18 18263923418431764959
13690498 29 18337967713637549318
13911882 115 18117848921572375154
14223421 5 18337663208998646105
14251757 5 18050569547507867172
14252887 29 18191871343215919923
14787075 74 17609207210522330729
15238133 3 15912785954217795419
15295992 7 17274813619925288457
20286276 3 18411422799644070500
20645477 70 17988347196696797596
221490 88 18412545409980075446
22943178 12 18339067250739690357
23557571 272 18114735057756296153
23559900 14 18410281506632493893
2838139 119 16444213983898479678
2871803 45 18188200005034363267
312423 11 18410022056084449317
3323516 105 18410857685454179042
3737641 26 18340495585232375379
5104073 3 18341888563765159832
5486654 36 18339932497671150171
58051976 100 18337951190729179405
59755656 520 18192712238163443669
6049 1 18412819200896706041
633830 44 15575294068596690244
9709674 26 18339630188156070845

> <PUBCHEM_SHAPE_MULTIPOLES>
402.59
9.59
3.35
1.34
1.99
0.07
0.31
6.38
-0.8
1.4
-0.16
0.34
0.08
2.28

> <PUBCHEM_SHAPE_SELFOVERLAP>
816.715

> <PUBCHEM_SHAPE_VOLUME>
233.1

> <PUBCHEM_COORDINATE_TYPE>
2
5
10

$$$$
