11326613
  -OEChem-03292013303D

 44 48  0     0  0  0  0  0  0999 V2000
    2.4726   -4.1483   -0.8377 O   0  0  0  0  0  0  0  0  0  0  0  0
   -2.5097   -4.1263   -0.8392 O   0  0  0  0  0  0  0  0  0  0  0  0
    3.4979   -2.2611   -0.0935 O   0  0  0  0  0  0  0  0  0  0  0  0
   -3.5187   -2.2313   -0.0928 O   0  0  0  0  0  0  0  0  0  0  0  0
   -0.0141   -3.1071   -0.4318 N   0  0  0  0  0  0  0  0  0  0  0  0
    2.7836    1.3057    2.0152 N   0  0  0  0  0  0  0  0  0  0  0  0
   -2.7724    1.3270    2.0145 N   0  0  0  0  0  0  0  0  0  0  0  0
    0.7044   -1.1497    0.3405 C   0  0  0  0  0  0  0  0  0  0  0  0
   -0.7141   -1.1459    0.3397 C   0  0  0  0  0  0  0  0  0  0  0  0
    1.5480   -0.0566    0.7724 C   0  0  0  0  0  0  0  0  0  0  0  0
   -1.5501   -0.0434    0.7726 C   0  0  0  0  0  0  0  0  0  0  0  0
    1.1087   -2.3765   -0.1427 C   0  0  0  0  0  0  0  0  0  0  0  0
   -1.1306   -2.3671   -0.1423 C   0  0  0  0  0  0  0  0  0  0  0  0
    2.0306    0.9908   -0.0611 C   0  0  0  0  0  0  0  0  0  0  0  0
   -2.0211    1.0063   -0.0615 C   0  0  0  0  0  0  0  0  0  0  0  0
    2.8028    1.8317    0.7430 C   0  0  0  0  0  0  0  0  0  0  0  0
   -2.7865    1.8536    0.7426 C   0  0  0  0  0  0  0  0  0  0  0  0
    2.0281    0.1643    2.0428 C   0  0  0  0  0  0  0  0  0  0  0  0
   -2.0264    0.1793    2.0421 C   0  0  0  0  0  0  0  0  0  0  0  0
    1.8841    1.3050   -1.4268 C   0  0  0  0  0  0  0  0  0  0  0  0
   -1.8710    1.3201   -1.4270 C   0  0  0  0  0  0  0  0  0  0  0  0
    3.4384    2.9759    0.2478 C   0  0  0  0  0  0  0  0  0  0  0  0
   -3.4118    3.0035    0.2475 C   0  0  0  0  0  0  0  0  0  0  0  0
    2.4363   -2.8732   -0.3364 C   0  0  0  0  0  0  0  0  0  0  0  0
   -2.4624   -2.8524   -0.3358 C   0  0  0  0  0  0  0  0  0  0  0  0
    2.5140    2.4463   -1.9361 C   0  0  0  0  0  0  0  0  0  0  0  0
   -2.4907    2.4671   -1.9361 C   0  0  0  0  0  0  0  0  0  0  0  0
    3.2788    3.2676   -1.1100 C   0  0  0  0  0  0  0  0  0  0  0  0
   -3.2488    3.2945   -1.1100 C   0  0  0  0  0  0  0  0  0  0  0  0
   -0.0182   -4.0478   -0.8025 H   0  0  0  0  0  0  0  0  0  0  0  0
    1.9014   -0.3856    2.9653 H   0  0  0  0  0  0  0  0  0  0  0  0
   -1.9043   -0.3720    2.9644 H   0  0  0  0  0  0  0  0  0  0  0  0
    3.2589    1.7051    2.8128 H   0  0  0  0  0  0  0  0  0  0  0  0
   -3.2443    1.7302    2.8121 H   0  0  0  0  0  0  0  0  0  0  0  0
    1.2974    0.6734   -2.0874 H   0  0  0  0  0  0  0  0  0  0  0  0
   -1.2893    0.6837   -2.0875 H   0  0  0  0  0  0  0  0  0  0  0  0
    4.0340    3.6158    0.8903 H   0  0  0  0  0  0  0  0  0  0  0  0
   -4.0021    3.6483    0.8899 H   0  0  0  0  0  0  0  0  0  0  0  0
    2.4054    2.6929   -2.9889 H   0  0  0  0  0  0  0  0  0  0  0  0
   -2.3793    2.7132   -2.9888 H   0  0  0  0  0  0  0  0  0  0  0  0
    3.7595    4.1491   -1.5266 H   0  0  0  0  0  0  0  0  0  0  0  0
   -3.7216    4.1803   -1.5266 H   0  0  0  0  0  0  0  0  0  0  0  0
    3.3938   -4.4629   -0.9599 H   0  0  0  0  0  0  0  0  0  0  0  0
   -3.4335   -4.4327   -0.9619 H   0  0  0  0  0  0  0  0  0  0  0  0
  1 24  1  0  0  0  0
  1 43  1  0  0  0  0
  2 25  1  0  0  0  0
  2 44  1  0  0  0  0
  3 24  2  0  0  0  0
  4 25  2  0  0  0  0
  5 12  1  0  0  0  0
  5 13  1  0  0  0  0
  5 30  1  0  0  0  0
  6 16  1  0  0  0  0
  6 18  1  0  0  0  0
  6 33  1  0  0  0  0
  7 17  1  0  0  0  0
  7 19  1  0  0  0  0
  7 34  1  0  0  0  0
  8  9  1  0  0  0  0
  8 10  1  0  0  0  0
  8 12  2  0  0  0  0
  9 11  1  0  0  0  0
  9 13  2  0  0  0  0
 10 14  1  0  0  0  0
 10 18  2  0  0  0  0
 11 15  1  0  0  0  0
 11 19  2  0  0  0  0
 12 24  1  0  0  0  0
 13 25  1  0  0  0  0
 14 16  1  0  0  0  0
 14 20  2  0  0  0  0
 15 17  1  0  0  0  0
 15 21  2  0  0  0  0
 16 22  2  0  0  0  0
 17 23  2  0  0  0  0
 18 31  1  0  0  0  0
 19 32  1  0  0  0  0
 20 26  1  0  0  0  0
 20 35  1  0  0  0  0
 21 27  1  0  0  0  0
 21 36  1  0  0  0  0
 22 28  1  0  0  0  0
 22 37  1  0  0  0  0
 23 29  1  0  0  0  0
 23 38  1  0  0  0  0
 26 28  2  0  0  0  0
 26 39  1  0  0  0  0
 27 29  2  0  0  0  0
 27 40  1  0  0  0  0
 28 41  1  0  0  0  0
 29 42  1  0  0  0  0
M  END
> <PUBCHEM_COMPOUND_CID>
11326613

> <PUBCHEM_CONFORMER_RMSD>
0.8

> <PUBCHEM_CONFORMER_DIVERSEORDER>
1
7
6
3
2
4
5

> <PUBCHEM_MMFF94_PARTIAL_CHARGES>
38
1 -0.65
12 -0.24
13 -0.24
16 -0.15
17 -0.15
18 -0.3
19 -0.3
2 -0.65
20 -0.15
21 -0.15
22 -0.15
23 -0.15
24 0.81
25 0.81
26 -0.15
27 -0.15
28 -0.15
29 -0.15
3 -0.57
30 0.27
31 0.15
32 0.15
33 0.27
34 0.27
35 0.15
36 0.15
37 0.15
38 0.15
39 0.15
4 -0.57
40 0.15
41 0.15
42 0.15
43 0.5
44 0.5
5 0.03
6 0.03
7 0.03

> <PUBCHEM_EFFECTIVE_ROTOR_COUNT>
4

> <PUBCHEM_PHARMACOPHORE_FEATURES>
17
1 1 acceptor
1 2 acceptor
1 3 acceptor
1 4 acceptor
1 5 cation
1 5 donor
1 6 cation
1 6 donor
1 7 cation
1 7 donor
3 1 3 24 anion
3 2 4 25 anion
5 5 8 9 12 13 rings
5 6 10 14 16 18 rings
5 7 11 15 17 19 rings
6 14 16 20 22 26 28 rings
6 15 17 21 23 27 29 rings

> <PUBCHEM_HEAVY_ATOM_COUNT>
29

> <PUBCHEM_ATOM_DEF_STEREO_COUNT>
0

> <PUBCHEM_ATOM_UDEF_STEREO_COUNT>
0

> <PUBCHEM_BOND_DEF_STEREO_COUNT>
0

> <PUBCHEM_BOND_UDEF_STEREO_COUNT>
0

> <PUBCHEM_ISOTOPIC_ATOM_COUNT>
0

> <PUBCHEM_COMPONENT_COUNT>
1

> <PUBCHEM_CACTVS_TAUTO_COUNT>
4

> <PUBCHEM_CONFORMER_ID>
00ACD49500000001

> <PUBCHEM_MMFF94_ENERGY>
56.3002

> <PUBCHEM_FEATURE_SELFOVERLAP>
86.571

> <PUBCHEM_SHAPE_FINGERPRINT>
10165383 225 18052576314873582952
10871710 139 17900835051887022029
10930396 42 17047359032419517608
11445158 3 17836688190660080689
11582403 64 16375747269882110237
12035758 1 18048302358973761626
12156800 1 15085981930418692548
12539773 59 16524999758186657652
12788726 201 18047183343641186833
13134695 92 17840300017648592000
13149001 5 18126573322900394239
13911987 19 17762638191084698038
14537116 161 15882600722272834253
14713325 29 17319900357190131966
14790565 3 17763760075782057449
14840074 17 18045519757369460457
14910302 57 17769961261228248204
14955137 171 17693686743386365883
15131766 46 13509348880770663767
15439362 3 18196361538319574232
1601671 61 18051412074447803411
18981168 100 18410859849621979940
20600515 1 17697329421330563078
20715895 44 17826194550827472335
22149856 69 18270400470398095841
22907989 373 18193821868021889117
23419403 2 14574579934086635539
23558518 356 18335695057267703459
238 59 18118952599671843045
3027735 51 18267581501801083341
3493558 16 17609451164569818439
350125 39 18412552010917957435
35225 105 18128525162161047781
469060 322 17977112580326483363
5252454 2 18196399032877549368
57527358 35 15478401766456555523
6287921 2 18266172838733718485
81228 2 17764325224209997496
9981440 41 16909690065883591947

> <PUBCHEM_SHAPE_MULTIPOLES>
558.39
6.3
5.58
1.79
0.04
3.16
-0.42
-3.54
0.18
-0.03
2.61
0
-1.09
-0.01

> <PUBCHEM_SHAPE_SELFOVERLAP>
1281.304

> <PUBCHEM_SHAPE_VOLUME>
290.7

> <PUBCHEM_COORDINATE_TYPE>
2
5
10

$$$$
