11327094
  -OEChem-03292013303D

 51 53  0     1  0  0  0  0  0999 V2000
    1.8466    2.8405    0.6199 O   0  0  0  0  0  0  0  0  0  0  0  0
    0.6053    3.3589    2.4873 O   0  0  0  0  0  0  0  0  0  0  0  0
    5.9253   -0.4470   -1.1576 O   0  0  0  0  0  0  0  0  0  0  0  0
    2.2092   -2.7135    0.8399 O   0  0  0  0  0  0  0  0  0  0  0  0
    4.8355   -2.7348   -0.0405 O   0  0  0  0  0  0  0  0  0  0  0  0
   -5.5265    1.1389   -1.1759 O   0  0  0  0  0  0  0  0  0  0  0  0
   -3.1871   -2.8162    0.1735 O   0  0  0  0  0  0  0  0  0  0  0  0
   -5.3402   -1.6233   -1.0962 O   0  0  0  0  0  0  0  0  0  0  0  0
    1.7056    1.9705   -0.5230 C   0  0  2  0  0  0  0  0  0  0  0  0
    0.2151    1.6985   -0.6619 C   0  0  0  0  0  0  0  0  0  0  0  0
   -0.2622    1.9731    0.7134 C   0  0  0  0  0  0  0  0  0  0  0  0
    2.5418    0.7132   -0.3944 C   0  0  0  0  0  0  0  0  0  0  0  0
    0.7350    2.8030    1.4120 C   0  0  0  0  0  0  0  0  0  0  0  0
   -1.3779    1.5385    1.3016 C   0  0  0  0  0  0  0  0  0  0  0  0
    1.9909   -0.4400    0.1686 C   0  0  0  0  0  0  0  0  0  0  0  0
    3.8655    0.7036   -0.8389 C   0  0  0  0  0  0  0  0  0  0  0  0
   -2.4200    0.7071    0.6711 C   0  0  0  0  0  0  0  0  0  0  0  0
    4.6350   -0.4539   -0.7211 C   0  0  0  0  0  0  0  0  0  0  0  0
    2.7604   -1.5975    0.2865 C   0  0  0  0  0  0  0  0  0  0  0  0
    4.0823   -1.6045   -0.1584 C   0  0  0  0  0  0  0  0  0  0  0  0
   -2.3083   -0.6724    0.7219 C   0  0  0  0  0  0  0  0  0  0  0  0
   -3.4884    1.3228    0.0412 C   0  0  0  0  0  0  0  0  0  0  0  0
   -4.4741    0.5363   -0.5553 C   0  0  0  0  0  0  0  0  0  0  0  0
   -3.2938   -1.4589    0.1253 C   0  0  0  0  0  0  0  0  0  0  0  0
   -4.3767   -0.8546   -0.5132 C   0  0  0  0  0  0  0  0  0  0  0  0
    6.4128    0.7696   -1.7200 C   0  0  0  0  0  0  0  0  0  0  0  0
    0.8521   -2.6218    1.2688 C   0  0  0  0  0  0  0  0  0  0  0  0
   -5.3765    1.4381   -2.5623 C   0  0  0  0  0  0  0  0  0  0  0  0
   -3.7867   -3.4741    1.2877 C   0  0  0  0  0  0  0  0  0  0  0  0
    2.0426    2.5251   -1.4080 H   0  0  0  0  0  0  0  0  0  0  0  0
   -0.2246    2.4574   -1.3228 H   0  0  0  0  0  0  0  0  0  0  0  0
   -0.0499    0.7234   -1.0790 H   0  0  0  0  0  0  0  0  0  0  0  0
   -1.5916    1.8072    2.3339 H   0  0  0  0  0  0  0  0  0  0  0  0
    0.9743   -0.4043    0.5299 H   0  0  0  0  0  0  0  0  0  0  0  0
    4.2411    1.6282   -1.2643 H   0  0  0  0  0  0  0  0  0  0  0  0
   -1.4822   -1.1428    1.2415 H   0  0  0  0  0  0  0  0  0  0  0  0
   -3.5690    2.4066    0.0066 H   0  0  0  0  0  0  0  0  0  0  0  0
    4.2886   -3.4265    0.3708 H   0  0  0  0  0  0  0  0  0  0  0  0
    6.4247    1.5794   -0.9824 H   0  0  0  0  0  0  0  0  0  0  0  0
    7.4529    0.5940   -2.0143 H   0  0  0  0  0  0  0  0  0  0  0  0
    5.8675    1.0410   -2.6304 H   0  0  0  0  0  0  0  0  0  0  0  0
    0.5844   -3.5937    1.6967 H   0  0  0  0  0  0  0  0  0  0  0  0
    0.7256   -1.8825    2.0666 H   0  0  0  0  0  0  0  0  0  0  0  0
    0.1842   -2.4599    0.4172 H   0  0  0  0  0  0  0  0  0  0  0  0
   -6.0321   -1.0384   -1.4500 H   0  0  0  0  0  0  0  0  0  0  0  0
   -6.3110    1.8781   -2.9209 H   0  0  0  0  0  0  0  0  0  0  0  0
   -4.5692    2.1622   -2.7107 H   0  0  0  0  0  0  0  0  0  0  0  0
   -5.1747    0.5288   -3.1371 H   0  0  0  0  0  0  0  0  0  0  0  0
   -3.6280   -4.5502    1.1762 H   0  0  0  0  0  0  0  0  0  0  0  0
   -3.3200   -3.1466    2.2221 H   0  0  0  0  0  0  0  0  0  0  0  0
   -4.8636   -3.2802    1.3171 H   0  0  0  0  0  0  0  0  0  0  0  0
  1  9  1  0  0  0  0
  1 13  1  0  0  0  0
  2 13  2  0  0  0  0
  3 18  1  0  0  0  0
  3 26  1  0  0  0  0
  4 19  1  0  0  0  0
  4 27  1  0  0  0  0
  5 20  1  0  0  0  0
  5 38  1  0  0  0  0
  6 23  1  0  0  0  0
  6 28  1  0  0  0  0
  7 24  1  0  0  0  0
  7 29  1  0  0  0  0
  8 25  1  0  0  0  0
  8 45  1  0  0  0  0
  9 10  1  0  0  0  0
  9 12  1  0  0  0  0
  9 30  1  0  0  0  0
 10 11  1  0  0  0  0
 10 31  1  0  0  0  0
 10 32  1  0  0  0  0
 11 13  1  0  0  0  0
 11 14  2  0  0  0  0
 12 15  2  0  0  0  0
 12 16  1  0  0  0  0
 14 17  1  0  0  0  0
 14 33  1  0  0  0  0
 15 19  1  0  0  0  0
 15 34  1  0  0  0  0
 16 18  2  0  0  0  0
 16 35  1  0  0  0  0
 17 21  2  0  0  0  0
 17 22  1  0  0  0  0
 18 20  1  0  0  0  0
 19 20  2  0  0  0  0
 21 24  1  0  0  0  0
 21 36  1  0  0  0  0
 22 23  2  0  0  0  0
 22 37  1  0  0  0  0
 23 25  1  0  0  0  0
 24 25  2  0  0  0  0
 26 39  1  0  0  0  0
 26 40  1  0  0  0  0
 26 41  1  0  0  0  0
 27 42  1  0  0  0  0
 27 43  1  0  0  0  0
 27 44  1  0  0  0  0
 28 46  1  0  0  0  0
 28 47  1  0  0  0  0
 28 48  1  0  0  0  0
 29 49  1  0  0  0  0
 29 50  1  0  0  0  0
 29 51  1  0  0  0  0
M  END
> <PUBCHEM_COMPOUND_CID>
11327094

> <PUBCHEM_CONFORMER_RMSD>
0.8

> <PUBCHEM_CONFORMER_DIVERSEORDER>
53
14
45
17
10
49
33
9
59
28
42
20
58
23
55
48
34
27
5
18
22
52
21
43
7
26
57
40
2
54
8
41
56
16
4
11
35
25
31
36
30
39
12
46
29
3
38
44
1
50
32
51
13
24
6
15
37
19
47

> <PUBCHEM_MMFF94_PARTIAL_CHARGES>
36
1 -0.43
10 0.14
11 -0.12
12 -0.14
13 0.71
14 -0.18
15 -0.15
16 -0.15
17 0.03
18 0.08
19 0.08
2 -0.57
20 0.08
21 -0.15
22 -0.15
23 0.08
24 0.08
25 0.08
26 0.28
27 0.28
28 0.28
29 0.28
3 -0.36
33 0.15
34 0.15
35 0.15
36 0.15
37 0.15
38 0.45
4 -0.36
45 0.45
5 -0.53
6 -0.36
7 -0.36
8 -0.53
9 0.42

> <PUBCHEM_EFFECTIVE_ROTOR_COUNT>
6.6

> <PUBCHEM_PHARMACOPHORE_FEATURES>
10
1 2 acceptor
1 3 acceptor
1 4 acceptor
1 5 donor
1 6 acceptor
1 7 acceptor
1 8 donor
5 1 9 10 11 13 rings
6 12 15 16 18 19 20 rings
6 17 21 22 23 24 25 rings

> <PUBCHEM_HEAVY_ATOM_COUNT>
29

> <PUBCHEM_ATOM_DEF_STEREO_COUNT>
0

> <PUBCHEM_ATOM_UDEF_STEREO_COUNT>
1

> <PUBCHEM_BOND_DEF_STEREO_COUNT>
1

> <PUBCHEM_BOND_UDEF_STEREO_COUNT>
0

> <PUBCHEM_ISOTOPIC_ATOM_COUNT>
0

> <PUBCHEM_COMPONENT_COUNT>
1

> <PUBCHEM_CACTVS_TAUTO_COUNT>
4

> <PUBCHEM_CONFORMER_ID>
00ACD67600000035

> <PUBCHEM_MMFF94_ENERGY>
122.1952

> <PUBCHEM_FEATURE_SELFOVERLAP>
50.749

> <PUBCHEM_SHAPE_FINGERPRINT>
11135926 11 18335710386385400862
12124843 1 18409164402813451735
12553582 1 18342179925466454801
12596602 18 13686288067619159102
12788726 201 17986112911739016577
13690498 29 18264210382329941431
13944108 23 16744774029862503949
14117953 113 17326603709479360815
14787075 74 18342188782338254796
14910302 57 18263065769487447429
14931854 50 18408605855090705863
14950920 106 12967129376289968548
15183329 4 18334851668047026117
17138139 8 18411420652613953782
17349148 13 16415478294239704853
17492 54 18187091667564941274
18222031 100 17489581243089656940
18608769 82 17823710831428402811
20028762 73 18267583508216513814
20511986 3 18113607980949319086
20775438 99 17552327266616019231
20775530 9 18264772236760428635
208703 8 17630595928782125239
21033650 10 17458617935174695301
21857420 4 11908152017792282252
221357 26 18265339580365511275
221490 88 18267028434298390960
22393880 68 18334855060453504471
23559900 14 18339354266456691793
238918 7 17407107133746024856
3004659 81 18187926123733827130
312425 83 17821728377223963365
339767 52 18342732992752920510
3729539 64 18263916641168648055
392239 28 18272375257235982352
4098825 35 17749118824132778837
46194498 28 17604151553231848709
463206 1 18337397053995863033
508706 21 18043245936942099915
613672 6 18060427884610183374
6669772 16 17554892444692404464
6823239 73 18343010121117090394
9709674 26 18267577091297035281

> <PUBCHEM_SHAPE_MULTIPOLES>
549.85
13.04
3.88
1.66
2.18
1.39
0.07
3.63
8.89
-0.61
-1.99
-0.84
-1.13
0.98

> <PUBCHEM_SHAPE_SELFOVERLAP>
1188.263

> <PUBCHEM_SHAPE_VOLUME>
304.6

> <PUBCHEM_COORDINATE_TYPE>
2
5
10

$$$$
