11329359
  -OEChem-03292013303D

 60 64  0     1  0  0  0  0  0999 V2000
    5.3394    2.7694    0.5247 S   0  0  0  0  0  0  0  0  0  0  0  0
   -7.3613    3.4458   -0.6046 F   0  0  0  0  0  0  0  0  0  0  0  0
    3.6167   -1.4452   -1.4460 O   0  0  0  0  0  0  0  0  0  0  0  0
    0.7075    2.2715    0.3819 O   0  0  0  0  0  0  0  0  0  0  0  0
   -3.6320   -1.5519    0.2967 N   0  0  0  0  0  0  0  0  0  0  0  0
   -0.7952   -1.8851    0.3274 N   0  0  0  0  0  0  0  0  0  0  0  0
    1.1203   -2.5005    1.6291 N   0  0  0  0  0  0  0  0  0  0  0  0
    3.3332   -2.2659    0.7043 N   0  0  0  0  0  0  0  0  0  0  0  0
    3.4200    1.1991   -0.1839 N   0  0  0  0  0  0  0  0  0  0  0  0
    2.7928    3.2919    0.8250 N   0  0  0  0  0  0  0  0  0  0  0  0
   -2.7750   -0.7051   -0.5419 C   0  0  0  0  0  0  0  0  0  0  0  0
   -3.0433   -2.8912    0.4201 C   0  0  0  0  0  0  0  0  0  0  0  0
   -4.9797   -1.6340   -0.2650 C   0  0  2  0  0  0  0  0  0  0  0  0
   -1.3768   -0.5652    0.0649 C   0  0  0  0  0  0  0  0  0  0  0  0
   -1.6547   -2.8236    1.0599 C   0  0  0  0  0  0  0  0  0  0  0  0
   -5.6207   -0.2659   -0.3572 C   0  0  0  0  0  0  0  0  0  0  0  0
   -5.8314   -2.6263    0.5240 C   0  0  0  0  0  0  0  0  0  0  0  0
    0.5910   -2.0178    0.4657 C   0  0  0  0  0  0  0  0  0  0  0  0
   -6.4659    0.0141   -1.4164 C   0  0  0  0  0  0  0  0  0  0  0  0
   -5.3476    0.6746    0.6208 C   0  0  0  0  0  0  0  0  0  0  0  0
    1.4091   -1.6484   -0.6033 C   0  0  0  0  0  0  0  0  0  0  0  0
   -7.0569    1.2749   -1.5006 C   0  0  0  0  0  0  0  0  0  0  0  0
   -5.9386    1.9352    0.5367 C   0  0  0  0  0  0  0  0  0  0  0  0
    2.7700   -1.7938   -0.4272 C   0  0  0  0  0  0  0  0  0  0  0  0
   -6.7933    2.2354   -0.5240 C   0  0  0  0  0  0  0  0  0  0  0  0
    2.4627   -2.5956    1.6775 C   0  0  0  0  0  0  0  0  0  0  0  0
    4.7349   -0.7050   -1.1170 C   0  0  0  0  0  0  0  0  0  0  0  0
    4.6058    0.5584   -0.5130 C   0  0  0  0  0  0  0  0  0  0  0  0
    5.7706    1.2655   -0.1997 C   0  0  0  0  0  0  0  0  0  0  0  0
    5.9943   -1.2314   -1.3933 C   0  0  0  0  0  0  0  0  0  0  0  0
    7.0475    0.7488   -0.4717 C   0  0  0  0  0  0  0  0  0  0  0  0
    7.1386   -0.5093   -1.0727 C   0  0  0  0  0  0  0  0  0  0  0  0
    3.6860    2.3617    0.3640 C   0  0  0  0  0  0  0  0  0  0  0  0
    1.3913    3.1961    0.8081 C   0  0  0  0  0  0  0  0  0  0  0  0
    0.7405    4.4187    1.4065 C   0  0  0  0  0  0  0  0  0  0  0  0
   -3.1547    0.3122   -0.6722 H   0  0  0  0  0  0  0  0  0  0  0  0
   -2.6840   -1.1355   -1.5494 H   0  0  0  0  0  0  0  0  0  0  0  0
   -3.6248   -3.5399    1.0820 H   0  0  0  0  0  0  0  0  0  0  0  0
   -2.9753   -3.3830   -0.5596 H   0  0  0  0  0  0  0  0  0  0  0  0
   -4.9052   -2.0291   -1.2897 H   0  0  0  0  0  0  0  0  0  0  0  0
   -1.4254    0.0026    1.0030 H   0  0  0  0  0  0  0  0  0  0  0  0
   -0.7590    0.0122   -0.6322 H   0  0  0  0  0  0  0  0  0  0  0  0
   -1.2205   -3.8314    1.0477 H   0  0  0  0  0  0  0  0  0  0  0  0
   -1.7342   -2.5070    2.1080 H   0  0  0  0  0  0  0  0  0  0  0  0
   -5.7859   -2.4368    1.6031 H   0  0  0  0  0  0  0  0  0  0  0  0
   -5.5564   -3.6685    0.3324 H   0  0  0  0  0  0  0  0  0  0  0  0
   -6.8867   -2.5394    0.2363 H   0  0  0  0  0  0  0  0  0  0  0  0
   -6.6798   -0.7272   -2.1806 H   0  0  0  0  0  0  0  0  0  0  0  0
   -4.7078    0.4634    1.4726 H   0  0  0  0  0  0  0  0  0  0  0  0
    1.0042   -1.2743   -1.5371 H   0  0  0  0  0  0  0  0  0  0  0  0
   -7.7229    1.5089   -2.3258 H   0  0  0  0  0  0  0  0  0  0  0  0
   -5.7382    2.6816    1.2997 H   0  0  0  0  0  0  0  0  0  0  0  0
    2.8877   -2.9771    2.5977 H   0  0  0  0  0  0  0  0  0  0  0  0
    6.0894   -2.2082   -1.8599 H   0  0  0  0  0  0  0  0  0  0  0  0
    7.9454    1.3068   -0.2242 H   0  0  0  0  0  0  0  0  0  0  0  0
    8.1176   -0.9276   -1.2916 H   0  0  0  0  0  0  0  0  0  0  0  0
    3.2106    4.1321    1.2170 H   0  0  0  0  0  0  0  0  0  0  0  0
    1.0382    5.3088    0.8453 H   0  0  0  0  0  0  0  0  0  0  0  0
   -0.3475    4.3190    1.3625 H   0  0  0  0  0  0  0  0  0  0  0  0
    1.0461    4.5256    2.4511 H   0  0  0  0  0  0  0  0  0  0  0  0
  1 29  1  0  0  0  0
  1 33  1  0  0  0  0
  2 25  1  0  0  0  0
  3 24  1  0  0  0  0
  3 27  1  0  0  0  0
  4 34  2  0  0  0  0
  5 11  1  0  0  0  0
  5 12  1  0  0  0  0
  5 13  1  0  0  0  0
  6 14  1  0  0  0  0
  6 15  1  0  0  0  0
  6 18  1  0  0  0  0
  7 18  1  0  0  0  0
  7 26  2  0  0  0  0
  8 24  2  0  0  0  0
  8 26  1  0  0  0  0
  9 28  1  0  0  0  0
  9 33  2  0  0  0  0
 10 33  1  0  0  0  0
 10 34  1  0  0  0  0
 10 57  1  0  0  0  0
 11 14  1  0  0  0  0
 11 36  1  0  0  0  0
 11 37  1  0  0  0  0
 12 15  1  0  0  0  0
 12 38  1  0  0  0  0
 12 39  1  0  0  0  0
 13 16  1  0  0  0  0
 13 17  1  0  0  0  0
 13 40  1  0  0  0  0
 14 41  1  0  0  0  0
 14 42  1  0  0  0  0
 15 43  1  0  0  0  0
 15 44  1  0  0  0  0
 16 19  2  0  0  0  0
 16 20  1  0  0  0  0
 17 45  1  0  0  0  0
 17 46  1  0  0  0  0
 17 47  1  0  0  0  0
 18 21  2  0  0  0  0
 19 22  1  0  0  0  0
 19 48  1  0  0  0  0
 20 23  2  0  0  0  0
 20 49  1  0  0  0  0
 21 24  1  0  0  0  0
 21 50  1  0  0  0  0
 22 25  2  0  0  0  0
 22 51  1  0  0  0  0
 23 25  1  0  0  0  0
 23 52  1  0  0  0  0
 26 53  1  0  0  0  0
 27 28  2  0  0  0  0
 27 30  1  0  0  0  0
 28 29  1  0  0  0  0
 29 31  2  0  0  0  0
 30 32  2  0  0  0  0
 30 54  1  0  0  0  0
 31 32  1  0  0  0  0
 31 55  1  0  0  0  0
 32 56  1  0  0  0  0
 34 35  1  0  0  0  0
 35 58  1  0  0  0  0
 35 59  1  0  0  0  0
 35 60  1  0  0  0  0
M  END
> <PUBCHEM_COMPOUND_CID>
11329359

> <PUBCHEM_CONFORMER_RMSD>
1.2

> <PUBCHEM_CONFORMER_DIVERSEORDER>
1
161
458
140
685
47
554
5
76
239
568
45
787
723
463
294
70
157
572
109
90
317
229
51
267
258
75
601
396
362
429
522
238
138
94
312
778
734
60
855
627
222
24
71
3
324
798
46
349
204
529
102
332
556
172
852
100
558
765
398
810
360
104
657
226
164
579
146
260
461
40
319
303
277
118
676
782
136
43
124
567
122
378
594
170
379
333
79
600
335
167
135
605
101
304
543
591
242
618
677
330
438
610
85
210
314
69
12
800
453
621
702
580
434
736
194
476
779
147
571
184
6
523
291
390
99
483
414
481
223
818
468
715
400
599
454
423
243
564
33
336
201
634
477
507
357
811
306
107
343
325
339
448
84
326
361
127
359
588
86
436
266
4
113
410
388
78
555
387
882
302
445
2
73
550
528
282
179
240
23
407
628
152
432
20
771
11
34
331
57
563
198
288
329
502
825
206
560
425
208
50
18
49
16
714
648
464
183
615
36
141
269
44
13
411
467
392
358
380
235
56
228
516
195
9
705
14
153
545
518
25
697
196
350
111
321
139
753
221
262
93
276
54
15
573
97
762
61
37
506
340
833
159
8
185
285
766
189
265
769
7
273
106
58
692
10
42
633
27
28
323
519
199
271
712
244
64
175
120
63
597
22

> <PUBCHEM_MMFF94_PARTIAL_CHARGES>
44
1 -0.08
10 -0.49
11 0.27
12 0.27
13 0.41
14 0.37
15 0.37
16 -0.14
18 0.41
19 -0.15
2 -0.19
20 -0.15
21 -0.15
22 -0.15
23 -0.15
24 0.39
25 0.19
26 0.47
27 0.08
28 0.23
29 0.04
3 -0.17
30 -0.15
31 -0.15
32 -0.15
33 0.44
34 0.57
35 0.06
4 -0.57
48 0.15
49 0.15
5 -0.81
50 0.15
51 0.15
52 0.15
53 0.15
54 0.15
55 0.15
56 0.15
57 0.37
6 -0.84
7 -0.62
8 -0.62
9 -0.57

> <PUBCHEM_EFFECTIVE_ROTOR_COUNT>
8.2

> <PUBCHEM_PHARMACOPHORE_FEATURES>
10
1 10 donor
1 4 acceptor
1 5 cation
1 6 cation
3 7 8 26 cation
5 1 9 28 29 33 rings
6 16 19 20 22 23 25 rings
6 27 28 29 30 31 32 rings
6 5 6 11 12 14 15 rings
6 7 8 18 21 24 26 rings

> <PUBCHEM_HEAVY_ATOM_COUNT>
35

> <PUBCHEM_ATOM_DEF_STEREO_COUNT>
0

> <PUBCHEM_ATOM_UDEF_STEREO_COUNT>
1

> <PUBCHEM_BOND_DEF_STEREO_COUNT>
0

> <PUBCHEM_BOND_UDEF_STEREO_COUNT>
0

> <PUBCHEM_ISOTOPIC_ATOM_COUNT>
0

> <PUBCHEM_COMPONENT_COUNT>
1

> <PUBCHEM_CACTVS_TAUTO_COUNT>
3

> <PUBCHEM_CONFORMER_ID>
00ACDF4F00000001

> <PUBCHEM_MMFF94_ENERGY>
106.8804

> <PUBCHEM_FEATURE_SELFOVERLAP>
50.822

> <PUBCHEM_SHAPE_FINGERPRINT>
10864689 126 18410298008350636262
11456790 92 18113896049080690010
11828042 226 18337380528360712805
12128747 34 18339923813806576845
13402501 40 18337673139305691996
13690498 29 17916298528208449319
13811026 1 18343584058309036492
13944108 23 18192711142139076821
14394314 77 18263649477118771061
14556957 393 16558482936800400011
14681490 219 18342739598391964372
14725015 67 18412255122411215704
14931854 50 18339374006679629372
15082195 135 17988361468709929115
15183329 4 18411980256603280673
15274700 259 17460852044561226685
15289351 153 18335974325211102282
15351339 4 18337666400059289808
15406563 190 16516803651069816373
15968369 153 17845636089128013184
16067689 134 18124886651121903417
16112460 7 18269845216461358849
19053607 189 18052812843830333768
21033648 29 18042122223510993406
21133410 62 18115039523930274721
21223535 225 18412258445634442423
21279426 13 18412267258838780933
23559900 14 18271804666023810611
24893992 56 18260266382301653611
2747138 104 17897457314108193411
2838139 119 18340768255383912374
3986486 107 18337123315352778230
4144715 1 18191314968599505010
42767 28 18413111658025301521
4461854 278 8430305870541053000
508180 173 18411705408523543392
5104073 3 17603302640129795667
6086070 43 18412541033192493683

> <PUBCHEM_SHAPE_MULTIPOLES>
675.23
21.1
4.82
1.32
14.45
3.35
0
8.76
8.38
0.92
-2.16
-0.21
-0.23
2.26

> <PUBCHEM_SHAPE_SELFOVERLAP>
1459.783

> <PUBCHEM_SHAPE_VOLUME>
374.5

> <PUBCHEM_COORDINATE_TYPE>
2
5
10

$$$$
