11339193
  -OEChem-03292013303D

 65 68  0     1  0  0  0  0  0999 V2000
    3.9112   -2.8210    1.2912 O   0  0  0  0  0  0  0  0  0  0  0  0
    1.6583   -1.9448   -0.4627 O   0  0  0  0  0  0  0  0  0  0  0  0
    4.4968    0.4231   -0.3857 O   0  0  0  0  0  0  0  0  0  0  0  0
    3.4063   -4.5545   -1.4721 O   0  0  0  0  0  0  0  0  0  0  0  0
    4.5563    2.7969   -0.3937 O   0  0  0  0  0  0  0  0  0  0  0  0
    0.5845    2.6712    2.0905 O   0  0  0  0  0  0  0  0  0  0  0  0
    1.9418    1.9960    0.3297 N   0  0  0  0  0  0  0  0  0  0  0  0
    3.6490   -0.5969    0.2038 C   0  0  0  0  0  0  0  0  0  0  0  0
    4.5565   -1.7208    0.6344 C   0  0  2  0  0  0  0  0  0  0  0  0
    2.6377   -0.9727   -0.8522 C   0  0  1  0  0  0  0  0  0  0  0  0
    4.4973   -3.0873    0.0067 C   0  0  2  0  0  0  0  0  0  0  0  0
    2.6003   -2.3453   -1.4706 C   0  0  1  0  0  0  0  0  0  0  0  0
    2.9847    0.0702    1.4249 C   0  0  0  0  0  0  0  0  0  0  0  0
    3.4973   -3.4213   -1.0198 C   0  0  0  0  0  0  0  0  0  0  0  0
    3.0618    1.5547    1.1254 C   0  0  1  0  0  0  0  0  0  0  0  0
    4.3888    1.6273    0.3863 C   0  0  1  0  0  0  0  0  0  0  0  0
    0.7900    2.5210    0.8904 C   0  0  0  0  0  0  0  0  0  0  0  0
   -0.2101    2.8946   -0.1468 C   0  0  0  0  0  0  0  0  0  0  0  0
   -1.3902    3.4212    0.2096 C   0  0  0  0  0  0  0  0  0  0  0  0
   -2.4550    3.8258   -0.7873 C   0  0  1  0  0  0  0  0  0  0  0  0
   -3.7343    2.9999   -0.5306 C   0  0  0  0  0  0  0  0  0  0  0  0
   -3.5746    1.4636   -0.5938 C   0  0  1  0  0  0  0  0  0  0  0  0
   -4.8886    0.7396   -0.2199 C   0  0  0  0  0  0  0  0  0  0  0  0
   -2.7007    5.3320   -0.6772 C   0  0  0  0  0  0  0  0  0  0  0  0
   -4.7469   -0.7816   -0.1046 C   0  0  0  0  0  0  0  0  0  0  0  0
   -3.1310    0.9927   -1.9838 C   0  0  0  0  0  0  0  0  0  0  0  0
   -6.0609   -1.4273    0.3429 C   0  0  0  0  0  0  0  0  0  0  0  0
   -5.9325   -2.9491    0.4278 C   0  0  0  0  0  0  0  0  0  0  0  0
   -7.2539   -3.5961    0.8419 C   0  0  0  0  0  0  0  0  0  0  0  0
   -7.1399   -5.1111    0.8952 C   0  0  0  0  0  0  0  0  0  0  0  0
    5.4927   -1.3836    1.0617 H   0  0  0  0  0  0  0  0  0  0  0  0
    2.2939   -0.1425   -1.4543 H   0  0  0  0  0  0  0  0  0  0  0  0
    5.4167   -3.6609   -0.0120 H   0  0  0  0  0  0  0  0  0  0  0  0
    2.2384   -2.4163   -2.4898 H   0  0  0  0  0  0  0  0  0  0  0  0
    1.9675   -0.2879    1.6160 H   0  0  0  0  0  0  0  0  0  0  0  0
    3.5718   -0.1312    2.3311 H   0  0  0  0  0  0  0  0  0  0  0  0
    3.0856    2.1580    2.0391 H   0  0  0  0  0  0  0  0  0  0  0  0
    5.2141    1.6020    1.1077 H   0  0  0  0  0  0  0  0  0  0  0  0
    1.9974    1.8815   -0.6780 H   0  0  0  0  0  0  0  0  0  0  0  0
    3.6818    3.0844   -0.7035 H   0  0  0  0  0  0  0  0  0  0  0  0
    0.0355    2.7324   -1.1910 H   0  0  0  0  0  0  0  0  0  0  0  0
   -1.6256    3.5800    1.2597 H   0  0  0  0  0  0  0  0  0  0  0  0
   -2.1063    3.6345   -1.8090 H   0  0  0  0  0  0  0  0  0  0  0  0
   -4.4981    3.3064   -1.2580 H   0  0  0  0  0  0  0  0  0  0  0  0
   -4.1359    3.2666    0.4569 H   0  0  0  0  0  0  0  0  0  0  0  0
   -2.8127    1.1555    0.1324 H   0  0  0  0  0  0  0  0  0  0  0  0
   -5.6659    0.9813   -0.9562 H   0  0  0  0  0  0  0  0  0  0  0  0
   -5.2398    1.1307    0.7437 H   0  0  0  0  0  0  0  0  0  0  0  0
   -3.4535    5.6516   -1.4058 H   0  0  0  0  0  0  0  0  0  0  0  0
   -1.7828    5.8968   -0.8745 H   0  0  0  0  0  0  0  0  0  0  0  0
   -3.0607    5.6092    0.3200 H   0  0  0  0  0  0  0  0  0  0  0  0
   -3.9528   -1.0258    0.6110 H   0  0  0  0  0  0  0  0  0  0  0  0
   -4.4641   -1.2145   -1.0694 H   0  0  0  0  0  0  0  0  0  0  0  0
   -2.2098    1.4893   -2.3009 H   0  0  0  0  0  0  0  0  0  0  0  0
   -3.8990    1.1991   -2.7369 H   0  0  0  0  0  0  0  0  0  0  0  0
   -2.9116   -0.0785   -2.0011 H   0  0  0  0  0  0  0  0  0  0  0  0
   -6.8569   -1.1654   -0.3650 H   0  0  0  0  0  0  0  0  0  0  0  0
   -6.3537   -1.0278    1.3214 H   0  0  0  0  0  0  0  0  0  0  0  0
   -5.1501   -3.2133    1.1496 H   0  0  0  0  0  0  0  0  0  0  0  0
   -5.6206   -3.3458   -0.5461 H   0  0  0  0  0  0  0  0  0  0  0  0
   -8.0424   -3.3213    0.1316 H   0  0  0  0  0  0  0  0  0  0  0  0
   -7.5590   -3.2221    1.8261 H   0  0  0  0  0  0  0  0  0  0  0  0
   -6.8691   -5.5191   -0.0838 H   0  0  0  0  0  0  0  0  0  0  0  0
   -8.0954   -5.5529    1.1947 H   0  0  0  0  0  0  0  0  0  0  0  0
   -6.3801   -5.4219    1.6194 H   0  0  0  0  0  0  0  0  0  0  0  0
  1  9  1  0  0  0  0
  1 11  1  0  0  0  0
  2 10  1  0  0  0  0
  2 12  1  0  0  0  0
  3  8  1  0  0  0  0
  3 16  1  0  0  0  0
  4 14  2  0  0  0  0
  5 16  1  0  0  0  0
  5 40  1  0  0  0  0
  6 17  2  0  0  0  0
  7 15  1  0  0  0  0
  7 17  1  0  0  0  0
  7 39  1  0  0  0  0
  8  9  1  0  0  0  0
  8 10  1  0  0  0  0
  8 13  1  0  0  0  0
  9 11  1  0  0  0  0
  9 31  1  0  0  0  0
 10 12  1  0  0  0  0
 10 32  1  0  0  0  0
 11 14  1  0  0  0  0
 11 33  1  0  0  0  0
 12 14  1  0  0  0  0
 12 34  1  0  0  0  0
 13 15  1  0  0  0  0
 13 35  1  0  0  0  0
 13 36  1  0  0  0  0
 15 16  1  0  0  0  0
 15 37  1  0  0  0  0
 16 38  1  0  0  0  0
 17 18  1  0  0  0  0
 18 19  2  0  0  0  0
 18 41  1  0  0  0  0
 19 20  1  0  0  0  0
 19 42  1  0  0  0  0
 20 21  1  0  0  0  0
 20 24  1  0  0  0  0
 20 43  1  0  0  0  0
 21 22  1  0  0  0  0
 21 44  1  0  0  0  0
 21 45  1  0  0  0  0
 22 23  1  0  0  0  0
 22 26  1  0  0  0  0
 22 46  1  0  0  0  0
 23 25  1  0  0  0  0
 23 47  1  0  0  0  0
 23 48  1  0  0  0  0
 24 49  1  0  0  0  0
 24 50  1  0  0  0  0
 24 51  1  0  0  0  0
 25 27  1  0  0  0  0
 25 52  1  0  0  0  0
 25 53  1  0  0  0  0
 26 54  1  0  0  0  0
 26 55  1  0  0  0  0
 26 56  1  0  0  0  0
 27 28  1  0  0  0  0
 27 57  1  0  0  0  0
 27 58  1  0  0  0  0
 28 29  1  0  0  0  0
 28 59  1  0  0  0  0
 28 60  1  0  0  0  0
 29 30  1  0  0  0  0
 29 61  1  0  0  0  0
 29 62  1  0  0  0  0
 30 63  1  0  0  0  0
 30 64  1  0  0  0  0
 30 65  1  0  0  0  0
M  END
> <PUBCHEM_COMPOUND_CID>
11339193

> <PUBCHEM_CONFORMER_RMSD>
1.2

> <PUBCHEM_CONFORMER_DIVERSEORDER>
1
65
20
258
141
184
140
267
99
145
9
47
169
228
58
70
38
239
213
263
19
253
73
17
214
79
252
110
149
27
262
118
172
175
5
165
45
26
192
2
176
4
11
131
187
115
197
259
254
216
104
67
43
133
146
24
240
49
61
88
66
246
235
121
135
41
48
177
249
257
132
194
44
50
168
138
245
111
211
103
206
191
90
130
247
81
8
236
224
74
223
158
273
241
179
117
68
76
129
54
222
274
188
94
93
59
85
55
144
16
106
163
251
112
195
202
243
226
215
33
157
86
233
39
244
231
120
189
32
83
113
193
181
147
161
40
30
107
227
114
3
272
160
198
108
12
266
72
10
7
150
255
23
250
25
15
52
271
205
209
268
180
200
162
28
234
31
248
204
63
203
53
185
80
101
64
217
13
220
75
77
178
210
174
232
256
57
219
139
186
18
56
190
153
261
29
98
126
264
128
142
87
155
22
137
102
170
35
269
270
125
218
183
78
148
229
51
136
238
159
151
207
123
134
109
60
171
82
91
71
62
37
212
92
201
100
34
182
84
119
143
36
225
173
95
156
124
208
6
167
242
96
221
46
166
152
97
199
116
265
69
105
196
14
42
164
21
89
127
122
237
260
154
230

> <PUBCHEM_MMFF94_PARTIAL_CHARGES>
27
1 -0.3
10 -0.05
11 0.05
12 0.05
14 0.57
15 0.3
16 0.56
17 0.62
18 -0.14
19 -0.29
2 -0.3
20 0.14
3 -0.56
31 0.1
32 0.1
33 0.1
34 0.1
39 0.37
4 -0.57
40 0.4
41 0.15
42 0.15
5 -0.68
6 -0.57
7 -0.73
8 0.47
9 -0.05

> <PUBCHEM_EFFECTIVE_ROTOR_COUNT>
12.2

> <PUBCHEM_PHARMACOPHORE_FEATURES>
13
1 1 acceptor
1 2 acceptor
1 24 hydrophobe
1 26 hydrophobe
1 3 acceptor
1 30 hydrophobe
1 4 acceptor
1 5 acceptor
1 5 donor
1 6 acceptor
1 7 donor
5 3 8 13 15 16 rings
8 1 2 8 9 10 11 12 14 rings

> <PUBCHEM_HEAVY_ATOM_COUNT>
30

> <PUBCHEM_ATOM_DEF_STEREO_COUNT>
6

> <PUBCHEM_ATOM_UDEF_STEREO_COUNT>
2

> <PUBCHEM_BOND_DEF_STEREO_COUNT>
1

> <PUBCHEM_BOND_UDEF_STEREO_COUNT>
0

> <PUBCHEM_ISOTOPIC_ATOM_COUNT>
0

> <PUBCHEM_COMPONENT_COUNT>
1

> <PUBCHEM_CACTVS_TAUTO_COUNT>
4

> <PUBCHEM_CONFORMER_ID>
00AD05B900000001

> <PUBCHEM_MMFF94_ENERGY>
42.9452

> <PUBCHEM_FEATURE_SELFOVERLAP>
66.016

> <PUBCHEM_SHAPE_FINGERPRINT>
10075450 59 18128843948542987199
10169797 241 18059850667397980870
10669705 251 17975982287101477523
10928967 22 17846203475618881172
11315621 136 18339926996567156220
11374522 301 18339091500763866795
117089 54 18410298042800032203
11796584 16 17905037054816340752
11828532 37 17243862561199104963
11963148 33 18336821017404386139
1361 87 18125446306496935087
13989917 61 17758962911125412067
15392192 29 17339008438761448228
17492 89 18409727322596631788
17909252 39 18413386548833465520
19301676 85 18267291055566515671
21197605 99 18337953523155208730
21315759 227 18263914462839416429
23424784 1240 18269839731027946263
23559900 14 17838603471344674760
23572383 38 17840854188620275492
3737641 26 18272653445745169837
3886686 26 18270133310324979065
404807 78 17971764521293450938
4394409 98 16746187979849667837
463206 1 17838328584768493152
508706 21 18122615055602815413
5309563 4 18265614458815351777
636783 205 17181661105436494027
7970288 3 18264767834962113169

> <PUBCHEM_SHAPE_MULTIPOLES>
577.19
16.45
7.93
1.4
23.33
0.89
-0.05
21.84
2.73
7.89
-0.57
-0.47
0.21
4.54

> <PUBCHEM_SHAPE_SELFOVERLAP>
1181.88

> <PUBCHEM_SHAPE_VOLUME>
329.6

> <PUBCHEM_COORDINATE_TYPE>
2
5
10

$$$$
