11335703
  -OEChem-03292013303D

 38 40  0     1  0  0  0  0  0999 V2000
   -3.9860    0.4561    1.4577 O   0  0  0  0  0  0  0  0  0  0  0  0
   -2.8132   -2.1016    0.9128 O   0  0  0  0  0  0  0  0  0  0  0  0
   -0.0628    2.7152   -0.1140 O   0  0  0  0  0  0  0  0  0  0  0  0
   -0.0501   -2.6251   -0.2432 O   0  0  0  0  0  0  0  0  0  0  0  0
    2.4929   -2.7092   -0.0744 O   0  0  0  0  0  0  0  0  0  0  0  0
    4.7963    1.4244    0.1660 O   0  0  0  0  0  0  0  0  0  0  0  0
   -3.8872    0.7248    0.0558 C   0  0  2  0  0  0  0  0  0  0  0  0
   -3.8416   -0.6101   -0.6998 C   0  0  0  0  0  0  0  0  0  0  0  0
   -2.6061    1.5356   -0.2129 C   0  0  0  0  0  0  0  0  0  0  0  0
   -2.6022   -1.4412   -0.3353 C   0  0  1  0  0  0  0  0  0  0  0  0
   -1.3361    0.7143   -0.1894 C   0  0  0  0  0  0  0  0  0  0  0  0
   -1.3347   -0.6286   -0.2263 C   0  0  0  0  0  0  0  0  0  0  0  0
   -5.1274    1.5280   -0.3442 C   0  0  0  0  0  0  0  0  0  0  0  0
   -0.0645    1.4891   -0.1201 C   0  0  0  0  0  0  0  0  0  0  0  0
   -0.0584   -1.3999   -0.1944 C   0  0  0  0  0  0  0  0  0  0  0  0
    1.2061   -0.6506   -0.0984 C   0  0  0  0  0  0  0  0  0  0  0  0
    1.2032    0.7417   -0.0625 C   0  0  0  0  0  0  0  0  0  0  0  0
    2.4199   -1.3478   -0.0452 C   0  0  0  0  0  0  0  0  0  0  0  0
    2.4138    1.4406    0.0267 C   0  0  0  0  0  0  0  0  0  0  0  0
    3.6209    0.7434    0.0801 C   0  0  0  0  0  0  0  0  0  0  0  0
    3.6239   -0.6490    0.0442 C   0  0  0  0  0  0  0  0  0  0  0  0
    5.9932    0.6496    0.2168 C   0  0  0  0  0  0  0  0  0  0  0  0
   -3.8364   -0.4143   -1.7800 H   0  0  0  0  0  0  0  0  0  0  0  0
   -4.7401   -1.1973   -0.4706 H   0  0  0  0  0  0  0  0  0  0  0  0
   -2.5330    2.3278    0.5436 H   0  0  0  0  0  0  0  0  0  0  0  0
   -2.6691    2.0193   -1.1963 H   0  0  0  0  0  0  0  0  0  0  0  0
   -2.4864   -2.2227   -1.0950 H   0  0  0  0  0  0  0  0  0  0  0  0
   -5.1829    2.4632    0.2246 H   0  0  0  0  0  0  0  0  0  0  0  0
   -5.1252    1.7710   -1.4118 H   0  0  0  0  0  0  0  0  0  0  0  0
   -6.0447    0.9722   -0.1188 H   0  0  0  0  0  0  0  0  0  0  0  0
   -4.8016   -0.0512    1.6101 H   0  0  0  0  0  0  0  0  0  0  0  0
   -2.9257   -1.4228    1.6000 H   0  0  0  0  0  0  0  0  0  0  0  0
    2.4319    2.5274    0.0557 H   0  0  0  0  0  0  0  0  0  0  0  0
    4.5301   -1.2449    0.0824 H   0  0  0  0  0  0  0  0  0  0  0  0
    1.6085   -3.1029   -0.1010 H   0  0  0  0  0  0  0  0  0  0  0  0
    6.8302    1.3524    0.2839 H   0  0  0  0  0  0  0  0  0  0  0  0
    6.1367    0.0695   -0.7011 H   0  0  0  0  0  0  0  0  0  0  0  0
    6.0297    0.0233    1.1148 H   0  0  0  0  0  0  0  0  0  0  0  0
  1  7  1  0  0  0  0
  1 31  1  0  0  0  0
  2 10  1  0  0  0  0
  2 32  1  0  0  0  0
  3 14  2  0  0  0  0
  4 15  2  0  0  0  0
  5 18  1  0  0  0  0
  5 35  1  0  0  0  0
  6 20  1  0  0  0  0
  6 22  1  0  0  0  0
  7  8  1  0  0  0  0
  7  9  1  0  0  0  0
  7 13  1  0  0  0  0
  8 10  1  0  0  0  0
  8 23  1  0  0  0  0
  8 24  1  0  0  0  0
  9 11  1  0  0  0  0
  9 25  1  0  0  0  0
  9 26  1  0  0  0  0
 10 12  1  0  0  0  0
 10 27  1  0  0  0  0
 11 12  2  0  0  0  0
 11 14  1  0  0  0  0
 12 15  1  0  0  0  0
 13 28  1  0  0  0  0
 13 29  1  0  0  0  0
 13 30  1  0  0  0  0
 14 17  1  0  0  0  0
 15 16  1  0  0  0  0
 16 17  2  0  0  0  0
 16 18  1  0  0  0  0
 17 19  1  0  0  0  0
 18 21  2  0  0  0  0
 19 20  2  0  0  0  0
 19 33  1  0  0  0  0
 20 21  1  0  0  0  0
 21 34  1  0  0  0  0
 22 36  1  0  0  0  0
 22 37  1  0  0  0  0
 22 38  1  0  0  0  0
M  END
> <PUBCHEM_COMPOUND_CID>
11335703

> <PUBCHEM_CONFORMER_RMSD>
0.6

> <PUBCHEM_CONFORMER_DIVERSEORDER>
2
1

> <PUBCHEM_MMFF94_PARTIAL_CHARGES>
25
1 -0.68
10 0.42
11 -0.12
12 -0.12
14 0.47
15 0.47
16 0.09
17 0.09
18 0.08
19 -0.15
2 -0.68
20 0.08
21 -0.15
22 0.28
3 -0.57
31 0.4
32 0.4
33 0.15
34 0.15
35 0.45
4 -0.57
5 -0.53
6 -0.36
7 0.28
9 0.14

> <PUBCHEM_EFFECTIVE_ROTOR_COUNT>
1.8

> <PUBCHEM_PHARMACOPHORE_FEATURES>
11
1 1 acceptor
1 1 donor
1 2 acceptor
1 2 donor
1 3 acceptor
1 4 acceptor
1 5 donor
1 6 acceptor
6 11 12 14 15 16 17 rings
6 16 17 18 19 20 21 rings
6 7 8 9 10 11 12 rings

> <PUBCHEM_HEAVY_ATOM_COUNT>
22

> <PUBCHEM_ATOM_DEF_STEREO_COUNT>
2

> <PUBCHEM_ATOM_UDEF_STEREO_COUNT>
0

> <PUBCHEM_BOND_DEF_STEREO_COUNT>
0

> <PUBCHEM_BOND_UDEF_STEREO_COUNT>
0

> <PUBCHEM_ISOTOPIC_ATOM_COUNT>
0

> <PUBCHEM_COMPONENT_COUNT>
1

> <PUBCHEM_CACTVS_TAUTO_COUNT>
14

> <PUBCHEM_CONFORMER_ID>
00ACF81700000002

> <PUBCHEM_MMFF94_ENERGY>
66.7856

> <PUBCHEM_FEATURE_SELFOVERLAP>
55.866

> <PUBCHEM_SHAPE_FINGERPRINT>
10366900 7 17917703604481892153
10411042 1 17402048298033010798
10493431 412 18341337729882857377
10616163 171 18411138081914232455
10967382 1 18410854317693306406
11132069 177 18408884035953762709
11471102 20 18411978022871854340
11578080 2 17025139732098818398
12011746 2 18411694417575592765
12236239 1 17775282738524009933
12403814 3 17676481744401224365
12788726 201 17560523876259911105
12838862 33 18339341020592765621
13132413 78 18413108389645178013
13140716 1 18337956683929476107
13214271 11 18411417349356711927
13675066 3 18041286486951281733
14790565 3 18265619969068910892
15196674 1 18411417301980215743
15375358 24 18408603656104002763
15442244 35 18196089932781492682
15536298 74 18343301436016960262
1601671 61 18411136948443760308
16945 1 18123188171532491711
1813 80 17167868538648138956
19591789 44 18194682789994939492
19784866 170 18409731768256515506
200 152 17989201572802201925
20642791 178 18115599286470030604
20645477 70 18339918191488424199
20739085 24 18120679962092497209
21267235 1 18338804519000116590
21279426 13 18340772551004946518
21421861 104 17969492711353526818
22182313 1 18269575925425794630
2334 1 18411418440236239471
23402539 116 18271799155464796772
23463225 33 18409729534499001333
23559900 14 18412824651853607478
2748010 2 18411418405802583263
296302 2 18272089396142541727
335352 9 18266739082404628086
34934 24 18410286999821493991
350125 39 18266744773853226401
3545911 37 18410856559661083533
5104073 3 18410853261237126722
59755656 215 18338519638910665670
7364860 26 18270117907976481278
9709674 26 18411421695784786502

> <PUBCHEM_SHAPE_MULTIPOLES>
417.53
9.86
2.52
0.74
4.06
0.75
-0.12
-3.27
-0.69
-0.02
0.04
-0.52
0.04
0.2

> <PUBCHEM_SHAPE_SELFOVERLAP>
920.863

> <PUBCHEM_SHAPE_VOLUME>
222.1

> <PUBCHEM_COORDINATE_TYPE>
2
5
10

$$$$
