11339719
  -OEChem-03292013303D

 54 60  0     1  0  0  0  0  0999 V2000
   -0.6825    0.4337   -1.5362 O   0  0  0  0  0  0  0  0  0  0  0  0
   -5.8092   -1.6794    0.5230 O   0  0  0  0  0  0  0  0  0  0  0  0
    0.6806    2.1236   -0.0779 O   0  0  0  0  0  0  0  0  0  0  0  0
    3.5110    0.4696    2.6785 O   0  0  0  0  0  0  0  0  0  0  0  0
   -3.8321   -0.6271   -0.1833 N   0  0  0  0  0  0  0  0  0  0  0  0
   -2.3492   -2.2908    0.1162 N   0  0  0  0  0  0  0  0  0  0  0  0
    2.1948    0.1535    0.7982 N   0  0  0  0  0  0  0  0  0  0  0  0
    0.5158   -0.5117   -0.2406 N   0  0  0  0  0  0  0  0  0  0  0  0
    3.2632   -0.3198   -1.4328 N   0  0  0  0  0  0  0  0  0  0  0  0
   -1.6064    0.2195   -0.2764 C   0  0  1  0  0  0  0  0  0  0  0  0
   -2.5086   -1.0194   -0.5729 C   0  0  2  0  0  0  0  0  0  0  0  0
   -0.8853    0.1256    1.3803 C   0  0  0  0  0  0  0  0  0  0  0  0
   -2.6841    1.3107   -0.2774 C   0  0  0  0  0  0  0  0  0  0  0  0
    0.7865    0.4745    1.6570 C   0  0  2  0  0  0  0  0  0  0  0  0
    0.6007   -0.2273   -1.5294 C   0  0  2  0  0  0  0  0  0  0  0  0
   -3.9627    0.7455   -0.1501 C   0  0  0  0  0  0  0  0  0  0  0  0
   -3.7078   -2.8869    0.1310 C   0  0  2  0  0  0  0  0  0  0  0  0
   -4.6365   -1.6761    0.1908 C   0  0  0  0  0  0  0  0  0  0  0  0
    2.1810   -0.1474   -0.7466 C   0  0  0  0  0  0  0  0  0  0  0  0
    0.6244    1.0013    0.3809 C   0  0  0  0  0  0  0  0  0  0  0  0
   -2.5399    2.6867   -0.2901 C   0  0  0  0  0  0  0  0  0  0  0  0
    0.5536   -1.4309   -2.4553 C   0  0  0  0  0  0  0  0  0  0  0  0
   -5.1039    1.5057    0.0147 C   0  0  0  0  0  0  0  0  0  0  0  0
   -3.9072   -3.8222    1.3103 C   0  0  0  0  0  0  0  0  0  0  0  0
    3.4013    0.2307    1.4804 C   0  0  0  0  0  0  0  0  0  0  0  0
   -3.6868    3.4773   -0.1574 C   0  0  0  0  0  0  0  0  0  0  0  0
   -4.9551    2.8925    0.0016 C   0  0  0  0  0  0  0  0  0  0  0  0
    4.6033    0.0024    0.6381 C   0  0  0  0  0  0  0  0  0  0  0  0
    4.4866   -0.2508   -0.7413 C   0  0  0  0  0  0  0  0  0  0  0  0
    5.8663    0.0502    1.2455 C   0  0  0  0  0  0  0  0  0  0  0  0
    5.6578   -0.4531   -1.4857 C   0  0  0  0  0  0  0  0  0  0  0  0
    7.0169   -0.1544    0.4857 C   0  0  0  0  0  0  0  0  0  0  0  0
    6.9134   -0.4056   -0.8788 C   0  0  0  0  0  0  0  0  0  0  0  0
   -2.5428   -1.2058   -1.6566 H   0  0  0  0  0  0  0  0  0  0  0  0
   -1.0622   -0.8805    1.7826 H   0  0  0  0  0  0  0  0  0  0  0  0
   -1.4642    0.8083    2.0199 H   0  0  0  0  0  0  0  0  0  0  0  0
    0.9549    1.2714    2.3854 H   0  0  0  0  0  0  0  0  0  0  0  0
   -1.6949   -2.8980   -0.3737 H   0  0  0  0  0  0  0  0  0  0  0  0
   -3.8969   -3.4102   -0.8142 H   0  0  0  0  0  0  0  0  0  0  0  0
    0.5603   -1.4074    0.2521 H   0  0  0  0  0  0  0  0  0  0  0  0
   -1.5706    3.1595   -0.3840 H   0  0  0  0  0  0  0  0  0  0  0  0
   -0.3634   -2.0146   -2.3269 H   0  0  0  0  0  0  0  0  0  0  0  0
    0.5714   -1.0896   -3.4958 H   0  0  0  0  0  0  0  0  0  0  0  0
    1.4010   -2.1098   -2.3157 H   0  0  0  0  0  0  0  0  0  0  0  0
   -6.0834    1.0573    0.1315 H   0  0  0  0  0  0  0  0  0  0  0  0
   -3.7758   -3.2976    2.2636 H   0  0  0  0  0  0  0  0  0  0  0  0
   -4.9194   -4.2404    1.3054 H   0  0  0  0  0  0  0  0  0  0  0  0
   -3.1961   -4.6541    1.2761 H   0  0  0  0  0  0  0  0  0  0  0  0
   -3.5951    4.5605   -0.1626 H   0  0  0  0  0  0  0  0  0  0  0  0
   -5.8281    3.5298    0.1143 H   0  0  0  0  0  0  0  0  0  0  0  0
    5.9746    0.2454    2.3091 H   0  0  0  0  0  0  0  0  0  0  0  0
    5.5969   -0.6515   -2.5538 H   0  0  0  0  0  0  0  0  0  0  0  0
    7.9938   -0.1171    0.9588 H   0  0  0  0  0  0  0  0  0  0  0  0
    7.8091   -0.5650   -1.4719 H   0  0  0  0  0  0  0  0  0  0  0  0
  1 10  1  0  0  0  0
  1 15  1  0  0  0  0
  2 18  2  0  0  0  0
  3 20  2  0  0  0  0
  4 25  2  0  0  0  0
  5 11  1  0  0  0  0
  5 16  1  0  0  0  0
  5 18  1  0  0  0  0
  6 11  1  0  0  0  0
  6 17  1  0  0  0  0
  6 38  1  0  0  0  0
  7 14  1  0  0  0  0
  7 19  1  0  0  0  0
  7 25  1  0  0  0  0
  8 15  1  0  0  0  0
  8 20  1  0  0  0  0
  8 40  1  0  0  0  0
  9 19  2  0  0  0  0
  9 29  1  0  0  0  0
 10 11  1  0  0  0  0
 10 12  1  0  0  0  0
 10 13  1  0  0  0  0
 11 34  1  0  0  0  0
 12 14  1  0  0  0  0
 12 35  1  0  0  0  0
 12 36  1  0  0  0  0
 13 16  1  0  0  0  0
 13 21  2  0  0  0  0
 14 20  1  0  0  0  0
 14 37  1  0  0  0  0
 15 19  1  0  0  0  0
 15 22  1  0  0  0  0
 16 23  2  0  0  0  0
 17 18  1  0  0  0  0
 17 24  1  0  0  0  0
 17 39  1  0  0  0  0
 21 26  1  0  0  0  0
 21 41  1  0  0  0  0
 22 42  1  0  0  0  0
 22 43  1  0  0  0  0
 22 44  1  0  0  0  0
 23 27  1  0  0  0  0
 23 45  1  0  0  0  0
 24 46  1  0  0  0  0
 24 47  1  0  0  0  0
 24 48  1  0  0  0  0
 25 28  1  0  0  0  0
 26 27  2  0  0  0  0
 26 49  1  0  0  0  0
 27 50  1  0  0  0  0
 28 29  1  0  0  0  0
 28 30  2  0  0  0  0
 29 31  2  0  0  0  0
 30 32  1  0  0  0  0
 30 51  1  0  0  0  0
 31 33  1  0  0  0  0
 31 52  1  0  0  0  0
 32 33  2  0  0  0  0
 32 53  1  0  0  0  0
 33 54  1  0  0  0  0
M  END
> <PUBCHEM_COMPOUND_CID>
11339719

> <PUBCHEM_CONFORMER_RMSD>
0.6

> <PUBCHEM_CONFORMER_DIVERSEORDER>
1

> <PUBCHEM_MMFF94_PARTIAL_CHARGES>
40
1 -0.56
10 0.42
11 0.57
13 -0.14
14 0.36
15 0.64
16 0.12
17 0.33
18 0.57
19 0.45
2 -0.57
20 0.57
21 -0.15
23 -0.15
25 0.54
26 -0.15
27 -0.15
28 0.09
29 0.18
3 -0.57
30 -0.15
31 -0.15
32 -0.15
33 -0.15
38 0.36
4 -0.57
40 0.37
41 0.15
45 0.15
49 0.15
5 -0.48
50 0.15
51 0.15
52 0.15
53 0.15
54 0.15
6 -0.9
7 -0.42
8 -0.73
9 -0.63

> <PUBCHEM_EFFECTIVE_ROTOR_COUNT>
1

> <PUBCHEM_PHARMACOPHORE_FEATURES>
13
1 1 acceptor
1 2 acceptor
1 3 acceptor
1 4 acceptor
1 6 cation
1 6 donor
1 8 donor
5 5 10 11 13 16 rings
5 5 6 11 17 18 rings
6 13 16 21 23 26 27 rings
6 28 29 30 31 32 33 rings
6 7 9 19 25 28 29 rings
9 1 7 8 10 12 14 15 19 20 rings

> <PUBCHEM_HEAVY_ATOM_COUNT>
33

> <PUBCHEM_ATOM_DEF_STEREO_COUNT>
5

> <PUBCHEM_ATOM_UDEF_STEREO_COUNT>
0

> <PUBCHEM_BOND_DEF_STEREO_COUNT>
0

> <PUBCHEM_BOND_UDEF_STEREO_COUNT>
0

> <PUBCHEM_ISOTOPIC_ATOM_COUNT>
0

> <PUBCHEM_COMPONENT_COUNT>
1

> <PUBCHEM_CACTVS_TAUTO_COUNT>
2

> <PUBCHEM_CONFORMER_ID>
00AD07C700000001

> <PUBCHEM_MMFF94_ENERGY>
420.7896

> <PUBCHEM_FEATURE_SELFOVERLAP>
66.375

> <PUBCHEM_SHAPE_FINGERPRINT>
10 15 17917416667345640946
10165383 225 18269281158569963633
10290309 65 17988092097062310182
10319926 262 18341037563139747250
10411042 1 18121502616798958095
11315181 36 18040718090546767301
11545043 162 18272650168885251746
11796584 16 18340207380738529730
12107698 1 18335703892310381829
12236239 1 17458063750731813476
12403259 415 17846774118259311368
12440605 4 16125585267470329714
12597179 24 18198903622008136703
12741549 16 17489311923534610873
12788726 201 18115037410795938259
13009979 54 17968666054787480887
13583140 156 18060131037987919246
13782708 43 17846213409957429230
13911987 19 16702016474493250460
13947920 75 18114181930234688849
140371 6 18130236947147217865
14068700 675 18042405910000417511
14294032 229 18116146681059520061
14747281 78 16770433422661081893
14840074 17 16153430536935424618
14856354 85 18335145323060371207
14955137 171 18060137686824426424
15183329 4 16298105393862707170
15230672 131 18193275200780551802
15328829 1 17385729097154473981
15361156 5 18269836587238557967
17349148 13 16660078910618302450
17844677 252 18410575119445259000
17980427 23 17530978976819183334
20511986 3 17313376795003367572
20567600 75 17989207036322440526
21033648 29 17631997703012038264
21033650 10 18044116574184019036
21424621 283 17984148058906986265
21792961 116 17632585908227481454
22182313 1 17703241641049096294
23522609 53 17459773470461129516
23557571 272 18342465833107890325
23559900 14 18271808973849543700
23569914 152 15474810598620278828
23569943 247 16444451396536675474
24771293 8 13182723863687873058
25147074 1 17749121014365575380
3418910 222 18263654029525804140
3633792 109 14333129607695219101
397830 11 18129371756714120816
4015057 19 16486957527569876145
4073 2 18410577271513926946
4144715 1 18411705408803312496
4169191 19 15481808226237927706
497634 4 17894908550783999774
508706 21 18131057264736504447
5265222 85 18270688700898823206
57527293 21 17699578236289534335
57527295 17 17058639665691549197
6009941 240 18342458102040085424
9849439 229 17761208818043740437
9896288 288 18261399906455409451

> <PUBCHEM_SHAPE_MULTIPOLES>
630.74
14.86
2.97
1.67
16.6
0.5
-0.07
1.09
-1.07
-7.93
-0.43
1.96
0.39
1.51

> <PUBCHEM_SHAPE_SELFOVERLAP>
1440.846

> <PUBCHEM_SHAPE_VOLUME>
328.5

> <PUBCHEM_COORDINATE_TYPE>
2
5
10

$$$$
