11334126
  -OEChem-03292013303D

 22 23  0     0  0  0  0  0  0999 V2000
    4.4882    1.1735    0.4418 O   0  0  0  0  0  0  0  0  0  0  0  0
    4.4344   -1.4214   -0.0836 O   0  0  0  0  0  0  0  0  0  0  0  0
   -2.5713    2.7663    0.1401 O   0  5  0  0  0  0  0  0  0  0  0  0
   -3.7326    0.9626   -0.3256 O   0  0  0  0  0  0  0  0  0  0  0  0
    2.1893    1.3196    0.2677 N   0  0  0  0  0  0  0  0  0  0  0  0
    2.1332   -1.3961   -0.2845 N   0  0  0  0  0  0  0  0  0  0  0  0
   -2.6411    1.5406   -0.1129 N   0  3  0  0  0  0  0  0  0  0  0  0
   -2.6795   -1.2515   -0.6792 N   0  0  0  0  0  0  0  0  0  0  0  0
   -3.1947   -1.7070    0.3637 N   0  3  0  0  0  0  0  0  0  0  0  0
   -3.6727   -2.1268    1.3112 N   0  5  0  0  0  0  0  0  0  0  0  0
    0.9626    0.6885    0.0320 C   0  0  0  0  0  0  0  0  0  0  0  0
    0.9344   -0.6749   -0.2454 C   0  0  0  0  0  0  0  0  0  0  0  0
   -0.2238    1.4221    0.0755 C   0  0  0  0  0  0  0  0  0  0  0  0
   -0.2804   -1.3195   -0.4825 C   0  0  0  0  0  0  0  0  0  0  0  0
   -1.4398    0.7796   -0.1606 C   0  0  0  0  0  0  0  0  0  0  0  0
   -1.4681   -0.5882   -0.4389 C   0  0  0  0  0  0  0  0  0  0  0  0
    3.3964    0.6561    0.2407 C   0  0  0  0  0  0  0  0  0  0  0  0
    3.3657   -0.8233   -0.0595 C   0  0  0  0  0  0  0  0  0  0  0  0
   -0.1722    2.4862    0.2946 H   0  0  0  0  0  0  0  0  0  0  0  0
   -0.3028   -2.3848   -0.7005 H   0  0  0  0  0  0  0  0  0  0  0  0
    2.1857    2.3157    0.4682 H   0  0  0  0  0  0  0  0  0  0  0  0
    2.0880   -2.3905   -0.4885 H   0  0  0  0  0  0  0  0  0  0  0  0
  1 17  2  0  0  0  0
  2 18  2  0  0  0  0
  3  7  1  0  0  0  0
  4  7  2  0  0  0  0
  5 11  1  0  0  0  0
  5 17  1  0  0  0  0
  5 21  1  0  0  0  0
  6 12  1  0  0  0  0
  6 18  1  0  0  0  0
  6 22  1  0  0  0  0
  7 15  1  0  0  0  0
  8  9  2  0  0  0  0
  8 16  1  0  0  0  0
  9 10  2  0  0  0  0
 11 12  1  0  0  0  0
 11 13  2  0  0  0  0
 12 14  2  0  0  0  0
 13 15  1  0  0  0  0
 13 19  1  0  0  0  0
 14 16  1  0  0  0  0
 14 20  1  0  0  0  0
 15 16  2  0  0  0  0
 17 18  1  0  0  0  0
M  CHG  4   3  -1   7   1   9   1  10  -1
M  END
> <PUBCHEM_COMPOUND_CID>
11334126

> <PUBCHEM_CONFORMER_RMSD>
0.6

> <PUBCHEM_CONFORMER_DIVERSEORDER>
1
3
2

> <PUBCHEM_MMFF94_PARTIAL_CHARGES>
22
1 -0.57
10 -0.37
11 0.12
12 0.12
13 -0.15
14 -0.15
15 0.13
16 0.18
17 0.63
18 0.63
19 0.15
2 -0.57
20 0.15
21 0.37
22 0.37
3 -0.52
4 -0.52
5 -0.55
6 -0.55
7 0.91
8 -0.5
9 0.69

> <PUBCHEM_EFFECTIVE_ROTOR_COUNT>
2

> <PUBCHEM_PHARMACOPHORE_FEATURES>
9
1 1 acceptor
1 2 acceptor
1 3 acceptor
1 3 anion
1 4 acceptor
1 5 donor
1 6 donor
6 11 12 13 14 15 16 rings
6 5 6 11 12 17 18 rings

> <PUBCHEM_HEAVY_ATOM_COUNT>
18

> <PUBCHEM_ATOM_DEF_STEREO_COUNT>
0

> <PUBCHEM_ATOM_UDEF_STEREO_COUNT>
0

> <PUBCHEM_BOND_DEF_STEREO_COUNT>
0

> <PUBCHEM_BOND_UDEF_STEREO_COUNT>
0

> <PUBCHEM_ISOTOPIC_ATOM_COUNT>
0

> <PUBCHEM_COMPONENT_COUNT>
1

> <PUBCHEM_CACTVS_TAUTO_COUNT>
7

> <PUBCHEM_CONFORMER_ID>
00ACF1EE00000001

> <PUBCHEM_MMFF94_ENERGY>
51.797

> <PUBCHEM_FEATURE_SELFOVERLAP>
45.793

> <PUBCHEM_SHAPE_FINGERPRINT>
10608611 8 18342451526366319724
10967382 1 18269271257794061684
11680986 33 18127418855984654238
12032990 46 18409732893327229814
12507560 40 18341894104109297602
12730499 353 17396132440545244261
12932764 1 17417521527437617620
13140716 1 18340206280640735656
13296908 3 18412542111318780046
13380535 76 18198056989311690719
13675066 3 18273490174505032570
14325111 11 18413385432521483660
14787075 74 17609216002235996186
14790565 3 16823068611908670357
15196674 1 18412823586506285878
15219456 202 18343019995320795142
15442244 35 18196649593074684902
15536298 74 18272646836285944516
16945 1 18125713728108290756
17844478 74 18338801216296755963
18186145 218 18040710338642630710
19422 9 18260269650860929726
200 152 17846206791887046983
20510252 161 18343584065981093145
20645477 70 18059569157634465942
21267235 1 18341336604285083606
21501502 16 18411976949472902164
221490 88 18411423908283475618
2334 1 18413386557517916276
23463225 33 18411134736503772636
23559900 14 18127687133318200326
2748010 2 18342736303866640404
335352 9 18125438605799771780
5104073 3 18411978044958523818
69090 78 18272080557405944821
8809292 202 18408325453913594139
9709674 26 18199750249908481294

> <PUBCHEM_SHAPE_MULTIPOLES>
317.07
7.56
2.3
0.74
3.37
0.41
0.09
-0.97
1.1
-1.69
0.28
-0.37
-0.24
0.78

> <PUBCHEM_SHAPE_SELFOVERLAP>
696.143

> <PUBCHEM_SHAPE_VOLUME>
168.7

> <PUBCHEM_COORDINATE_TYPE>
2
5
10

$$$$
