11339499
  -OEChem-03292013303D

 53 56  0     1  0  0  0  0  0999 V2000
    3.4472   -0.1095   -1.8564 O   0  0  0  0  0  0  0  0  0  0  0  0
    2.7980    1.6650    0.5187 O   0  0  0  0  0  0  0  0  0  0  0  0
    4.5304    0.7272    2.6758 O   0  0  0  0  0  0  0  0  0  0  0  0
    7.3347    0.9139    1.7405 O   0  0  0  0  0  0  0  0  0  0  0  0
    0.9339    0.4145   -1.8867 O   0  0  0  0  0  0  0  0  0  0  0  0
   -3.1601   -1.7164    0.3871 O   0  0  0  0  0  0  0  0  0  0  0  0
   -1.3463   -3.0960    0.5493 O   0  0  0  0  0  0  0  0  0  0  0  0
   -5.8657   -1.3147    0.5913 O   0  0  0  0  0  0  0  0  0  0  0  0
   -6.9674    1.1730    0.0457 O   0  0  0  0  0  0  0  0  0  0  0  0
    2.6810   -2.3247   -1.3156 N   0  0  0  0  0  0  0  0  0  0  0  0
    0.4136   -1.1015   -0.1924 N   0  0  0  0  0  0  0  0  0  0  0  0
    3.8463    0.7039    0.3467 C   0  0  2  0  0  0  0  0  0  0  0  0
    4.3063    0.7792   -1.1122 C   0  0  1  0  0  0  0  0  0  0  0  0
    3.2526   -0.6961    0.4449 C   0  0  0  0  0  0  0  0  0  0  0  0
    4.9629    1.0296    1.3466 C   0  0  2  0  0  0  0  0  0  0  0  0
    2.6829   -0.9149   -0.9537 C   0  0  1  0  0  0  0  0  0  0  0  0
    6.2551    0.2412    1.0896 C   0  0  1  0  0  0  0  0  0  0  0  0
    5.7268    0.3588   -1.3492 C   0  0  0  0  0  0  0  0  0  0  0  0
    6.5976    0.1098   -0.3624 C   0  0  0  0  0  0  0  0  0  0  0  0
    1.2613   -0.4430   -1.0696 C   0  0  0  0  0  0  0  0  0  0  0  0
   -0.9245   -0.8528   -0.1047 C   0  0  0  0  0  0  0  0  0  0  0  0
   -1.4259    0.3581   -0.3737 C   0  0  0  0  0  0  0  0  0  0  0  0
   -1.7955   -1.9818    0.3014 C   0  0  0  0  0  0  0  0  0  0  0  0
   -2.8554    0.6030   -0.2744 C   0  0  0  0  0  0  0  0  0  0  0  0
   -3.6911   -0.4424    0.1045 C   0  0  0  0  0  0  0  0  0  0  0  0
   -3.4187    1.8519   -0.5470 C   0  0  0  0  0  0  0  0  0  0  0  0
   -5.0697   -0.2754    0.2183 C   0  0  0  0  0  0  0  0  0  0  0  0
   -5.6235    0.9733   -0.0554 C   0  0  0  0  0  0  0  0  0  0  0  0
   -4.8002    2.0348   -0.4372 C   0  0  0  0  0  0  0  0  0  0  0  0
   -6.6342   -1.1491    1.7820 C   0  0  0  0  0  0  0  0  0  0  0  0
   -7.4524    2.4808   -0.2518 C   0  0  0  0  0  0  0  0  0  0  0  0
    4.1692    1.7836   -1.5299 H   0  0  0  0  0  0  0  0  0  0  0  0
    2.5141   -0.7823    1.2484 H   0  0  0  0  0  0  0  0  0  0  0  0
    4.0449   -1.4285    0.6433 H   0  0  0  0  0  0  0  0  0  0  0  0
    5.1686    2.1082    1.3345 H   0  0  0  0  0  0  0  0  0  0  0  0
    6.2001   -0.7566    1.5390 H   0  0  0  0  0  0  0  0  0  0  0  0
    6.0549    0.2492   -2.3793 H   0  0  0  0  0  0  0  0  0  0  0  0
    7.6015   -0.2172   -0.6200 H   0  0  0  0  0  0  0  0  0  0  0  0
    2.2408    1.6805   -0.2762 H   0  0  0  0  0  0  0  0  0  0  0  0
    2.1710   -2.8846   -0.6367 H   0  0  0  0  0  0  0  0  0  0  0  0
    2.2312   -2.4593   -2.2195 H   0  0  0  0  0  0  0  0  0  0  0  0
    3.7031    1.2149    2.8292 H   0  0  0  0  0  0  0  0  0  0  0  0
    7.4267    1.7966    1.3421 H   0  0  0  0  0  0  0  0  0  0  0  0
    0.7445   -1.9467    0.2643 H   0  0  0  0  0  0  0  0  0  0  0  0
   -0.8166    1.2194   -0.6207 H   0  0  0  0  0  0  0  0  0  0  0  0
   -2.7949    2.6908   -0.8459 H   0  0  0  0  0  0  0  0  0  0  0  0
   -5.1630    3.0314   -0.6648 H   0  0  0  0  0  0  0  0  0  0  0  0
   -7.6397   -0.7982    1.5334 H   0  0  0  0  0  0  0  0  0  0  0  0
   -6.7260   -2.1278    2.2621 H   0  0  0  0  0  0  0  0  0  0  0  0
   -6.1550   -0.4644    2.4906 H   0  0  0  0  0  0  0  0  0  0  0  0
   -7.0630    3.2253    0.4508 H   0  0  0  0  0  0  0  0  0  0  0  0
   -8.5393    2.4585   -0.1202 H   0  0  0  0  0  0  0  0  0  0  0  0
   -7.2646    2.7533   -1.2959 H   0  0  0  0  0  0  0  0  0  0  0  0
  1 13  1  0  0  0  0
  1 16  1  0  0  0  0
  2 12  1  0  0  0  0
  2 39  1  0  0  0  0
  3 15  1  0  0  0  0
  3 42  1  0  0  0  0
  4 17  1  0  0  0  0
  4 43  1  0  0  0  0
  5 20  2  0  0  0  0
  6 23  1  0  0  0  0
  6 25  1  0  0  0  0
  7 23  2  0  0  0  0
  8 27  1  0  0  0  0
  8 30  1  0  0  0  0
  9 28  1  0  0  0  0
  9 31  1  0  0  0  0
 10 16  1  0  0  0  0
 10 40  1  0  0  0  0
 10 41  1  0  0  0  0
 11 20  1  0  0  0  0
 11 21  1  0  0  0  0
 11 44  1  0  0  0  0
 12 13  1  0  0  0  0
 12 14  1  0  0  0  0
 12 15  1  0  0  0  0
 13 18  1  0  0  0  0
 13 32  1  0  0  0  0
 14 16  1  0  0  0  0
 14 33  1  0  0  0  0
 14 34  1  0  0  0  0
 15 17  1  0  0  0  0
 15 35  1  0  0  0  0
 16 20  1  0  0  0  0
 17 19  1  0  0  0  0
 17 36  1  0  0  0  0
 18 19  2  0  0  0  0
 18 37  1  0  0  0  0
 19 38  1  0  0  0  0
 21 22  2  0  0  0  0
 21 23  1  0  0  0  0
 22 24  1  0  0  0  0
 22 45  1  0  0  0  0
 24 25  2  0  0  0  0
 24 26  1  0  0  0  0
 25 27  1  0  0  0  0
 26 29  2  0  0  0  0
 26 46  1  0  0  0  0
 27 28  2  0  0  0  0
 28 29  1  0  0  0  0
 29 47  1  0  0  0  0
 30 48  1  0  0  0  0
 30 49  1  0  0  0  0
 30 50  1  0  0  0  0
 31 51  1  0  0  0  0
 31 52  1  0  0  0  0
 31 53  1  0  0  0  0
M  END
> <PUBCHEM_COMPOUND_CID>
11339499

> <PUBCHEM_CONFORMER_RMSD>
0.8

> <PUBCHEM_CONFORMER_DIVERSEORDER>
1
26
13
28
6
17
27
23
7
11
12
20
5
22
14
24
29
19
16
21
2
15
4
3
8
18
10
9
25

> <PUBCHEM_MMFF94_PARTIAL_CHARGES>
41
1 -0.56
10 -0.99
11 -0.54
12 0.28
13 0.42
15 0.28
16 0.61
17 0.42
18 -0.29
19 -0.29
2 -0.68
20 0.57
21 0.12
22 -0.18
23 0.71
24 0.03
25 0.08
26 -0.15
27 0.08
28 0.08
29 -0.15
3 -0.68
30 0.28
31 0.28
37 0.15
38 0.15
39 0.4
4 -0.68
40 0.36
41 0.36
42 0.4
43 0.4
44 0.37
45 0.15
46 0.15
47 0.15
5 -0.57
6 -0.23
7 -0.57
8 -0.36
9 -0.36

> <PUBCHEM_EFFECTIVE_ROTOR_COUNT>
6

> <PUBCHEM_PHARMACOPHORE_FEATURES>
18
1 1 acceptor
1 10 cation
1 10 donor
1 11 donor
1 2 acceptor
1 2 donor
1 3 acceptor
1 3 donor
1 4 acceptor
1 4 donor
1 5 acceptor
1 7 acceptor
1 8 acceptor
1 9 acceptor
5 1 12 13 14 16 rings
6 12 13 15 17 18 19 rings
6 24 25 26 27 28 29 rings
6 6 21 22 23 24 25 rings

> <PUBCHEM_HEAVY_ATOM_COUNT>
31

> <PUBCHEM_ATOM_DEF_STEREO_COUNT>
5

> <PUBCHEM_ATOM_UDEF_STEREO_COUNT>
0

> <PUBCHEM_BOND_DEF_STEREO_COUNT>
0

> <PUBCHEM_BOND_UDEF_STEREO_COUNT>
0

> <PUBCHEM_ISOTOPIC_ATOM_COUNT>
0

> <PUBCHEM_COMPONENT_COUNT>
1

> <PUBCHEM_CACTVS_TAUTO_COUNT>
2

> <PUBCHEM_CONFORMER_ID>
00AD06EB00000001

> <PUBCHEM_MMFF94_ENERGY>
115.0076

> <PUBCHEM_FEATURE_SELFOVERLAP>
91.62

> <PUBCHEM_SHAPE_FINGERPRINT>
10 15 18335421313548272648
10299344 5 17095243626696200200
10319926 262 18336261340447646546
10674148 151 17967817146708037922
11646440 116 18131638897681833232
12166972 35 16008751337537250436
12236239 1 17167864183508952868
12403259 415 18272939314578594415
12596602 18 16805327729431701777
12633257 1 18187076282855268412
12730499 353 18060708277608933502
12838862 33 18260819364422036109
13402501 40 18273492377465007640
13533116 47 18199469870058968118
13685833 64 12324243849471573868
14251764 18 17240486926523531630
15183329 4 11167942472038336273
15238133 3 18335139808849695316
15510800 12 12396842378099316384
1577012 14 17530689813682343901
18335252 114 16415476043850908352
20157964 124 16415763033649828220
20554085 129 18340480089027210379
21033648 29 18342174474910206528
21150785 3 15123784090033502381
21223535 225 16988295161692178145
21859007 373 17534048688603308005
22149856 69 18194148295044010163
23522609 53 16733852824895497956
23559900 14 18339936917519734142
2838139 119 16988841674626253192
3383291 50 18041568043897141891
3545911 37 18343869917809131094
4093350 32 17203333252274844933
5104073 3 18263370205127194515
5385378 56 18189617151079310843
54039377 194 15358243894269943392
9981440 41 18041287599844197619

> <PUBCHEM_SHAPE_MULTIPOLES>
575.18
20.38
2.18
1.55
5.46
0.61
0.44
-8.35
6.12
3.34
0.03
-2.67
-0.08
1.98

> <PUBCHEM_SHAPE_SELFOVERLAP>
1261.608

> <PUBCHEM_SHAPE_VOLUME>
308.2

> <PUBCHEM_COORDINATE_TYPE>
2
5
10

$$$$
