11340891
  -OEChem-03292013303D

 70 74  0     1  0  0  0  0  0999 V2000
    0.3620   -1.1613    0.8544 O   0  0  0  0  0  0  0  0  0  0  0  0
    1.1854    3.8348   -0.6677 O   0  0  0  0  0  0  0  0  0  0  0  0
   -0.7048   -0.5525   -1.6095 O   0  0  0  0  0  0  0  0  0  0  0  0
   -5.2495   -2.4266   -2.1503 O   0  0  0  0  0  0  0  0  0  0  0  0
   -3.2697   -0.9525    3.2650 O   0  0  0  0  0  0  0  0  0  0  0  0
   -0.5000    0.9714    0.4415 N   0  0  0  0  0  0  0  0  0  0  0  0
    1.9946    1.8048    0.0458 N   0  0  0  0  0  0  0  0  0  0  0  0
   -3.0098   -0.8252   -1.5514 N   0  0  0  0  0  0  0  0  0  0  0  0
   -2.1508   -1.6681    1.4344 N   0  0  0  0  0  0  0  0  0  0  0  0
    3.0278   -0.2583    0.8782 C   0  0  0  0  0  0  0  0  0  0  0  0
    1.8688    0.7185    1.0011 C   0  0  2  0  0  0  0  0  0  0  0  0
   -0.2708    2.4116    0.6648 C   0  0  2  0  0  0  0  0  0  0  0  0
    4.3947    0.4028    1.1583 C   0  0  0  0  0  0  0  0  0  0  0  0
    3.1290   -0.8869   -0.5283 C   0  0  0  0  0  0  0  0  0  0  0  0
    0.5249    0.0515    0.7263 C   0  0  0  0  0  0  0  0  0  0  0  0
   -1.4140    3.3357    0.2523 C   0  0  2  0  0  0  0  0  0  0  0  0
    5.3095   -0.4521    0.3394 C   0  0  0  0  0  0  0  0  0  0  0  0
    4.5932   -1.1821   -0.6150 C   0  0  0  0  0  0  0  0  0  0  0  0
    1.0060    2.7645   -0.0919 C   0  0  0  0  0  0  0  0  0  0  0  0
   -1.8492    0.4789    0.1924 C   0  0  1  0  0  0  0  0  0  0  0  0
   -1.7317    3.2440   -1.2514 C   0  0  0  0  0  0  0  0  0  0  0  0
   -1.0722    4.7820    0.6216 C   0  0  0  0  0  0  0  0  0  0  0  0
   -1.7943   -0.3430   -1.0705 C   0  0  0  0  0  0  0  0  0  0  0  0
    6.6897   -0.5366    0.4151 C   0  0  0  0  0  0  0  0  0  0  0  0
    5.2420   -2.0121   -1.5139 C   0  0  0  0  0  0  0  0  0  0  0  0
   -2.3459   -0.3126    1.3603 C   0  0  0  0  0  0  0  0  0  0  0  0
   -2.8688    4.1564   -1.6891 C   0  0  0  0  0  0  0  0  0  0  0  0
    7.3516   -1.3804   -0.4795 C   0  0  0  0  0  0  0  0  0  0  0  0
    6.6328   -2.1130   -1.4372 C   0  0  0  0  0  0  0  0  0  0  0  0
   -4.3317   -0.4913   -1.0107 C   0  0  0  0  0  0  0  0  0  0  0  0
   -3.0459   -1.6354   -2.7688 C   0  0  0  0  0  0  0  0  0  0  0  0
   -3.0248    0.1260    2.4698 C   0  0  0  0  0  0  0  0  0  0  0  0
   -5.1857   -1.7475   -0.8934 C   0  0  0  0  0  0  0  0  0  0  0  0
   -3.9495   -2.8446   -2.5744 C   0  0  0  0  0  0  0  0  0  0  0  0
   -2.7158   -1.9879    2.5766 C   0  0  0  0  0  0  0  0  0  0  0  0
   -2.8272   -3.3130    3.2054 C   0  0  0  0  0  0  0  0  0  0  0  0
    2.8931   -1.0747    1.6045 H   0  0  0  0  0  0  0  0  0  0  0  0
    1.8404    1.1496    2.0090 H   0  0  0  0  0  0  0  0  0  0  0  0
   -0.0694    2.5343    1.7374 H   0  0  0  0  0  0  0  0  0  0  0  0
    4.4701    1.4418    0.8271 H   0  0  0  0  0  0  0  0  0  0  0  0
    4.6380    0.3481    2.2243 H   0  0  0  0  0  0  0  0  0  0  0  0
    2.5353   -1.8035   -0.5986 H   0  0  0  0  0  0  0  0  0  0  0  0
    2.8466   -0.2063   -1.3374 H   0  0  0  0  0  0  0  0  0  0  0  0
   -2.3086    3.0869    0.8368 H   0  0  0  0  0  0  0  0  0  0  0  0
    2.8881    1.9937   -0.3974 H   0  0  0  0  0  0  0  0  0  0  0  0
   -2.5701    1.2743    0.0375 H   0  0  0  0  0  0  0  0  0  0  0  0
   -0.8616    3.5302   -1.8521 H   0  0  0  0  0  0  0  0  0  0  0  0
   -1.9763    2.2405   -1.5939 H   0  0  0  0  0  0  0  0  0  0  0  0
   -0.5374    4.8419    1.5758 H   0  0  0  0  0  0  0  0  0  0  0  0
   -1.9975    5.3565    0.7529 H   0  0  0  0  0  0  0  0  0  0  0  0
   -0.4935    5.3141   -0.1381 H   0  0  0  0  0  0  0  0  0  0  0  0
    7.2480    0.0368    1.1471 H   0  0  0  0  0  0  0  0  0  0  0  0
    4.6896   -2.5707   -2.2619 H   0  0  0  0  0  0  0  0  0  0  0  0
   -2.6123    5.2137   -1.5761 H   0  0  0  0  0  0  0  0  0  0  0  0
   -3.7765    3.9527   -1.1123 H   0  0  0  0  0  0  0  0  0  0  0  0
   -3.0981    3.9882   -2.7468 H   0  0  0  0  0  0  0  0  0  0  0  0
    8.4340   -1.4672   -0.4388 H   0  0  0  0  0  0  0  0  0  0  0  0
    7.1656   -2.7600   -2.1288 H   0  0  0  0  0  0  0  0  0  0  0  0
   -4.3195    0.0478   -0.0682 H   0  0  0  0  0  0  0  0  0  0  0  0
   -4.7851    0.1846   -1.7470 H   0  0  0  0  0  0  0  0  0  0  0  0
   -3.4423   -0.9892   -3.5608 H   0  0  0  0  0  0  0  0  0  0  0  0
   -2.0405   -1.9530   -3.0610 H   0  0  0  0  0  0  0  0  0  0  0  0
   -3.3837    1.0801    2.8254 H   0  0  0  0  0  0  0  0  0  0  0  0
   -6.2074   -1.4805   -0.6057 H   0  0  0  0  0  0  0  0  0  0  0  0
   -4.7906   -2.4307   -0.1323 H   0  0  0  0  0  0  0  0  0  0  0  0
   -3.5342   -3.5393   -1.8346 H   0  0  0  0  0  0  0  0  0  0  0  0
   -4.0613   -3.3868   -3.5185 H   0  0  0  0  0  0  0  0  0  0  0  0
   -2.3407   -3.3160    4.1852 H   0  0  0  0  0  0  0  0  0  0  0  0
   -3.8777   -3.5882    3.3378 H   0  0  0  0  0  0  0  0  0  0  0  0
   -2.3500   -4.0775    2.5850 H   0  0  0  0  0  0  0  0  0  0  0  0
  1 15  2  0  0  0  0
  2 19  2  0  0  0  0
  3 23  2  0  0  0  0
  4 33  1  0  0  0  0
  4 34  1  0  0  0  0
  5 32  1  0  0  0  0
  5 35  1  0  0  0  0
  6 12  1  0  0  0  0
  6 15  1  0  0  0  0
  6 20  1  0  0  0  0
  7 11  1  0  0  0  0
  7 19  1  0  0  0  0
  7 45  1  0  0  0  0
  8 23  1  0  0  0  0
  8 30  1  0  0  0  0
  8 31  1  0  0  0  0
  9 26  1  0  0  0  0
  9 35  2  0  0  0  0
 10 11  1  0  0  0  0
 10 13  1  0  0  0  0
 10 14  1  0  0  0  0
 10 37  1  0  0  0  0
 11 15  1  0  0  0  0
 11 38  1  0  0  0  0
 12 16  1  0  0  0  0
 12 19  1  0  0  0  0
 12 39  1  0  0  0  0
 13 17  1  0  0  0  0
 13 40  1  0  0  0  0
 13 41  1  0  0  0  0
 14 18  1  0  0  0  0
 14 42  1  0  0  0  0
 14 43  1  0  0  0  0
 16 21  1  0  0  0  0
 16 22  1  0  0  0  0
 16 44  1  0  0  0  0
 17 18  1  0  0  0  0
 17 24  2  0  0  0  0
 18 25  2  0  0  0  0
 20 23  1  0  0  0  0
 20 26  1  0  0  0  0
 20 46  1  0  0  0  0
 21 27  1  0  0  0  0
 21 47  1  0  0  0  0
 21 48  1  0  0  0  0
 22 49  1  0  0  0  0
 22 50  1  0  0  0  0
 22 51  1  0  0  0  0
 24 28  1  0  0  0  0
 24 52  1  0  0  0  0
 25 29  1  0  0  0  0
 25 53  1  0  0  0  0
 26 32  2  0  0  0  0
 27 54  1  0  0  0  0
 27 55  1  0  0  0  0
 27 56  1  0  0  0  0
 28 29  2  0  0  0  0
 28 57  1  0  0  0  0
 29 58  1  0  0  0  0
 30 33  1  0  0  0  0
 30 59  1  0  0  0  0
 30 60  1  0  0  0  0
 31 34  1  0  0  0  0
 31 61  1  0  0  0  0
 31 62  1  0  0  0  0
 32 63  1  0  0  0  0
 33 64  1  0  0  0  0
 33 65  1  0  0  0  0
 34 66  1  0  0  0  0
 34 67  1  0  0  0  0
 35 36  1  0  0  0  0
 36 68  1  0  0  0  0
 36 69  1  0  0  0  0
 36 70  1  0  0  0  0
M  END
> <PUBCHEM_COMPOUND_CID>
11340891

> <PUBCHEM_CONFORMER_RMSD>
1

> <PUBCHEM_CONFORMER_DIVERSEORDER>
1
4
22
15
12
23
18
27
19
28
7
26
16
25
14
24
9
13
8
17
11
20
21
10
6
2
5
3

> <PUBCHEM_MMFF94_PARTIAL_CHARGES>
37
1 -0.57
11 0.36
12 0.36
13 0.14
14 0.14
15 0.57
17 -0.14
18 -0.14
19 0.57
2 -0.57
20 0.54
23 0.57
24 -0.15
25 -0.15
26 0.05
28 -0.15
29 -0.15
3 -0.57
30 0.3
31 0.3
32 -0.01
33 0.28
34 0.28
35 0.3
36 0.18
4 -0.56
45 0.37
5 -0.28
52 0.15
53 0.15
57 0.15
58 0.15
6 -0.66
63 0.15
7 -0.73
8 -0.66
9 -0.57

> <PUBCHEM_EFFECTIVE_ROTOR_COUNT>
9.6

> <PUBCHEM_PHARMACOPHORE_FEATURES>
12
1 1 acceptor
1 2 acceptor
1 22 hydrophobe
1 27 hydrophobe
1 3 acceptor
1 4 acceptor
1 7 donor
5 10 13 14 17 18 rings
5 5 9 26 32 35 rings
6 17 18 24 25 28 29 rings
6 4 8 30 31 33 34 rings
6 6 7 11 12 15 19 rings

> <PUBCHEM_HEAVY_ATOM_COUNT>
36

> <PUBCHEM_ATOM_DEF_STEREO_COUNT>
4

> <PUBCHEM_ATOM_UDEF_STEREO_COUNT>
0

> <PUBCHEM_BOND_DEF_STEREO_COUNT>
0

> <PUBCHEM_BOND_UDEF_STEREO_COUNT>
0

> <PUBCHEM_ISOTOPIC_ATOM_COUNT>
0

> <PUBCHEM_COMPONENT_COUNT>
1

> <PUBCHEM_CACTVS_TAUTO_COUNT>
2

> <PUBCHEM_CONFORMER_ID>
00AD0C5B00000001

> <PUBCHEM_MMFF94_ENERGY>
116.0957

> <PUBCHEM_FEATURE_SELFOVERLAP>
60.987

> <PUBCHEM_SHAPE_FINGERPRINT>
10165383 225 17022900113255300451
107951 10 17901395493347043937
11115154 58 18269536348288527925
11285246 1 18188191157570558349
11991303 11 18046623400170590013
12160290 23 18120080694127931344
12422481 6 17773901730423464294
12623949 98 17249799978963794506
12633046 712 18043548306892202019
12788726 201 18262503793979918761
13009979 54 17631733901788781435
13540713 4 17534059954587374603
13690498 29 18343018857502576324
13782708 43 18059576825000622790
14114206 34 17967529034746403360
14674994 50 18201439130218917297
14856354 85 18044689488250694234
15131766 46 15866647101190815204
15361156 5 18411992347184268524
16114785 44 18117285753029120505
19319366 153 17463959165167327277
20775438 99 17331929104033951383
21033650 10 18261946332736219132
23522609 53 17558581147637423960
23559900 14 17459183156521549573
2838139 119 13334744548656588054
3380486 145 18059582351700145752
3380486 77 16054911151476446567
469060 322 18272936011738538782
484985 159 17631732647315335785
497634 4 17275384304908847042
5104073 3 16343699907852986706
513202 73 18270127794822469590
531348 171 18126563414933042806
563151 40 18044369427583305453
57527295 17 17969761061121371611
58260988 647 18194116555014730635
613672 6 18335132150732869122
70251023 43 18341039821976104717

> <PUBCHEM_SHAPE_MULTIPOLES>
691.59
13.29
4.78
2.79
25.73
5.95
0.94
-12.22
-4.82
-5.28
-0.96
-4.63
-2.79
1.19

> <PUBCHEM_SHAPE_SELFOVERLAP>
1496.838

> <PUBCHEM_SHAPE_VOLUME>
378.1

> <PUBCHEM_COORDINATE_TYPE>
2
5
10

$$$$
