11349223
  -OEChem-03292013303D

 49 52  0     1  0  0  0  0  0999 V2000
    0.9610    2.2905   -0.0182 O   0  0  0  0  0  0  0  0  0  0  0  0
    4.2503   -2.4145    1.5797 O   0  0  0  0  0  0  0  0  0  0  0  0
   -0.1793   -2.3099   -0.6833 O   0  0  0  0  0  0  0  0  0  0  0  0
   -1.6829    2.7417   -0.0766 O   0  0  0  0  0  0  0  0  0  0  0  0
   -4.1170    2.0764    0.2575 O   0  0  0  0  0  0  0  0  0  0  0  0
   -5.1320   -2.5736    0.0501 O   0  0  0  0  0  0  0  0  0  0  0  0
    2.7816    0.7812   -0.7310 C   0  0  1  0  0  0  0  0  0  0  0  0
    2.3888    2.0666    0.0534 C   0  0  0  0  0  0  0  0  0  0  0  0
    4.2919    0.4712   -0.8097 C   0  0  0  0  0  0  0  0  0  0  0  0
    1.9498   -0.3716   -0.1975 C   0  0  0  0  0  0  0  0  0  0  0  0
    4.7831   -0.4781    0.2771 C   0  0  0  0  0  0  0  0  0  0  0  0
    3.9719   -1.7793    0.3276 C   0  0  2  0  0  0  0  0  0  0  0  0
    2.4927   -1.5108    0.2701 C   0  0  0  0  0  0  0  0  0  0  0  0
    0.5167   -0.0785   -0.1863 C   0  0  0  0  0  0  0  0  0  0  0  0
    2.9985    3.3199   -0.5998 C   0  0  0  0  0  0  0  0  0  0  0  0
    2.7786    2.0584    1.5389 C   0  0  0  0  0  0  0  0  0  0  0  0
    0.1127    1.2039   -0.0967 C   0  0  0  0  0  0  0  0  0  0  0  0
    4.3655   -2.7529   -0.7867 C   0  0  0  0  0  0  0  0  0  0  0  0
   -0.4936   -1.1698   -0.3595 C   0  0  0  0  0  0  0  0  0  0  0  0
   -1.3293    1.5676   -0.0781 C   0  0  0  0  0  0  0  0  0  0  0  0
   -1.9166   -0.8402   -0.1680 C   0  0  0  0  0  0  0  0  0  0  0  0
   -2.3218    0.4845   -0.0390 C   0  0  0  0  0  0  0  0  0  0  0  0
   -3.6788    0.7908    0.1189 C   0  0  0  0  0  0  0  0  0  0  0  0
   -2.8695   -1.8663   -0.1397 C   0  0  0  0  0  0  0  0  0  0  0  0
   -4.6252   -0.2335    0.1509 C   0  0  0  0  0  0  0  0  0  0  0  0
   -4.2211   -1.5604    0.0223 C   0  0  0  0  0  0  0  0  0  0  0  0
   -6.0763    0.0869    0.3236 C   0  0  0  0  0  0  0  0  0  0  0  0
    2.4586    0.9374   -1.7732 H   0  0  0  0  0  0  0  0  0  0  0  0
    4.8950    1.3832   -0.7934 H   0  0  0  0  0  0  0  0  0  0  0  0
    4.4948    0.0088   -1.7851 H   0  0  0  0  0  0  0  0  0  0  0  0
    5.8458   -0.7027    0.1184 H   0  0  0  0  0  0  0  0  0  0  0  0
    4.7444    0.0185    1.2541 H   0  0  0  0  0  0  0  0  0  0  0  0
    1.8587   -2.2986    0.6694 H   0  0  0  0  0  0  0  0  0  0  0  0
    4.0861    3.3632   -0.4970 H   0  0  0  0  0  0  0  0  0  0  0  0
    2.7467    3.3639   -1.6656 H   0  0  0  0  0  0  0  0  0  0  0  0
    2.5844    4.2311   -0.1511 H   0  0  0  0  0  0  0  0  0  0  0  0
    3.8637    2.0606    1.6754 H   0  0  0  0  0  0  0  0  0  0  0  0
    2.3752    2.9430    2.0464 H   0  0  0  0  0  0  0  0  0  0  0  0
    2.3614    1.1944    2.0663 H   0  0  0  0  0  0  0  0  0  0  0  0
    3.8418   -3.7099   -0.6733 H   0  0  0  0  0  0  0  0  0  0  0  0
    4.1406   -2.3575   -1.7827 H   0  0  0  0  0  0  0  0  0  0  0  0
    5.4362   -2.9836   -0.7420 H   0  0  0  0  0  0  0  0  0  0  0  0
    5.2059   -2.5914    1.6194 H   0  0  0  0  0  0  0  0  0  0  0  0
   -2.5648   -2.9053   -0.2407 H   0  0  0  0  0  0  0  0  0  0  0  0
   -6.2184    0.8635    1.0832 H   0  0  0  0  0  0  0  0  0  0  0  0
   -6.4967    0.4371   -0.6246 H   0  0  0  0  0  0  0  0  0  0  0  0
   -6.6612   -0.7754    0.6590 H   0  0  0  0  0  0  0  0  0  0  0  0
   -3.3722    2.6819    0.3890 H   0  0  0  0  0  0  0  0  0  0  0  0
   -4.6683   -3.4222   -0.0538 H   0  0  0  0  0  0  0  0  0  0  0  0
  1  8  1  0  0  0  0
  1 17  1  0  0  0  0
  2 12  1  0  0  0  0
  2 43  1  0  0  0  0
  3 19  2  0  0  0  0
  4 20  2  0  0  0  0
  5 23  1  0  0  0  0
  5 48  1  0  0  0  0
  6 26  1  0  0  0  0
  6 49  1  0  0  0  0
  7  8  1  0  0  0  0
  7  9  1  0  0  0  0
  7 10  1  0  0  0  0
  7 28  1  0  0  0  0
  8 15  1  0  0  0  0
  8 16  1  0  0  0  0
  9 11  1  0  0  0  0
  9 29  1  0  0  0  0
  9 30  1  0  0  0  0
 10 13  2  0  0  0  0
 10 14  1  0  0  0  0
 11 12  1  0  0  0  0
 11 31  1  0  0  0  0
 11 32  1  0  0  0  0
 12 13  1  0  0  0  0
 12 18  1  0  0  0  0
 13 33  1  0  0  0  0
 14 17  2  0  0  0  0
 14 19  1  0  0  0  0
 15 34  1  0  0  0  0
 15 35  1  0  0  0  0
 15 36  1  0  0  0  0
 16 37  1  0  0  0  0
 16 38  1  0  0  0  0
 16 39  1  0  0  0  0
 17 20  1  0  0  0  0
 18 40  1  0  0  0  0
 18 41  1  0  0  0  0
 18 42  1  0  0  0  0
 19 21  1  0  0  0  0
 20 22  1  0  0  0  0
 21 22  1  0  0  0  0
 21 24  2  0  0  0  0
 22 23  2  0  0  0  0
 23 25  1  0  0  0  0
 24 26  1  0  0  0  0
 24 44  1  0  0  0  0
 25 26  2  0  0  0  0
 25 27  1  0  0  0  0
 27 45  1  0  0  0  0
 27 46  1  0  0  0  0
 27 47  1  0  0  0  0
M  END
> <PUBCHEM_COMPOUND_CID>
11349223

> <PUBCHEM_CONFORMER_RMSD>
0.6

> <PUBCHEM_CONFORMER_DIVERSEORDER>
1

> <PUBCHEM_MMFF94_PARTIAL_CHARGES>
27
1 -0.36
10 -0.14
12 0.42
13 -0.29
14 0.01
17 0.09
19 0.47
2 -0.68
20 0.47
21 0.09
22 0.09
23 0.08
24 -0.15
25 -0.14
26 0.08
27 0.14
3 -0.57
33 0.15
4 -0.57
43 0.4
44 0.15
48 0.45
49 0.45
5 -0.53
6 -0.53
7 0.14
8 0.28

> <PUBCHEM_EFFECTIVE_ROTOR_COUNT>
1

> <PUBCHEM_PHARMACOPHORE_FEATURES>
12
1 1 acceptor
1 2 acceptor
1 2 donor
1 3 acceptor
1 4 acceptor
1 5 donor
1 6 donor
3 8 15 16 hydrophobe
6 1 7 8 10 14 17 rings
6 14 17 19 20 21 22 rings
6 21 22 23 24 25 26 rings
6 7 9 10 11 12 13 rings

> <PUBCHEM_HEAVY_ATOM_COUNT>
27

> <PUBCHEM_ATOM_DEF_STEREO_COUNT>
2

> <PUBCHEM_ATOM_UDEF_STEREO_COUNT>
0

> <PUBCHEM_BOND_DEF_STEREO_COUNT>
0

> <PUBCHEM_BOND_UDEF_STEREO_COUNT>
0

> <PUBCHEM_ISOTOPIC_ATOM_COUNT>
0

> <PUBCHEM_COMPONENT_COUNT>
1

> <PUBCHEM_CACTVS_TAUTO_COUNT>
12

> <PUBCHEM_CONFORMER_ID>
00AD2CE700000001

> <PUBCHEM_MMFF94_ENERGY>
86.9369

> <PUBCHEM_FEATURE_SELFOVERLAP>
60.975

> <PUBCHEM_SHAPE_FINGERPRINT>
10411042 1 18266462006007619862
10622 236 17843100748949219039
10967382 1 18267304424660094660
1100329 8 16970268436547161579
11405975 8 18412829084022415425
11578080 2 17058354015188924010
11963148 33 17832137604075875619
12107183 9 18122629353564586337
12403259 226 18410570660884207140
12403260 363 18413385419778909157
12422481 6 18270418109189658603
12553582 1 18341321245956910398
12633257 1 18271537385914162585
12788726 201 17774740717350643297
13140716 1 18341611495245728081
13167823 11 18410012152127273959
13224815 77 18336825402618275101
13533116 47 18340486776607658179
138480 1 18410293652948018236
14341114 176 18411706460901221859
14790565 3 17544481215663707692
14866123 147 17263009052461546320
14955137 171 18131352969198361694
15042514 8 17977660906053651594
15196674 1 18339645654586439621
15250474 111 18270111456587768151
15256400 18 18412824672742797041
15442244 35 18410856542459926900
15536298 74 18342739671184459565
1601671 61 18343024354971167398
17349148 13 17917991659490599917
17492 89 18411420630744011047
17804303 29 18339925913480737597
17857418 61 18410007736905960523
1813 80 17313100856381582340
18681886 176 18343585170652942230
19591789 44 18411419522721004863
20028762 73 18202558480322064391
20691752 17 17603863420570259192
21033648 29 17313371345348687269
21267235 1 18410584989232456783
21279426 13 18265331712185196789
21421861 104 18262223517573241040
21792934 111 18412257329961095881
21859007 373 17897702315789914693
221490 88 18336272326636184434
22182313 1 18262777627888387756
23366157 5 18114746035629570196
23559900 14 18411133640865021425
3004659 81 18260834752783195350
335352 9 18339081459061055733
3411729 13 18059003025727658200
350125 39 18411420613421327268
3680242 22 18339089172600649771
4073 2 18042412494089895443
4214541 1 18410294692503553509
4409770 3 17321252416826377228
5104073 3 18341618152830042435
67856867 119 18337951298119419600
6823239 73 18058744494249873998
7970288 3 18120936110143487634
9709674 26 18336271227130234155
9981440 41 17687463881325174432

> <PUBCHEM_SHAPE_MULTIPOLES>
520.43
11.35
3.42
0.89
8.07
0.59
-0.2
-4.23
-1.02
-2.16
0.02
-0.89
-0.03
-0.38

> <PUBCHEM_SHAPE_SELFOVERLAP>
1157.652

> <PUBCHEM_SHAPE_VOLUME>
275.6

> <PUBCHEM_COORDINATE_TYPE>
2
5
10

$$$$
