11340681
  -OEChem-03292013303D

 67 71  0     1  0  0  0  0  0999 V2000
   -0.2800    1.4799   -0.0073 O   0  0  0  0  0  0  0  0  0  0  0  0
    1.4406   -0.2192   -1.2722 O   0  0  0  0  0  0  0  0  0  0  0  0
    3.7480    0.7510   -1.7083 O   0  0  0  0  0  0  0  0  0  0  0  0
    6.1836   -0.2431   -0.9534 O   0  0  0  0  0  0  0  0  0  0  0  0
   -3.1055   -1.4979    0.5804 O   0  0  0  0  0  0  0  0  0  0  0  0
    6.6034   -2.3320   -1.6322 O   0  0  0  0  0  0  0  0  0  0  0  0
   -1.4990   -2.9790    1.1773 O   0  0  0  0  0  0  0  0  0  0  0  0
   -8.9807    0.6329   -0.5821 O   0  0  0  0  0  0  0  0  0  0  0  0
    3.1956   -0.2850    0.4785 C   0  0  2  0  0  0  0  0  0  0  0  0
    1.6163   -0.0993    0.1665 C   0  0  1  0  0  0  0  0  0  0  0  0
    4.0137    0.8666   -0.2886 C   0  0  2  0  0  0  0  0  0  0  0  0
    1.0648    1.3200    0.5266 C   0  0  1  0  0  0  0  0  0  0  0  0
    3.4216    2.2600    0.0868 C   0  0  0  0  0  0  0  0  0  0  0  0
    1.9158    2.3933   -0.1711 C   0  0  0  0  0  0  0  0  0  0  0  0
    5.5952    0.8614   -0.1834 C   0  0  0  0  0  0  0  0  0  0  0  0
    3.6305   -1.7033   -0.0166 C   0  0  0  0  0  0  0  0  0  0  0  0
    0.6762   -1.1810    0.7653 C   0  0  0  0  0  0  0  0  0  0  0  0
    3.4247   -0.2330    2.0173 C   0  0  0  0  0  0  0  0  0  0  0  0
    0.9498    1.6723    2.0256 C   0  0  0  0  0  0  0  0  0  0  0  0
    5.0874   -2.0989    0.1795 C   0  0  0  0  0  0  0  0  0  0  0  0
   -0.7711   -0.8032    0.5837 C   0  0  0  0  0  0  0  0  0  0  0  0
    6.2144    0.9075    1.2180 C   0  0  0  0  0  0  0  0  0  0  0  0
    6.2024    2.0834   -0.9330 C   0  0  0  0  0  0  0  0  0  0  0  0
   -1.1456    0.4276    0.2014 C   0  0  0  0  0  0  0  0  0  0  0  0
    6.0063   -1.5707   -0.8726 C   0  0  0  0  0  0  0  0  0  0  0  0
   -1.8015   -1.8495    0.8060 C   0  0  0  0  0  0  0  0  0  0  0  0
   -2.5262    0.7508   -0.0257 C   0  0  0  0  0  0  0  0  0  0  0  0
   -3.4590   -0.1930    0.1565 C   0  0  0  0  0  0  0  0  0  0  0  0
   -4.9044    0.0235   -0.0374 C   0  0  0  0  0  0  0  0  0  0  0  0
   -5.4635    1.2859    0.1835 C   0  0  0  0  0  0  0  0  0  0  0  0
   -5.7263   -1.0325   -0.4429 C   0  0  0  0  0  0  0  0  0  0  0  0
   -6.8312    1.4903    0.0007 C   0  0  0  0  0  0  0  0  0  0  0  0
   -7.0940   -0.8281   -0.6260 C   0  0  0  0  0  0  0  0  0  0  0  0
   -7.6464    0.4332   -0.4041 C   0  0  0  0  0  0  0  0  0  0  0  0
   -9.7560   -0.4910   -0.9968 C   0  0  0  0  0  0  0  0  0  0  0  0
    3.8764    3.0422   -0.5313 H   0  0  0  0  0  0  0  0  0  0  0  0
    3.6515    2.5204    1.1238 H   0  0  0  0  0  0  0  0  0  0  0  0
    1.5890    3.3906    0.1551 H   0  0  0  0  0  0  0  0  0  0  0  0
    1.7143    2.3963   -1.2501 H   0  0  0  0  0  0  0  0  0  0  0  0
    3.3766   -1.8202   -1.0776 H   0  0  0  0  0  0  0  0  0  0  0  0
    3.0354   -2.4517    0.5216 H   0  0  0  0  0  0  0  0  0  0  0  0
    0.8500   -1.3505    1.8303 H   0  0  0  0  0  0  0  0  0  0  0  0
    0.8429   -2.1314    0.2436 H   0  0  0  0  0  0  0  0  0  0  0  0
    4.2425   -0.8676    2.3582 H   0  0  0  0  0  0  0  0  0  0  0  0
    3.6553    0.7698    2.3774 H   0  0  0  0  0  0  0  0  0  0  0  0
    2.5636   -0.5859    2.5866 H   0  0  0  0  0  0  0  0  0  0  0  0
    1.9054    1.8996    2.4970 H   0  0  0  0  0  0  0  0  0  0  0  0
    0.3176    2.5601    2.1565 H   0  0  0  0  0  0  0  0  0  0  0  0
    0.4669    0.8779    2.6024 H   0  0  0  0  0  0  0  0  0  0  0  0
    5.1308   -3.1939    0.0845 H   0  0  0  0  0  0  0  0  0  0  0  0
    5.4988   -1.9060    1.1680 H   0  0  0  0  0  0  0  0  0  0  0  0
    0.5625    0.1062   -1.5260 H   0  0  0  0  0  0  0  0  0  0  0  0
    2.7945    0.7336   -1.8706 H   0  0  0  0  0  0  0  0  0  0  0  0
    6.0881   -0.0137    1.7809 H   0  0  0  0  0  0  0  0  0  0  0  0
    7.3026    1.0355    1.1523 H   0  0  0  0  0  0  0  0  0  0  0  0
    5.8197    1.7393    1.8091 H   0  0  0  0  0  0  0  0  0  0  0  0
    7.2885    1.9690   -1.0447 H   0  0  0  0  0  0  0  0  0  0  0  0
    5.8094    2.1692   -1.9521 H   0  0  0  0  0  0  0  0  0  0  0  0
    6.0279    3.0260   -0.4050 H   0  0  0  0  0  0  0  0  0  0  0  0
   -2.7630    1.7555   -0.3588 H   0  0  0  0  0  0  0  0  0  0  0  0
   -4.8626    2.1284    0.5160 H   0  0  0  0  0  0  0  0  0  0  0  0
   -5.3194   -2.0235   -0.6299 H   0  0  0  0  0  0  0  0  0  0  0  0
   -7.2569    2.4740    0.1787 H   0  0  0  0  0  0  0  0  0  0  0  0
   -7.6686   -1.6917   -0.9428 H   0  0  0  0  0  0  0  0  0  0  0  0
   -9.4481   -0.8496   -1.9849 H   0  0  0  0  0  0  0  0  0  0  0  0
  -10.7931   -0.1521   -1.0887 H   0  0  0  0  0  0  0  0  0  0  0  0
   -9.7453   -1.2868   -0.2444 H   0  0  0  0  0  0  0  0  0  0  0  0
  1 12  1  0  0  0  0
  1 24  1  0  0  0  0
  2 10  1  0  0  0  0
  2 52  1  0  0  0  0
  3 11  1  0  0  0  0
  3 53  1  0  0  0  0
  4 15  1  0  0  0  0
  4 25  1  0  0  0  0
  5 26  1  0  0  0  0
  5 28  1  0  0  0  0
  6 25  2  0  0  0  0
  7 26  2  0  0  0  0
  8 34  1  0  0  0  0
  8 35  1  0  0  0  0
  9 10  1  0  0  0  0
  9 11  1  0  0  0  0
  9 16  1  0  0  0  0
  9 18  1  0  0  0  0
 10 12  1  0  0  0  0
 10 17  1  0  0  0  0
 11 13  1  0  0  0  0
 11 15  1  0  0  0  0
 12 14  1  0  0  0  0
 12 19  1  0  0  0  0
 13 14  1  0  0  0  0
 13 36  1  0  0  0  0
 13 37  1  0  0  0  0
 14 38  1  0  0  0  0
 14 39  1  0  0  0  0
 15 22  1  0  0  0  0
 15 23  1  0  0  0  0
 16 20  1  0  0  0  0
 16 40  1  0  0  0  0
 16 41  1  0  0  0  0
 17 21  1  0  0  0  0
 17 42  1  0  0  0  0
 17 43  1  0  0  0  0
 18 44  1  0  0  0  0
 18 45  1  0  0  0  0
 18 46  1  0  0  0  0
 19 47  1  0  0  0  0
 19 48  1  0  0  0  0
 19 49  1  0  0  0  0
 20 25  1  0  0  0  0
 20 50  1  0  0  0  0
 20 51  1  0  0  0  0
 21 24  2  0  0  0  0
 21 26  1  0  0  0  0
 22 54  1  0  0  0  0
 22 55  1  0  0  0  0
 22 56  1  0  0  0  0
 23 57  1  0  0  0  0
 23 58  1  0  0  0  0
 23 59  1  0  0  0  0
 24 27  1  0  0  0  0
 27 28  2  0  0  0  0
 27 60  1  0  0  0  0
 28 29  1  0  0  0  0
 29 30  2  0  0  0  0
 29 31  1  0  0  0  0
 30 32  1  0  0  0  0
 30 61  1  0  0  0  0
 31 33  2  0  0  0  0
 31 62  1  0  0  0  0
 32 34  2  0  0  0  0
 32 63  1  0  0  0  0
 33 34  1  0  0  0  0
 33 64  1  0  0  0  0
 35 65  1  0  0  0  0
 35 66  1  0  0  0  0
 35 67  1  0  0  0  0
M  END
> <PUBCHEM_COMPOUND_CID>
11340681

> <PUBCHEM_CONFORMER_RMSD>
0.8

> <PUBCHEM_CONFORMER_DIVERSEORDER>
1

> <PUBCHEM_MMFF94_PARTIAL_CHARGES>
34
1 -0.36
10 0.28
11 0.28
12 0.28
15 0.28
17 0.14
2 -0.68
20 0.06
21 -0.12
24 0.08
25 0.66
26 0.71
27 -0.15
28 0.05
29 0.03
3 -0.68
30 -0.15
31 -0.15
32 -0.15
33 -0.15
34 0.08
35 0.28
4 -0.43
5 -0.23
52 0.4
53 0.4
6 -0.57
60 0.15
61 0.15
62 0.15
63 0.15
64 0.15
7 -0.57
8 -0.36

> <PUBCHEM_EFFECTIVE_ROTOR_COUNT>
3.6

> <PUBCHEM_PHARMACOPHORE_FEATURES>
14
1 1 acceptor
1 2 acceptor
1 2 donor
1 3 acceptor
1 3 donor
1 6 acceptor
1 7 acceptor
1 8 acceptor
3 15 22 23 hydrophobe
6 1 10 12 17 21 24 rings
6 29 30 31 32 33 34 rings
6 5 21 24 26 27 28 rings
6 9 10 11 12 13 14 rings
7 4 9 11 15 16 20 25 rings

> <PUBCHEM_HEAVY_ATOM_COUNT>
35

> <PUBCHEM_ATOM_DEF_STEREO_COUNT>
4

> <PUBCHEM_ATOM_UDEF_STEREO_COUNT>
0

> <PUBCHEM_BOND_DEF_STEREO_COUNT>
0

> <PUBCHEM_BOND_UDEF_STEREO_COUNT>
0

> <PUBCHEM_ISOTOPIC_ATOM_COUNT>
0

> <PUBCHEM_COMPONENT_COUNT>
1

> <PUBCHEM_CACTVS_TAUTO_COUNT>
1

> <PUBCHEM_CONFORMER_ID>
00AD0B8900000001

> <PUBCHEM_MMFF94_ENERGY>
171.2578

> <PUBCHEM_FEATURE_SELFOVERLAP>
71.134

> <PUBCHEM_SHAPE_FINGERPRINT>
10 15 11025801994229946671
10299344 5 18272089388391442213
10625338 86 15574705873680000533
10835480 77 18337394954221559328
11007060 377 18335146380080970129
11135609 127 18263362667365372020
11578080 2 17201336706530549344
11719270 70 17632578231923957959
11796584 16 18187086208725136842
12166972 35 18131914862178560465
12236239 1 18060703879103310777
12516196 113 17917992784740721024
13617811 41 17967532367646339260
13782708 43 16199292369974602855
13811026 1 18409730668861393579
14170010 4 18411417319392251944
14251764 18 18272653450678284537
15131766 46 14997997863565979094
15142383 8 17240198837292222200
15183329 4 18412263935219850713
15439362 3 17828770882687453996
15840311 113 17531247283626903732
15927050 60 18260265270195995931
18608769 82 18261960760586635499
19315092 285 14619688700260418702
19319366 153 16950833752408777618
19611394 137 17531825674905600305
21792934 111 18340475695803031552
221357 26 18409166593178095788
22224240 67 8142080957951004521
23522609 53 17986139411513614577
23559900 14 18339078293121460768
23569943 247 17914061897385854938
23576562 1 18041848449394476623
24893992 56 18259983812872757843
249057 3 18187368739836235190
25269216 80 15575864835169531947
255183 451 18055361232768737566
27425 322 16878514560797793106
3004659 81 18334577919420678802
3044373 193 16702007725443967488
3103668 31 18042400231864418173
335352 9 18407762529977851094
350125 39 18333728001364940909
3633792 109 18410012109472798969
4073 2 17968662734324321171
4098825 35 18410573947003583157
4340502 62 14562527379575171785
504579 68 18337941373415233375
6081469 158 17967534528663696750
6328613 192 18260552259450933329
70251023 43 16517358878856259290

> <PUBCHEM_SHAPE_MULTIPOLES>
673.33
23.19
2.38
1.29
42.84
0.41
0.2
0.34
-8.74
-2.62
0.09
-1.51
0.07
0.53

> <PUBCHEM_SHAPE_SELFOVERLAP>
1469.355

> <PUBCHEM_SHAPE_VOLUME>
359.7

> <PUBCHEM_COORDINATE_TYPE>
2
5
10

$$$$
