11345724
  -OEChem-03292013303D

 31 31  0     1  0  0  0  0  0999 V2000
    2.8670    2.8409    0.1938 O   0  0  0  0  0  0  0  0  0  0  0  0
    1.2102    2.6042   -1.3391 O   0  0  0  0  0  0  0  0  0  0  0  0
   -1.0036    0.3120    2.2016 O   0  0  0  0  0  0  0  0  0  0  0  0
    3.8479   -2.5281   -1.4748 O   0  0  0  0  0  0  0  0  0  0  0  0
    3.9843   -2.2781    0.7760 O   0  0  0  0  0  0  0  0  0  0  0  0
   -0.0545    0.7438    0.1299 N   0  0  0  0  0  0  0  0  0  0  0  0
    1.2378    1.1544    0.6176 C   0  0  1  0  0  0  0  0  0  0  0  0
    2.2113   -0.0198    0.7766 C   0  0  0  0  0  0  0  0  0  0  0  0
    2.5679   -0.7714   -0.5123 C   0  0  0  0  0  0  0  0  0  0  0  0
    1.7458    2.2502   -0.2967 C   0  0  0  0  0  0  0  0  0  0  0  0
   -1.0821    0.3512    0.9766 C   0  0  0  0  0  0  0  0  0  0  0  0
   -2.3451   -0.0687    0.3164 C   0  0  0  0  0  0  0  0  0  0  0  0
    3.5210   -1.9278   -0.3004 C   0  0  0  0  0  0  0  0  0  0  0  0
   -3.1699   -0.9639    0.9652 C   0  0  0  0  0  0  0  0  0  0  0  0
   -2.6528    0.4505   -0.9240 C   0  0  0  0  0  0  0  0  0  0  0  0
   -4.3558   -1.3581    0.3457 C   0  0  0  0  0  0  0  0  0  0  0  0
   -3.8389    0.0564   -1.5435 C   0  0  0  0  0  0  0  0  0  0  0  0
   -4.6904   -0.8478   -0.9085 C   0  0  0  0  0  0  0  0  0  0  0  0
    1.0836    1.6158    1.6015 H   0  0  0  0  0  0  0  0  0  0  0  0
    3.1409    0.3460    1.2319 H   0  0  0  0  0  0  0  0  0  0  0  0
    1.7882   -0.7372    1.4923 H   0  0  0  0  0  0  0  0  0  0  0  0
    3.0386   -0.0804   -1.2204 H   0  0  0  0  0  0  0  0  0  0  0  0
    1.6571   -1.1755   -0.9676 H   0  0  0  0  0  0  0  0  0  0  0  0
   -0.1603    0.6670   -0.8762 H   0  0  0  0  0  0  0  0  0  0  0  0
   -2.9217   -1.3743    1.9394 H   0  0  0  0  0  0  0  0  0  0  0  0
   -2.0361    1.1821   -1.4355 H   0  0  0  0  0  0  0  0  0  0  0  0
   -5.0185   -2.0628    0.8395 H   0  0  0  0  0  0  0  0  0  0  0  0
   -4.1040    0.4596   -2.5166 H   0  0  0  0  0  0  0  0  0  0  0  0
    3.1860    3.5612   -0.3908 H   0  0  0  0  0  0  0  0  0  0  0  0
   -5.6147   -1.1534   -1.3902 H   0  0  0  0  0  0  0  0  0  0  0  0
    4.4797   -3.2670   -1.3440 H   0  0  0  0  0  0  0  0  0  0  0  0
  1 10  1  0  0  0  0
  1 29  1  0  0  0  0
  2 10  2  0  0  0  0
  3 11  2  0  0  0  0
  4 13  1  0  0  0  0
  4 31  1  0  0  0  0
  5 13  2  0  0  0  0
  6  7  1  0  0  0  0
  6 11  1  0  0  0  0
  6 24  1  0  0  0  0
  7  8  1  0  0  0  0
  7 10  1  0  0  0  0
  7 19  1  0  0  0  0
  8  9  1  0  0  0  0
  8 20  1  0  0  0  0
  8 21  1  0  0  0  0
  9 13  1  0  0  0  0
  9 22  1  0  0  0  0
  9 23  1  0  0  0  0
 11 12  1  0  0  0  0
 12 14  2  0  0  0  0
 12 15  1  0  0  0  0
 14 16  1  0  0  0  0
 14 25  1  0  0  0  0
 15 17  2  0  0  0  0
 15 26  1  0  0  0  0
 16 18  2  0  0  0  0
 16 27  1  0  0  0  0
 17 18  1  0  0  0  0
 17 28  1  0  0  0  0
 18 30  1  0  0  0  0
M  END
> <PUBCHEM_COMPOUND_CID>
11345724

> <PUBCHEM_CONFORMER_RMSD>
0.8

> <PUBCHEM_CONFORMER_DIVERSEORDER>
1
33
20
31
32
22
25
28
18
29
21
8
27
35
26
37
9
11
14
17
2
30
38
7
23
16
19
34
15
36
24
5
13
3
6
10
4
12

> <PUBCHEM_MMFF94_PARTIAL_CHARGES>
25
1 -0.65
10 0.66
11 0.54
12 0.09
13 0.66
14 -0.15
15 -0.15
16 -0.15
17 -0.15
18 -0.15
2 -0.57
24 0.37
25 0.15
26 0.15
27 0.15
28 0.15
29 0.5
3 -0.57
30 0.15
31 0.5
4 -0.65
5 -0.57
6 -0.73
7 0.36
9 0.06

> <PUBCHEM_EFFECTIVE_ROTOR_COUNT>
7

> <PUBCHEM_PHARMACOPHORE_FEATURES>
9
1 1 acceptor
1 2 acceptor
1 3 acceptor
1 4 acceptor
1 5 acceptor
1 6 donor
3 1 2 10 anion
3 4 5 13 anion
6 12 14 15 16 17 18 rings

> <PUBCHEM_HEAVY_ATOM_COUNT>
18

> <PUBCHEM_ATOM_DEF_STEREO_COUNT>
1

> <PUBCHEM_ATOM_UDEF_STEREO_COUNT>
0

> <PUBCHEM_BOND_DEF_STEREO_COUNT>
0

> <PUBCHEM_BOND_UDEF_STEREO_COUNT>
0

> <PUBCHEM_ISOTOPIC_ATOM_COUNT>
0

> <PUBCHEM_COMPONENT_COUNT>
1

> <PUBCHEM_CACTVS_TAUTO_COUNT>
2

> <PUBCHEM_CONFORMER_ID>
00AD1F3C00000001

> <PUBCHEM_MMFF94_ENERGY>
37.0555

> <PUBCHEM_FEATURE_SELFOVERLAP>
45.79

> <PUBCHEM_SHAPE_FINGERPRINT>
12363563 72 18337397019974130662
12553582 1 18191883227364379098
13533116 47 18201157762964262843
14848160 33 18412545396763332078
15342816 4 18338803291346585598
15502722 9 18337111292689464804
15806764 133 17530974596385440749
17041 50 18113331994640093429
17539 30 17976538304623644284
1813 80 18129956567792550958
18186145 218 17821723953597181689
193927 3 18201725019973582663
20281475 54 18059010709175885979
20388580 30 18342176652574865026
20645477 70 18337386136394951979
20671657 53 18336263453202232362
20693207 138 17968955187443265923
21054139 6 17697588154032844500
21069387 34 18343302552571339471
21401589 2 11171357563939602142
23114952 82 17968103082773881669
23526113 38 17676497154733261248
23557571 272 17242176970928023025
23559900 14 18261383481582675049
23596394 208 18260835925071559132
312423 11 18271538554139907873
4463277 69 18201716219817214766
5161694 15 17894625946531570199
5262128 65 18187365445580871597
5281201 14 18186799210219789293
6049 1 17531260499214828105
633830 44 17967802878235622437
7615 1 17917162649151036785
9709674 26 18042121123719771563

> <PUBCHEM_SHAPE_MULTIPOLES>
336.1
8.97
2.66
1.46
3.54
0.52
-0.11
-5.8
2.21
-4.55
0.7
0.52
-0.05
0.6

> <PUBCHEM_SHAPE_SELFOVERLAP>
692.386

> <PUBCHEM_SHAPE_VOLUME>
191.1

> <PUBCHEM_COORDINATE_TYPE>
2
5
10

$$$$
