11351021
  -OEChem-03292013303D

 62 64  0     1  0  0  0  0  0999 V2000
    2.4362    1.3858   -2.0994 O   0  0  0  0  0  0  0  0  0  0  0  0
    5.9867   -0.7915    0.8387 O   0  0  0  0  0  0  0  0  0  0  0  0
   -3.8164   -1.0341   -0.3129 N   0  0  0  0  0  0  0  0  0  0  0  0
   -1.4796   -1.1724   -0.2750 N   0  0  0  0  0  0  0  0  0  0  0  0
   -4.1733    1.8651    2.8265 N   0  0  0  0  0  0  0  0  0  0  0  0
   -0.4115   -3.2750    0.2205 N   0  0  0  0  0  0  0  0  0  0  0  0
    4.6434    0.4554   -0.6345 N   0  0  0  0  0  0  0  0  0  0  0  0
    6.8863    0.9533   -0.3820 N   0  0  0  0  0  0  0  0  0  0  0  0
   -3.8002    0.3789   -0.6442 C   0  0  1  0  0  0  0  0  0  0  0  0
   -5.1261    0.7531   -1.3320 C   0  0  0  0  0  0  0  0  0  0  0  0
   -5.1419    2.1960   -1.8462 C   0  0  0  0  0  0  0  0  0  0  0  0
   -3.5061    1.1824    0.6053 C   0  0  0  0  0  0  0  0  0  0  0  0
   -2.6723   -1.7873   -0.1336 C   0  0  0  0  0  0  0  0  0  0  0  0
   -6.4248    2.5009   -2.6041 C   0  0  0  0  0  0  0  0  0  0  0  0
   -2.3551    1.9562    0.7052 C   0  0  0  0  0  0  0  0  0  0  0  0
   -4.3755    1.1710    1.6842 C   0  0  0  0  0  0  0  0  0  0  0  0
   -2.8135   -3.1239    0.1796 C   0  0  0  0  0  0  0  0  0  0  0  0
   -0.4065   -1.9638   -0.0869 C   0  0  0  0  0  0  0  0  0  0  0  0
   -2.1121    2.6844    1.8646 C   0  0  0  0  0  0  0  0  0  0  0  0
   -1.6369   -3.8253    0.3466 C   0  0  0  0  0  0  0  0  0  0  0  0
    0.8839   -1.3418   -0.2298 C   0  0  0  0  0  0  0  0  0  0  0  0
   -4.1294   -3.7974    0.3345 C   0  0  0  0  0  0  0  0  0  0  0  0
   -3.0439    2.6058    2.8871 C   0  0  0  0  0  0  0  0  0  0  0  0
    1.0473   -0.2662   -1.1027 C   0  0  0  0  0  0  0  0  0  0  0  0
    1.9713   -1.8158    0.5042 C   0  0  0  0  0  0  0  0  0  0  0  0
    2.2979    0.3359   -1.2414 C   0  0  0  0  0  0  0  0  0  0  0  0
    3.3853   -0.1380   -0.5074 C   0  0  0  0  0  0  0  0  0  0  0  0
    3.2219   -1.2139    0.3653 C   0  0  0  0  0  0  0  0  0  0  0  0
    5.8426    0.1138    0.0207 C   0  0  0  0  0  0  0  0  0  0  0  0
    8.2336    0.8358    0.1263 C   0  0  0  0  0  0  0  0  0  0  0  0
    2.2183    2.6904   -1.5666 C   0  0  0  0  0  0  0  0  0  0  0  0
    8.3706    1.4820    1.4894 C   0  0  0  0  0  0  0  0  0  0  0  0
   -3.0104    0.5609   -1.3863 H   0  0  0  0  0  0  0  0  0  0  0  0
   -5.2873    0.0731   -2.1796 H   0  0  0  0  0  0  0  0  0  0  0  0
   -5.9755    0.5970   -0.6546 H   0  0  0  0  0  0  0  0  0  0  0  0
   -5.0504    2.9002   -1.0120 H   0  0  0  0  0  0  0  0  0  0  0  0
   -4.2862    2.3641   -2.5103 H   0  0  0  0  0  0  0  0  0  0  0  0
   -4.6780   -1.3881    0.0889 H   0  0  0  0  0  0  0  0  0  0  0  0
   -6.4168    3.5352   -2.9619 H   0  0  0  0  0  0  0  0  0  0  0  0
   -7.3006    2.3705   -1.9606 H   0  0  0  0  0  0  0  0  0  0  0  0
   -6.5342    1.8425   -3.4718 H   0  0  0  0  0  0  0  0  0  0  0  0
   -1.6401    2.0016   -0.1115 H   0  0  0  0  0  0  0  0  0  0  0  0
   -5.2896    0.5856    1.6742 H   0  0  0  0  0  0  0  0  0  0  0  0
   -1.2215    3.2940    1.9644 H   0  0  0  0  0  0  0  0  0  0  0  0
   -1.6332   -4.8819    0.5952 H   0  0  0  0  0  0  0  0  0  0  0  0
   -4.0132   -4.8748    0.4962 H   0  0  0  0  0  0  0  0  0  0  0  0
   -4.7392   -3.6734   -0.5667 H   0  0  0  0  0  0  0  0  0  0  0  0
   -4.6691   -3.3944    1.1977 H   0  0  0  0  0  0  0  0  0  0  0  0
   -2.9008    3.1546    3.8121 H   0  0  0  0  0  0  0  0  0  0  0  0
    0.2165    0.1149   -1.6930 H   0  0  0  0  0  0  0  0  0  0  0  0
    1.8731   -2.6458    1.1999 H   0  0  0  0  0  0  0  0  0  0  0  0
    4.0096   -1.6386    0.9704 H   0  0  0  0  0  0  0  0  0  0  0  0
    4.6976    1.2315   -1.2893 H   0  0  0  0  0  0  0  0  0  0  0  0
    6.6891    1.6877   -1.0548 H   0  0  0  0  0  0  0  0  0  0  0  0
    8.9001    1.3202   -0.5939 H   0  0  0  0  0  0  0  0  0  0  0  0
    8.4984   -0.2252    0.1840 H   0  0  0  0  0  0  0  0  0  0  0  0
    1.1826    2.7958   -1.2279 H   0  0  0  0  0  0  0  0  0  0  0  0
    2.9051    2.8940   -0.7391 H   0  0  0  0  0  0  0  0  0  0  0  0
    2.4020    3.4195   -2.3604 H   0  0  0  0  0  0  0  0  0  0  0  0
    8.1004    2.5425    1.4485 H   0  0  0  0  0  0  0  0  0  0  0  0
    7.7186    1.0017    2.2262 H   0  0  0  0  0  0  0  0  0  0  0  0
    9.4023    1.4048    1.8461 H   0  0  0  0  0  0  0  0  0  0  0  0
  1 26  1  0  0  0  0
  1 31  1  0  0  0  0
  2 29  2  0  0  0  0
  3  9  1  0  0  0  0
  3 13  1  0  0  0  0
  3 38  1  0  0  0  0
  4 13  2  0  0  0  0
  4 18  1  0  0  0  0
  5 16  1  0  0  0  0
  5 23  2  0  0  0  0
  6 18  2  0  0  0  0
  6 20  1  0  0  0  0
  7 27  1  0  0  0  0
  7 29  1  0  0  0  0
  7 53  1  0  0  0  0
  8 29  1  0  0  0  0
  8 30  1  0  0  0  0
  8 54  1  0  0  0  0
  9 10  1  0  0  0  0
  9 12  1  0  0  0  0
  9 33  1  0  0  0  0
 10 11  1  0  0  0  0
 10 34  1  0  0  0  0
 10 35  1  0  0  0  0
 11 14  1  0  0  0  0
 11 36  1  0  0  0  0
 11 37  1  0  0  0  0
 12 15  1  0  0  0  0
 12 16  2  0  0  0  0
 13 17  1  0  0  0  0
 14 39  1  0  0  0  0
 14 40  1  0  0  0  0
 14 41  1  0  0  0  0
 15 19  2  0  0  0  0
 15 42  1  0  0  0  0
 16 43  1  0  0  0  0
 17 20  2  0  0  0  0
 17 22  1  0  0  0  0
 18 21  1  0  0  0  0
 19 23  1  0  0  0  0
 19 44  1  0  0  0  0
 20 45  1  0  0  0  0
 21 24  2  0  0  0  0
 21 25  1  0  0  0  0
 22 46  1  0  0  0  0
 22 47  1  0  0  0  0
 22 48  1  0  0  0  0
 23 49  1  0  0  0  0
 24 26  1  0  0  0  0
 24 50  1  0  0  0  0
 25 28  2  0  0  0  0
 25 51  1  0  0  0  0
 26 27  2  0  0  0  0
 27 28  1  0  0  0  0
 28 52  1  0  0  0  0
 30 32  1  0  0  0  0
 30 55  1  0  0  0  0
 30 56  1  0  0  0  0
 31 57  1  0  0  0  0
 31 58  1  0  0  0  0
 31 59  1  0  0  0  0
 32 60  1  0  0  0  0
 32 61  1  0  0  0  0
 32 62  1  0  0  0  0
M  END
> <PUBCHEM_COMPOUND_CID>
11351021

> <PUBCHEM_CONFORMER_RMSD>
1

> <PUBCHEM_CONFORMER_DIVERSEORDER>
1
83
71
76
12
9
58
52
49
69
29
35
48
55
61
41
57
39
8
56
31
75
72
34
20
74
60
23
51
78
45
33
79
18
37
67
3
80
40
70
66
22
25
5
26
73
10
46
68
50
11
77
27
44
63
16
19
54
42
24
84
4
53
65
6
14
64
47
43
59
38
36
81
17
7
2
13
32
15
21
30
28
82
62

> <PUBCHEM_MMFF94_PARTIAL_CHARGES>
38
1 -0.36
12 -0.14
13 0.41
15 -0.15
16 0.16
17 -0.14
18 0.62
19 -0.15
2 -0.57
20 0.16
22 0.14
23 0.16
24 -0.15
25 -0.15
26 0.08
27 0.12
28 -0.15
29 0.69
3 -0.87
30 0.3
31 0.28
38 0.4
4 -0.62
42 0.15
43 0.15
44 0.15
45 0.15
49 0.15
5 -0.62
50 0.15
51 0.15
52 0.15
53 0.37
54 0.37
6 -0.62
7 -0.55
8 -0.73
9 0.51

> <PUBCHEM_EFFECTIVE_ROTOR_COUNT>
11

> <PUBCHEM_PHARMACOPHORE_FEATURES>
12
1 1 acceptor
1 14 hydrophobe
1 2 acceptor
1 3 donor
1 5 acceptor
1 7 donor
1 8 donor
3 3 4 13 cation
3 4 6 18 cation
6 21 24 25 26 27 28 rings
6 4 6 13 17 18 20 rings
6 5 12 15 16 19 23 rings

> <PUBCHEM_HEAVY_ATOM_COUNT>
32

> <PUBCHEM_ATOM_DEF_STEREO_COUNT>
1

> <PUBCHEM_ATOM_UDEF_STEREO_COUNT>
0

> <PUBCHEM_BOND_DEF_STEREO_COUNT>
0

> <PUBCHEM_BOND_UDEF_STEREO_COUNT>
0

> <PUBCHEM_ISOTOPIC_ATOM_COUNT>
0

> <PUBCHEM_COMPONENT_COUNT>
1

> <PUBCHEM_CACTVS_TAUTO_COUNT>
15

> <PUBCHEM_CONFORMER_ID>
00AD33ED00000001

> <PUBCHEM_MMFF94_ENERGY>
98.3147

> <PUBCHEM_FEATURE_SELFOVERLAP>
61.087

> <PUBCHEM_SHAPE_FINGERPRINT>
10291535 26 18131359617454217459
11135609 187 18266455413660107849
11479125 193 17541660513826770949
11582403 64 16734377211307901031
12104220 1 18413387627587810940
13560911 43 18041559243039224345
13782708 43 12324242806617427752
14395042 24 18266196070754921179
14468879 13 17531535278965551165
15021287 119 17168146780105111550
15064981 113 17345181212835205798
15119646 57 16414653570160737683
15685185 35 18343022156222926857
20511986 3 18261662715077119650
20642791 105 18334571391170959959
21033648 29 17096097870216878807
21298829 104 18263640663381552277
23522609 53 16950857985426372134
3633792 109 18193828246364393373
373842 8 17986949855374572824
4616759 239 18191574454081801594
46194498 28 14619354534661499323
563151 74 16515682178709103427
57527293 21 12324544011782820714
6523845 18 17905082203733914183
7226269 152 18343301474587113912

> <PUBCHEM_SHAPE_MULTIPOLES>
616.92
17.67
4.28
2.15
36.31
3.14
-0.63
-11.74
0.16
-6.23
-0.82
-3.3
-2.82
0.16

> <PUBCHEM_SHAPE_SELFOVERLAP>
1303.735

> <PUBCHEM_SHAPE_VOLUME>
342.8

> <PUBCHEM_COORDINATE_TYPE>
2
5
10

$$$$
