11351968
  -OEChem-03292013303D

 65 67  0     1  0  0  0  0  0999 V2000
    2.2989    0.4802   -3.1323 O   0  0  0  0  0  0  0  0  0  0  0  0
   -0.9247    3.2397    2.0624 O   0  0  0  0  0  0  0  0  0  0  0  0
   -3.3444    2.6820    0.8129 O   0  0  0  0  0  0  0  0  0  0  0  0
    2.3887    0.6918   -0.8184 N   0  0  0  0  0  0  0  0  0  0  0  0
    2.5649   -1.0543    0.8231 N   0  0  0  0  0  0  0  0  0  0  0  0
    0.2445   -1.0548    0.2205 N   0  0  0  0  0  0  0  0  0  0  0  0
    0.9379   -1.6385    2.4234 N   0  0  0  0  0  0  0  0  0  0  0  0
   -4.1303   -2.8488   -0.9444 N   0  0  0  0  0  0  0  0  0  0  0  0
    2.7916   -2.0491    4.0546 N   0  0  0  0  0  0  0  0  0  0  0  0
    4.5331   -0.5867   -0.5938 C   0  0  0  0  0  0  0  0  0  0  0  0
    2.9698   -0.6150   -0.5185 C   0  0  2  0  0  0  0  0  0  0  0  0
    5.0917   -2.0004   -0.3239 C   0  0  0  0  0  0  0  0  0  0  0  0
    5.1401    0.3860    0.4363 C   0  0  0  0  0  0  0  0  0  0  0  0
    4.9937   -0.1603   -2.0030 C   0  0  0  0  0  0  0  0  0  0  0  0
    2.1041    1.1239   -2.1033 C   0  0  0  0  0  0  0  0  0  0  0  0
    1.4812    2.5014   -2.1339 C   0  0  0  0  0  0  0  0  0  0  0  0
    1.3077   -1.2058    1.0970 C   0  0  0  0  0  0  0  0  0  0  0  0
    0.1992    2.5501   -1.3469 C   0  0  0  0  0  0  0  0  0  0  0  0
   -1.1427   -1.2025    0.4454 C   0  0  0  0  0  0  0  0  0  0  0  0
    0.2253    2.8752    0.0094 C   0  0  0  0  0  0  0  0  0  0  0  0
   -1.0149    2.2702   -1.9739 C   0  0  0  0  0  0  0  0  0  0  0  0
   -1.9479   -1.9820   -0.4023 C   0  0  0  0  0  0  0  0  0  0  0  0
   -0.9630    2.9208    0.7386 C   0  0  0  0  0  0  0  0  0  0  0  0
   -1.6998   -0.5481    1.5403 C   0  0  0  0  0  0  0  0  0  0  0  0
   -2.2031    2.3154   -1.2445 C   0  0  0  0  0  0  0  0  0  0  0  0
   -3.3304   -2.1097   -0.1525 C   0  0  0  0  0  0  0  0  0  0  0  0
   -2.1771    2.6408    0.1117 C   0  0  0  0  0  0  0  0  0  0  0  0
   -1.4133   -2.6515   -1.5112 C   0  0  0  0  0  0  0  0  0  0  0  0
   -3.0607   -0.6695    1.7923 C   0  0  0  0  0  0  0  0  0  0  0  0
   -3.8610   -1.4445    0.9493 C   0  0  0  0  0  0  0  0  0  0  0  0
    1.9353   -1.8577    3.2952 C   0  0  0  0  0  0  0  0  0  0  0  0
   -2.2349   -3.4137   -2.3291 C   0  0  0  0  0  0  0  0  0  0  0  0
   -3.5747   -3.4791   -2.0046 C   0  0  0  0  0  0  0  0  0  0  0  0
    0.3565    3.5119    2.6267 C   0  0  0  0  0  0  0  0  0  0  0  0
   -4.5413    2.3828    0.0974 C   0  0  0  0  0  0  0  0  0  0  0  0
    2.6053   -1.3328   -1.2659 H   0  0  0  0  0  0  0  0  0  0  0  0
    6.1828   -2.0214   -0.4260 H   0  0  0  0  0  0  0  0  0  0  0  0
    4.6782   -2.7283   -1.0309 H   0  0  0  0  0  0  0  0  0  0  0  0
    4.8546   -2.3438    0.6888 H   0  0  0  0  0  0  0  0  0  0  0  0
    6.2343    0.3942    0.3701 H   0  0  0  0  0  0  0  0  0  0  0  0
    4.7953    1.4126    0.2719 H   0  0  0  0  0  0  0  0  0  0  0  0
    4.8774    0.1040    1.4616 H   0  0  0  0  0  0  0  0  0  0  0  0
    6.0814   -0.2637   -2.1006 H   0  0  0  0  0  0  0  0  0  0  0  0
    4.7674    0.8892   -2.2138 H   0  0  0  0  0  0  0  0  0  0  0  0
    4.5429   -0.7885   -2.7784 H   0  0  0  0  0  0  0  0  0  0  0  0
    2.2718    1.3204   -0.0329 H   0  0  0  0  0  0  0  0  0  0  0  0
    2.2054    3.2248   -1.7397 H   0  0  0  0  0  0  0  0  0  0  0  0
    1.2981    2.7869   -3.1768 H   0  0  0  0  0  0  0  0  0  0  0  0
    0.4679   -0.8757   -0.7538 H   0  0  0  0  0  0  0  0  0  0  0  0
   -0.0093   -1.9453    2.6085 H   0  0  0  0  0  0  0  0  0  0  0  0
    1.1923    3.1064    0.4420 H   0  0  0  0  0  0  0  0  0  0  0  0
   -1.0464    2.0129   -3.0293 H   0  0  0  0  0  0  0  0  0  0  0  0
   -1.1038    0.0826    2.1941 H   0  0  0  0  0  0  0  0  0  0  0  0
   -3.1078    2.0858   -1.7967 H   0  0  0  0  0  0  0  0  0  0  0  0
   -0.3566   -2.6031   -1.7605 H   0  0  0  0  0  0  0  0  0  0  0  0
   -3.5053   -0.1556    2.6396 H   0  0  0  0  0  0  0  0  0  0  0  0
   -4.9248   -1.5211    1.1670 H   0  0  0  0  0  0  0  0  0  0  0  0
   -1.8382   -3.9392   -3.1898 H   0  0  0  0  0  0  0  0  0  0  0  0
   -4.2650   -4.0601   -2.6074 H   0  0  0  0  0  0  0  0  0  0  0  0
    0.1996    3.7400    3.6861 H   0  0  0  0  0  0  0  0  0  0  0  0
    0.8163    4.3981    2.1763 H   0  0  0  0  0  0  0  0  0  0  0  0
    1.0106    2.6340    2.5852 H   0  0  0  0  0  0  0  0  0  0  0  0
   -4.7368    3.1244   -0.6847 H   0  0  0  0  0  0  0  0  0  0  0  0
   -4.5386    1.3603   -0.2936 H   0  0  0  0  0  0  0  0  0  0  0  0
   -5.3686    2.4473    0.8118 H   0  0  0  0  0  0  0  0  0  0  0  0
  1 15  2  0  0  0  0
  2 23  1  0  0  0  0
  2 34  1  0  0  0  0
  3 27  1  0  0  0  0
  3 35  1  0  0  0  0
  4 11  1  0  0  0  0
  4 15  1  0  0  0  0
  4 46  1  0  0  0  0
  5 11  1  0  0  0  0
  5 17  2  0  0  0  0
  6 17  1  0  0  0  0
  6 19  1  0  0  0  0
  6 49  1  0  0  0  0
  7 17  1  0  0  0  0
  7 31  1  0  0  0  0
  7 50  1  0  0  0  0
  8 26  1  0  0  0  0
  8 33  2  0  0  0  0
  9 31  3  0  0  0  0
 10 11  1  0  0  0  0
 10 12  1  0  0  0  0
 10 13  1  0  0  0  0
 10 14  1  0  0  0  0
 11 36  1  0  0  0  0
 12 37  1  0  0  0  0
 12 38  1  0  0  0  0
 12 39  1  0  0  0  0
 13 40  1  0  0  0  0
 13 41  1  0  0  0  0
 13 42  1  0  0  0  0
 14 43  1  0  0  0  0
 14 44  1  0  0  0  0
 14 45  1  0  0  0  0
 15 16  1  0  0  0  0
 16 18  1  0  0  0  0
 16 47  1  0  0  0  0
 16 48  1  0  0  0  0
 18 20  2  0  0  0  0
 18 21  1  0  0  0  0
 19 22  1  0  0  0  0
 19 24  2  0  0  0  0
 20 23  1  0  0  0  0
 20 51  1  0  0  0  0
 21 25  2  0  0  0  0
 21 52  1  0  0  0  0
 22 26  2  0  0  0  0
 22 28  1  0  0  0  0
 23 27  2  0  0  0  0
 24 29  1  0  0  0  0
 24 53  1  0  0  0  0
 25 27  1  0  0  0  0
 25 54  1  0  0  0  0
 26 30  1  0  0  0  0
 28 32  2  0  0  0  0
 28 55  1  0  0  0  0
 29 30  2  0  0  0  0
 29 56  1  0  0  0  0
 30 57  1  0  0  0  0
 32 33  1  0  0  0  0
 32 58  1  0  0  0  0
 33 59  1  0  0  0  0
 34 60  1  0  0  0  0
 34 61  1  0  0  0  0
 34 62  1  0  0  0  0
 35 63  1  0  0  0  0
 35 64  1  0  0  0  0
 35 65  1  0  0  0  0
M  END
> <PUBCHEM_COMPOUND_CID>
11351968

> <PUBCHEM_CONFORMER_RMSD>
1.4

> <PUBCHEM_CONFORMER_DIVERSEORDER>
2
90
189
25
92
147
83
8
44
112
171
201
178
136
33
157
203
75
109
195
7
65
88
86
190
21
170
82
182
154
211
122
106
152
174
177
121
130
167
120
148
1
125
68
78
101
26
95
205
199
164
34
39
19
131
66
47
210
179
81
63
208
41
191
166
105
114
73
183
102
196
3
175
55
45
12
100
72
158
24
91
180
77
108
30
80
111
187
124
139
146
149
202
110
138
56
46
128
143
15
87
43
127
40
144
61
16
188
103
140
51
10
35
71
96
155
168
117
76
132
60
38
161
104
79
113
194
162
197
135
23
36
49
173
165
150
141
94
186
159
57
69
28
67
98
181
58
172
54
129
163
62
200
85
118
185
145
9
142
134
97
13
89
99
123
192
20
207
17
64
204
22
169
14
153
209
93
184
59
5
151
70
198
206
6
176
116
126
156
42
53
27
137
50
29
11
18
193
115
37
4
84
48
52
31
160
133
107
74
32
119

> <PUBCHEM_MMFF94_PARTIAL_CHARGES>
42
1 -0.57
11 0.55
15 0.57
16 0.2
17 0.55
18 -0.14
19 0.1
2 -0.36
20 -0.15
21 -0.15
23 0.08
24 -0.15
25 -0.15
26 0.31
27 0.08
28 -0.15
29 -0.15
3 -0.36
30 -0.15
31 0.62
32 -0.15
33 0.16
34 0.28
35 0.28
4 -0.73
46 0.37
49 0.4
5 -0.7
50 0.4
51 0.15
52 0.15
53 0.15
54 0.15
55 0.15
56 0.15
57 0.15
58 0.15
59 0.15
6 -0.55
7 -0.51
8 -0.62
9 -0.56

> <PUBCHEM_EFFECTIVE_ROTOR_COUNT>
11

> <PUBCHEM_PHARMACOPHORE_FEATURES>
13
1 1 acceptor
1 2 acceptor
1 3 acceptor
1 4 donor
1 6 donor
1 7 donor
1 8 acceptor
1 9 acceptor
4 10 12 13 14 hydrophobe
4 5 6 7 17 cation
6 18 20 21 23 25 27 rings
6 19 22 24 26 29 30 rings
6 8 22 26 28 32 33 rings

> <PUBCHEM_HEAVY_ATOM_COUNT>
35

> <PUBCHEM_ATOM_DEF_STEREO_COUNT>
0

> <PUBCHEM_ATOM_UDEF_STEREO_COUNT>
1

> <PUBCHEM_BOND_DEF_STEREO_COUNT>
1

> <PUBCHEM_BOND_UDEF_STEREO_COUNT>
0

> <PUBCHEM_ISOTOPIC_ATOM_COUNT>
0

> <PUBCHEM_COMPONENT_COUNT>
1

> <PUBCHEM_CACTVS_TAUTO_COUNT>
10

> <PUBCHEM_CONFORMER_ID>
00AD37A000000002

> <PUBCHEM_MMFF94_ENERGY>
136.1749

> <PUBCHEM_FEATURE_SELFOVERLAP>
66.043

> <PUBCHEM_SHAPE_FINGERPRINT>
10006869 2 17607522432343791473
10721379 63 17400607895093408463
11552529 35 18271813380723444340
11578080 2 17917128539027083250
12156800 1 18127380459224694511
12160290 23 18121756366943823059
12355185 1 17622191348152484244
12422481 6 17903962965342466521
12788726 201 18263066769861646059
15297060 5 17771638853794379129
17492 54 18043517340631802373
19026451 147 17909262834078111343
20600515 1 16557373546405282810
35225 105 18123449606091650396
469060 322 16877667846486607908
6438718 38 18120688805888615052
70251023 43 18266454502536216911
7471813 234 18265049305079250646

> <PUBCHEM_SHAPE_MULTIPOLES>
672.79
8.41
5.05
3.3
5.93
1.83
1.81
-4.59
-1.76
-4.74
-0.36
1.9
-0.9
-2.73

> <PUBCHEM_SHAPE_SELFOVERLAP>
1429.533

> <PUBCHEM_SHAPE_VOLUME>
369.6

> <PUBCHEM_COORDINATE_TYPE>
2
5
10

$$$$
