11352366
  -OEChem-03292013303D

 60 64  0     1  0  0  0  0  0999 V2000
    6.3876    1.6958    0.5350 S   0  0  0  0  0  0  0  0  0  0  0  0
   -9.3979   -0.6792    1.4279 F   0  0  0  0  0  0  0  0  0  0  0  0
    3.3923   -1.8703   -1.1752 O   0  0  0  0  0  0  0  0  0  0  0  0
    1.8916    2.8126    0.0240 O   0  0  0  0  0  0  0  0  0  0  0  0
   -3.5193    0.4294   -0.5635 N   0  0  0  0  0  0  0  0  0  0  0  0
   -0.9559   -0.5546    0.2323 N   0  0  0  0  0  0  0  0  0  0  0  0
    0.5304   -1.6226    1.7488 N   0  0  0  0  0  0  0  0  0  0  0  0
    2.7280   -2.2784    1.0087 N   0  0  0  0  0  0  0  0  0  0  0  0
    4.0767    0.8108   -0.1916 N   0  0  0  0  0  0  0  0  0  0  0  0
    4.1772    3.0965    0.5544 N   0  0  0  0  0  0  0  0  0  0  0  0
   -3.3763   -0.9198   -0.0007 C   0  0  0  0  0  0  0  0  0  0  0  0
   -2.3112    0.7957   -1.3140 C   0  0  0  0  0  0  0  0  0  0  0  0
   -4.7007    0.5056   -1.4221 C   0  0  1  0  0  0  0  0  0  0  0  0
   -2.1693   -0.9889    0.9356 C   0  0  0  0  0  0  0  0  0  0  0  0
   -1.0681    0.7542   -0.4201 C   0  0  0  0  0  0  0  0  0  0  0  0
   -5.9670    0.1855   -0.6531 C   0  0  0  0  0  0  0  0  0  0  0  0
   -4.7717    1.8842   -2.0829 C   0  0  0  0  0  0  0  0  0  0  0  0
    0.2659   -1.1304    0.5023 C   0  0  0  0  0  0  0  0  0  0  0  0
   -6.0540    0.5436    0.6796 C   0  0  0  0  0  0  0  0  0  0  0  0
   -7.0049   -0.4563   -1.3035 C   0  0  0  0  0  0  0  0  0  0  0  0
    1.2149   -1.1968   -0.5191 C   0  0  0  0  0  0  0  0  0  0  0  0
   -7.2198    0.2495    1.3868 C   0  0  0  0  0  0  0  0  0  0  0  0
   -8.1707   -0.7503   -0.5963 C   0  0  0  0  0  0  0  0  0  0  0  0
    2.4262   -1.7804   -0.2083 C   0  0  0  0  0  0  0  0  0  0  0  0
   -8.2781   -0.3974    0.7488 C   0  0  0  0  0  0  0  0  0  0  0  0
    1.7486   -2.1682    1.9265 C   0  0  0  0  0  0  0  0  0  0  0  0
    4.6813   -1.5272   -0.8185 C   0  0  0  0  0  0  0  0  0  0  0  0
    4.9753   -0.2341   -0.3507 C   0  0  0  0  0  0  0  0  0  0  0  0
    6.2972    0.0601   -0.0022 C   0  0  0  0  0  0  0  0  0  0  0  0
    5.6865   -2.4847   -0.9295 C   0  0  0  0  0  0  0  0  0  0  0  0
    7.3218   -0.8940   -0.1082 C   0  0  0  0  0  0  0  0  0  0  0  0
    6.9938   -2.1687   -0.5770 C   0  0  0  0  0  0  0  0  0  0  0  0
    4.7073    1.8671    0.2656 C   0  0  0  0  0  0  0  0  0  0  0  0
    2.8349    3.4887    0.4206 C   0  0  0  0  0  0  0  0  0  0  0  0
    2.6273    4.9230    0.8398 C   0  0  0  0  0  0  0  0  0  0  0  0
   -3.2474   -1.6561   -0.8068 H   0  0  0  0  0  0  0  0  0  0  0  0
   -4.2394   -1.2472    0.5853 H   0  0  0  0  0  0  0  0  0  0  0  0
   -2.1666    0.1299   -2.1754 H   0  0  0  0  0  0  0  0  0  0  0  0
   -2.3533    1.8237   -1.6860 H   0  0  0  0  0  0  0  0  0  0  0  0
   -4.6030   -0.2370   -2.2283 H   0  0  0  0  0  0  0  0  0  0  0  0
   -2.0664   -2.0249    1.2821 H   0  0  0  0  0  0  0  0  0  0  0  0
   -2.3265   -0.3599    1.8207 H   0  0  0  0  0  0  0  0  0  0  0  0
   -1.1299    1.5320    0.3523 H   0  0  0  0  0  0  0  0  0  0  0  0
   -0.1929    0.9925   -1.0342 H   0  0  0  0  0  0  0  0  0  0  0  0
   -4.6519    2.6955   -1.3547 H   0  0  0  0  0  0  0  0  0  0  0  0
   -4.0347    2.0093   -2.8828 H   0  0  0  0  0  0  0  0  0  0  0  0
   -5.7505    2.0323   -2.5562 H   0  0  0  0  0  0  0  0  0  0  0  0
   -5.2602    1.0729    1.1982 H   0  0  0  0  0  0  0  0  0  0  0  0
   -6.9318   -0.7330   -2.3511 H   0  0  0  0  0  0  0  0  0  0  0  0
    1.0204   -0.8313   -1.5211 H   0  0  0  0  0  0  0  0  0  0  0  0
   -7.3065    0.5295    2.4325 H   0  0  0  0  0  0  0  0  0  0  0  0
   -8.9952   -1.2534   -1.0928 H   0  0  0  0  0  0  0  0  0  0  0  0
    1.9641   -2.5595    2.9131 H   0  0  0  0  0  0  0  0  0  0  0  0
    5.4546   -3.4829   -1.2912 H   0  0  0  0  0  0  0  0  0  0  0  0
    8.3449   -0.6545    0.1653 H   0  0  0  0  0  0  0  0  0  0  0  0
    7.7722   -2.9220   -0.6664 H   0  0  0  0  0  0  0  0  0  0  0  0
    4.8438    3.7817    0.9013 H   0  0  0  0  0  0  0  0  0  0  0  0
    3.2516    5.5815    0.2292 H   0  0  0  0  0  0  0  0  0  0  0  0
    1.5787    5.2015    0.7035 H   0  0  0  0  0  0  0  0  0  0  0  0
    2.8929    5.0414    1.8940 H   0  0  0  0  0  0  0  0  0  0  0  0
  1 29  1  0  0  0  0
  1 33  1  0  0  0  0
  2 25  1  0  0  0  0
  3 24  1  0  0  0  0
  3 27  1  0  0  0  0
  4 34  2  0  0  0  0
  5 11  1  0  0  0  0
  5 12  1  0  0  0  0
  5 13  1  0  0  0  0
  6 14  1  0  0  0  0
  6 15  1  0  0  0  0
  6 18  1  0  0  0  0
  7 18  1  0  0  0  0
  7 26  2  0  0  0  0
  8 24  2  0  0  0  0
  8 26  1  0  0  0  0
  9 28  1  0  0  0  0
  9 33  2  0  0  0  0
 10 33  1  0  0  0  0
 10 34  1  0  0  0  0
 10 57  1  0  0  0  0
 11 14  1  0  0  0  0
 11 36  1  0  0  0  0
 11 37  1  0  0  0  0
 12 15  1  0  0  0  0
 12 38  1  0  0  0  0
 12 39  1  0  0  0  0
 13 16  1  0  0  0  0
 13 17  1  0  0  0  0
 13 40  1  0  0  0  0
 14 41  1  0  0  0  0
 14 42  1  0  0  0  0
 15 43  1  0  0  0  0
 15 44  1  0  0  0  0
 16 19  2  0  0  0  0
 16 20  1  0  0  0  0
 17 45  1  0  0  0  0
 17 46  1  0  0  0  0
 17 47  1  0  0  0  0
 18 21  2  0  0  0  0
 19 22  1  0  0  0  0
 19 48  1  0  0  0  0
 20 23  2  0  0  0  0
 20 49  1  0  0  0  0
 21 24  1  0  0  0  0
 21 50  1  0  0  0  0
 22 25  2  0  0  0  0
 22 51  1  0  0  0  0
 23 25  1  0  0  0  0
 23 52  1  0  0  0  0
 26 53  1  0  0  0  0
 27 28  2  0  0  0  0
 27 30  1  0  0  0  0
 28 29  1  0  0  0  0
 29 31  2  0  0  0  0
 30 32  2  0  0  0  0
 30 54  1  0  0  0  0
 31 32  1  0  0  0  0
 31 55  1  0  0  0  0
 32 56  1  0  0  0  0
 34 35  1  0  0  0  0
 35 58  1  0  0  0  0
 35 59  1  0  0  0  0
 35 60  1  0  0  0  0
M  END
> <PUBCHEM_COMPOUND_CID>
11352366

> <PUBCHEM_CONFORMER_RMSD>
1.2

> <PUBCHEM_CONFORMER_DIVERSEORDER>
1
252
12
250
180
176
148
231
177
274
209
93
45
127
15
198
34
155
147
243
262
197
232
79
220
159
139
112
135
275
217
117
87
191
225
173
116
119
266
114
94
118
84
276
226
39
121
27
222
80
251
142
36
164
224
168
143
210
78
42
145
182
212
67
3
213
179
150
187
279
30
14
51
269
125
254
267
215
140
106
170
90
233
257
223
111
221
77
255
149
89
249
68
49
96
73
186
261
272
185
258
236
54
81
108
278
218
62
38
260
152
6
240
5
234
264
103
207
74
131
95
20
41
247
98
59
190
86
141
43
211
88
76
100
171
71
47
241
56
61
203
263
146
166
16
195
92
33
50
178
193
123
144
194
99
235
85
244
82
172
229
200
132
169
105
175
65
48
31
151
35
60
242
246
199
167
165
40
248
201
104
162
69
158
23
57
22
202
183
239
137
63
245
136
277
228
126
273
72
107
161
270
133
13
163
128
55
227
9
268
256
216
120
97
53
129
10
124
156
110
101
70
18
153
130
25
265
24
154
204
219
237
138
205
160
37
271
64
230
115
174
206
83
11
75
134
188
192
208
122
196
113
7
66
238
58
8
91
17
253
189
259
2
26
157
181
4
184
214
46
32
19
109
52
44
102
21
28
29

> <PUBCHEM_MMFF94_PARTIAL_CHARGES>
44
1 -0.08
10 -0.49
11 0.27
12 0.27
13 0.41
14 0.37
15 0.37
16 -0.14
18 0.41
19 -0.15
2 -0.19
20 -0.15
21 -0.15
22 -0.15
23 -0.15
24 0.39
25 0.19
26 0.47
27 0.08
28 0.23
29 0.04
3 -0.17
30 -0.15
31 -0.15
32 -0.15
33 0.44
34 0.57
35 0.06
4 -0.57
48 0.15
49 0.15
5 -0.81
50 0.15
51 0.15
52 0.15
53 0.15
54 0.15
55 0.15
56 0.15
57 0.37
6 -0.84
7 -0.62
8 -0.62
9 -0.57

> <PUBCHEM_EFFECTIVE_ROTOR_COUNT>
8.2

> <PUBCHEM_PHARMACOPHORE_FEATURES>
10
1 10 donor
1 4 acceptor
1 5 cation
1 6 cation
3 7 8 26 cation
5 1 9 28 29 33 rings
6 16 19 20 22 23 25 rings
6 27 28 29 30 31 32 rings
6 5 6 11 12 14 15 rings
6 7 8 18 21 24 26 rings

> <PUBCHEM_HEAVY_ATOM_COUNT>
35

> <PUBCHEM_ATOM_DEF_STEREO_COUNT>
1

> <PUBCHEM_ATOM_UDEF_STEREO_COUNT>
0

> <PUBCHEM_BOND_DEF_STEREO_COUNT>
0

> <PUBCHEM_BOND_UDEF_STEREO_COUNT>
0

> <PUBCHEM_ISOTOPIC_ATOM_COUNT>
0

> <PUBCHEM_COMPONENT_COUNT>
1

> <PUBCHEM_CACTVS_TAUTO_COUNT>
3

> <PUBCHEM_CONFORMER_ID>
00AD392E00000001

> <PUBCHEM_MMFF94_ENERGY>
107.821

> <PUBCHEM_FEATURE_SELFOVERLAP>
50.822

> <PUBCHEM_SHAPE_FINGERPRINT>
10299344 5 17561081393649284695
10675989 125 18198902698649178000
11136131 41 16443620191453343859
11456790 92 18333725793741013696
11497681 19 18198333152300599663
11719270 70 15936410018065691979
11828042 279 17825089649068604589
11828532 37 18187091680175932874
12107698 1 18272933795392891564
12717326 120 16299809744433802267
13165053 68 17983850357675551103
13402501 40 18334007303314949484
13617811 41 14476967791322063291
13692114 37 17530970210591446810
14118638 360 17241042098998438267
14461889 52 17022626373140527523
14681490 219 18412822456777698680
14725015 67 18335690621568455808
14849402 71 18340773723083307081
14856354 85 17203604913889490591
150020 25 18186799167512865431
15328829 1 17346887740933807905
15351339 4 18043241358865230224
15419008 47 18113616763767621741
15721738 202 18130505258058988577
17852330 31 18264791994727842459
18335252 114 18412820287739313652
18608769 82 17822296807845505315
20157964 124 18343301462314577134
20554085 129 16950275213265254651
21792938 703 18263078994072287007
221357 26 18410572852076709228
23522609 53 17202782461489779561
24771750 20 18190753109820855204
24893992 56 17967813868508846426
249057 3 18343584045034355558
2747138 104 17894358783050586561
3383291 50 17603592941527582211
34797466 226 18342739602496930558
404807 78 16950857971628970242
4093350 32 17918277549456444086
437795 51 18260828211252246985
4403749 210 8789439319535355494
44317340 157 18272368719398925738
4625314 4 18411696613390655327
4760202 170 18341320129624655093
5109719 28 18334292110426815025
58902169 19 17989484134495394287

> <PUBCHEM_SHAPE_MULTIPOLES>
675.23
25.07
3.6
1.45
35.99
4.67
-0.06
-4.19
0.09
-7.98
-0.78
1.82
-0.24
2.21

> <PUBCHEM_SHAPE_SELFOVERLAP>
1460.45

> <PUBCHEM_SHAPE_VOLUME>
374.4

> <PUBCHEM_COORDINATE_TYPE>
2
5
10

$$$$
