11362869
  -OEChem-03292013303D

 57 60  0     1  0  0  0  0  0999 V2000
    1.9536    2.2489    1.6603 O   0  0  0  0  0  0  0  0  0  0  0  0
   -1.1739    3.7011   -0.0748 O   0  0  0  0  0  0  0  0  0  0  0  0
   -3.0712   -2.0042   -1.2050 O   0  0  0  0  0  0  0  0  0  0  0  0
    4.9635    0.0333    1.5583 O   0  5  0  0  0  0  0  0  0  0  0  0
    3.6475    0.8576    3.1214 O   0  0  0  0  0  0  0  0  0  0  0  0
    1.3262    1.2670   -0.3473 N   0  0  0  0  0  0  0  0  0  0  0  0
   -1.2759   -1.7492    0.1483 N   0  0  0  0  0  0  0  0  0  0  0  0
   -1.4694    1.3925   -0.3592 N   0  0  0  0  0  0  0  0  0  0  0  0
    3.8500    0.3086    2.0285 N   0  3  0  0  0  0  0  0  0  0  0  0
    0.6647    2.4344   -0.9195 C   0  0  1  0  0  0  0  0  0  0  0  0
    0.6313    2.3475   -2.4396 C   0  0  0  0  0  0  0  0  0  0  0  0
    2.0271    2.2758   -3.0820 C   0  0  0  0  0  0  0  0  0  0  0  0
    1.8096   -1.0045    2.0194 C   0  0  0  0  0  0  0  0  0  0  0  0
    2.6624   -0.0258    1.2091 C   0  0  1  0  0  0  0  0  0  0  0  0
    0.7056   -1.5857    1.1971 C   0  0  0  0  0  0  0  0  0  0  0  0
    0.7942   -2.6358    0.2389 C   0  0  0  0  0  0  0  0  0  0  0  0
   -0.4583   -2.7494   -0.3810 C   0  0  0  0  0  0  0  0  0  0  0  0
    1.9573    1.2884    0.8924 C   0  0  0  0  0  0  0  0  0  0  0  0
   -0.6070   -1.1736    1.2088 C   0  0  0  0  0  0  0  0  0  0  0  0
   -0.7527    2.5824   -0.3631 C   0  0  0  0  0  0  0  0  0  0  0  0
    2.9050    3.4695   -2.7037 C   0  0  0  0  0  0  0  0  0  0  0  0
    2.7201    0.9739   -2.6728 C   0  0  0  0  0  0  0  0  0  0  0  0
   -2.5438   -1.3414   -0.3177 C   0  0  0  0  0  0  0  0  0  0  0  0
    1.8449   -3.4859   -0.1709 C   0  0  0  0  0  0  0  0  0  0  0  0
   -3.2873   -0.1600    0.1833 C   0  0  0  0  0  0  0  0  0  0  0  0
   -2.7686    1.1544    0.1665 C   0  0  0  0  0  0  0  0  0  0  0  0
   -0.6835   -3.7106   -1.3846 C   0  0  0  0  0  0  0  0  0  0  0  0
    1.6180   -4.4413   -1.1634 C   0  0  0  0  0  0  0  0  0  0  0  0
    0.3681   -4.5530   -1.7579 C   0  0  0  0  0  0  0  0  0  0  0  0
   -4.5762   -0.4215    0.6717 C   0  0  0  0  0  0  0  0  0  0  0  0
   -3.5723    2.1794    0.6849 C   0  0  0  0  0  0  0  0  0  0  0  0
   -5.3558    0.6154    1.1719 C   0  0  0  0  0  0  0  0  0  0  0  0
   -4.8530    1.9115    1.1816 C   0  0  0  0  0  0  0  0  0  0  0  0
    1.2143    3.3231   -0.5883 H   0  0  0  0  0  0  0  0  0  0  0  0
    0.0446    1.4769   -2.7625 H   0  0  0  0  0  0  0  0  0  0  0  0
    0.1045    3.2251   -2.8372 H   0  0  0  0  0  0  0  0  0  0  0  0
    1.8909    2.2711   -4.1707 H   0  0  0  0  0  0  0  0  0  0  0  0
    1.3744   -0.5060    2.8965 H   0  0  0  0  0  0  0  0  0  0  0  0
    2.4283   -1.8242    2.4085 H   0  0  0  0  0  0  0  0  0  0  0  0
    3.0325   -0.4859    0.2848 H   0  0  0  0  0  0  0  0  0  0  0  0
    1.1898    0.3685   -0.7994 H   0  0  0  0  0  0  0  0  0  0  0  0
   -1.0821   -0.4262    1.8297 H   0  0  0  0  0  0  0  0  0  0  0  0
    3.1890    3.4646   -1.6469 H   0  0  0  0  0  0  0  0  0  0  0  0
    2.3919    4.4127   -2.9182 H   0  0  0  0  0  0  0  0  0  0  0  0
    3.8318    3.4553   -3.2879 H   0  0  0  0  0  0  0  0  0  0  0  0
    3.2485    1.0333   -1.7187 H   0  0  0  0  0  0  0  0  0  0  0  0
    3.5066    0.7593   -3.4086 H   0  0  0  0  0  0  0  0  0  0  0  0
    2.0468    0.1115   -2.6994 H   0  0  0  0  0  0  0  0  0  0  0  0
    2.8282   -3.4077    0.2852 H   0  0  0  0  0  0  0  0  0  0  0  0
   -0.9943    0.5855   -0.7502 H   0  0  0  0  0  0  0  0  0  0  0  0
   -1.6443   -3.8144   -1.8763 H   0  0  0  0  0  0  0  0  0  0  0  0
    2.4256   -5.0991   -1.4721 H   0  0  0  0  0  0  0  0  0  0  0  0
    0.2052   -5.2997   -2.5307 H   0  0  0  0  0  0  0  0  0  0  0  0
   -4.9768   -1.4323    0.6774 H   0  0  0  0  0  0  0  0  0  0  0  0
   -3.2482    3.2129    0.7168 H   0  0  0  0  0  0  0  0  0  0  0  0
   -6.3511    0.4136    1.5560 H   0  0  0  0  0  0  0  0  0  0  0  0
   -5.4590    2.7235    1.5743 H   0  0  0  0  0  0  0  0  0  0  0  0
  1 18  2  0  0  0  0
  2 20  2  0  0  0  0
  3 23  2  0  0  0  0
  4  9  1  0  0  0  0
  5  9  2  0  0  0  0
  6 10  1  0  0  0  0
  6 18  1  0  0  0  0
  6 41  1  0  0  0  0
  7 17  1  0  0  0  0
  7 19  1  0  0  0  0
  7 23  1  0  0  0  0
  8 20  1  0  0  0  0
  8 26  1  0  0  0  0
  8 50  1  0  0  0  0
  9 14  1  0  0  0  0
 10 11  1  0  0  0  0
 10 20  1  0  0  0  0
 10 34  1  0  0  0  0
 11 12  1  0  0  0  0
 11 35  1  0  0  0  0
 11 36  1  0  0  0  0
 12 21  1  0  0  0  0
 12 22  1  0  0  0  0
 12 37  1  0  0  0  0
 13 14  1  0  0  0  0
 13 15  1  0  0  0  0
 13 38  1  0  0  0  0
 13 39  1  0  0  0  0
 14 18  1  0  0  0  0
 14 40  1  0  0  0  0
 15 16  1  0  0  0  0
 15 19  2  0  0  0  0
 16 17  1  0  0  0  0
 16 24  2  0  0  0  0
 17 27  2  0  0  0  0
 19 42  1  0  0  0  0
 21 43  1  0  0  0  0
 21 44  1  0  0  0  0
 21 45  1  0  0  0  0
 22 46  1  0  0  0  0
 22 47  1  0  0  0  0
 22 48  1  0  0  0  0
 23 25  1  0  0  0  0
 24 28  1  0  0  0  0
 24 49  1  0  0  0  0
 25 26  1  0  0  0  0
 25 30  2  0  0  0  0
 26 31  2  0  0  0  0
 27 29  1  0  0  0  0
 27 51  1  0  0  0  0
 28 29  2  0  0  0  0
 28 52  1  0  0  0  0
 29 53  1  0  0  0  0
 30 32  1  0  0  0  0
 30 54  1  0  0  0  0
 31 33  1  0  0  0  0
 31 55  1  0  0  0  0
 32 33  2  0  0  0  0
 32 56  1  0  0  0  0
 33 57  1  0  0  0  0
M  CHG  2   4  -1   9   1
M  END
> <PUBCHEM_COMPOUND_CID>
11362869

> <PUBCHEM_CONFORMER_RMSD>
0.8

> <PUBCHEM_CONFORMER_DIVERSEORDER>
1
6
2
5
3
4
7

> <PUBCHEM_MMFF94_PARTIAL_CHARGES>
39
1 -0.57
10 0.36
13 0.18
14 0.3
15 -0.18
17 -0.15
18 0.57
19 -0.3
2 -0.57
20 0.57
23 0.49
24 -0.15
25 0.09
26 0.12
27 -0.15
28 -0.15
29 -0.15
3 -0.57
30 -0.15
31 -0.15
32 -0.15
33 -0.15
4 -0.52
41 0.37
42 0.15
49 0.15
5 -0.52
50 0.37
51 0.15
52 0.15
53 0.15
54 0.15
55 0.15
56 0.15
57 0.15
6 -0.73
7 0.29
8 -0.55
9 0.8

> <PUBCHEM_EFFECTIVE_ROTOR_COUNT>
4

> <PUBCHEM_PHARMACOPHORE_FEATURES>
12
1 1 acceptor
1 2 acceptor
1 3 acceptor
1 4 acceptor
1 4 anion
1 5 acceptor
1 6 donor
1 8 donor
3 12 21 22 hydrophobe
5 7 15 16 17 19 rings
6 16 17 24 27 28 29 rings
6 25 26 30 31 32 33 rings

> <PUBCHEM_HEAVY_ATOM_COUNT>
33

> <PUBCHEM_ATOM_DEF_STEREO_COUNT>
2

> <PUBCHEM_ATOM_UDEF_STEREO_COUNT>
0

> <PUBCHEM_BOND_DEF_STEREO_COUNT>
0

> <PUBCHEM_BOND_UDEF_STEREO_COUNT>
0

> <PUBCHEM_ISOTOPIC_ATOM_COUNT>
0

> <PUBCHEM_COMPONENT_COUNT>
1

> <PUBCHEM_CACTVS_TAUTO_COUNT>
12

> <PUBCHEM_CONFORMER_ID>
00AD623500000001

> <PUBCHEM_MMFF94_ENERGY>
99.8292

> <PUBCHEM_FEATURE_SELFOVERLAP>
61.077

> <PUBCHEM_SHAPE_FINGERPRINT>
11513181 2 18059844065564320798
12156800 1 17914337024558132006
12422481 6 18120916335870678570
12788726 201 17545892980246021407
13383668 90 17488459853446536582
13965767 371 18268407080172426499
14415360 78 16391260073391130480
14659021 117 17549840222415182597
14840074 17 18113332029290352392
14863182 85 18339931423992415153
15297060 5 18270983317842450176
15463212 79 17102013521879409429
15840311 113 17552910738688246929
19319366 153 17029671158339302889
1979834 28 18340772551031190569
22149856 69 18200610138108262659
22182313 1 17973716979261594405
23559900 14 18120668929112323773
445580 8 18333734619439636613
469060 322 17460842242638312864
513532 50 17703796856151766301
5265222 85 18341337769001767008
581034 39 18413670214369590226
6287921 2 18267869371736190315
9925002 15 17834370686157346826

> <PUBCHEM_SHAPE_MULTIPOLES>
629.85
7.4
5.74
2.71
7.82
3.68
-0.17
-3.27
3.58
-3.16
-4.41
-3.97
-1.49
-1.28

> <PUBCHEM_SHAPE_SELFOVERLAP>
1370.133

> <PUBCHEM_SHAPE_VOLUME>
341.2

> <PUBCHEM_COORDINATE_TYPE>
2
5
10

$$$$
