11362770
  -OEChem-03292013303D

 41 43  0     0  0  0  0  0  0999 V2000
    7.8358    3.3348    1.1256 Br  0  0  0  0  0  0  0  0  0  0  0  0
    4.9076   -2.0036   -0.6526 S   0  0  0  0  0  0  0  0  0  0  0  0
   -4.4802   -1.2986    1.4087 O   0  0  0  0  0  0  0  0  0  0  0  0
   -1.7622   -1.7609    1.0446 O   0  0  0  0  0  0  0  0  0  0  0  0
   -0.8102   -0.3018   -0.5311 N   0  0  0  0  0  0  0  0  0  0  0  0
   -3.0495   -0.1481   -0.0244 N   0  0  0  0  0  0  0  0  0  0  0  0
   -7.0236   -1.3402    0.5145 N   0  0  0  0  0  0  0  0  0  0  0  0
    5.4055   -0.0148    1.0573 N   0  0  0  0  0  0  0  0  0  0  0  0
    6.6076    0.0216   -1.0308 N   0  0  0  0  0  0  0  0  0  0  0  0
    0.5452   -0.7055   -0.5599 C   0  0  0  0  0  0  0  0  0  0  0  0
   -5.4049    0.4536    0.1573 C   0  0  0  0  0  0  0  0  0  0  0  0
   -6.7194   -0.0127    0.1388 C   0  0  0  0  0  0  0  0  0  0  0  0
    1.4298   -0.0501   -1.4006 C   0  0  0  0  0  0  0  0  0  0  0  0
    0.9602   -1.7475    0.2533 C   0  0  0  0  0  0  0  0  0  0  0  0
    3.2001   -1.4953   -0.6163 C   0  0  0  0  0  0  0  0  0  0  0  0
   -4.3008   -0.4070    0.5633 C   0  0  0  0  0  0  0  0  0  0  0  0
    2.7665   -0.4478   -1.4291 C   0  0  0  0  0  0  0  0  0  0  0  0
    2.2969   -2.1452    0.2249 C   0  0  0  0  0  0  0  0  0  0  0  0
   -5.1257    1.7679   -0.2179 C   0  0  0  0  0  0  0  0  0  0  0  0
   -7.7547    0.8354   -0.2547 C   0  0  0  0  0  0  0  0  0  0  0  0
   -1.8469   -0.8339    0.2431 C   0  0  0  0  0  0  0  0  0  0  0  0
   -6.1611    2.6157   -0.6115 C   0  0  0  0  0  0  0  0  0  0  0  0
   -7.4755    2.1495   -0.6299 C   0  0  0  0  0  0  0  0  0  0  0  0
    5.7311   -0.4981   -0.1541 C   0  0  0  0  0  0  0  0  0  0  0  0
    6.0470    1.1204    1.4038 C   0  0  0  0  0  0  0  0  0  0  0  0
    7.2122    1.1557   -0.6203 C   0  0  0  0  0  0  0  0  0  0  0  0
    6.9691    1.7564    0.5980 C   0  0  0  0  0  0  0  0  0  0  0  0
    1.1022    0.7662   -2.0383 H   0  0  0  0  0  0  0  0  0  0  0  0
    0.3241   -2.2985    0.9299 H   0  0  0  0  0  0  0  0  0  0  0  0
   -1.0495    0.4690   -1.1496 H   0  0  0  0  0  0  0  0  0  0  0  0
    3.4514    0.0698   -2.0963 H   0  0  0  0  0  0  0  0  0  0  0  0
    2.6178   -2.9633    0.8655 H   0  0  0  0  0  0  0  0  0  0  0  0
   -4.1228    2.1839   -0.1853 H   0  0  0  0  0  0  0  0  0  0  0  0
   -8.7837    0.4853   -0.2733 H   0  0  0  0  0  0  0  0  0  0  0  0
   -2.9904    0.5675   -0.7421 H   0  0  0  0  0  0  0  0  0  0  0  0
   -5.9454    3.6415   -0.8960 H   0  0  0  0  0  0  0  0  0  0  0  0
   -8.2817    2.8104   -0.9346 H   0  0  0  0  0  0  0  0  0  0  0  0
   -6.2931   -1.9838    0.7847 H   0  0  0  0  0  0  0  0  0  0  0  0
   -7.9832   -1.6596    0.4911 H   0  0  0  0  0  0  0  0  0  0  0  0
    5.7814    1.5080    2.3824 H   0  0  0  0  0  0  0  0  0  0  0  0
    7.9193    1.5727   -1.3306 H   0  0  0  0  0  0  0  0  0  0  0  0
  1 27  1  0  0  0  0
  2 15  1  0  0  0  0
  2 24  1  0  0  0  0
  3 16  2  0  0  0  0
  4 21  2  0  0  0  0
  5 10  1  0  0  0  0
  5 21  1  0  0  0  0
  5 30  1  0  0  0  0
  6 16  1  0  0  0  0
  6 21  1  0  0  0  0
  6 35  1  0  0  0  0
  7 12  1  0  0  0  0
  7 38  1  0  0  0  0
  7 39  1  0  0  0  0
  8 24  1  0  0  0  0
  8 25  2  0  0  0  0
  9 24  2  0  0  0  0
  9 26  1  0  0  0  0
 10 13  2  0  0  0  0
 10 14  1  0  0  0  0
 11 12  1  0  0  0  0
 11 16  1  0  0  0  0
 11 19  2  0  0  0  0
 12 20  2  0  0  0  0
 13 17  1  0  0  0  0
 13 28  1  0  0  0  0
 14 18  2  0  0  0  0
 14 29  1  0  0  0  0
 15 17  2  0  0  0  0
 15 18  1  0  0  0  0
 17 31  1  0  0  0  0
 18 32  1  0  0  0  0
 19 22  1  0  0  0  0
 19 33  1  0  0  0  0
 20 23  1  0  0  0  0
 20 34  1  0  0  0  0
 22 23  2  0  0  0  0
 22 36  1  0  0  0  0
 23 37  1  0  0  0  0
 25 27  1  0  0  0  0
 25 40  1  0  0  0  0
 26 27  2  0  0  0  0
 26 41  1  0  0  0  0
M  END
> <PUBCHEM_COMPOUND_CID>
11362770

> <PUBCHEM_CONFORMER_RMSD>
0.8

> <PUBCHEM_CONFORMER_DIVERSEORDER>
3
52
63
74
42
67
12
6
77
36
68
23
78
24
49
20
61
73
45
60
66
14
70
15
75
43
55
21
10
39
69
72
54
46
56
30
62
32
13
65
64
11
48
58
4
22
31
57
71
44
51
59
5
76
9
50
29
34
35
37
38
2
1
18
47
7
17
27
26
40
19
16
41
25
33
28
53
8
79

> <PUBCHEM_MMFF94_PARTIAL_CHARGES>
41
1 -0.11
10 0.12
11 0.09
12 0.1
13 -0.15
14 -0.15
15 0.1
16 0.54
17 -0.15
18 -0.15
19 -0.15
2 -0.2
20 -0.15
21 0.69
22 -0.15
23 -0.15
24 0.72
25 0.16
26 0.16
27 0.11
28 0.15
29 0.15
3 -0.57
30 0.37
31 0.15
32 0.15
33 0.15
34 0.15
35 0.37
36 0.15
37 0.15
38 0.4
39 0.4
4 -0.57
40 0.15
41 0.15
5 -0.55
6 -0.49
7 -0.9
8 -0.62
9 -0.62

> <PUBCHEM_EFFECTIVE_ROTOR_COUNT>
7

> <PUBCHEM_PHARMACOPHORE_FEATURES>
12
1 1 hydrophobe
1 3 acceptor
1 4 acceptor
1 5 donor
1 6 donor
1 7 cation
1 7 donor
1 8 acceptor
3 8 9 24 cation
6 10 13 14 15 17 18 rings
6 11 12 19 20 22 23 rings
6 8 9 24 25 26 27 rings

> <PUBCHEM_HEAVY_ATOM_COUNT>
27

> <PUBCHEM_ATOM_DEF_STEREO_COUNT>
0

> <PUBCHEM_ATOM_UDEF_STEREO_COUNT>
0

> <PUBCHEM_BOND_DEF_STEREO_COUNT>
0

> <PUBCHEM_BOND_UDEF_STEREO_COUNT>
0

> <PUBCHEM_ISOTOPIC_ATOM_COUNT>
0

> <PUBCHEM_COMPONENT_COUNT>
1

> <PUBCHEM_CACTVS_TAUTO_COUNT>
8

> <PUBCHEM_CONFORMER_ID>
00AD61D200000003

> <PUBCHEM_MMFF94_ENERGY>
90.5527

> <PUBCHEM_FEATURE_SELFOVERLAP>
60.95

> <PUBCHEM_SHAPE_FINGERPRINT>
10 15 18333168383994495842
10299344 5 12751236995764446855
10533779 1 17416671653091859144
10554248 39 17059779910282583574
10638233 991 16559031588454440162
10835480 77 18411700967437531681
11315181 36 18130790032899761153
11386260 185 17775294842338111836
11409948 41 15984562010173159700
11476731 118 18343863312118892648
11761917 142 18043808684911389013
11991303 11 16558457669159651349
125118 31 18409450245787621556
12522641 24 18115300082786070938
12539765 74 17703516480618216087
12838862 33 17458617879898855181
13685833 64 7853574612923000990
13782708 43 8214137452044508680
14028597 1 15936403403657962152
14251757 52 18409725180098891976
14251764 18 17313108557458332351
14347424 109 18260823753614764506
14444916 359 11312055474678095901
14556957 393 16415491445023461993
14565420 104 18260543421073091426
14598715 104 18334285449270187885
14767858 380 15195567892100037726
15131766 46 17987221409066044964
15183329 4 16371015083067520079
15289351 153 18272369733913229472
15419008 91 18261665991995053981
15461852 350 18272089418366822311
15840311 113 18413672413925823732
17134984 74 10303824181585904004
17686467 74 18336546123203133635
18335252 114 17346882248282545984
20105231 36 12103845687839553237
20511986 3 18187359892430841915
20771845 171 16630252424732929126
21033648 29 18334571369954228914
21130935 74 18113618945816937707
21150785 3 16702300144308577399
21344244 181 9871746910494840612
21424621 283 18260267425830922619
21792934 111 18113892716133242126
22224240 67 18113898286373833994
23035841 295 10375865269451908047
23081809 10 15554173566687111975
23569943 247 9510370423804297876
24771293 8 18187364350110646708
34797466 226 17632304462666994294
4073 2 17895204302417300715
4169191 19 18202005446983613368
4258327 124 17489585709654847117
437795 160 17822577200896594179
4403749 210 18270961374533307423
444735 82 18408608080495857132
44880568 143 17774166674214153005
465052 167 11241969274865287922
504579 68 15626220208552601828
5080951 261 17096078216853520083
5109719 28 18410582815989561376
636775 72 18409446952376517177

> <PUBCHEM_SHAPE_MULTIPOLES>
528.8
27.71
2.82
1.19
9.06
1.76
-0.01
21.19
-1.89
-3.09
-0.39
-0.88
0.03
3.48

> <PUBCHEM_SHAPE_SELFOVERLAP>
1115.819

> <PUBCHEM_SHAPE_VOLUME>
302.2

> <PUBCHEM_COORDINATE_TYPE>
2
5
10

$$$$
