113639
  -OEChem-03292013323D

 24 24  0     0  0  0  0  0  0999 V2000
    1.3288   -0.5321    1.1203 O   0  0  0  0  0  0  0  0  0  0  0  0
    5.3358    0.8750   -0.2134 O   0  0  0  0  0  0  0  0  0  0  0  0
   -4.7702    0.1861    0.6938 O   0  5  0  0  0  0  0  0  0  0  0  0
   -3.9599   -1.6525   -0.1974 O   0  0  0  0  0  0  0  0  0  0  0  0
   -0.6317    0.4745   -0.5656 N   0  0  0  0  0  0  0  0  0  0  0  0
    2.9114   -0.5669   -0.5795 N   0  0  0  0  0  0  0  0  0  0  0  0
   -1.5657   -0.4750   -0.5821 N   0  0  0  0  0  0  0  0  0  0  0  0
   -2.3300    1.4776    0.3323 N   0  0  0  0  0  0  0  0  0  0  0  0
   -3.8133   -0.4491    0.1637 N   0  3  0  0  0  0  0  0  0  0  0  0
    0.7008    0.2037   -1.0962 C   0  0  0  0  0  0  0  0  0  0  0  0
    4.0096   -1.0837    0.2040 C   0  0  0  0  0  0  0  0  0  0  0  0
    1.6516   -0.3331   -0.0477 C   0  0  0  0  0  0  0  0  0  0  0  0
    4.7931    0.0628    0.8201 C   0  0  0  0  0  0  0  0  0  0  0  0
   -1.0765    1.6284   -0.0278 C   0  0  0  0  0  0  0  0  0  0  0  0
   -2.5837    0.1841   -0.0245 C   0  0  0  0  0  0  0  0  0  0  0  0
    0.5944   -0.5188   -1.9126 H   0  0  0  0  0  0  0  0  0  0  0  0
    1.0895    1.1441   -1.5017 H   0  0  0  0  0  0  0  0  0  0  0  0
    4.6412   -1.6588   -0.4806 H   0  0  0  0  0  0  0  0  0  0  0  0
    3.6252   -1.7492    0.9831 H   0  0  0  0  0  0  0  0  0  0  0  0
    3.0809   -0.3669   -1.5612 H   0  0  0  0  0  0  0  0  0  0  0  0
    5.6228   -0.3217    1.4204 H   0  0  0  0  0  0  0  0  0  0  0  0
    4.1643    0.6902    1.4602 H   0  0  0  0  0  0  0  0  0  0  0  0
   -0.4785    2.5222    0.0810 H   0  0  0  0  0  0  0  0  0  0  0  0
    4.5907    1.2185   -0.7354 H   0  0  0  0  0  0  0  0  0  0  0  0
  1 12  2  0  0  0  0
  2 13  1  0  0  0  0
  2 24  1  0  0  0  0
  3  9  1  0  0  0  0
  4  9  2  0  0  0  0
  5  7  1  0  0  0  0
  5 10  1  0  0  0  0
  5 14  1  0  0  0  0
  6 11  1  0  0  0  0
  6 12  1  0  0  0  0
  6 20  1  0  0  0  0
  7 15  2  0  0  0  0
  8 14  2  0  0  0  0
  8 15  1  0  0  0  0
  9 15  1  0  0  0  0
 10 12  1  0  0  0  0
 10 16  1  0  0  0  0
 10 17  1  0  0  0  0
 11 13  1  0  0  0  0
 11 18  1  0  0  0  0
 11 19  1  0  0  0  0
 13 21  1  0  0  0  0
 13 22  1  0  0  0  0
 14 23  1  0  0  0  0
M  CHG  2   3  -1   9   1
M  END
> <PUBCHEM_COMPOUND_CID>
113639

> <PUBCHEM_CONFORMER_RMSD>
0.8

> <PUBCHEM_CONFORMER_DIVERSEORDER>
1
3
55
35
58
21
32
27
12
54
57
38
41
44
15
17
16
47
43
53
14
29
36
56
48
7
11
50
51
20
39
33
13
6
42
40
22
37
34
28
8
23
49
26
9
24
19
31
45
10
30
25
18
46
4
52
5
2

> <PUBCHEM_MMFF94_PARTIAL_CHARGES>
18
1 -0.57
10 0.32
11 0.3
12 0.57
13 0.28
14 0.04
15 0.6
2 -0.68
20 0.37
23 0.15
24 0.4
3 -0.52
4 -0.52
5 0.31
6 -0.73
7 -0.71
8 -0.57
9 0.96

> <PUBCHEM_EFFECTIVE_ROTOR_COUNT>
6

> <PUBCHEM_PHARMACOPHORE_FEATURES>
8
1 1 acceptor
1 2 acceptor
1 2 donor
1 3 acceptor
1 4 acceptor
1 6 donor
4 7 8 9 15 cation
5 5 7 8 14 15 rings

> <PUBCHEM_HEAVY_ATOM_COUNT>
15

> <PUBCHEM_ATOM_DEF_STEREO_COUNT>
0

> <PUBCHEM_ATOM_UDEF_STEREO_COUNT>
0

> <PUBCHEM_BOND_DEF_STEREO_COUNT>
0

> <PUBCHEM_BOND_UDEF_STEREO_COUNT>
0

> <PUBCHEM_ISOTOPIC_ATOM_COUNT>
0

> <PUBCHEM_COMPONENT_COUNT>
1

> <PUBCHEM_CACTVS_TAUTO_COUNT>
2

> <PUBCHEM_CONFORMER_ID>
0001BBE700000001

> <PUBCHEM_MMFF94_ENERGY>
17.8249

> <PUBCHEM_FEATURE_SELFOVERLAP>
40.68

> <PUBCHEM_SHAPE_FINGERPRINT>
10726558 24 8286208257676424993
11401426 45 16515682242991206782
11806522 49 18186519934044677516
12251169 10 17775564256007119509
12815109 37 17313100852123284439
13214271 11 17989203733629869805
13237642 15 18342453764207493322
13897977 58 18272934938012330860
14123238 8 18201999936856472454
14943859 89 11527943465171221533
17834072 33 18334576871427579164
17834072 8 10303816492839440040
18785283 64 17700396247133983904
19433438 38 14129057015326785819
200 152 16588022402911707789
20645477 70 13912323456792419090
21119208 17 9727630609594445926
22485316 2 18261107443934438095
23402539 116 18408315596863475150
23557571 272 18130799906127917068
32948 21 8862948286138979986
449060 50 18060699481515527764
522135 26 13470691430357601588
77779 3 18342176622937173502

> <PUBCHEM_SHAPE_MULTIPOLES>
260.31
10.26
1.28
0.88
4.87
0.14
0
-1.24
2.03
-0.62
0.01
0.26
-0.01
-0.24

> <PUBCHEM_SHAPE_SELFOVERLAP>
526.873

> <PUBCHEM_SHAPE_VOLUME>
152.4

> <PUBCHEM_COORDINATE_TYPE>
2
5
10

$$$$
