11368000
  -OEChem-03292013303D

 20 21  0     0  0  0  0  0  0999 V2000
    2.2960   -2.2212    0.4533 O   0  0  0  0  0  0  0  0  0  0  0  0
    2.2985    2.2216   -0.4502 O   0  0  0  0  0  0  0  0  0  0  0  0
   -4.4885   -1.0382   -0.3603 O   0  5  0  0  0  0  0  0  0  0  0  0
   -4.4884    1.0374    0.3632 O   0  0  0  0  0  0  0  0  0  0  0  0
    1.7499    0.0000   -0.0009 N   0  0  0  0  0  0  0  0  0  0  0  0
   -3.8860   -0.0001    0.0008 N   0  3  0  0  0  0  0  0  0  0  0  0
    3.8879   -0.6184    0.1104 N   0  0  0  0  0  0  0  0  0  0  0  0
    3.8886    0.6165   -0.1094 N   0  0  0  0  0  0  0  0  0  0  0  0
    0.3235    0.0004   -0.0016 C   0  0  0  0  0  0  0  0  0  0  0  0
   -0.3739   -1.1399   -0.3996 C   0  0  0  0  0  0  0  0  0  0  0  0
   -0.3738    1.1409    0.3969 C   0  0  0  0  0  0  0  0  0  0  0  0
   -2.4663    0.0004   -0.0010 C   0  0  0  0  0  0  0  0  0  0  0  0
   -1.7687   -1.1399   -0.3994 C   0  0  0  0  0  0  0  0  0  0  0  0
   -1.7687    1.1410    0.3972 C   0  0  0  0  0  0  0  0  0  0  0  0
    2.5844   -1.0594    0.2010 C   0  0  0  0  0  0  0  0  0  0  0  0
    2.5855    1.0589   -0.2003 C   0  0  0  0  0  0  0  0  0  0  0  0
    0.1378   -2.0352   -0.7396 H   0  0  0  0  0  0  0  0  0  0  0  0
    0.1380    2.0360    0.7371 H   0  0  0  0  0  0  0  0  0  0  0  0
   -2.2785   -2.0446   -0.7210 H   0  0  0  0  0  0  0  0  0  0  0  0
   -2.2784    2.0454    0.7195 H   0  0  0  0  0  0  0  0  0  0  0  0
  1 15  2  0  0  0  0
  2 16  2  0  0  0  0
  3  6  1  0  0  0  0
  4  6  2  0  0  0  0
  5  9  1  0  0  0  0
  5 15  1  0  0  0  0
  5 16  1  0  0  0  0
  6 12  1  0  0  0  0
  7  8  2  0  0  0  0
  7 15  1  0  0  0  0
  8 16  1  0  0  0  0
  9 10  2  0  0  0  0
  9 11  1  0  0  0  0
 10 13  1  0  0  0  0
 10 17  1  0  0  0  0
 11 14  2  0  0  0  0
 11 18  1  0  0  0  0
 12 13  2  0  0  0  0
 12 14  1  0  0  0  0
 13 19  1  0  0  0  0
 14 20  1  0  0  0  0
M  CHG  2   3  -1   6   1
M  END
> <PUBCHEM_COMPOUND_CID>
11368000

> <PUBCHEM_CONFORMER_RMSD>
0.6

> <PUBCHEM_CONFORMER_DIVERSEORDER>
1

> <PUBCHEM_MMFF94_PARTIAL_CHARGES>
20
1 -0.57
10 -0.15
11 -0.15
12 0.13
13 -0.15
14 -0.15
15 0.84
16 0.84
17 0.15
18 0.15
19 0.15
2 -0.57
20 0.15
3 -0.52
4 -0.52
5 -0.24
6 0.91
7 -0.21
8 -0.21
9 0.12

> <PUBCHEM_EFFECTIVE_ROTOR_COUNT>
2.2

> <PUBCHEM_PHARMACOPHORE_FEATURES>
9
1 1 acceptor
1 2 acceptor
1 3 acceptor
1 3 anion
1 4 acceptor
1 7 donor
1 8 donor
5 5 7 8 15 16 rings
6 9 10 11 12 13 14 rings

> <PUBCHEM_HEAVY_ATOM_COUNT>
16

> <PUBCHEM_ATOM_DEF_STEREO_COUNT>
0

> <PUBCHEM_ATOM_UDEF_STEREO_COUNT>
0

> <PUBCHEM_BOND_DEF_STEREO_COUNT>
0

> <PUBCHEM_BOND_UDEF_STEREO_COUNT>
0

> <PUBCHEM_ISOTOPIC_ATOM_COUNT>
0

> <PUBCHEM_COMPONENT_COUNT>
1

> <PUBCHEM_CACTVS_TAUTO_COUNT>
1

> <PUBCHEM_CONFORMER_ID>
00AD764000000001

> <PUBCHEM_MMFF94_ENERGY>
51.4511

> <PUBCHEM_FEATURE_SELFOVERLAP>
47.855

> <PUBCHEM_SHAPE_FINGERPRINT>
10062212 137 18201994426719516943
10130415 120 18342454841822291321
10616163 171 18342458196461502479
11471102 20 18407757049541390150
12251169 10 18411136922420489158
13221675 6 18411982463968388418
13690532 89 18411136905293438890
13760787 5 18413107282123526453
14144814 61 18411699850883191330
14325111 11 18411982459910687529
15196674 1 18412825789265378437
15442244 35 18194965141076237954
15536298 74 18343019995463115904
15775835 57 18413111675374027148
16945 1 18408603664936478478
18186145 218 17749103396456958867
18522853 276 18342736312857663912
19026448 4 17385723599844241669
19422 9 18412826893541510955
200 152 18342736321088661883
20510252 161 17774725259873659985
20559304 39 18411981334750529888
20645477 70 18410009901474889583
21267235 1 18412271639747789734
2255824 54 18333453166433465542
22854114 111 18408041831563940276
23402539 116 17988636385397828805
23402655 69 18411698768435635165
23463225 33 18412825755048129887
23559900 14 18342737382294081318
474 4 17969786474168711540
5104073 3 18411981368661915227
537710 114 18272091621210141585
69090 78 18412541028823575567
7364860 26 18344145891338741830
8272917 22 18338521833027394135
9709674 26 18410580578079913391

> <PUBCHEM_SHAPE_MULTIPOLES>
285.87
7.7
1.77
0.65
3.78
0
0
0
-0.01
-0.82
0
0.01
0
-0.68

> <PUBCHEM_SHAPE_SELFOVERLAP>
628.626

> <PUBCHEM_SHAPE_VOLUME>
155.6

> <PUBCHEM_COORDINATE_TYPE>
2
5
10

$$$$
