11372270
  -OEChem-03292013303D

 35 35  0     1  0  0  0  0  0999 V2000
    4.9409    1.6310    0.1378 S   0  0  0  0  0  0  0  0  0  0  0  0
   -3.7470    0.2485   -0.7113 S   0  0  0  0  0  0  0  0  0  0  0  0
   -5.7518   -0.3356    0.8225 F   0  0  0  0  0  0  0  0  0  0  0  0
   -4.9854    1.6964    1.0439 F   0  0  0  0  0  0  0  0  0  0  0  0
   -6.1660    1.1607   -0.7105 F   0  0  0  0  0  0  0  0  0  0  0  0
   -2.8296   -0.0360    0.6157 O   0  0  0  0  0  0  0  0  0  0  0  0
    3.6315   -0.6456   -1.5400 O   0  0  0  0  0  0  0  0  0  0  0  0
    5.4058    2.3217    1.3244 O   0  0  0  0  0  0  0  0  0  0  0  0
    4.3119    2.3556   -0.9493 O   0  0  0  0  0  0  0  0  0  0  0  0
   -4.0087   -1.0006   -1.3974 O   0  0  0  0  0  0  0  0  0  0  0  0
   -3.2524    1.4232   -1.4008 O   0  0  0  0  0  0  0  0  0  0  0  0
    3.9378    0.3197    0.5747 N   0  0  0  0  0  0  0  0  0  0  0  0
    2.5502   -1.7147    0.3489 C   0  0  2  0  0  0  0  0  0  0  0  0
    1.1046   -1.2632    0.4206 C   0  0  0  0  0  0  0  0  0  0  0  0
    3.4172   -0.6618   -0.3326 C   0  0  0  0  0  0  0  0  0  0  0  0
    2.6849   -3.0748   -0.3385 C   0  0  0  0  0  0  0  0  0  0  0  0
    0.5180   -1.0791    1.6589 C   0  0  0  0  0  0  0  0  0  0  0  0
    0.4087   -1.0475   -0.7544 C   0  0  0  0  0  0  0  0  0  0  0  0
   -1.5321   -0.4415    0.5507 C   0  0  0  0  0  0  0  0  0  0  0  0
   -0.8123   -0.6646    1.7245 C   0  0  0  0  0  0  0  0  0  0  0  0
   -0.9216   -0.6330   -0.6887 C   0  0  0  0  0  0  0  0  0  0  0  0
    6.3130    0.7322   -0.5442 C   0  0  0  0  0  0  0  0  0  0  0  0
   -5.2175    0.7092    0.1453 C   0  0  0  0  0  0  0  0  0  0  0  0
    2.9408   -1.8486    1.3671 H   0  0  0  0  0  0  0  0  0  0  0  0
    3.7298   -3.4050   -0.3292 H   0  0  0  0  0  0  0  0  0  0  0  0
    2.3667   -3.0475   -1.3865 H   0  0  0  0  0  0  0  0  0  0  0  0
    2.0849   -3.8350    0.1737 H   0  0  0  0  0  0  0  0  0  0  0  0
    1.0682   -1.2490    2.5796 H   0  0  0  0  0  0  0  0  0  0  0  0
    0.8683   -1.1895   -1.7278 H   0  0  0  0  0  0  0  0  0  0  0  0
    3.7829    0.1784    1.5813 H   0  0  0  0  0  0  0  0  0  0  0  0
   -1.2826   -0.5166    2.6928 H   0  0  0  0  0  0  0  0  0  0  0  0
   -1.4246   -0.4765   -1.6359 H   0  0  0  0  0  0  0  0  0  0  0  0
    6.6888    0.0334    0.2057 H   0  0  0  0  0  0  0  0  0  0  0  0
    6.0102    0.2124   -1.4529 H   0  0  0  0  0  0  0  0  0  0  0  0
    7.0941    1.4564   -0.7886 H   0  0  0  0  0  0  0  0  0  0  0  0
  1  8  2  0  0  0  0
  1  9  2  0  0  0  0
  1 12  1  0  0  0  0
  1 22  1  0  0  0  0
  2  6  1  0  0  0  0
  2 10  2  0  0  0  0
  2 11  2  0  0  0  0
  2 23  1  0  0  0  0
  3 23  1  0  0  0  0
  4 23  1  0  0  0  0
  5 23  1  0  0  0  0
  6 19  1  0  0  0  0
  7 15  2  0  0  0  0
 12 15  1  0  0  0  0
 12 30  1  0  0  0  0
 13 14  1  0  0  0  0
 13 15  1  0  0  0  0
 13 16  1  0  0  0  0
 13 24  1  0  0  0  0
 14 17  2  0  0  0  0
 14 18  1  0  0  0  0
 16 25  1  0  0  0  0
 16 26  1  0  0  0  0
 16 27  1  0  0  0  0
 17 20  1  0  0  0  0
 17 28  1  0  0  0  0
 18 21  2  0  0  0  0
 18 29  1  0  0  0  0
 19 20  2  0  0  0  0
 19 21  1  0  0  0  0
 20 31  1  0  0  0  0
 21 32  1  0  0  0  0
 22 33  1  0  0  0  0
 22 34  1  0  0  0  0
 22 35  1  0  0  0  0
M  END
> <PUBCHEM_COMPOUND_CID>
11372270

> <PUBCHEM_CONFORMER_RMSD>
0.8

> <PUBCHEM_CONFORMER_DIVERSEORDER>
1
152
147
45
185
178
157
228
151
235
72
237
202
91
173
221
211
141
26
6
200
206
108
209
217
104
193
184
102
223
41
204
171
215
74
139
158
218
42
65
220
176
148
66
30
115
161
188
70
205
136
150
180
79
208
164
196
130
28
198
222
140
35
199
201
234
156
162
195
172
90
133
62
86
167
214
99
231
128
20
113
129
191
168
203
58
116
229
232
53
179
181
117
236
51
134
192
149
9
186
145
183
213
121
143
24
225
154
212
207
210
146
80
69
15
187
114
226
125
144
14
233
216
227
46
110
100
39
43
166
123
160
197
137
165
194
68
122
27
59
97
107
8
190
33
135
124
82
87
106
32
50
54
163
119
38
61
64
142
83
155
93
126
224
56
81
118
127
85
120
132
153
21
36
101
88
159
17
96
52
169
112
103
230
23
175
92
55
7
189
29
18
10
44
95
71
47
63
111
138
48
22
34
49
60
131
84
170
31
78
5
73
219
177
105
75
98
37
94
89
13
67
57
25
77
174
109
4
182
76
12
2
40
16
19
11
3

> <PUBCHEM_MMFF94_PARTIAL_CHARGES>
27
1 1.33
10 -0.65
11 -0.65
12 -0.79
13 0.2
14 -0.14
15 0.75
17 -0.15
18 -0.15
19 0.08
2 1.38
20 -0.15
21 -0.15
22 0.11
23 1.13
28 0.15
29 0.15
3 -0.34
30 0.42
31 0.15
32 0.15
4 -0.34
5 -0.34
6 -0.27
7 -0.57
8 -0.65
9 -0.65

> <PUBCHEM_EFFECTIVE_ROTOR_COUNT>
7

> <PUBCHEM_PHARMACOPHORE_FEATURES>
8
1 10 acceptor
1 11 acceptor
1 12 donor
1 16 hydrophobe
1 7 acceptor
1 8 acceptor
1 9 acceptor
6 14 17 18 19 20 21 rings

> <PUBCHEM_HEAVY_ATOM_COUNT>
23

> <PUBCHEM_ATOM_DEF_STEREO_COUNT>
1

> <PUBCHEM_ATOM_UDEF_STEREO_COUNT>
0

> <PUBCHEM_BOND_DEF_STEREO_COUNT>
0

> <PUBCHEM_BOND_UDEF_STEREO_COUNT>
0

> <PUBCHEM_ISOTOPIC_ATOM_COUNT>
0

> <PUBCHEM_COMPONENT_COUNT>
1

> <PUBCHEM_CACTVS_TAUTO_COUNT>
2

> <PUBCHEM_CONFORMER_ID>
00AD86EE00000001

> <PUBCHEM_MMFF94_ENERGY>
33.0191

> <PUBCHEM_FEATURE_SELFOVERLAP>
40.631

> <PUBCHEM_SHAPE_FINGERPRINT>
10554248 39 17558259935401536629
10692045 39 17677314045118572266
11128504 68 17060340738427084416
11543360 7 18341887485401709983
11796584 16 11743831452536094925
11858739 19 9295288326843270371
12403259 415 17241040998811558174
12616971 3 18272358742237584534
12633257 1 16588308340802524982
12730499 353 18408612448234867474
12788726 201 16916793920432071987
12839892 36 13984664750289049937
13402501 40 18186799201609366452
13533116 47 17749665182754208338
13685833 64 11239995672319426453
13690498 29 16916210230551245719
13955234 65 18190460467718509402
14211702 104 8285899295083749809
14251757 52 18271808969992972137
14251764 75 17753621431818584988
14366163 111 17846498136477012082
14461889 52 18113907099699493083
14528608 73 18201998841444613814
15183329 4 17490153010436727128
15475509 8 14045476548072512907
17349148 13 14273460266806605619
17844677 252 18267309729408668901
17857418 61 9079117756294914880
17959699 21 18272371949140388569
17980427 23 17168993451140239190
1813 80 12823296801589512098
18222031 100 13039183706079047459
18335252 114 18343015567658042564
18785283 64 17314245529727918493
20567600 254 17603577539125719510
20645477 56 18040437685228195443
20871999 31 15410624683070922178
21033648 29 17240482460147966773
21150785 3 18131343125491619429
21452121 103 18041274388112967522
21618674 25 18259705605659595818
21637258 2 9727639380149760020
21641784 216 16988290785141674201
22079108 93 17821732749558296059
2215653 11 11527948937313166385
23016692 55 12751244709393809176
23559900 14 17458638757038963978
25122255 55 11311760822483063109
270888 7 18266176317968743496
2838139 119 18411692210484966572
2916195 48 18040434391209604705
3004659 81 17274260526737389798
34797466 226 18059862753129815149
4072396 5 14634868630754930115
4325135 7 18410856603291329503
4463277 69 10807932665442415562
465052 167 8214141876172222752
474 4 18334861644944428224
495365 180 18333734594298067554
5104073 3 16733824156537578473
543368 44 18201435904782607649
56633871 153 12613296690829207000
633830 44 18337950070107192467
6913067 236 15574429930094145607
7970288 3 8574173638963415600
960060 61 14549019892466051836

> <PUBCHEM_SHAPE_MULTIPOLES>
419.01
14.57
2.3
1.41
5.1
0.11
0.19
-10.16
-1.14
-3.01
-0.06
0.23
0.01
0.51

> <PUBCHEM_SHAPE_SELFOVERLAP>
842.314

> <PUBCHEM_SHAPE_VOLUME>
247.8

> <PUBCHEM_COORDINATE_TYPE>
2
5
10

$$$$
