11374461
  -OEChem-03292013303D

 50 55  0     1  0  0  0  0  0999 V2000
    4.4126   -0.9215    1.1139 O   0  0  0  0  0  0  0  0  0  0  0  0
    3.9660    1.0243   -1.1380 O   0  0  0  0  0  0  0  0  0  0  0  0
    2.5313    0.1673    1.9998 O   0  0  0  0  0  0  0  0  0  0  0  0
    3.1767   -1.3439   -2.2175 O   0  0  0  0  0  0  0  0  0  0  0  0
    1.5365    2.1171   -0.7987 O   0  0  0  0  0  0  0  0  0  0  0  0
    1.8883   -3.2234   -0.2485 O   0  0  0  0  0  0  0  0  0  0  0  0
    5.5735    2.5869   -0.6689 O   0  0  0  0  0  0  0  0  0  0  0  0
   -0.8980    2.0644   -0.4059 O   0  0  0  0  0  0  0  0  0  0  0  0
   -5.4354   -2.4133    0.3563 O   0  0  0  0  0  0  0  0  0  0  0  0
   -6.7093    0.1843    0.2865 O   0  0  0  0  0  0  0  0  0  0  0  0
   -5.1016    1.8897   -0.0019 N   0  0  0  0  0  0  0  0  0  0  0  0
    3.0057    0.2529   -0.3976 C   0  0  1  0  0  0  0  0  0  0  0  0
    3.0633   -1.1994   -0.8127 C   0  0  2  0  0  0  0  0  0  0  0  0
    3.5544    0.2303    1.0225 C   0  0  2  0  0  0  0  0  0  0  0  0
    4.3168   -1.6815   -0.0995 C   0  0  0  0  0  0  0  0  0  0  0  0
    4.3717    1.5005    1.1279 C   0  0  0  0  0  0  0  0  0  0  0  0
    1.6502    0.9166   -0.5648 C   0  0  0  0  0  0  0  0  0  0  0  0
    1.8358   -2.0079   -0.4210 C   0  0  0  0  0  0  0  0  0  0  0  0
    0.4421    0.0774   -0.4096 C   0  0  0  0  0  0  0  0  0  0  0  0
    4.7322    1.7822   -0.2992 C   0  0  0  0  0  0  0  0  0  0  0  0
    0.5326   -1.3101   -0.3216 C   0  0  0  0  0  0  0  0  0  0  0  0
   -0.8103    0.7019   -0.3347 C   0  0  0  0  0  0  0  0  0  0  0  0
   -0.6314   -2.0737   -0.1468 C   0  0  0  0  0  0  0  0  0  0  0  0
   -1.9845   -0.0548   -0.1633 C   0  0  0  0  0  0  0  0  0  0  0  0
   -1.8949   -1.4657   -0.0659 C   0  0  0  0  0  0  0  0  0  0  0  0
    3.0605    0.2079    3.3203 C   0  0  0  0  0  0  0  0  0  0  0  0
   -3.2542    0.5215   -0.0807 C   0  0  0  0  0  0  0  0  0  0  0  0
   -4.3882   -0.2755    0.0917 C   0  0  0  0  0  0  0  0  0  0  0  0
   -3.6544    1.9616   -0.1498 C   0  0  0  0  0  0  0  0  0  0  0  0
   -3.0675   -2.2403    0.1086 C   0  0  0  0  0  0  0  0  0  0  0  0
   -4.3288   -1.6491    0.1892 C   0  0  0  0  0  0  0  0  0  0  0  0
   -5.5709    0.5910    0.1431 C   0  0  0  0  0  0  0  0  0  0  0  0
   -5.9210    3.0821   -0.0132 C   0  0  0  0  0  0  0  0  0  0  0  0
    4.3109   -2.7459    0.1527 H   0  0  0  0  0  0  0  0  0  0  0  0
    5.2191   -1.4923   -0.6927 H   0  0  0  0  0  0  0  0  0  0  0  0
    5.2851    1.3587    1.7126 H   0  0  0  0  0  0  0  0  0  0  0  0
    3.7912    2.3472    1.5068 H   0  0  0  0  0  0  0  0  0  0  0  0
    2.4507   -0.8485   -2.6336 H   0  0  0  0  0  0  0  0  0  0  0  0
   -0.5653   -3.1585   -0.0778 H   0  0  0  0  0  0  0  0  0  0  0  0
    2.2283    0.0581    4.0146 H   0  0  0  0  0  0  0  0  0  0  0  0
    3.5057    1.1807    3.5463 H   0  0  0  0  0  0  0  0  0  0  0  0
    3.7851   -0.5940    3.4900 H   0  0  0  0  0  0  0  0  0  0  0  0
   -3.2487    2.5459    0.6810 H   0  0  0  0  0  0  0  0  0  0  0  0
   -3.4252    2.4101   -1.1205 H   0  0  0  0  0  0  0  0  0  0  0  0
   -2.9839   -3.3242    0.1817 H   0  0  0  0  0  0  0  0  0  0  0  0
   -0.0628    2.4730   -0.1306 H   0  0  0  0  0  0  0  0  0  0  0  0
   -5.6071    3.7332    0.8069 H   0  0  0  0  0  0  0  0  0  0  0  0
   -6.9748    2.8198    0.1108 H   0  0  0  0  0  0  0  0  0  0  0  0
   -5.7819    3.5962   -0.9679 H   0  0  0  0  0  0  0  0  0  0  0  0
   -5.1714   -3.3483    0.4005 H   0  0  0  0  0  0  0  0  0  0  0  0
  1 14  1  0  0  0  0
  1 15  1  0  0  0  0
  2 12  1  0  0  0  0
  2 20  1  0  0  0  0
  3 14  1  0  0  0  0
  3 26  1  0  0  0  0
  4 13  1  0  0  0  0
  4 38  1  0  0  0  0
  5 17  2  0  0  0  0
  6 18  2  0  0  0  0
  7 20  2  0  0  0  0
  8 22  1  0  0  0  0
  8 46  1  0  0  0  0
  9 31  1  0  0  0  0
  9 50  1  0  0  0  0
 10 32  2  0  0  0  0
 11 29  1  0  0  0  0
 11 32  1  0  0  0  0
 11 33  1  0  0  0  0
 12 13  1  0  0  0  0
 12 14  1  0  0  0  0
 12 17  1  0  0  0  0
 13 15  1  0  0  0  0
 13 18  1  0  0  0  0
 14 16  1  0  0  0  0
 15 34  1  0  0  0  0
 15 35  1  0  0  0  0
 16 20  1  0  0  0  0
 16 36  1  0  0  0  0
 16 37  1  0  0  0  0
 17 19  1  0  0  0  0
 18 21  1  0  0  0  0
 19 21  2  0  0  0  0
 19 22  1  0  0  0  0
 21 23  1  0  0  0  0
 22 24  2  0  0  0  0
 23 25  2  0  0  0  0
 23 39  1  0  0  0  0
 24 25  1  0  0  0  0
 24 27  1  0  0  0  0
 25 30  1  0  0  0  0
 26 40  1  0  0  0  0
 26 41  1  0  0  0  0
 26 42  1  0  0  0  0
 27 28  2  0  0  0  0
 27 29  1  0  0  0  0
 28 31  1  0  0  0  0
 28 32  1  0  0  0  0
 29 43  1  0  0  0  0
 29 44  1  0  0  0  0
 30 31  2  0  0  0  0
 30 45  1  0  0  0  0
 33 47  1  0  0  0  0
 33 48  1  0  0  0  0
 33 49  1  0  0  0  0
M  END
> <PUBCHEM_COMPOUND_CID>
11374461

> <PUBCHEM_CONFORMER_RMSD>
0.8

> <PUBCHEM_CONFORMER_DIVERSEORDER>
1
2

> <PUBCHEM_MMFF94_PARTIAL_CHARGES>
36
1 -0.56
10 -0.57
11 -0.66
12 0.34
13 0.34
14 0.56
15 0.28
16 0.06
17 0.42
18 0.42
19 0.09
2 -0.43
20 0.66
21 0.09
22 0.08
23 -0.15
26 0.28
27 -0.14
28 0.09
29 0.44
3 -0.56
30 -0.15
31 0.08
32 0.54
33 0.3
38 0.4
39 0.15
4 -0.68
45 0.15
46 0.45
5 -0.57
50 0.45
6 -0.57
7 -0.57
8 -0.53
9 -0.53

> <PUBCHEM_EFFECTIVE_ROTOR_COUNT>
2.2

> <PUBCHEM_PHARMACOPHORE_FEATURES>
16
1 1 acceptor
1 10 acceptor
1 3 acceptor
1 4 acceptor
1 4 donor
1 5 acceptor
1 6 acceptor
1 7 acceptor
1 8 donor
1 9 donor
5 1 12 13 14 15 rings
5 11 27 28 29 32 rings
5 2 12 14 16 20 rings
6 12 13 17 18 19 21 rings
6 19 21 22 23 24 25 rings
6 24 25 27 28 30 31 rings

> <PUBCHEM_HEAVY_ATOM_COUNT>
33

> <PUBCHEM_ATOM_DEF_STEREO_COUNT>
3

> <PUBCHEM_ATOM_UDEF_STEREO_COUNT>
0

> <PUBCHEM_BOND_DEF_STEREO_COUNT>
0

> <PUBCHEM_BOND_UDEF_STEREO_COUNT>
0

> <PUBCHEM_ISOTOPIC_ATOM_COUNT>
0

> <PUBCHEM_COMPONENT_COUNT>
1

> <PUBCHEM_CACTVS_TAUTO_COUNT>
60

> <PUBCHEM_CONFORMER_ID>
00AD8F7D00000001

> <PUBCHEM_MMFF94_ENERGY>
105.5563

> <PUBCHEM_FEATURE_SELFOVERLAP>
82.227

> <PUBCHEM_SHAPE_FINGERPRINT>
10 15 18260555537217615441
10165383 225 17844534508042710640
10319926 262 18340190921938575002
10906281 52 18115040704392210916
1100329 8 16756632214878854545
11578080 2 17489011790550208731
11595378 159 17458618978529423317
12107183 9 18117550726234811483
12236239 1 17967528016791304792
12403259 415 17845934138398544531
12422481 6 18261383395799347547
12596602 18 17749104538897167657
12788726 201 17755297116976345666
13140716 1 18337387132584940334
13224815 77 18413105078146245375
13533116 47 17703513199157563303
13583140 156 17561355210540699943
13726171 33 18337680814054346920
14341114 328 17749662008751991360
14790565 3 18120662593661737292
15196674 1 18410014342486599151
15788980 27 16443060591309972791
1601671 61 18411136974108056092
16992610 120 17972049291629118380
17349148 13 18259982691211287391
1813 80 16950287295351019797
18608769 82 18269843184672633003
18681886 176 18338520867113511308
20511986 3 17896304969369569317
20691752 17 17385441016455063670
20715895 44 18266737974788641205
20775530 9 15360761689196637394
21033648 29 17988913500803191409
21421861 104 17822563894307104922
21859007 373 17387680623495289813
22149856 69 18268170733566730883
23559900 14 18268430126988282006
23569914 152 16551736105709142165
239999 70 18201164252290692790
3004659 81 18261397719720943294
335352 9 18337675187409214679
34797466 226 17989216936338050565
350125 39 18410293576118044334
3680242 22 18188491259651217449
4073 2 18114471144405142858
4093350 32 17275112678682367711
495365 180 17632285757620325958
508706 21 18336819806808580173
5104073 3 18335423460820755707
6086070 43 16773787134719287810
6823239 73 18341058436749533230
7808743 9 18268145555861818530

> <PUBCHEM_SHAPE_MULTIPOLES>
615.45
13.63
3.03
1.4
12.19
0.02
1.09
-5.49
1.32
1.12
-0.46
-2.47
-0.1
0.44

> <PUBCHEM_SHAPE_SELFOVERLAP>
1425.23

> <PUBCHEM_SHAPE_VOLUME>
316.5

> <PUBCHEM_COORDINATE_TYPE>
2
5
10

$$$$
