11374516
  -OEChem-03292013303D

 40 43  0     0  0  0  0  0  0999 V2000
    1.2741   -3.5502    0.0799 S   0  0  0  0  0  0  0  0  0  0  0  0
    4.4650    0.8553    0.0412 S   0  0  0  0  0  0  0  0  0  0  0  0
   -4.7791    0.0884    0.0317 S   0  0  0  0  0  0  0  0  0  0  0  0
    0.8505   -4.0976   -1.3977 O   0  0  0  0  0  0  0  0  0  0  0  0
    4.7156    0.2061   -1.4350 O   0  0  0  0  0  0  0  0  0  0  0  0
   -5.0236    0.7110   -1.4570 O   0  0  0  0  0  0  0  0  0  0  0  0
    2.7187   -3.6539    0.1811 O   0  0  0  0  0  0  0  0  0  0  0  0
    0.4060   -4.1687    1.0646 O   0  0  0  0  0  0  0  0  0  0  0  0
    5.2762    2.0567    0.1272 O   0  0  0  0  0  0  0  0  0  0  0  0
    4.5798   -0.1998    1.0313 O   0  0  0  0  0  0  0  0  0  0  0  0
   -5.5912   -1.1109    0.1362 O   0  0  0  0  0  0  0  0  0  0  0  0
   -4.8969    1.1613    1.0020 O   0  0  0  0  0  0  0  0  0  0  0  0
   -1.4801    4.1666    0.0023 N   0  0  0  0  0  0  0  0  0  0  0  0
   -0.7005    0.0161    0.0404 C   0  0  0  0  0  0  0  0  0  0  0  0
    0.3865    0.9253    0.0340 C   0  0  0  0  0  0  0  0  0  0  0  0
    1.7149    0.4396    0.0403 C   0  0  0  0  0  0  0  0  0  0  0  0
   -0.4567   -1.3770    0.0531 C   0  0  0  0  0  0  0  0  0  0  0  0
   -2.0286    0.5023    0.0336 C   0  0  0  0  0  0  0  0  0  0  0  0
    0.1422    2.3184    0.0212 C   0  0  0  0  0  0  0  0  0  0  0  0
    0.8661   -1.8399    0.0595 C   0  0  0  0  0  0  0  0  0  0  0  0
    1.9373   -0.9440    0.0526 C   0  0  0  0  0  0  0  0  0  0  0  0
    2.7796    1.3527    0.0341 C   0  0  0  0  0  0  0  0  0  0  0  0
   -3.0938   -0.4098    0.0399 C   0  0  0  0  0  0  0  0  0  0  0  0
   -1.1803    2.7816    0.0151 C   0  0  0  0  0  0  0  0  0  0  0  0
   -2.2511    1.8857    0.0210 C   0  0  0  0  0  0  0  0  0  0  0  0
   -1.5435   -2.2637    0.0589 C   0  0  0  0  0  0  0  0  0  0  0  0
    1.2282    3.2055    0.0147 C   0  0  0  0  0  0  0  0  0  0  0  0
   -2.8517   -1.7824    0.0527 C   0  0  0  0  0  0  0  0  0  0  0  0
    2.5365    2.7252    0.0212 C   0  0  0  0  0  0  0  0  0  0  0  0
    2.9362   -1.3501   -0.0057 H   0  0  0  0  0  0  0  0  0  0  0  0
   -3.2413    2.3214   -0.0355 H   0  0  0  0  0  0  0  0  0  0  0  0
   -1.4446   -3.3410    0.0169 H   0  0  0  0  0  0  0  0  0  0  0  0
    1.1055    4.2840    0.0037 H   0  0  0  0  0  0  0  0  0  0  0  0
   -3.6548   -2.5133    0.0433 H   0  0  0  0  0  0  0  0  0  0  0  0
    3.3389    3.4569    0.0125 H   0  0  0  0  0  0  0  0  0  0  0  0
   -0.7616    4.8741    0.0001 H   0  0  0  0  0  0  0  0  0  0  0  0
   -2.4483    4.4616    0.0004 H   0  0  0  0  0  0  0  0  0  0  0  0
    1.3271   -3.6839   -2.1554 H   0  0  0  0  0  0  0  0  0  0  0  0
    4.5860    0.8202   -2.1954 H   0  0  0  0  0  0  0  0  0  0  0  0
   -4.8921    0.0829   -2.2057 H   0  0  0  0  0  0  0  0  0  0  0  0
  1  4  1  0  0  0  0
  1  7  2  0  0  0  0
  1  8  2  0  0  0  0
  1 20  1  0  0  0  0
  2  5  1  0  0  0  0
  2  9  2  0  0  0  0
  2 10  2  0  0  0  0
  2 22  1  0  0  0  0
  3  6  1  0  0  0  0
  3 11  2  0  0  0  0
  3 12  2  0  0  0  0
  3 23  1  0  0  0  0
  4 38  1  0  0  0  0
  5 39  1  0  0  0  0
  6 40  1  0  0  0  0
 13 24  1  0  0  0  0
 13 36  1  0  0  0  0
 13 37  1  0  0  0  0
 14 15  1  0  0  0  0
 14 17  2  0  0  0  0
 14 18  1  0  0  0  0
 15 16  1  0  0  0  0
 15 19  2  0  0  0  0
 16 21  1  0  0  0  0
 16 22  2  0  0  0  0
 17 20  1  0  0  0  0
 17 26  1  0  0  0  0
 18 23  2  0  0  0  0
 18 25  1  0  0  0  0
 19 24  1  0  0  0  0
 19 27  1  0  0  0  0
 20 21  2  0  0  0  0
 21 30  1  0  0  0  0
 22 29  1  0  0  0  0
 23 28  1  0  0  0  0
 24 25  2  0  0  0  0
 25 31  1  0  0  0  0
 26 28  2  0  0  0  0
 26 32  1  0  0  0  0
 27 29  2  0  0  0  0
 27 33  1  0  0  0  0
 28 34  1  0  0  0  0
 29 35  1  0  0  0  0
M  END
> <PUBCHEM_COMPOUND_CID>
11374516

> <PUBCHEM_CONFORMER_RMSD>
0.8

> <PUBCHEM_CONFORMER_DIVERSEORDER>
1

> <PUBCHEM_MMFF94_PARTIAL_CHARGES>
34
1 1.49
10 -0.65
11 -0.65
12 -0.65
13 -0.9
2 1.49
20 -0.01
21 -0.15
22 -0.01
23 -0.01
24 0.1
25 -0.15
26 -0.15
27 -0.15
28 -0.15
29 -0.15
3 1.49
30 0.15
31 0.15
32 0.15
33 0.15
34 0.15
35 0.15
36 0.4
37 0.4
38 0.5
39 0.5
4 -0.68
40 0.5
5 -0.68
6 -0.68
7 -0.65
8 -0.65
9 -0.65

> <PUBCHEM_EFFECTIVE_ROTOR_COUNT>
3

> <PUBCHEM_PHARMACOPHORE_FEATURES>
18
1 10 acceptor
1 11 acceptor
1 12 acceptor
1 13 cation
1 13 donor
1 4 acceptor
1 5 acceptor
1 6 acceptor
1 7 acceptor
1 8 acceptor
1 9 acceptor
4 1 4 7 8 anion
4 2 5 9 10 anion
4 3 6 11 12 anion
6 14 15 16 17 20 21 rings
6 14 15 18 19 24 25 rings
6 14 17 18 23 26 28 rings
6 15 16 19 22 27 29 rings

> <PUBCHEM_HEAVY_ATOM_COUNT>
29

> <PUBCHEM_ATOM_DEF_STEREO_COUNT>
0

> <PUBCHEM_ATOM_UDEF_STEREO_COUNT>
0

> <PUBCHEM_BOND_DEF_STEREO_COUNT>
0

> <PUBCHEM_BOND_UDEF_STEREO_COUNT>
0

> <PUBCHEM_ISOTOPIC_ATOM_COUNT>
0

> <PUBCHEM_COMPONENT_COUNT>
1

> <PUBCHEM_CACTVS_TAUTO_COUNT>
1

> <PUBCHEM_CONFORMER_ID>
00AD8FB400000001

> <PUBCHEM_MMFF94_ENERGY>
93.1808

> <PUBCHEM_FEATURE_SELFOVERLAP>
91.655

> <PUBCHEM_SHAPE_FINGERPRINT>
10411042 1 17978228254017082987
10693767 8 18130782343590205342
10906281 52 18262535744104515953
10967382 1 18410573967987419273
1100329 8 18194401319065341360
11513181 2 17986669277892175823
11578080 2 17097765768931274639
12553582 1 18410570691196735569
12788726 201 18412552028683655496
12838862 33 18266720523951623057
12839892 36 18265879299203974776
13140716 1 18339360897780266721
138480 1 18266458698481602387
13911987 19 18334859471395974293
14178342 30 18195517109131190720
14790565 3 18338243781039813768
15196674 1 18194402418656259185
15403338 16 17170087297510784850
1601671 61 18409447002997388952
16728300 4 17607212443416768250
16945 1 18410575058999036585
19591789 44 18194122038890628955
19930381 70 18337671901869833627
20028762 73 18128817619717462967
20642791 35 18267873774331331135
20739085 24 18190198930254195545
20775438 99 17397217735255751309
20905425 154 18197784306080293990
21267235 1 18338807826657560977
21421861 104 18189898608554081075
22113638 7 18194959862319046020
2334 1 18050287264871388009
23366157 5 17898860041314307562
23402539 116 18271239551132708372
23558518 356 18118411635481735065
23559900 14 18051120398369415658
23566358 2 18266456503742648117
266924 87 18337386029068502381
2748010 2 18194122056038986001
283562 15 18413111649457251720
3084891 72 18411136982576424520
3178227 256 18264783236698902459
3298306 158 18409164419892885455
335352 9 18410574036701998349
34934 24 18411695496087182879
350125 39 18122348982119884352
352729 6 18337400451404638680
3680242 22 18407760322311894304
484989 97 17831574650217461311
5104073 3 18266459999819842153
59755656 215 18408886209064660092
6138700 20 18411423895483125838

> <PUBCHEM_SHAPE_MULTIPOLES>
550.55
8.94
5.09
0.85
2.66
2.83
-0.14
-2.54
-0.31
-1.89
0.03
-0.02
0.27
0.04

> <PUBCHEM_SHAPE_SELFOVERLAP>
1214.436

> <PUBCHEM_SHAPE_VOLUME>
297

> <PUBCHEM_COORDINATE_TYPE>
2
5
10

$$$$
