11375385
  -OEChem-03292013303D

 68 70  0     1  0  0  0  0  0999 V2000
    0.1663    2.8294    2.1596 O   0  0  0  0  0  0  0  0  0  0  0  0
    1.5571   -1.3999    2.1417 O   0  0  0  0  0  0  0  0  0  0  0  0
   -1.4032    3.5670   -0.0811 O   0  0  0  0  0  0  0  0  0  0  0  0
    0.6319    0.9292   -2.8568 O   0  0  0  0  0  0  0  0  0  0  0  0
   -2.4147   -1.3709   -1.4986 O   0  0  0  0  0  0  0  0  0  0  0  0
    1.5995   -3.1330    0.1011 O   0  0  0  0  0  0  0  0  0  0  0  0
   -2.6441    1.4231    1.4479 O   0  0  0  0  0  0  0  0  0  0  0  0
    3.1016    0.1639   -2.3545 O   0  0  0  0  0  0  0  0  0  0  0  0
   -0.0993    0.0188    1.0974 C   0  0  2  0  0  0  0  0  0  0  0  0
   -1.2323    0.1373   -0.0006 C   0  0  1  0  0  0  0  0  0  0  0  0
   -0.8897    1.3423   -0.9716 C   0  0  1  0  0  0  0  0  0  0  0  0
    1.0769    1.0161    0.7597 C   0  0  2  0  0  0  0  0  0  0  0  0
    0.5584    2.4869    0.8377 C   0  0  1  0  0  0  0  0  0  0  0  0
    0.3387   -1.4477    1.3882 C   0  0  1  0  0  0  0  0  0  0  0  0
   -0.6587    2.5898   -0.0843 C   0  0  0  0  0  0  0  0  0  0  0  0
    1.5507    0.7533   -0.6510 C   0  0  0  0  0  0  0  0  0  0  0  0
    0.4578    0.9993   -1.6469 C   0  0  0  0  0  0  0  0  0  0  0  0
   -1.3893   -1.1471   -0.8518 C   0  0  0  0  0  0  0  0  0  0  0  0
   -1.9515    1.6454   -2.0344 C   0  0  0  0  0  0  0  0  0  0  0  0
   -2.5372    0.4441    0.7130 C   0  0  0  0  0  0  0  0  0  0  0  0
    0.5481   -2.2339    0.1180 C   0  0  0  0  0  0  0  0  0  0  0  0
   -0.2568   -2.1129   -0.9474 C   0  0  0  0  0  0  0  0  0  0  0  0
    1.6052    3.5243    0.4234 C   0  0  0  0  0  0  0  0  0  0  0  0
   -0.7099   -2.1661    2.2605 C   0  0  0  0  0  0  0  0  0  0  0  0
    2.7725    0.3635   -1.0255 C   0  0  0  0  0  0  0  0  0  0  0  0
   -3.6570   -0.5145    0.4987 C   0  0  0  0  0  0  0  0  0  0  0  0
   -0.1461   -2.9071   -2.2116 C   0  0  0  0  0  0  0  0  0  0  0  0
    3.8427    0.1210   -0.0726 C   0  0  0  0  0  0  0  0  0  0  0  0
   -4.9290   -0.0959    0.5426 C   0  0  0  0  0  0  0  0  0  0  0  0
    5.0899   -0.2711   -0.3801 C   0  0  0  0  0  0  0  0  0  0  0  0
   -6.0508   -0.9864    0.3413 C   0  0  0  0  0  0  0  0  0  0  0  0
    6.1121   -0.4945    0.6192 C   0  0  0  0  0  0  0  0  0  0  0  0
   -7.3279   -0.5793    0.3828 C   0  0  0  0  0  0  0  0  0  0  0  0
    7.3591   -0.8860    0.3186 C   0  0  0  0  0  0  0  0  0  0  0  0
   -8.4942   -1.4892    0.1768 C   0  0  0  0  0  0  0  0  0  0  0  0
    8.4230   -1.1192    1.3405 C   0  0  0  0  0  0  0  0  0  0  0  0
   -0.4870    0.3867    2.0589 H   0  0  0  0  0  0  0  0  0  0  0  0
    1.8450    0.9222    1.5287 H   0  0  0  0  0  0  0  0  0  0  0  0
   -2.9306    1.8507   -1.5897 H   0  0  0  0  0  0  0  0  0  0  0  0
   -1.6733    2.5329   -2.6162 H   0  0  0  0  0  0  0  0  0  0  0  0
   -2.0653    0.8261   -2.7509 H   0  0  0  0  0  0  0  0  0  0  0  0
    1.8850    3.4480   -0.6319 H   0  0  0  0  0  0  0  0  0  0  0  0
    1.2324    4.5437    0.5821 H   0  0  0  0  0  0  0  0  0  0  0  0
    2.5096    3.4252    1.0342 H   0  0  0  0  0  0  0  0  0  0  0  0
   -0.3467   -3.1585    2.5556 H   0  0  0  0  0  0  0  0  0  0  0  0
   -0.8779   -1.6181    3.1949 H   0  0  0  0  0  0  0  0  0  0  0  0
   -1.6709   -2.2984    1.7598 H   0  0  0  0  0  0  0  0  0  0  0  0
   -0.1560    3.7468    2.1572 H   0  0  0  0  0  0  0  0  0  0  0  0
    2.3016   -1.3069    1.5268 H   0  0  0  0  0  0  0  0  0  0  0  0
   -3.4557   -1.5781    0.4443 H   0  0  0  0  0  0  0  0  0  0  0  0
   -1.0210   -3.5533   -2.3366 H   0  0  0  0  0  0  0  0  0  0  0  0
    0.7428   -3.5450   -2.2299 H   0  0  0  0  0  0  0  0  0  0  0  0
   -0.0843   -2.2358   -3.0746 H   0  0  0  0  0  0  0  0  0  0  0  0
    1.9500   -3.1977    1.0056 H   0  0  0  0  0  0  0  0  0  0  0  0
    3.6393    0.2905    0.9786 H   0  0  0  0  0  0  0  0  0  0  0  0
    2.3299    0.3241   -2.9186 H   0  0  0  0  0  0  0  0  0  0  0  0
   -5.1518    0.9595    0.6777 H   0  0  0  0  0  0  0  0  0  0  0  0
    5.3733   -0.4460   -1.4150 H   0  0  0  0  0  0  0  0  0  0  0  0
   -5.8291   -2.0336    0.1508 H   0  0  0  0  0  0  0  0  0  0  0  0
    5.8392   -0.3321    1.6590 H   0  0  0  0  0  0  0  0  0  0  0  0
   -7.5608    0.4654    0.5742 H   0  0  0  0  0  0  0  0  0  0  0  0
    7.6434   -1.0514   -0.7179 H   0  0  0  0  0  0  0  0  0  0  0  0
   -9.0856   -1.1486   -0.6785 H   0  0  0  0  0  0  0  0  0  0  0  0
   -9.1350   -1.4798    1.0638 H   0  0  0  0  0  0  0  0  0  0  0  0
   -8.1869   -2.5229   -0.0110 H   0  0  0  0  0  0  0  0  0  0  0  0
    8.0683   -0.9343    2.3594 H   0  0  0  0  0  0  0  0  0  0  0  0
    9.2735   -0.4574    1.1500 H   0  0  0  0  0  0  0  0  0  0  0  0
    8.7731   -2.1544    1.2839 H   0  0  0  0  0  0  0  0  0  0  0  0
  1 13  1  0  0  0  0
  1 48  1  0  0  0  0
  2 14  1  0  0  0  0
  2 49  1  0  0  0  0
  3 15  2  0  0  0  0
  4 17  2  0  0  0  0
  5 18  2  0  0  0  0
  6 21  1  0  0  0  0
  6 54  1  0  0  0  0
  7 20  2  0  0  0  0
  8 25  1  0  0  0  0
  8 56  1  0  0  0  0
  9 10  1  0  0  0  0
  9 12  1  0  0  0  0
  9 14  1  0  0  0  0
  9 37  1  0  0  0  0
 10 11  1  0  0  0  0
 10 18  1  0  0  0  0
 10 20  1  0  0  0  0
 11 15  1  0  0  0  0
 11 17  1  0  0  0  0
 11 19  1  0  0  0  0
 12 13  1  0  0  0  0
 12 16  1  0  0  0  0
 12 38  1  0  0  0  0
 13 15  1  0  0  0  0
 13 23  1  0  0  0  0
 14 21  1  0  0  0  0
 14 24  1  0  0  0  0
 16 17  1  0  0  0  0
 16 25  2  0  0  0  0
 18 22  1  0  0  0  0
 19 39  1  0  0  0  0
 19 40  1  0  0  0  0
 19 41  1  0  0  0  0
 20 26  1  0  0  0  0
 21 22  2  0  0  0  0
 22 27  1  0  0  0  0
 23 42  1  0  0  0  0
 23 43  1  0  0  0  0
 23 44  1  0  0  0  0
 24 45  1  0  0  0  0
 24 46  1  0  0  0  0
 24 47  1  0  0  0  0
 25 28  1  0  0  0  0
 26 29  2  0  0  0  0
 26 50  1  0  0  0  0
 27 51  1  0  0  0  0
 27 52  1  0  0  0  0
 27 53  1  0  0  0  0
 28 30  2  0  0  0  0
 28 55  1  0  0  0  0
 29 31  1  0  0  0  0
 29 57  1  0  0  0  0
 30 32  1  0  0  0  0
 30 58  1  0  0  0  0
 31 33  2  0  0  0  0
 31 59  1  0  0  0  0
 32 34  2  0  0  0  0
 32 60  1  0  0  0  0
 33 35  1  0  0  0  0
 33 61  1  0  0  0  0
 34 36  1  0  0  0  0
 34 62  1  0  0  0  0
 35 63  1  0  0  0  0
 35 64  1  0  0  0  0
 35 65  1  0  0  0  0
 36 66  1  0  0  0  0
 36 67  1  0  0  0  0
 36 68  1  0  0  0  0
M  END
> <PUBCHEM_COMPOUND_CID>
11375385

> <PUBCHEM_CONFORMER_RMSD>
0.8

> <PUBCHEM_CONFORMER_DIVERSEORDER>
1
10
9
4
8
12
6
7
13
11
3
5
2

> <PUBCHEM_MMFF94_PARTIAL_CHARGES>
44
1 -0.68
10 0.12
11 0.12
12 0.14
13 0.34
14 0.42
15 0.45
16 -0.12
17 0.49
18 0.49
2 -0.68
20 0.49
21 -0.06
22 -0.12
25 0.08
26 -0.14
27 0.14
28 -0.15
29 -0.15
3 -0.57
30 -0.15
31 -0.15
32 -0.15
33 -0.29
34 -0.29
35 0.14
36 0.14
4 -0.57
48 0.4
49 0.4
5 -0.57
50 0.15
54 0.45
55 0.15
56 0.45
57 0.15
58 0.15
59 0.15
6 -0.53
60 0.15
61 0.15
62 0.15
7 -0.57
8 -0.53

> <PUBCHEM_EFFECTIVE_ROTOR_COUNT>
5.4

> <PUBCHEM_PHARMACOPHORE_FEATURES>
14
1 1 acceptor
1 1 donor
1 2 acceptor
1 2 donor
1 3 acceptor
1 35 hydrophobe
1 36 hydrophobe
1 4 acceptor
1 5 acceptor
1 6 donor
1 7 acceptor
1 8 donor
6 9 10 14 18 21 22 rings
8 9 10 11 12 13 15 16 17 rings

> <PUBCHEM_HEAVY_ATOM_COUNT>
36

> <PUBCHEM_ATOM_DEF_STEREO_COUNT>
6

> <PUBCHEM_ATOM_UDEF_STEREO_COUNT>
0

> <PUBCHEM_BOND_DEF_STEREO_COUNT>
5

> <PUBCHEM_BOND_UDEF_STEREO_COUNT>
0

> <PUBCHEM_ISOTOPIC_ATOM_COUNT>
0

> <PUBCHEM_COMPONENT_COUNT>
1

> <PUBCHEM_CACTVS_TAUTO_COUNT>
9

> <PUBCHEM_CONFORMER_ID>
00AD931900000001

> <PUBCHEM_MMFF94_ENERGY>
116.132

> <PUBCHEM_FEATURE_SELFOVERLAP>
71.102

> <PUBCHEM_SHAPE_FINGERPRINT>
10076449 9 18334293175578268948
10863032 1 17557727766850886725
10930396 42 18201420490519107136
1100329 8 18200877404167196575
11578080 2 16269943730946316752
12788726 201 18266763366640765180
13140716 1 18269275844702972319
13811026 1 18334295370285497227
14068700 675 18260270745883093644
14725015 67 18410290311653002616
14955137 171 18341332274857699275
15131766 46 16484418867766503336
15219462 58 16699478651558939155
15849732 13 18272650164263438027
16728300 4 18118389662804108394
16945 1 18044124343210054164
18393751 57 17417802960066178774
20691752 17 17825368929010953949
20905425 154 18264214608307962101
22121540 332 16557062226133635017
24893992 56 17677057940899261867
3178227 256 18269850842678170651
3383291 50 18335136484608792938
4340502 62 17060626598317699119
57527295 17 17836090348107497103
57527452 28 18408605863738746858
6086070 43 18340193134495649689
9896288 288 17914058599377856272

> <PUBCHEM_SHAPE_MULTIPOLES>
693.91
14.09
3.31
2.04
0.6
1.49
-0.62
-9.05
4.6
0.06
0.27
0.52
-0.18
-0.39

> <PUBCHEM_SHAPE_SELFOVERLAP>
1493.556

> <PUBCHEM_SHAPE_VOLUME>
374.1

> <PUBCHEM_COORDINATE_TYPE>
2
5
10

$$$$
