11386137
  -OEChem-03292013303D

 53 54  0     1  0  0  0  0  0999 V2000
    3.1200    3.4460    0.9416 Br  0  0  0  0  0  0  0  0  0  0  0  0
    0.2027   -1.1711    0.5234 O   0  0  0  0  0  0  0  0  0  0  0  0
   -1.5737    0.8910    0.0259 O   0  0  0  0  0  0  0  0  0  0  0  0
   -0.8262    1.5828   -2.0328 O   0  0  0  0  0  0  0  0  0  0  0  0
   -6.4733   -2.1552   -0.9388 O   0  5  0  0  0  0  0  0  0  0  0  0
   -4.3811   -1.8982   -1.5667 O   0  0  0  0  0  0  0  0  0  0  0  0
    1.0377    3.6795   -1.7834 O   0  0  0  0  0  0  0  0  0  0  0  0
   -3.9676   -0.4740    0.8798 N   0  0  0  0  0  0  0  0  0  0  0  0
   -6.0922    0.0856    0.7134 N   0  0  0  0  0  0  0  0  0  0  0  0
   -5.3398   -1.6154   -0.7928 N   0  3  0  0  0  0  0  0  0  0  0  0
   -0.0690    2.5624   -0.0606 N   0  0  0  0  0  0  0  0  0  0  0  0
    5.8235   -1.2610    0.0424 C   0  0  0  0  0  0  0  0  0  0  0  0
    4.3379   -1.2371    0.1693 C   0  0  0  0  0  0  0  0  0  0  0  0
    6.3769   -1.9723   -1.2370 C   0  0  0  0  0  0  0  0  0  0  0  0
    6.4114    0.1838    0.0006 C   0  0  0  0  0  0  0  0  0  0  0  0
    6.4825   -2.0020    1.2469 C   0  0  0  0  0  0  0  0  0  0  0  0
   -1.8636   -0.4297   -0.4454 C   0  0  2  0  0  0  0  0  0  0  0  0
   -2.6982   -1.1510    0.6148 C   0  0  0  0  0  0  0  0  0  0  0  0
    3.7420   -0.6263    1.2725 C   0  0  0  0  0  0  0  0  0  0  0  0
    3.5443   -1.8258   -0.8153 C   0  0  0  0  0  0  0  0  0  0  0  0
   -0.5438   -1.1555   -0.6884 C   0  0  0  0  0  0  0  0  0  0  0  0
    1.5672   -1.1928    0.4061 C   0  0  0  0  0  0  0  0  0  0  0  0
    2.3524   -0.6043    1.3914 C   0  0  0  0  0  0  0  0  0  0  0  0
    2.1546   -1.8037   -0.6966 C   0  0  0  0  0  0  0  0  0  0  0  0
   -5.1433   -0.6913    0.2398 C   0  0  0  0  0  0  0  0  0  0  0  0
   -4.1533    0.4893    1.8155 C   0  0  0  0  0  0  0  0  0  0  0  0
   -5.4815    0.8244    1.6955 C   0  0  0  0  0  0  0  0  0  0  0  0
   -0.8232    1.6696   -0.8093 C   0  0  0  0  0  0  0  0  0  0  0  0
    0.8098    3.5069   -0.5876 C   0  0  0  0  0  0  0  0  0  0  0  0
    1.4671    4.3452    0.4757 C   0  0  0  0  0  0  0  0  0  0  0  0
    7.4732   -1.9479   -1.2593 H   0  0  0  0  0  0  0  0  0  0  0  0
    6.0797   -3.0270   -1.2707 H   0  0  0  0  0  0  0  0  0  0  0  0
    6.0271   -1.4813   -2.1526 H   0  0  0  0  0  0  0  0  0  0  0  0
    6.1979    0.7392    0.9205 H   0  0  0  0  0  0  0  0  0  0  0  0
    7.5006    0.1679   -0.1220 H   0  0  0  0  0  0  0  0  0  0  0  0
    5.9866    0.7528   -0.8349 H   0  0  0  0  0  0  0  0  0  0  0  0
    6.2704   -1.5039    2.1994 H   0  0  0  0  0  0  0  0  0  0  0  0
    6.1105   -3.0307    1.3217 H   0  0  0  0  0  0  0  0  0  0  0  0
    7.5726   -2.0451    1.1405 H   0  0  0  0  0  0  0  0  0  0  0  0
   -2.4257   -0.3480   -1.3818 H   0  0  0  0  0  0  0  0  0  0  0  0
   -2.8999   -2.1961    0.3611 H   0  0  0  0  0  0  0  0  0  0  0  0
   -2.1705   -1.1593    1.5778 H   0  0  0  0  0  0  0  0  0  0  0  0
   -0.7451   -2.1894   -0.9943 H   0  0  0  0  0  0  0  0  0  0  0  0
    0.0072   -0.6625   -1.4965 H   0  0  0  0  0  0  0  0  0  0  0  0
    4.3356   -0.1597    2.0534 H   0  0  0  0  0  0  0  0  0  0  0  0
    3.9553   -2.3194   -1.6889 H   0  0  0  0  0  0  0  0  0  0  0  0
    1.8917   -0.1262    2.2512 H   0  0  0  0  0  0  0  0  0  0  0  0
    1.5748   -2.3004   -1.4686 H   0  0  0  0  0  0  0  0  0  0  0  0
   -3.3670    0.8490    2.4646 H   0  0  0  0  0  0  0  0  0  0  0  0
   -6.0290    1.5601    2.2664 H   0  0  0  0  0  0  0  0  0  0  0  0
   -0.1736    2.5085    0.9492 H   0  0  0  0  0  0  0  0  0  0  0  0
    0.8600    4.4335    1.3789 H   0  0  0  0  0  0  0  0  0  0  0  0
    1.7138    5.3359    0.0880 H   0  0  0  0  0  0  0  0  0  0  0  0
  1 30  1  0  0  0  0
  2 21  1  0  0  0  0
  2 22  1  0  0  0  0
  3 17  1  0  0  0  0
  3 28  1  0  0  0  0
  4 28  2  0  0  0  0
  5 10  1  0  0  0  0
  6 10  2  0  0  0  0
  7 29  2  0  0  0  0
  8 18  1  0  0  0  0
  8 25  1  0  0  0  0
  8 26  1  0  0  0  0
  9 25  2  0  0  0  0
  9 27  1  0  0  0  0
 10 25  1  0  0  0  0
 11 28  1  0  0  0  0
 11 29  1  0  0  0  0
 11 51  1  0  0  0  0
 12 13  1  0  0  0  0
 12 14  1  0  0  0  0
 12 15  1  0  0  0  0
 12 16  1  0  0  0  0
 13 19  2  0  0  0  0
 13 20  1  0  0  0  0
 14 31  1  0  0  0  0
 14 32  1  0  0  0  0
 14 33  1  0  0  0  0
 15 34  1  0  0  0  0
 15 35  1  0  0  0  0
 15 36  1  0  0  0  0
 16 37  1  0  0  0  0
 16 38  1  0  0  0  0
 16 39  1  0  0  0  0
 17 18  1  0  0  0  0
 17 21  1  0  0  0  0
 17 40  1  0  0  0  0
 18 41  1  0  0  0  0
 18 42  1  0  0  0  0
 19 23  1  0  0  0  0
 19 45  1  0  0  0  0
 20 24  2  0  0  0  0
 20 46  1  0  0  0  0
 21 43  1  0  0  0  0
 21 44  1  0  0  0  0
 22 23  2  0  0  0  0
 22 24  1  0  0  0  0
 23 47  1  0  0  0  0
 24 48  1  0  0  0  0
 26 27  2  0  0  0  0
 26 49  1  0  0  0  0
 27 50  1  0  0  0  0
 29 30  1  0  0  0  0
 30 52  1  0  0  0  0
 30 53  1  0  0  0  0
M  CHG  2   5  -1  10   1
M  END
> <PUBCHEM_COMPOUND_CID>
11386137

> <PUBCHEM_CONFORMER_RMSD>
1

> <PUBCHEM_CONFORMER_DIVERSEORDER>
1
90
183
173
15
113
155
46
142
122
23
130
94
49
152
153
116
161
139
44
78
45
171
106
84
117
14
35
43
48
166
174
170
71
54
184
32
74
24
149
141
147
103
97
22
102
114
33
40
31
159
121
75
68
150
189
115
91
107
146
72
61
109
10
154
47
136
168
39
175
59
160
89
69
26
4
80
135
93
86
100
128
50
85
104
87
41
30
176
185
125
95
3
118
163
70
191
124
42
127
110
151
132
162
19
79
66
77
63
13
148
55
143
177
98
108
119
20
51
126
53
5
140
67
134
157
36
144
172
28
99
190
181
111
11
131
76
180
92
25
81
18
12
182
83
188
65
178
105
133
169
156
16
17
186
165
62
179
56
187
57
58
7
52
73
82
8
21
138
123
38
2
145
60
29
112
137
164
129
167
37
101
9
96
64
6
27
120
88
158
34

> <PUBCHEM_MMFF94_PARTIAL_CHARGES>
34
1 -0.23
10 0.96
11 -0.49
12 0.14
13 -0.14
17 0.28
18 0.26
19 -0.15
2 -0.36
20 -0.15
21 0.28
22 0.08
23 -0.15
24 -0.15
25 0.27
26 -0.3
27 0.08
28 0.78
29 0.57
3 -0.43
30 0.29
4 -0.57
45 0.15
46 0.15
47 0.15
48 0.15
49 0.15
5 -0.52
50 0.15
51 0.37
6 -0.52
7 -0.57
8 0.05
9 -0.57

> <PUBCHEM_EFFECTIVE_ROTOR_COUNT>
12

> <PUBCHEM_PHARMACOPHORE_FEATURES>
11
1 1 hydrophobe
1 11 donor
1 2 acceptor
1 4 acceptor
1 5 acceptor
1 6 acceptor
1 7 acceptor
4 12 14 15 16 hydrophobe
4 8 9 10 25 cation
5 8 9 25 26 27 rings
6 13 19 20 22 23 24 rings

> <PUBCHEM_HEAVY_ATOM_COUNT>
30

> <PUBCHEM_ATOM_DEF_STEREO_COUNT>
1

> <PUBCHEM_ATOM_UDEF_STEREO_COUNT>
0

> <PUBCHEM_BOND_DEF_STEREO_COUNT>
0

> <PUBCHEM_BOND_UDEF_STEREO_COUNT>
0

> <PUBCHEM_ISOTOPIC_ATOM_COUNT>
0

> <PUBCHEM_COMPONENT_COUNT>
1

> <PUBCHEM_CACTVS_TAUTO_COUNT>
3

> <PUBCHEM_CONFORMER_ID>
00ADBD1900000001

> <PUBCHEM_MMFF94_ENERGY>
85.7679

> <PUBCHEM_FEATURE_SELFOVERLAP>
55.905

> <PUBCHEM_SHAPE_FINGERPRINT>
10006869 2 17759522162926673497
12107183 9 18271816666437223321
12156800 1 16770459892607597232
12166972 35 18202002161491283451
12516196 113 18335424547463584563
12717326 120 16011288049066738507
12741549 16 17989196019826370136
12788726 201 17823416007112515874
13782708 43 18130507418982121310
14068700 675 18272934916352989073
14347332 77 18191301568829140002
14739800 52 17415837144354599969
14955137 171 18411708689931317200
15021287 119 18343582953827507123
15927050 60 17835529593452238396
17980427 23 18131358501258313055
1813 80 18409731742344391023
21304253 13 18341336599990382801
23352939 185 18341901788069872600
23522609 53 18198085658382422168
23559900 14 16877949385850878381
24771293 8 18272086137006474728
27425 322 14117216392330343602
4149490 64 18265335196216609147
469060 322 18044954389170207696
513532 50 17773890851525050604
5171179 24 18335406994212152205
67856867 119 18271809085956647145
69474 34 18409735045153253073

> <PUBCHEM_SHAPE_MULTIPOLES>
568.19
15.9
4.19
1.56
3.38
6.48
0.07
-12.33
-2.55
-2.97
1
0.55
0.25
-0.84

> <PUBCHEM_SHAPE_SELFOVERLAP>
1172.336

> <PUBCHEM_SHAPE_VOLUME>
332.4

> <PUBCHEM_COORDINATE_TYPE>
2
5
10

$$$$
