11393719
  -OEChem-03292013303D

 47 50  0     0  0  0  0  0  0999 V2000
    4.4850   -2.7643   -0.4519 O   0  0  0  0  0  0  0  0  0  0  0  0
   -2.5598    0.2060    0.5447 N   0  0  0  0  0  0  0  0  0  0  0  0
   -6.5315   -1.3134    0.4033 N   0  0  0  0  0  0  0  0  0  0  0  0
    1.1373   -0.0187   -0.2757 N   0  0  0  0  0  0  0  0  0  0  0  0
    2.7631    1.4325    0.1639 N   0  0  0  0  0  0  0  0  0  0  0  0
   -0.0118    3.8828    0.0329 N   0  0  0  0  0  0  0  0  0  0  0  0
    3.3477   -2.0121   -0.7525 N   0  0  0  0  0  0  0  0  0  0  0  0
    5.2994   -2.1026    0.4690 N   0  0  0  0  0  0  0  0  0  0  0  0
    5.0607    0.0206    1.5626 N   0  0  0  0  0  0  0  0  0  0  0  0
   -3.6745   -0.6840    0.2284 C   0  0  0  0  0  0  0  0  0  0  0  0
   -4.3175   -1.2075    1.5169 C   0  0  0  0  0  0  0  0  0  0  0  0
   -4.7225    0.0322   -0.6310 C   0  0  0  0  0  0  0  0  0  0  0  0
   -5.5530   -2.0531    1.2045 C   0  0  0  0  0  0  0  0  0  0  0  0
   -5.9421   -0.8618   -0.8598 C   0  0  0  0  0  0  0  0  0  0  0  0
   -1.9335    0.7026   -0.6714 C   0  0  0  0  0  0  0  0  0  0  0  0
   -0.7771    1.6193   -0.3728 C   0  0  0  0  0  0  0  0  0  0  0  0
    0.5282    1.2082   -0.2180 C   0  0  0  0  0  0  0  0  0  0  0  0
    1.5633    2.0959    0.0574 C   0  0  0  0  0  0  0  0  0  0  0  0
    2.4716    0.1673   -0.0411 C   0  0  0  0  0  0  0  0  0  0  0  0
    0.4918   -1.2861   -0.5376 C   0  0  0  0  0  0  0  0  0  0  0  0
   -0.9826    2.9748   -0.2348 C   0  0  0  0  0  0  0  0  0  0  0  0
    1.2660    3.4533    0.1810 C   0  0  0  0  0  0  0  0  0  0  0  0
    3.4809   -0.9123   -0.0183 C   0  0  0  0  0  0  0  0  0  0  0  0
    0.4538   -1.6165   -2.0198 C   0  0  0  0  0  0  0  0  0  0  0  0
    4.6572   -0.9632    0.7202 C   0  0  0  0  0  0  0  0  0  0  0  0
   -3.2898   -1.5503   -0.3271 H   0  0  0  0  0  0  0  0  0  0  0  0
   -4.6097   -0.3695    2.1641 H   0  0  0  0  0  0  0  0  0  0  0  0
   -3.5962   -1.8101    2.0824 H   0  0  0  0  0  0  0  0  0  0  0  0
   -4.3360    0.2847   -1.6238 H   0  0  0  0  0  0  0  0  0  0  0  0
   -5.0410    0.9676   -0.1519 H   0  0  0  0  0  0  0  0  0  0  0  0
   -5.2602   -2.9735    0.6843 H   0  0  0  0  0  0  0  0  0  0  0  0
   -6.0258   -2.3554    2.1453 H   0  0  0  0  0  0  0  0  0  0  0  0
   -6.6984   -0.2992   -1.4183 H   0  0  0  0  0  0  0  0  0  0  0  0
   -5.6681   -1.7270   -1.4763 H   0  0  0  0  0  0  0  0  0  0  0  0
   -2.8977    0.9916    1.1009 H   0  0  0  0  0  0  0  0  0  0  0  0
   -7.3290   -1.9170    0.2053 H   0  0  0  0  0  0  0  0  0  0  0  0
   -2.6354    1.3200   -1.2445 H   0  0  0  0  0  0  0  0  0  0  0  0
   -1.6576   -0.0964   -1.3580 H   0  0  0  0  0  0  0  0  0  0  0  0
    1.0166   -2.0702    0.0171 H   0  0  0  0  0  0  0  0  0  0  0  0
   -0.4999   -1.2926   -0.0893 H   0  0  0  0  0  0  0  0  0  0  0  0
   -1.9743    3.4076   -0.3342 H   0  0  0  0  0  0  0  0  0  0  0  0
    2.0105    4.2101    0.3941 H   0  0  0  0  0  0  0  0  0  0  0  0
   -0.0554   -0.8419   -2.6009 H   0  0  0  0  0  0  0  0  0  0  0  0
   -0.0744   -2.5618   -2.1794 H   0  0  0  0  0  0  0  0  0  0  0  0
    1.4539   -1.7168   -2.4497 H   0  0  0  0  0  0  0  0  0  0  0  0
    4.5293    0.8722    1.7169 H   0  0  0  0  0  0  0  0  0  0  0  0
    5.9266   -0.0467    2.0884 H   0  0  0  0  0  0  0  0  0  0  0  0
  1  7  1  0  0  0  0
  1  8  1  0  0  0  0
  2 10  1  0  0  0  0
  2 15  1  0  0  0  0
  2 35  1  0  0  0  0
  3 13  1  0  0  0  0
  3 14  1  0  0  0  0
  3 36  1  0  0  0  0
  4 17  1  0  0  0  0
  4 19  1  0  0  0  0
  4 20  1  0  0  0  0
  5 18  1  0  0  0  0
  5 19  2  0  0  0  0
  6 21  1  0  0  0  0
  6 22  2  0  0  0  0
  7 23  2  0  0  0  0
  8 25  2  0  0  0  0
  9 25  1  0  0  0  0
  9 46  1  0  0  0  0
  9 47  1  0  0  0  0
 10 11  1  0  0  0  0
 10 12  1  0  0  0  0
 10 26  1  0  0  0  0
 11 13  1  0  0  0  0
 11 27  1  0  0  0  0
 11 28  1  0  0  0  0
 12 14  1  0  0  0  0
 12 29  1  0  0  0  0
 12 30  1  0  0  0  0
 13 31  1  0  0  0  0
 13 32  1  0  0  0  0
 14 33  1  0  0  0  0
 14 34  1  0  0  0  0
 15 16  1  0  0  0  0
 15 37  1  0  0  0  0
 15 38  1  0  0  0  0
 16 17  1  0  0  0  0
 16 21  2  0  0  0  0
 17 18  2  0  0  0  0
 18 22  1  0  0  0  0
 19 23  1  0  0  0  0
 20 24  1  0  0  0  0
 20 39  1  0  0  0  0
 20 40  1  0  0  0  0
 21 41  1  0  0  0  0
 22 42  1  0  0  0  0
 23 25  1  0  0  0  0
 24 43  1  0  0  0  0
 24 44  1  0  0  0  0
 24 45  1  0  0  0  0
M  END
> <PUBCHEM_COMPOUND_CID>
11393719

> <PUBCHEM_CONFORMER_RMSD>
0.8

> <PUBCHEM_CONFORMER_DIVERSEORDER>
1
29
13
23
11
28
15
27
14
18
35
17
21
39
24
31
38
4
36
3
7
25
40
33
26
5
34
2
30
32
12
20
9
37
8
19
22
6
16
10

> <PUBCHEM_MMFF94_PARTIAL_CHARGES>
28
1 0.24
10 0.27
13 0.27
14 0.27
15 0.41
16 -0.14
17 -0.15
18 0.23
19 0.19
2 -0.9
20 0.26
21 0.16
22 0.16
23 0.29
25 0.37
3 -0.9
35 0.36
36 0.36
4 0.05
41 0.15
42 0.15
46 0.4
47 0.4
5 -0.57
6 -0.62
7 -0.41
8 -0.41
9 -0.88

> <PUBCHEM_EFFECTIVE_ROTOR_COUNT>
6.2

> <PUBCHEM_PHARMACOPHORE_FEATURES>
13
1 2 cation
1 2 donor
1 3 cation
1 3 donor
1 6 acceptor
1 7 acceptor
1 9 donor
3 4 5 19 cation
3 8 9 25 cation
5 1 7 8 23 25 rings
5 4 5 17 18 19 rings
6 3 10 11 12 13 14 rings
6 6 16 17 18 21 22 rings

> <PUBCHEM_HEAVY_ATOM_COUNT>
25

> <PUBCHEM_ATOM_DEF_STEREO_COUNT>
0

> <PUBCHEM_ATOM_UDEF_STEREO_COUNT>
0

> <PUBCHEM_BOND_DEF_STEREO_COUNT>
0

> <PUBCHEM_BOND_UDEF_STEREO_COUNT>
0

> <PUBCHEM_ISOTOPIC_ATOM_COUNT>
0

> <PUBCHEM_COMPONENT_COUNT>
1

> <PUBCHEM_CACTVS_TAUTO_COUNT>
2

> <PUBCHEM_CONFORMER_ID>
00ADDAB700000001

> <PUBCHEM_MMFF94_ENERGY>
33.3133

> <PUBCHEM_FEATURE_SELFOVERLAP>
66.087

> <PUBCHEM_SHAPE_FINGERPRINT>
10076449 9 17845947243330682558
10411042 1 18410856521222584268
105312 117 10303799978320863400
10622 236 17628895010412230991
10688039 33 18333448720557200364
11545043 162 17603867836635435579
11796584 16 17530959190015841083
12107183 9 18269287789962240497
12363563 72 18335433347877551651
12422481 6 17560518395876119583
12516196 113 18409445890701164107
12553582 1 18342174488206559156
13134695 92 18338234972372866533
13140716 1 17765425835719484856
13533116 47 18267027331404425521
13544653 18 18408326575089949565
13782708 43 17968381273145421163
13911852 28 18411136896688043855
13955234 65 18125161795142356993
14178342 30 17987250927753713329
14790565 3 17544476813712606404
14866123 147 18193278482187833177
15352361 1 18409167692816012323
15475509 84 17989496203691970513
15927050 60 17764592410337111604
17492 89 18193838142249124310
1813 80 18272664423639133805
18222031 100 18272377468247054622
1979834 28 17775297057707884215
20028762 73 18130504227710800367
20261772 1 18131343103468585462
20567600 70 18261391199702404714
20645477 70 18264204876255122997
21033650 10 16226038960745401437
21065201 7 17095795646822750113
21267235 1 18341050732021452102
21279426 13 18187356615718675525
23559900 14 17749669705560193493
3004659 81 17822013107706398526
314194 84 18340767138908186439
3421961 26 18338799017289636681
4015057 19 18266731558613539371
465052 167 18411423929151826255
5104073 3 18127397957480511226
5309563 4 18411420570693317327
56633871 153 18202279186866759207
77188 2 18410012139042574692
7808743 9 10447631488133421015
7970288 3 18409165472102506579
8863177 126 17897174717997019987
9709674 26 18044379559664039571

> <PUBCHEM_SHAPE_MULTIPOLES>
468.77
12.78
3.6
1.18
11.65
3.1
0.06
-11.99
-3.64
-2.45
0.06
0.39
-0.64
1.07

> <PUBCHEM_SHAPE_SELFOVERLAP>
1011.096

> <PUBCHEM_SHAPE_VOLUME>
256.2

> <PUBCHEM_COORDINATE_TYPE>
2
5
10

$$$$
