11390
  -OEChem-03292013323D

 26 27  0     0  0  0  0  0  0999 V2000
    4.2437    0.1355    0.0481 S   0  0  0  0  0  0  0  0  0  0  0  0
   -4.2438   -0.1354    0.0480 S   0  0  0  0  0  0  0  0  0  0  0  0
    4.6664    0.2108   -1.5294 O   0  0  0  0  0  0  0  0  0  0  0  0
   -4.6655   -0.2115   -1.5297 O   0  0  0  0  0  0  0  0  0  0  0  0
    4.4636    1.4600    0.6103 O   0  0  0  0  0  0  0  0  0  0  0  0
    4.8827   -1.0336    0.6316 O   0  0  0  0  0  0  0  0  0  0  0  0
   -4.4640   -1.4596    0.6108 O   0  0  0  0  0  0  0  0  0  0  0  0
   -4.8831    1.0341    0.6305 O   0  0  0  0  0  0  0  0  0  0  0  0
    0.2403    0.6654    0.0480 C   0  0  0  0  0  0  0  0  0  0  0  0
   -0.2402   -0.6657    0.0480 C   0  0  0  0  0  0  0  0  0  0  0  0
    2.5246   -0.1714    0.0477 C   0  0  0  0  0  0  0  0  0  0  0  0
   -2.5246    0.1715    0.0486 C   0  0  0  0  0  0  0  0  0  0  0  0
    1.6256    0.8955    0.0476 C   0  0  0  0  0  0  0  0  0  0  0  0
   -1.6257   -0.8956    0.0482 C   0  0  0  0  0  0  0  0  0  0  0  0
    0.6789   -1.7275    0.0478 C   0  0  0  0  0  0  0  0  0  0  0  0
   -0.6788    1.7275    0.0479 C   0  0  0  0  0  0  0  0  0  0  0  0
    2.0520   -1.4805    0.0478 C   0  0  0  0  0  0  0  0  0  0  0  0
   -2.0520    1.4806    0.0481 C   0  0  0  0  0  0  0  0  0  0  0  0
    1.9943    1.9194    0.0398 H   0  0  0  0  0  0  0  0  0  0  0  0
   -1.9946   -1.9193    0.0404 H   0  0  0  0  0  0  0  0  0  0  0  0
    0.3321   -2.7589    0.0461 H   0  0  0  0  0  0  0  0  0  0  0  0
   -0.3319    2.7587    0.0458 H   0  0  0  0  0  0  0  0  0  0  0  0
    2.7326   -2.3272    0.0398 H   0  0  0  0  0  0  0  0  0  0  0  0
   -2.7325    2.3273    0.0399 H   0  0  0  0  0  0  0  0  0  0  0  0
    4.2381    0.9320   -2.0478 H   0  0  0  0  0  0  0  0  0  0  0  0
   -4.2368   -0.9330   -2.0475 H   0  0  0  0  0  0  0  0  0  0  0  0
  1  3  1  0  0  0  0
  1  5  2  0  0  0  0
  1  6  2  0  0  0  0
  1 11  1  0  0  0  0
  2  4  1  0  0  0  0
  2  7  2  0  0  0  0
  2  8  2  0  0  0  0
  2 12  1  0  0  0  0
  3 25  1  0  0  0  0
  4 26  1  0  0  0  0
  9 10  2  0  0  0  0
  9 13  1  0  0  0  0
  9 16  1  0  0  0  0
 10 14  1  0  0  0  0
 10 15  1  0  0  0  0
 11 13  2  0  0  0  0
 11 17  1  0  0  0  0
 12 14  2  0  0  0  0
 12 18  1  0  0  0  0
 13 19  1  0  0  0  0
 14 20  1  0  0  0  0
 15 17  2  0  0  0  0
 15 21  1  0  0  0  0
 16 18  2  0  0  0  0
 16 22  1  0  0  0  0
 17 23  1  0  0  0  0
 18 24  1  0  0  0  0
M  END
> <PUBCHEM_COMPOUND_CID>
11390

> <PUBCHEM_CONFORMER_RMSD>
0.6

> <PUBCHEM_CONFORMER_DIVERSEORDER>
1
2

> <PUBCHEM_MMFF94_PARTIAL_CHARGES>
24
1 1.49
11 -0.01
12 -0.01
13 -0.15
14 -0.15
15 -0.15
16 -0.15
17 -0.15
18 -0.15
19 0.15
2 1.49
20 0.15
21 0.15
22 0.15
23 0.15
24 0.15
25 0.5
26 0.5
3 -0.68
4 -0.68
5 -0.65
6 -0.65
7 -0.65
8 -0.65

> <PUBCHEM_EFFECTIVE_ROTOR_COUNT>
2

> <PUBCHEM_PHARMACOPHORE_FEATURES>
10
1 3 acceptor
1 4 acceptor
1 5 acceptor
1 6 acceptor
1 7 acceptor
1 8 acceptor
4 1 3 5 6 anion
4 2 4 7 8 anion
6 9 10 11 13 15 17 rings
6 9 10 12 14 16 18 rings

> <PUBCHEM_HEAVY_ATOM_COUNT>
18

> <PUBCHEM_ATOM_DEF_STEREO_COUNT>
0

> <PUBCHEM_ATOM_UDEF_STEREO_COUNT>
0

> <PUBCHEM_BOND_DEF_STEREO_COUNT>
0

> <PUBCHEM_BOND_UDEF_STEREO_COUNT>
0

> <PUBCHEM_ISOTOPIC_ATOM_COUNT>
0

> <PUBCHEM_COMPONENT_COUNT>
1

> <PUBCHEM_CACTVS_TAUTO_COUNT>
1

> <PUBCHEM_CONFORMER_ID>
00002C7E00000001

> <PUBCHEM_MMFF94_ENERGY>
31.7266

> <PUBCHEM_FEATURE_SELFOVERLAP>
50.888

> <PUBCHEM_SHAPE_FINGERPRINT>
11401426 45 18411696591282646853
11471102 20 18410006641488684108
11806522 49 18409729577580536429
12403259 226 18264481802930292252
12403259 415 18409158888566104860
13214271 11 18412545410222805071
13760787 5 18260829284661761662
13862211 1 18412257346054443583
14576447 43 18200859777906536775
14787075 74 18343016722286722912
15196674 1 18410575088958046353
15375358 24 18334295370448975643
15536298 74 18271247118870345430
15788980 27 16732982016144587891
16945 1 18410575084663078954
17349148 13 18113059328630666316
17834072 33 17275099565524850301
200 152 18201996634195368449
20510252 161 18200877279323254985
21029758 11 18343014510716584753
21267235 1 18410300177250877434
22854114 59 18343863325039548088
23402539 116 18272082795131242309
23402655 69 18341888533790175861
23557571 272 18200604583370525492
23559900 14 18122618349805963850
2871803 45 18408600336083733486
296302 2 16950567683432004383
34797466 226 16128096770612526632
34934 24 18337667525931064227
4072396 5 18262222357626193722
474229 33 18410571803577408490
4990 188 17775573018014677636
5104073 3 18410856520985084921
5374978 207 18408598163426374496
537710 114 18408327691929210964
542803 24 17240204330607907437
69090 78 18060414737815672702
9709674 26 18340210674134303622

> <PUBCHEM_SHAPE_MULTIPOLES>
342.91
10.43
1.65
0.86
0
0
0.26
0
0.42
0
-0.19
0
0
-0.08

> <PUBCHEM_SHAPE_SELFOVERLAP>
720.707

> <PUBCHEM_SHAPE_VOLUME>
193.7

> <PUBCHEM_COORDINATE_TYPE>
2
5
10

$$$$
