11397521
  -OEChem-03292013303D

 60 63  0     0  0  0  0  0  0999 V2000
    6.4164    2.1727    0.5217 S   0  0  0  0  0  0  0  0  0  0  0  0
    7.4389    2.0595    1.5437 O   0  0  0  0  0  0  0  0  0  0  0  0
    6.4642    3.2359   -0.4629 O   0  0  0  0  0  0  0  0  0  0  0  0
    2.4266    1.2523   -2.1519 O   0  0  0  0  0  0  0  0  0  0  0  0
   -0.5269    0.9403   -0.4872 O   0  0  0  0  0  0  0  0  0  0  0  0
   -9.1445    0.6262    0.6495 O   0  0  0  0  0  0  0  0  0  0  0  0
    1.7344   -0.6173   -0.9012 N   0  0  0  0  0  0  0  0  0  0  0  0
   -1.8508   -0.8341   -1.2730 N   0  0  0  0  0  0  0  0  0  0  0  0
   -7.2687    1.7953    1.0118 N   0  0  0  0  0  0  0  0  0  0  0  0
   -8.1050   -0.1182    0.0777 N   0  0  0  0  0  0  0  0  0  0  0  0
    3.7893    0.6408   -0.3419 C   0  0  0  0  0  0  0  0  0  0  0  0
    3.6906    1.9982    0.3648 C   0  0  0  0  0  0  0  0  0  0  0  0
    5.0676    0.5063   -1.1784 C   0  0  0  0  0  0  0  0  0  0  0  0
    4.8361    2.2345    1.3368 C   0  0  0  0  0  0  0  0  0  0  0  0
    6.3299    0.6169   -0.3372 C   0  0  0  0  0  0  0  0  0  0  0  0
    2.5926    0.4511   -1.2287 C   0  0  0  0  0  0  0  0  0  0  0  0
    2.0710   -1.5618    0.1450 C   0  0  0  0  0  0  0  0  0  0  0  0
    0.5059   -0.8894   -1.6631 C   0  0  0  0  0  0  0  0  0  0  0  0
    2.7821   -2.6820   -0.1980 C   0  0  0  0  0  0  0  0  0  0  0  0
    1.6612   -1.2853    1.4234 C   0  0  0  0  0  0  0  0  0  0  0  0
   -0.6661   -0.1331   -1.0643 C   0  0  0  0  0  0  0  0  0  0  0  0
    3.1065   -3.5909    0.8091 C   0  0  0  0  0  0  0  0  0  0  0  0
    1.9856   -2.1941    2.4307 C   0  0  0  0  0  0  0  0  0  0  0  0
    3.2227   -2.9715   -1.5965 C   0  0  0  0  0  0  0  0  0  0  0  0
    0.8860   -0.0595    1.7839 C   0  0  0  0  0  0  0  0  0  0  0  0
    2.7083   -3.3468    2.1235 C   0  0  0  0  0  0  0  0  0  0  0  0
   -3.1553   -0.4636   -0.8682 C   0  0  0  0  0  0  0  0  0  0  0  0
   -4.2196   -1.2972   -1.1688 C   0  0  0  0  0  0  0  0  0  0  0  0
   -3.3400    0.7243   -0.1808 C   0  0  0  0  0  0  0  0  0  0  0  0
   -5.5057   -0.9324   -0.7704 C   0  0  0  0  0  0  0  0  0  0  0  0
   -4.6260    1.0891    0.2178 C   0  0  0  0  0  0  0  0  0  0  0  0
   -5.7088    0.2608   -0.0771 C   0  0  0  0  0  0  0  0  0  0  0  0
   -7.0327    0.6362    0.3330 C   0  0  0  0  0  0  0  0  0  0  0  0
   -8.5659    1.7368    1.1770 C   0  0  0  0  0  0  0  0  0  0  0  0
    3.8647   -0.1084    0.4454 H   0  0  0  0  0  0  0  0  0  0  0  0
    3.6803    2.8033   -0.3819 H   0  0  0  0  0  0  0  0  0  0  0  0
    2.7490    2.0888    0.9116 H   0  0  0  0  0  0  0  0  0  0  0  0
    5.0741   -0.4565   -1.7005 H   0  0  0  0  0  0  0  0  0  0  0  0
    5.0845    1.2762   -1.9608 H   0  0  0  0  0  0  0  0  0  0  0  0
    4.7527    3.2209    1.8032 H   0  0  0  0  0  0  0  0  0  0  0  0
    4.8435    1.4777    2.1279 H   0  0  0  0  0  0  0  0  0  0  0  0
    7.2229    0.5447   -0.9654 H   0  0  0  0  0  0  0  0  0  0  0  0
    6.3719   -0.1770    0.4156 H   0  0  0  0  0  0  0  0  0  0  0  0
    0.3172   -1.9681   -1.6840 H   0  0  0  0  0  0  0  0  0  0  0  0
    0.6377   -0.5378   -2.6923 H   0  0  0  0  0  0  0  0  0  0  0  0
    3.6711   -4.4920    0.5844 H   0  0  0  0  0  0  0  0  0  0  0  0
    1.6802   -2.0183    3.4588 H   0  0  0  0  0  0  0  0  0  0  0  0
    3.2156   -4.0518   -1.7829 H   0  0  0  0  0  0  0  0  0  0  0  0
    2.5774   -2.5310   -2.3599 H   0  0  0  0  0  0  0  0  0  0  0  0
    4.2434   -2.6100   -1.7497 H   0  0  0  0  0  0  0  0  0  0  0  0
    1.1332    0.8059    1.1759 H   0  0  0  0  0  0  0  0  0  0  0  0
    1.1111    0.2383    2.8154 H   0  0  0  0  0  0  0  0  0  0  0  0
   -0.1869   -0.2665    1.7336 H   0  0  0  0  0  0  0  0  0  0  0  0
    2.9611   -4.0545    2.9078 H   0  0  0  0  0  0  0  0  0  0  0  0
   -1.7953   -1.7154   -1.7788 H   0  0  0  0  0  0  0  0  0  0  0  0
   -4.0720   -2.2286   -1.7083 H   0  0  0  0  0  0  0  0  0  0  0  0
   -2.5548    1.4166    0.0846 H   0  0  0  0  0  0  0  0  0  0  0  0
   -6.3248   -1.6030   -1.0179 H   0  0  0  0  0  0  0  0  0  0  0  0
   -4.7530    2.0248    0.7568 H   0  0  0  0  0  0  0  0  0  0  0  0
   -9.2179    2.4425    1.6680 H   0  0  0  0  0  0  0  0  0  0  0  0
  1  2  2  0  0  0  0
  1  3  2  0  0  0  0
  1 14  1  0  0  0  0
  1 15  1  0  0  0  0
  4 16  2  0  0  0  0
  5 21  2  0  0  0  0
  6 10  1  0  0  0  0
  6 34  1  0  0  0  0
  7 16  1  0  0  0  0
  7 17  1  0  0  0  0
  7 18  1  0  0  0  0
  8 21  1  0  0  0  0
  8 27  1  0  0  0  0
  8 55  1  0  0  0  0
  9 33  1  0  0  0  0
  9 34  2  0  0  0  0
 10 33  2  0  0  0  0
 11 12  1  0  0  0  0
 11 13  1  0  0  0  0
 11 16  1  0  0  0  0
 11 35  1  0  0  0  0
 12 14  1  0  0  0  0
 12 36  1  0  0  0  0
 12 37  1  0  0  0  0
 13 15  1  0  0  0  0
 13 38  1  0  0  0  0
 13 39  1  0  0  0  0
 14 40  1  0  0  0  0
 14 41  1  0  0  0  0
 15 42  1  0  0  0  0
 15 43  1  0  0  0  0
 17 19  2  0  0  0  0
 17 20  1  0  0  0  0
 18 21  1  0  0  0  0
 18 44  1  0  0  0  0
 18 45  1  0  0  0  0
 19 22  1  0  0  0  0
 19 24  1  0  0  0  0
 20 23  2  0  0  0  0
 20 25  1  0  0  0  0
 22 26  2  0  0  0  0
 22 46  1  0  0  0  0
 23 26  1  0  0  0  0
 23 47  1  0  0  0  0
 24 48  1  0  0  0  0
 24 49  1  0  0  0  0
 24 50  1  0  0  0  0
 25 51  1  0  0  0  0
 25 52  1  0  0  0  0
 25 53  1  0  0  0  0
 26 54  1  0  0  0  0
 27 28  2  0  0  0  0
 27 29  1  0  0  0  0
 28 30  1  0  0  0  0
 28 56  1  0  0  0  0
 29 31  2  0  0  0  0
 29 57  1  0  0  0  0
 30 32  2  0  0  0  0
 30 58  1  0  0  0  0
 31 32  1  0  0  0  0
 31 59  1  0  0  0  0
 32 33  1  0  0  0  0
 34 60  1  0  0  0  0
M  END
> <PUBCHEM_COMPOUND_CID>
11397521

> <PUBCHEM_CONFORMER_RMSD>
1

> <PUBCHEM_CONFORMER_DIVERSEORDER>
1
12
19
10
26
9
6
3
5
24
27
13
28
31
15
16
14
11
20
4
8
29
2
18
17
25
7
21
23
22
30

> <PUBCHEM_MMFF94_PARTIAL_CHARGES>
41
1 1.09
10 -0.41
11 0.06
14 0.11
15 0.11
16 0.57
17 0.12
18 0.36
19 -0.14
2 -0.65
20 -0.14
21 0.57
22 -0.15
23 -0.15
24 0.14
25 0.14
26 -0.15
27 0.12
28 -0.15
29 -0.15
3 -0.65
30 -0.15
31 -0.15
32 0.05
33 0.46
34 0.33
4 -0.57
46 0.15
47 0.15
5 -0.57
54 0.15
55 0.37
56 0.15
57 0.15
58 0.15
59 0.15
6 -0.02
60 0.15
7 -0.48
8 -0.55
9 -0.57

> <PUBCHEM_EFFECTIVE_ROTOR_COUNT>
9

> <PUBCHEM_PHARMACOPHORE_FEATURES>
10
1 2 acceptor
1 3 acceptor
1 4 acceptor
1 5 acceptor
1 8 donor
3 9 10 33 cation
5 6 9 10 33 34 rings
6 1 11 12 13 14 15 rings
6 17 19 20 22 23 26 rings
6 27 28 29 30 31 32 rings

> <PUBCHEM_HEAVY_ATOM_COUNT>
34

> <PUBCHEM_ATOM_DEF_STEREO_COUNT>
0

> <PUBCHEM_ATOM_UDEF_STEREO_COUNT>
0

> <PUBCHEM_BOND_DEF_STEREO_COUNT>
0

> <PUBCHEM_BOND_UDEF_STEREO_COUNT>
0

> <PUBCHEM_ISOTOPIC_ATOM_COUNT>
0

> <PUBCHEM_COMPONENT_COUNT>
1

> <PUBCHEM_CACTVS_TAUTO_COUNT>
3

> <PUBCHEM_CONFORMER_ID>
00ADE99100000001

> <PUBCHEM_MMFF94_ENERGY>
112.8909

> <PUBCHEM_FEATURE_SELFOVERLAP>
50.765

> <PUBCHEM_SHAPE_FINGERPRINT>
10190108 129 18187081733337591652
10816530 90 16773787126171591224
11534866 41 17530969103053425483
11607047 141 18198632025108488655
11621639 336 18130509622089640616
1200032 147 18272936033049695258
12522641 24 18410009902107678178
12539765 74 18270689787520274692
12778500 126 18271526403271251871
13073987 5 18041842801660584349
13533116 47 18114185181920850155
13540713 4 17242714416896409206
13692114 37 18042122235868946770
13835254 42 18042123159524396461
14118638 360 18260829246751432773
14251757 52 18059857259882811953
14347424 109 18337390414614953875
14394314 77 18412266130291575873
14565420 104 18409163350957621048
14675020 138 16732984206440883051
15183329 4 12607412104296239773
15347590 135 18187361026054606761
15840311 113 18343305860081364260
16994733 274 17988639761516605632
20505436 4 18272647978336425878
20511986 3 18410846664567942127
20771845 65 17843402883061338446
21781055 127 18409733993947055764
22149856 69 16154278187844821365
22224240 67 17967809500684880724
22956985 138 16300892527132688514
23559900 14 14836118896980647231
23576562 1 13326276148121264249
25269216 80 15625927791054886909
3178227 256 17167861997861599644
3411729 13 18411698794680173158
4073 2 18337396045164215027
4093350 32 18340773654484902731
4149490 64 18261114058411519275
4340502 62 18040435498926324462
4516262 110 18410002256612178381
4874694 18 17749385984695629179
5104073 3 18115583721977677653
5109719 28 18040721393561936236
5385378 56 18259697896425297770
54076057 255 17060336340264503432
5758199 1 18334013929853076324
58260988 521 16153973696085436098
58260988 587 18334014991306376930
70251023 43 18121225281621958210

> <PUBCHEM_SHAPE_MULTIPOLES>
654.28
22.44
3.4
1.88
45.98
1.75
0.4
-17.66
5.9
-6.96
1.26
-1.49
0.81
-1.43

> <PUBCHEM_SHAPE_SELFOVERLAP>
1400.895

> <PUBCHEM_SHAPE_VOLUME>
362.8

> <PUBCHEM_COORDINATE_TYPE>
2
5
10

$$$$
