11394232
  -OEChem-03292013303D

 48 51  0     1  0  0  0  0  0999 V2000
   -0.7046    0.4601   -1.8836 O   0  0  0  0  0  0  0  0  0  0  0  0
    1.8445   -2.7192   -0.1522 O   0  0  0  0  0  0  0  0  0  0  0  0
   -1.6473    2.8415   -0.0317 O   0  0  0  0  0  0  0  0  0  0  0  0
   -0.7702   -2.9905    0.6175 O   0  0  0  0  0  0  0  0  0  0  0  0
    5.1482   -0.2319    0.2364 O   0  0  0  0  0  0  0  0  0  0  0  0
    3.4759   -0.9928    1.5856 O   0  0  0  0  0  0  0  0  0  0  0  0
    0.5715    0.8139    0.1272 C   0  0  1  0  0  0  0  0  0  0  0  0
    1.1746    2.1913    0.3582 C   0  0  1  0  0  0  0  0  0  0  0  0
    0.6524    1.4045    1.5277 C   0  0  0  0  0  0  0  0  0  0  0  0
   -0.8235    0.5772   -0.4590 C   0  0  2  0  0  0  0  0  0  0  0  0
    1.5020   -0.3442   -0.1344 C   0  0  0  0  0  0  0  0  0  0  0  0
    2.6435    2.3989    0.2204 C   0  0  0  0  0  0  0  0  0  0  0  0
    2.9431   -0.0262   -0.5777 C   0  0  2  0  0  0  0  0  0  0  0  0
    3.2015    1.4758   -0.8512 C   0  0  0  0  0  0  0  0  0  0  0  0
   -1.3711   -0.7342    0.0717 C   0  0  0  0  0  0  0  0  0  0  0  0
    1.0357   -1.6109   -0.0189 C   0  0  0  0  0  0  0  0  0  0  0  0
   -1.8908    1.6660   -0.2957 C   0  0  0  0  0  0  0  0  0  0  0  0
   -0.4093   -1.8695    0.2687 C   0  0  0  0  0  0  0  0  0  0  0  0
    3.3482   -0.7746   -1.8669 C   0  0  0  0  0  0  0  0  0  0  0  0
   -3.3220    1.2481   -0.5736 C   0  0  0  0  0  0  0  0  0  0  0  0
   -3.7429    0.0939    0.3494 C   0  0  1  0  0  0  0  0  0  0  0  0
   -2.6452   -0.9441    0.4492 C   0  0  0  0  0  0  0  0  0  0  0  0
    3.8509   -0.4780    0.5427 C   0  0  0  0  0  0  0  0  0  0  0  0
   -4.0478    0.6202    1.7625 C   0  0  0  0  0  0  0  0  0  0  0  0
   -5.0018   -0.5235   -0.2087 C   0  0  0  0  0  0  0  0  0  0  0  0
   -5.0156   -1.5518   -1.0636 C   0  0  0  0  0  0  0  0  0  0  0  0
    0.6346    3.0703    0.0411 H   0  0  0  0  0  0  0  0  0  0  0  0
    1.3624    0.9852    2.2324 H   0  0  0  0  0  0  0  0  0  0  0  0
   -0.2531    1.7573    2.0074 H   0  0  0  0  0  0  0  0  0  0  0  0
    3.1565    2.2338    1.1751 H   0  0  0  0  0  0  0  0  0  0  0  0
    2.8408    3.4401   -0.0608 H   0  0  0  0  0  0  0  0  0  0  0  0
    2.7304    1.7467   -1.8076 H   0  0  0  0  0  0  0  0  0  0  0  0
    4.2706    1.6893   -0.9744 H   0  0  0  0  0  0  0  0  0  0  0  0
    4.2840   -0.3816   -2.2833 H   0  0  0  0  0  0  0  0  0  0  0  0
    3.5206   -1.8427   -1.6993 H   0  0  0  0  0  0  0  0  0  0  0  0
    2.5788   -0.6706   -2.6410 H   0  0  0  0  0  0  0  0  0  0  0  0
   -3.9776    2.1180   -0.4400 H   0  0  0  0  0  0  0  0  0  0  0  0
   -3.3788    0.9727   -1.6351 H   0  0  0  0  0  0  0  0  0  0  0  0
   -0.2691    1.2656   -2.2125 H   0  0  0  0  0  0  0  0  0  0  0  0
   -2.9271   -1.8968    0.8957 H   0  0  0  0  0  0  0  0  0  0  0  0
    1.2873   -3.5073   -0.0304 H   0  0  0  0  0  0  0  0  0  0  0  0
   -4.8299    1.3888    1.7456 H   0  0  0  0  0  0  0  0  0  0  0  0
   -4.3915   -0.1829    2.4265 H   0  0  0  0  0  0  0  0  0  0  0  0
   -3.1603    1.0681    2.2255 H   0  0  0  0  0  0  0  0  0  0  0  0
   -5.9543   -0.0687    0.0550 H   0  0  0  0  0  0  0  0  0  0  0  0
    5.7541   -0.5168    0.9532 H   0  0  0  0  0  0  0  0  0  0  0  0
   -5.9624   -1.9229   -1.4431 H   0  0  0  0  0  0  0  0  0  0  0  0
   -4.1180   -2.0402   -1.4242 H   0  0  0  0  0  0  0  0  0  0  0  0
  1 10  1  0  0  0  0
  1 39  1  0  0  0  0
  2 16  1  0  0  0  0
  2 41  1  0  0  0  0
  3 17  2  0  0  0  0
  4 18  2  0  0  0  0
  5 23  1  0  0  0  0
  5 46  1  0  0  0  0
  6 23  2  0  0  0  0
  7  8  1  0  0  0  0
  7  9  1  0  0  0  0
  7 10  1  0  0  0  0
  7 11  1  0  0  0  0
  8  9  1  0  0  0  0
  8 12  1  0  0  0  0
  8 27  1  0  0  0  0
  9 28  1  0  0  0  0
  9 29  1  0  0  0  0
 10 15  1  0  0  0  0
 10 17  1  0  0  0  0
 11 13  1  0  0  0  0
 11 16  2  0  0  0  0
 12 14  1  0  0  0  0
 12 30  1  0  0  0  0
 12 31  1  0  0  0  0
 13 14  1  0  0  0  0
 13 19  1  0  0  0  0
 13 23  1  0  0  0  0
 14 32  1  0  0  0  0
 14 33  1  0  0  0  0
 15 18  1  0  0  0  0
 15 22  2  0  0  0  0
 16 18  1  0  0  0  0
 17 20  1  0  0  0  0
 19 34  1  0  0  0  0
 19 35  1  0  0  0  0
 19 36  1  0  0  0  0
 20 21  1  0  0  0  0
 20 37  1  0  0  0  0
 20 38  1  0  0  0  0
 21 22  1  0  0  0  0
 21 24  1  0  0  0  0
 21 25  1  0  0  0  0
 22 40  1  0  0  0  0
 24 42  1  0  0  0  0
 24 43  1  0  0  0  0
 24 44  1  0  0  0  0
 25 26  2  0  0  0  0
 25 45  1  0  0  0  0
 26 47  1  0  0  0  0
 26 48  1  0  0  0  0
M  END
> <PUBCHEM_COMPOUND_CID>
11394232

> <PUBCHEM_CONFORMER_RMSD>
0.6

> <PUBCHEM_CONFORMER_DIVERSEORDER>
2
1
3
4

> <PUBCHEM_MMFF94_PARTIAL_CHARGES>
33
1 -0.68
10 0.57
11 -0.18
12 0.09
13 0.2
15 -0.12
16 0.09
17 0.45
18 0.54
2 -0.53
20 0.06
21 0.28
22 -0.29
23 0.66
25 -0.29
26 -0.3
27 0.1
28 0.1
29 0.1
3 -0.57
39 0.4
4 -0.57
40 0.15
41 0.45
45 0.15
46 0.5
47 0.15
48 0.15
5 -0.65
6 -0.57
7 -0.05
8 -0.19
9 -0.2

> <PUBCHEM_EFFECTIVE_ROTOR_COUNT>
3.2

> <PUBCHEM_PHARMACOPHORE_FEATURES>
12
1 1 acceptor
1 1 donor
1 2 donor
1 26 hydrophobe
1 3 acceptor
1 4 acceptor
1 5 acceptor
1 6 acceptor
3 5 6 23 anion
6 10 15 17 20 21 22 rings
6 7 10 11 15 16 18 rings
7 7 8 9 11 12 13 14 rings

> <PUBCHEM_HEAVY_ATOM_COUNT>
26

> <PUBCHEM_ATOM_DEF_STEREO_COUNT>
5

> <PUBCHEM_ATOM_UDEF_STEREO_COUNT>
0

> <PUBCHEM_BOND_DEF_STEREO_COUNT>
0

> <PUBCHEM_BOND_UDEF_STEREO_COUNT>
0

> <PUBCHEM_ISOTOPIC_ATOM_COUNT>
0

> <PUBCHEM_COMPONENT_COUNT>
1

> <PUBCHEM_CACTVS_TAUTO_COUNT>
4

> <PUBCHEM_CONFORMER_ID>
00ADDCB800000002

> <PUBCHEM_MMFF94_ENERGY>
72.7497

> <PUBCHEM_FEATURE_SELFOVERLAP>
61.001

> <PUBCHEM_SHAPE_FINGERPRINT>
10366900 7 18334021600680491187
10759866 29 17894641370054412270
10863032 1 18196379331877828088
10906281 52 18199770157783446352
10967382 1 18337955691791699177
11578080 2 16412652665019796330
12011746 2 18407758149011034375
12236239 1 17632577145734619907
12403259 226 18337101281142004732
12403260 363 18408878538269023273
12403814 3 17676204667212288941
12553582 1 18337402573292595177
12596599 1 17846230938119325239
12633257 1 18411989056922341417
12788726 201 18271258157137354192
13140716 1 18265619959982571658
13224815 77 18410009940440415861
13583140 156 16660362610235137171
13675066 3 15984829220402903461
14178342 30 18124589774075230872
14223421 5 18337391513604322861
14787075 74 18272088335343849768
14790565 3 18338253612151460552
15196674 1 18410292544951463597
15209289 33 18341618113853342363
15848702 151 17846789485567822663
16752209 62 18336270054735673866
16945 1 18410017610803529022
17349148 13 18260539026672401767
18186145 218 18341058453412502405
19591789 44 18410576231699181667
200 152 18201995552069312325
20028762 73 18201150052955232631
20691752 17 18260832618047097697
20905425 154 18197497311875572022
21267235 1 18410018740443484719
21501502 16 18195806486530675318
22393880 68 18338784681390065703
2334 1 17978232990827323154
23402539 116 18410003325826705365
23493267 7 16877656851660662001
23559900 14 18337104674060595501
238 59 18120622830753576469
2748010 2 18050294965700302970
296302 2 14117791423304179384
3286 77 18259978262957470060
3323516 105 18412551989453293701
335352 9 18409730664080850534
350125 39 18334855000292807541
484985 159 14252128444437656012
495365 180 17487894721148912968
5104073 3 18411703218364652361
633830 44 18272098188347045085
9709674 26 18409173177447492967

> <PUBCHEM_SHAPE_MULTIPOLES>
499.85
8.62
2.65
1.31
3.4
0.07
-0.04
1.31
-0.38
-0.3
0.21
-0.11
0
-0.28

> <PUBCHEM_SHAPE_SELFOVERLAP>
1103.06

> <PUBCHEM_SHAPE_VOLUME>
266.3

> <PUBCHEM_COORDINATE_TYPE>
2
5
10

$$$$
