11403745
  -OEChem-03292013303D

 37 38  0     1  0  0  0  0  0999 V2000
   -3.1386   -1.3778   -0.7143 O   0  0  0  0  0  0  0  0  0  0  0  0
   -4.7031    0.2495   -0.2285 N   0  0  0  0  0  0  0  0  0  0  0  0
   -1.0733    0.0200   -0.1352 N   0  0  0  0  0  0  0  0  0  0  0  0
   -4.9521    1.5364    0.1562 N   0  0  0  0  0  0  0  0  0  0  0  0
    2.4927    0.9692    0.2662 N   0  0  0  0  0  0  0  0  0  0  0  0
    4.8166    1.4477    0.4859 N   0  0  0  0  0  0  0  0  0  0  0  0
   -6.3965   -2.3306    1.2795 N   0  0  0  0  0  0  0  0  0  0  0  0
    8.9203   -0.9937   -0.1910 N   0  0  0  0  0  0  0  0  0  0  0  0
   -5.9204   -0.4982   -0.5466 C   0  0  2  0  0  0  0  0  0  0  0  0
   -6.9951    0.5736   -0.5565 C   0  0  0  0  0  0  0  0  0  0  0  0
   -2.3209    0.7273    0.0505 C   0  0  0  0  0  0  0  0  0  0  0  0
   -3.4144   -0.2390   -0.3342 C   0  0  0  0  0  0  0  0  0  0  0  0
    0.0707    0.8639    0.1988 C   0  0  0  0  0  0  0  0  0  0  0  0
   -6.2215    1.7214    0.0083 C   0  0  0  0  0  0  0  0  0  0  0  0
    1.3732    0.1119   -0.0427 C   0  0  0  0  0  0  0  0  0  0  0  0
   -6.1864   -1.5223    0.4740 C   0  0  0  0  0  0  0  0  0  0  0  0
    3.8164    0.5693    0.1740 C   0  0  0  0  0  0  0  0  0  0  0  0
    4.0883   -0.7397   -0.2419 C   0  0  0  0  0  0  0  0  0  0  0  0
    5.4116   -1.1558   -0.3397 C   0  0  0  0  0  0  0  0  0  0  0  0
    6.4375   -0.2716   -0.0252 C   0  0  0  0  0  0  0  0  0  0  0  0
    6.0904    1.0074    0.3789 C   0  0  0  0  0  0  0  0  0  0  0  0
    7.8045   -0.6691   -0.1165 C   0  0  0  0  0  0  0  0  0  0  0  0
   -5.8048   -0.9703   -1.5283 H   0  0  0  0  0  0  0  0  0  0  0  0
   -7.3107    0.8387   -1.5701 H   0  0  0  0  0  0  0  0  0  0  0  0
   -7.8754    0.3609    0.0557 H   0  0  0  0  0  0  0  0  0  0  0  0
   -2.3766    1.6047   -0.6030 H   0  0  0  0  0  0  0  0  0  0  0  0
   -2.4574    1.0298    1.0946 H   0  0  0  0  0  0  0  0  0  0  0  0
    0.0583    1.7716   -0.4179 H   0  0  0  0  0  0  0  0  0  0  0  0
    0.0164    1.1799    1.2484 H   0  0  0  0  0  0  0  0  0  0  0  0
   -1.0553   -0.8154    0.4500 H   0  0  0  0  0  0  0  0  0  0  0  0
    1.3921   -0.7820    0.5934 H   0  0  0  0  0  0  0  0  0  0  0  0
    1.4180   -0.2048   -1.0923 H   0  0  0  0  0  0  0  0  0  0  0  0
   -6.7241    2.6711    0.2397 H   0  0  0  0  0  0  0  0  0  0  0  0
    2.3253    1.9223    0.5683 H   0  0  0  0  0  0  0  0  0  0  0  0
    3.3137   -1.4551   -0.4965 H   0  0  0  0  0  0  0  0  0  0  0  0
    5.6286   -2.1710   -0.6626 H   0  0  0  0  0  0  0  0  0  0  0  0
    6.8442    1.7453    0.6383 H   0  0  0  0  0  0  0  0  0  0  0  0
  1 12  2  0  0  0  0
  2  4  1  0  0  0  0
  2  9  1  0  0  0  0
  2 12  1  0  0  0  0
  3 11  1  0  0  0  0
  3 13  1  0  0  0  0
  3 30  1  0  0  0  0
  4 14  2  0  0  0  0
  5 15  1  0  0  0  0
  5 17  1  0  0  0  0
  5 34  1  0  0  0  0
  6 17  2  0  0  0  0
  6 21  1  0  0  0  0
  7 16  3  0  0  0  0
  8 22  3  0  0  0  0
  9 10  1  0  0  0  0
  9 16  1  0  0  0  0
  9 23  1  0  0  0  0
 10 14  1  0  0  0  0
 10 24  1  0  0  0  0
 10 25  1  0  0  0  0
 11 12  1  0  0  0  0
 11 26  1  0  0  0  0
 11 27  1  0  0  0  0
 13 15  1  0  0  0  0
 13 28  1  0  0  0  0
 13 29  1  0  0  0  0
 14 33  1  0  0  0  0
 15 31  1  0  0  0  0
 15 32  1  0  0  0  0
 17 18  1  0  0  0  0
 18 19  2  0  0  0  0
 18 35  1  0  0  0  0
 19 20  1  0  0  0  0
 19 36  1  0  0  0  0
 20 21  2  0  0  0  0
 20 22  1  0  0  0  0
 21 37  1  0  0  0  0
M  END
> <PUBCHEM_COMPOUND_CID>
11403745

> <PUBCHEM_CONFORMER_RMSD>
1

> <PUBCHEM_CONFORMER_DIVERSEORDER>
1
309
283
39
444
394
424
312
120
210
478
35
102
49
527
97
382
291
69
494
55
26
117
89
192
500
468
127
341
34
63
447
173
88
455
506
276
270
410
45
7
82
337
111
8
78
71
68
190
513
9
286
81
256
161
249
426
239
316
143
516
29
303
484
199
412
225
528
3
441
537
110
480
95
374
4
218
250
302
385
166
167
129
475
37
503
73
400
118
197
499
65
445
11
50
266
116
418
106
451
114
530
407
395
551
163
27
401
188
123
23
158
182
51
122
346
43
281
214
70
60
307
398
396
142
434
86
235
134
389
496
56
152
12
17
94
10
46
381
369
149
284
83
139
98
287
38
408
233
147
85
178
433
216
458
24
356
150
33
391
361
48
132
522
436
300
74
19
100
450
243
253
360
115
201
189
257
22
36
15
209
77

> <PUBCHEM_MMFF94_PARTIAL_CHARGES>
28
1 -0.57
10 0.06
11 0.33
12 0.57
13 0.27
14 0.33
15 0.37
16 0.36
17 0.41
18 -0.15
19 -0.15
2 -0.3
20 0.07
21 0.16
22 0.48
3 -0.9
30 0.36
33 0.06
34 0.4
35 0.15
36 0.15
37 0.15
4 -0.51
5 -0.87
6 -0.62
7 -0.56
8 -0.56
9 0.5

> <PUBCHEM_EFFECTIVE_ROTOR_COUNT>
7.6

> <PUBCHEM_PHARMACOPHORE_FEATURES>
10
1 1 acceptor
1 3 cation
1 3 donor
1 4 acceptor
1 5 donor
1 7 acceptor
1 8 acceptor
3 5 6 17 cation
5 2 4 9 10 14 rings
6 6 17 18 19 20 21 rings

> <PUBCHEM_HEAVY_ATOM_COUNT>
22

> <PUBCHEM_ATOM_DEF_STEREO_COUNT>
0

> <PUBCHEM_ATOM_UDEF_STEREO_COUNT>
1

> <PUBCHEM_BOND_DEF_STEREO_COUNT>
0

> <PUBCHEM_BOND_UDEF_STEREO_COUNT>
0

> <PUBCHEM_ISOTOPIC_ATOM_COUNT>
0

> <PUBCHEM_COMPONENT_COUNT>
1

> <PUBCHEM_CACTVS_TAUTO_COUNT>
2

> <PUBCHEM_CONFORMER_ID>
00AE01E100000001

> <PUBCHEM_MMFF94_ENERGY>
44.7986

> <PUBCHEM_FEATURE_SELFOVERLAP>
50.747

> <PUBCHEM_SHAPE_FINGERPRINT>
100830 39 18341894035374919249
10299344 5 18187365419968959526
11315181 36 18410014343172524713
11524674 6 16702299070371757343
11719270 70 17775564213717284838
12091667 2 18060135445230851085
13533116 47 13038918694418949252
13668630 136 18259704510342519994
13885169 127 18342738481578946776
14123256 10 12251904785152615030
14251764 18 18131351912673141596
14251764 46 18343862204496214885
14933364 13 18411981368699175304
15183329 4 18411696560816936513
15510794 2 18411418427741792543
17093844 174 18408882941517882569
18006028 8 17060616689997023800
21150785 3 16588025714980372046
21267235 1 18410014350944619288
21315763 28 18343299283895654869
21623969 137 18131357409635467750
220451 1 16950276308487059744
23035841 295 18409164407229301848
23536379 177 18341892982811850481
23559900 14 18059000804406600761
28498 318 18273213063352212396
3004659 81 18410570683012879120
4073 2 18261394502996608770
67123 10 18407760344546307628
8209 1 18413106148262839668
999808 66 18261962933481274195

> <PUBCHEM_SHAPE_MULTIPOLES>
412.01
27.39
1.65
0.75
16.44
0.29
-0.06
5.66
0.02
-2.11
-0.33
-0.6
0.18
1.35

> <PUBCHEM_SHAPE_SELFOVERLAP>
855.503

> <PUBCHEM_SHAPE_VOLUME>
230.2

> <PUBCHEM_COORDINATE_TYPE>
2
5
10

$$$$
