11406911
  -OEChem-03292013303D

 57 59  0     1  0  0  0  0  0999 V2000
    2.4178    3.9255   -0.6131 Cl  0  0  0  0  0  0  0  0  0  0  0  0
    4.7603    2.3513    0.4876 O   0  0  0  0  0  0  0  0  0  0  0  0
    1.0006   -4.1045    0.7937 O   0  0  0  0  0  0  0  0  0  0  0  0
   -3.5229   -0.0762   -1.9204 O   0  0  0  0  0  0  0  0  0  0  0  0
   -4.7007   -1.4984    0.9775 O   0  0  0  0  0  0  0  0  0  0  0  0
   -4.7305    3.0899    0.6749 O   0  0  0  0  0  0  0  0  0  0  0  0
   -5.0306    0.7983    0.9080 N   0  0  0  0  0  0  0  0  0  0  0  0
    1.3570   -0.0803   -0.6901 C   0  0  1  0  0  0  0  0  0  0  0  0
    2.2569   -0.5413    0.5239 C   0  0  2  0  0  0  0  0  0  0  0  0
    3.6634    0.1560    0.6692 C   0  0  0  0  0  0  0  0  0  0  0  0
   -0.0938   -0.6789   -0.4507 C   0  0  2  0  0  0  0  0  0  0  0  0
    1.2949    1.4678   -0.6954 C   0  0  0  0  0  0  0  0  0  0  0  0
    2.2917   -2.0836    0.6318 C   0  0  0  0  0  0  0  0  0  0  0  0
    3.4868    1.7047    0.5624 C   0  0  2  0  0  0  0  0  0  0  0  0
    2.6662    2.1404   -0.6541 C   0  0  2  0  0  0  0  0  0  0  0  0
    0.8863   -2.6839    0.7632 C   0  0  1  0  0  0  0  0  0  0  0  0
    1.8810   -0.5583   -2.0678 C   0  0  0  0  0  0  0  0  0  0  0  0
   -0.0231   -2.2067   -0.3521 C   0  0  0  0  0  0  0  0  0  0  0  0
   -1.1702   -0.1508   -1.4166 C   0  0  0  0  0  0  0  0  0  0  0  0
    4.7262   -0.3533   -0.3280 C   0  0  0  0  0  0  0  0  0  0  0  0
    4.2343   -0.1511    2.0848 C   0  0  0  0  0  0  0  0  0  0  0  0
   -2.5706   -0.5618   -0.9783 C   0  0  1  0  0  0  0  0  0  0  0  0
   -0.6828   -3.0516   -1.1638 C   0  0  0  0  0  0  0  0  0  0  0  0
   -2.8952    0.0162    0.3913 C   0  0  1  0  0  0  0  0  0  0  0  0
   -2.8893    1.5470    0.3976 C   0  0  0  0  0  0  0  0  0  0  0  0
   -4.2995   -0.3573    0.8003 C   0  0  0  0  0  0  0  0  0  0  0  0
   -4.3141    1.9409    0.6641 C   0  0  0  0  0  0  0  0  0  0  0  0
    1.7082   -0.2076    1.4210 H   0  0  0  0  0  0  0  0  0  0  0  0
   -0.3635   -0.3247    0.5504 H   0  0  0  0  0  0  0  0  0  0  0  0
    0.7008    1.8055    0.1652 H   0  0  0  0  0  0  0  0  0  0  0  0
    0.7755    1.8223   -1.5940 H   0  0  0  0  0  0  0  0  0  0  0  0
    2.8662   -2.4041    1.5075 H   0  0  0  0  0  0  0  0  0  0  0  0
    2.8091   -2.5277   -0.2264 H   0  0  0  0  0  0  0  0  0  0  0  0
    2.9957    2.0648    1.4768 H   0  0  0  0  0  0  0  0  0  0  0  0
    3.2235    1.9632   -1.5782 H   0  0  0  0  0  0  0  0  0  0  0  0
    0.4475   -2.3835    1.7221 H   0  0  0  0  0  0  0  0  0  0  0  0
    1.1812   -0.2927   -2.8673 H   0  0  0  0  0  0  0  0  0  0  0  0
    2.8249   -0.0944   -2.3485 H   0  0  0  0  0  0  0  0  0  0  0  0
    2.0239   -1.6410   -2.1147 H   0  0  0  0  0  0  0  0  0  0  0  0
   -1.0002   -0.5199   -2.4359 H   0  0  0  0  0  0  0  0  0  0  0  0
   -1.1150    0.9339   -1.5241 H   0  0  0  0  0  0  0  0  0  0  0  0
    4.5641    0.0069   -1.3433 H   0  0  0  0  0  0  0  0  0  0  0  0
    5.7281   -0.0086   -0.0435 H   0  0  0  0  0  0  0  0  0  0  0  0
    4.7722   -1.4458   -0.3553 H   0  0  0  0  0  0  0  0  0  0  0  0
    3.5077    0.0920    2.8680 H   0  0  0  0  0  0  0  0  0  0  0  0
    4.5140   -1.2034    2.1962 H   0  0  0  0  0  0  0  0  0  0  0  0
    5.1373    0.4377    2.2844 H   0  0  0  0  0  0  0  0  0  0  0  0
   -2.7278   -1.6392   -0.9480 H   0  0  0  0  0  0  0  0  0  0  0  0
    4.5989    3.3095    0.4476 H   0  0  0  0  0  0  0  0  0  0  0  0
   -0.6066   -4.1277   -1.0467 H   0  0  0  0  0  0  0  0  0  0  0  0
   -1.2766   -2.7310   -2.0099 H   0  0  0  0  0  0  0  0  0  0  0  0
   -2.2457   -0.3728    1.1808 H   0  0  0  0  0  0  0  0  0  0  0  0
    1.5166   -4.3854    0.0186 H   0  0  0  0  0  0  0  0  0  0  0  0
   -2.5630    2.0287   -0.5254 H   0  0  0  0  0  0  0  0  0  0  0  0
   -2.2687    1.9209    1.2193 H   0  0  0  0  0  0  0  0  0  0  0  0
   -3.3051    0.8427   -2.1477 H   0  0  0  0  0  0  0  0  0  0  0  0
   -6.0168    0.8060    1.1436 H   0  0  0  0  0  0  0  0  0  0  0  0
  1 15  1  0  0  0  0
  2 14  1  0  0  0  0
  2 49  1  0  0  0  0
  3 16  1  0  0  0  0
  3 53  1  0  0  0  0
  4 22  1  0  0  0  0
  4 56  1  0  0  0  0
  5 26  2  0  0  0  0
  6 27  2  0  0  0  0
  7 26  1  0  0  0  0
  7 27  1  0  0  0  0
  7 57  1  0  0  0  0
  8  9  1  0  0  0  0
  8 11  1  0  0  0  0
  8 12  1  0  0  0  0
  8 17  1  0  0  0  0
  9 10  1  0  0  0  0
  9 13  1  0  0  0  0
  9 28  1  0  0  0  0
 10 14  1  0  0  0  0
 10 20  1  0  0  0  0
 10 21  1  0  0  0  0
 11 18  1  0  0  0  0
 11 19  1  0  0  0  0
 11 29  1  0  0  0  0
 12 15  1  0  0  0  0
 12 30  1  0  0  0  0
 12 31  1  0  0  0  0
 13 16  1  0  0  0  0
 13 32  1  0  0  0  0
 13 33  1  0  0  0  0
 14 15  1  0  0  0  0
 14 34  1  0  0  0  0
 15 35  1  0  0  0  0
 16 18  1  0  0  0  0
 16 36  1  0  0  0  0
 17 37  1  0  0  0  0
 17 38  1  0  0  0  0
 17 39  1  0  0  0  0
 18 23  2  0  0  0  0
 19 22  1  0  0  0  0
 19 40  1  0  0  0  0
 19 41  1  0  0  0  0
 20 42  1  0  0  0  0
 20 43  1  0  0  0  0
 20 44  1  0  0  0  0
 21 45  1  0  0  0  0
 21 46  1  0  0  0  0
 21 47  1  0  0  0  0
 22 24  1  0  0  0  0
 22 48  1  0  0  0  0
 23 50  1  0  0  0  0
 23 51  1  0  0  0  0
 24 25  1  0  0  0  0
 24 26  1  0  0  0  0
 24 52  1  0  0  0  0
 25 27  1  0  0  0  0
 25 54  1  0  0  0  0
 25 55  1  0  0  0  0
M  END
> <PUBCHEM_COMPOUND_CID>
11406911

> <PUBCHEM_CONFORMER_RMSD>
0.8

> <PUBCHEM_CONFORMER_DIVERSEORDER>
2
3
7
4
8
1
5
6

> <PUBCHEM_MMFF94_PARTIAL_CHARGES>
24
1 -0.29
11 0.14
14 0.28
15 0.29
16 0.42
18 -0.28
2 -0.68
22 0.28
23 -0.3
24 0.06
25 0.06
26 0.57
27 0.57
3 -0.68
4 -0.68
49 0.4
5 -0.57
50 0.15
51 0.15
53 0.4
56 0.4
57 0.37
6 -0.57
7 -0.49

> <PUBCHEM_EFFECTIVE_ROTOR_COUNT>
5

> <PUBCHEM_PHARMACOPHORE_FEATURES>
13
1 2 acceptor
1 2 donor
1 3 acceptor
1 3 donor
1 4 acceptor
1 4 donor
1 5 acceptor
1 6 acceptor
1 7 donor
3 10 20 21 hydrophobe
5 7 24 25 26 27 rings
6 8 9 10 12 14 15 rings
6 8 9 11 13 16 18 rings

> <PUBCHEM_HEAVY_ATOM_COUNT>
27

> <PUBCHEM_ATOM_DEF_STEREO_COUNT>
8

> <PUBCHEM_ATOM_UDEF_STEREO_COUNT>
0

> <PUBCHEM_BOND_DEF_STEREO_COUNT>
0

> <PUBCHEM_BOND_UDEF_STEREO_COUNT>
0

> <PUBCHEM_ISOTOPIC_ATOM_COUNT>
0

> <PUBCHEM_COMPONENT_COUNT>
1

> <PUBCHEM_CACTVS_TAUTO_COUNT>
8

> <PUBCHEM_CONFORMER_ID>
00AE0E3F00000002

> <PUBCHEM_MMFF94_ENERGY>
95.6837

> <PUBCHEM_FEATURE_SELFOVERLAP>
65.987

> <PUBCHEM_SHAPE_FINGERPRINT>
10493431 412 18337387257618572256
10498660 4 16630519618674386873
1100329 8 18337107986139549440
11578080 2 16880474766538981231
11640471 11 18060417980584461899
11796584 16 12396297054337619289
12363563 72 15068627097704939991
12403259 118 18411978057733006073
12422481 6 17980735187830750818
12633257 1 17458349619591898227
12788726 201 17762340618554535974
13140716 1 18190174770972776490
13224815 77 18059856143280641373
13583140 156 17604130610517274795
13965767 371 17986101916332263237
14178342 30 18187939373892506127
14341114 328 18342744061057566395
14466204 15 18336547114549762600
14787075 74 18056487385808812707
14790565 3 18335711550475038932
14955137 171 18261678086802235418
15238133 3 18117293457820868525
15420108 30 18128240208445365719
15475509 8 18341907251679554316
15475509 84 16525556132514474835
1601671 61 18335707083581755204
19591789 44 18336543799267253894
20157964 124 18195805177357441269
20715895 44 17981044116370805593
20739085 24 18265616472806782546
21033648 29 18059844052620870632
21503847 285 18342461417807676396
21756936 100 18201153373011593108
21864079 5 18272371953873140741
23557571 272 14692273102333605981
23558518 356 18195525015991922270
23559900 14 17983311335053032855
283562 15 16820240668017211660
38570 142 17606986137458979164
392239 28 18194413405736432403
474 4 18411416198352773795
633830 44 18343017792034188686
7097593 13 18118407250573300795
7808743 9 18199749326717417752

> <PUBCHEM_SHAPE_MULTIPOLES>
523.19
9.88
3.94
1.52
6.75
0.09
0.26
5.9
-3.88
-1.08
-0.21
-0.21
-0.3
-1.07

> <PUBCHEM_SHAPE_SELFOVERLAP>
1088.479

> <PUBCHEM_SHAPE_VOLUME>
298

> <PUBCHEM_COORDINATE_TYPE>
2
5
10

$$$$
