11407097
  -OEChem-03292013303D

 48 51  0     1  0  0  0  0  0999 V2000
    1.6752    3.1425    0.4593 O   0  0  0  0  0  0  0  0  0  0  0  0
   -2.4404   -2.6415   -0.6142 O   0  0  0  0  0  0  0  0  0  0  0  0
    5.1047    1.6572    0.3531 O   0  5  0  0  0  0  0  0  0  0  0  0
    3.7994    2.5370    1.8948 O   0  0  0  0  0  0  0  0  0  0  0  0
   -1.8751    3.4360   -1.0271 O   0  0  0  0  0  0  0  0  0  0  0  0
   -0.6288   -1.6928    0.3540 N   0  0  0  0  0  0  0  0  0  0  0  0
    1.0977    1.5946   -1.1712 N   0  0  0  0  0  0  0  0  0  0  0  0
    4.0133    1.7958    0.9244 N   0  3  0  0  0  0  0  0  0  0  0  0
   -1.6303    1.1186   -0.7677 N   0  0  0  0  0  0  0  0  0  0  0  0
    1.3527   -0.8649    1.0184 C   0  0  0  0  0  0  0  0  0  0  0  0
    2.3627    0.1181    1.5147 C   0  0  0  0  0  0  0  0  0  0  0  0
    1.5922   -2.0721    0.3016 C   0  0  0  0  0  0  0  0  0  0  0  0
    2.8631    1.0295    0.3920 C   0  0  1  0  0  0  0  0  0  0  0  0
    0.3467   -2.5948   -0.0747 C   0  0  0  0  0  0  0  0  0  0  0  0
   -0.0121   -0.7497    1.1500 C   0  0  0  0  0  0  0  0  0  0  0  0
    1.8311    2.0481   -0.0795 C   0  0  0  0  0  0  0  0  0  0  0  0
   -1.9994   -1.6877    0.0186 C   0  0  0  0  0  0  0  0  0  0  0  0
    2.7687   -2.7537   -0.0803 C   0  0  0  0  0  0  0  0  0  0  0  0
    0.1167    2.4217   -1.8650 C   0  0  2  0  0  0  0  0  0  0  0  0
    0.2573   -3.7953   -0.8044 C   0  0  0  0  0  0  0  0  0  0  0  0
   -2.9504   -0.6054    0.3701 C   0  0  0  0  0  0  0  0  0  0  0  0
   -2.7706    0.7451   -0.0053 C   0  0  0  0  0  0  0  0  0  0  0  0
    2.6775   -3.9464   -0.8004 C   0  0  0  0  0  0  0  0  0  0  0  0
    1.4367   -4.4605   -1.1530 C   0  0  0  0  0  0  0  0  0  0  0  0
   -1.2279    2.3962   -1.1357 C   0  0  0  0  0  0  0  0  0  0  0  0
   -0.0539    1.9648   -3.3078 C   0  0  0  0  0  0  0  0  0  0  0  0
   -4.0789   -1.0078    1.0999 C   0  0  0  0  0  0  0  0  0  0  0  0
   -3.7399    1.6709    0.4054 C   0  0  0  0  0  0  0  0  0  0  0  0
   -5.0298   -0.0701    1.4867 C   0  0  0  0  0  0  0  0  0  0  0  0
   -4.8580    1.2661    1.1433 C   0  0  0  0  0  0  0  0  0  0  0  0
    1.9141    0.7100    2.3245 H   0  0  0  0  0  0  0  0  0  0  0  0
    3.1990   -0.4330    1.9653 H   0  0  0  0  0  0  0  0  0  0  0  0
    3.2348    0.4503   -0.4624 H   0  0  0  0  0  0  0  0  0  0  0  0
   -0.5864    0.0075    1.6663 H   0  0  0  0  0  0  0  0  0  0  0  0
    0.4827    3.4554   -1.8479 H   0  0  0  0  0  0  0  0  0  0  0  0
    3.7460   -2.3613    0.1881 H   0  0  0  0  0  0  0  0  0  0  0  0
   -0.6958   -4.2159   -1.1052 H   0  0  0  0  0  0  0  0  0  0  0  0
    1.2422    0.6458   -1.5045 H   0  0  0  0  0  0  0  0  0  0  0  0
    3.5835   -4.4730   -1.0868 H   0  0  0  0  0  0  0  0  0  0  0  0
    1.3796   -5.3891   -1.7151 H   0  0  0  0  0  0  0  0  0  0  0  0
   -1.0157    0.3613   -1.0487 H   0  0  0  0  0  0  0  0  0  0  0  0
   -0.7943    2.5819   -3.8277 H   0  0  0  0  0  0  0  0  0  0  0  0
    0.8946    2.0354   -3.8509 H   0  0  0  0  0  0  0  0  0  0  0  0
   -0.3901    0.9234   -3.3652 H   0  0  0  0  0  0  0  0  0  0  0  0
   -4.2197   -2.0484    1.3818 H   0  0  0  0  0  0  0  0  0  0  0  0
   -3.6744    2.7259    0.1671 H   0  0  0  0  0  0  0  0  0  0  0  0
   -5.9005   -0.3791    2.0570 H   0  0  0  0  0  0  0  0  0  0  0  0
   -5.5981    2.0016    1.4465 H   0  0  0  0  0  0  0  0  0  0  0  0
  1 16  2  0  0  0  0
  2 17  2  0  0  0  0
  3  8  1  0  0  0  0
  4  8  2  0  0  0  0
  5 25  2  0  0  0  0
  6 14  1  0  0  0  0
  6 15  1  0  0  0  0
  6 17  1  0  0  0  0
  7 16  1  0  0  0  0
  7 19  1  0  0  0  0
  7 38  1  0  0  0  0
  8 13  1  0  0  0  0
  9 22  1  0  0  0  0
  9 25  1  0  0  0  0
  9 41  1  0  0  0  0
 10 11  1  0  0  0  0
 10 12  1  0  0  0  0
 10 15  2  0  0  0  0
 11 13  1  0  0  0  0
 11 31  1  0  0  0  0
 11 32  1  0  0  0  0
 12 14  1  0  0  0  0
 12 18  2  0  0  0  0
 13 16  1  0  0  0  0
 13 33  1  0  0  0  0
 14 20  2  0  0  0  0
 15 34  1  0  0  0  0
 17 21  1  0  0  0  0
 18 23  1  0  0  0  0
 18 36  1  0  0  0  0
 19 25  1  0  0  0  0
 19 26  1  0  0  0  0
 19 35  1  0  0  0  0
 20 24  1  0  0  0  0
 20 37  1  0  0  0  0
 21 22  1  0  0  0  0
 21 27  2  0  0  0  0
 22 28  2  0  0  0  0
 23 24  2  0  0  0  0
 23 39  1  0  0  0  0
 24 40  1  0  0  0  0
 26 42  1  0  0  0  0
 26 43  1  0  0  0  0
 26 44  1  0  0  0  0
 27 29  1  0  0  0  0
 27 45  1  0  0  0  0
 28 30  1  0  0  0  0
 28 46  1  0  0  0  0
 29 30  2  0  0  0  0
 29 47  1  0  0  0  0
 30 48  1  0  0  0  0
M  CHG  2   3  -1   8   1
M  END
> <PUBCHEM_COMPOUND_CID>
11407097

> <PUBCHEM_CONFORMER_RMSD>
0.6

> <PUBCHEM_CONFORMER_DIVERSEORDER>
1
5
4
8
10
2
7
6
3
9

> <PUBCHEM_MMFF94_PARTIAL_CHARGES>
39
1 -0.57
10 -0.18
11 0.18
13 0.3
14 -0.15
15 -0.3
16 0.57
17 0.49
18 -0.15
19 0.36
2 -0.57
20 -0.15
21 0.09
22 0.12
23 -0.15
24 -0.15
25 0.57
27 -0.15
28 -0.15
29 -0.15
3 -0.52
30 -0.15
34 0.15
36 0.15
37 0.15
38 0.37
39 0.15
4 -0.52
40 0.15
41 0.37
45 0.15
46 0.15
47 0.15
48 0.15
5 -0.57
6 0.29
7 -0.73
8 0.8
9 -0.55

> <PUBCHEM_EFFECTIVE_ROTOR_COUNT>
2

> <PUBCHEM_PHARMACOPHORE_FEATURES>
11
1 1 acceptor
1 2 acceptor
1 3 acceptor
1 3 anion
1 4 acceptor
1 5 acceptor
1 7 donor
1 9 donor
5 6 10 12 14 15 rings
6 12 14 18 20 23 24 rings
6 21 22 27 28 29 30 rings

> <PUBCHEM_HEAVY_ATOM_COUNT>
30

> <PUBCHEM_ATOM_DEF_STEREO_COUNT>
2

> <PUBCHEM_ATOM_UDEF_STEREO_COUNT>
0

> <PUBCHEM_BOND_DEF_STEREO_COUNT>
0

> <PUBCHEM_BOND_UDEF_STEREO_COUNT>
0

> <PUBCHEM_ISOTOPIC_ATOM_COUNT>
0

> <PUBCHEM_COMPONENT_COUNT>
1

> <PUBCHEM_CACTVS_TAUTO_COUNT>
12

> <PUBCHEM_CONFORMER_ID>
00AE0EF900000001

> <PUBCHEM_MMFF94_ENERGY>
89.3086

> <PUBCHEM_FEATURE_SELFOVERLAP>
56.003

> <PUBCHEM_SHAPE_FINGERPRINT>
10165383 225 18272091638263358792
11513181 2 18272651191377703471
11582403 64 16844722178856337960
12035758 1 18268413660901184890
12403259 226 17975420109746017427
12422481 6 18262785299121380792
12788726 201 16968315188389659191
13140716 1 17972321982009668641
13149001 5 17613984201971288428
13402501 40 17616532861577196655
13757389 114 17907030817442356460
13965767 371 18337378418233012280
14363568 33 18197509415141248450
14790565 3 18265062516452108244
14840074 17 17822855423734183724
14955137 171 18116167738276005753
15420108 30 18270388495005517746
15840311 113 18125726687397098089
17357779 13 17974283219196576271
17980427 26 17273670196598941760
18785283 64 18340771442450158154
1979834 28 18336559286797932897
20775438 99 17830974055044048487
21033648 29 17986388013205624832
21049683 271 18193864577319475630
22113638 7 17760073417056237791
22149856 69 18197243489244025395
22182313 1 18041837295169580597
23559900 14 18116169787645247183
238 59 17253381809931482469
25019877 29 17628922519176328590
513532 50 18130523954568469309
5265222 85 18193291886991916620
6287921 2 18410864247963844619
7064713 232 18339359794058236713
9862522 239 18119495900228707616
9925002 15 17330265581447638038

> <PUBCHEM_SHAPE_MULTIPOLES>
568.12
7.63
5.39
1.83
5.18
1.85
-1.05
-0.96
3.89
-4.96
-1.92
-0.13
-1.36
2.44

> <PUBCHEM_SHAPE_SELFOVERLAP>
1249.826

> <PUBCHEM_SHAPE_VOLUME>
304.4

> <PUBCHEM_COORDINATE_TYPE>
2
5
10

$$$$
