11414760
  -OEChem-03292013303D

 28 28  0     1  0  0  0  0  0999 V2000
   -2.6794   -1.4803   -0.3953 S   0  0  0  0  0  0  0  0  0  0  0  0
   -1.5305   -0.6129    0.3781 O   0  0  0  0  0  0  0  0  0  0  0  0
   -3.0434    2.0122   -0.9852 O   0  0  0  0  0  0  0  0  0  0  0  0
    3.5428   -1.8932    1.0150 O   0  0  0  0  0  0  0  0  0  0  0  0
    4.9608   -0.3812   -0.8360 O   0  0  0  0  0  0  0  0  0  0  0  0
   -3.1226    1.6883    1.2601 O   0  0  0  0  0  0  0  0  0  0  0  0
   -2.7531   -2.8671    0.4607 O   0  0  0  0  0  0  0  0  0  0  0  0
   -3.9425   -0.7888   -0.2166 O   0  0  0  0  0  0  0  0  0  0  0  0
   -2.2077   -1.8037   -1.7290 O   0  0  0  0  0  0  0  0  0  0  0  0
   -0.1515    1.2932    0.8686 C   0  0  0  0  0  0  0  0  0  0  0  0
   -1.2817    0.7326   -0.0100 C   0  0  2  0  0  0  0  0  0  0  0  0
    1.1992    0.8481    0.4201 C   0  0  0  0  0  0  0  0  0  0  0  0
    1.7510   -0.3272    0.9299 C   0  0  0  0  0  0  0  0  0  0  0  0
    1.9111    1.6072   -0.5088 C   0  0  0  0  0  0  0  0  0  0  0  0
   -2.5685    1.5091    0.1836 C   0  0  0  0  0  0  0  0  0  0  0  0
    3.0148   -0.7433    0.5108 C   0  0  0  0  0  0  0  0  0  0  0  0
    3.1746    1.1911   -0.9279 C   0  0  0  0  0  0  0  0  0  0  0  0
    3.7264    0.0158   -0.4182 C   0  0  0  0  0  0  0  0  0  0  0  0
   -0.1847    2.3910    0.8633 H   0  0  0  0  0  0  0  0  0  0  0  0
   -0.3040    0.9988    1.9158 H   0  0  0  0  0  0  0  0  0  0  0  0
   -0.9976    0.7537   -1.0694 H   0  0  0  0  0  0  0  0  0  0  0  0
    1.2012   -0.9243    1.6535 H   0  0  0  0  0  0  0  0  0  0  0  0
    1.4911    2.5235   -0.9152 H   0  0  0  0  0  0  0  0  0  0  0  0
    3.7179    1.7916   -1.6528 H   0  0  0  0  0  0  0  0  0  0  0  0
   -3.8722    2.5204   -0.8543 H   0  0  0  0  0  0  0  0  0  0  0  0
    4.4200   -2.0276    0.6161 H   0  0  0  0  0  0  0  0  0  0  0  0
    5.3010    0.2654   -1.4780 H   0  0  0  0  0  0  0  0  0  0  0  0
   -1.8828   -3.2837    0.6636 H   0  0  0  0  0  0  0  0  0  0  0  0
  1  2  1  0  0  0  0
  1  7  1  0  0  0  0
  1  8  2  0  0  0  0
  1  9  2  0  0  0  0
  2 11  1  0  0  0  0
  3 15  1  0  0  0  0
  3 25  1  0  0  0  0
  4 16  1  0  0  0  0
  4 26  1  0  0  0  0
  5 18  1  0  0  0  0
  5 27  1  0  0  0  0
  6 15  2  0  0  0  0
  7 28  1  0  0  0  0
 10 11  1  0  0  0  0
 10 12  1  0  0  0  0
 10 19  1  0  0  0  0
 10 20  1  0  0  0  0
 11 15  1  0  0  0  0
 11 21  1  0  0  0  0
 12 13  2  0  0  0  0
 12 14  1  0  0  0  0
 13 16  1  0  0  0  0
 13 22  1  0  0  0  0
 14 17  2  0  0  0  0
 14 23  1  0  0  0  0
 16 18  2  0  0  0  0
 17 18  1  0  0  0  0
 17 24  1  0  0  0  0
M  END
> <PUBCHEM_COMPOUND_CID>
11414760

> <PUBCHEM_CONFORMER_RMSD>
0.6

> <PUBCHEM_CONFORMER_DIVERSEORDER>
1
5
8
21
36
16
33
42
11
32
7
3
35
14
41
38
12
30
4
24
37
29
13
40
22
27
25
6
10
26
20
23
2
28
31
34
15
39
9
18
19
17

> <PUBCHEM_MMFF94_PARTIAL_CHARGES>
25
1 1.67
10 0.14
11 0.34
12 -0.14
13 -0.15
14 -0.15
15 0.66
16 0.08
17 -0.15
18 0.08
2 -0.46
22 0.15
23 0.15
24 0.15
25 0.5
26 0.45
27 0.45
28 0.5
3 -0.65
4 -0.53
5 -0.53
6 -0.57
7 -0.68
8 -0.65
9 -0.65

> <PUBCHEM_EFFECTIVE_ROTOR_COUNT>
5

> <PUBCHEM_PHARMACOPHORE_FEATURES>
10
1 3 acceptor
1 4 donor
1 5 donor
1 6 acceptor
1 7 acceptor
1 8 acceptor
1 9 acceptor
3 3 6 15 anion
4 1 7 8 9 anion
6 12 13 14 16 17 18 rings

> <PUBCHEM_HEAVY_ATOM_COUNT>
18

> <PUBCHEM_ATOM_DEF_STEREO_COUNT>
1

> <PUBCHEM_ATOM_UDEF_STEREO_COUNT>
0

> <PUBCHEM_BOND_DEF_STEREO_COUNT>
0

> <PUBCHEM_BOND_UDEF_STEREO_COUNT>
0

> <PUBCHEM_ISOTOPIC_ATOM_COUNT>
0

> <PUBCHEM_COMPONENT_COUNT>
1

> <PUBCHEM_CACTVS_TAUTO_COUNT>
18

> <PUBCHEM_CONFORMER_ID>
00AE2CE800000001

> <PUBCHEM_MMFF94_ENERGY>
33.4614

> <PUBCHEM_FEATURE_SELFOVERLAP>
50.869

> <PUBCHEM_SHAPE_FINGERPRINT>
10062212 137 18410848828899467826
10498660 4 12107787406184684102
10616163 171 18412549824848324854
11578080 2 18192682658159673640
12346177 29 18130213891920164509
12507557 5 11527940128356315290
12553582 1 18127405868130255383
12707595 3 17346598599287583680
12714826 92 18202285839802034171
13296908 3 17775281694567453720
13931106 250 17488157427181746495
14115302 16 18342176618204824224
14576447 43 18334294297134484274
14965852 173 18411699885095464016
15415430 112 18411141316340792496
16752209 62 18270100375940772567
18186145 218 15285362769558440816
18981168 100 12685920421189851549
19422 9 18408325479725440080
20291156 8 18340205318346690511
20645476 183 18261391096860345073
20681677 155 18342746169696858056
20871999 31 18409163303412378261
21634736 98 18337110184793520268
21713013 43 17751070525680646543
221490 88 18265903638678256136
23402539 116 17894911807234385932
23402655 69 18041282054566586236
23557571 272 18130498712993027200
23559900 14 18059572448206836920
23598291 2 18188208689304988616
2871803 45 18263359355438462998
3082319 5 18261110794161929236
465052 167 17985556786863259359
559249 180 18339358544280535078
58051976 100 18409452496366127141
603831 33 18268146642230120780
633830 44 16443350815071820272
74978 22 18343016687932746472
7832392 63 18334295349101161844
90525 40 18412827962677280791

> <PUBCHEM_SHAPE_MULTIPOLES>
327.33
8.1
2.39
1.15
3.19
0.74
0.13
1.91
1.32
-2.06
-0.01
-0.05
0.07
-0.97

> <PUBCHEM_SHAPE_SELFOVERLAP>
670.187

> <PUBCHEM_SHAPE_VOLUME>
189.3

> <PUBCHEM_COORDINATE_TYPE>
2
5
10

$$$$
