11417183
  -OEChem-03292013303D

 43 46  0     1  0  0  0  0  0999 V2000
    0.9999   -2.4871   -1.9151 O   0  0  0  0  0  0  0  0  0  0  0  0
   -2.6536   -0.2040    2.0696 O   0  0  0  0  0  0  0  0  0  0  0  0
   -3.4755   -4.4916    0.1294 O   0  0  0  0  0  0  0  0  0  0  0  0
   -2.7792    3.0604   -2.4620 O   0  0  0  0  0  0  0  0  0  0  0  0
   -1.0720    4.6897    1.6873 O   0  0  0  0  0  0  0  0  0  0  0  0
    6.2161   -0.0456    0.8077 O   0  0  0  0  0  0  0  0  0  0  0  0
   -0.1625    0.0692    0.3818 C   0  0  2  0  0  0  0  0  0  0  0  0
    0.8089   -0.3234   -0.7782 C   0  0  2  0  0  0  0  0  0  0  0  0
   -1.1624   -1.0608    0.4008 C   0  0  0  0  0  0  0  0  0  0  0  0
   -0.8146   -2.1005   -0.4552 C   0  0  0  0  0  0  0  0  0  0  0  0
    0.4138   -1.7431   -1.1490 C   0  0  0  0  0  0  0  0  0  0  0  0
   -0.7802    1.4024    0.1124 C   0  0  0  0  0  0  0  0  0  0  0  0
    2.2382   -0.2496   -0.3588 C   0  0  0  0  0  0  0  0  0  0  0  0
   -2.2961   -1.1784    1.1926 C   0  0  0  0  0  0  0  0  0  0  0  0
   -1.5586   -3.2602   -0.5750 C   0  0  0  0  0  0  0  0  0  0  0  0
   -0.6354    2.4350    1.0370 C   0  0  0  0  0  0  0  0  0  0  0  0
   -1.4995    1.6103   -1.0630 C   0  0  0  0  0  0  0  0  0  0  0  0
    3.1364    0.5381   -1.0785 C   0  0  0  0  0  0  0  0  0  0  0  0
    2.6762   -0.9691    0.7528 C   0  0  0  0  0  0  0  0  0  0  0  0
   -3.0717   -2.3379    1.0889 C   0  0  0  0  0  0  0  0  0  0  0  0
   -2.7056   -3.3707    0.2105 C   0  0  0  0  0  0  0  0  0  0  0  0
   -2.0762    2.8552   -1.3146 C   0  0  0  0  0  0  0  0  0  0  0  0
   -1.2120    3.6799    0.7854 C   0  0  0  0  0  0  0  0  0  0  0  0
    4.4733    0.6061   -0.6864 C   0  0  0  0  0  0  0  0  0  0  0  0
    4.0131   -0.9010    1.1450 C   0  0  0  0  0  0  0  0  0  0  0  0
   -1.9325    3.8900   -0.3904 C   0  0  0  0  0  0  0  0  0  0  0  0
    4.9117   -0.1134    0.4252 C   0  0  0  0  0  0  0  0  0  0  0  0
    0.3398    0.0792    1.3570 H   0  0  0  0  0  0  0  0  0  0  0  0
    0.6529    0.2775   -1.6830 H   0  0  0  0  0  0  0  0  0  0  0  0
   -1.2596   -4.0511   -1.2542 H   0  0  0  0  0  0  0  0  0  0  0  0
   -0.0749    2.2812    1.9558 H   0  0  0  0  0  0  0  0  0  0  0  0
   -1.6278    0.8101   -1.7877 H   0  0  0  0  0  0  0  0  0  0  0  0
    2.8102    1.1050   -1.9464 H   0  0  0  0  0  0  0  0  0  0  0  0
    1.9987   -1.5989    1.3231 H   0  0  0  0  0  0  0  0  0  0  0  0
   -3.9649   -2.4452    1.7004 H   0  0  0  0  0  0  0  0  0  0  0  0
    5.1633    1.2237   -1.2553 H   0  0  0  0  0  0  0  0  0  0  0  0
    4.3493   -1.4655    2.0104 H   0  0  0  0  0  0  0  0  0  0  0  0
   -2.3846    4.8578   -0.5928 H   0  0  0  0  0  0  0  0  0  0  0  0
   -1.9025    0.3914    2.2196 H   0  0  0  0  0  0  0  0  0  0  0  0
   -3.0806   -5.0986   -0.5198 H   0  0  0  0  0  0  0  0  0  0  0  0
   -2.7771    2.2401   -2.9848 H   0  0  0  0  0  0  0  0  0  0  0  0
   -1.5335    5.4777    1.3525 H   0  0  0  0  0  0  0  0  0  0  0  0
    6.6929    0.5441    0.1985 H   0  0  0  0  0  0  0  0  0  0  0  0
  1 11  2  0  0  0  0
  2 14  1  0  0  0  0
  2 39  1  0  0  0  0
  3 21  1  0  0  0  0
  3 40  1  0  0  0  0
  4 22  1  0  0  0  0
  4 41  1  0  0  0  0
  5 23  1  0  0  0  0
  5 42  1  0  0  0  0
  6 27  1  0  0  0  0
  6 43  1  0  0  0  0
  7  8  1  0  0  0  0
  7  9  1  0  0  0  0
  7 12  1  0  0  0  0
  7 28  1  0  0  0  0
  8 11  1  0  0  0  0
  8 13  1  0  0  0  0
  8 29  1  0  0  0  0
  9 10  2  0  0  0  0
  9 14  1  0  0  0  0
 10 11  1  0  0  0  0
 10 15  1  0  0  0  0
 12 16  2  0  0  0  0
 12 17  1  0  0  0  0
 13 18  2  0  0  0  0
 13 19  1  0  0  0  0
 14 20  2  0  0  0  0
 15 21  2  0  0  0  0
 15 30  1  0  0  0  0
 16 23  1  0  0  0  0
 16 31  1  0  0  0  0
 17 22  2  0  0  0  0
 17 32  1  0  0  0  0
 18 24  1  0  0  0  0
 18 33  1  0  0  0  0
 19 25  2  0  0  0  0
 19 34  1  0  0  0  0
 20 21  1  0  0  0  0
 20 35  1  0  0  0  0
 22 26  1  0  0  0  0
 23 26  2  0  0  0  0
 24 27  2  0  0  0  0
 24 36  1  0  0  0  0
 25 27  1  0  0  0  0
 25 37  1  0  0  0  0
 26 38  1  0  0  0  0
M  END
> <PUBCHEM_COMPOUND_CID>
11417183

> <PUBCHEM_CONFORMER_RMSD>
0.6

> <PUBCHEM_CONFORMER_DIVERSEORDER>
1
3
2

> <PUBCHEM_MMFF94_PARTIAL_CHARGES>
41
1 -0.57
10 0.09
11 0.42
12 -0.14
13 -0.14
14 0.08
15 -0.15
16 -0.15
17 -0.15
18 -0.15
19 -0.15
2 -0.53
20 -0.15
21 0.08
22 0.08
23 0.08
24 -0.15
25 -0.15
26 -0.15
27 0.08
3 -0.53
30 0.15
31 0.15
32 0.15
33 0.15
34 0.15
35 0.15
36 0.15
37 0.15
38 0.15
39 0.45
4 -0.53
40 0.45
41 0.45
42 0.45
43 0.45
5 -0.53
6 -0.53
7 0.29
8 0.2
9 -0.14

> <PUBCHEM_EFFECTIVE_ROTOR_COUNT>
2.4

> <PUBCHEM_PHARMACOPHORE_FEATURES>
10
1 1 acceptor
1 2 donor
1 3 donor
1 4 donor
1 5 donor
1 6 donor
5 7 8 9 10 11 rings
6 12 16 17 22 23 26 rings
6 13 18 19 24 25 27 rings
6 9 10 14 15 20 21 rings

> <PUBCHEM_HEAVY_ATOM_COUNT>
27

> <PUBCHEM_ATOM_DEF_STEREO_COUNT>
2

> <PUBCHEM_ATOM_UDEF_STEREO_COUNT>
0

> <PUBCHEM_BOND_DEF_STEREO_COUNT>
0

> <PUBCHEM_BOND_UDEF_STEREO_COUNT>
0

> <PUBCHEM_ISOTOPIC_ATOM_COUNT>
0

> <PUBCHEM_COMPONENT_COUNT>
1

> <PUBCHEM_CACTVS_TAUTO_COUNT>
1000

> <PUBCHEM_CONFORMER_ID>
00AE365F00000001

> <PUBCHEM_MMFF94_ENERGY>
80.3801

> <PUBCHEM_FEATURE_SELFOVERLAP>
50.827

> <PUBCHEM_SHAPE_FINGERPRINT>
10165383 225 17044353658712340036
11045515 52 18117555351957072647
11578080 2 17827335980729746597
11582403 64 16301187156966783981
12160290 23 18044402476970993437
12643181 29 17977669702780475798
12788726 201 18261657229834605939
13134695 92 17901949973931166447
13140716 1 18341336711511404120
133893 2 17399821761195043291
13540713 5 16835734942953538967
13583140 156 17169002075392384088
13965767 371 17910995406763328267
14787075 74 18268414755864747861
14955137 171 17331738806859412123
15775530 1 18056774126168093702
17980427 23 17772769392503479099
1813 80 18051986001825820214
19319366 153 17765137385958420301
20587220 46 14526888780361145096
20600515 1 17914357876455723819
21033650 10 17415845678934722872
21049683 271 17612879609296903140
21304303 282 17973974329084958333
22149856 69 17618255839903002921
22182313 1 18058460833187472758
22907989 373 18411423920889024124
22956985 138 17036976378525509618
23366157 5 17256246471635172703
23419403 2 16195883904611775991
23558518 356 17694782926540815045
23559900 14 10809616061612286982
23598288 3 18338499877661187138
25222932 49 14862668765513036257
283562 15 18260824943051712586
3091708 16 9131314871858152392
3380486 145 18340219556706901243
3380486 77 16881082959936575849
3493558 16 17459178750059087517
350125 39 17907889226147895102
352729 6 18340202999312420172
4409770 3 18335128783320318071
469060 322 17631433713328424087
474 4 17691682282064926360
79837 15 18195245508004107904
81228 2 17972634058960217873
90316 7 18339651138732461410
9981440 41 17985526876515233434

> <PUBCHEM_SHAPE_MULTIPOLES>
520.43
7.34
5.68
1.64
13.55
2.78
-0.22
-2.26
1.51
-8.67
0.03
-0.66
0.74
0.82

> <PUBCHEM_SHAPE_SELFOVERLAP>
1173.157

> <PUBCHEM_SHAPE_VOLUME>
274.9

> <PUBCHEM_COORDINATE_TYPE>
2
5
10

$$$$
