11417497
  -OEChem-03292013303D

 48 50  0     1  0  0  0  0  0999 V2000
    1.4808   -1.8307   -0.6248 O   0  0  0  0  0  0  0  0  0  0  0  0
    3.7951    0.0232    1.5355 O   0  0  0  0  0  0  0  0  0  0  0  0
    5.6474   -1.5840    0.2240 O   0  0  0  0  0  0  0  0  0  0  0  0
    5.4860   -0.4601   -2.3321 O   0  0  0  0  0  0  0  0  0  0  0  0
   -4.6829   -1.2102   -1.2163 O   0  0  0  0  0  0  0  0  0  0  0  0
   -2.2073   -4.6325    0.6313 O   0  0  0  0  0  0  0  0  0  0  0  0
   -0.3984   -0.1749    0.6852 N   0  0  0  0  0  0  0  0  0  0  0  0
   -2.8557    0.5809   -0.5344 N   0  0  0  0  0  0  0  0  0  0  0  0
   -3.4649   -2.9426   -0.2907 N   0  0  0  0  0  0  0  0  0  0  0  0
    1.9380   -0.7345    0.1684 C   0  0  1  0  0  0  0  0  0  0  0  0
    0.9104   -0.4712    1.2755 C   0  0  0  0  0  0  0  0  0  0  0  0
    3.3392   -1.0583    0.7240 C   0  0  1  0  0  0  0  0  0  0  0  0
   -0.6658    1.1965    0.4082 C   0  0  0  0  0  0  0  0  0  0  0  0
    4.3805   -1.3180   -0.3812 C   0  0  1  0  0  0  0  0  0  0  0  0
   -1.3617   -1.1515    0.4062 C   0  0  0  0  0  0  0  0  0  0  0  0
   -1.8927    1.5450   -0.1985 C   0  0  0  0  0  0  0  0  0  0  0  0
   -2.6074   -0.6568   -0.2515 C   0  0  0  0  0  0  0  0  0  0  0  0
    0.2298    2.2417    0.7109 C   0  0  0  0  0  0  0  0  0  0  0  0
    4.5353   -0.1267   -1.3255 C   0  0  0  0  0  0  0  0  0  0  0  0
   -0.0761    3.5744    0.4194 C   0  0  0  0  0  0  0  0  0  0  0  0
   -2.1900    2.8858   -0.4876 C   0  0  0  0  0  0  0  0  0  0  0  0
   -1.2855    3.8969   -0.1808 C   0  0  0  0  0  0  0  0  0  0  0  0
   -1.2930   -2.4662    0.6667 C   0  0  0  0  0  0  0  0  0  0  0  0
   -3.6899   -1.6279   -0.6361 C   0  0  0  0  0  0  0  0  0  0  0  0
   -2.3510   -3.4469    0.3420 C   0  0  0  0  0  0  0  0  0  0  0  0
    0.9163    4.6368    0.7641 C   0  0  0  0  0  0  0  0  0  0  0  0
   -1.6366    5.3118   -0.5017 C   0  0  0  0  0  0  0  0  0  0  0  0
    1.9862    0.1531   -0.4704 H   0  0  0  0  0  0  0  0  0  0  0  0
    0.8327   -1.3742    1.8940 H   0  0  0  0  0  0  0  0  0  0  0  0
    1.2424    0.2794    1.9988 H   0  0  0  0  0  0  0  0  0  0  0  0
    3.2846   -1.9447    1.3682 H   0  0  0  0  0  0  0  0  0  0  0  0
    4.1128   -2.2104   -0.9587 H   0  0  0  0  0  0  0  0  0  0  0  0
    1.1998    2.0513    1.1580 H   0  0  0  0  0  0  0  0  0  0  0  0
    3.6070    0.1403   -1.8347 H   0  0  0  0  0  0  0  0  0  0  0  0
    4.9209    0.7524   -0.8003 H   0  0  0  0  0  0  0  0  0  0  0  0
   -3.1420    3.1284   -0.9564 H   0  0  0  0  0  0  0  0  0  0  0  0
   -0.4232   -2.9027    1.1463 H   0  0  0  0  0  0  0  0  0  0  0  0
    0.7566   -1.5022   -1.1839 H   0  0  0  0  0  0  0  0  0  0  0  0
    4.6768   -0.2141    1.8699 H   0  0  0  0  0  0  0  0  0  0  0  0
    5.5374   -2.3560    0.8049 H   0  0  0  0  0  0  0  0  0  0  0  0
    0.4837    5.3544    1.4688 H   0  0  0  0  0  0  0  0  0  0  0  0
    1.8126    4.2218    1.2381 H   0  0  0  0  0  0  0  0  0  0  0  0
    1.2440    5.1643   -0.1376 H   0  0  0  0  0  0  0  0  0  0  0  0
   -4.1940   -3.6084   -0.5308 H   0  0  0  0  0  0  0  0  0  0  0  0
   -2.6199    5.3880   -0.9791 H   0  0  0  0  0  0  0  0  0  0  0  0
   -1.6729    5.9165    0.4102 H   0  0  0  0  0  0  0  0  0  0  0  0
   -0.9078    5.7428   -1.1958 H   0  0  0  0  0  0  0  0  0  0  0  0
    5.1367   -1.2228   -2.8240 H   0  0  0  0  0  0  0  0  0  0  0  0
  1 10  1  0  0  0  0
  1 38  1  0  0  0  0
  2 12  1  0  0  0  0
  2 39  1  0  0  0  0
  3 14  1  0  0  0  0
  3 40  1  0  0  0  0
  4 19  1  0  0  0  0
  4 48  1  0  0  0  0
  5 24  2  0  0  0  0
  6 25  2  0  0  0  0
  7 11  1  0  0  0  0
  7 13  1  0  0  0  0
  7 15  1  0  0  0  0
  8 16  1  0  0  0  0
  8 17  2  0  0  0  0
  9 24  1  0  0  0  0
  9 25  1  0  0  0  0
  9 44  1  0  0  0  0
 10 11  1  0  0  0  0
 10 12  1  0  0  0  0
 10 28  1  0  0  0  0
 11 29  1  0  0  0  0
 11 30  1  0  0  0  0
 12 14  1  0  0  0  0
 12 31  1  0  0  0  0
 13 16  2  0  0  0  0
 13 18  1  0  0  0  0
 14 19  1  0  0  0  0
 14 32  1  0  0  0  0
 15 17  1  0  0  0  0
 15 23  2  0  0  0  0
 16 21  1  0  0  0  0
 17 24  1  0  0  0  0
 18 20  2  0  0  0  0
 18 33  1  0  0  0  0
 19 34  1  0  0  0  0
 19 35  1  0  0  0  0
 20 22  1  0  0  0  0
 20 26  1  0  0  0  0
 21 22  2  0  0  0  0
 21 36  1  0  0  0  0
 22 27  1  0  0  0  0
 23 25  1  0  0  0  0
 23 37  1  0  0  0  0
 26 41  1  0  0  0  0
 26 42  1  0  0  0  0
 26 43  1  0  0  0  0
 27 45  1  0  0  0  0
 27 46  1  0  0  0  0
 27 47  1  0  0  0  0
M  END
> <PUBCHEM_COMPOUND_CID>
11417497

> <PUBCHEM_CONFORMER_RMSD>
0.8

> <PUBCHEM_CONFORMER_DIVERSEORDER>
1
14
4
18
9
8
15
3
6
17
13
7
16
12
5
2
11
10

> <PUBCHEM_MMFF94_PARTIAL_CHARGES>
35
1 -0.68
10 0.28
11 0.37
12 0.28
13 0.1
14 0.28
15 0.11
16 0.18
17 0.44
18 -0.15
19 0.28
2 -0.68
20 -0.14
21 -0.15
22 -0.14
23 -0.14
24 0.63
25 0.62
26 0.14
27 0.14
3 -0.68
33 0.15
36 0.15
37 0.15
38 0.4
39 0.4
4 -0.68
40 0.4
44 0.37
48 0.4
5 -0.57
6 -0.57
7 -0.57
8 -0.63
9 -0.49

> <PUBCHEM_EFFECTIVE_ROTOR_COUNT>
5

> <PUBCHEM_PHARMACOPHORE_FEATURES>
16
1 1 acceptor
1 1 donor
1 2 acceptor
1 2 donor
1 3 acceptor
1 3 donor
1 4 acceptor
1 4 donor
1 5 acceptor
1 6 acceptor
1 7 cation
1 8 acceptor
1 9 donor
6 13 16 18 20 21 22 rings
6 7 8 13 15 16 17 rings
6 9 15 17 23 24 25 rings

> <PUBCHEM_HEAVY_ATOM_COUNT>
27

> <PUBCHEM_ATOM_DEF_STEREO_COUNT>
3

> <PUBCHEM_ATOM_UDEF_STEREO_COUNT>
0

> <PUBCHEM_BOND_DEF_STEREO_COUNT>
0

> <PUBCHEM_BOND_UDEF_STEREO_COUNT>
0

> <PUBCHEM_ISOTOPIC_ATOM_COUNT>
0

> <PUBCHEM_COMPONENT_COUNT>
1

> <PUBCHEM_CACTVS_TAUTO_COUNT>
3

> <PUBCHEM_CONFORMER_ID>
00AE379900000001

> <PUBCHEM_MMFF94_ENERGY>
83.0223

> <PUBCHEM_FEATURE_SELFOVERLAP>
81.284

> <PUBCHEM_SHAPE_FINGERPRINT>
10411042 1 18338229474719794931
10937287 8 17689719658072684612
1100329 8 18411133624476923897
11049842 53 17761768473751503746
11477941 20 18196679439330375452
11488393 25 17471301020411374938
11578080 2 16016284151960658207
11582403 64 15972076985559003722
11640471 11 17606130476635319904
12107183 9 17540807297166408930
12173636 292 18049713023385752612
12553582 1 18410295843354575819
12788726 201 18334572400013540706
13140716 1 18119803866711821939
133893 2 17620783976908964667
13540713 4 17755850163626413435
138480 1 15601448928796337257
14114211 68 17474969626852085140
14251757 5 18408611344095605726
14363568 33 17615428268555268762
14508225 48 18341036502198409261
14790565 3 18123751946479297969
14955137 171 18262815063556452395
15463212 79 18046907078575552248
15475509 8 18272091587377813495
15961568 22 18193829565236546104
17818456 19 17831281819330941634
19591789 44 18051968118146333113
20101258 96 18337408134953438483
21033650 10 18118712962478042886
23557571 272 18272079496865456016
23559900 14 18195516206665390266
24893989 43 16688997140562125101
255183 451 17910682282405104903
4017518 198 17047956097699577372
4280585 95 18267008621920482426
532947 4 17763466510103526236
6700243 42 17914087311339563350
81228 2 18343026562362883331
9709674 26 17904749330862758675
9981440 41 17759802546285385080

> <PUBCHEM_SHAPE_MULTIPOLES>
505.49
8.31
6.6
1.2
13.2
5.88
-0.3
-5.91
-3.83
-7.11
0.64
1.26
-0.05
0.35

> <PUBCHEM_SHAPE_SELFOVERLAP>
1084.096

> <PUBCHEM_SHAPE_VOLUME>
277.4

> <PUBCHEM_COORDINATE_TYPE>
2
5
10

$$$$
