11429552
  -OEChem-03292013303D

 55 57  0     1  0  0  0  0  0999 V2000
    0.2389    2.3086    0.2105 O   0  0  0  0  0  0  0  0  0  0  0  0
   -1.9946    0.7768    1.2890 O   0  0  0  0  0  0  0  0  0  0  0  0
   -1.0941   -1.3791   -2.3783 O   0  0  0  0  0  0  0  0  0  0  0  0
    2.7350    2.2568    1.2009 O   0  0  0  0  0  0  0  0  0  0  0  0
    5.6260   -1.4601    0.3928 O   0  0  0  0  0  0  0  0  0  0  0  0
    3.6128   -2.5036   -1.0475 O   0  0  0  0  0  0  0  0  0  0  0  0
   -6.8372   -1.0830    2.3863 O   0  0  0  0  0  0  0  0  0  0  0  0
   -1.6062    1.3150   -1.0162 C   0  0  2  0  0  0  0  0  0  0  0  0
   -0.9421    2.6435   -0.5647 C   0  0  1  0  0  0  0  0  0  0  0  0
   -2.5972    0.7278   -0.0004 C   0  0  1  0  0  0  0  0  0  0  0  0
   -0.3659    0.4758   -1.0430 C   0  0  0  0  0  0  0  0  0  0  0  0
   -2.2801    1.4671   -2.3818 C   0  0  0  0  0  0  0  0  0  0  0  0
    0.6355    1.0953   -0.3000 C   0  0  0  0  0  0  0  0  0  0  0  0
   -2.9295   -0.7249   -0.3420 C   0  0  0  0  0  0  0  0  0  0  0  0
   -1.8161    3.5741    0.2640 C   0  0  0  0  0  0  0  0  0  0  0  0
   -0.1478   -0.7596   -1.6277 C   0  0  0  0  0  0  0  0  0  0  0  0
    1.8765    0.5017   -0.1007 C   0  0  0  0  0  0  0  0  0  0  0  0
    2.1034   -0.7404   -0.6911 C   0  0  0  0  0  0  0  0  0  0  0  0
    1.0973   -1.3674   -1.4539 C   0  0  0  0  0  0  0  0  0  0  0  0
   -3.8714   -1.3245    0.6678 C   0  0  0  0  0  0  0  0  0  0  0  0
    2.9287    1.1550    0.6984 C   0  0  0  0  0  0  0  0  0  0  0  0
    3.4002   -1.4154   -0.5232 C   0  0  0  0  0  0  0  0  0  0  0  0
    4.2337    0.4451    0.8783 C   0  0  0  0  0  0  0  0  0  0  0  0
    4.4458   -0.7497    0.2967 C   0  0  0  0  0  0  0  0  0  0  0  0
   -5.2182   -1.3353    0.6411 C   0  0  0  0  0  0  0  0  0  0  0  0
    5.2209    1.1799    1.7456 C   0  0  0  0  0  0  0  0  0  0  0  0
   -5.9912   -2.0239    1.7381 C   0  0  0  0  0  0  0  0  0  0  0  0
   -6.0604   -0.7258   -0.4460 C   0  0  0  0  0  0  0  0  0  0  0  0
    5.5972   -2.3300    1.5070 C   0  0  0  0  0  0  0  0  0  0  0  0
   -0.5841    3.2069   -1.4397 H   0  0  0  0  0  0  0  0  0  0  0  0
   -3.5116    1.3311    0.0414 H   0  0  0  0  0  0  0  0  0  0  0  0
   -3.1191    2.1696   -2.3210 H   0  0  0  0  0  0  0  0  0  0  0  0
   -1.5772    1.8635   -3.1249 H   0  0  0  0  0  0  0  0  0  0  0  0
   -2.6676    0.5340   -2.7966 H   0  0  0  0  0  0  0  0  0  0  0  0
   -3.3477   -0.8462   -1.3430 H   0  0  0  0  0  0  0  0  0  0  0  0
   -2.0635   -1.3814   -0.2408 H   0  0  0  0  0  0  0  0  0  0  0  0
   -1.2968    4.5290    0.4073 H   0  0  0  0  0  0  0  0  0  0  0  0
   -2.7671    3.7804   -0.2353 H   0  0  0  0  0  0  0  0  0  0  0  0
   -2.0084    3.1964    1.2715 H   0  0  0  0  0  0  0  0  0  0  0  0
    1.2831   -2.3357   -1.9136 H   0  0  0  0  0  0  0  0  0  0  0  0
   -1.3412    0.0612    1.3621 H   0  0  0  0  0  0  0  0  0  0  0  0
   -3.3770   -1.7985    1.5157 H   0  0  0  0  0  0  0  0  0  0  0  0
   -0.7449   -2.2293   -2.6959 H   0  0  0  0  0  0  0  0  0  0  0  0
    5.4337    2.1706    1.3302 H   0  0  0  0  0  0  0  0  0  0  0  0
    6.1751    0.6497    1.8240 H   0  0  0  0  0  0  0  0  0  0  0  0
    4.8239    1.3009    2.7589 H   0  0  0  0  0  0  0  0  0  0  0  0
   -6.6036   -2.8370    1.3338 H   0  0  0  0  0  0  0  0  0  0  0  0
   -5.3329   -2.4542    2.4997 H   0  0  0  0  0  0  0  0  0  0  0  0
   -6.6877    0.0754   -0.0427 H   0  0  0  0  0  0  0  0  0  0  0  0
   -6.7105   -1.4860   -0.8913 H   0  0  0  0  0  0  0  0  0  0  0  0
   -5.4666   -0.2897   -1.2535 H   0  0  0  0  0  0  0  0  0  0  0  0
    4.7962   -3.0721    1.4172 H   0  0  0  0  0  0  0  0  0  0  0  0
    5.4893   -1.7772    2.4466 H   0  0  0  0  0  0  0  0  0  0  0  0
    6.5493   -2.8681    1.5428 H   0  0  0  0  0  0  0  0  0  0  0  0
   -7.6099   -0.9361    1.8146 H   0  0  0  0  0  0  0  0  0  0  0  0
  1  9  1  0  0  0  0
  1 13  1  0  0  0  0
  2 10  1  0  0  0  0
  2 41  1  0  0  0  0
  3 16  1  0  0  0  0
  3 43  1  0  0  0  0
  4 21  2  0  0  0  0
  5 24  1  0  0  0  0
  5 29  1  0  0  0  0
  6 22  2  0  0  0  0
  7 27  1  0  0  0  0
  7 55  1  0  0  0  0
  8  9  1  0  0  0  0
  8 10  1  0  0  0  0
  8 11  1  0  0  0  0
  8 12  1  0  0  0  0
  9 15  1  0  0  0  0
  9 30  1  0  0  0  0
 10 14  1  0  0  0  0
 10 31  1  0  0  0  0
 11 13  1  0  0  0  0
 11 16  2  0  0  0  0
 12 32  1  0  0  0  0
 12 33  1  0  0  0  0
 12 34  1  0  0  0  0
 13 17  2  0  0  0  0
 14 20  1  0  0  0  0
 14 35  1  0  0  0  0
 14 36  1  0  0  0  0
 15 37  1  0  0  0  0
 15 38  1  0  0  0  0
 15 39  1  0  0  0  0
 16 19  1  0  0  0  0
 17 18  1  0  0  0  0
 17 21  1  0  0  0  0
 18 19  2  0  0  0  0
 18 22  1  0  0  0  0
 19 40  1  0  0  0  0
 20 25  2  0  0  0  0
 20 42  1  0  0  0  0
 21 23  1  0  0  0  0
 22 24  1  0  0  0  0
 23 24  2  0  0  0  0
 23 26  1  0  0  0  0
 25 27  1  0  0  0  0
 25 28  1  0  0  0  0
 26 44  1  0  0  0  0
 26 45  1  0  0  0  0
 26 46  1  0  0  0  0
 27 47  1  0  0  0  0
 27 48  1  0  0  0  0
 28 49  1  0  0  0  0
 28 50  1  0  0  0  0
 28 51  1  0  0  0  0
 29 52  1  0  0  0  0
 29 53  1  0  0  0  0
 29 54  1  0  0  0  0
M  END
> <PUBCHEM_COMPOUND_CID>
11429552

> <PUBCHEM_CONFORMER_RMSD>
0.8

> <PUBCHEM_CONFORMER_DIVERSEORDER>
2
3
1
4

> <PUBCHEM_MMFF94_PARTIAL_CHARGES>
32
1 -0.36
10 0.28
11 -0.14
13 0.08
14 0.14
16 0.08
17 0.09
18 0.09
19 -0.15
2 -0.68
20 -0.29
21 0.47
22 0.47
23 -0.12
24 0.09
25 -0.28
26 0.14
27 0.42
28 0.14
29 0.28
3 -0.53
4 -0.57
40 0.15
41 0.4
42 0.15
43 0.45
5 -0.36
55 0.4
6 -0.57
7 -0.68
8 0.14
9 0.28

> <PUBCHEM_EFFECTIVE_ROTOR_COUNT>
5.6

> <PUBCHEM_PHARMACOPHORE_FEATURES>
13
1 1 acceptor
1 2 acceptor
1 2 donor
1 28 hydrophobe
1 3 donor
1 4 acceptor
1 5 acceptor
1 6 acceptor
1 7 acceptor
1 7 donor
5 1 8 9 11 13 rings
6 11 13 16 17 18 19 rings
6 17 18 21 22 23 24 rings

> <PUBCHEM_HEAVY_ATOM_COUNT>
29

> <PUBCHEM_ATOM_DEF_STEREO_COUNT>
3

> <PUBCHEM_ATOM_UDEF_STEREO_COUNT>
0

> <PUBCHEM_BOND_DEF_STEREO_COUNT>
1

> <PUBCHEM_BOND_UDEF_STEREO_COUNT>
0

> <PUBCHEM_ISOTOPIC_ATOM_COUNT>
0

> <PUBCHEM_COMPONENT_COUNT>
1

> <PUBCHEM_CACTVS_TAUTO_COUNT>
15

> <PUBCHEM_CONFORMER_ID>
00AE66B000000002

> <PUBCHEM_MMFF94_ENERGY>
97.6356

> <PUBCHEM_FEATURE_SELFOVERLAP>
66.11

> <PUBCHEM_SHAPE_FINGERPRINT>
10076449 9 17845110510618529718
117089 54 18049161069288198450
12422481 6 17989490706022326927
12895837 130 12390925991660437746
13140716 1 17769921695741557968
13544653 18 18409450319229002373
13583140 156 18117258278101988406
13782708 43 18113894923324861554
13944108 23 9436363365417006195
14341114 328 16486977331885571539
14765038 42 17416397878452841568
14790565 3 17402048297500209068
15183329 4 14273729664710014547
15238133 3 15410895193228260802
15475509 35 18113892741871917842
15475509 84 17774454801805016913
17980427 23 16845015719066069973
1813 80 17676209095397697189
1979834 28 17916606313848249087
20642791 268 17702668907403111525
20775438 99 13264382534101469873
21756936 100 13758064186748921999
22182313 1 18201719492360995629
23559900 14 17968086508558253604
2838139 119 12391521849489497019
3004659 81 16370728157830155643
3380486 145 18269817861482036109
350125 39 18201996629916602324
392239 28 18272367590060202443
465052 167 18335989752058324523
5104073 3 18270951350770040640
59682541 52 11747201498719853643
59755656 520 17753317678798790285
7808743 9 12031784743363071883

> <PUBCHEM_SHAPE_MULTIPOLES>
555.72
13.29
2.99
1.92
6.19
1.43
0.21
-10.63
-9.03
0.2
-0.5
1.04
-0.42
2.18

> <PUBCHEM_SHAPE_SELFOVERLAP>
1203.776

> <PUBCHEM_SHAPE_VOLUME>
304.5

> <PUBCHEM_COORDINATE_TYPE>
2
5
10

$$$$
