11429758
  -OEChem-03292013303D

 44 45  0     0  0  0  0  0  0999 V2000
   -2.7301    2.9015    1.5145 Cl  0  0  0  0  0  0  0  0  0  0  0  0
   -5.8030   -1.2471   -1.3084 O   0  0  0  0  0  0  0  0  0  0  0  0
   -5.4916    3.1608    0.4268 O   0  0  0  0  0  0  0  0  0  0  0  0
    1.0397   -0.3594    1.4635 O   0  0  0  0  0  0  0  0  0  0  0  0
   -3.4792   -2.7446    0.6004 O   0  0  0  0  0  0  0  0  0  0  0  0
   -2.5467   -2.1962   -1.4315 O   0  0  0  0  0  0  0  0  0  0  0  0
    7.2835   -0.1953   -0.1122 O   0  0  0  0  0  0  0  0  0  0  0  0
    3.5548    2.0695   -1.9001 O   0  0  0  0  0  0  0  0  0  0  0  0
    5.4465   -1.8437    1.1798 O   0  0  0  0  0  0  0  0  0  0  0  0
    1.7285    0.4284   -0.6176 N   0  0  0  0  0  0  0  0  0  0  0  0
   -1.6715    0.1054    0.9502 C   0  0  0  0  0  0  0  0  0  0  0  0
   -3.0647    0.4143    0.4666 C   0  0  0  0  0  0  0  0  0  0  0  0
   -0.6195    0.4391   -0.1058 C   0  0  0  0  0  0  0  0  0  0  0  0
   -3.7837   -0.5724   -0.1994 C   0  0  0  0  0  0  0  0  0  0  0  0
   -3.6209    1.6700    0.6852 C   0  0  0  0  0  0  0  0  0  0  0  0
    0.7909    0.1165    0.3587 C   0  0  0  0  0  0  0  0  0  0  0  0
   -5.0747   -0.3000   -0.6524 C   0  0  0  0  0  0  0  0  0  0  0  0
   -4.9118    1.9423    0.2320 C   0  0  0  0  0  0  0  0  0  0  0  0
   -5.6386    0.9573   -0.4366 C   0  0  0  0  0  0  0  0  0  0  0  0
    3.0713    0.2395   -0.4644 C   0  0  0  0  0  0  0  0  0  0  0  0
   -3.2038   -1.8915   -0.4307 C   0  0  0  0  0  0  0  0  0  0  0  0
    3.9776    1.1646   -1.1875 C   0  0  0  0  0  0  0  0  0  0  0  0
    3.5597   -0.7381    0.3046 C   0  0  0  0  0  0  0  0  0  0  0  0
    5.0148   -0.9418    0.4692 C   0  0  0  0  0  0  0  0  0  0  0  0
    5.4324    0.9575   -1.0214 C   0  0  0  0  0  0  0  0  0  0  0  0
    5.9229   -0.0201   -0.2520 C   0  0  0  0  0  0  0  0  0  0  0  0
   -2.9608   -4.0745    0.4902 C   0  0  0  0  0  0  0  0  0  0  0  0
    7.7780    0.5580    0.9783 C   0  0  0  0  0  0  0  0  0  0  0  0
   -1.5845   -0.9498    1.2379 H   0  0  0  0  0  0  0  0  0  0  0  0
   -1.4505    0.6266    1.8892 H   0  0  0  0  0  0  0  0  0  0  0  0
   -0.6570    1.5058   -0.3586 H   0  0  0  0  0  0  0  0  0  0  0  0
   -0.8064   -0.1200   -1.0301 H   0  0  0  0  0  0  0  0  0  0  0  0
   -6.6454    1.1612   -0.7932 H   0  0  0  0  0  0  0  0  0  0  0  0
    1.4340    1.0230   -1.3886 H   0  0  0  0  0  0  0  0  0  0  0  0
    2.9464   -1.4718    0.8141 H   0  0  0  0  0  0  0  0  0  0  0  0
    6.0910    1.6355   -1.5544 H   0  0  0  0  0  0  0  0  0  0  0  0
   -5.2984   -2.0724   -1.3884 H   0  0  0  0  0  0  0  0  0  0  0  0
   -6.3851    3.1554    0.0428 H   0  0  0  0  0  0  0  0  0  0  0  0
   -3.2608   -4.6319    1.3814 H   0  0  0  0  0  0  0  0  0  0  0  0
   -3.3769   -4.5693   -0.3923 H   0  0  0  0  0  0  0  0  0  0  0  0
   -1.8681   -4.0498    0.4408 H   0  0  0  0  0  0  0  0  0  0  0  0
    7.6365    1.6324    0.8167 H   0  0  0  0  0  0  0  0  0  0  0  0
    7.3076    0.2547    1.9203 H   0  0  0  0  0  0  0  0  0  0  0  0
    8.8525    0.3696    1.0631 H   0  0  0  0  0  0  0  0  0  0  0  0
  1 15  1  0  0  0  0
  2 17  1  0  0  0  0
  2 37  1  0  0  0  0
  3 18  1  0  0  0  0
  3 38  1  0  0  0  0
  4 16  2  0  0  0  0
  5 21  1  0  0  0  0
  5 27  1  0  0  0  0
  6 21  2  0  0  0  0
  7 26  1  0  0  0  0
  7 28  1  0  0  0  0
  8 22  2  0  0  0  0
  9 24  2  0  0  0  0
 10 16  1  0  0  0  0
 10 20  1  0  0  0  0
 10 34  1  0  0  0  0
 11 12  1  0  0  0  0
 11 13  1  0  0  0  0
 11 29  1  0  0  0  0
 11 30  1  0  0  0  0
 12 14  2  0  0  0  0
 12 15  1  0  0  0  0
 13 16  1  0  0  0  0
 13 31  1  0  0  0  0
 13 32  1  0  0  0  0
 14 17  1  0  0  0  0
 14 21  1  0  0  0  0
 15 18  2  0  0  0  0
 17 19  2  0  0  0  0
 18 19  1  0  0  0  0
 19 33  1  0  0  0  0
 20 22  1  0  0  0  0
 20 23  2  0  0  0  0
 22 25  1  0  0  0  0
 23 24  1  0  0  0  0
 23 35  1  0  0  0  0
 24 26  1  0  0  0  0
 25 26  2  0  0  0  0
 25 36  1  0  0  0  0
 27 39  1  0  0  0  0
 27 40  1  0  0  0  0
 27 41  1  0  0  0  0
 28 42  1  0  0  0  0
 28 43  1  0  0  0  0
 28 44  1  0  0  0  0
M  END
> <PUBCHEM_COMPOUND_CID>
11429758

> <PUBCHEM_CONFORMER_RMSD>
1

> <PUBCHEM_CONFORMER_DIVERSEORDER>
1
45
51
44
56
33
9
18
28
21
34
36
32
14
16
15
25
31
5
11
12
43
42
48
49
20
54
47
17
57
7
13
6
23
50
40
22
52
27
35
4
55
37
26
19
2
41
39
38
29
24
46
53
30
10
3
8

> <PUBCHEM_MMFF94_PARTIAL_CHARGES>
34
1 -0.18
10 -0.54
11 0.14
12 -0.14
13 0.06
14 0.09
15 0.18
16 0.57
17 0.08
18 0.08
19 -0.15
2 -0.53
20 0.12
21 0.63
22 0.54
23 -0.14
24 0.54
25 -0.14
26 0.09
27 0.28
28 0.28
3 -0.53
33 0.15
34 0.37
35 0.15
36 0.15
37 0.45
38 0.45
4 -0.57
5 -0.43
6 -0.57
7 -0.36
8 -0.57
9 -0.57

> <PUBCHEM_EFFECTIVE_ROTOR_COUNT>
8

> <PUBCHEM_PHARMACOPHORE_FEATURES>
10
1 10 donor
1 2 donor
1 3 donor
1 4 acceptor
1 6 acceptor
1 7 acceptor
1 8 acceptor
1 9 acceptor
6 12 14 15 17 18 19 rings
6 20 22 23 24 25 26 rings

> <PUBCHEM_HEAVY_ATOM_COUNT>
28

> <PUBCHEM_ATOM_DEF_STEREO_COUNT>
0

> <PUBCHEM_ATOM_UDEF_STEREO_COUNT>
0

> <PUBCHEM_BOND_DEF_STEREO_COUNT>
0

> <PUBCHEM_BOND_UDEF_STEREO_COUNT>
0

> <PUBCHEM_ISOTOPIC_ATOM_COUNT>
0

> <PUBCHEM_COMPONENT_COUNT>
1

> <PUBCHEM_CACTVS_TAUTO_COUNT>
100

> <PUBCHEM_CONFORMER_ID>
00AE677E00000001

> <PUBCHEM_MMFF94_ENERGY>
89.718

> <PUBCHEM_FEATURE_SELFOVERLAP>
50.753

> <PUBCHEM_SHAPE_FINGERPRINT>
10411042 1 18053660567616907279
10595046 47 18262241143839299206
11089746 13 18187367627587866164
11315181 36 18335420188182367013
11796584 16 18413394233184039606
12107183 9 18118120277901431530
12236239 1 18335138665781531712
12616971 3 17749116603634609060
12788726 201 18272087172056416579
14251757 5 18412829114155576155
15183329 4 17967810553047002230
15250474 111 18335134302322216498
17844677 252 18264778820791968212
17857418 61 18408601461792335486
19489759 90 18060420196792984681
20511986 3 18336253566498669008
23198884 109 18335419076107363535
23559900 14 18272080647315675089
24771293 8 18187363281951491868
3004659 81 18410858737895298486
34797466 226 17489315221489751092
3633792 109 18115293489815709231
4073 2 18261395594092342850
4169191 19 17096662092145850124
497634 4 17895192272567092135
559249 180 18340764849754200335
58260988 114 16516266144655123995
59755656 520 16805330998017781361
67856867 119 18336548321794379228
7226269 152 18059575750540984585
9981440 41 18271531918743178207

> <PUBCHEM_SHAPE_MULTIPOLES>
526.16
18.88
3.11
1.28
24.31
1.57
0.12
-2.53
0.64
-5.93
-0.66
0.49
-0.25
-2.14

> <PUBCHEM_SHAPE_SELFOVERLAP>
1116.001

> <PUBCHEM_SHAPE_VOLUME>
293.7

> <PUBCHEM_COORDINATE_TYPE>
2
5
10

$$$$
