11439812
  -OEChem-03292013303D

 49 52  0     1  0  0  0  0  0999 V2000
    4.0731    0.8559    1.3565 O   0  0  0  0  0  0  0  0  0  0  0  0
    0.8747   -1.0018   -0.0018 O   0  0  0  0  0  0  0  0  0  0  0  0
   -0.3721    1.0026   -0.2595 O   0  0  0  0  0  0  0  0  0  0  0  0
    2.3796    0.5849    2.8603 O   0  0  0  0  0  0  0  0  0  0  0  0
   -1.9224   -0.7025    0.1052 O   0  0  0  0  0  0  0  0  0  0  0  0
   -2.4943    2.8676   -0.4218 O   0  0  0  0  0  0  0  0  0  0  0  0
   -4.9973    1.6089   -1.3335 O   0  0  0  0  0  0  0  0  0  0  0  0
   -5.5821   -0.7410    0.2451 O   0  0  0  0  0  0  0  0  0  0  0  0
   -2.2677   -3.1269    1.3539 O   0  0  0  0  0  0  0  0  0  0  0  0
    2.8080    1.0077   -0.6497 C   0  0  2  0  0  0  0  0  0  0  0  0
    2.7339   -0.3254   -1.4181 C   0  0  1  0  0  0  0  0  0  0  0  0
    4.2106    1.0712   -0.0539 C   0  0  2  0  0  0  0  0  0  0  0  0
    3.8937   -1.1612   -0.8490 C   0  0  2  0  0  0  0  0  0  0  0  0
    1.8852    1.1576    0.5475 C   0  0  1  0  0  0  0  0  0  0  0  0
    4.9799   -0.1008   -0.6495 C   0  0  0  0  0  0  0  0  0  0  0  0
    1.3731   -0.9969   -1.3337 C   0  0  0  0  0  0  0  0  0  0  0  0
    0.6181    0.3095    0.4994 C   0  0  2  0  0  0  0  0  0  0  0  0
    2.7627    0.8164    1.7234 C   0  0  0  0  0  0  0  0  0  0  0  0
    4.3515   -2.2865   -1.7659 C   0  0  0  0  0  0  0  0  0  0  0  0
   -1.6874    0.7002    0.2049 C   0  0  2  0  0  0  0  0  0  0  0  0
   -2.6817    1.4730   -0.6616 C   0  0  1  0  0  0  0  0  0  0  0  0
   -4.1240    1.0902   -0.3291 C   0  0  2  0  0  0  0  0  0  0  0  0
   -4.2983   -0.4281   -0.2890 C   0  0  1  0  0  0  0  0  0  0  0  0
   -3.2174   -1.0761    0.5793 C   0  0  1  0  0  0  0  0  0  0  0  0
   -3.2996   -2.5988    0.5406 C   0  0  0  0  0  0  0  0  0  0  0  0
    2.6391    1.8231   -1.3636 H   0  0  0  0  0  0  0  0  0  0  0  0
    2.9498   -0.1285   -2.4780 H   0  0  0  0  0  0  0  0  0  0  0  0
    4.7130    2.0300   -0.2128 H   0  0  0  0  0  0  0  0  0  0  0  0
    3.6141   -1.5908    0.1219 H   0  0  0  0  0  0  0  0  0  0  0  0
    1.6263    2.2181    0.6680 H   0  0  0  0  0  0  0  0  0  0  0  0
    5.7745   -0.4643    0.0098 H   0  0  0  0  0  0  0  0  0  0  0  0
    5.4200    0.1870   -1.6117 H   0  0  0  0  0  0  0  0  0  0  0  0
    0.6539   -0.4941   -1.9911 H   0  0  0  0  0  0  0  0  0  0  0  0
    1.4287   -2.0361   -1.6722 H   0  0  0  0  0  0  0  0  0  0  0  0
    0.2554    0.1795    1.5267 H   0  0  0  0  0  0  0  0  0  0  0  0
    3.5638   -3.0352   -1.8930 H   0  0  0  0  0  0  0  0  0  0  0  0
    4.6236   -1.9109   -2.7581 H   0  0  0  0  0  0  0  0  0  0  0  0
    5.2280   -2.7909   -1.3457 H   0  0  0  0  0  0  0  0  0  0  0  0
   -1.7679    1.0256    1.2512 H   0  0  0  0  0  0  0  0  0  0  0  0
   -2.4849    1.3010   -1.7272 H   0  0  0  0  0  0  0  0  0  0  0  0
   -4.4325    1.5498    0.6180 H   0  0  0  0  0  0  0  0  0  0  0  0
   -4.2622   -0.8261   -1.3106 H   0  0  0  0  0  0  0  0  0  0  0  0
   -3.3095   -0.7580    1.6268 H   0  0  0  0  0  0  0  0  0  0  0  0
   -3.1537   -2.9823   -0.4747 H   0  0  0  0  0  0  0  0  0  0  0  0
   -4.2584   -2.9626    0.9209 H   0  0  0  0  0  0  0  0  0  0  0  0
   -1.5666    3.0760   -0.6267 H   0  0  0  0  0  0  0  0  0  0  0  0
   -5.9020    1.3386   -1.1002 H   0  0  0  0  0  0  0  0  0  0  0  0
   -5.6211   -0.3972    1.1539 H   0  0  0  0  0  0  0  0  0  0  0  0
   -1.4216   -2.7928    1.0096 H   0  0  0  0  0  0  0  0  0  0  0  0
  1 12  1  0  0  0  0
  1 18  1  0  0  0  0
  2 16  1  0  0  0  0
  2 17  1  0  0  0  0
  3 17  1  0  0  0  0
  3 20  1  0  0  0  0
  4 18  2  0  0  0  0
  5 20  1  0  0  0  0
  5 24  1  0  0  0  0
  6 21  1  0  0  0  0
  6 46  1  0  0  0  0
  7 22  1  0  0  0  0
  7 47  1  0  0  0  0
  8 23  1  0  0  0  0
  8 48  1  0  0  0  0
  9 25  1  0  0  0  0
  9 49  1  0  0  0  0
 10 11  1  0  0  0  0
 10 12  1  0  0  0  0
 10 14  1  0  0  0  0
 10 26  1  0  0  0  0
 11 13  1  0  0  0  0
 11 16  1  0  0  0  0
 11 27  1  0  0  0  0
 12 15  1  0  0  0  0
 12 28  1  0  0  0  0
 13 15  1  0  0  0  0
 13 19  1  0  0  0  0
 13 29  1  0  0  0  0
 14 17  1  0  0  0  0
 14 18  1  0  0  0  0
 14 30  1  0  0  0  0
 15 31  1  0  0  0  0
 15 32  1  0  0  0  0
 16 33  1  0  0  0  0
 16 34  1  0  0  0  0
 17 35  1  0  0  0  0
 19 36  1  0  0  0  0
 19 37  1  0  0  0  0
 19 38  1  0  0  0  0
 20 21  1  0  0  0  0
 20 39  1  0  0  0  0
 21 22  1  0  0  0  0
 21 40  1  0  0  0  0
 22 23  1  0  0  0  0
 22 41  1  0  0  0  0
 23 24  1  0  0  0  0
 23 42  1  0  0  0  0
 24 25  1  0  0  0  0
 24 43  1  0  0  0  0
 25 44  1  0  0  0  0
 25 45  1  0  0  0  0
M  END
> <PUBCHEM_COMPOUND_CID>
11439812

> <PUBCHEM_CONFORMER_RMSD>
0.8

> <PUBCHEM_CONFORMER_DIVERSEORDER>
1
75
36
28
57
37
29
10
83
20
64
42
34
46
76
69
62
50
63
26
6
55
13
33
21
22
32
45
74
44
84
41
23
24
49
40
61
4
81
70
54
53
73
19
30
48
56
85
14
68
15
65
31
52
43
39
71
77
66
72
2
78
7
12
38
25
27
3
59
67
8
80
79
5
18
47
51
60
16
35
17
82
9
11
58

> <PUBCHEM_MMFF94_PARTIAL_CHARGES>
24
1 -0.43
12 0.28
14 0.06
16 0.28
17 0.56
18 0.66
2 -0.56
20 0.56
21 0.28
22 0.28
23 0.28
24 0.28
25 0.28
3 -0.56
4 -0.57
46 0.4
47 0.4
48 0.4
49 0.4
5 -0.56
6 -0.68
7 -0.68
8 -0.68
9 -0.68

> <PUBCHEM_EFFECTIVE_ROTOR_COUNT>
5.4

> <PUBCHEM_PHARMACOPHORE_FEATURES>
16
1 2 acceptor
1 3 acceptor
1 4 acceptor
1 5 acceptor
1 6 acceptor
1 6 donor
1 7 acceptor
1 7 donor
1 8 acceptor
1 8 donor
1 9 acceptor
1 9 donor
5 1 10 12 14 18 rings
5 10 11 12 13 15 rings
6 2 10 11 14 16 17 rings
6 5 20 21 22 23 24 rings

> <PUBCHEM_HEAVY_ATOM_COUNT>
25

> <PUBCHEM_ATOM_DEF_STEREO_COUNT>
11

> <PUBCHEM_ATOM_UDEF_STEREO_COUNT>
0

> <PUBCHEM_BOND_DEF_STEREO_COUNT>
0

> <PUBCHEM_BOND_UDEF_STEREO_COUNT>
0

> <PUBCHEM_ISOTOPIC_ATOM_COUNT>
0

> <PUBCHEM_COMPONENT_COUNT>
1

> <PUBCHEM_CACTVS_TAUTO_COUNT>
2

> <PUBCHEM_CONFORMER_ID>
00AE8EC400000001

> <PUBCHEM_MMFF94_ENERGY>
67.8727

> <PUBCHEM_FEATURE_SELFOVERLAP>
82.263

> <PUBCHEM_SHAPE_FINGERPRINT>
10366900 7 18060136531156145305
10498660 4 18260264123201564437
11370993 144 17988658380078274051
11552529 35 17058933466718302751
11615757 297 16128374886866477616
11796584 16 18336267851876958514
12236239 1 16877657963545475696
12403259 415 18201997733211604856
13034934 17 17915167151489342394
13134695 92 17203323369771601712
13224815 77 18412261739874338313
13402501 40 18343308058814527727
13533116 47 17632581543623304171
13583140 156 18060136561500497990
14251757 17 18341339902941448570
14386348 63 18271811245597112199
15788980 27 17967817158221211742
15961568 22 18041844046895918644
16752209 62 18041274452426733435
17138139 8 16372976783821207467
17349148 13 18187918504345513951
200 152 17132114619878918797
20511986 3 16733528507810023205
20645477 70 17632865209112204262
21033648 29 18059845169280920017
21033650 10 17677625167616632180
21065201 7 18334012787307418379
22393880 68 18337672997002273758
23557571 272 18408886260841897549
23559900 14 18411139108616819884
474 4 15553017026725803376
5104073 3 18059296452737977848
5281201 14 18342745091649679700
602551 16 18261390087221355250
633830 44 16081669832474650070
7495541 125 17918273156111023572
8272917 22 14345796007321582688
9709674 26 18412546535066399871

> <PUBCHEM_SHAPE_MULTIPOLES>
461.66
11.25
2.44
1.61
4.37
1.1
0.75
1.11
-2.05
1.35
0.03
-1.21
0.02
2.96

> <PUBCHEM_SHAPE_SELFOVERLAP>
988.44

> <PUBCHEM_SHAPE_VOLUME>
253.1

> <PUBCHEM_COORDINATE_TYPE>
2
5
10

$$$$
