11431898
  -OEChem-03292013303D

 66 70  0     1  0  0  0  0  0999 V2000
    5.0092    0.1016    0.6631 O   0  0  0  0  0  0  0  0  0  0  0  0
   -2.5283   -1.3436   -0.2171 O   0  0  0  0  0  0  0  0  0  0  0  0
   -0.2246   -1.3808    1.1438 O   0  0  0  0  0  0  0  0  0  0  0  0
    5.1722    2.2908    1.1539 O   0  0  0  0  0  0  0  0  0  0  0  0
   -2.7830    3.4635   -1.6849 O   0  0  0  0  0  0  0  0  0  0  0  0
   -1.4715    4.3823   -0.0197 O   0  0  0  0  0  0  0  0  0  0  0  0
    5.6863   -4.0307   -1.1169 O   0  0  0  0  0  0  0  0  0  0  0  0
   -3.7705   -1.0469   -2.1325 O   0  0  0  0  0  0  0  0  0  0  0  0
    0.0816    2.0227    0.2687 C   0  0  1  0  0  0  0  0  0  0  0  0
    2.1345    0.3650    0.7368 C   0  0  2  0  0  0  0  0  0  0  0  0
    0.7277    0.6030    0.0828 C   0  0  1  0  0  0  0  0  0  0  0  0
    3.0650    1.5080    0.2694 C   0  0  1  0  0  0  0  0  0  0  0  0
    1.1345    3.1075   -0.0779 C   0  0  0  0  0  0  0  0  0  0  0  0
   -1.1127    2.1115   -0.7503 C   0  0  1  0  0  0  0  0  0  0  0  0
    2.4948    2.8948    0.5908 C   0  0  0  0  0  0  0  0  0  0  0  0
    2.7677   -0.9185    0.1460 C   0  0  0  0  0  0  0  0  0  0  0  0
   -0.3409   -0.4743    0.3235 C   0  0  0  0  0  0  0  0  0  0  0  0
   -2.1639    1.0198   -0.5133 C   0  0  0  0  0  0  0  0  0  0  0  0
   -0.4422    2.2685    1.7058 C   0  0  0  0  0  0  0  0  0  0  0  0
    2.0983    0.2501    2.2779 C   0  0  0  0  0  0  0  0  0  0  0  0
   -1.5613   -0.3777   -0.5830 C   0  0  2  0  0  0  0  0  0  0  0  0
    4.2251   -1.1202    0.5837 C   0  0  1  0  0  0  0  0  0  0  0  0
    4.4868    1.3475    0.7699 C   0  0  0  0  0  0  0  0  0  0  0  0
   -1.7877    3.4553   -0.7531 C   0  0  0  0  0  0  0  0  0  0  0  0
    4.9165   -2.0962   -0.2910 C   0  0  0  0  0  0  0  0  0  0  0  0
    5.6547   -1.8093   -1.4580 C   0  0  0  0  0  0  0  0  0  0  0  0
    4.9618   -3.4555   -0.1215 C   0  0  0  0  0  0  0  0  0  0  0  0
   -3.6753   -1.3612   -0.9562 C   0  0  0  0  0  0  0  0  0  0  0  0
   -3.5130    4.6896   -1.7939 C   0  0  0  0  0  0  0  0  0  0  0  0
    6.1045   -3.0221   -1.9259 C   0  0  0  0  0  0  0  0  0  0  0  0
   -4.8279   -1.8189   -0.1399 C   0  0  0  0  0  0  0  0  0  0  0  0
   -5.8635   -2.4852   -0.7624 C   0  0  0  0  0  0  0  0  0  0  0  0
   -4.8277   -1.5635    1.2161 C   0  0  0  0  0  0  0  0  0  0  0  0
   -6.9466   -2.9149    0.0046 C   0  0  0  0  0  0  0  0  0  0  0  0
   -5.9105   -1.9933    1.9832 C   0  0  0  0  0  0  0  0  0  0  0  0
   -6.9699   -2.6689    1.3774 C   0  0  0  0  0  0  0  0  0  0  0  0
    0.9228    0.5121   -0.9999 H   0  0  0  0  0  0  0  0  0  0  0  0
    3.1603    1.4643   -0.8272 H   0  0  0  0  0  0  0  0  0  0  0  0
    1.2919    3.1289   -1.1647 H   0  0  0  0  0  0  0  0  0  0  0  0
    0.7975    4.1094    0.2034 H   0  0  0  0  0  0  0  0  0  0  0  0
   -0.7016    1.9859   -1.7631 H   0  0  0  0  0  0  0  0  0  0  0  0
    3.1799    3.6702    0.2240 H   0  0  0  0  0  0  0  0  0  0  0  0
    2.4296    3.0484    1.6733 H   0  0  0  0  0  0  0  0  0  0  0  0
    2.7285   -0.8587   -0.9516 H   0  0  0  0  0  0  0  0  0  0  0  0
    2.1880   -1.8110    0.4113 H   0  0  0  0  0  0  0  0  0  0  0  0
   -2.6569    1.1675    0.4573 H   0  0  0  0  0  0  0  0  0  0  0  0
   -2.9687    1.1146   -1.2499 H   0  0  0  0  0  0  0  0  0  0  0  0
   -0.7995    1.3423    2.1681 H   0  0  0  0  0  0  0  0  0  0  0  0
   -1.2785    2.9674    1.7659 H   0  0  0  0  0  0  0  0  0  0  0  0
    0.3274    2.6807    2.3631 H   0  0  0  0  0  0  0  0  0  0  0  0
    1.5213   -0.6172    2.6093 H   0  0  0  0  0  0  0  0  0  0  0  0
    1.6735    1.1298    2.7581 H   0  0  0  0  0  0  0  0  0  0  0  0
    3.0978    0.1358    2.7096 H   0  0  0  0  0  0  0  0  0  0  0  0
   -1.2095   -0.6009   -1.5986 H   0  0  0  0  0  0  0  0  0  0  0  0
    4.2306   -1.5239    1.6045 H   0  0  0  0  0  0  0  0  0  0  0  0
    5.8397   -0.8457   -1.9110 H   0  0  0  0  0  0  0  0  0  0  0  0
    4.5547   -4.1363    0.6122 H   0  0  0  0  0  0  0  0  0  0  0  0
   -2.8436    5.5040   -2.0872 H   0  0  0  0  0  0  0  0  0  0  0  0
   -4.2741    4.5643   -2.5686 H   0  0  0  0  0  0  0  0  0  0  0  0
   -4.0102    4.9195   -0.8467 H   0  0  0  0  0  0  0  0  0  0  0  0
    6.7000   -3.3211   -2.7760 H   0  0  0  0  0  0  0  0  0  0  0  0
   -5.8551   -2.6854   -1.8297 H   0  0  0  0  0  0  0  0  0  0  0  0
   -4.0221   -1.0281    1.7093 H   0  0  0  0  0  0  0  0  0  0  0  0
   -7.7712   -3.4415   -0.4667 H   0  0  0  0  0  0  0  0  0  0  0  0
   -5.9305   -1.7993    3.0517 H   0  0  0  0  0  0  0  0  0  0  0  0
   -7.8134   -3.0029    1.9746 H   0  0  0  0  0  0  0  0  0  0  0  0
  1 22  1  0  0  0  0
  1 23  1  0  0  0  0
  2 21  1  0  0  0  0
  2 28  1  0  0  0  0
  3 17  2  0  0  0  0
  4 23  2  0  0  0  0
  5 24  1  0  0  0  0
  5 29  1  0  0  0  0
  6 24  2  0  0  0  0
  7 27  1  0  0  0  0
  7 30  1  0  0  0  0
  8 28  2  0  0  0  0
  9 11  1  0  0  0  0
  9 13  1  0  0  0  0
  9 14  1  0  0  0  0
  9 19  1  0  0  0  0
 10 11  1  0  0  0  0
 10 12  1  0  0  0  0
 10 16  1  0  0  0  0
 10 20  1  0  0  0  0
 11 17  1  0  0  0  0
 11 37  1  0  0  0  0
 12 15  1  0  0  0  0
 12 23  1  0  0  0  0
 12 38  1  0  0  0  0
 13 15  1  0  0  0  0
 13 39  1  0  0  0  0
 13 40  1  0  0  0  0
 14 18  1  0  0  0  0
 14 24  1  0  0  0  0
 14 41  1  0  0  0  0
 15 42  1  0  0  0  0
 15 43  1  0  0  0  0
 16 22  1  0  0  0  0
 16 44  1  0  0  0  0
 16 45  1  0  0  0  0
 17 21  1  0  0  0  0
 18 21  1  0  0  0  0
 18 46  1  0  0  0  0
 18 47  1  0  0  0  0
 19 48  1  0  0  0  0
 19 49  1  0  0  0  0
 19 50  1  0  0  0  0
 20 51  1  0  0  0  0
 20 52  1  0  0  0  0
 20 53  1  0  0  0  0
 21 54  1  0  0  0  0
 22 25  1  0  0  0  0
 22 55  1  0  0  0  0
 25 26  1  0  0  0  0
 25 27  2  0  0  0  0
 26 30  2  0  0  0  0
 26 56  1  0  0  0  0
 27 57  1  0  0  0  0
 28 31  1  0  0  0  0
 29 58  1  0  0  0  0
 29 59  1  0  0  0  0
 29 60  1  0  0  0  0
 30 61  1  0  0  0  0
 31 32  2  0  0  0  0
 31 33  1  0  0  0  0
 32 34  1  0  0  0  0
 32 62  1  0  0  0  0
 33 35  2  0  0  0  0
 33 63  1  0  0  0  0
 34 36  2  0  0  0  0
 34 64  1  0  0  0  0
 35 36  1  0  0  0  0
 35 65  1  0  0  0  0
 36 66  1  0  0  0  0
M  END
> <PUBCHEM_COMPOUND_CID>
11431898

> <PUBCHEM_CONFORMER_RMSD>
1

> <PUBCHEM_CONFORMER_DIVERSEORDER>
1
3
5
8
7
6
2
4

> <PUBCHEM_MMFF94_PARTIAL_CHARGES>
36
1 -0.43
11 0.06
12 0.06
14 0.06
17 0.45
2 -0.43
21 0.34
22 0.46
23 0.66
24 0.66
25 -0.18
26 -0.15
27 -0.01
28 0.63
29 0.28
3 -0.57
30 -0.01
31 0.09
32 -0.15
33 -0.15
34 -0.15
35 -0.15
36 -0.15
4 -0.57
5 -0.43
56 0.15
57 0.15
6 -0.57
61 0.15
62 0.15
63 0.15
64 0.15
65 0.15
66 0.15
7 -0.28
8 -0.57

> <PUBCHEM_EFFECTIVE_ROTOR_COUNT>
7.6

> <PUBCHEM_PHARMACOPHORE_FEATURES>
10
1 3 acceptor
1 4 acceptor
1 6 acceptor
1 7 acceptor
1 8 acceptor
5 7 25 26 27 30 rings
6 1 10 12 16 22 23 rings
6 31 32 33 34 35 36 rings
6 9 10 11 12 13 15 rings
6 9 11 14 17 18 21 rings

> <PUBCHEM_HEAVY_ATOM_COUNT>
36

> <PUBCHEM_ATOM_DEF_STEREO_COUNT>
7

> <PUBCHEM_ATOM_UDEF_STEREO_COUNT>
0

> <PUBCHEM_BOND_DEF_STEREO_COUNT>
0

> <PUBCHEM_BOND_UDEF_STEREO_COUNT>
0

> <PUBCHEM_ISOTOPIC_ATOM_COUNT>
0

> <PUBCHEM_COMPONENT_COUNT>
1

> <PUBCHEM_CACTVS_TAUTO_COUNT>
3

> <PUBCHEM_CONFORMER_ID>
00AE6FDA00000001

> <PUBCHEM_MMFF94_ENERGY>
116.8029

> <PUBCHEM_FEATURE_SELFOVERLAP>
50.781

> <PUBCHEM_SHAPE_FINGERPRINT>
10462674 369 16227185888711554819
10673678 19 16808708856631363972
11331351 85 18343026623157160745
11991303 11 17825386268005399221
12422481 6 17988649579695591631
12623949 98 18201730565182329822
12633046 712 17846492587295493872
12788726 201 18114726227055973577
13383665 225 18187941589769175284
13533116 47 17988364866219049234
13540713 4 18341316813434694192
13673619 4 18343588429900422418
13690498 29 18339086990852449510
13782708 43 18343867697105836799
13785724 45 18336553810888553981
14114211 80 17255693417403011357
14251764 30 18410579500275250183
14347332 77 18411419471324003966
14955137 171 18262523723066288011
15324884 4 17985518131993727080
15361156 5 18188228514805481193
15669420 48 18114757031315404918
17492 89 18340763754896086562
1813 80 18339653351215385109
19301676 85 17261311393376608367
19301679 30 18411419531437566019
19311894 1 18122907530022426136
20775530 9 18272364235928043246
21307412 95 17769094545517732646
21682296 61 18410295839587460247
21703447 108 18339348713680591754
21716022 299 17679041497881506029
21792938 79 14491062457423755695
22033318 11 17772221737002323227
22311459 1 18267865176260491720
23559900 14 18055901114483784544
23569914 152 17620439469293282311
23569943 247 18342463591014980931
24180151 248 18262243325572838764
24771750 20 17248935780204613749
255183 451 18272664424393741694
3737641 26 18412822507915801611
4058900 60 17327735094503162813
4112364 45 10663826222120753438
4144715 1 18262242252479464691
437795 150 18053677884582316622
44062 13 18196932167684466478
46194498 28 17895750828420271004
513202 73 18411139113281500327
563151 40 17825959126352932867
57527295 17 17969226629988277210
57634706 306 9943530661623213235
6695519 79 17199632450897382288
6698420 124 17911237213670649169
70251023 43 18410579500206016274
86090 222 18040714822235638794

> <PUBCHEM_SHAPE_MULTIPOLES>
693.91
16.1
5.84
1.73
6.98
3.86
-0.02
-22.01
0.64
1
2.33
0.53
-0.02
4.92

> <PUBCHEM_SHAPE_SELFOVERLAP>
1514.806

> <PUBCHEM_SHAPE_VOLUME>
370.4

> <PUBCHEM_COORDINATE_TYPE>
2
5
10

$$$$
