11447886
  -OEChem-03292013303D

 30 31  0     1  0  0  0  0  0999 V2000
   -1.2256   -0.3921    1.2664 O   0  0  0  0  0  0  0  0  0  0  0  0
   -1.1866    2.1377   -1.2748 O   0  0  0  0  0  0  0  0  0  0  0  0
   -3.2772    1.6141    0.3967 O   0  0  0  0  0  0  0  0  0  0  0  0
    1.6959    2.3516    0.3594 O   0  0  0  0  0  0  0  0  0  0  0  0
    4.5908   -1.1546   -0.3961 O   0  0  0  0  0  0  0  0  0  0  0  0
    0.8151    0.1889    0.2852 N   0  0  0  0  0  0  0  0  0  0  0  0
   -3.7095   -2.2663   -0.7338 N   0  0  0  0  0  0  0  0  0  0  0  0
    3.1358    0.6043   -0.0174 N   0  0  0  0  0  0  0  0  0  0  0  0
   -2.7274    0.5130   -0.3264 C   0  0  1  0  0  0  0  0  0  0  0  0
   -1.3122    0.8264   -0.7641 C   0  0  2  0  0  0  0  0  0  0  0  0
   -2.5119   -0.6316    0.6542 C   0  0  1  0  0  0  0  0  0  0  0  0
   -0.5319    0.6234    0.5232 C   0  0  1  0  0  0  0  0  0  0  0  0
   -2.4711   -1.9986   -0.0156 C   0  0  0  0  0  0  0  0  0  0  0  0
    1.8622    1.1381    0.2200 C   0  0  0  0  0  0  0  0  0  0  0  0
    1.0887   -1.1638    0.1192 C   0  0  0  0  0  0  0  0  0  0  0  0
    2.3080   -1.6574   -0.1066 C   0  0  0  0  0  0  0  0  0  0  0  0
    3.4568   -0.7332   -0.1895 C   0  0  0  0  0  0  0  0  0  0  0  0
   -3.4026    0.3084   -1.1601 H   0  0  0  0  0  0  0  0  0  0  0  0
   -1.0009    0.1203   -1.5434 H   0  0  0  0  0  0  0  0  0  0  0  0
   -3.2618   -0.6275    1.4542 H   0  0  0  0  0  0  0  0  0  0  0  0
   -0.5148    1.5372    1.1292 H   0  0  0  0  0  0  0  0  0  0  0  0
   -2.2928   -2.7765    0.7355 H   0  0  0  0  0  0  0  0  0  0  0  0
   -1.6490   -2.0673   -0.7329 H   0  0  0  0  0  0  0  0  0  0  0  0
   -0.2435    2.2923   -1.4536 H   0  0  0  0  0  0  0  0  0  0  0  0
   -2.7488    1.7624    1.1985 H   0  0  0  0  0  0  0  0  0  0  0  0
    0.2648   -1.8587    0.1834 H   0  0  0  0  0  0  0  0  0  0  0  0
   -4.4942   -2.2474   -0.0838 H   0  0  0  0  0  0  0  0  0  0  0  0
   -3.6804   -3.2091   -1.1197 H   0  0  0  0  0  0  0  0  0  0  0  0
    3.9035    1.2684   -0.0683 H   0  0  0  0  0  0  0  0  0  0  0  0
    2.4840   -2.7192   -0.2285 H   0  0  0  0  0  0  0  0  0  0  0  0
  1 11  1  0  0  0  0
  1 12  1  0  0  0  0
  2 10  1  0  0  0  0
  2 24  1  0  0  0  0
  3  9  1  0  0  0  0
  3 25  1  0  0  0  0
  4 14  2  0  0  0  0
  5 17  2  0  0  0  0
  6 12  1  0  0  0  0
  6 14  1  0  0  0  0
  6 15  1  0  0  0  0
  7 13  1  0  0  0  0
  7 27  1  0  0  0  0
  7 28  1  0  0  0  0
  8 14  1  0  0  0  0
  8 17  1  0  0  0  0
  8 29  1  0  0  0  0
  9 10  1  0  0  0  0
  9 11  1  0  0  0  0
  9 18  1  0  0  0  0
 10 12  1  0  0  0  0
 10 19  1  0  0  0  0
 11 13  1  0  0  0  0
 11 20  1  0  0  0  0
 12 21  1  0  0  0  0
 13 22  1  0  0  0  0
 13 23  1  0  0  0  0
 15 16  2  0  0  0  0
 15 26  1  0  0  0  0
 16 17  1  0  0  0  0
 16 30  1  0  0  0  0
M  END
> <PUBCHEM_COMPOUND_CID>
11447886

> <PUBCHEM_CONFORMER_RMSD>
0.6

> <PUBCHEM_CONFORMER_DIVERSEORDER>
1
13
10
8
9
14
5
15
12
16
4
3
11
6
2
7

> <PUBCHEM_MMFF94_PARTIAL_CHARGES>
24
1 -0.56
10 0.28
11 0.28
12 0.58
13 0.27
14 0.69
15 -0.04
16 -0.14
17 0.62
2 -0.68
24 0.4
25 0.4
26 0.15
27 0.36
28 0.36
29 0.37
3 -0.68
30 0.15
4 -0.57
5 -0.57
6 -0.47
7 -0.99
8 -0.49
9 0.28

> <PUBCHEM_EFFECTIVE_ROTOR_COUNT>
3

> <PUBCHEM_PHARMACOPHORE_FEATURES>
12
1 1 acceptor
1 2 acceptor
1 2 donor
1 3 acceptor
1 3 donor
1 4 acceptor
1 5 acceptor
1 7 cation
1 7 donor
1 8 donor
5 1 9 10 11 12 rings
6 6 8 14 15 16 17 rings

> <PUBCHEM_HEAVY_ATOM_COUNT>
17

> <PUBCHEM_ATOM_DEF_STEREO_COUNT>
4

> <PUBCHEM_ATOM_UDEF_STEREO_COUNT>
0

> <PUBCHEM_BOND_DEF_STEREO_COUNT>
0

> <PUBCHEM_BOND_UDEF_STEREO_COUNT>
0

> <PUBCHEM_ISOTOPIC_ATOM_COUNT>
0

> <PUBCHEM_COMPONENT_COUNT>
1

> <PUBCHEM_CACTVS_TAUTO_COUNT>
3

> <PUBCHEM_CONFORMER_ID>
00AEAE4E00000001

> <PUBCHEM_MMFF94_ENERGY>
41.7119

> <PUBCHEM_FEATURE_SELFOVERLAP>
60.911

> <PUBCHEM_SHAPE_FINGERPRINT>
10608611 8 18408601461434094088
11132069 177 18411417298107248210
11769659 78 18271525398238433003
12932764 1 17895187770929188472
13024252 1 15936703579491309857
13296908 3 18343863316539290562
14965852 173 18412546509175224673
15219456 202 18409167731439231984
15375462 6 18266177425278430572
15775835 57 18188496761193379234
16945 1 18262785260166149921
19141452 34 18413394237415475995
200 152 18060413625361127063
20201158 50 18337111155377027434
21501502 16 18408887355799945721
221490 88 18338803437037759538
22802520 49 18261115183586844497
23402539 116 17385723569558074102
23559900 14 18270952544148508153
2748010 2 18262234550763942753
2871803 45 18336255855669316991
3286 77 18341891947882890236
46194498 28 17249176539593050111
5104073 3 18412544318937200378
5493415 88 18341891896522533434
58051976 100 18411982459910882631
58051976 378 18123753329336642484
69090 78 18337106757689121433
74978 22 18341895168987088545
8030462 33 17095231519093546747
81228 2 18040427820052423837
8809292 202 18334018263527916530
93112 12 18411135822718892297
9709674 26 18337953522870462939

> <PUBCHEM_SHAPE_MULTIPOLES>
305.56
6.57
2.32
0.88
2.81
0.07
-0.02
-2.55
-0.77
-0.87
-0.35
-0.4
0.12
0.16

> <PUBCHEM_SHAPE_SELFOVERLAP>
642.998

> <PUBCHEM_SHAPE_VOLUME>
172.2

> <PUBCHEM_COORDINATE_TYPE>
2
5
10

$$$$
