11452716
  -OEChem-03292013303D

 49 50  0     1  0  0  0  0  0999 V2000
   -3.0974   -2.9157   -0.9384 S   0  0  0  0  0  0  0  0  0  0  0  0
   -1.5699    1.4983    0.4523 S   0  0  0  0  0  0  0  0  0  0  0  0
   -2.0100    1.8219    1.7916 O   0  0  0  0  0  0  0  0  0  0  0  0
   -1.8917    2.3549   -0.6680 O   0  0  0  0  0  0  0  0  0  0  0  0
   -4.3286   -0.1368   -1.7920 O   0  0  0  0  0  0  0  0  0  0  0  0
   -6.0743    1.7514   -0.9495 O   0  0  0  0  0  0  0  0  0  0  0  0
    4.2844    0.8020    0.5922 O   0  0  0  0  0  0  0  0  0  0  0  0
    8.3152   -2.3197    0.3564 O   0  0  0  0  0  0  0  0  0  0  0  0
   -2.0509   -0.1052    0.0799 N   0  0  1  0  0  0  0  0  0  0  0  0
   -5.1995    1.1181   -0.0564 N   0  0  0  0  0  0  0  0  0  0  0  0
   -3.6515   -1.9954    0.5592 C   0  0  0  0  0  0  0  0  0  0  0  0
   -3.4651   -0.4678    0.4050 C   0  0  2  0  0  0  0  0  0  0  0  0
   -1.5315   -0.6529   -1.2062 C   0  0  0  0  0  0  0  0  0  0  0  0
   -1.4587   -2.1692   -1.1612 C   0  0  0  0  0  0  0  0  0  0  0  0
   -2.8616   -2.5111    1.7785 C   0  0  0  0  0  0  0  0  0  0  0  0
   -5.1355   -2.3469    0.7769 C   0  0  0  0  0  0  0  0  0  0  0  0
   -4.3645    0.1803   -0.6049 C   0  0  0  0  0  0  0  0  0  0  0  0
    0.1822    1.2901    0.4936 C   0  0  0  0  0  0  0  0  0  0  0  0
    0.9736    2.0176   -0.3806 C   0  0  0  0  0  0  0  0  0  0  0  0
    0.7386    0.4024    1.4005 C   0  0  0  0  0  0  0  0  0  0  0  0
    2.3583    1.8533   -0.3470 C   0  0  0  0  0  0  0  0  0  0  0  0
    2.1233    0.2381    1.4341 C   0  0  0  0  0  0  0  0  0  0  0  0
    2.9332    0.9635    0.5604 C   0  0  0  0  0  0  0  0  0  0  0  0
    4.9903    0.9933   -0.6329 C   0  0  0  0  0  0  0  0  0  0  0  0
    6.1989    0.1699   -0.6395 C   0  0  0  0  0  0  0  0  0  0  0  0
    7.1915   -0.5062   -0.6468 C   0  0  0  0  0  0  0  0  0  0  0  0
    8.4011   -1.3280   -0.6571 C   0  0  0  0  0  0  0  0  0  0  0  0
   -3.6879   -0.0404    1.3926 H   0  0  0  0  0  0  0  0  0  0  0  0
   -0.5068   -0.3094   -1.3750 H   0  0  0  0  0  0  0  0  0  0  0  0
   -2.0919   -0.2954   -2.0718 H   0  0  0  0  0  0  0  0  0  0  0  0
   -1.0436   -2.5458   -2.1018 H   0  0  0  0  0  0  0  0  0  0  0  0
   -0.7955   -2.5092   -0.3595 H   0  0  0  0  0  0  0  0  0  0  0  0
   -1.7912   -2.2918    1.7131 H   0  0  0  0  0  0  0  0  0  0  0  0
   -3.2254   -2.0404    2.6999 H   0  0  0  0  0  0  0  0  0  0  0  0
   -2.9743   -3.5944    1.9060 H   0  0  0  0  0  0  0  0  0  0  0  0
   -5.7589   -2.0843   -0.0854 H   0  0  0  0  0  0  0  0  0  0  0  0
   -5.2740   -3.4177    0.9700 H   0  0  0  0  0  0  0  0  0  0  0  0
   -5.5365   -1.8097    1.6448 H   0  0  0  0  0  0  0  0  0  0  0  0
   -5.3060    1.3354    0.9281 H   0  0  0  0  0  0  0  0  0  0  0  0
    0.5510    2.7220   -1.0900 H   0  0  0  0  0  0  0  0  0  0  0  0
    0.1190   -0.1674    2.0868 H   0  0  0  0  0  0  0  0  0  0  0  0
    2.9539    2.4576   -1.0248 H   0  0  0  0  0  0  0  0  0  0  0  0
    2.5654   -0.4568    2.1428 H   0  0  0  0  0  0  0  0  0  0  0  0
   -6.8669    1.8283   -0.3921 H   0  0  0  0  0  0  0  0  0  0  0  0
    4.3847    0.6971   -1.4991 H   0  0  0  0  0  0  0  0  0  0  0  0
    5.2596    2.0513   -0.7270 H   0  0  0  0  0  0  0  0  0  0  0  0
    9.2972   -0.7254   -0.4816 H   0  0  0  0  0  0  0  0  0  0  0  0
    8.5165   -1.8366   -1.6186 H   0  0  0  0  0  0  0  0  0  0  0  0
    8.3006   -1.8632    1.2152 H   0  0  0  0  0  0  0  0  0  0  0  0
  1 11  1  0  0  0  0
  1 14  1  0  0  0  0
  2  3  2  0  0  0  0
  2  4  2  0  0  0  0
  2  9  1  0  0  0  0
  2 18  1  0  0  0  0
  5 17  2  0  0  0  0
  6 10  1  0  0  0  0
  6 44  1  0  0  0  0
  7 23  1  0  0  0  0
  7 24  1  0  0  0  0
  8 27  1  0  0  0  0
  8 49  1  0  0  0  0
  9 12  1  0  0  0  0
  9 13  1  0  0  0  0
 10 17  1  0  0  0  0
 10 39  1  0  0  0  0
 11 12  1  0  0  0  0
 11 15  1  0  0  0  0
 11 16  1  0  0  0  0
 12 17  1  0  0  0  0
 12 28  1  0  0  0  0
 13 14  1  0  0  0  0
 13 29  1  0  0  0  0
 13 30  1  0  0  0  0
 14 31  1  0  0  0  0
 14 32  1  0  0  0  0
 15 33  1  0  0  0  0
 15 34  1  0  0  0  0
 15 35  1  0  0  0  0
 16 36  1  0  0  0  0
 16 37  1  0  0  0  0
 16 38  1  0  0  0  0
 18 19  2  0  0  0  0
 18 20  1  0  0  0  0
 19 21  1  0  0  0  0
 19 40  1  0  0  0  0
 20 22  2  0  0  0  0
 20 41  1  0  0  0  0
 21 23  2  0  0  0  0
 21 42  1  0  0  0  0
 22 23  1  0  0  0  0
 22 43  1  0  0  0  0
 24 25  1  0  0  0  0
 24 45  1  0  0  0  0
 24 46  1  0  0  0  0
 25 26  3  0  0  0  0
 26 27  1  0  0  0  0
 27 47  1  0  0  0  0
 27 48  1  0  0  0  0
M  END
> <PUBCHEM_COMPOUND_CID>
11452716

> <PUBCHEM_CONFORMER_RMSD>
0.8

> <PUBCHEM_CONFORMER_DIVERSEORDER>
11
95
108
182
166
43
45
163
61
5
162
179
168
101
60
85
98
184
151
125
149
128
161
176
30
175
96
46
181
147
88
23
109
79
12
107
71
142
172
126
51
178
164
103
158
62
148
165
154
116
102
155
83
80
58
129
93
185
91
171
117
38
78
137
110
183
140
124
146
100
135
159
89
115
28
123
152
48
33
87
8
177
143
18
167
35
90
75
16
59
53
169
139
111
97
24
31
2
150
69
104
121
99
173
81
131
105
174
55
15
153
67
170
32
144
118
120
92
127
180
4
76
40
54
84
9
47
41
25
119
160
114
106
29
130
57
3
72
22
39
122
44
132
134
74
36
34
49
156
64
157
19
141
136
17
66
113
145
73
68
56
70
7
27
77
14
1
63
6
138
20
21
13
10
82
112
86
52
42
26
50
65
94
133
37

> <PUBCHEM_MMFF94_PARTIAL_CHARGES>
32
1 -0.46
10 -0.39
11 0.23
12 0.42
13 0.36
14 0.23
17 0.57
18 -0.01
19 -0.15
2 1.45
20 -0.15
21 -0.15
22 -0.15
23 0.08
24 0.48
25 -0.2
26 -0.2
27 0.48
3 -0.65
39 0.37
4 -0.65
40 0.15
41 0.15
42 0.15
43 0.15
44 0.4
49 0.4
5 -0.57
6 -0.44
7 -0.36
8 -0.68
9 -0.85

> <PUBCHEM_EFFECTIVE_ROTOR_COUNT>
7.2

> <PUBCHEM_PHARMACOPHORE_FEATURES>
10
1 10 donor
1 3 acceptor
1 4 acceptor
1 5 acceptor
1 7 acceptor
1 8 acceptor
1 8 donor
3 11 15 16 hydrophobe
6 1 9 11 12 13 14 rings
6 18 19 20 21 22 23 rings

> <PUBCHEM_HEAVY_ATOM_COUNT>
27

> <PUBCHEM_ATOM_DEF_STEREO_COUNT>
1

> <PUBCHEM_ATOM_UDEF_STEREO_COUNT>
0

> <PUBCHEM_BOND_DEF_STEREO_COUNT>
0

> <PUBCHEM_BOND_UDEF_STEREO_COUNT>
0

> <PUBCHEM_ISOTOPIC_ATOM_COUNT>
0

> <PUBCHEM_COMPONENT_COUNT>
1

> <PUBCHEM_CACTVS_TAUTO_COUNT>
3

> <PUBCHEM_CONFORMER_ID>
00AEC12C0000000B

> <PUBCHEM_MMFF94_ENERGY>
68.1479

> <PUBCHEM_FEATURE_SELFOVERLAP>
50.765

> <PUBCHEM_SHAPE_FINGERPRINT>
10 15 10735876171380365044
10369192 42 13767929000735857643
106641 1 12391500989265843812
107951 10 18113897161503878787
11315181 36 18202006538353523744
11524674 6 17203608181515688078
117089 54 18049451640815659626
12643181 29 18412822478357595118
12760667 363 17846781814824686534
12788726 201 18336537223393327425
13782708 43 18060420227464111860
13911987 19 12108053540018235515
14420673 8 18410859888261069223
14931854 50 17822843290567617059
15183329 4 18114185208102026202
15230672 131 18187077309342279490
15510800 12 17845950550207535630
18603816 31 17703211975557028390
20721686 146 15792840111534095893
20721686 56 18201444615045304518
21267235 1 18188777270435327867
21781055 127 17986388885142040481
22393880 68 18040989687315396960
23559900 14 18058721528637937400
3004659 81 18259702316194344032
32027 91 18060133280435367632
484985 159 18131079268160079235
5085150 59 17917423182357971934
5104073 3 15840987918170418994
559249 180 18411420613410361975
59755656 215 18272652316384613724
59755656 520 15502376733596281968
70251023 43 17476070706675362351
7970288 3 18196372739599589470
999808 66 18336839666452832210

> <PUBCHEM_SHAPE_MULTIPOLES>
518.17
17.89
3
1.43
41.05
1.19
-0.22
10
3.71
-2.01
0
-1.04
0.26
0.78

> <PUBCHEM_SHAPE_SELFOVERLAP>
1042.858

> <PUBCHEM_SHAPE_VOLUME>
303.4

> <PUBCHEM_COORDINATE_TYPE>
2
5
10

$$$$
