11453871
  -OEChem-03292013303D

 72 74  0     1  0  0  0  0  0999 V2000
   -0.6540    0.5821   -0.7247 O   0  0  0  0  0  0  0  0  0  0  0  0
    2.8724   -2.0639    0.6165 O   0  0  0  0  0  0  0  0  0  0  0  0
   -0.6501    0.8625    2.3935 O   0  0  0  0  0  0  0  0  0  0  0  0
   -0.0992   -2.8905    0.1968 O   0  0  0  0  0  0  0  0  0  0  0  0
   -2.1851   -2.2018   -1.6518 O   0  0  0  0  0  0  0  0  0  0  0  0
   -4.4788   -0.8715   -0.5696 O   0  0  0  0  0  0  0  0  0  0  0  0
    4.9146   -2.4264   -0.4006 O   0  0  0  0  0  0  0  0  0  0  0  0
   -5.0910    1.3523   -0.4414 O   0  0  0  0  0  0  0  0  0  0  0  0
    1.3304    1.3078    0.2879 C   0  0  1  0  0  0  0  0  0  0  0  0
    1.3484   -0.2357    0.2770 C   0  0  1  0  0  0  0  0  0  0  0  0
    2.2608    1.8932   -0.7975 C   0  0  2  0  0  0  0  0  0  0  0  0
   -0.1570    1.6370    0.0900 C   0  0  2  0  0  0  0  0  0  0  0  0
    0.0716   -0.6225   -0.5005 C   0  0  1  0  0  0  0  0  0  0  0  0
    2.6828   -0.8850   -0.1832 C   0  0  1  0  0  0  0  0  0  0  0  0
    3.7141    1.4123   -0.5974 C   0  0  0  0  0  0  0  0  0  0  0  0
    3.8368    0.0752    0.1308 C   0  0  0  0  0  0  0  0  0  0  0  0
   -1.0201    1.7955    1.3801 C   0  0  1  0  0  0  0  0  0  0  0  0
   -0.8013   -1.6431    0.2576 C   0  0  1  0  0  0  0  0  0  0  0  0
    2.2473    3.4260   -0.8348 C   0  0  0  0  0  0  0  0  0  0  0  0
   -2.2596   -1.8183   -0.2679 C   0  0  1  0  0  0  0  0  0  0  0  0
    2.7498   -1.3462   -1.6446 C   0  0  0  0  0  0  0  0  0  0  0  0
   -2.5482    1.6408    1.1256 C   0  0  0  0  0  0  0  0  0  0  0  0
   -3.1256   -0.5187   -0.2265 C   0  0  2  0  0  0  0  0  0  0  0  0
   -3.1574    0.2181    1.1271 C   0  0  0  0  0  0  0  0  0  0  0  0
   -0.7593    3.2013    1.9600 C   0  0  0  0  0  0  0  0  0  0  0  0
    2.7590    3.9915    0.4848 C   0  0  0  0  0  0  0  0  0  0  0  0
    3.0826    3.9340   -2.0043 C   0  0  0  0  0  0  0  0  0  0  0  0
   -2.9633   -2.9765    0.4694 C   0  0  0  0  0  0  0  0  0  0  0  0
    4.0369   -2.7309    0.3959 C   0  0  0  0  0  0  0  0  0  0  0  0
    4.0973   -3.9292    1.2938 C   0  0  0  0  0  0  0  0  0  0  0  0
   -5.3473    0.1723   -0.6388 C   0  0  0  0  0  0  0  0  0  0  0  0
   -6.7072   -0.3415   -1.0030 C   0  0  0  0  0  0  0  0  0  0  0  0
    1.6727    1.6421    1.2717 H   0  0  0  0  0  0  0  0  0  0  0  0
    1.2070   -0.5429    1.3235 H   0  0  0  0  0  0  0  0  0  0  0  0
    1.9073    1.5337   -1.7732 H   0  0  0  0  0  0  0  0  0  0  0  0
   -0.3058    2.5415   -0.5040 H   0  0  0  0  0  0  0  0  0  0  0  0
    0.2937   -1.0287   -1.4891 H   0  0  0  0  0  0  0  0  0  0  0  0
    4.3593    2.1155   -0.0684 H   0  0  0  0  0  0  0  0  0  0  0  0
    4.1679    1.3027   -1.5922 H   0  0  0  0  0  0  0  0  0  0  0  0
    4.8395   -0.2993   -0.0812 H   0  0  0  0  0  0  0  0  0  0  0  0
    3.8464    0.2621    1.2148 H   0  0  0  0  0  0  0  0  0  0  0  0
   -0.8465   -1.3745    1.3159 H   0  0  0  0  0  0  0  0  0  0  0  0
    1.2286    3.7925   -0.9920 H   0  0  0  0  0  0  0  0  0  0  0  0
    2.2810   -0.6179   -2.3141 H   0  0  0  0  0  0  0  0  0  0  0  0
    3.7656   -1.4511   -2.0361 H   0  0  0  0  0  0  0  0  0  0  0  0
    2.2449   -2.3085   -1.7889 H   0  0  0  0  0  0  0  0  0  0  0  0
   -2.8253    2.1897    0.2181 H   0  0  0  0  0  0  0  0  0  0  0  0
   -3.0651    2.1596    1.9461 H   0  0  0  0  0  0  0  0  0  0  0  0
   -2.8149    0.1480   -1.0370 H   0  0  0  0  0  0  0  0  0  0  0  0
   -2.6626   -0.3824    1.8962 H   0  0  0  0  0  0  0  0  0  0  0  0
   -4.1792    0.2942    1.5199 H   0  0  0  0  0  0  0  0  0  0  0  0
    0.2806    3.3102    2.2789 H   0  0  0  0  0  0  0  0  0  0  0  0
   -0.9952    3.9895    1.2378 H   0  0  0  0  0  0  0  0  0  0  0  0
   -1.3601    3.3724    2.8612 H   0  0  0  0  0  0  0  0  0  0  0  0
    2.2869    3.5716    1.3713 H   0  0  0  0  0  0  0  0  0  0  0  0
    2.5387    5.0667    0.5112 H   0  0  0  0  0  0  0  0  0  0  0  0
    3.8433    3.9213    0.6058 H   0  0  0  0  0  0  0  0  0  0  0  0
    2.7472    3.4927   -2.9489 H   0  0  0  0  0  0  0  0  0  0  0  0
    2.9798    5.0212   -2.0962 H   0  0  0  0  0  0  0  0  0  0  0  0
    4.1503    3.7230   -1.8877 H   0  0  0  0  0  0  0  0  0  0  0  0
   -1.1838    1.0458    3.1856 H   0  0  0  0  0  0  0  0  0  0  0  0
   -2.4365   -3.9246    0.3156 H   0  0  0  0  0  0  0  0  0  0  0  0
   -3.0316   -2.7858    1.5447 H   0  0  0  0  0  0  0  0  0  0  0  0
   -3.9735   -3.1526    0.0839 H   0  0  0  0  0  0  0  0  0  0  0  0
   -0.4044   -3.4388    0.9390 H   0  0  0  0  0  0  0  0  0  0  0  0
   -3.0940   -2.3117   -1.9801 H   0  0  0  0  0  0  0  0  0  0  0  0
    3.2586   -4.5963    1.0787 H   0  0  0  0  0  0  0  0  0  0  0  0
    4.0783   -3.6106    2.3390 H   0  0  0  0  0  0  0  0  0  0  0  0
    5.0291   -4.4721    1.1116 H   0  0  0  0  0  0  0  0  0  0  0  0
   -7.0575   -1.0387   -0.2377 H   0  0  0  0  0  0  0  0  0  0  0  0
   -6.6703   -0.8287   -1.9807 H   0  0  0  0  0  0  0  0  0  0  0  0
   -7.4084    0.4962   -1.0577 H   0  0  0  0  0  0  0  0  0  0  0  0
  1 12  1  0  0  0  0
  1 13  1  0  0  0  0
  2 14  1  0  0  0  0
  2 29  1  0  0  0  0
  3 17  1  0  0  0  0
  3 61  1  0  0  0  0
  4 18  1  0  0  0  0
  4 65  1  0  0  0  0
  5 20  1  0  0  0  0
  5 66  1  0  0  0  0
  6 23  1  0  0  0  0
  6 31  1  0  0  0  0
  7 29  2  0  0  0  0
  8 31  2  0  0  0  0
  9 10  1  0  0  0  0
  9 11  1  0  0  0  0
  9 12  1  0  0  0  0
  9 33  1  0  0  0  0
 10 13  1  0  0  0  0
 10 14  1  0  0  0  0
 10 34  1  0  0  0  0
 11 15  1  0  0  0  0
 11 19  1  0  0  0  0
 11 35  1  0  0  0  0
 12 17  1  0  0  0  0
 12 36  1  0  0  0  0
 13 18  1  0  0  0  0
 13 37  1  0  0  0  0
 14 16  1  0  0  0  0
 14 21  1  0  0  0  0
 15 16  1  0  0  0  0
 15 38  1  0  0  0  0
 15 39  1  0  0  0  0
 16 40  1  0  0  0  0
 16 41  1  0  0  0  0
 17 22  1  0  0  0  0
 17 25  1  0  0  0  0
 18 20  1  0  0  0  0
 18 42  1  0  0  0  0
 19 26  1  0  0  0  0
 19 27  1  0  0  0  0
 19 43  1  0  0  0  0
 20 23  1  0  0  0  0
 20 28  1  0  0  0  0
 21 44  1  0  0  0  0
 21 45  1  0  0  0  0
 21 46  1  0  0  0  0
 22 24  1  0  0  0  0
 22 47  1  0  0  0  0
 22 48  1  0  0  0  0
 23 24  1  0  0  0  0
 23 49  1  0  0  0  0
 24 50  1  0  0  0  0
 24 51  1  0  0  0  0
 25 52  1  0  0  0  0
 25 53  1  0  0  0  0
 25 54  1  0  0  0  0
 26 55  1  0  0  0  0
 26 56  1  0  0  0  0
 26 57  1  0  0  0  0
 27 58  1  0  0  0  0
 27 59  1  0  0  0  0
 27 60  1  0  0  0  0
 28 62  1  0  0  0  0
 28 63  1  0  0  0  0
 28 64  1  0  0  0  0
 29 30  1  0  0  0  0
 30 67  1  0  0  0  0
 30 68  1  0  0  0  0
 30 69  1  0  0  0  0
 31 32  1  0  0  0  0
 32 70  1  0  0  0  0
 32 71  1  0  0  0  0
 32 72  1  0  0  0  0
M  END
> <PUBCHEM_COMPOUND_CID>
11453871

> <PUBCHEM_CONFORMER_RMSD>
1

> <PUBCHEM_CONFORMER_DIVERSEORDER>
2
9
1
10
8
6
12
14
3
7
11
13
4
5

> <PUBCHEM_MMFF94_PARTIAL_CHARGES>
22
1 -0.56
12 0.28
13 0.28
14 0.28
17 0.28
18 0.28
2 -0.43
20 0.28
23 0.28
29 0.66
3 -0.68
30 0.06
31 0.66
32 0.06
4 -0.68
5 -0.68
6 -0.43
61 0.4
65 0.4
66 0.4
7 -0.57
8 -0.57

> <PUBCHEM_EFFECTIVE_ROTOR_COUNT>
7.2

> <PUBCHEM_PHARMACOPHORE_FEATURES>
12
1 1 acceptor
1 3 acceptor
1 3 donor
1 4 acceptor
1 4 donor
1 5 acceptor
1 5 donor
1 7 acceptor
1 8 acceptor
3 19 26 27 hydrophobe
5 1 9 10 12 13 rings
6 9 10 11 14 15 16 rings

> <PUBCHEM_HEAVY_ATOM_COUNT>
32

> <PUBCHEM_ATOM_DEF_STEREO_COUNT>
10

> <PUBCHEM_ATOM_UDEF_STEREO_COUNT>
0

> <PUBCHEM_BOND_DEF_STEREO_COUNT>
0

> <PUBCHEM_BOND_UDEF_STEREO_COUNT>
0

> <PUBCHEM_ISOTOPIC_ATOM_COUNT>
0

> <PUBCHEM_COMPONENT_COUNT>
1

> <PUBCHEM_CACTVS_TAUTO_COUNT>
1

> <PUBCHEM_CONFORMER_ID>
00AEC5AF00000002

> <PUBCHEM_MMFF94_ENERGY>
144.6059

> <PUBCHEM_FEATURE_SELFOVERLAP>
61.007

> <PUBCHEM_SHAPE_FINGERPRINT>
10411042 1 18119522146806157722
10675989 125 18338236080184551153
10759866 29 18266185100437911597
1100329 8 18341057298382772281
11135609 187 18118131501305539148
11578080 2 15864936355265495980
12166972 35 18410006598934812519
12293681 160 17768549518173511784
12403260 363 18341048524112700341
12553582 1 18191311473049896890
12788726 201 18131078095032224400
13004483 165 18270950246261811970
13009979 54 18129671781432919696
13140716 1 18342465841386861643
13583140 156 17968392194455418475
13782708 43 17822301193329290747
140371 6 18270690765860525615
14068700 675 18198897028800645073
14114211 68 17901411169919899380
14117953 113 17763467218730906437
14790565 3 18200330870185949401
15042514 8 17905039253902737122
15420108 30 17046273298724846049
15975801 100 15795656960744190309
17349148 13 18130788906463074503
1813 80 18268151968079381678
192875 21 18341896242744561339
19319366 153 17906732857985960038
20028762 73 18130500821690776311
20642791 105 18054502505138216561
20715895 44 18336256878156331173
2132832 1 18270957942985709192
22393880 68 18124606533053418292
23419403 2 17840830102575606968
23559900 14 18413106186506121218
244849 19 17458643240847151801
25147074 1 18201171970114892825
27425 322 16879622915848108421
3004659 81 18342458123325063551
3380486 145 17613452038180466577
3380486 77 18342462495617958607
3680242 22 18341057320163531395
394222 165 17391058610830815984
4058900 60 17898860303629189700
4409770 3 17323794466498481884
460360 51 18337408105115481417
57527295 17 17914043459781388679
59755656 215 18410293653169571044
6034566 193 17174640654039341437
7097593 13 18410865326216667056
9981440 41 17831576844607431920

> <PUBCHEM_SHAPE_MULTIPOLES>
611.59
10.13
4.95
1.54
10.99
0.64
-0.24
-3.06
3.02
-6.51
-0.51
0
0.79
-2.1

> <PUBCHEM_SHAPE_SELFOVERLAP>
1271.923

> <PUBCHEM_SHAPE_VOLUME>
345.2

> <PUBCHEM_COORDINATE_TYPE>
2
5
10

$$$$
