114505
  -OEChem-03292013323D

 35 37  0     1  0  0  0  0  0999 V2000
    0.2596    0.7716   -0.2353 O   0  0  0  0  0  0  0  0  0  0  0  0
    1.9611   -2.8533    0.7707 O   0  0  0  0  0  0  0  0  0  0  0  0
    4.3561   -1.8243    0.0002 O   0  0  0  0  0  0  0  0  0  0  0  0
    4.4564    2.9227    0.1540 O   0  0  0  0  0  0  0  0  0  0  0  0
   -4.3327    0.4848    2.1825 O   0  0  0  0  0  0  0  0  0  0  0  0
   -6.0007    0.5214   -0.0407 O   0  0  0  0  0  0  0  0  0  0  0  0
   -0.4468   -0.4022   -0.6683 C   0  0  1  0  0  0  0  0  0  0  0  0
    0.0014   -1.6365    0.1131 C   0  0  0  0  0  0  0  0  0  0  0  0
    1.4783   -1.8983   -0.1683 C   0  0  1  0  0  0  0  0  0  0  0  0
    2.2673   -0.6180   -0.0802 C   0  0  0  0  0  0  0  0  0  0  0  0
    1.6195    0.6253   -0.1272 C   0  0  0  0  0  0  0  0  0  0  0  0
   -1.9307   -0.1544   -0.4970 C   0  0  0  0  0  0  0  0  0  0  0  0
    3.6671   -0.6464    0.0090 C   0  0  0  0  0  0  0  0  0  0  0  0
    2.3539    1.8110   -0.0342 C   0  0  0  0  0  0  0  0  0  0  0  0
   -2.4599    0.0539    0.7762 C   0  0  0  0  0  0  0  0  0  0  0  0
   -2.7670   -0.1359   -1.6126 C   0  0  0  0  0  0  0  0  0  0  0  0
    4.3995    0.5391    0.0884 C   0  0  0  0  0  0  0  0  0  0  0  0
    3.7426    1.7668    0.0724 C   0  0  0  0  0  0  0  0  0  0  0  0
   -3.8269    0.2813    0.9340 C   0  0  0  0  0  0  0  0  0  0  0  0
   -4.1342    0.0914   -1.4549 C   0  0  0  0  0  0  0  0  0  0  0  0
   -4.6641    0.3000   -0.1816 C   0  0  0  0  0  0  0  0  0  0  0  0
   -0.2300   -0.5435   -1.7366 H   0  0  0  0  0  0  0  0  0  0  0  0
   -0.1326   -1.4912    1.1938 H   0  0  0  0  0  0  0  0  0  0  0  0
   -0.5894   -2.5223   -0.1512 H   0  0  0  0  0  0  0  0  0  0  0  0
    1.5967   -2.3189   -1.1738 H   0  0  0  0  0  0  0  0  0  0  0  0
    1.8371    2.7677   -0.0546 H   0  0  0  0  0  0  0  0  0  0  0  0
   -1.8111    0.0524    1.6483 H   0  0  0  0  0  0  0  0  0  0  0  0
   -2.3691   -0.2969   -2.6108 H   0  0  0  0  0  0  0  0  0  0  0  0
    2.0399   -2.4179    1.6369 H   0  0  0  0  0  0  0  0  0  0  0  0
    5.4843    0.5143    0.1600 H   0  0  0  0  0  0  0  0  0  0  0  0
   -4.7750    0.1034   -2.3325 H   0  0  0  0  0  0  0  0  0  0  0  0
    5.3089   -1.6409    0.0652 H   0  0  0  0  0  0  0  0  0  0  0  0
    3.8416    3.6759    0.1273 H   0  0  0  0  0  0  0  0  0  0  0  0
   -3.6087    0.4362    2.8302 H   0  0  0  0  0  0  0  0  0  0  0  0
   -6.4198    0.4991   -0.9182 H   0  0  0  0  0  0  0  0  0  0  0  0
  1  7  1  0  0  0  0
  1 11  1  0  0  0  0
  2  9  1  0  0  0  0
  2 29  1  0  0  0  0
  3 13  1  0  0  0  0
  3 32  1  0  0  0  0
  4 18  1  0  0  0  0
  4 33  1  0  0  0  0
  5 19  1  0  0  0  0
  5 34  1  0  0  0  0
  6 21  1  0  0  0  0
  6 35  1  0  0  0  0
  7  8  1  0  0  0  0
  7 12  1  0  0  0  0
  7 22  1  0  0  0  0
  8  9  1  0  0  0  0
  8 23  1  0  0  0  0
  8 24  1  0  0  0  0
  9 10  1  0  0  0  0
  9 25  1  0  0  0  0
 10 11  1  0  0  0  0
 10 13  2  0  0  0  0
 11 14  2  0  0  0  0
 12 15  2  0  0  0  0
 12 16  1  0  0  0  0
 13 17  1  0  0  0  0
 14 18  1  0  0  0  0
 14 26  1  0  0  0  0
 15 19  1  0  0  0  0
 15 27  1  0  0  0  0
 16 20  2  0  0  0  0
 16 28  1  0  0  0  0
 17 18  2  0  0  0  0
 17 30  1  0  0  0  0
 19 21  2  0  0  0  0
 20 21  1  0  0  0  0
 20 31  1  0  0  0  0
M  END
> <PUBCHEM_COMPOUND_CID>
114505

> <PUBCHEM_CONFORMER_RMSD>
0.6

> <PUBCHEM_CONFORMER_DIVERSEORDER>
3
12
5
9
1
6
8
2
14
10
11
13
7
4

> <PUBCHEM_MMFF94_PARTIAL_CHARGES>
30
1 -0.36
10 -0.14
11 0.08
12 -0.14
13 0.08
14 -0.15
15 -0.15
16 -0.15
17 -0.15
18 0.08
19 0.08
2 -0.68
20 -0.15
21 0.08
26 0.15
27 0.15
28 0.15
29 0.4
3 -0.53
30 0.15
31 0.15
32 0.45
33 0.45
34 0.45
35 0.45
4 -0.53
5 -0.53
6 -0.53
7 0.42
9 0.42

> <PUBCHEM_EFFECTIVE_ROTOR_COUNT>
1.8

> <PUBCHEM_PHARMACOPHORE_FEATURES>
10
1 1 acceptor
1 2 acceptor
1 2 donor
1 3 donor
1 4 donor
1 5 donor
1 6 donor
6 1 7 8 9 10 11 rings
6 10 11 13 14 17 18 rings
6 12 15 16 19 20 21 rings

> <PUBCHEM_HEAVY_ATOM_COUNT>
21

> <PUBCHEM_ATOM_DEF_STEREO_COUNT>
0

> <PUBCHEM_ATOM_UDEF_STEREO_COUNT>
2

> <PUBCHEM_BOND_DEF_STEREO_COUNT>
0

> <PUBCHEM_BOND_UDEF_STEREO_COUNT>
0

> <PUBCHEM_ISOTOPIC_ATOM_COUNT>
0

> <PUBCHEM_COMPONENT_COUNT>
1

> <PUBCHEM_CACTVS_TAUTO_COUNT>
90

> <PUBCHEM_CONFORMER_ID>
0001BF4900000003

> <PUBCHEM_MMFF94_ENERGY>
61.9735

> <PUBCHEM_FEATURE_SELFOVERLAP>
50.787

> <PUBCHEM_SHAPE_FINGERPRINT>
10411042 1 17906168448139796694
11045977 3 18113626685226152795
11471102 20 18409444778547169102
12107183 9 17622731916835192067
12236239 1 17917709089671794679
12390115 104 18049735306325047612
12403259 415 17967525753422661565
12596602 18 18201442506315938811
12616971 3 18201995512987455927
12644460 14 18334853892502247906
13140716 1 18335698395005697634
13631057 29 17983285217352092559
13675066 3 17821449079462757533
14386348 63 17530688676022451143
14739800 52 16916204694369880872
14848178 96 18127685152927216720
15196674 1 18338514243677685918
15342168 16 18262803007034626324
15375358 24 17822005411182747085
15475509 35 16515949382079260480
17834072 33 18272647970020349231
1813 80 17770509633851962590
18186145 218 18411983585297536494
19784866 34 18340482382608304880
200 152 18343858910182296389
20157964 124 18410290299047402469
20279233 1 17676210152349911651
204376 136 18335701710245248060
20612939 158 18413670210233015140
20645477 70 18410286982699887766
20739085 24 18262250949371598308
21033648 29 17749658641102219949
21033650 10 15625683668374280250
21065201 7 15864351290219414891
21503847 285 18343308037370995108
22122407 14 18270692969938456305
22854114 59 18261111889452254437
23557571 272 16660924370667351343
23559900 14 16443621264466841322
335352 9 18410855491321788716
34797466 226 14548735161540413625
42630746 31 18411696586892812126
4409770 3 15678896371746691815
474 4 18341049704674844792
5104073 3 18336260240582734186
542803 24 17846780702554750917
5895379 119 16343437106633924152
602551 16 16588037834676955515
6034566 193 17683252721773585004
633830 44 18201729465448779068
77492 1 17846492613270518655
8272917 22 18412825759295780646
90127 26 18114178614420079981
9981440 41 16837099402027245688
9999458 23 18333449837908047774

> <PUBCHEM_SHAPE_MULTIPOLES>
396.95
11.12
2.13
1.15
6.67
0.22
0.15
-3.8
0.89
-3.84
0.3
1.83
-0.04
-0.38

> <PUBCHEM_SHAPE_SELFOVERLAP>
876.632

> <PUBCHEM_SHAPE_VOLUME>
212.4

> <PUBCHEM_COORDINATE_TYPE>
2
5
10

$$$$
