11452022
  -OEChem-03292013303D

 60 60  0     1  0  0  0  0  0999 V2000
   -4.8731    3.2973    0.3592 P   0  0  0  0  0  0  0  0  0  0  0  0
   -4.5515    1.7227    0.5311 O   0  0  0  0  0  0  0  0  0  0  0  0
   -4.8787   -1.2543   -2.4917 O   0  0  0  0  0  0  0  0  0  0  0  0
   -4.3639    3.6030   -1.1449 O   0  0  0  0  0  0  0  0  0  0  0  0
   -6.4838    3.3492    0.2242 O   0  0  0  0  0  0  0  0  0  0  0  0
   -4.2892    4.1853    1.4188 O   0  0  0  0  0  0  0  0  0  0  0  0
   -5.2172   -1.0304    1.1785 N   0  0  0  0  0  0  0  0  0  0  0  0
   -4.6800   -0.6494   -0.1363 C   0  0  2  0  0  0  0  0  0  0  0  0
   -3.1323   -0.7836   -0.1157 C   0  0  0  0  0  0  0  0  0  0  0  0
   -2.5855   -2.1894    0.2092 C   0  0  0  0  0  0  0  0  0  0  0  0
   -5.0721    0.8183   -0.4361 C   0  0  0  0  0  0  0  0  0  0  0  0
   -5.3395   -1.5702   -1.1835 C   0  0  0  0  0  0  0  0  0  0  0  0
   -1.0960   -2.2077    0.2798 C   0  0  0  0  0  0  0  0  0  0  0  0
    5.3195   -0.8584    0.1813 C   0  0  0  0  0  0  0  0  0  0  0  0
    3.7881   -0.8712    0.2106 C   0  0  0  0  0  0  0  0  0  0  0  0
    5.9698    0.4905   -0.1411 C   0  0  0  0  0  0  0  0  0  0  0  0
    3.1968   -2.2569    0.4810 C   0  0  0  0  0  0  0  0  0  0  0  0
    7.4981    0.4632   -0.0721 C   0  0  0  0  0  0  0  0  0  0  0  0
    1.6905   -2.2397    0.4107 C   0  0  0  0  0  0  0  0  0  0  0  0
    8.0883    1.8543   -0.3138 C   0  0  0  0  0  0  0  0  0  0  0  0
   -0.4520   -1.9628    1.4926 C   0  0  0  0  0  0  0  0  0  0  0  0
   -0.3468   -2.4685   -0.8676 C   0  0  0  0  0  0  0  0  0  0  0  0
    0.9413   -1.9789    1.5580 C   0  0  0  0  0  0  0  0  0  0  0  0
    1.0463   -2.4845   -0.8022 C   0  0  0  0  0  0  0  0  0  0  0  0
    9.6162    1.8241   -0.2782 C   0  0  0  0  0  0  0  0  0  0  0  0
   10.2070    3.1980   -0.5519 C   0  0  0  0  0  0  0  0  0  0  0  0
   -2.7186   -0.0781    0.6188 H   0  0  0  0  0  0  0  0  0  0  0  0
   -2.7305   -0.4630   -1.0868 H   0  0  0  0  0  0  0  0  0  0  0  0
   -2.9186   -2.9094   -0.5476 H   0  0  0  0  0  0  0  0  0  0  0  0
   -2.9863   -2.5531    1.1624 H   0  0  0  0  0  0  0  0  0  0  0  0
   -4.6944    1.1102   -1.4221 H   0  0  0  0  0  0  0  0  0  0  0  0
   -6.1641    0.9156   -0.4553 H   0  0  0  0  0  0  0  0  0  0  0  0
   -5.1256   -2.6270   -0.9911 H   0  0  0  0  0  0  0  0  0  0  0  0
   -6.4295   -1.4481   -1.1761 H   0  0  0  0  0  0  0  0  0  0  0  0
    5.6651   -1.5948   -0.5554 H   0  0  0  0  0  0  0  0  0  0  0  0
    5.6865   -1.2026    1.1567 H   0  0  0  0  0  0  0  0  0  0  0  0
    3.4382   -0.1643    0.9737 H   0  0  0  0  0  0  0  0  0  0  0  0
    3.4172   -0.4946   -0.7515 H   0  0  0  0  0  0  0  0  0  0  0  0
    5.5907    1.2397    0.5651 H   0  0  0  0  0  0  0  0  0  0  0  0
    5.6540    0.8112   -1.1414 H   0  0  0  0  0  0  0  0  0  0  0  0
    3.5179   -2.6171    1.4665 H   0  0  0  0  0  0  0  0  0  0  0  0
    3.5869   -2.9814   -0.2450 H   0  0  0  0  0  0  0  0  0  0  0  0
   -4.7370   -0.5122    1.9130 H   0  0  0  0  0  0  0  0  0  0  0  0
   -5.0521   -2.0182    1.3620 H   0  0  0  0  0  0  0  0  0  0  0  0
    7.8154    0.0976    0.9119 H   0  0  0  0  0  0  0  0  0  0  0  0
    7.8837   -0.2410   -0.8191 H   0  0  0  0  0  0  0  0  0  0  0  0
    7.7518    2.2302   -1.2878 H   0  0  0  0  0  0  0  0  0  0  0  0
    7.7160    2.5507    0.4475 H   0  0  0  0  0  0  0  0  0  0  0  0
   -1.0242   -1.7555    2.3930 H   0  0  0  0  0  0  0  0  0  0  0  0
   -0.8367   -2.6579   -1.8190 H   0  0  0  0  0  0  0  0  0  0  0  0
    1.4319   -1.7844    2.5080 H   0  0  0  0  0  0  0  0  0  0  0  0
    1.6192   -2.6865   -1.7034 H   0  0  0  0  0  0  0  0  0  0  0  0
    9.9587    1.4724    0.7020 H   0  0  0  0  0  0  0  0  0  0  0  0
    9.9926    1.1169   -1.0264 H   0  0  0  0  0  0  0  0  0  0  0  0
   -5.3289   -1.8582   -3.1065 H   0  0  0  0  0  0  0  0  0  0  0  0
    9.9103    3.5631   -1.5403 H   0  0  0  0  0  0  0  0  0  0  0  0
    9.8747    3.9241    0.1969 H   0  0  0  0  0  0  0  0  0  0  0  0
   11.3001    3.1535   -0.5203 H   0  0  0  0  0  0  0  0  0  0  0  0
   -4.3653    4.5293   -1.4674 H   0  0  0  0  0  0  0  0  0  0  0  0
   -6.9276    4.2222    0.1710 H   0  0  0  0  0  0  0  0  0  0  0  0
  1  2  1  0  0  0  0
  1  4  1  0  0  0  0
  1  5  1  0  0  0  0
  1  6  2  0  0  0  0
  2 11  1  0  0  0  0
  3 12  1  0  0  0  0
  3 55  1  0  0  0  0
  4 59  1  0  0  0  0
  5 60  1  0  0  0  0
  7  8  1  0  0  0  0
  7 43  1  0  0  0  0
  7 44  1  0  0  0  0
  8  9  1  0  0  0  0
  8 11  1  0  0  0  0
  8 12  1  0  0  0  0
  9 10  1  0  0  0  0
  9 27  1  0  0  0  0
  9 28  1  0  0  0  0
 10 13  1  0  0  0  0
 10 29  1  0  0  0  0
 10 30  1  0  0  0  0
 11 31  1  0  0  0  0
 11 32  1  0  0  0  0
 12 33  1  0  0  0  0
 12 34  1  0  0  0  0
 13 21  2  0  0  0  0
 13 22  1  0  0  0  0
 14 15  1  0  0  0  0
 14 16  1  0  0  0  0
 14 35  1  0  0  0  0
 14 36  1  0  0  0  0
 15 17  1  0  0  0  0
 15 37  1  0  0  0  0
 15 38  1  0  0  0  0
 16 18  1  0  0  0  0
 16 39  1  0  0  0  0
 16 40  1  0  0  0  0
 17 19  1  0  0  0  0
 17 41  1  0  0  0  0
 17 42  1  0  0  0  0
 18 20  1  0  0  0  0
 18 45  1  0  0  0  0
 18 46  1  0  0  0  0
 19 23  2  0  0  0  0
 19 24  1  0  0  0  0
 20 25  1  0  0  0  0
 20 47  1  0  0  0  0
 20 48  1  0  0  0  0
 21 23  1  0  0  0  0
 21 49  1  0  0  0  0
 22 24  2  0  0  0  0
 22 50  1  0  0  0  0
 23 51  1  0  0  0  0
 24 52  1  0  0  0  0
 25 26  1  0  0  0  0
 25 53  1  0  0  0  0
 25 54  1  0  0  0  0
 26 56  1  0  0  0  0
 26 57  1  0  0  0  0
 26 58  1  0  0  0  0
M  END
> <PUBCHEM_COMPOUND_CID>
11452022

> <PUBCHEM_CONFORMER_RMSD>
1.4

> <PUBCHEM_CONFORMER_DIVERSEORDER>
1
18
37
7
34
36
27
35
19
32
22
13
3
29
8
38
33
20
6
21
9
28
31
11
17
4
15
2
16
26
10
5
12
23
30
14
24
25

> <PUBCHEM_MMFF94_PARTIAL_CHARGES>
27
1 1.51
10 0.14
11 0.28
12 0.28
13 -0.14
17 0.14
19 -0.14
2 -0.55
21 -0.15
22 -0.15
23 -0.15
24 -0.15
3 -0.68
4 -0.77
43 0.36
44 0.36
49 0.15
5 -0.77
50 0.15
51 0.15
52 0.15
55 0.4
59 0.5
6 -0.7
60 0.5
7 -0.99
8 0.27

> <PUBCHEM_EFFECTIVE_ROTOR_COUNT>
14

> <PUBCHEM_PHARMACOPHORE_FEATURES>
10
1 26 hydrophobe
1 3 acceptor
1 3 donor
1 4 acceptor
1 5 acceptor
1 6 acceptor
1 7 cation
1 7 donor
4 1 4 5 6 anion
6 13 19 21 22 23 24 rings

> <PUBCHEM_HEAVY_ATOM_COUNT>
26

> <PUBCHEM_ATOM_DEF_STEREO_COUNT>
1

> <PUBCHEM_ATOM_UDEF_STEREO_COUNT>
0

> <PUBCHEM_BOND_DEF_STEREO_COUNT>
0

> <PUBCHEM_BOND_UDEF_STEREO_COUNT>
0

> <PUBCHEM_ISOTOPIC_ATOM_COUNT>
0

> <PUBCHEM_COMPONENT_COUNT>
1

> <PUBCHEM_CACTVS_TAUTO_COUNT>
1

> <PUBCHEM_CONFORMER_ID>
00AEBE7600000001

> <PUBCHEM_MMFF94_ENERGY>
3.555

> <PUBCHEM_FEATURE_SELFOVERLAP>
50.78

> <PUBCHEM_SHAPE_FINGERPRINT>
10625338 131 18408878543719668520
10670039 82 18411131463506688489
11135609 201 18334298618103771267
11181472 205 18260832606196021076
12895837 130 18342174424114326101
13383668 90 12966865523484939315
13726171 33 18340776918891838993
15289351 153 18335413587740702026
15604295 49 18198058291668892256
18603816 31 9511465558432455807
20058555 10 18410572847133291624
21298829 104 18335423474354646428
21424621 283 18333450941751754634
21585482 111 18261391105751623108
21774942 28 18412547605352078516
22288116 15 17559953397603632566
2838139 119 18413105082847446406
3711267 37 17895764010688395580
393628 179 18339068415509511408
393628 194 18261678164043341932
4169191 19 18259980492398736310
437795 83 18413102870570108708
44802255 64 17846502582000955014
5718773 13 9439399125752608978
5937810 71 18202292398512968984
6201320 82 18270135534512234440
636775 72 18335984289841424152
6673363 416 18269557315522028254
7808743 9 18196927778560296699

> <PUBCHEM_SHAPE_MULTIPOLES>
504.59
26.76
5.05
1.29
69.75
5.91
-0.21
33.67
-5.24
-5.1
0.6
-1.85
-0.35
-2.56

> <PUBCHEM_SHAPE_SELFOVERLAP>
976.581

> <PUBCHEM_SHAPE_VOLUME>
306.6

> <PUBCHEM_COORDINATE_TYPE>
2
5
10

$$$$
