11464176
  -OEChem-03292013303D

 50 53  0     1  0  0  0  0  0999 V2000
    0.0399    0.9986    0.1585 O   0  0  0  0  0  0  0  0  0  0  0  0
   -1.4710   -1.4474    0.2216 O   0  0  0  0  0  0  0  0  0  0  0  0
   -0.2076   -3.7823   -0.4462 O   0  0  0  0  0  0  0  0  0  0  0  0
   -4.1819   -1.3593    0.1773 O   0  0  0  0  0  0  0  0  0  0  0  0
   -1.2764    3.3604   -0.0650 O   0  0  0  0  0  0  0  0  0  0  0  0
    4.4154    0.1175   -2.4633 O   0  0  0  0  0  0  0  0  0  0  0  0
    5.2175   -0.1347    2.2514 O   0  0  0  0  0  0  0  0  0  0  0  0
    6.1871    0.0694   -0.3347 O   0  0  0  0  0  0  0  0  0  0  0  0
   -6.2066   -2.4297    0.2071 O   0  0  0  0  0  0  0  0  0  0  0  0
    0.6074   -0.2483    0.5972 C   0  0  1  0  0  0  0  0  0  0  0  0
   -0.0765   -1.4181   -0.1285 C   0  0  1  0  0  0  0  0  0  0  0  0
    2.0976   -0.1631    0.3483 C   0  0  0  0  0  0  0  0  0  0  0  0
   -2.0596   -0.2165    0.1428 C   0  0  0  0  0  0  0  0  0  0  0  0
   -1.3269    0.9678    0.1024 C   0  0  0  0  0  0  0  0  0  0  0  0
    0.4930   -2.7782    0.2646 C   0  0  0  0  0  0  0  0  0  0  0  0
   -3.4531   -0.1516    0.1159 C   0  0  0  0  0  0  0  0  0  0  0  0
   -1.9832    2.1962   -0.0076 C   0  0  0  0  0  0  0  0  0  0  0  0
    2.9861   -0.1873    1.4229 C   0  0  0  0  0  0  0  0  0  0  0  0
    2.5817   -0.0598   -0.9555 C   0  0  0  0  0  0  0  0  0  0  0  0
   -4.1237    1.0659    0.0202 C   0  0  0  0  0  0  0  0  0  0  0  0
   -3.3793    2.2459   -0.0473 C   0  0  0  0  0  0  0  0  0  0  0  0
    3.9553    0.0192   -1.1849 C   0  0  0  0  0  0  0  0  0  0  0  0
    4.3598   -0.1081    1.1935 C   0  0  0  0  0  0  0  0  0  0  0  0
    4.8444   -0.0049   -0.1104 C   0  0  0  0  0  0  0  0  0  0  0  0
   -5.5768    1.0692   -0.0101 C   0  0  0  0  0  0  0  0  0  0  0  0
   -6.2546   -0.0793    0.0519 C   0  0  0  0  0  0  0  0  0  0  0  0
   -5.5723   -1.3821    0.1513 C   0  0  0  0  0  0  0  0  0  0  0  0
   -0.8961    3.8237   -1.3588 C   0  0  0  0  0  0  0  0  0  0  0  0
    4.6924   -1.1025   -3.1481 C   0  0  0  0  0  0  0  0  0  0  0  0
    5.5678    1.1194    2.8336 C   0  0  0  0  0  0  0  0  0  0  0  0
    0.4174   -0.3225    1.6778 H   0  0  0  0  0  0  0  0  0  0  0  0
   -0.0305   -1.3074   -1.2208 H   0  0  0  0  0  0  0  0  0  0  0  0
    1.5552   -2.8635    0.0189 H   0  0  0  0  0  0  0  0  0  0  0  0
    0.3525   -2.9653    1.3345 H   0  0  0  0  0  0  0  0  0  0  0  0
    2.6164   -0.2693    2.4420 H   0  0  0  0  0  0  0  0  0  0  0  0
    1.8980   -0.0314   -1.8002 H   0  0  0  0  0  0  0  0  0  0  0  0
   -3.8793    3.2088   -0.1260 H   0  0  0  0  0  0  0  0  0  0  0  0
   -6.0994    2.0166   -0.0835 H   0  0  0  0  0  0  0  0  0  0  0  0
    0.1655   -4.6387   -0.1765 H   0  0  0  0  0  0  0  0  0  0  0  0
   -7.3389   -0.0834    0.0299 H   0  0  0  0  0  0  0  0  0  0  0  0
   -0.3349    4.7543   -1.2383 H   0  0  0  0  0  0  0  0  0  0  0  0
   -1.7819    4.0256   -1.9693 H   0  0  0  0  0  0  0  0  0  0  0  0
   -0.2547    3.0906   -1.8582 H   0  0  0  0  0  0  0  0  0  0  0  0
    6.6491   -0.0062    0.5178 H   0  0  0  0  0  0  0  0  0  0  0  0
    5.4663   -1.6720   -2.6239 H   0  0  0  0  0  0  0  0  0  0  0  0
    5.0562   -0.8582   -4.1499 H   0  0  0  0  0  0  0  0  0  0  0  0
    3.7825   -1.7037   -3.2429 H   0  0  0  0  0  0  0  0  0  0  0  0
    6.2871    0.9353    3.6362 H   0  0  0  0  0  0  0  0  0  0  0  0
    4.6829    1.6017    3.2606 H   0  0  0  0  0  0  0  0  0  0  0  0
    6.0319    1.7769    2.0917 H   0  0  0  0  0  0  0  0  0  0  0  0
  1 10  1  0  0  0  0
  1 14  1  0  0  0  0
  2 11  1  0  0  0  0
  2 13  1  0  0  0  0
  3 15  1  0  0  0  0
  3 39  1  0  0  0  0
  4 16  1  0  0  0  0
  4 27  1  0  0  0  0
  5 17  1  0  0  0  0
  5 28  1  0  0  0  0
  6 22  1  0  0  0  0
  6 29  1  0  0  0  0
  7 23  1  0  0  0  0
  7 30  1  0  0  0  0
  8 24  1  0  0  0  0
  8 44  1  0  0  0  0
  9 27  2  0  0  0  0
 10 11  1  0  0  0  0
 10 12  1  0  0  0  0
 10 31  1  0  0  0  0
 11 15  1  0  0  0  0
 11 32  1  0  0  0  0
 12 18  2  0  0  0  0
 12 19  1  0  0  0  0
 13 14  1  0  0  0  0
 13 16  2  0  0  0  0
 14 17  2  0  0  0  0
 15 33  1  0  0  0  0
 15 34  1  0  0  0  0
 16 20  1  0  0  0  0
 17 21  1  0  0  0  0
 18 23  1  0  0  0  0
 18 35  1  0  0  0  0
 19 22  2  0  0  0  0
 19 36  1  0  0  0  0
 20 21  2  0  0  0  0
 20 25  1  0  0  0  0
 21 37  1  0  0  0  0
 22 24  1  0  0  0  0
 23 24  2  0  0  0  0
 25 26  2  0  0  0  0
 25 38  1  0  0  0  0
 26 27  1  0  0  0  0
 26 40  1  0  0  0  0
 28 41  1  0  0  0  0
 28 42  1  0  0  0  0
 28 43  1  0  0  0  0
 29 45  1  0  0  0  0
 29 46  1  0  0  0  0
 29 47  1  0  0  0  0
 30 48  1  0  0  0  0
 30 49  1  0  0  0  0
 30 50  1  0  0  0  0
M  END
> <PUBCHEM_COMPOUND_CID>
11464176

> <PUBCHEM_CONFORMER_RMSD>
0.8

> <PUBCHEM_CONFORMER_DIVERSEORDER>
1
6
9
7
8
10
3
2
4
5

> <PUBCHEM_MMFF94_PARTIAL_CHARGES>
37
1 -0.36
10 0.42
11 0.28
12 -0.14
13 0.08
14 0.08
15 0.28
16 0.08
17 0.08
18 -0.15
19 -0.15
2 -0.36
20 0.03
21 -0.15
22 0.08
23 0.08
24 0.08
25 -0.18
26 -0.14
27 0.71
28 0.28
29 0.28
3 -0.68
30 0.28
35 0.15
36 0.15
37 0.15
38 0.15
39 0.4
4 -0.23
40 0.15
44 0.45
5 -0.36
6 -0.36
7 -0.36
8 -0.53
9 -0.57

> <PUBCHEM_EFFECTIVE_ROTOR_COUNT>
5.8

> <PUBCHEM_PHARMACOPHORE_FEATURES>
13
1 1 acceptor
1 2 acceptor
1 3 acceptor
1 3 donor
1 5 acceptor
1 6 acceptor
1 7 acceptor
1 8 donor
1 9 acceptor
6 1 2 10 11 13 14 rings
6 12 18 19 22 23 24 rings
6 13 14 16 17 20 21 rings
6 4 16 20 25 26 27 rings

> <PUBCHEM_HEAVY_ATOM_COUNT>
30

> <PUBCHEM_ATOM_DEF_STEREO_COUNT>
2

> <PUBCHEM_ATOM_UDEF_STEREO_COUNT>
0

> <PUBCHEM_BOND_DEF_STEREO_COUNT>
0

> <PUBCHEM_BOND_UDEF_STEREO_COUNT>
0

> <PUBCHEM_ISOTOPIC_ATOM_COUNT>
0

> <PUBCHEM_COMPONENT_COUNT>
1

> <PUBCHEM_CACTVS_TAUTO_COUNT>
2

> <PUBCHEM_CONFORMER_ID>
00AEEDF000000001

> <PUBCHEM_MMFF94_ENERGY>
129.327

> <PUBCHEM_FEATURE_SELFOVERLAP>
66.056

> <PUBCHEM_SHAPE_FINGERPRINT>
10369192 42 17488447754614179024
10670039 82 18189631457799724300
10906281 52 18115043913397503809
11488393 25 17558286335933243127
11963148 33 18336265760175989163
12166972 35 17385723616465384068
12236239 1 17749106686491559010
12403259 415 17989201543096231200
12616971 3 17095523959369852505
12730499 353 17203328923258968582
12788726 201 18113623356652898161
13140716 1 18266171915273116585
13402501 40 18130496505285112488
13533116 47 17095233701564752456
13617811 41 18335709338043940741
13782708 43 17917716759972260998
14294032 229 18044944471801213861
14790565 3 18410581720931545801
14910302 57 18200599094554886502
15131766 46 16010171984075814902
15927050 60 17617948371150251885
17349148 13 17748831782435028941
173720 79 18040991843415236506
17844677 252 16415205537545510112
17909252 39 17914906339785662422
18681886 176 18335421308989567592
19319366 153 17458620151261269674
20028762 73 18129942424808896615
21033650 10 18118987810003717312
21267235 1 18337678611647967107
21781051 124 18262256480867833355
21857420 4 16406994634171018895
22122407 14 15936707981289918597
2303208 19 17775013379370479607
23366157 5 17681841704388466819
23557571 272 18272375252413584388
23559900 14 17836638622601415723
23569914 152 16191149012833350437
23569914 2 15693737777562100273
3004659 81 18040156231884440620
335352 9 18408037421750995901
34797466 226 18273223010043230988
46194498 28 18131638885488086084
469060 322 18337401460949404825
5104073 3 18269271262421521067
59755656 215 18343588408256891631
6669772 16 17489581247764673150

> <PUBCHEM_SHAPE_MULTIPOLES>
564.56
14.72
3.06
1.84
1.26
0.58
0.46
-1.83
-1.55
3.37
0.74
-5.41
0.17
1.49

> <PUBCHEM_SHAPE_SELFOVERLAP>
1238.26

> <PUBCHEM_SHAPE_VOLUME>
305

> <PUBCHEM_COORDINATE_TYPE>
2
5
10

$$$$
