11464980
  -OEChem-03292013303D

 62 64  0     1  0  0  0  0  0999 V2000
   -2.0277   -2.6836    2.3105 S   0  0  0  0  0  0  0  0  0  0  0  0
    0.2228    2.7051    1.6995 O   0  0  0  0  0  0  0  0  0  0  0  0
   -3.8689   -0.2803    0.7005 O   0  0  0  0  0  0  0  0  0  0  0  0
    0.7227    4.0196   -1.5511 O   0  0  0  0  0  0  0  0  0  0  0  0
    2.9821    3.9647   -1.5044 O   0  0  0  0  0  0  0  0  0  0  0  0
   -1.5908    0.1701    0.6817 N   0  0  0  0  0  0  0  0  0  0  0  0
    0.4130    1.6989   -0.3910 N   0  0  0  0  0  0  0  0  0  0  0  0
    1.7744   -2.4348   -0.5181 N   0  0  0  0  0  0  0  0  0  0  0  0
   -1.6824    1.6057    0.7677 C   0  0  0  0  0  0  0  0  0  0  0  0
   -2.4223    2.0456    2.0401 C   0  0  0  0  0  0  0  0  0  0  0  0
   -2.4563    2.2112   -0.4132 C   0  0  0  0  0  0  0  0  0  0  0  0
   -3.3971    3.1232    1.5795 C   0  0  0  0  0  0  0  0  0  0  0  0
   -3.7806    2.6758    0.1808 C   0  0  0  0  0  0  0  0  0  0  0  0
   -0.2531    2.0639    0.7663 C   0  0  0  0  0  0  0  0  0  0  0  0
   -2.7007   -0.6616    0.6549 C   0  0  0  0  0  0  0  0  0  0  0  0
    1.7936    2.0391   -0.6492 C   0  0  1  0  0  0  0  0  0  0  0  0
   -2.3233   -2.1366    0.5885 C   0  0  2  0  0  0  0  0  0  0  0  0
   -3.4302   -2.9973   -0.0378 C   0  0  0  0  0  0  0  0  0  0  0  0
    2.4681    0.9975   -1.5531 C   0  0  0  0  0  0  0  0  0  0  0  0
   -3.7685   -2.6301   -1.5000 C   0  0  0  0  0  0  0  0  0  0  0  0
    2.4330   -0.3931   -0.9846 C   0  0  0  0  0  0  0  0  0  0  0  0
    1.9063    3.4224   -1.2735 C   0  0  0  0  0  0  0  0  0  0  0  0
    3.4106   -0.9642   -0.1477 C   0  0  0  0  0  0  0  0  0  0  0  0
   -2.5513   -2.7161   -2.4222 C   0  0  0  0  0  0  0  0  0  0  0  0
   -4.8751   -3.5517   -2.0205 C   0  0  0  0  0  0  0  0  0  0  0  0
    1.4403   -1.2981   -1.2040 C   0  0  0  0  0  0  0  0  0  0  0  0
    2.9729   -2.2595    0.1362 C   0  0  0  0  0  0  0  0  0  0  0  0
    4.6289   -0.5232    0.4060 C   0  0  0  0  0  0  0  0  0  0  0  0
    3.6957   -3.1396    0.9494 C   0  0  0  0  0  0  0  0  0  0  0  0
    5.3626   -1.3926    1.2213 C   0  0  0  0  0  0  0  0  0  0  0  0
    4.9013   -2.6804    1.4875 C   0  0  0  0  0  0  0  0  0  0  0  0
   -2.9918    1.2280    2.4970 H   0  0  0  0  0  0  0  0  0  0  0  0
   -1.7825    2.4330    2.8390 H   0  0  0  0  0  0  0  0  0  0  0  0
   -1.9365    3.0863   -0.8241 H   0  0  0  0  0  0  0  0  0  0  0  0
   -2.6187    1.5135   -1.2421 H   0  0  0  0  0  0  0  0  0  0  0  0
   -4.2638    3.2097    2.2412 H   0  0  0  0  0  0  0  0  0  0  0  0
   -2.8944    4.0970    1.5437 H   0  0  0  0  0  0  0  0  0  0  0  0
   -4.2109    3.4986   -0.3994 H   0  0  0  0  0  0  0  0  0  0  0  0
   -4.5285    1.8811    0.2092 H   0  0  0  0  0  0  0  0  0  0  0  0
   -0.6700   -0.2606    0.6629 H   0  0  0  0  0  0  0  0  0  0  0  0
   -0.1033    1.2267   -1.1278 H   0  0  0  0  0  0  0  0  0  0  0  0
    2.3063    2.0909    0.3198 H   0  0  0  0  0  0  0  0  0  0  0  0
   -1.3849   -2.2638    0.0418 H   0  0  0  0  0  0  0  0  0  0  0  0
   -4.3509   -2.9155    0.5565 H   0  0  0  0  0  0  0  0  0  0  0  0
   -3.1291   -4.0535   -0.0038 H   0  0  0  0  0  0  0  0  0  0  0  0
    3.5093    1.2873   -1.7449 H   0  0  0  0  0  0  0  0  0  0  0  0
    1.9789    0.9915   -2.5373 H   0  0  0  0  0  0  0  0  0  0  0  0
   -4.1522   -1.6039   -1.5399 H   0  0  0  0  0  0  0  0  0  0  0  0
   -1.6196   -3.9251    2.0097 H   0  0  0  0  0  0  0  0  0  0  0  0
   -2.0669   -3.6957   -2.3520 H   0  0  0  0  0  0  0  0  0  0  0  0
   -2.8421   -2.5567   -3.4663 H   0  0  0  0  0  0  0  0  0  0  0  0
   -1.8128   -1.9482   -2.1754 H   0  0  0  0  0  0  0  0  0  0  0  0
   -5.7697   -3.4777   -1.3931 H   0  0  0  0  0  0  0  0  0  0  0  0
   -4.5510   -4.5979   -2.0284 H   0  0  0  0  0  0  0  0  0  0  0  0
   -5.1617   -3.2782   -3.0415 H   0  0  0  0  0  0  0  0  0  0  0  0
    0.5277   -1.2510   -1.7808 H   0  0  0  0  0  0  0  0  0  0  0  0
    1.2211   -3.2802   -0.4944 H   0  0  0  0  0  0  0  0  0  0  0  0
    5.0022    0.4779    0.2099 H   0  0  0  0  0  0  0  0  0  0  0  0
    0.8442    4.9084   -1.9479 H   0  0  0  0  0  0  0  0  0  0  0  0
    3.3372   -4.1422    1.1574 H   0  0  0  0  0  0  0  0  0  0  0  0
    6.3028   -1.0578    1.6514 H   0  0  0  0  0  0  0  0  0  0  0  0
    5.4872   -3.3390    2.1236 H   0  0  0  0  0  0  0  0  0  0  0  0
  1 17  1  0  0  0  0
  1 49  1  0  0  0  0
  2 14  2  0  0  0  0
  3 15  2  0  0  0  0
  4 22  1  0  0  0  0
  4 59  1  0  0  0  0
  5 22  2  0  0  0  0
  6  9  1  0  0  0  0
  6 15  1  0  0  0  0
  6 40  1  0  0  0  0
  7 14  1  0  0  0  0
  7 16  1  0  0  0  0
  7 41  1  0  0  0  0
  8 26  1  0  0  0  0
  8 27  1  0  0  0  0
  8 57  1  0  0  0  0
  9 10  1  0  0  0  0
  9 11  1  0  0  0  0
  9 14  1  0  0  0  0
 10 12  1  0  0  0  0
 10 32  1  0  0  0  0
 10 33  1  0  0  0  0
 11 13  1  0  0  0  0
 11 34  1  0  0  0  0
 11 35  1  0  0  0  0
 12 13  1  0  0  0  0
 12 36  1  0  0  0  0
 12 37  1  0  0  0  0
 13 38  1  0  0  0  0
 13 39  1  0  0  0  0
 15 17  1  0  0  0  0
 16 19  1  0  0  0  0
 16 22  1  0  0  0  0
 16 42  1  0  0  0  0
 17 18  1  0  0  0  0
 17 43  1  0  0  0  0
 18 20  1  0  0  0  0
 18 44  1  0  0  0  0
 18 45  1  0  0  0  0
 19 21  1  0  0  0  0
 19 46  1  0  0  0  0
 19 47  1  0  0  0  0
 20 24  1  0  0  0  0
 20 25  1  0  0  0  0
 20 48  1  0  0  0  0
 21 23  1  0  0  0  0
 21 26  2  0  0  0  0
 23 27  1  0  0  0  0
 23 28  2  0  0  0  0
 24 50  1  0  0  0  0
 24 51  1  0  0  0  0
 24 52  1  0  0  0  0
 25 53  1  0  0  0  0
 25 54  1  0  0  0  0
 25 55  1  0  0  0  0
 26 56  1  0  0  0  0
 27 29  2  0  0  0  0
 28 30  1  0  0  0  0
 28 58  1  0  0  0  0
 29 31  1  0  0  0  0
 29 60  1  0  0  0  0
 30 31  2  0  0  0  0
 30 61  1  0  0  0  0
 31 62  1  0  0  0  0
M  END
> <PUBCHEM_COMPOUND_CID>
11464980

> <PUBCHEM_CONFORMER_RMSD>
1.2

> <PUBCHEM_CONFORMER_DIVERSEORDER>
2
223
205
302
46
91
76
115
229
274
303
118
307
142
222
88
29
258
81
184
245
194
172
228
35
266
288
133
86
60
282
12
204
277
84
168
36
15
44
216
241
236
102
111
27
219
268
221
206
253
220
211
53
71
298
252
64
177
141
238
214
269
271
18
285
281
182
240
178
124
296
58
305
247
287
248
174
181
207
55
83
30
59
26
1
134
108
158
72
293
157
140
190
192
260
199
235
74
106
259
123
61
132
10
203
159
45
9
215
292
22
249
299
218
239
31
286
150
40
67
273
121
290
155
179
114
276
107
167
243
33
156
162
149
255
110
213
170
65
95
283
66
24
280
165
37
279
80
224
198
152
4
306
300
251
267
153
139
173
130
70
51
208
25
6
196
197
244
94
119
188
137
73
109
122
113
23
310
202
183
145
32
180
127
100
56
41
90
116
193
136
50
264
143
294
254
200
304
75
210
131
191
13
262
160
169
82
175
209
104
311
97
256
96
93
189
144
171
250
212
68
151
312
92
201
246
77
16
166
43
87
19
52
242
225
126
21
237
125
128
308
57
263
297
257
79
233
234
270
163
161
146
148
232
185
85
291
231
120
278
101
226
301
272
5
117
289
105
103
147
20
112
7
98
8
195
309
138
164
135
78
42
54
187
28
14
99
295
129
49
89
265
63
48
69
186
176
47
217
230
34
275
3
154
17
62
38
261
227
11
284
39

> <PUBCHEM_MMFF94_PARTIAL_CHARGES>
32
1 -0.41
14 0.57
15 0.57
16 0.36
17 0.29
19 0.18
2 -0.57
21 -0.18
22 0.66
26 -0.3
27 -0.15
28 -0.15
29 -0.15
3 -0.57
30 -0.15
31 -0.15
4 -0.65
40 0.37
41 0.37
49 0.18
5 -0.57
56 0.15
57 0.27
58 0.15
59 0.5
6 -0.73
60 0.15
61 0.15
62 0.15
7 -0.73
8 0.03
9 0.36

> <PUBCHEM_EFFECTIVE_ROTOR_COUNT>
12

> <PUBCHEM_PHARMACOPHORE_FEATURES>
13
1 2 acceptor
1 3 acceptor
1 4 acceptor
1 5 acceptor
1 6 donor
1 7 donor
1 8 cation
1 8 donor
3 20 24 25 hydrophobe
3 4 5 22 anion
5 8 21 23 26 27 rings
5 9 10 11 12 13 rings
6 23 27 28 29 30 31 rings

> <PUBCHEM_HEAVY_ATOM_COUNT>
31

> <PUBCHEM_ATOM_DEF_STEREO_COUNT>
2

> <PUBCHEM_ATOM_UDEF_STEREO_COUNT>
0

> <PUBCHEM_BOND_DEF_STEREO_COUNT>
0

> <PUBCHEM_BOND_UDEF_STEREO_COUNT>
0

> <PUBCHEM_ISOTOPIC_ATOM_COUNT>
0

> <PUBCHEM_COMPONENT_COUNT>
1

> <PUBCHEM_CACTVS_TAUTO_COUNT>
4

> <PUBCHEM_CONFORMER_ID>
00AEF11400000002

> <PUBCHEM_MMFF94_ENERGY>
65.7941

> <PUBCHEM_FEATURE_SELFOVERLAP>
66.129

> <PUBCHEM_SHAPE_FINGERPRINT>
10319688 77 18115005434590099350
10622 236 18410845586025456342
11513181 2 18201454583674831310
11552529 35 18127964227143484626
12156800 1 17029884184395642164
12553582 1 18046650918305233532
12633257 1 18117572742353403260
12788726 201 18271821141671475003
13004483 165 17753329769184046776
14068700 675 18269538580790735358
14117953 113 17832151523916234292
14725015 67 17183637489901713899
19026451 147 18125427855175759727
19319366 153 17618218846330479230
20511986 3 18189888738893203816
20600515 1 18124606279729689472
20764821 26 17758971706447956666
20775530 9 18338244858996658811
2132832 1 18339631338885832095
21421861 104 18193302846972476297
22113638 7 18193563267956185021
238918 7 17111853661015192533
3380486 145 18114461141938312292
4066623 53 18196061518079495687
463206 1 17895770486770408442
563151 97 18045796842215173716
56638632 33 18338229359124930856
57527295 17 17981886655973291975
7471813 234 18340757256194349830

> <PUBCHEM_SHAPE_MULTIPOLES>
603.39
9.66
6.08
2.15
5.06
2.16
-0.08
-7.39
1.12
-2.72
-1.4
-1.13
-0.52
-4.72

> <PUBCHEM_SHAPE_SELFOVERLAP>
1263.56

> <PUBCHEM_SHAPE_VOLUME>
345

> <PUBCHEM_COORDINATE_TYPE>
2
5
10

$$$$
