11464906
  -OEChem-03292013303D

 63 66  0     0  0  0  0  0  0999 V2000
    7.9862    2.6954   -0.1289 O   0  0  0  0  0  0  0  0  0  0  0  0
    6.2682    0.4351   -0.3312 N   0  0  0  0  0  0  0  0  0  0  0  0
   -2.4961    4.9986    0.9552 N   0  0  0  0  0  0  0  0  0  0  0  0
   -0.4324   -3.6183    0.0712 N   0  0  0  0  0  0  0  0  0  0  0  0
   -1.8703   -1.7655    0.0071 N   0  0  0  0  0  0  0  0  0  0  0  0
   -2.7338   -4.0080   -0.1729 N   0  0  0  0  0  0  0  0  0  0  0  0
   -6.6654   -1.2504   -0.4438 N   0  0  0  0  0  0  0  0  0  0  0  0
    6.6042    1.2526   -1.5050 C   0  0  0  0  0  0  0  0  0  0  0  0
    6.3156    1.2577    0.8856 C   0  0  0  0  0  0  0  0  0  0  0  0
    4.9534   -0.1833   -0.4886 C   0  0  0  0  0  0  0  0  0  0  0  0
    7.9743    1.8963   -1.3124 C   0  0  0  0  0  0  0  0  0  0  0  0
    7.6921    1.9024    1.0218 C   0  0  0  0  0  0  0  0  0  0  0  0
    4.6448   -1.1195    0.6804 C   0  0  0  0  0  0  0  0  0  0  0  0
    3.2997   -1.7816    0.5190 C   0  0  0  0  0  0  0  0  0  0  0  0
   -3.5582    4.3994    0.0991 C   0  0  0  0  0  0  0  0  0  0  0  0
   -3.4482    2.9130    0.0475 C   0  0  0  0  0  0  0  0  0  0  0  0
    2.1716   -1.1669    1.0406 C   0  0  0  0  0  0  0  0  0  0  0  0
    3.2132   -2.9942   -0.1481 C   0  0  0  0  0  0  0  0  0  0  0  0
   -3.4390    5.1384   -1.2704 C   0  0  0  0  0  0  0  0  0  0  0  0
   -4.9202    4.8340    0.7138 C   0  0  0  0  0  0  0  0  0  0  0  0
   -3.5155    2.1673    1.2244 C   0  0  0  0  0  0  0  0  0  0  0  0
   -3.2776    2.2684   -1.1776 C   0  0  0  0  0  0  0  0  0  0  0  0
    0.8259   -2.9992    0.2227 C   0  0  0  0  0  0  0  0  0  0  0  0
    0.9273   -1.7794    0.8916 C   0  0  0  0  0  0  0  0  0  0  0  0
    1.9689   -3.6066   -0.2972 C   0  0  0  0  0  0  0  0  0  0  0  0
   -3.2419    0.1330   -0.0488 C   0  0  0  0  0  0  0  0  0  0  0  0
   -3.4123    0.7770    1.1762 C   0  0  0  0  0  0  0  0  0  0  0  0
   -3.1745    0.8783   -1.2259 C   0  0  0  0  0  0  0  0  0  0  0  0
   -3.1357   -1.3096   -0.0990 C   0  0  0  0  0  0  0  0  0  0  0  0
   -1.7402   -3.1069   -0.0367 C   0  0  0  0  0  0  0  0  0  0  0  0
   -4.2365   -2.1292   -0.2428 C   0  0  0  0  0  0  0  0  0  0  0  0
   -3.9728   -3.4832   -0.2735 C   0  0  0  0  0  0  0  0  0  0  0  0
   -5.5747   -1.6451   -0.3535 C   0  0  0  0  0  0  0  0  0  0  0  0
    5.8501    2.0370   -1.6510 H   0  0  0  0  0  0  0  0  0  0  0  0
    6.6279    0.6317   -2.4078 H   0  0  0  0  0  0  0  0  0  0  0  0
    5.5457    2.0394    0.8515 H   0  0  0  0  0  0  0  0  0  0  0  0
    6.1695    0.6670    1.7933 H   0  0  0  0  0  0  0  0  0  0  0  0
    4.1678    0.5789   -0.5822 H   0  0  0  0  0  0  0  0  0  0  0  0
    4.9370   -0.7672   -1.4184 H   0  0  0  0  0  0  0  0  0  0  0  0
    8.2000    2.5526   -2.1591 H   0  0  0  0  0  0  0  0  0  0  0  0
    8.7704    1.1441   -1.2545 H   0  0  0  0  0  0  0  0  0  0  0  0
    7.7099    2.5640    1.8939 H   0  0  0  0  0  0  0  0  0  0  0  0
    8.4798    1.1514    1.1595 H   0  0  0  0  0  0  0  0  0  0  0  0
    4.6241   -0.5983    1.6430 H   0  0  0  0  0  0  0  0  0  0  0  0
    5.4241   -1.8880    0.7707 H   0  0  0  0  0  0  0  0  0  0  0  0
    2.2410   -0.2202    1.5690 H   0  0  0  0  0  0  0  0  0  0  0  0
    4.0974   -3.4739   -0.5581 H   0  0  0  0  0  0  0  0  0  0  0  0
   -4.2349    4.8323   -1.9597 H   0  0  0  0  0  0  0  0  0  0  0  0
   -2.4717    4.9476   -1.7507 H   0  0  0  0  0  0  0  0  0  0  0  0
   -3.5289    6.2253   -1.1481 H   0  0  0  0  0  0  0  0  0  0  0  0
   -5.0244    5.9258    0.7315 H   0  0  0  0  0  0  0  0  0  0  0  0
   -5.7550    4.4318    0.1270 H   0  0  0  0  0  0  0  0  0  0  0  0
   -5.0455    4.4813    1.7440 H   0  0  0  0  0  0  0  0  0  0  0  0
   -3.6452    2.6430    2.1924 H   0  0  0  0  0  0  0  0  0  0  0  0
   -3.2195    2.8000   -2.1210 H   0  0  0  0  0  0  0  0  0  0  0  0
   -2.5902    6.0143    0.9599 H   0  0  0  0  0  0  0  0  0  0  0  0
   -2.6273    4.7080    1.9236 H   0  0  0  0  0  0  0  0  0  0  0  0
    0.0723   -1.2925    1.3488 H   0  0  0  0  0  0  0  0  0  0  0  0
    1.9031   -4.5563   -0.8219 H   0  0  0  0  0  0  0  0  0  0  0  0
   -3.4655    0.2101    2.1027 H   0  0  0  0  0  0  0  0  0  0  0  0
   -3.0416    0.3902   -2.1886 H   0  0  0  0  0  0  0  0  0  0  0  0
   -0.3886   -4.6178   -0.1040 H   0  0  0  0  0  0  0  0  0  0  0  0
   -4.7658   -4.2173   -0.3826 H   0  0  0  0  0  0  0  0  0  0  0  0
  1 11  1  0  0  0  0
  1 12  1  0  0  0  0
  2  8  1  0  0  0  0
  2  9  1  0  0  0  0
  2 10  1  0  0  0  0
  3 15  1  0  0  0  0
  3 56  1  0  0  0  0
  3 57  1  0  0  0  0
  4 23  1  0  0  0  0
  4 30  1  0  0  0  0
  4 62  1  0  0  0  0
  5 29  2  0  0  0  0
  5 30  1  0  0  0  0
  6 30  2  0  0  0  0
  6 32  1  0  0  0  0
  7 33  3  0  0  0  0
  8 11  1  0  0  0  0
  8 34  1  0  0  0  0
  8 35  1  0  0  0  0
  9 12  1  0  0  0  0
  9 36  1  0  0  0  0
  9 37  1  0  0  0  0
 10 13  1  0  0  0  0
 10 38  1  0  0  0  0
 10 39  1  0  0  0  0
 11 40  1  0  0  0  0
 11 41  1  0  0  0  0
 12 42  1  0  0  0  0
 12 43  1  0  0  0  0
 13 14  1  0  0  0  0
 13 44  1  0  0  0  0
 13 45  1  0  0  0  0
 14 17  2  0  0  0  0
 14 18  1  0  0  0  0
 15 16  1  0  0  0  0
 15 19  1  0  0  0  0
 15 20  1  0  0  0  0
 16 21  2  0  0  0  0
 16 22  1  0  0  0  0
 17 24  1  0  0  0  0
 17 46  1  0  0  0  0
 18 25  2  0  0  0  0
 18 47  1  0  0  0  0
 19 48  1  0  0  0  0
 19 49  1  0  0  0  0
 19 50  1  0  0  0  0
 20 51  1  0  0  0  0
 20 52  1  0  0  0  0
 20 53  1  0  0  0  0
 21 27  1  0  0  0  0
 21 54  1  0  0  0  0
 22 28  2  0  0  0  0
 22 55  1  0  0  0  0
 23 24  2  0  0  0  0
 23 25  1  0  0  0  0
 24 58  1  0  0  0  0
 25 59  1  0  0  0  0
 26 27  2  0  0  0  0
 26 28  1  0  0  0  0
 26 29  1  0  0  0  0
 27 60  1  0  0  0  0
 28 61  1  0  0  0  0
 29 31  1  0  0  0  0
 31 32  2  0  0  0  0
 31 33  1  0  0  0  0
 32 63  1  0  0  0  0
M  END
> <PUBCHEM_COMPOUND_CID>
11464906

> <PUBCHEM_CONFORMER_RMSD>
1

> <PUBCHEM_CONFORMER_DIVERSEORDER>
1
6
74
21
33
62
77
108
84
87
19
38
23
106
59
11
42
56
85
82
39
102
97
78
100
79
47
101
67
3
57
37
75
43
95
92
16
14
41
54
31
72
30
17
18
50
60
45
105
64
55
91
109
80
27
104
83
5
58
70
24
53
22
10
29
9
88
65
89
98
46
103
111
107
32
12
35
25
94
86
61
69
40
48
20
4
7
81
52
96
76
110
36
99
13
71
26
68
15
73
51
8
34
63
2
28
93
49
90
66
44

> <PUBCHEM_MMFF94_PARTIAL_CHARGES>
42
1 -0.56
10 0.27
11 0.28
12 0.28
13 0.14
14 -0.14
15 0.41
16 -0.14
17 -0.15
18 -0.15
2 -0.81
21 -0.15
22 -0.15
23 0.1
24 -0.15
25 -0.15
27 -0.15
28 -0.15
29 0.31
3 -0.99
30 0.72
31 0.07
32 0.16
33 0.48
4 -0.6
46 0.15
47 0.15
5 -0.62
54 0.15
55 0.15
56 0.36
57 0.36
58 0.15
59 0.15
6 -0.62
60 0.15
61 0.15
62 0.4
63 0.15
7 -0.56
8 0.27
9 0.27

> <PUBCHEM_EFFECTIVE_ROTOR_COUNT>
8.2

> <PUBCHEM_PHARMACOPHORE_FEATURES>
13
1 1 acceptor
1 2 cation
1 3 cation
1 3 donor
1 4 donor
1 5 acceptor
1 7 acceptor
3 15 19 20 hydrophobe
4 4 5 6 30 cation
6 1 2 8 9 11 12 rings
6 14 17 18 23 24 25 rings
6 16 21 22 26 27 28 rings
6 5 6 29 30 31 32 rings

> <PUBCHEM_HEAVY_ATOM_COUNT>
33

> <PUBCHEM_ATOM_DEF_STEREO_COUNT>
0

> <PUBCHEM_ATOM_UDEF_STEREO_COUNT>
0

> <PUBCHEM_BOND_DEF_STEREO_COUNT>
0

> <PUBCHEM_BOND_UDEF_STEREO_COUNT>
0

> <PUBCHEM_ISOTOPIC_ATOM_COUNT>
0

> <PUBCHEM_COMPONENT_COUNT>
1

> <PUBCHEM_CACTVS_TAUTO_COUNT>
3

> <PUBCHEM_CONFORMER_ID>
00AEF0CA00000001

> <PUBCHEM_MMFF94_ENERGY>
97.5294

> <PUBCHEM_FEATURE_SELFOVERLAP>
65.971

> <PUBCHEM_SHAPE_FINGERPRINT>
100830 2 18260558822852149564
10670039 82 18339642356078222386
10951579 204 18337973259395110932
10985338 8 18269826546286190514
11408170 253 18120669169805553500
11477941 20 18055905739335718982
11479125 193 18194129507839368337
11761917 142 18411974798317448584
11828042 53 18411428302816884916
12107183 9 17830158113746887530
12788726 201 18263067865558510771
13165053 182 18116417156640947109
14251764 75 18122909728934859761
14394314 77 18411705400646082721
14790565 3 17835523721852435233
14932702 115 17987790796732111440
15274700 147 17829635068830465772
15289351 153 18410844462067481074
15400415 2 18122905330925973416
155225 5 18410856572989129552
15604295 49 17981887760292116272
15684393 108 13326280567816204184
15968369 153 17980762954878305500
16728433 281 18337687364881630652
16990350 14 18337389341074005866
19309040 13 17986950756520353404
19611394 137 17537162823673174723
20691028 202 18196933266853859072
21796203 349 17612902665299897715
21859007 373 18128245891704865872
22033318 11 17894905189059321296
22956985 138 16599860042004275427
23191077 185 18409158901519910146
23516275 100 17765420338151323160
283562 15 18264761079348360787
3418910 222 17974584781682725390
3918712 181 18264480853710897324
4144715 1 18335424569640704050
4197921 191 18260543455306073018
437795 171 18044934567933638100
4487111 67 18410575050741807784
4756261 7 18126877970338393777
48014 12 18187642535554352380
550186 72 18410292544593014317
57527585 21 18198880588204498023
6034566 193 18195812873495555193
6036956 94 18337103446438420949
6058803 2 18263624200408377482
6201320 215 18340479063342293088
6371009 1 18188772880867910380
6475588 51 18194120953061326348
6608658 132 18199456821953812327
6673363 416 17977113671722897654

> <PUBCHEM_SHAPE_MULTIPOLES>
643.37
19.78
7.62
1.17
41.87
5.74
-0.08
17.23
-2.51
-10.1
-0.16
0.56
0.88
-1.43

> <PUBCHEM_SHAPE_SELFOVERLAP>
1380.635

> <PUBCHEM_SHAPE_VOLUME>
352

> <PUBCHEM_COORDINATE_TYPE>
2
5
10

$$$$
