114751
  -OEChem-03292013323D

 28 29  0     1  0  0  0  0  0999 V2000
   -2.9372    2.1052   -0.3956 S   0  0  0  0  0  0  0  0  0  0  0  0
    0.6058   -1.1071    0.8504 O   0  0  0  0  0  0  0  0  0  0  0  0
    4.4813   -1.1852   -0.1614 O   0  0  0  0  0  0  0  0  0  0  0  0
   -3.1208   -2.2320    0.5117 O   0  0  0  0  0  0  0  0  0  0  0  0
   -2.5043   -1.1858   -1.4174 O   0  0  0  0  0  0  0  0  0  0  0  0
   -0.9121    0.4623    0.0651 N   0  0  0  0  0  0  0  0  0  0  0  0
    2.4133   -0.4075   -0.9362 N   0  0  0  0  0  0  0  0  0  0  0  0
    1.4575    0.5995   -0.5711 C   0  0  2  0  0  0  0  0  0  0  0  0
   -2.0696   -0.1381    0.7210 C   0  0  1  0  0  0  0  0  0  0  0  0
    2.2520    1.5526    0.3015 C   0  0  0  0  0  0  0  0  0  0  0  0
    0.3548   -0.1018    0.1828 C   0  0  0  0  0  0  0  0  0  0  0  0
    3.3532    0.6823    0.9063 C   0  0  0  0  0  0  0  0  0  0  0  0
   -3.1153    0.9356    0.9751 C   0  0  0  0  0  0  0  0  0  0  0  0
   -1.2192    1.6513   -0.7221 C   0  0  0  0  0  0  0  0  0  0  0  0
    3.5337   -0.4163   -0.1125 C   0  0  0  0  0  0  0  0  0  0  0  0
   -2.5729   -1.2151   -0.1977 C   0  0  0  0  0  0  0  0  0  0  0  0
    1.1078    1.0673   -1.4929 H   0  0  0  0  0  0  0  0  0  0  0  0
   -1.7461   -0.6077    1.6576 H   0  0  0  0  0  0  0  0  0  0  0  0
    1.6547    2.0531    1.0698 H   0  0  0  0  0  0  0  0  0  0  0  0
    2.7123    2.3279   -0.3240 H   0  0  0  0  0  0  0  0  0  0  0  0
    3.0372    0.2369    1.8545 H   0  0  0  0  0  0  0  0  0  0  0  0
    4.2809    1.2423    1.0467 H   0  0  0  0  0  0  0  0  0  0  0  0
   -4.1351    0.5437    1.0255 H   0  0  0  0  0  0  0  0  0  0  0  0
   -2.8972    1.4723    1.9039 H   0  0  0  0  0  0  0  0  0  0  0  0
   -0.5483    2.4669   -0.4385 H   0  0  0  0  0  0  0  0  0  0  0  0
   -1.0906    1.4238   -1.7842 H   0  0  0  0  0  0  0  0  0  0  0  0
    2.2726   -1.0733   -1.6897 H   0  0  0  0  0  0  0  0  0  0  0  0
   -3.4572   -2.9456   -0.0711 H   0  0  0  0  0  0  0  0  0  0  0  0
  1 13  1  0  0  0  0
  1 14  1  0  0  0  0
  2 11  2  0  0  0  0
  3 15  2  0  0  0  0
  4 16  1  0  0  0  0
  4 28  1  0  0  0  0
  5 16  2  0  0  0  0
  6  9  1  0  0  0  0
  6 11  1  0  0  0  0
  6 14  1  0  0  0  0
  7  8  1  0  0  0  0
  7 15  1  0  0  0  0
  7 27  1  0  0  0  0
  8 10  1  0  0  0  0
  8 11  1  0  0  0  0
  8 17  1  0  0  0  0
  9 13  1  0  0  0  0
  9 16  1  0  0  0  0
  9 18  1  0  0  0  0
 10 12  1  0  0  0  0
 10 19  1  0  0  0  0
 10 20  1  0  0  0  0
 12 15  1  0  0  0  0
 12 21  1  0  0  0  0
 12 22  1  0  0  0  0
 13 23  1  0  0  0  0
 13 24  1  0  0  0  0
 14 25  1  0  0  0  0
 14 26  1  0  0  0  0
M  END
> <PUBCHEM_COMPOUND_CID>
114751

> <PUBCHEM_CONFORMER_RMSD>
0.6

> <PUBCHEM_CONFORMER_DIVERSEORDER>
1
68
15
66
23
50
77
17
37
76
51
33
41
71
25
70
72
43
9
14
74
78
75
20
30
38
64
80
22
54
45
19
44
34
28
46
40
79
62
5
10
12
47
42
58
21
52
35
59
26
24
63
61
60
55
13
36
67
56
73
31
48
65
8
16
7
6
57
4
11
69
32
49
18
29
27
2
39
3
53

> <PUBCHEM_MMFF94_PARTIAL_CHARGES>
17
1 -0.46
11 0.57
12 0.06
13 0.23
14 0.53
15 0.57
16 0.66
2 -0.57
27 0.37
28 0.5
3 -0.57
4 -0.65
5 -0.57
6 -0.66
7 -0.73
8 0.36
9 0.36

> <PUBCHEM_EFFECTIVE_ROTOR_COUNT>
4.8

> <PUBCHEM_PHARMACOPHORE_FEATURES>
8
1 2 acceptor
1 3 acceptor
1 4 acceptor
1 5 acceptor
1 7 donor
3 4 5 16 anion
5 1 6 9 13 14 rings
5 7 8 10 12 15 rings

> <PUBCHEM_HEAVY_ATOM_COUNT>
16

> <PUBCHEM_ATOM_DEF_STEREO_COUNT>
0

> <PUBCHEM_ATOM_UDEF_STEREO_COUNT>
2

> <PUBCHEM_BOND_DEF_STEREO_COUNT>
0

> <PUBCHEM_BOND_UDEF_STEREO_COUNT>
0

> <PUBCHEM_ISOTOPIC_ATOM_COUNT>
0

> <PUBCHEM_COMPONENT_COUNT>
1

> <PUBCHEM_CACTVS_TAUTO_COUNT>
3

> <PUBCHEM_CONFORMER_ID>
0001C03F00000001

> <PUBCHEM_MMFF94_ENERGY>
36.0338

> <PUBCHEM_FEATURE_SELFOVERLAP>
40.653

> <PUBCHEM_SHAPE_FINGERPRINT>
10062212 137 17968933076993635914
10608611 8 18341609330455824664
10922523 26 18271813401712912534
11132069 177 18408600366101324248
12346177 29 18411692167160416069
124424 183 17988076691077174864
12500047 106 18264766571392402149
12932764 1 18335421240301590128
13024252 1 16805326583176379169
13296908 3 18060138747601746120
13693222 15 18131070493003387682
14289901 80 17774434009725209872
14965852 173 18411420600646941772
15219456 202 18273492386297327328
15653759 3 18410293592928784704
15775835 57 18262239919488958528
16945 1 18040433304155610904
18175812 5 18272933812688740436
18186145 218 18202289087018966424
19422 9 18337963379735523884
200 152 17560790048547239709
20279233 1 17917994936424176324
20281475 54 18259705592943251934
20525323 117 18408598180252919365
20645477 56 18339364059103166497
20645477 70 17274824593497709734
21501502 16 18340774844058799588
21524375 3 17827918425998990893
23402539 116 18265883838509834390
23557571 272 18272091603856348420
23559900 14 18340484453531387450
5104073 3 18341891896701836754
57812782 119 18411693318390895360
58051976 100 18341898476080303455
6333449 129 18411698755930586733
633830 44 17167871833304675280
69090 78 18342454803663665549
74978 22 18411697656044484040
7832392 63 18337106761488586928
8030462 33 17458336433926352064
8809292 202 18410016511455418690

> <PUBCHEM_SHAPE_MULTIPOLES>
299.68
7.08
1.97
1.02
4.45
0.03
0.05
0.91
-0.3
-1.74
0.11
-0.27
0.02
0.29

> <PUBCHEM_SHAPE_SELFOVERLAP>
614.893

> <PUBCHEM_SHAPE_VOLUME>
174.6

> <PUBCHEM_COORDINATE_TYPE>
2
5
10

$$$$
