114771
  -OEChem-03292013323D

 36 37  0     0  0  0  0  0  0999 V2000
   -5.7293    0.6327   -2.6574 Cl  0  0  0  0  0  0  0  0  0  0  0  0
   -6.9141    2.1582   -0.0618 Cl  0  0  0  0  0  0  0  0  0  0  0  0
    5.9051   -1.6597   -1.2647 Cl  0  0  0  0  0  0  0  0  0  0  0  0
    0.6566    0.9043    0.0534 O   0  0  0  0  0  0  0  0  0  0  0  0
   -1.1313   -1.1737    0.3857 N   0  0  0  0  0  0  0  0  0  0  0  0
    1.1789   -1.3548    0.3526 N   0  0  0  0  0  0  0  0  0  0  0  0
    3.6606   -0.6596   -0.4771 N   0  0  0  0  0  0  0  0  0  0  0  0
    4.7377    1.7986    0.3377 N   0  0  0  0  0  0  0  0  0  0  0  0
   -0.0621   -3.3014    0.6356 N   0  0  0  0  0  0  0  0  0  0  0  0
    2.5670    2.5072    0.9933 N   0  0  0  0  0  0  0  0  0  0  0  0
    6.8900    1.0594   -0.3288 N   0  0  0  0  0  0  0  0  0  0  0  0
   -3.5571   -0.8199    0.3430 C   0  0  0  0  0  0  0  0  0  0  0  0
   -2.4368   -1.8096    0.5001 C   0  0  0  0  0  0  0  0  0  0  0  0
   -4.0764   -0.5661   -0.9201 C   0  0  0  0  0  0  0  0  0  0  0  0
   -4.0601   -0.1705    1.4633 C   0  0  0  0  0  0  0  0  0  0  0  0
    2.9235    0.3226    0.0470 C   0  0  0  0  0  0  0  0  0  0  0  0
   -0.0903   -1.9380    0.4587 C   0  0  0  0  0  0  0  0  0  0  0  0
   -5.1160    0.3523   -1.0653 C   0  0  0  0  0  0  0  0  0  0  0  0
   -5.0996    0.7480    1.3180 C   0  0  0  0  0  0  0  0  0  0  0  0
    1.4786   -0.0013    0.1606 C   0  0  0  0  0  0  0  0  0  0  0  0
   -5.6276    1.0093    0.0537 C   0  0  0  0  0  0  0  0  0  0  0  0
    3.4231    1.5234    0.4495 C   0  0  0  0  0  0  0  0  0  0  0  0
    5.5043    0.8229   -0.1884 C   0  0  0  0  0  0  0  0  0  0  0  0
    4.9754   -0.3844   -0.5886 C   0  0  0  0  0  0  0  0  0  0  0  0
   -2.5371   -2.3043    1.4756 H   0  0  0  0  0  0  0  0  0  0  0  0
   -2.5543   -2.5927   -0.2612 H   0  0  0  0  0  0  0  0  0  0  0  0
   -3.6715   -1.0801   -1.7887 H   0  0  0  0  0  0  0  0  0  0  0  0
   -3.6546   -0.3651    2.4523 H   0  0  0  0  0  0  0  0  0  0  0  0
   -5.4858    1.2516    2.2008 H   0  0  0  0  0  0  0  0  0  0  0  0
    1.9657   -1.9963    0.4159 H   0  0  0  0  0  0  0  0  0  0  0  0
   -0.9072   -3.8528    0.7323 H   0  0  0  0  0  0  0  0  0  0  0  0
    0.8175   -3.8047    0.6791 H   0  0  0  0  0  0  0  0  0  0  0  0
    3.0013    3.3760    1.2807 H   0  0  0  0  0  0  0  0  0  0  0  0
    1.6074    2.5498    0.6745 H   0  0  0  0  0  0  0  0  0  0  0  0
    7.5176    0.2649   -0.3184 H   0  0  0  0  0  0  0  0  0  0  0  0
    7.2419    1.9556   -0.0160 H   0  0  0  0  0  0  0  0  0  0  0  0
  1 18  1  0  0  0  0
  2 21  1  0  0  0  0
  3 24  1  0  0  0  0
  4 20  2  0  0  0  0
  5 13  1  0  0  0  0
  5 17  2  0  0  0  0
  6 17  1  0  0  0  0
  6 20  1  0  0  0  0
  6 30  1  0  0  0  0
  7 16  1  0  0  0  0
  7 24  2  0  0  0  0
  8 22  1  0  0  0  0
  8 23  2  0  0  0  0
  9 17  1  0  0  0  0
  9 31  1  0  0  0  0
  9 32  1  0  0  0  0
 10 22  1  0  0  0  0
 10 33  1  0  0  0  0
 10 34  1  0  0  0  0
 11 23  1  0  0  0  0
 11 35  1  0  0  0  0
 11 36  1  0  0  0  0
 12 13  1  0  0  0  0
 12 14  2  0  0  0  0
 12 15  1  0  0  0  0
 13 25  1  0  0  0  0
 13 26  1  0  0  0  0
 14 18  1  0  0  0  0
 14 27  1  0  0  0  0
 15 19  2  0  0  0  0
 15 28  1  0  0  0  0
 16 20  1  0  0  0  0
 16 22  2  0  0  0  0
 18 21  2  0  0  0  0
 19 21  1  0  0  0  0
 19 29  1  0  0  0  0
 23 24  1  0  0  0  0
M  END
> <PUBCHEM_COMPOUND_CID>
114771

> <PUBCHEM_CONFORMER_RMSD>
0.8

> <PUBCHEM_CONFORMER_DIVERSEORDER>
2
128
86
50
64
124
110
130
114
14
28
113
17
117
37
68
103
33
132
106
119
135
83
111
116
140
96
82
129
105
125
77
29
107
35
27
123
58
121
84
66
81
78
127
90
61
8
134
108
74
65
59
91
13
70
73
94
53
45
137
76
101
109
92
80
93
100
118
62
3
142
85
99
7
55
136
67
23
79
46
24
39
75
49
51
22
141
47
112
54
57
97
12
122
19
133
95
104
26
9
71
36
126
60
30
34
48
102
115
4
63
87
98
88
18
72
69
42
138
16
52
40
20
43
31
89
56
32
139
11
131
120
15
5
21
10
1
44
41
38
25
6

> <PUBCHEM_MMFF94_PARTIAL_CHARGES>
34
1 -0.18
10 -0.9
11 -0.9
12 -0.14
13 0.39
14 -0.15
15 -0.15
16 0.4
17 0.56
18 0.18
19 -0.15
2 -0.18
20 0.54
21 0.18
22 0.41
23 0.41
24 0.49
27 0.15
28 0.15
29 0.15
3 -0.18
30 0.37
31 0.4
32 0.4
33 0.4
34 0.4
35 0.4
36 0.4
4 -0.57
5 -0.7
6 -0.49
7 -0.62
8 -0.62
9 -0.85

> <PUBCHEM_EFFECTIVE_ROTOR_COUNT>
5

> <PUBCHEM_PHARMACOPHORE_FEATURES>
10
1 10 cation
1 10 donor
1 11 donor
1 4 acceptor
1 6 donor
1 7 acceptor
1 9 donor
3 8 11 23 cation
6 12 14 15 18 19 21 rings
6 7 8 16 22 23 24 rings

> <PUBCHEM_HEAVY_ATOM_COUNT>
24

> <PUBCHEM_ATOM_DEF_STEREO_COUNT>
0

> <PUBCHEM_ATOM_UDEF_STEREO_COUNT>
0

> <PUBCHEM_BOND_DEF_STEREO_COUNT>
0

> <PUBCHEM_BOND_UDEF_STEREO_COUNT>
0

> <PUBCHEM_ISOTOPIC_ATOM_COUNT>
0

> <PUBCHEM_COMPONENT_COUNT>
1

> <PUBCHEM_CACTVS_TAUTO_COUNT>
54

> <PUBCHEM_CONFORMER_ID>
0001C05300000002

> <PUBCHEM_MMFF94_ENERGY>
77.5818

> <PUBCHEM_FEATURE_SELFOVERLAP>
50.792

> <PUBCHEM_SHAPE_FINGERPRINT>
10763959 59 18113620088293490804
10835480 77 18269835475528070664
11089746 13 17846779632997274000
14117953 113 17988370248514938454
14848160 23 12175625066189733462
14856354 85 15430329056811894035
15003188 100 18338507655667209549
15183329 4 18131635560523509070
17780758 139 12251899296627450877
190975 80 9006764389312847797
19489759 90 14764354829460466907
20281389 69 17894066303570974487
21033648 29 18334852874246891240
21279426 13 18411428297613717942
22289505 5 18272374204842321968
23198884 109 17846495933591312567
23402539 116 17704078399309623603
23559900 14 18200877378703153504
2838139 119 18343863303796949813
3459 83 17988933223377812878
4169191 19 18198909295977192832
4938544 92 12613017372205510503
5104073 3 17894911807018375347
5385378 56 18114463349393123491
59124914 9 18409730638564066123
59755656 215 18336551508248260078
59755656 520 18410857672849352123
6328613 192 18263933296909916908

> <PUBCHEM_SHAPE_MULTIPOLES>
458.78
18.92
2.43
1.4
0.9
0.65
0.76
-9.06
5.74
0.85
-0.6
-2.38
-0.07
1.31

> <PUBCHEM_SHAPE_SELFOVERLAP>
951.955

> <PUBCHEM_SHAPE_VOLUME>
264.1

> <PUBCHEM_COORDINATE_TYPE>
2
5
10

$$$$
