114756
  -OEChem-03292013323D

 31 30  0     1  0  0  0  0  0999 V2000
   -0.5482    2.2485    0.0488 P   0  0  0  0  0  0  0  0  0  0  0  0
   -0.8663    3.4596    1.0632 O   0  0  0  0  0  0  0  0  0  0  0  0
   -1.7778    2.2851   -0.9927 O   0  0  0  0  0  0  0  0  0  0  0  0
    0.8163    2.2442   -0.5540 O   0  0  0  0  0  0  0  0  0  0  0  0
    3.9238   -0.2980   -0.0082 O   0  0  0  0  0  0  0  0  0  0  0  0
    2.4440   -0.6278   -1.6921 O   0  0  0  0  0  0  0  0  0  0  0  0
    2.1648   -1.9498    1.4380 N   0  0  0  0  0  0  0  0  0  0  0  0
   -0.8054   -0.4273    0.1706 C   0  0  0  0  0  0  0  0  0  0  0  0
   -2.0825   -0.8783   -0.5101 C   0  0  0  0  0  0  0  0  0  0  0  0
   -0.9123    0.7936    1.0414 C   0  0  0  0  0  0  0  0  0  0  0  0
   -2.9100   -1.8847    0.2954 C   0  0  0  0  0  0  0  0  0  0  0  0
    0.3291   -1.1411    0.0206 C   0  0  0  0  0  0  0  0  0  0  0  0
    1.6778   -0.8410    0.6193 C   0  0  2  0  0  0  0  0  0  0  0  0
   -4.1430   -2.3798   -0.4475 C   0  0  0  0  0  0  0  0  0  0  0  0
    2.6895   -0.6032   -0.4926 C   0  0  0  0  0  0  0  0  0  0  0  0
   -2.7086   -0.0122   -0.7497 H   0  0  0  0  0  0  0  0  0  0  0  0
   -1.8302   -1.3264   -1.4810 H   0  0  0  0  0  0  0  0  0  0  0  0
   -0.2350    0.7503    1.8992 H   0  0  0  0  0  0  0  0  0  0  0  0
   -1.9209    0.8734    1.4627 H   0  0  0  0  0  0  0  0  0  0  0  0
   -3.2251   -1.4269    1.2409 H   0  0  0  0  0  0  0  0  0  0  0  0
   -2.2881   -2.7499    0.5558 H   0  0  0  0  0  0  0  0  0  0  0  0
    0.2845   -2.0315   -0.6074 H   0  0  0  0  0  0  0  0  0  0  0  0
    1.6632    0.0693    1.2245 H   0  0  0  0  0  0  0  0  0  0  0  0
   -4.6988   -3.0917    0.1706 H   0  0  0  0  0  0  0  0  0  0  0  0
   -4.8099   -1.5476   -0.6935 H   0  0  0  0  0  0  0  0  0  0  0  0
   -3.8621   -2.8826   -1.3783 H   0  0  0  0  0  0  0  0  0  0  0  0
    2.1889   -2.8096    0.8910 H   0  0  0  0  0  0  0  0  0  0  0  0
    1.5231   -2.1144    2.2124 H   0  0  0  0  0  0  0  0  0  0  0  0
   -0.7177    4.3825    0.7660 H   0  0  0  0  0  0  0  0  0  0  0  0
   -1.8012    2.9854   -1.6789 H   0  0  0  0  0  0  0  0  0  0  0  0
    4.5654   -0.1224   -0.7292 H   0  0  0  0  0  0  0  0  0  0  0  0
  1  2  1  0  0  0  0
  1  3  1  0  0  0  0
  1  4  2  0  0  0  0
  1 10  1  0  0  0  0
  2 29  1  0  0  0  0
  3 30  1  0  0  0  0
  5 15  1  0  0  0  0
  5 31  1  0  0  0  0
  6 15  2  0  0  0  0
  7 13  1  0  0  0  0
  7 27  1  0  0  0  0
  7 28  1  0  0  0  0
  8  9  1  0  0  0  0
  8 10  1  0  0  0  0
  8 12  2  3  0  0  0
  9 11  1  0  0  0  0
  9 16  1  0  0  0  0
  9 17  1  0  0  0  0
 10 18  1  0  0  0  0
 10 19  1  0  0  0  0
 11 14  1  0  0  0  0
 11 20  1  0  0  0  0
 11 21  1  0  0  0  0
 12 13  1  0  0  0  0
 12 22  1  0  0  0  0
 13 15  1  0  0  0  0
 13 23  1  0  0  0  0
 14 24  1  0  0  0  0
 14 25  1  0  0  0  0
 14 26  1  0  0  0  0
M  END
> <PUBCHEM_COMPOUND_CID>
114756

> <PUBCHEM_CONFORMER_RMSD>
0.6

> <PUBCHEM_CONFORMER_DIVERSEORDER>
1
3
24
59
78
25
57
58
72
67
40
56
63
34
61
22
38
16
83
52
73
80
62
68
49
81
42
74
69
37
71
82
35
77
70
79
46
43
60
76
66
17
54
51
64
32
65
36
39
19
28
6
30
75
27
48
44
8
41
20
47
53
21
18
12
50
13
26
23
29
10
31
45
33
14
2
55
9
15
4
11
7
5

> <PUBCHEM_MMFF94_PARTIAL_CHARGES>
19
1 1.24
10 0.14
12 -0.29
13 0.47
15 0.66
2 -0.77
22 0.15
27 0.36
28 0.36
29 0.5
3 -0.77
30 0.5
31 0.5
4 -0.7
5 -0.65
6 -0.57
7 -0.99
8 -0.28
9 0.14

> <PUBCHEM_EFFECTIVE_ROTOR_COUNT>
6

> <PUBCHEM_PHARMACOPHORE_FEATURES>
10
1 14 hydrophobe
1 2 acceptor
1 3 acceptor
1 4 acceptor
1 5 acceptor
1 6 acceptor
1 7 cation
1 7 donor
3 5 6 15 anion
4 1 2 3 4 anion

> <PUBCHEM_HEAVY_ATOM_COUNT>
15

> <PUBCHEM_ATOM_DEF_STEREO_COUNT>
0

> <PUBCHEM_ATOM_UDEF_STEREO_COUNT>
0

> <PUBCHEM_BOND_DEF_STEREO_COUNT>
0

> <PUBCHEM_BOND_UDEF_STEREO_COUNT>
1

> <PUBCHEM_ISOTOPIC_ATOM_COUNT>
0

> <PUBCHEM_COMPONENT_COUNT>
1

> <PUBCHEM_CACTVS_TAUTO_COUNT>
1

> <PUBCHEM_CONFORMER_ID>
0001C04400000001

> <PUBCHEM_MMFF94_ENERGY>
-15.9246

> <PUBCHEM_FEATURE_SELFOVERLAP>
50.842

> <PUBCHEM_SHAPE_FINGERPRINT>
1 1 17475793633638800741
10989021 7 18340492290828655973
13538477 17 18190456048075120978
15490181 8 17621030959135293311
15775835 57 17902522484671575432
16945 1 18126844893771749345
18410436 195 18341330110499948379
20097449 115 18338794632433670611
20339313 130 18198347449550226187
20645477 70 17981038936703446103
20671657 1 17908985757696219059
20671657 53 18339080514110513683
20711985 327 18271811297337556599
20711985 344 18269563749377918643
21041028 32 18269287914267910577
21524375 3 17541391136959250305
22112679 90 18056228910065461209
22802520 49 17842853118008046134
228727 97 18187657911326073630
23402539 116 18341610434483998382
23419403 2 18049408690598608013
23557571 272 18342458114946183862
23598291 2 17984419913420509527
23598294 1 18338232665822304963
2748010 2 18198881743202137457
3071541 250 18196661902392952479
6442390 28 17481450187272661009
7364860 26 17838898483978375651
81228 2 18339928095688237987
81539 233 17614272695087974077

> <PUBCHEM_SHAPE_MULTIPOLES>
278.21
5.33
3.39
1.15
1.68
3.59
0.03
-5.18
1.03
1.14
-0.5
-0.44
-0.02
-0.32

> <PUBCHEM_SHAPE_SELFOVERLAP>
519.2

> <PUBCHEM_SHAPE_VOLUME>
174.6

> <PUBCHEM_COORDINATE_TYPE>
2
5
10

$$$$
