11476774
  -OEChem-03292013303D

 63 67  0     1  0  0  0  0  0999 V2000
    4.2499    0.1580    0.8819 O   0  0  0  0  0  0  0  0  0  0  0  0
   -6.6824    0.0805   -1.6500 O   0  0  0  0  0  0  0  0  0  0  0  0
    2.2952    1.3506    0.0257 O   0  0  0  0  0  0  0  0  0  0  0  0
   -4.2915   -2.1352    1.1219 O   0  0  0  0  0  0  0  0  0  0  0  0
   -2.4358   -2.1851   -0.6564 O   0  0  0  0  0  0  0  0  0  0  0  0
    0.0079    2.4461   -0.3173 O   0  0  0  0  0  0  0  0  0  0  0  0
    7.8274    0.4863   -0.1609 N   0  0  0  0  0  0  0  0  0  0  0  0
    6.3787    0.3555   -0.2959 C   0  0  1  0  0  0  0  0  0  0  0  0
    6.0148   -0.8524   -1.1644 C   0  0  0  0  0  0  0  0  0  0  0  0
    5.6655    0.3074    1.0686 C   0  0  2  0  0  0  0  0  0  0  0  0
    3.8576   -0.9945    0.1269 C   0  0  2  0  0  0  0  0  0  0  0  0
    4.4983   -0.9851   -1.2649 C   0  0  0  0  0  0  0  0  0  0  0  0
    2.3462   -1.0168    0.0324 C   0  0  0  0  0  0  0  0  0  0  0  0
   -6.9432    0.0475   -0.2426 C   0  0  2  0  0  0  0  0  0  0  0  0
    6.1892   -0.7406    2.0536 C   0  0  0  0  0  0  0  0  0  0  0  0
   -6.3175    1.2748    0.4276 C   0  0  0  0  0  0  0  0  0  0  0  0
   -4.8168    1.2595    0.2798 C   0  0  0  0  0  0  0  0  0  0  0  0
   -4.0948    0.0522    0.2479 C   0  0  0  0  0  0  0  0  0  0  0  0
   -6.3493   -1.2389    0.3270 C   0  0  0  0  0  0  0  0  0  0  0  0
    1.6135    0.1694   -0.0198 C   0  0  0  0  0  0  0  0  0  0  0  0
   -2.7006    0.0710    0.0226 C   0  0  0  0  0  0  0  0  0  0  0  0
    0.2175    0.1225   -0.1026 C   0  0  0  0  0  0  0  0  0  0  0  0
   -0.4385   -1.1059   -0.1362 C   0  0  0  0  0  0  0  0  0  0  0  0
   -4.8539   -1.1873    0.5780 C   0  0  0  0  0  0  0  0  0  0  0  0
    1.6900   -2.2463   -0.0028 C   0  0  0  0  0  0  0  0  0  0  0  0
   -2.0334    1.3042   -0.0363 C   0  0  0  0  0  0  0  0  0  0  0  0
    8.1630    1.6427    0.6703 C   0  0  0  0  0  0  0  0  0  0  0  0
    8.4567    0.6044   -1.4764 C   0  0  0  0  0  0  0  0  0  0  0  0
   -1.9070   -1.1550   -0.2584 C   0  0  0  0  0  0  0  0  0  0  0  0
   -8.4641    0.0538   -0.0640 C   0  0  0  0  0  0  0  0  0  0  0  0
   -0.5609    1.3714   -0.1710 C   0  0  0  0  0  0  0  0  0  0  0  0
    0.2985   -2.2946   -0.0908 C   0  0  0  0  0  0  0  0  0  0  0  0
   -4.1322    2.4774    0.1925 C   0  0  0  0  0  0  0  0  0  0  0  0
   -2.7481    2.5024    0.0540 C   0  0  0  0  0  0  0  0  0  0  0  0
    5.9813    1.2395   -0.8196 H   0  0  0  0  0  0  0  0  0  0  0  0
    6.4391   -1.7749   -0.7494 H   0  0  0  0  0  0  0  0  0  0  0  0
    6.3903   -0.7555   -2.1884 H   0  0  0  0  0  0  0  0  0  0  0  0
    5.7541    1.2827    1.5602 H   0  0  0  0  0  0  0  0  0  0  0  0
    4.1746   -1.8863    0.6807 H   0  0  0  0  0  0  0  0  0  0  0  0
    4.1156   -0.1407   -1.8532 H   0  0  0  0  0  0  0  0  0  0  0  0
    4.2397   -1.8973   -1.8159 H   0  0  0  0  0  0  0  0  0  0  0  0
    7.2111   -0.5312    2.3798 H   0  0  0  0  0  0  0  0  0  0  0  0
    5.5492   -0.7739    2.9422 H   0  0  0  0  0  0  0  0  0  0  0  0
    6.1810   -1.7472    1.6252 H   0  0  0  0  0  0  0  0  0  0  0  0
   -6.5668    1.3121    1.4952 H   0  0  0  0  0  0  0  0  0  0  0  0
   -6.7138    2.1817   -0.0470 H   0  0  0  0  0  0  0  0  0  0  0  0
   -6.5358   -2.0798   -0.3515 H   0  0  0  0  0  0  0  0  0  0  0  0
   -6.8104   -1.4615    1.2977 H   0  0  0  0  0  0  0  0  0  0  0  0
    2.2507   -3.1767    0.0332 H   0  0  0  0  0  0  0  0  0  0  0  0
    7.8906    1.5111    1.7205 H   0  0  0  0  0  0  0  0  0  0  0  0
    7.7064    2.5674    0.2982 H   0  0  0  0  0  0  0  0  0  0  0  0
    9.2493    1.7956    0.6846 H   0  0  0  0  0  0  0  0  0  0  0  0
    8.4388   -0.3425   -2.0246 H   0  0  0  0  0  0  0  0  0  0  0  0
    9.5224    0.8422   -1.3707 H   0  0  0  0  0  0  0  0  0  0  0  0
    8.0032    1.3900   -2.0917 H   0  0  0  0  0  0  0  0  0  0  0  0
   -8.9172   -0.8113   -0.5616 H   0  0  0  0  0  0  0  0  0  0  0  0
   -8.7490    0.0356    0.9930 H   0  0  0  0  0  0  0  0  0  0  0  0
   -8.9053    0.9439   -0.5267 H   0  0  0  0  0  0  0  0  0  0  0  0
   -0.1919   -3.2638   -0.1194 H   0  0  0  0  0  0  0  0  0  0  0  0
   -4.6750    3.4183    0.2414 H   0  0  0  0  0  0  0  0  0  0  0  0
   -2.2477    3.4661    0.0088 H   0  0  0  0  0  0  0  0  0  0  0  0
   -5.7374   -0.0801   -1.8049 H   0  0  0  0  0  0  0  0  0  0  0  0
    3.2255    1.2280   -0.2171 H   0  0  0  0  0  0  0  0  0  0  0  0
  1 10  1  0  0  0  0
  1 11  1  0  0  0  0
  2 14  1  0  0  0  0
  2 62  1  0  0  0  0
  3 20  1  0  0  0  0
  3 63  1  0  0  0  0
  4 24  2  0  0  0  0
  5 29  2  0  0  0  0
  6 31  2  0  0  0  0
  7  8  1  0  0  0  0
  7 27  1  0  0  0  0
  7 28  1  0  0  0  0
  8  9  1  0  0  0  0
  8 10  1  0  0  0  0
  8 35  1  0  0  0  0
  9 12  1  0  0  0  0
  9 36  1  0  0  0  0
  9 37  1  0  0  0  0
 10 15  1  0  0  0  0
 10 38  1  0  0  0  0
 11 12  1  0  0  0  0
 11 13  1  0  0  0  0
 11 39  1  0  0  0  0
 12 40  1  0  0  0  0
 12 41  1  0  0  0  0
 13 20  2  0  0  0  0
 13 25  1  0  0  0  0
 14 16  1  0  0  0  0
 14 19  1  0  0  0  0
 14 30  1  0  0  0  0
 15 42  1  0  0  0  0
 15 43  1  0  0  0  0
 15 44  1  0  0  0  0
 16 17  1  0  0  0  0
 16 45  1  0  0  0  0
 16 46  1  0  0  0  0
 17 18  2  0  0  0  0
 17 33  1  0  0  0  0
 18 21  1  0  0  0  0
 18 24  1  0  0  0  0
 19 24  1  0  0  0  0
 19 47  1  0  0  0  0
 19 48  1  0  0  0  0
 20 22  1  0  0  0  0
 21 26  2  0  0  0  0
 21 29  1  0  0  0  0
 22 23  2  0  0  0  0
 22 31  1  0  0  0  0
 23 29  1  0  0  0  0
 23 32  1  0  0  0  0
 25 32  2  0  0  0  0
 25 49  1  0  0  0  0
 26 31  1  0  0  0  0
 26 34  1  0  0  0  0
 27 50  1  0  0  0  0
 27 51  1  0  0  0  0
 27 52  1  0  0  0  0
 28 53  1  0  0  0  0
 28 54  1  0  0  0  0
 28 55  1  0  0  0  0
 30 56  1  0  0  0  0
 30 57  1  0  0  0  0
 30 58  1  0  0  0  0
 32 59  1  0  0  0  0
 33 34  2  0  0  0  0
 33 60  1  0  0  0  0
 34 61  1  0  0  0  0
M  END
> <PUBCHEM_COMPOUND_CID>
11476774

> <PUBCHEM_CONFORMER_RMSD>
0.8

> <PUBCHEM_CONFORMER_DIVERSEORDER>
2
10
7
8
1
12
15
16
4
5
3
9
14
6
13
11

> <PUBCHEM_MMFF94_PARTIAL_CHARGES>
36
1 -0.56
10 0.28
11 0.42
13 -0.14
14 0.28
16 0.14
17 -0.14
18 0.09
19 0.06
2 -0.68
20 0.08
21 0.09
22 0.09
23 0.09
24 0.42
25 -0.15
26 0.09
27 0.27
28 0.27
29 0.4
3 -0.53
31 0.4
32 -0.15
33 -0.15
34 -0.15
4 -0.57
49 0.15
5 -0.57
59 0.15
6 -0.57
60 0.15
61 0.15
62 0.4
63 0.45
7 -0.81
8 0.27

> <PUBCHEM_EFFECTIVE_ROTOR_COUNT>
3.8

> <PUBCHEM_PHARMACOPHORE_FEATURES>
13
1 1 acceptor
1 2 acceptor
1 2 donor
1 3 donor
1 4 acceptor
1 5 acceptor
1 6 acceptor
1 7 cation
6 1 8 9 10 11 12 rings
6 13 20 22 23 25 32 rings
6 14 16 17 18 19 24 rings
6 17 18 21 26 33 34 rings
6 21 22 23 26 29 31 rings

> <PUBCHEM_HEAVY_ATOM_COUNT>
34

> <PUBCHEM_ATOM_DEF_STEREO_COUNT>
4

> <PUBCHEM_ATOM_UDEF_STEREO_COUNT>
0

> <PUBCHEM_BOND_DEF_STEREO_COUNT>
0

> <PUBCHEM_BOND_UDEF_STEREO_COUNT>
0

> <PUBCHEM_ISOTOPIC_ATOM_COUNT>
0

> <PUBCHEM_COMPONENT_COUNT>
1

> <PUBCHEM_CACTVS_TAUTO_COUNT>
10

> <PUBCHEM_CONFORMER_ID>
00AF1F2600000002

> <PUBCHEM_MMFF94_ENERGY>
116.2759

> <PUBCHEM_FEATURE_SELFOVERLAP>
66.05

> <PUBCHEM_SHAPE_FINGERPRINT>
10 15 18409726270640471666
10050765 1 18122345666310355118
10290309 65 18268989795539365951
10411042 1 17979075213220869943
11007060 377 18410866446659832337
11315181 36 18113903767168484281
11719270 70 18335699421054800194
12107698 1 16225766319751248772
12133447 93 18270975539783765044
12236239 1 17749389252690688642
12516196 113 18273213080110413113
12664476 115 17775000194422371888
12838862 33 18337657676906448805
13811026 1 18337954592301086202
13914758 101 15140674748403090837
13947947 19 18339079401829477031
14251764 18 18259984877344164880
14394314 77 18270405975776153041
1454969 45 18409446990049170660
14856354 85 18261399987369379383
15183329 4 18334297560797913432
15419008 47 17918270948313965064
15461852 350 17703506688155935031
15840311 113 17894635886162320028
15849732 13 18341896302747490358
16087824 20 18337673015427471421
18608769 82 18413671335366831394
18681886 176 18411696616952432057
19377110 9 17676486134195202882
19611394 137 18116445905969734490
19841028 212 16805593734395162426
21033648 29 17702929449400058522
21150785 3 17203891859805229294
21267235 1 18411707582446764263
21365058 27 16415480454344355487
21792961 116 17846788378210149374
22311459 1 18410854364927332077
23559900 14 18409164450701565305
24771293 8 18412829066473793989
335352 9 18409728483086517351
3383291 50 18409732889771254595
34797466 226 17703795821407526364
350125 39 18410855468744775489
4017518 198 17489874846880322607
4073 2 18260275126686458347
4093350 32 16773801351013519678
4258327 124 18114760329623674940
4325135 7 18334016094775056484
437795 51 17704066322558251200
4461854 278 18059585745384576575
5104073 3 18267866073264981611
5265222 85 18270965769143823772
54039377 194 17845643890065165727
550186 72 18337108947828102525
5758199 1 18342459222931708323
59755656 215 18412263913070014767

> <PUBCHEM_SHAPE_MULTIPOLES>
659.51
23.94
2.31
1.09
15.1
0.23
0.08
4.49
-0.83
-1.41
0.08
1.57
-0.17
0.29

> <PUBCHEM_SHAPE_SELFOVERLAP>
1462.357

> <PUBCHEM_SHAPE_VOLUME>
350.6

> <PUBCHEM_COORDINATE_TYPE>
2
5
10

$$$$
