114750
  -OEChem-03292013323D

 52 54  0     1  0  0  0  0  0999 V2000
    0.8753    1.2590   -1.5876 O   0  0  0  0  0  0  0  0  0  0  0  0
    3.9246    2.1050   -1.2549 O   0  0  0  0  0  0  0  0  0  0  0  0
   -1.5245   -0.2006    1.0196 O   0  0  0  0  0  0  0  0  0  0  0  0
   -3.7476    2.6171   -1.0728 O   0  0  0  0  0  0  0  0  0  0  0  0
   -5.3575   -0.8896    1.5531 O   0  0  0  0  0  0  0  0  0  0  0  0
    2.0676    1.3200    0.3951 N   0  0  0  0  0  0  0  0  0  0  0  0
   -0.3368   -0.9141   -0.8529 N   0  0  0  0  0  0  0  0  0  0  0  0
    3.7510    4.3372   -0.7243 N   0  0  0  0  0  0  0  0  0  0  0  0
   -3.7436   -1.3046   -0.0024 N   0  0  0  0  0  0  0  0  0  0  0  0
   -4.4646    0.9145    0.3630 N   0  0  0  0  0  0  0  0  0  0  0  0
    3.1640   -3.5884    0.1169 N   0  0  0  0  0  0  0  0  0  0  0  0
    1.5734   -5.1282    0.2933 N   0  0  0  0  0  0  0  0  0  0  0  0
    2.3201    2.7550    0.3934 C   0  0  1  0  0  0  0  0  0  0  0  0
    2.7809    3.0689    1.8121 C   0  0  0  0  0  0  0  0  0  0  0  0
    2.5850    0.6954    1.6100 C   0  0  0  0  0  0  0  0  0  0  0  0
    3.4395    1.7688    2.2672 C   0  0  0  0  0  0  0  0  0  0  0  0
    1.2947    0.6987   -0.5734 C   0  0  0  0  0  0  0  0  0  0  0  0
    0.9878   -0.7564   -0.3248 C   0  0  2  0  0  0  0  0  0  0  0  0
    3.4012    3.0123   -0.6126 C   0  0  0  0  0  0  0  0  0  0  0  0
    2.0220   -1.6387   -1.0127 C   0  0  0  0  0  0  0  0  0  0  0  0
   -2.7379   -0.8514   -0.9286 C   0  0  2  0  0  0  0  0  0  0  0  0
   -1.4898   -0.6217   -0.1336 C   0  0  0  0  0  0  0  0  0  0  0  0
   -3.1859    0.3823   -1.6765 C   0  0  0  0  0  0  0  0  0  0  0  0
    2.0431   -3.0333   -0.4333 C   0  0  0  0  0  0  0  0  0  0  0  0
   -3.7960    1.4248   -0.7652 C   0  0  0  0  0  0  0  0  0  0  0  0
   -4.5765   -0.4532    0.7034 C   0  0  0  0  0  0  0  0  0  0  0  0
    1.0750   -4.0024   -0.3132 C   0  0  0  0  0  0  0  0  0  0  0  0
   -5.1779    1.8698    1.2029 C   0  0  0  0  0  0  0  0  0  0  0  0
    2.8337   -4.8460    0.5389 C   0  0  0  0  0  0  0  0  0  0  0  0
    1.4181    3.3053    0.1051 H   0  0  0  0  0  0  0  0  0  0  0  0
    3.4596    3.9219    1.8992 H   0  0  0  0  0  0  0  0  0  0  0  0
    1.9071    3.2671    2.4453 H   0  0  0  0  0  0  0  0  0  0  0  0
    1.7336    0.4383    2.2497 H   0  0  0  0  0  0  0  0  0  0  0  0
    3.1511   -0.2105    1.3779 H   0  0  0  0  0  0  0  0  0  0  0  0
    3.4787    1.6680    3.3553 H   0  0  0  0  0  0  0  0  0  0  0  0
    4.4653    1.7185    1.8828 H   0  0  0  0  0  0  0  0  0  0  0  0
    0.9337   -0.9689    0.7466 H   0  0  0  0  0  0  0  0  0  0  0  0
    3.0238   -1.2018   -0.9105 H   0  0  0  0  0  0  0  0  0  0  0  0
    1.8266   -1.7097   -2.0904 H   0  0  0  0  0  0  0  0  0  0  0  0
   -0.4283   -1.1899   -1.8267 H   0  0  0  0  0  0  0  0  0  0  0  0
   -2.5731   -1.6737   -1.6346 H   0  0  0  0  0  0  0  0  0  0  0  0
   -3.9582    0.1168   -2.4088 H   0  0  0  0  0  0  0  0  0  0  0  0
   -2.3484    0.8372   -2.2175 H   0  0  0  0  0  0  0  0  0  0  0  0
   -3.7877   -2.2964    0.2123 H   0  0  0  0  0  0  0  0  0  0  0  0
    4.4774    4.6322   -1.3683 H   0  0  0  0  0  0  0  0  0  0  0  0
    3.2937    5.0681   -0.1888 H   0  0  0  0  0  0  0  0  0  0  0  0
    4.0725   -3.1516    0.1992 H   0  0  0  0  0  0  0  0  0  0  0  0
    0.0440   -3.9509   -0.6325 H   0  0  0  0  0  0  0  0  0  0  0  0
   -6.1758    2.0159    0.7777 H   0  0  0  0  0  0  0  0  0  0  0  0
   -4.6577    2.8318    1.2225 H   0  0  0  0  0  0  0  0  0  0  0  0
   -5.2773    1.4938    2.2251 H   0  0  0  0  0  0  0  0  0  0  0  0
    3.5515   -5.4993    1.0141 H   0  0  0  0  0  0  0  0  0  0  0  0
  1 17  2  0  0  0  0
  2 19  2  0  0  0  0
  3 22  2  0  0  0  0
  4 25  2  0  0  0  0
  5 26  2  0  0  0  0
  6 13  1  0  0  0  0
  6 15  1  0  0  0  0
  6 17  1  0  0  0  0
  7 18  1  0  0  0  0
  7 22  1  0  0  0  0
  7 40  1  0  0  0  0
  8 19  1  0  0  0  0
  8 45  1  0  0  0  0
  8 46  1  0  0  0  0
  9 21  1  0  0  0  0
  9 26  1  0  0  0  0
  9 44  1  0  0  0  0
 10 25  1  0  0  0  0
 10 26  1  0  0  0  0
 10 28  1  0  0  0  0
 11 24  1  0  0  0  0
 11 29  1  0  0  0  0
 11 47  1  0  0  0  0
 12 27  1  0  0  0  0
 12 29  2  0  0  0  0
 13 14  1  0  0  0  0
 13 19  1  0  0  0  0
 13 30  1  0  0  0  0
 14 16  1  0  0  0  0
 14 31  1  0  0  0  0
 14 32  1  0  0  0  0
 15 16  1  0  0  0  0
 15 33  1  0  0  0  0
 15 34  1  0  0  0  0
 16 35  1  0  0  0  0
 16 36  1  0  0  0  0
 17 18  1  0  0  0  0
 18 20  1  0  0  0  0
 18 37  1  0  0  0  0
 20 24  1  0  0  0  0
 20 38  1  0  0  0  0
 20 39  1  0  0  0  0
 21 22  1  0  0  0  0
 21 23  1  0  0  0  0
 21 41  1  0  0  0  0
 23 25  1  0  0  0  0
 23 42  1  0  0  0  0
 23 43  1  0  0  0  0
 24 27  2  0  0  0  0
 27 48  1  0  0  0  0
 28 49  1  0  0  0  0
 28 50  1  0  0  0  0
 28 51  1  0  0  0  0
 29 52  1  0  0  0  0
M  END
> <PUBCHEM_COMPOUND_CID>
114750

> <PUBCHEM_CONFORMER_RMSD>
1

> <PUBCHEM_CONFORMER_DIVERSEORDER>
1
316
237
279
182
280
63
325
185
196
285
195
273
73
263
62
44
93
15
310
166
167
284
104
168
321
211
128
236
243
275
218
201
221
226
61
262
88
324
272
150
309
123
215
204
315
38
57
119
217
252
298
223
245
173
8
229
110
105
90
329
222
255
318
141
219
301
327
216
131
205
289
81
33
139
115
319
265
136
183
248
47
308
155
332
53
306
207
100
28
126
170
162
112
84
214
172
79
12
199
292
99
6
314
208
233
200
160
283
154
307
54
35
102
107
268
322
249
297
213
311
135
293
111
271
151
13
231
37
287
186
114
264
256
253
326
247
124
45
97
103
153
238
320
227
181
291
158
305
4
288
302
331
71
165
40
177
242
299
313
133
89
295
152
323
187
117
149
224
17
159
21
184
156
225
178
68
129
176
5
83
85
267
92
140
157
145
259
286
303
240
197
276
281
56
116
144
174
30
203
41
94
16
3
109
147
143
108
239
137
266
251
118
66
77
202
19
23
188
258
55
312
80
142
24
198
260
164
132
304
72
121
278
210
189
206
212
87
254
50
180
95
192
270
134
228
49
60
113
7
246
34
67
179
234
120
86
74
290
82
232
190
11
31
169
69
138
9
32
163
51
300
277
125
10
296
98
18
235
75
42
269
241
294
46
76
230
194
171
101
175
257
59
14
122
209
52
78
148
96
29
91
39
25
36
317
146
250
127
161
130
58
26
106
70
261
193
330
2
48
65
64
274
20
43
191
244
328
282
27
22
220

> <PUBCHEM_MMFF94_PARTIAL_CHARGES>
34
1 -0.57
10 -0.42
11 0.03
12 -0.57
13 0.36
15 0.3
17 0.57
18 0.36
19 0.57
2 -0.57
20 0.18
21 0.36
22 0.57
23 0.06
24 -0.33
25 0.57
26 0.69
27 0.08
28 0.3
29 0.04
3 -0.57
4 -0.57
40 0.37
44 0.37
45 0.37
46 0.37
47 0.27
48 0.15
5 -0.57
52 0.15
6 -0.66
7 -0.73
8 -0.8
9 -0.73

> <PUBCHEM_EFFECTIVE_ROTOR_COUNT>
9.8

> <PUBCHEM_PHARMACOPHORE_FEATURES>
13
1 1 acceptor
1 11 donor
1 2 acceptor
1 3 acceptor
1 4 acceptor
1 5 acceptor
1 7 donor
1 8 donor
1 9 donor
3 11 12 29 cation
5 11 12 24 27 29 rings
5 6 13 14 15 16 rings
6 9 10 21 23 25 26 rings

> <PUBCHEM_HEAVY_ATOM_COUNT>
29

> <PUBCHEM_ATOM_DEF_STEREO_COUNT>
3

> <PUBCHEM_ATOM_UDEF_STEREO_COUNT>
0

> <PUBCHEM_BOND_DEF_STEREO_COUNT>
0

> <PUBCHEM_BOND_UDEF_STEREO_COUNT>
0

> <PUBCHEM_ISOTOPIC_ATOM_COUNT>
0

> <PUBCHEM_COMPONENT_COUNT>
1

> <PUBCHEM_CACTVS_TAUTO_COUNT>
16

> <PUBCHEM_CONFORMER_ID>
0001C03E00000001

> <PUBCHEM_MMFF94_ENERGY>
61.718

> <PUBCHEM_FEATURE_SELFOVERLAP>
65.974

> <PUBCHEM_SHAPE_FINGERPRINT>
10074138 170 17403997710288502402
11070050 100 18128546044360593643
11456790 92 17762066441671650217
12160290 23 17406813559825497974
12549972 3 18189057495576477659
12788726 201 16968563098192033875
13004483 165 17618491095876193006
13134695 92 18124866859368336414
13533116 47 18411982439069269623
13583140 156 18339921511799071175
13911987 19 17830718109052017815
14466204 15 17476924554700230481
14856354 85 16154823734385446864
151778 21 18410574023922409376
17868525 174 18123755257666182193
17980427 23 17057227857789518009
18393751 57 17977105979041156249
18785283 64 18408603651978191426
20600515 1 17692820280867963174
21033648 29 18126004012211508712
21120745 212 17550124567263522534
23366157 5 18410286986899961263
23559900 14 18261957328343094223
4058900 60 18339938119894194864
5252454 2 18130510846254597229
57124632 79 18411136956595721698
633830 44 17559958907640185269
6442390 28 18193565686033387308
6443956 14 18268423539056718794
6700243 42 16322080528316625076
6703917 75 17976566084256116644
7399639 24 18190471630686176987
7808743 9 17761492895564670380
79837 15 18050841423253861282
9981440 41 18266448996150117531

> <PUBCHEM_SHAPE_MULTIPOLES>
532.59
9.79
6.25
1.62
13.3
6
0.4
-5.06
2.37
-10.42
0.4
-0.21
-1.09
0.2

> <PUBCHEM_SHAPE_SELFOVERLAP>
1131.092

> <PUBCHEM_SHAPE_VOLUME>
295.5

> <PUBCHEM_COORDINATE_TYPE>
2
5
10

$$$$
