114708
  -OEChem-03292013323D

 54 57  0     1  0  0  0  0  0999 V2000
   -4.0165    1.3921   -0.9161 O   0  0  0  0  0  0  0  0  0  0  0  0
   -0.4217    0.1716   -1.9540 O   0  0  0  0  0  0  0  0  0  0  0  0
   -4.0014   -1.6332   -0.5900 O   0  0  0  0  0  0  0  0  0  0  0  0
    3.0929   -1.1192   -1.8497 O   0  0  0  0  0  0  0  0  0  0  0  0
    4.2040   -0.3348    0.7262 O   0  0  0  0  0  0  0  0  0  0  0  0
    2.6368    3.9188   -0.7942 O   0  0  0  0  0  0  0  0  0  0  0  0
   -1.8938    1.2113    0.3754 C   0  0  1  0  0  0  0  0  0  0  0  0
   -3.0771    0.5256   -0.2482 C   0  0  1  0  0  0  0  0  0  0  0  0
   -3.0004    0.6613    1.2459 C   0  0  0  0  0  0  0  0  0  0  0  0
   -0.5163    0.5555    0.4450 C   0  0  1  0  0  0  0  0  0  0  0  0
   -0.3454   -0.5083   -0.6926 C   0  0  1  0  0  0  0  0  0  0  0  0
   -2.9096   -0.7826   -0.9427 C   0  0  1  0  0  0  0  0  0  0  0  0
   -1.5785   -1.5003   -0.6220 C   0  0  1  0  0  0  0  0  0  0  0  0
   -2.8100   -0.5438    2.1027 C   0  0  0  0  0  0  0  0  0  0  0  0
   -3.8826    1.6739    1.9043 C   0  0  0  0  0  0  0  0  0  0  0  0
    1.0147   -1.2750   -0.6311 C   0  0  1  0  0  0  0  0  0  0  0  0
    0.5411    1.6270    0.6273 C   0  0  0  0  0  0  0  0  0  0  0  0
    2.3271   -0.4797   -0.8210 C   0  0  2  0  0  0  0  0  0  0  0  0
   -1.4638   -2.7241   -1.5533 C   0  0  0  0  0  0  0  0  0  0  0  0
    2.2642    1.0149   -1.1199 C   0  0  0  0  0  0  0  0  0  0  0  0
    1.6866    1.8700   -0.0289 C   0  0  0  0  0  0  0  0  0  0  0  0
    1.2397   -2.0070    0.6702 C   0  0  0  0  0  0  0  0  0  0  0  0
    3.1021   -0.7857    0.4468 C   0  0  0  0  0  0  0  0  0  0  0  0
    2.3833   -1.7398    1.3044 C   0  0  0  0  0  0  0  0  0  0  0  0
    2.5171    3.0758    0.3329 C   0  0  0  0  0  0  0  0  0  0  0  0
    2.9073   -2.2643    2.5829 C   0  0  0  0  0  0  0  0  0  0  0  0
   -1.8407    2.2854    0.2234 H   0  0  0  0  0  0  0  0  0  0  0  0
   -0.4300    0.0229    1.3950 H   0  0  0  0  0  0  0  0  0  0  0  0
   -2.9735   -0.6036   -2.0242 H   0  0  0  0  0  0  0  0  0  0  0  0
   -1.6244   -1.9573    0.3659 H   0  0  0  0  0  0  0  0  0  0  0  0
   -1.8590   -1.0648    2.0588 H   0  0  0  0  0  0  0  0  0  0  0  0
   -2.9006   -0.2646    3.1609 H   0  0  0  0  0  0  0  0  0  0  0  0
   -3.6067   -1.2734    1.9230 H   0  0  0  0  0  0  0  0  0  0  0  0
   -3.9970    2.5910    1.3158 H   0  0  0  0  0  0  0  0  0  0  0  0
   -4.8832    1.2600    2.0706 H   0  0  0  0  0  0  0  0  0  0  0  0
   -3.4716    1.9730    2.8751 H   0  0  0  0  0  0  0  0  0  0  0  0
    0.9952   -2.0246   -1.4315 H   0  0  0  0  0  0  0  0  0  0  0  0
    0.2877    2.3263    1.4271 H   0  0  0  0  0  0  0  0  0  0  0  0
   -4.9150    1.0232   -0.8703 H   0  0  0  0  0  0  0  0  0  0  0  0
   -1.3308   -2.4241   -2.5975 H   0  0  0  0  0  0  0  0  0  0  0  0
   -0.6291   -3.3721   -1.2711 H   0  0  0  0  0  0  0  0  0  0  0  0
   -2.3552   -3.3572   -1.5000 H   0  0  0  0  0  0  0  0  0  0  0  0
   -0.2457   -0.4745   -2.6582 H   0  0  0  0  0  0  0  0  0  0  0  0
   -4.1589   -2.2396   -1.3330 H   0  0  0  0  0  0  0  0  0  0  0  0
    1.7553    1.2142   -2.0697 H   0  0  0  0  0  0  0  0  0  0  0  0
    3.2959    1.3437   -1.3158 H   0  0  0  0  0  0  0  0  0  0  0  0
    0.5152   -2.7094    1.0630 H   0  0  0  0  0  0  0  0  0  0  0  0
    3.1305   -2.0740   -1.6682 H   0  0  0  0  0  0  0  0  0  0  0  0
    3.5197    2.7651    0.6452 H   0  0  0  0  0  0  0  0  0  0  0  0
    2.0869    3.6589    1.1540 H   0  0  0  0  0  0  0  0  0  0  0  0
    3.8604   -2.7785    2.4253 H   0  0  0  0  0  0  0  0  0  0  0  0
    2.2115   -2.9762    3.0385 H   0  0  0  0  0  0  0  0  0  0  0  0
    3.0680   -1.4482    3.2942 H   0  0  0  0  0  0  0  0  0  0  0  0
    1.7440    4.2167   -1.0394 H   0  0  0  0  0  0  0  0  0  0  0  0
  1  8  1  0  0  0  0
  1 39  1  0  0  0  0
  2 11  1  0  0  0  0
  2 43  1  0  0  0  0
  3 12  1  0  0  0  0
  3 44  1  0  0  0  0
  4 18  1  0  0  0  0
  4 48  1  0  0  0  0
  5 23  2  0  0  0  0
  6 25  1  0  0  0  0
  6 54  1  0  0  0  0
  7  8  1  0  0  0  0
  7  9  1  0  0  0  0
  7 10  1  0  0  0  0
  7 27  1  0  0  0  0
  8  9  1  0  0  0  0
  8 12  1  0  0  0  0
  9 14  1  0  0  0  0
  9 15  1  0  0  0  0
 10 11  1  0  0  0  0
 10 17  1  0  0  0  0
 10 28  1  0  0  0  0
 11 13  1  0  0  0  0
 11 16  1  0  0  0  0
 12 13  1  0  0  0  0
 12 29  1  0  0  0  0
 13 19  1  0  0  0  0
 13 30  1  0  0  0  0
 14 31  1  0  0  0  0
 14 32  1  0  0  0  0
 14 33  1  0  0  0  0
 15 34  1  0  0  0  0
 15 35  1  0  0  0  0
 15 36  1  0  0  0  0
 16 18  1  0  0  0  0
 16 22  1  0  0  0  0
 16 37  1  0  0  0  0
 17 21  2  0  0  0  0
 17 38  1  0  0  0  0
 18 20  1  0  0  0  0
 18 23  1  0  0  0  0
 19 40  1  0  0  0  0
 19 41  1  0  0  0  0
 19 42  1  0  0  0  0
 20 21  1  0  0  0  0
 20 45  1  0  0  0  0
 20 46  1  0  0  0  0
 21 25  1  0  0  0  0
 22 24  2  0  0  0  0
 22 47  1  0  0  0  0
 23 24  1  0  0  0  0
 24 26  1  0  0  0  0
 25 49  1  0  0  0  0
 25 50  1  0  0  0  0
 26 51  1  0  0  0  0
 26 52  1  0  0  0  0
 26 53  1  0  0  0  0
M  END
> <PUBCHEM_COMPOUND_CID>
114708

> <PUBCHEM_CONFORMER_RMSD>
0.6

> <PUBCHEM_CONFORMER_DIVERSEORDER>
1
3
2

> <PUBCHEM_MMFF94_PARTIAL_CHARGES>
32
1 -0.55
10 0.23
11 0.28
12 0.38
14 0.09
15 0.09
16 0.14
17 -0.29
18 0.34
2 -0.68
20 0.14
21 -0.28
22 -0.29
23 0.49
24 -0.12
25 0.42
26 0.14
27 0.1
3 -0.68
38 0.15
39 0.4
4 -0.68
43 0.4
44 0.4
47 0.15
48 0.4
5 -0.57
54 0.4
6 -0.68
7 -0.19
8 0.05
9 -0.19

> <PUBCHEM_EFFECTIVE_ROTOR_COUNT>
1.8

> <PUBCHEM_PHARMACOPHORE_FEATURES>
15
1 1 acceptor
1 1 donor
1 2 acceptor
1 2 donor
1 3 acceptor
1 3 donor
1 4 acceptor
1 4 donor
1 5 acceptor
1 6 acceptor
1 6 donor
3 9 14 15 hydrophobe
5 16 18 22 23 24 rings
7 10 11 16 17 18 20 21 rings
7 7 8 9 10 11 12 13 rings

> <PUBCHEM_HEAVY_ATOM_COUNT>
26

> <PUBCHEM_ATOM_DEF_STEREO_COUNT>
8

> <PUBCHEM_ATOM_UDEF_STEREO_COUNT>
0

> <PUBCHEM_BOND_DEF_STEREO_COUNT>
0

> <PUBCHEM_BOND_UDEF_STEREO_COUNT>
0

> <PUBCHEM_ISOTOPIC_ATOM_COUNT>
0

> <PUBCHEM_COMPONENT_COUNT>
1

> <PUBCHEM_CACTVS_TAUTO_COUNT>
3

> <PUBCHEM_CONFORMER_ID>
0001C01400000001

> <PUBCHEM_MMFF94_ENERGY>
85.1827

> <PUBCHEM_FEATURE_SELFOVERLAP>
76.308

> <PUBCHEM_SHAPE_FINGERPRINT>
10366900 7 17895495677424756683
10863032 1 18268145551113216244
11578080 2 17897415416000133324
11582403 64 14859701333815672318
12403259 327 17752514008754567385
12553582 1 18266466394909808232
12633257 1 18338520720857503601
12788726 201 17845093059770435035
13134695 92 18042392544014401268
13140716 1 18341337772336762241
13224815 77 18411426128391021739
133893 2 18191002673142699676
13583140 156 18113622278900618553
13965767 371 17481984532384837747
14022347 108 18051716363894566950
14178342 30 17988357045199517427
14223421 5 18267312104357057991
14289901 80 17095823078272454265
14787075 74 17258499371002573479
14955137 171 18267326264990788010
15238133 3 17971200222440684724
15375462 189 18260548875143077570
16945 1 18341901735976071455
17349148 13 17917129638227181983
17980427 23 17772722001417376192
18981168 100 16773524368314332699
19078846 21 18192440675095350992
192875 21 18059560348893840277
20600515 1 17987798493339748792
20691752 17 18113897203767547824
20715895 44 18125707995182239981
20739085 24 17695655972826955241
20905425 154 17696741534374742382
21033648 29 17343780387460306713
21524375 3 18052255395376018628
2255824 54 18335706074153794196
2334 1 18126566949126377989
23419403 2 17390750481086294308
23557571 272 16701726259316114895
23558518 356 17905061596079868548
23559900 14 17918276415754045710
350125 39 18271812362668592669
394222 165 17975674384541231818
469060 322 17395864627383715427
474 4 18190454055479515728
484985 159 14643010239370422914
5895379 119 17775295949553431176
7097593 13 18262801744229858051
81228 2 17330281567347789936
90316 7 17977643347936922770
9981440 41 17405988939464795376

> <PUBCHEM_SHAPE_MULTIPOLES>
499.85
6.87
3.17
1.94
2.39
1.83
-0.69
0.57
-1.48
-2.03
0.14
0
-0.84
-1.9

> <PUBCHEM_SHAPE_SELFOVERLAP>
1083.027

> <PUBCHEM_SHAPE_VOLUME>
272

> <PUBCHEM_COORDINATE_TYPE>
2
5
10

$$$$
