11488689
  -OEChem-03292013303D

 50 55  0     1  0  0  0  0  0999 V2000
   -0.7467    3.5973    0.7065 S   0  0  0  0  0  0  0  0  0  0  0  0
    0.7506    3.5967   -0.7059 S   0  0  0  0  0  0  0  0  0  0  0  0
   -2.2166   -3.4259   -1.6755 S   0  0  0  0  0  0  0  0  0  0  0  0
    2.2108   -3.4282    1.6750 S   0  0  0  0  0  0  0  0  0  0  0  0
    0.6172    1.0244    2.5957 O   0  0  0  0  0  0  0  0  0  0  0  0
   -0.6160    1.0259   -2.5955 O   0  0  0  0  0  0  0  0  0  0  0  0
   -2.7113   -0.4999   -2.5226 O   0  0  0  0  0  0  0  0  0  0  0  0
    2.7112   -0.5034    2.5226 O   0  0  0  0  0  0  0  0  0  0  0  0
   -1.6111   -1.1091    2.7856 O   0  0  0  0  0  0  0  0  0  0  0  0
    1.6106   -1.1102   -2.7862 O   0  0  0  0  0  0  0  0  0  0  0  0
   -1.2634    1.1089   -0.3436 N   0  0  0  0  0  0  0  0  0  0  0  0
    1.2650    1.1077    0.3438 N   0  0  0  0  0  0  0  0  0  0  0  0
   -0.9634    1.7906    0.9260 C   0  0  2  0  0  0  0  0  0  0  0  0
    0.9657    1.7899   -0.9256 C   0  0  2  0  0  0  0  0  0  0  0  0
   -2.6042    0.5061   -0.3230 C   0  0  2  0  0  0  0  0  0  0  0  0
    2.6051    0.5033    0.3231 C   0  0  2  0  0  0  0  0  0  0  0  0
   -2.8107    0.2581    1.1838 C   0  0  2  0  0  0  0  0  0  0  0  0
    2.8113    0.2554   -1.1837 C   0  0  2  0  0  0  0  0  0  0  0  0
   -2.1738    1.5018    1.8228 C   0  0  0  0  0  0  0  0  0  0  0  0
    2.1756    1.4999   -1.8225 C   0  0  0  0  0  0  0  0  0  0  0  0
    0.3731    1.2271    1.4121 C   0  0  0  0  0  0  0  0  0  0  0  0
   -0.3715    1.2278   -1.4119 C   0  0  0  0  0  0  0  0  0  0  0  0
   -2.8510   -0.7746   -1.1358 C   0  0  2  0  0  0  0  0  0  0  0  0
    2.8501   -0.7780    1.1357 C   0  0  2  0  0  0  0  0  0  0  0  0
   -2.1235   -1.0238    1.6681 C   0  0  0  0  0  0  0  0  0  0  0  0
    2.1227   -1.0256   -1.6685 C   0  0  0  0  0  0  0  0  0  0  0  0
   -1.9461   -1.9191   -0.6738 C   0  0  1  0  0  0  0  0  0  0  0  0
    1.9433   -1.9209    0.6734 C   0  0  1  0  0  0  0  0  0  0  0  0
   -2.2257   -2.2500    0.7888 C   0  0  0  0  0  0  0  0  0  0  0  0
    2.2227   -2.2521   -0.7892 C   0  0  0  0  0  0  0  0  0  0  0  0
   -3.2804    1.2935   -0.6811 H   0  0  0  0  0  0  0  0  0  0  0  0
    3.2822    1.2899    0.6816 H   0  0  0  0  0  0  0  0  0  0  0  0
   -3.8734    0.1721    1.4357 H   0  0  0  0  0  0  0  0  0  0  0  0
    3.8738    0.1683   -1.4356 H   0  0  0  0  0  0  0  0  0  0  0  0
   -2.9137    2.3119    1.7757 H   0  0  0  0  0  0  0  0  0  0  0  0
   -1.9104    1.3641    2.8760 H   0  0  0  0  0  0  0  0  0  0  0  0
    2.9165    2.3092   -1.7752 H   0  0  0  0  0  0  0  0  0  0  0  0
    1.9122    1.3627   -2.8757 H   0  0  0  0  0  0  0  0  0  0  0  0
   -3.9020   -1.0590   -0.9876 H   0  0  0  0  0  0  0  0  0  0  0  0
    3.9001   -1.0656    0.9912 H   0  0  0  0  0  0  0  0  0  0  0  0
   -0.8968   -1.6434   -0.8145 H   0  0  0  0  0  0  0  0  0  0  0  0
    0.8936   -1.6441    0.8106 H   0  0  0  0  0  0  0  0  0  0  0  0
   -1.5052   -2.9919    1.1539 H   0  0  0  0  0  0  0  0  0  0  0  0
   -3.2345   -2.6578    0.9292 H   0  0  0  0  0  0  0  0  0  0  0  0
    1.5011   -2.9928   -1.1546 H   0  0  0  0  0  0  0  0  0  0  0  0
    3.2308   -2.6618   -0.9280 H   0  0  0  0  0  0  0  0  0  0  0  0
   -2.8530   -1.3345   -3.0008 H   0  0  0  0  0  0  0  0  0  0  0  0
    1.7696   -0.5706    2.7515 H   0  0  0  0  0  0  0  0  0  0  0  0
   -3.5194   -3.5727   -1.3923 H   0  0  0  0  0  0  0  0  0  0  0  0
    1.8226   -2.9049    2.8472 H   0  0  0  0  0  0  0  0  0  0  0  0
  1  2  1  0  0  0  0
  1 13  1  0  0  0  0
  2 14  1  0  0  0  0
  3 27  1  0  0  0  0
  3 49  1  0  0  0  0
  4 28  1  0  0  0  0
  4 50  1  0  0  0  0
  5 21  2  0  0  0  0
  6 22  2  0  0  0  0
  7 23  1  0  0  0  0
  7 47  1  0  0  0  0
  8 24  1  0  0  0  0
  8 48  1  0  0  0  0
  9 25  2  0  0  0  0
 10 26  2  0  0  0  0
 11 13  1  0  0  0  0
 11 15  1  0  0  0  0
 11 22  1  0  0  0  0
 12 14  1  0  0  0  0
 12 16  1  0  0  0  0
 12 21  1  0  0  0  0
 13 19  1  0  0  0  0
 13 21  1  0  0  0  0
 14 20  1  0  0  0  0
 14 22  1  0  0  0  0
 15 17  1  0  0  0  0
 15 23  1  0  0  0  0
 15 31  1  0  0  0  0
 16 18  1  0  0  0  0
 16 24  1  0  0  0  0
 16 32  1  0  0  0  0
 17 19  1  0  0  0  0
 17 25  1  0  0  0  0
 17 33  1  0  0  0  0
 18 20  1  0  0  0  0
 18 26  1  0  0  0  0
 18 34  1  0  0  0  0
 19 35  1  0  0  0  0
 19 36  1  0  0  0  0
 20 37  1  0  0  0  0
 20 38  1  0  0  0  0
 23 27  1  0  0  0  0
 23 39  1  0  0  0  0
 24 28  1  0  0  0  0
 24 40  1  0  0  0  0
 25 29  1  0  0  0  0
 26 30  1  0  0  0  0
 27 29  1  0  0  0  0
 27 41  1  0  0  0  0
 28 30  1  0  0  0  0
 28 42  1  0  0  0  0
 29 43  1  0  0  0  0
 29 44  1  0  0  0  0
 30 45  1  0  0  0  0
 30 46  1  0  0  0  0
M  END
> <PUBCHEM_COMPOUND_CID>
11488689

> <PUBCHEM_CONFORMER_RMSD>
0.6

> <PUBCHEM_CONFORMER_DIVERSEORDER>
1
3
5
6
4
7
2

> <PUBCHEM_MMFF94_PARTIAL_CHARGES>
32
1 -0.23
10 -0.57
11 -0.66
12 -0.66
13 0.59
14 0.59
15 0.3
16 0.3
17 0.06
18 0.06
2 -0.23
21 0.57
22 0.57
23 0.28
24 0.28
25 0.45
26 0.45
27 0.23
28 0.23
29 0.06
3 -0.41
30 0.06
4 -0.41
47 0.4
48 0.4
49 0.18
5 -0.57
50 0.18
6 -0.57
7 -0.68
8 -0.68
9 -0.57

> <PUBCHEM_EFFECTIVE_ROTOR_COUNT>
2

> <PUBCHEM_PHARMACOPHORE_FEATURES>
13
1 10 acceptor
1 5 acceptor
1 6 acceptor
1 7 acceptor
1 7 donor
1 8 acceptor
1 8 donor
1 9 acceptor
5 11 13 15 17 19 rings
5 12 14 16 18 20 rings
6 15 17 23 25 27 29 rings
6 16 18 24 26 28 30 rings
8 1 2 11 12 13 14 21 22 rings

> <PUBCHEM_HEAVY_ATOM_COUNT>
30

> <PUBCHEM_ATOM_DEF_STEREO_COUNT>
10

> <PUBCHEM_ATOM_UDEF_STEREO_COUNT>
0

> <PUBCHEM_BOND_DEF_STEREO_COUNT>
0

> <PUBCHEM_BOND_UDEF_STEREO_COUNT>
0

> <PUBCHEM_ISOTOPIC_ATOM_COUNT>
0

> <PUBCHEM_COMPONENT_COUNT>
1

> <PUBCHEM_CACTVS_TAUTO_COUNT>
6

> <PUBCHEM_CONFORMER_ID>
00AF4DB100000001

> <PUBCHEM_MMFF94_ENERGY>
105.2342

> <PUBCHEM_FEATURE_SELFOVERLAP>
66.501

> <PUBCHEM_SHAPE_FINGERPRINT>
10863032 1 17977427989486475153
11578080 2 18338495504688641093
12156800 1 15822047451475845079
12422481 6 15087470115464458336
12553582 1 18410859858174971713
12788726 201 18196381329112201177
14223421 5 15769770286169362196
16945 1 18410305704314689537
17492 54 16969704979713577869
18981168 100 12247381402721275742
20775530 9 18265871662220398415
20905425 154 17260736868364458966
21421861 104 17840032072172622915
21731516 1 18410580582221315232
23419403 2 17334436974065670225
238 59 17759797435448511895
35225 105 17554049835836144838
3797600 57 17338993474647210727
469060 322 15405484483391120146
513532 50 16457057400017217047
5845 1 9328915618299409396

> <PUBCHEM_SHAPE_MULTIPOLES>
587.61
4.59
4.09
2.83
0.01
0
0
2.4
0
0
0
0
0.72
-1.41

> <PUBCHEM_SHAPE_SELFOVERLAP>
1259.237

> <PUBCHEM_SHAPE_VOLUME>
328.9

> <PUBCHEM_COORDINATE_TYPE>
2
5
10

$$$$
