11483087
  -OEChem-03292013303D

 33 35  0     1  0  0  0  0  0999 V2000
    0.2143   -0.7808   -0.1610 O   0  0  0  0  0  0  0  0  0  0  0  0
    1.9204    2.9474   -0.0228 O   0  0  0  0  0  0  0  0  0  0  0  0
    4.2788    1.8597    0.1689 O   0  0  0  0  0  0  0  0  0  0  0  0
    4.4626   -2.8809   -0.0006 O   0  0  0  0  0  0  0  0  0  0  0  0
   -4.4134   -0.3193   -2.5021 O   0  0  0  0  0  0  0  0  0  0  0  0
   -4.9878   -0.4088    2.2359 O   0  0  0  0  0  0  0  0  0  0  0  0
   -0.5038    0.3348    0.3890 C   0  0  1  0  0  0  0  0  0  0  0  0
   -0.0768    1.6425   -0.2748 C   0  0  0  0  0  0  0  0  0  0  0  0
   -1.9863    0.0878    0.2046 C   0  0  0  0  0  0  0  0  0  0  0  0
    2.2145    0.6053   -0.0011 C   0  0  0  0  0  0  0  0  0  0  0  0
    1.4030    1.8379   -0.0700 C   0  0  0  0  0  0  0  0  0  0  0  0
    1.5748   -0.6357   -0.0731 C   0  0  0  0  0  0  0  0  0  0  0  0
    3.6067    0.6774    0.0911 C   0  0  0  0  0  0  0  0  0  0  0  0
   -2.8138   -0.0484    1.3187 C   0  0  0  0  0  0  0  0  0  0  0  0
   -2.5231   -0.0031   -1.0793 C   0  0  0  0  0  0  0  0  0  0  0  0
    2.3331   -1.8071   -0.0873 C   0  0  0  0  0  0  0  0  0  0  0  0
    4.3583   -0.4982    0.0969 C   0  0  0  0  0  0  0  0  0  0  0  0
    3.7237   -1.7373    0.0029 C   0  0  0  0  0  0  0  0  0  0  0  0
   -3.8887   -0.2305   -1.2492 C   0  0  0  0  0  0  0  0  0  0  0  0
   -4.1795   -0.2757    1.1488 C   0  0  0  0  0  0  0  0  0  0  0  0
   -4.7170   -0.3668   -0.1352 C   0  0  0  0  0  0  0  0  0  0  0  0
   -0.2806    0.3766    1.4654 H   0  0  0  0  0  0  0  0  0  0  0  0
   -0.6113    2.4887    0.1714 H   0  0  0  0  0  0  0  0  0  0  0  0
   -0.2493    1.6447   -1.3569 H   0  0  0  0  0  0  0  0  0  0  0  0
   -2.4041    0.0211    2.3232 H   0  0  0  0  0  0  0  0  0  0  0  0
   -1.8818    0.0902   -1.9520 H   0  0  0  0  0  0  0  0  0  0  0  0
    1.8425   -2.7747   -0.1582 H   0  0  0  0  0  0  0  0  0  0  0  0
    5.4428   -0.4526    0.1672 H   0  0  0  0  0  0  0  0  0  0  0  0
   -5.7806   -0.5439   -0.2748 H   0  0  0  0  0  0  0  0  0  0  0  0
    5.2343    1.6872    0.2236 H   0  0  0  0  0  0  0  0  0  0  0  0
    5.4045   -2.6486    0.0686 H   0  0  0  0  0  0  0  0  0  0  0  0
   -3.6999   -0.2005   -3.1523 H   0  0  0  0  0  0  0  0  0  0  0  0
   -5.8997   -0.5610    1.9340 H   0  0  0  0  0  0  0  0  0  0  0  0
  1  7  1  0  0  0  0
  1 12  1  0  0  0  0
  2 11  2  0  0  0  0
  3 13  1  0  0  0  0
  3 30  1  0  0  0  0
  4 18  1  0  0  0  0
  4 31  1  0  0  0  0
  5 19  1  0  0  0  0
  5 32  1  0  0  0  0
  6 20  1  0  0  0  0
  6 33  1  0  0  0  0
  7  8  1  0  0  0  0
  7  9  1  0  0  0  0
  7 22  1  0  0  0  0
  8 11  1  0  0  0  0
  8 23  1  0  0  0  0
  8 24  1  0  0  0  0
  9 14  2  0  0  0  0
  9 15  1  0  0  0  0
 10 11  1  0  0  0  0
 10 12  1  0  0  0  0
 10 13  2  0  0  0  0
 12 16  2  0  0  0  0
 13 17  1  0  0  0  0
 14 20  1  0  0  0  0
 14 25  1  0  0  0  0
 15 19  2  0  0  0  0
 15 26  1  0  0  0  0
 16 18  1  0  0  0  0
 16 27  1  0  0  0  0
 17 18  2  0  0  0  0
 17 28  1  0  0  0  0
 19 21  1  0  0  0  0
 20 21  2  0  0  0  0
 21 29  1  0  0  0  0
M  END
> <PUBCHEM_COMPOUND_CID>
11483087

> <PUBCHEM_CONFORMER_RMSD>
0.6

> <PUBCHEM_CONFORMER_DIVERSEORDER>
1
4
6
3
2
7
5

> <PUBCHEM_MMFF94_PARTIAL_CHARGES>
30
1 -0.36
10 0.09
11 0.42
12 0.08
13 0.08
14 -0.15
15 -0.15
16 -0.15
17 -0.15
18 0.08
19 0.08
2 -0.57
20 0.08
21 -0.15
25 0.15
26 0.15
27 0.15
28 0.15
29 0.15
3 -0.53
30 0.45
31 0.45
32 0.45
33 0.45
4 -0.53
5 -0.53
6 -0.53
7 0.42
8 0.06
9 -0.14

> <PUBCHEM_EFFECTIVE_ROTOR_COUNT>
1.6

> <PUBCHEM_PHARMACOPHORE_FEATURES>
9
1 1 acceptor
1 2 acceptor
1 3 donor
1 4 donor
1 5 donor
1 6 donor
6 1 7 8 10 11 12 rings
6 10 12 13 16 17 18 rings
6 9 14 15 19 20 21 rings

> <PUBCHEM_HEAVY_ATOM_COUNT>
21

> <PUBCHEM_ATOM_DEF_STEREO_COUNT>
0

> <PUBCHEM_ATOM_UDEF_STEREO_COUNT>
1

> <PUBCHEM_BOND_DEF_STEREO_COUNT>
0

> <PUBCHEM_BOND_UDEF_STEREO_COUNT>
0

> <PUBCHEM_ISOTOPIC_ATOM_COUNT>
0

> <PUBCHEM_COMPONENT_COUNT>
1

> <PUBCHEM_CACTVS_TAUTO_COUNT>
105

> <PUBCHEM_CONFORMER_ID>
00AF37CF00000001

> <PUBCHEM_MMFF94_ENERGY>
59.2151

> <PUBCHEM_FEATURE_SELFOVERLAP>
45.702

> <PUBCHEM_SHAPE_FINGERPRINT>
10062212 137 17704071811404843303
10622 236 17772156873948036591
10912923 1 17561081423281155571
11471102 20 18409726292162865044
11796584 16 16516236341397073794
12236239 1 17775005708938449957
12403259 415 17676490544767873975
12553582 1 18340492179523743670
12616971 3 18131635556112607531
12670546 56 17561077025224303033
13134695 92 18410570686849137964
13140716 1 18051694640287957936
13544653 18 18336548226803419196
13760787 5 18342738515769522911
14252887 29 18333454257112767312
14386348 63 17821730550540074811
14739800 52 16271062961016732546
14790565 3 17904490945604163052
15375462 189 18059858367562257872
15788980 27 18342736291298210375
15806764 133 17385726915527820445
15961568 22 15719965764154016428
17349148 13 18060136535456497759
17357779 13 18187072932401041181
1813 80 18200607886294880094
18222031 100 18271516499572779894
18785283 64 17825681202855973948
200 152 18272363170691309557
20645477 70 18334850632273786926
20739085 24 18268167399838905592
21033648 29 17895462713682992333
21065201 7 16370721526368580067
21267235 1 18339934727408048926
21641784 216 18042142989736315196
221490 88 18335421202042484308
22646028 1 17917988382435931727
23175994 123 18113903745414183485
23557571 272 16950562216207857213
23559900 14 17095516245719456170
314194 84 18412543189318972798
345986 75 18058729087890518346
34797466 226 16660658361525150870
46194498 28 17168720737458390663
474 4 17914323834777441048
5104073 3 18337671897912626640
5281201 14 17530969093999305621
573450 72 16917348134675161471
602551 16 15195277685581272597
6049 1 17748830735027647757
7064713 232 16917344797074544935
77492 1 17703793656385156845

> <PUBCHEM_SHAPE_MULTIPOLES>
396.95
10.73
2.12
1.32
4.32
0.36
0.15
-3.48
-0.56
-3.84
0.04
2.95
-0.2
0.14

> <PUBCHEM_SHAPE_SELFOVERLAP>
882.274

> <PUBCHEM_SHAPE_VOLUME>
210.8

> <PUBCHEM_COORDINATE_TYPE>
2
5
10

$$$$
