114854
  -OEChem-03292013323D

 51 54  0     1  0  0  0  0  0999 V2000
    3.9696   -1.3356   -0.6301 O   0  0  0  0  0  0  0  0  0  0  0  0
    4.3953    2.1814   -0.0219 O   0  0  0  0  0  0  0  0  0  0  0  0
    6.1767    0.6340   -1.3699 O   0  0  0  0  0  0  0  0  0  0  0  0
    5.1028   -3.4351    0.8430 O   0  0  0  0  0  0  0  0  0  0  0  0
    2.0905   -0.0118   -0.0409 N   0  0  0  0  0  0  0  0  0  0  0  0
    0.3313   -0.6596    1.1690 N   0  0  0  0  0  0  0  0  0  0  0  0
   -2.3454    0.7688    0.9686 N   0  0  0  0  0  0  0  0  0  0  0  0
    1.1006    1.8502   -1.2472 N   0  0  0  0  0  0  0  0  0  0  0  0
   -1.2403    2.1631   -0.6319 N   0  0  0  0  0  0  0  0  0  0  0  0
    4.4350    0.8014    0.2786 C   0  0  1  0  0  0  0  0  0  0  0  0
    3.4526    0.0077   -0.5692 C   0  0  1  0  0  0  0  0  0  0  0  0
    5.7515    0.1497   -0.0959 C   0  0  1  0  0  0  0  0  0  0  0  0
    5.3603   -1.3183   -0.2333 C   0  0  1  0  0  0  0  0  0  0  0  0
    5.4974   -2.0934    1.0697 C   0  0  0  0  0  0  0  0  0  0  0  0
    1.0685    0.8332   -0.3729 C   0  0  0  0  0  0  0  0  0  0  0  0
    1.5969   -0.8906    0.8884 C   0  0  0  0  0  0  0  0  0  0  0  0
   -0.0116    0.4153    0.3878 C   0  0  0  0  0  0  0  0  0  0  0  0
   -1.1997    1.1229    0.2352 C   0  0  0  0  0  0  0  0  0  0  0  0
   -3.5938    1.4621    0.8510 C   0  0  1  0  0  0  0  0  0  0  0  0
   -4.7396    0.5845    1.3767 C   0  0  0  0  0  0  0  0  0  0  0  0
   -0.1043    2.4578   -1.3092 C   0  0  0  0  0  0  0  0  0  0  0  0
   -3.5023    2.7647    1.6397 C   0  0  0  0  0  0  0  0  0  0  0  0
   -5.1887   -0.4576    0.3797 C   0  0  0  0  0  0  0  0  0  0  0  0
   -6.1947   -0.1460   -0.5207 C   0  0  0  0  0  0  0  0  0  0  0  0
   -4.5860   -1.7052    0.3840 C   0  0  0  0  0  0  0  0  0  0  0  0
   -6.6094   -1.1080   -1.4415 C   0  0  0  0  0  0  0  0  0  0  0  0
   -5.0008   -2.6672   -0.5369 C   0  0  0  0  0  0  0  0  0  0  0  0
   -6.0125   -2.3685   -1.4498 C   0  0  0  0  0  0  0  0  0  0  0  0
    4.2414    0.6662    1.3496 H   0  0  0  0  0  0  0  0  0  0  0  0
    3.3902    0.3897   -1.5957 H   0  0  0  0  0  0  0  0  0  0  0  0
    6.5534    0.3456    0.6216 H   0  0  0  0  0  0  0  0  0  0  0  0
    5.9187   -1.8253   -1.0284 H   0  0  0  0  0  0  0  0  0  0  0  0
    4.8575   -1.6879    1.8596 H   0  0  0  0  0  0  0  0  0  0  0  0
    6.5333   -2.0934    1.4210 H   0  0  0  0  0  0  0  0  0  0  0  0
    3.5013    2.5022    0.1853 H   0  0  0  0  0  0  0  0  0  0  0  0
    6.9957    0.1627   -1.6004 H   0  0  0  0  0  0  0  0  0  0  0  0
    2.1996   -1.6724    1.3302 H   0  0  0  0  0  0  0  0  0  0  0  0
   -3.7970    1.7104   -0.1993 H   0  0  0  0  0  0  0  0  0  0  0  0
    4.1826   -3.4210    0.5285 H   0  0  0  0  0  0  0  0  0  0  0  0
   -2.2471    0.0200    1.6455 H   0  0  0  0  0  0  0  0  0  0  0  0
   -5.6072    1.2127    1.6208 H   0  0  0  0  0  0  0  0  0  0  0  0
   -4.4632    0.0975    2.3219 H   0  0  0  0  0  0  0  0  0  0  0  0
   -4.4430    3.3225    1.5773 H   0  0  0  0  0  0  0  0  0  0  0  0
   -2.7096    3.4186    1.2624 H   0  0  0  0  0  0  0  0  0  0  0  0
   -3.2939    2.5734    2.6986 H   0  0  0  0  0  0  0  0  0  0  0  0
   -0.1729    3.2963   -1.9940 H   0  0  0  0  0  0  0  0  0  0  0  0
   -6.6638    0.8337   -0.5242 H   0  0  0  0  0  0  0  0  0  0  0  0
   -3.7986   -1.9488    1.0912 H   0  0  0  0  0  0  0  0  0  0  0  0
   -7.3965   -0.8754   -2.1528 H   0  0  0  0  0  0  0  0  0  0  0  0
   -4.5362   -3.6489   -0.5433 H   0  0  0  0  0  0  0  0  0  0  0  0
   -6.3352   -3.1175   -2.1669 H   0  0  0  0  0  0  0  0  0  0  0  0
  1 11  1  0  0  0  0
  1 13  1  0  0  0  0
  2 10  1  0  0  0  0
  2 35  1  0  0  0  0
  3 12  1  0  0  0  0
  3 36  1  0  0  0  0
  4 14  1  0  0  0  0
  4 39  1  0  0  0  0
  5 11  1  0  0  0  0
  5 15  1  0  0  0  0
  5 16  1  0  0  0  0
  6 16  2  0  0  0  0
  6 17  1  0  0  0  0
  7 18  1  0  0  0  0
  7 19  1  0  0  0  0
  7 40  1  0  0  0  0
  8 15  2  0  0  0  0
  8 21  1  0  0  0  0
  9 18  1  0  0  0  0
  9 21  2  0  0  0  0
 10 11  1  0  0  0  0
 10 12  1  0  0  0  0
 10 29  1  0  0  0  0
 11 30  1  0  0  0  0
 12 13  1  0  0  0  0
 12 31  1  0  0  0  0
 13 14  1  0  0  0  0
 13 32  1  0  0  0  0
 14 33  1  0  0  0  0
 14 34  1  0  0  0  0
 15 17  1  0  0  0  0
 16 37  1  0  0  0  0
 17 18  2  0  0  0  0
 19 20  1  0  0  0  0
 19 22  1  0  0  0  0
 19 38  1  0  0  0  0
 20 23  1  0  0  0  0
 20 41  1  0  0  0  0
 20 42  1  0  0  0  0
 21 46  1  0  0  0  0
 22 43  1  0  0  0  0
 22 44  1  0  0  0  0
 22 45  1  0  0  0  0
 23 24  2  0  0  0  0
 23 25  1  0  0  0  0
 24 26  1  0  0  0  0
 24 47  1  0  0  0  0
 25 27  2  0  0  0  0
 25 48  1  0  0  0  0
 26 28  2  0  0  0  0
 26 49  1  0  0  0  0
 27 28  1  0  0  0  0
 27 50  1  0  0  0  0
 28 51  1  0  0  0  0
M  END
> <PUBCHEM_COMPOUND_CID>
114854

> <PUBCHEM_CONFORMER_RMSD>
1

> <PUBCHEM_CONFORMER_DIVERSEORDER>
1
46
140
167
359
226
157
206
329
347
241
102
6
439
392
41
414
271
290
83
160
170
303
562
196
522
496
565
187
4
220
16
574
2
481
233
55
9
352
33
117
559
127
156
450
12
366
291
131
328
442
250
380
417
218
573
32
432
354
152
17
264
110
566
60
43
21
246
210
435
15
243
75
240
445
493
343
511
120
388
181
40
54
194
37
407
236
107
336
313
390
85
452
395
19
373
357
77
231
433
118
225
92
88
99
109
161
310
7
188
297
174
78
404
24
53
444
165
66
49
39
263
526
81
314
403
5
22
270
10
370
8
309
135
125
306
134
3

> <PUBCHEM_MMFF94_PARTIAL_CHARGES>
38
1 -0.56
10 0.28
11 0.54
12 0.28
13 0.28
14 0.28
15 0.11
16 0.04
17 0.23
18 0.41
19 0.37
2 -0.68
20 0.14
21 0.47
23 -0.14
24 -0.15
25 -0.15
26 -0.15
27 -0.15
28 -0.15
3 -0.68
35 0.4
36 0.4
37 0.15
39 0.4
4 -0.68
40 0.4
46 0.15
47 0.15
48 0.15
49 0.15
5 0.05
50 0.15
51 0.15
6 -0.57
7 -0.87
8 -0.57
9 -0.62

> <PUBCHEM_EFFECTIVE_ROTOR_COUNT>
7

> <PUBCHEM_PHARMACOPHORE_FEATURES>
16
1 1 acceptor
1 2 acceptor
1 2 donor
1 3 acceptor
1 3 donor
1 4 acceptor
1 4 donor
1 7 cation
1 7 donor
3 5 6 16 cation
3 5 8 15 cation
3 8 9 21 cation
5 1 10 11 12 13 rings
5 5 6 15 16 17 rings
6 23 24 25 26 27 28 rings
6 8 9 15 17 18 21 rings

> <PUBCHEM_HEAVY_ATOM_COUNT>
28

> <PUBCHEM_ATOM_DEF_STEREO_COUNT>
4

> <PUBCHEM_ATOM_UDEF_STEREO_COUNT>
1

> <PUBCHEM_BOND_DEF_STEREO_COUNT>
0

> <PUBCHEM_BOND_UDEF_STEREO_COUNT>
0

> <PUBCHEM_ISOTOPIC_ATOM_COUNT>
0

> <PUBCHEM_COMPONENT_COUNT>
1

> <PUBCHEM_CACTVS_TAUTO_COUNT>
3

> <PUBCHEM_CONFORMER_ID>
0001C0A600000001

> <PUBCHEM_MMFF94_ENERGY>
70.5206

> <PUBCHEM_FEATURE_SELFOVERLAP>
81.819

> <PUBCHEM_SHAPE_FINGERPRINT>
10 15 13614518567371459363
10571361 74 18411975862710169527
10595046 47 18341898506366640064
11475781 23 14490183908503871318
11497681 19 18411423895578013222
12236239 1 18413109476714904853
12422481 6 18059859402750110022
13533116 47 18334012775034569890
13782708 43 17775286053732529214
13885169 86 11023813007380912707
14068700 675 18202279234691160561
14931854 50 18189598580348007407
15183329 4 18342177777962265927
15250474 111 18341047419916384475
17857418 61 18412546504970181491
17913733 40 13542473055097790821
18222031 100 18260824912390751441
19958102 18 18187076265649356663
20028762 73 18341610391508289382
21424621 283 9079114466428892925
21623969 137 15339128930636784141
21756936 100 8358260333219584237
22393880 68 17241040046082978235
2303208 19 15913056395481213316
23081809 10 18335148552933598600
23522609 53 18121533226735770052
23559900 14 18200020868057343249
23569914 152 16814008133331356975
24771293 8 18335706087377124852
2838139 119 12035446168454453047
3004659 81 18336818797712752935
3009799 131 17240198863109531341
3504750 166 18123466077512607952
397830 11 17131539622420997922
4015057 19 18041289875617850785
5104073 3 18201432537591343760
531348 171 18116428155571168429
5326457 24 18341052921574168947
54039377 194 18337963402223846859
6126387 218 12757140300118316756
6431902 208 18340491161954396811
7226269 152 13045931418208982783
7495541 125 17275103954934045632

> <PUBCHEM_SHAPE_MULTIPOLES>
527.84
18.02
3.06
1.37
0.58
0.63
-0.04
11.23
-2.57
0.76
0.11
0.82
-0.2
-3.21

> <PUBCHEM_SHAPE_SELFOVERLAP>
1142.001

> <PUBCHEM_SHAPE_VOLUME>
285.5

> <PUBCHEM_COORDINATE_TYPE>
2
5
10

$$$$
