114894
  -OEChem-03292013323D

 46 45  0     1  0  0  0  0  0999 V2000
    0.6324   -4.6372   -0.9920 S   0  0  0  0  0  0  0  0  0  0  0  0
   -0.8257   -0.3170    2.0014 O   0  0  0  0  0  0  0  0  0  0  0  0
    2.2266    1.4939    0.3799 O   0  0  0  0  0  0  0  0  0  0  0  0
    0.9385   -1.2944   -1.4292 O   0  0  0  0  0  0  0  0  0  0  0  0
   -1.9566   -0.0064   -1.7956 O   0  0  0  0  0  0  0  0  0  0  0  0
   -3.9628    1.0138   -2.0710 O   0  0  0  0  0  0  0  0  0  0  0  0
    3.8875    2.0922   -1.0958 O   0  0  0  0  0  0  0  0  0  0  0  0
   -0.7258   -2.1812    0.6194 N   0  0  0  0  0  0  0  0  0  0  0  0
    2.6310   -1.0632    0.1407 N   0  0  0  0  0  0  0  0  0  0  0  0
   -3.4552    2.5306    0.1738 N   0  0  0  0  0  0  0  0  0  0  0  0
   -3.4789    0.2448    1.0515 C   0  0  0  0  0  0  0  0  0  0  0  0
    0.6984   -2.4031    0.7162 C   0  0  1  0  0  0  0  0  0  0  0  0
   -2.8667   -1.1567    1.0052 C   0  0  0  0  0  0  0  0  0  0  0  0
   -2.8153    1.2168    0.0697 C   0  0  1  0  0  0  0  0  0  0  0  0
   -1.3721   -1.1454    1.2780 C   0  0  0  0  0  0  0  0  0  0  0  0
    1.0656   -3.8853    0.6109 C   0  0  0  0  0  0  0  0  0  0  0  0
    1.4064   -1.5288   -0.3167 C   0  0  0  0  0  0  0  0  0  0  0  0
   -2.9942    0.7584   -1.3664 C   0  0  0  0  0  0  0  0  0  0  0  0
    3.4999   -0.2364   -0.6638 C   0  0  0  0  0  0  0  0  0  0  0  0
    1.9194    2.8756    0.5941 C   0  0  0  0  0  0  0  0  0  0  0  0
    3.2387    1.2419   -0.4950 C   0  0  0  0  0  0  0  0  0  0  0  0
    0.8913    3.3249   -0.4330 C   0  0  0  0  0  0  0  0  0  0  0  0
    1.4173    3.0622    2.0177 C   0  0  0  0  0  0  0  0  0  0  0  0
   -4.5519    0.1577    0.8363 H   0  0  0  0  0  0  0  0  0  0  0  0
   -3.3912    0.6406    2.0718 H   0  0  0  0  0  0  0  0  0  0  0  0
    1.0034   -2.0602    1.7137 H   0  0  0  0  0  0  0  0  0  0  0  0
   -3.3329   -1.7821    1.7758 H   0  0  0  0  0  0  0  0  0  0  0  0
   -3.0801   -1.6303    0.0408 H   0  0  0  0  0  0  0  0  0  0  0  0
   -1.7501    1.3466    0.2768 H   0  0  0  0  0  0  0  0  0  0  0  0
   -1.2561   -2.7854   -0.0018 H   0  0  0  0  0  0  0  0  0  0  0  0
    0.5550   -4.4563    1.3937 H   0  0  0  0  0  0  0  0  0  0  0  0
    2.1438   -4.0154    0.7515 H   0  0  0  0  0  0  0  0  0  0  0  0
    2.9401   -1.3007    1.0786 H   0  0  0  0  0  0  0  0  0  0  0  0
    4.5263   -0.4460   -0.3497 H   0  0  0  0  0  0  0  0  0  0  0  0
    3.3684   -0.4941   -1.7189 H   0  0  0  0  0  0  0  0  0  0  0  0
   -3.3630    2.8800    1.1270 H   0  0  0  0  0  0  0  0  0  0  0  0
   -2.9633    3.1977   -0.4201 H   0  0  0  0  0  0  0  0  0  0  0  0
    2.8226    3.4905    0.4921 H   0  0  0  0  0  0  0  0  0  0  0  0
    1.0881   -5.8666   -0.7105 H   0  0  0  0  0  0  0  0  0  0  0  0
   -0.0090    2.7063   -0.3819 H   0  0  0  0  0  0  0  0  0  0  0  0
    0.6073    4.3707   -0.2807 H   0  0  0  0  0  0  0  0  0  0  0  0
    1.2848    3.2191   -1.4494 H   0  0  0  0  0  0  0  0  0  0  0  0
    0.5200    2.4596    2.1967 H   0  0  0  0  0  0  0  0  0  0  0  0
    1.1827    4.1106    2.2250 H   0  0  0  0  0  0  0  0  0  0  0  0
    2.1719    2.7230    2.7356 H   0  0  0  0  0  0  0  0  0  0  0  0
   -2.0841   -0.3110   -2.7193 H   0  0  0  0  0  0  0  0  0  0  0  0
  1 16  1  0  0  0  0
  1 39  1  0  0  0  0
  2 15  2  0  0  0  0
  3 20  1  0  0  0  0
  3 21  1  0  0  0  0
  4 17  2  0  0  0  0
  5 18  1  0  0  0  0
  5 46  1  0  0  0  0
  6 18  2  0  0  0  0
  7 21  2  0  0  0  0
  8 12  1  0  0  0  0
  8 15  1  0  0  0  0
  8 30  1  0  0  0  0
  9 17  1  0  0  0  0
  9 19  1  0  0  0  0
  9 33  1  0  0  0  0
 10 14  1  0  0  0  0
 10 36  1  0  0  0  0
 10 37  1  0  0  0  0
 11 13  1  0  0  0  0
 11 14  1  0  0  0  0
 11 24  1  0  0  0  0
 11 25  1  0  0  0  0
 12 16  1  0  0  0  0
 12 17  1  0  0  0  0
 12 26  1  0  0  0  0
 13 15  1  0  0  0  0
 13 27  1  0  0  0  0
 13 28  1  0  0  0  0
 14 18  1  0  0  0  0
 14 29  1  0  0  0  0
 16 31  1  0  0  0  0
 16 32  1  0  0  0  0
 19 21  1  0  0  0  0
 19 34  1  0  0  0  0
 19 35  1  0  0  0  0
 20 22  1  0  0  0  0
 20 23  1  0  0  0  0
 20 38  1  0  0  0  0
 22 40  1  0  0  0  0
 22 41  1  0  0  0  0
 22 42  1  0  0  0  0
 23 43  1  0  0  0  0
 23 44  1  0  0  0  0
 23 45  1  0  0  0  0
M  END
> <PUBCHEM_COMPOUND_CID>
114894

> <PUBCHEM_CONFORMER_RMSD>
1

> <PUBCHEM_CONFORMER_DIVERSEORDER>
2
15
33
34
6
100
123
147
61
114
95
135
52
41
103
144
35
89
143
117
98
67
59
92
43
29
149
150
106
21
66
125
25
111
137
136
38
73
133
62
91
9
71
48
139
64
42
54
68
74
76
122
131
10
126
24
23
127
101
151
154
40
60
104
140
19
121
108
4
86
99
17
96
124
88
145
155
94
27
82
148
18
138
90
153
78
128
109
81
132
107
80
53
113
58
26
30
32
97
105
110
83
45
11
31
49
63
50
44
134
115
129
65
156
36
22
12
130
152
7
14
51
87
69
37
55
119
5
120
70
75
20
84
39
1
47
102
79
146
118
85
77
13
56
141
142
116
8
112
72
28
57
93
16
46
3

> <PUBCHEM_MMFF94_PARTIAL_CHARGES>
26
1 -0.41
10 -0.99
12 0.36
13 0.06
14 0.33
15 0.57
16 0.23
17 0.57
18 0.66
19 0.36
2 -0.57
20 0.28
21 0.66
3 -0.43
30 0.37
33 0.37
36 0.36
37 0.36
39 0.18
4 -0.57
46 0.5
5 -0.65
6 -0.57
7 -0.57
8 -0.73
9 -0.73

> <PUBCHEM_EFFECTIVE_ROTOR_COUNT>
13

> <PUBCHEM_PHARMACOPHORE_FEATURES>
11
1 10 cation
1 10 donor
1 2 acceptor
1 4 acceptor
1 5 acceptor
1 6 acceptor
1 7 acceptor
1 8 donor
1 9 donor
3 20 22 23 hydrophobe
3 5 6 18 anion

> <PUBCHEM_HEAVY_ATOM_COUNT>
23

> <PUBCHEM_ATOM_DEF_STEREO_COUNT>
2

> <PUBCHEM_ATOM_UDEF_STEREO_COUNT>
0

> <PUBCHEM_BOND_DEF_STEREO_COUNT>
0

> <PUBCHEM_BOND_UDEF_STEREO_COUNT>
0

> <PUBCHEM_ISOTOPIC_ATOM_COUNT>
0

> <PUBCHEM_COMPONENT_COUNT>
1

> <PUBCHEM_CACTVS_TAUTO_COUNT>
4

> <PUBCHEM_CONFORMER_ID>
0001C0CE00000002

> <PUBCHEM_MMFF94_ENERGY>
30.8905

> <PUBCHEM_FEATURE_SELFOVERLAP>
55.882

> <PUBCHEM_SHAPE_FINGERPRINT>
10165383 225 18119555333495662464
10670039 82 16751288107712620868
10871710 139 16534282999005014828
14251745 187 18408881841199698368
18219364 16 18334863835029583169
18981168 100 18122895701597843344
19930381 70 18409455760878661459
21524375 3 18263652921017631226
238 59 18341317985591234469
3187 122 16825577701320835658
35225 105 17317013034601229404
3524813 1 18261403276997355800
81228 2 17256245367833878682

> <PUBCHEM_SHAPE_MULTIPOLES>
427.02
6.2
5.39
1.74
2.28
3.47
-0.09
-4.23
-1.83
-3.27
0.26
0.99
-0.37
0.84

> <PUBCHEM_SHAPE_SELFOVERLAP>
822.386

> <PUBCHEM_SHAPE_VOLUME>
260.4

> <PUBCHEM_COORDINATE_TYPE>
2
5
10

$$$$
