114851
  -OEChem-03292013323D

 39 41  0     1  0  0  0  0  0999 V2000
    0.9922    0.3765    0.0972 O   0  0  0  0  0  0  0  0  0  0  0  0
   -0.3250   -1.5251   -0.2062 O   0  0  0  0  0  0  0  0  0  0  0  0
    4.3521   -1.5722   -1.2393 O   0  0  0  0  0  0  0  0  0  0  0  0
    2.0145   -3.1062   -0.3140 O   0  0  0  0  0  0  0  0  0  0  0  0
    4.6098    0.8685    0.3178 O   0  0  0  0  0  0  0  0  0  0  0  0
    3.1302    3.0737    0.7907 O   0  0  0  0  0  0  0  0  0  0  0  0
    1.0662    2.9154   -0.1638 O   0  0  0  0  0  0  0  0  0  0  0  0
    3.4082   -1.1371   -0.2595 C   0  0  2  0  0  0  0  0  0  0  0  0
    2.0284   -1.7061   -0.5918 C   0  0  2  0  0  0  0  0  0  0  0  0
    3.3961    0.3919   -0.2608 C   0  0  1  0  0  0  0  0  0  0  0  0
    0.9381   -1.0399    0.2478 C   0  0  1  0  0  0  0  0  0  0  0  0
    2.2238    0.9233    0.5545 C   0  0  1  0  0  0  0  0  0  0  0  0
    2.0472    2.3922    0.3434 C   0  0  0  0  0  0  0  0  0  0  0  0
   -1.4337   -1.0318    0.4254 C   0  0  0  0  0  0  0  0  0  0  0  0
   -2.4235   -0.3312   -0.2807 C   0  0  0  0  0  0  0  0  0  0  0  0
   -3.5526    0.1600    0.4173 C   0  0  0  0  0  0  0  0  0  0  0  0
   -1.5517   -1.2466    1.7978 C   0  0  0  0  0  0  0  0  0  0  0  0
   -2.3194   -0.1064   -1.6630 C   0  0  0  0  0  0  0  0  0  0  0  0
   -3.6566   -0.0647    1.7997 C   0  0  0  0  0  0  0  0  0  0  0  0
   -2.6619   -0.7636    2.4841 C   0  0  0  0  0  0  0  0  0  0  0  0
   -4.5441    0.8614   -0.2878 C   0  0  0  0  0  0  0  0  0  0  0  0
   -3.3140    0.5925   -2.3475 C   0  0  0  0  0  0  0  0  0  0  0  0
   -4.4243    1.0755   -1.6612 C   0  0  0  0  0  0  0  0  0  0  0  0
    3.7586   -1.5293    0.7033 H   0  0  0  0  0  0  0  0  0  0  0  0
    1.8130   -1.5878   -1.6610 H   0  0  0  0  0  0  0  0  0  0  0  0
    3.3606    0.7634   -1.2924 H   0  0  0  0  0  0  0  0  0  0  0  0
    1.0793   -1.3110    1.3021 H   0  0  0  0  0  0  0  0  0  0  0  0
    2.3305    0.7439    1.6316 H   0  0  0  0  0  0  0  0  0  0  0  0
    5.2138   -1.1871   -1.0045 H   0  0  0  0  0  0  0  0  0  0  0  0
    2.7280   -3.5125   -0.8353 H   0  0  0  0  0  0  0  0  0  0  0  0
    4.6539    0.5460    1.2342 H   0  0  0  0  0  0  0  0  0  0  0  0
   -0.8028   -1.8078    2.3491 H   0  0  0  0  0  0  0  0  0  0  0  0
   -1.4644   -0.4697   -2.2290 H   0  0  0  0  0  0  0  0  0  0  0  0
    3.0343    4.0410    0.6593 H   0  0  0  0  0  0  0  0  0  0  0  0
   -4.5163    0.3027    2.3563 H   0  0  0  0  0  0  0  0  0  0  0  0
   -2.7574   -0.9352    3.5524 H   0  0  0  0  0  0  0  0  0  0  0  0
   -5.4205    1.2480    0.2283 H   0  0  0  0  0  0  0  0  0  0  0  0
   -3.2214    0.7599   -3.4167 H   0  0  0  0  0  0  0  0  0  0  0  0
   -5.1983    1.6197   -2.1946 H   0  0  0  0  0  0  0  0  0  0  0  0
  1 11  1  0  0  0  0
  1 12  1  0  0  0  0
  2 11  1  0  0  0  0
  2 14  1  0  0  0  0
  3  8  1  0  0  0  0
  3 29  1  0  0  0  0
  4  9  1  0  0  0  0
  4 30  1  0  0  0  0
  5 10  1  0  0  0  0
  5 31  1  0  0  0  0
  6 13  1  0  0  0  0
  6 34  1  0  0  0  0
  7 13  2  0  0  0  0
  8  9  1  0  0  0  0
  8 10  1  0  0  0  0
  8 24  1  0  0  0  0
  9 11  1  0  0  0  0
  9 25  1  0  0  0  0
 10 12  1  0  0  0  0
 10 26  1  0  0  0  0
 11 27  1  0  0  0  0
 12 13  1  0  0  0  0
 12 28  1  0  0  0  0
 14 15  1  0  0  0  0
 14 17  2  0  0  0  0
 15 16  1  0  0  0  0
 15 18  2  0  0  0  0
 16 19  1  0  0  0  0
 16 21  2  0  0  0  0
 17 20  1  0  0  0  0
 17 32  1  0  0  0  0
 18 22  1  0  0  0  0
 18 33  1  0  0  0  0
 19 20  2  0  0  0  0
 19 35  1  0  0  0  0
 20 36  1  0  0  0  0
 21 23  1  0  0  0  0
 21 37  1  0  0  0  0
 22 23  2  0  0  0  0
 22 38  1  0  0  0  0
 23 39  1  0  0  0  0
M  END
> <PUBCHEM_COMPOUND_CID>
114851

> <PUBCHEM_CONFORMER_RMSD>
0.8

> <PUBCHEM_CONFORMER_DIVERSEORDER>
1
23
27
30
42
3
14
16
8
44
41
37
11
22
24
35
36
43
19
29
52
13
40
48
47
49
10
28
9
7
17
26
25
50
21
31
34
4
45
46
6
2
51
5
12
15
39
38
33
32
20
18

> <PUBCHEM_MMFF94_PARTIAL_CHARGES>
32
1 -0.56
10 0.28
11 0.56
12 0.34
13 0.66
14 0.08
17 -0.15
18 -0.15
19 -0.15
2 -0.36
20 -0.15
21 -0.15
22 -0.15
23 -0.15
29 0.4
3 -0.68
30 0.4
31 0.4
32 0.15
33 0.15
34 0.5
35 0.15
36 0.15
37 0.15
38 0.15
39 0.15
4 -0.68
5 -0.68
6 -0.65
7 -0.57
8 0.28
9 0.28

> <PUBCHEM_EFFECTIVE_ROTOR_COUNT>
4.2

> <PUBCHEM_PHARMACOPHORE_FEATURES>
14
1 1 acceptor
1 2 acceptor
1 3 acceptor
1 3 donor
1 4 acceptor
1 4 donor
1 5 acceptor
1 5 donor
1 6 acceptor
1 7 acceptor
3 6 7 13 anion
6 1 8 9 10 11 12 rings
6 14 15 16 17 19 20 rings
6 15 16 18 21 22 23 rings

> <PUBCHEM_HEAVY_ATOM_COUNT>
23

> <PUBCHEM_ATOM_DEF_STEREO_COUNT>
5

> <PUBCHEM_ATOM_UDEF_STEREO_COUNT>
0

> <PUBCHEM_BOND_DEF_STEREO_COUNT>
0

> <PUBCHEM_BOND_UDEF_STEREO_COUNT>
0

> <PUBCHEM_ISOTOPIC_ATOM_COUNT>
0

> <PUBCHEM_COMPONENT_COUNT>
1

> <PUBCHEM_CACTVS_TAUTO_COUNT>
1

> <PUBCHEM_CONFORMER_ID>
0001C0A300000001

> <PUBCHEM_MMFF94_ENERGY>
71.7613

> <PUBCHEM_FEATURE_SELFOVERLAP>
71.207

> <PUBCHEM_SHAPE_FINGERPRINT>
10165383 225 17760683602986484512
10366900 7 17894632548023027959
11640471 11 17418105333662622641
11725454 13 17823115892289340255
12236239 1 17274824627968353667
12553582 1 18198633142290602478
12596599 1 17703795846264512612
12670545 47 17749392602517194615
13134695 92 18340202965058137814
13402501 40 18187077334747794149
13583140 156 18040711497898952107
13726171 33 17023767648640380916
13965767 371 13769038309416729583
14787075 74 13052204243488026619
15295992 7 18114457886236453009
17357779 13 18339366258115690756
1813 80 17485948336581479150
18186145 218 18411697681914462571
18219364 16 18336549412182679467
19049666 15 17896037654952846067
19862831 5 17060614512490516599
19930381 70 18052812839429266849
20511986 3 17131540678708886360
20554085 129 16806427151587773533
20645477 70 18412824698686609116
21033648 29 18113051640929681677
21639500 275 18343300387717892354
21792961 116 18042139674063688334
221357 26 18266168440634427581
23175994 123 18265628597103833342
23557571 272 17603594058071203923
23559900 14 17241334538562886674
23598291 2 17417254212699414023
350125 39 18052829335934388178
3524813 1 18040151803836429405
4409770 3 14748069619128873871
474 4 18272650185891021554
5161694 15 18187365428147482945
574716 61 17846207882523968653
602551 16 16660651773029299563
6049 1 18114192972374054331
633830 44 17773617064143855240
6438718 38 17554900870874290257
7399639 24 17902236946196750395
7615 1 17060060362677054715
77492 1 17275104990269226131
7808743 9 16660651734538065959
9971528 1 17917426498061622162

> <PUBCHEM_SHAPE_MULTIPOLES>
432.24
8.99
2.57
1.86
0.51
0.96
0.13
2.04
-1.55
2.82
0.26
-2.3
-0.19
2.51

> <PUBCHEM_SHAPE_SELFOVERLAP>
941.802

> <PUBCHEM_SHAPE_VOLUME>
232.5

> <PUBCHEM_COORDINATE_TYPE>
2
5
10

$$$$
