114973
  -OEChem-03292013323D

 59 61  0     1  0  0  0  0  0999 V2000
   -2.7306   -0.2405   -1.2260 O   0  0  0  0  0  0  0  0  0  0  0  0
   -6.5700   -0.4631   -1.4525 O   0  0  0  0  0  0  0  0  0  0  0  0
   -5.7649    1.6537   -1.7110 O   0  0  0  0  0  0  0  0  0  0  0  0
    0.9132    1.5996    1.3191 O   0  0  0  0  0  0  0  0  0  0  0  0
    4.0008   -1.0826   -1.3966 O   0  0  0  0  0  0  0  0  0  0  0  0
   -3.9095    1.1303    0.2189 N   0  0  0  0  0  0  0  0  0  0  0  0
   -0.4570    0.6201   -0.2828 N   0  0  0  0  0  0  0  0  0  0  0  0
    3.0172    0.1968    0.2692 N   0  0  0  0  0  0  0  0  0  0  0  0
   -5.1387    0.3479    0.2249 C   0  0  1  0  0  0  0  0  0  0  0  0
   -5.9313    0.8808    1.4128 C   0  0  0  0  0  0  0  0  0  0  0  0
   -5.4717    2.3325    1.5236 C   0  0  0  0  0  0  0  0  0  0  0  0
   -4.0027    2.2647    1.1342 C   0  0  0  0  0  0  0  0  0  0  0  0
   -2.7715    0.7239   -0.4601 C   0  0  0  0  0  0  0  0  0  0  0  0
   -1.5381    1.5568   -0.2175 C   0  0  2  0  0  0  0  0  0  0  0  0
   -5.8377    0.6131   -1.0746 C   0  0  0  0  0  0  0  0  0  0  0  0
   -1.4167    2.6477   -1.2557 C   0  0  0  0  0  0  0  0  0  0  0  0
    1.7031   -0.3880    0.1786 C   0  0  2  0  0  0  0  0  0  0  0  0
    0.6968    0.7122    0.4964 C   0  0  0  0  0  0  0  0  0  0  0  0
    1.5262   -1.5668    1.1426 C   0  0  0  0  0  0  0  0  0  0  0  0
    0.3998   -2.4867    0.7393 C   0  0  0  0  0  0  0  0  0  0  0  0
    4.0713   -0.2063   -0.5388 C   0  0  0  0  0  0  0  0  0  0  0  0
   -0.8790   -2.2453    1.2169 C   0  0  0  0  0  0  0  0  0  0  0  0
    0.6636   -3.5564   -0.1020 C   0  0  0  0  0  0  0  0  0  0  0  0
    5.3697    0.4765   -0.3038 C   0  0  0  0  0  0  0  0  0  0  0  0
   -1.9202   -3.0953    0.8440 C   0  0  0  0  0  0  0  0  0  0  0  0
   -0.3778   -4.4062   -0.4749 C   0  0  0  0  0  0  0  0  0  0  0  0
   -1.6697   -4.1756   -0.0019 C   0  0  0  0  0  0  0  0  0  0  0  0
    6.5377   -0.1899   -0.6112 C   0  0  0  0  0  0  0  0  0  0  0  0
    5.3657    1.7552    0.2138 C   0  0  0  0  0  0  0  0  0  0  0  0
    7.7568    0.4510   -0.3907 C   0  0  0  0  0  0  0  0  0  0  0  0
    6.5848    2.3961    0.4341 C   0  0  0  0  0  0  0  0  0  0  0  0
    7.7804    1.7440    0.1317 C   0  0  0  0  0  0  0  0  0  0  0  0
   -4.8958   -0.7168    0.3086 H   0  0  0  0  0  0  0  0  0  0  0  0
   -5.6438    0.3400    2.3228 H   0  0  0  0  0  0  0  0  0  0  0  0
   -7.0156    0.7981    1.2918 H   0  0  0  0  0  0  0  0  0  0  0  0
   -6.0229    2.9542    0.8082 H   0  0  0  0  0  0  0  0  0  0  0  0
   -5.6229    2.7517    2.5222 H   0  0  0  0  0  0  0  0  0  0  0  0
   -3.3830    2.0460    2.0108 H   0  0  0  0  0  0  0  0  0  0  0  0
   -3.6516    3.1858    0.6631 H   0  0  0  0  0  0  0  0  0  0  0  0
   -1.5336    1.9958    0.7825 H   0  0  0  0  0  0  0  0  0  0  0  0
   -0.5204   -0.1327   -0.9631 H   0  0  0  0  0  0  0  0  0  0  0  0
   -1.3781    2.2314   -2.2693 H   0  0  0  0  0  0  0  0  0  0  0  0
   -2.2658    3.3371   -1.2194 H   0  0  0  0  0  0  0  0  0  0  0  0
   -0.5000    3.2284   -1.1063 H   0  0  0  0  0  0  0  0  0  0  0  0
    1.5635   -0.7201   -0.8579 H   0  0  0  0  0  0  0  0  0  0  0  0
    1.3625   -1.2103    2.1688 H   0  0  0  0  0  0  0  0  0  0  0  0
    2.4530   -2.1550    1.1909 H   0  0  0  0  0  0  0  0  0  0  0  0
   -7.0369   -0.3086   -2.3012 H   0  0  0  0  0  0  0  0  0  0  0  0
    3.1708    0.8630    1.0189 H   0  0  0  0  0  0  0  0  0  0  0  0
   -1.0856   -1.4108    1.8806 H   0  0  0  0  0  0  0  0  0  0  0  0
    1.6656   -3.7422   -0.4778 H   0  0  0  0  0  0  0  0  0  0  0  0
   -2.9261   -2.9150    1.2116 H   0  0  0  0  0  0  0  0  0  0  0  0
   -0.1831   -5.2469   -1.1344 H   0  0  0  0  0  0  0  0  0  0  0  0
   -2.4806   -4.8369   -0.2928 H   0  0  0  0  0  0  0  0  0  0  0  0
    6.5368   -1.1984   -1.0137 H   0  0  0  0  0  0  0  0  0  0  0  0
    4.4585    2.3100    0.4289 H   0  0  0  0  0  0  0  0  0  0  0  0
    8.6878   -0.0568   -0.6253 H   0  0  0  0  0  0  0  0  0  0  0  0
    6.6038    3.4060    0.8333 H   0  0  0  0  0  0  0  0  0  0  0  0
    8.7295    2.2438    0.3017 H   0  0  0  0  0  0  0  0  0  0  0  0
  1 13  2  0  0  0  0
  2 15  1  0  0  0  0
  2 48  1  0  0  0  0
  3 15  2  0  0  0  0
  4 18  2  0  0  0  0
  5 21  2  0  0  0  0
  6  9  1  0  0  0  0
  6 12  1  0  0  0  0
  6 13  1  0  0  0  0
  7 14  1  0  0  0  0
  7 18  1  0  0  0  0
  7 41  1  0  0  0  0
  8 17  1  0  0  0  0
  8 21  1  0  0  0  0
  8 49  1  0  0  0  0
  9 10  1  0  0  0  0
  9 15  1  0  0  0  0
  9 33  1  0  0  0  0
 10 11  1  0  0  0  0
 10 34  1  0  0  0  0
 10 35  1  0  0  0  0
 11 12  1  0  0  0  0
 11 36  1  0  0  0  0
 11 37  1  0  0  0  0
 12 38  1  0  0  0  0
 12 39  1  0  0  0  0
 13 14  1  0  0  0  0
 14 16  1  0  0  0  0
 14 40  1  0  0  0  0
 16 42  1  0  0  0  0
 16 43  1  0  0  0  0
 16 44  1  0  0  0  0
 17 18  1  0  0  0  0
 17 19  1  0  0  0  0
 17 45  1  0  0  0  0
 19 20  1  0  0  0  0
 19 46  1  0  0  0  0
 19 47  1  0  0  0  0
 20 22  2  0  0  0  0
 20 23  1  0  0  0  0
 21 24  1  0  0  0  0
 22 25  1  0  0  0  0
 22 50  1  0  0  0  0
 23 26  2  0  0  0  0
 23 51  1  0  0  0  0
 24 28  2  0  0  0  0
 24 29  1  0  0  0  0
 25 27  2  0  0  0  0
 25 52  1  0  0  0  0
 26 27  1  0  0  0  0
 26 53  1  0  0  0  0
 27 54  1  0  0  0  0
 28 30  1  0  0  0  0
 28 55  1  0  0  0  0
 29 31  2  0  0  0  0
 29 56  1  0  0  0  0
 30 32  2  0  0  0  0
 30 57  1  0  0  0  0
 31 32  1  0  0  0  0
 31 58  1  0  0  0  0
 32 59  1  0  0  0  0
M  END
> <PUBCHEM_COMPOUND_CID>
114973

> <PUBCHEM_CONFORMER_RMSD>
1.2

> <PUBCHEM_CONFORMER_DIVERSEORDER>
1
39
79
46
53
10
8
48
78
38
19
62
60
7
65
66
80
74
40
49
75
23
57
72
5
56
69
42
51
32
12
44
37
68
6
70
24
18
27
58
64
59
67
17
55
35
34
76
13
9
4
25
47
36
14
71
31
3
33
63
50
41
16
52
21
28
77
45
20
30
22
54
11
73
15
61
29
43
26
2

> <PUBCHEM_MMFF94_PARTIAL_CHARGES>
42
1 -0.57
12 0.3
13 0.57
14 0.36
15 0.66
17 0.36
18 0.57
19 0.14
2 -0.65
20 -0.14
21 0.54
22 -0.15
23 -0.15
24 0.09
25 -0.15
26 -0.15
27 -0.15
28 -0.15
29 -0.15
3 -0.57
30 -0.15
31 -0.15
32 -0.15
4 -0.57
41 0.37
48 0.5
49 0.37
5 -0.57
50 0.15
51 0.15
52 0.15
53 0.15
54 0.15
55 0.15
56 0.15
57 0.15
58 0.15
59 0.15
6 -0.66
7 -0.73
8 -0.73
9 0.36

> <PUBCHEM_EFFECTIVE_ROTOR_COUNT>
12

> <PUBCHEM_PHARMACOPHORE_FEATURES>
11
1 1 acceptor
1 2 acceptor
1 3 acceptor
1 4 acceptor
1 5 acceptor
1 7 donor
1 8 donor
3 2 3 15 anion
5 6 9 10 11 12 rings
6 20 22 23 25 26 27 rings
6 24 28 29 30 31 32 rings

> <PUBCHEM_HEAVY_ATOM_COUNT>
32

> <PUBCHEM_ATOM_DEF_STEREO_COUNT>
3

> <PUBCHEM_ATOM_UDEF_STEREO_COUNT>
0

> <PUBCHEM_BOND_DEF_STEREO_COUNT>
0

> <PUBCHEM_BOND_UDEF_STEREO_COUNT>
0

> <PUBCHEM_ISOTOPIC_ATOM_COUNT>
0

> <PUBCHEM_COMPONENT_COUNT>
1

> <PUBCHEM_CACTVS_TAUTO_COUNT>
4

> <PUBCHEM_CONFORMER_ID>
0001C11D00000001

> <PUBCHEM_MMFF94_ENERGY>
84.3139

> <PUBCHEM_FEATURE_SELFOVERLAP>
55.879

> <PUBCHEM_SHAPE_FINGERPRINT>
10835480 77 18270398421329098960
11007060 377 18273215322114925529
11135609 187 18336257952282952181
11136131 41 18041834004755900442
12166972 35 10954040181578231213
12516196 113 9655568600588918852
12597179 24 18343871009000343678
13150687 139 18334575707702718006
13383668 254 15984548940134126890
14068700 686 18116991083596885301
14790565 3 18340210678502935832
14840074 17 18040715857221990485
15183329 4 17632574942110883676
16126227 98 18411989091219023088
18608769 82 18338521953835312827
21236236 1 18338237184154306362
21365058 27 18343026575195375159
21424621 283 18342745083149344512
21521721 280 18412831274260603136
23559900 14 18341613746646990864
244849 19 17273121630375112834
249057 3 18334580170463836868
25019877 29 18412830170459289974
4073 2 18340488976142532152
4258327 124 17897183488589367604
4516262 110 18269276760470704913
469060 322 16588578828747133358
5171179 24 17769931608483548440
5283173 99 18340488984584832322
5758199 1 18412550885763081153
59755656 520 18409166615053637990
6669772 16 18339645542775710022

> <PUBCHEM_SHAPE_MULTIPOLES>
614.26
18.64
4.4
1.32
19.69
5.81
0.06
-15.93
2.16
-2.26
-0.39
-1.79
-0.34
0.14

> <PUBCHEM_SHAPE_SELFOVERLAP>
1304.804

> <PUBCHEM_SHAPE_VOLUME>
340.6

> <PUBCHEM_COORDINATE_TYPE>
2
5
10

$$$$
