114918
  -OEChem-03292013323D

 30 32  0     0  0  0  0  0  0999 V2000
    0.2878   -2.3647   -0.0129 O   0  0  0  0  0  0  0  0  0  0  0  0
   -4.3816   -1.9363    0.0519 O   0  0  0  0  0  0  0  0  0  0  0  0
   -1.8838    2.6310   -1.2263 O   0  0  0  0  0  0  0  0  0  0  0  0
    4.1344    2.1307    0.5991 O   0  0  0  0  0  0  0  0  0  0  0  0
   -1.8391    2.8551    1.0493 O   0  0  0  0  0  0  0  0  0  0  0  0
    2.1896    2.5283   -0.5083 O   0  0  0  0  0  0  0  0  0  0  0  0
    0.4381    0.4920    0.0033 N   0  0  0  0  0  0  0  0  0  0  0  0
   -4.4167    0.7563    0.0687 N   0  0  0  0  0  0  0  0  0  0  0  0
   -0.7199   -0.0983    0.0140 C   0  0  0  0  0  0  0  0  0  0  0  0
   -0.8529   -1.5770    0.0069 C   0  0  0  0  0  0  0  0  0  0  0  0
    1.5821   -0.3197   -0.0161 C   0  0  0  0  0  0  0  0  0  0  0  0
    1.4969   -1.7151   -0.0241 C   0  0  0  0  0  0  0  0  0  0  0  0
   -1.9806    0.7096    0.0355 C   0  0  0  0  0  0  0  0  0  0  0  0
   -3.1982    0.1330    0.0484 C   0  0  0  0  0  0  0  0  0  0  0  0
    2.8464    0.2785   -0.0276 C   0  0  0  0  0  0  0  0  0  0  0  0
   -2.0553   -2.1502    0.0195 C   0  0  0  0  0  0  0  0  0  0  0  0
   -3.2965   -1.3595    0.0407 C   0  0  0  0  0  0  0  0  0  0  0  0
    2.6476   -2.5048   -0.0433 C   0  0  0  0  0  0  0  0  0  0  0  0
    4.0010   -0.5065   -0.0468 C   0  0  0  0  0  0  0  0  0  0  0  0
    3.9014   -1.8970   -0.0547 C   0  0  0  0  0  0  0  0  0  0  0  0
   -1.8927    2.1853    0.0427 C   0  0  0  0  0  0  0  0  0  0  0  0
    2.9919    1.7292   -0.0198 C   0  0  0  0  0  0  0  0  0  0  0  0
   -2.1581   -3.2306    0.0144 H   0  0  0  0  0  0  0  0  0  0  0  0
    2.5740   -3.5887   -0.0501 H   0  0  0  0  0  0  0  0  0  0  0  0
    4.9937   -0.0641   -0.0700 H   0  0  0  0  0  0  0  0  0  0  0  0
    4.8002   -2.5063   -0.0729 H   0  0  0  0  0  0  0  0  0  0  0  0
   -4.4715    1.7668    0.0750 H   0  0  0  0  0  0  0  0  0  0  0  0
   -5.2663    0.2055    0.0763 H   0  0  0  0  0  0  0  0  0  0  0  0
   -1.8264    3.6092   -1.2745 H   0  0  0  0  0  0  0  0  0  0  0  0
    4.2252    3.1075    0.6005 H   0  0  0  0  0  0  0  0  0  0  0  0
  1 10  1  0  0  0  0
  1 12  1  0  0  0  0
  2 17  2  0  0  0  0
  3 21  1  0  0  0  0
  3 29  1  0  0  0  0
  4 22  1  0  0  0  0
  4 30  1  0  0  0  0
  5 21  2  0  0  0  0
  6 22  2  0  0  0  0
  7  9  2  0  0  0  0
  7 11  1  0  0  0  0
  8 14  1  0  0  0  0
  8 27  1  0  0  0  0
  8 28  1  0  0  0  0
  9 10  1  0  0  0  0
  9 13  1  0  0  0  0
 10 16  2  0  0  0  0
 11 12  1  0  0  0  0
 11 15  2  0  0  0  0
 12 18  2  0  0  0  0
 13 14  2  0  0  0  0
 13 21  1  0  0  0  0
 14 17  1  0  0  0  0
 15 19  1  0  0  0  0
 15 22  1  0  0  0  0
 16 17  1  0  0  0  0
 16 23  1  0  0  0  0
 18 20  1  0  0  0  0
 18 24  1  0  0  0  0
 19 20  2  0  0  0  0
 19 25  1  0  0  0  0
 20 26  1  0  0  0  0
M  END
> <PUBCHEM_COMPOUND_CID>
114918

> <PUBCHEM_CONFORMER_RMSD>
0.6

> <PUBCHEM_CONFORMER_DIVERSEORDER>
1
2

> <PUBCHEM_MMFF94_PARTIAL_CHARGES>
30
1 -0.16
10 0.09
11 0.18
12 0.08
13 0.03
14 0.11
15 0.09
16 -0.14
17 0.54
18 -0.15
19 -0.15
2 -0.57
20 -0.15
21 0.71
22 0.63
23 0.15
24 0.15
25 0.15
26 0.15
27 0.4
28 0.4
29 0.5
3 -0.65
30 0.5
4 -0.65
5 -0.57
6 -0.57
7 -0.63
8 -0.9
9 0.42

> <PUBCHEM_EFFECTIVE_ROTOR_COUNT>
2

> <PUBCHEM_PHARMACOPHORE_FEATURES>
14
1 1 acceptor
1 2 acceptor
1 3 acceptor
1 4 acceptor
1 5 acceptor
1 6 acceptor
1 7 acceptor
1 8 cation
1 8 donor
3 3 5 21 anion
3 4 6 22 anion
6 1 7 9 10 11 12 rings
6 11 12 15 18 19 20 rings
6 9 10 13 14 16 17 rings

> <PUBCHEM_HEAVY_ATOM_COUNT>
22

> <PUBCHEM_ATOM_DEF_STEREO_COUNT>
0

> <PUBCHEM_ATOM_UDEF_STEREO_COUNT>
0

> <PUBCHEM_BOND_DEF_STEREO_COUNT>
0

> <PUBCHEM_BOND_UDEF_STEREO_COUNT>
0

> <PUBCHEM_ISOTOPIC_ATOM_COUNT>
0

> <PUBCHEM_COMPONENT_COUNT>
1

> <PUBCHEM_CACTVS_TAUTO_COUNT>
5

> <PUBCHEM_CONFORMER_ID>
0001C0E600000001

> <PUBCHEM_MMFF94_ENERGY>
72.3185

> <PUBCHEM_FEATURE_SELFOVERLAP>
71.236

> <PUBCHEM_SHAPE_FINGERPRINT>
10498660 4 18410011065421212525
10608611 8 18410008810631934278
10616163 171 18412830200239411807
10967382 1 18194402414308271510
1100329 8 17980201881308784000
11578080 2 17169247283733280494
12403259 226 18409445860699501596
12403260 363 18339353080992437770
12633257 1 18270409269561355289
13140716 1 18410303497308161219
14178342 30 18267009575666817138
14223421 5 18409446972927200254
14790565 3 17688885554139128701
15196674 1 18411138060687237723
15375462 6 18337955691870820566
15442244 35 18338798884419788074
15536298 74 18341333366037952326
16945 1 18410296873877746751
17492 89 18410856551108864714
19591789 44 15675778122690135302
19930381 70 18267301126136072697
20510252 161 18412825810866815825
20715895 44 18116697544505244557
21267235 1 18410865381513905623
21501502 16 18410860932053822370
221490 88 18409737248598349194
23227448 37 18339077078136157623
2334 1 17906173206382422002
23366157 5 18113901563850417170
23558518 356 18334301941690909761
23559900 14 18412539903726494050
238 59 16816263205783112485
2748010 2 18123471583534360022
335352 9 18338517413479510751
350125 39 18410859841385213336
4214541 1 18338798892793321322
474 4 17822857618683290308
5104073 3 18410013242975082531
58051976 378 18342173336796783238
59755656 215 18412266177287575388
7097593 13 17754443565287994026
7364860 26 18413389847958827982
7832392 63 18195246603305488994
9709674 26 18410862057309484310
9981440 41 17975693106746865208

> <PUBCHEM_SHAPE_MULTIPOLES>
407.57
7.82
3.42
0.7
0.09
1.05
-0.02
-0.4
0.28
0.18
-0.01
-0.09
0.28
0.16

> <PUBCHEM_SHAPE_SELFOVERLAP>
914.291

> <PUBCHEM_SHAPE_VOLUME>
210.9

> <PUBCHEM_COORDINATE_TYPE>
2
5
10

$$$$
