11509607
  -OEChem-03292013303D

 62 62  0     1  0  0  0  0  0999 V2000
   -2.8414   -0.4907    0.1470 O   0  0  0  0  0  0  0  0  0  0  0  0
   -2.9332    3.2009    0.2547 O   0  0  0  0  0  0  0  0  0  0  0  0
    0.7688    0.1072    0.5101 O   0  0  0  0  0  0  0  0  0  0  0  0
   -4.5094    0.7025   -1.6338 O   0  0  0  0  0  0  0  0  0  0  0  0
   -4.8131   -2.3620    1.1060 O   0  0  0  0  0  0  0  0  0  0  0  0
   -4.7289   -2.0935   -1.1450 O   0  0  0  0  0  0  0  0  0  0  0  0
    1.5718   -0.3181   -1.6144 O   0  0  0  0  0  0  0  0  0  0  0  0
    5.8788   -2.2174    0.0833 O   0  0  0  0  0  0  0  0  0  0  0  0
   -3.3887    0.8009    0.4508 C   0  0  1  0  0  0  0  0  0  0  0  0
   -2.4834    1.9074   -0.1382 C   0  0  2  0  0  0  0  0  0  0  0  0
   -1.0131    1.7404    0.2815 C   0  0  1  0  0  0  0  0  0  0  0  0
   -0.5426    0.3070   -0.0080 C   0  0  2  0  0  0  0  0  0  0  0  0
   -1.5063   -0.7180    0.6004 C   0  0  2  0  0  0  0  0  0  0  0  0
   -4.7651    0.8264   -0.2358 C   0  0  2  0  0  0  0  0  0  0  0  0
   -3.6204    0.9498    1.9642 C   0  0  0  0  0  0  0  0  0  0  0  0
   -5.6883   -0.3143    0.2240 C   0  0  1  0  0  0  0  0  0  0  0  0
   -0.1132    2.7675   -0.4195 C   0  0  0  0  0  0  0  0  0  0  0  0
   -1.1307   -2.1425    0.1991 C   0  0  0  0  0  0  0  0  0  0  0  0
   -7.0480   -0.3125   -0.4716 C   0  0  0  0  0  0  0  0  0  0  0  0
   -5.0276   -1.6623   -0.0389 C   0  0  0  0  0  0  0  0  0  0  0  0
    1.7278   -0.1999   -0.4093 C   0  0  0  0  0  0  0  0  0  0  0  0
    3.0086   -0.3702    0.3096 C   0  0  0  0  0  0  0  0  0  0  0  0
    4.1212   -0.6800   -0.3696 C   0  0  0  0  0  0  0  0  0  0  0  0
    5.4613   -0.8684    0.2866 C   0  0  2  0  0  0  0  0  0  0  0  0
    6.5037    0.0977   -0.2921 C   0  0  0  0  0  0  0  0  0  0  0  0
    7.8875   -0.1062    0.3349 C   0  0  0  0  0  0  0  0  0  0  0  0
    8.9215    0.8333   -0.2864 C   0  0  0  0  0  0  0  0  0  0  0  0
   10.3027    0.6152    0.3104 C   0  0  0  0  0  0  0  0  0  0  0  0
   -2.4989    1.8755   -1.2347 H   0  0  0  0  0  0  0  0  0  0  0  0
   -0.9100    1.9447    1.3554 H   0  0  0  0  0  0  0  0  0  0  0  0
   -0.5797    0.1789   -1.0990 H   0  0  0  0  0  0  0  0  0  0  0  0
   -1.4743   -0.6710    1.6955 H   0  0  0  0  0  0  0  0  0  0  0  0
   -5.2646    1.7882   -0.0701 H   0  0  0  0  0  0  0  0  0  0  0  0
   -4.2903    1.7853    2.1937 H   0  0  0  0  0  0  0  0  0  0  0  0
   -2.6825    1.1373    2.4966 H   0  0  0  0  0  0  0  0  0  0  0  0
   -4.0240    0.0361    2.4117 H   0  0  0  0  0  0  0  0  0  0  0  0
   -5.8895   -0.2223    1.2969 H   0  0  0  0  0  0  0  0  0  0  0  0
   -0.1237    2.6273   -1.5057 H   0  0  0  0  0  0  0  0  0  0  0  0
   -0.4418    3.7901   -0.2075 H   0  0  0  0  0  0  0  0  0  0  0  0
    0.9232    2.6834   -0.0770 H   0  0  0  0  0  0  0  0  0  0  0  0
   -1.8525   -2.8561    0.6112 H   0  0  0  0  0  0  0  0  0  0  0  0
   -0.1347   -2.4168    0.5587 H   0  0  0  0  0  0  0  0  0  0  0  0
   -1.1585   -2.2629   -0.8895 H   0  0  0  0  0  0  0  0  0  0  0  0
   -3.7846    3.3662   -0.1832 H   0  0  0  0  0  0  0  0  0  0  0  0
   -5.3301    0.9218   -2.1059 H   0  0  0  0  0  0  0  0  0  0  0  0
   -6.9621   -0.4945   -1.5481 H   0  0  0  0  0  0  0  0  0  0  0  0
   -7.5574    0.6455   -0.3252 H   0  0  0  0  0  0  0  0  0  0  0  0
   -7.6891   -1.1019   -0.0630 H   0  0  0  0  0  0  0  0  0  0  0  0
    3.0217   -0.2342    1.3856 H   0  0  0  0  0  0  0  0  0  0  0  0
   -4.3936   -3.2310    0.9297 H   0  0  0  0  0  0  0  0  0  0  0  0
    4.0855   -0.8175   -1.4478 H   0  0  0  0  0  0  0  0  0  0  0  0
    5.3924   -0.7104    1.3697 H   0  0  0  0  0  0  0  0  0  0  0  0
    6.5901   -0.0641   -1.3748 H   0  0  0  0  0  0  0  0  0  0  0  0
    6.1778    1.1344   -0.1412 H   0  0  0  0  0  0  0  0  0  0  0  0
    8.2150   -1.1429    0.1930 H   0  0  0  0  0  0  0  0  0  0  0  0
    7.8299    0.0701    1.4158 H   0  0  0  0  0  0  0  0  0  0  0  0
    8.9700    0.6709   -1.3695 H   0  0  0  0  0  0  0  0  0  0  0  0
    8.6201    1.8752   -0.1276 H   0  0  0  0  0  0  0  0  0  0  0  0
    5.2161   -2.7975    0.4962 H   0  0  0  0  0  0  0  0  0  0  0  0
   11.0253    1.2985   -0.1466 H   0  0  0  0  0  0  0  0  0  0  0  0
   10.2969    0.7988    1.3896 H   0  0  0  0  0  0  0  0  0  0  0  0
   10.6476   -0.4092    0.1376 H   0  0  0  0  0  0  0  0  0  0  0  0
  1  9  1  0  0  0  0
  1 13  1  0  0  0  0
  2 10  1  0  0  0  0
  2 44  1  0  0  0  0
  3 12  1  0  0  0  0
  3 21  1  0  0  0  0
  4 14  1  0  0  0  0
  4 45  1  0  0  0  0
  5 20  1  0  0  0  0
  5 50  1  0  0  0  0
  6 20  2  0  0  0  0
  7 21  2  0  0  0  0
  8 24  1  0  0  0  0
  8 59  1  0  0  0  0
  9 10  1  0  0  0  0
  9 14  1  0  0  0  0
  9 15  1  0  0  0  0
 10 11  1  0  0  0  0
 10 29  1  0  0  0  0
 11 12  1  0  0  0  0
 11 17  1  0  0  0  0
 11 30  1  0  0  0  0
 12 13  1  0  0  0  0
 12 31  1  0  0  0  0
 13 18  1  0  0  0  0
 13 32  1  0  0  0  0
 14 16  1  0  0  0  0
 14 33  1  0  0  0  0
 15 34  1  0  0  0  0
 15 35  1  0  0  0  0
 15 36  1  0  0  0  0
 16 19  1  0  0  0  0
 16 20  1  0  0  0  0
 16 37  1  0  0  0  0
 17 38  1  0  0  0  0
 17 39  1  0  0  0  0
 17 40  1  0  0  0  0
 18 41  1  0  0  0  0
 18 42  1  0  0  0  0
 18 43  1  0  0  0  0
 19 46  1  0  0  0  0
 19 47  1  0  0  0  0
 19 48  1  0  0  0  0
 21 22  1  0  0  0  0
 22 23  2  0  0  0  0
 22 49  1  0  0  0  0
 23 24  1  0  0  0  0
 23 51  1  0  0  0  0
 24 25  1  0  0  0  0
 24 52  1  0  0  0  0
 25 26  1  0  0  0  0
 25 53  1  0  0  0  0
 25 54  1  0  0  0  0
 26 27  1  0  0  0  0
 26 55  1  0  0  0  0
 26 56  1  0  0  0  0
 27 28  1  0  0  0  0
 27 57  1  0  0  0  0
 27 58  1  0  0  0  0
 28 60  1  0  0  0  0
 28 61  1  0  0  0  0
 28 62  1  0  0  0  0
M  END
> <PUBCHEM_COMPOUND_CID>
11509607

> <PUBCHEM_CONFORMER_RMSD>
1

> <PUBCHEM_CONFORMER_DIVERSEORDER>
1
39
65
53
40
50
16
18
20
45
29
66
63
24
57
11
19
30
61
54
34
43
6
41
44
21
52
64
60
15
12
67
58
37
55
47
25
7
26
10
9
22
49
56
48
13
62
46
17
33
23
31
28
36
5
38
3
51
42
14
59
32
27
35
4
8
2

> <PUBCHEM_MMFF94_PARTIAL_CHARGES>
25
1 -0.56
10 0.28
12 0.28
13 0.28
14 0.28
16 0.06
2 -0.68
20 0.66
21 0.71
22 -0.14
23 -0.29
24 0.42
3 -0.43
4 -0.68
44 0.4
45 0.4
49 0.15
5 -0.65
50 0.5
51 0.15
59 0.4
6 -0.57
7 -0.57
8 -0.68
9 0.28

> <PUBCHEM_EFFECTIVE_ROTOR_COUNT>
11.2

> <PUBCHEM_PHARMACOPHORE_FEATURES>
14
1 1 acceptor
1 19 hydrophobe
1 2 acceptor
1 2 donor
1 28 hydrophobe
1 4 acceptor
1 4 donor
1 5 acceptor
1 6 acceptor
1 7 acceptor
1 8 acceptor
1 8 donor
3 5 6 20 anion
6 1 9 10 11 12 13 rings

> <PUBCHEM_HEAVY_ATOM_COUNT>
28

> <PUBCHEM_ATOM_DEF_STEREO_COUNT>
8

> <PUBCHEM_ATOM_UDEF_STEREO_COUNT>
0

> <PUBCHEM_BOND_DEF_STEREO_COUNT>
1

> <PUBCHEM_BOND_UDEF_STEREO_COUNT>
0

> <PUBCHEM_ISOTOPIC_ATOM_COUNT>
0

> <PUBCHEM_COMPONENT_COUNT>
1

> <PUBCHEM_CACTVS_TAUTO_COUNT>
1

> <PUBCHEM_CONFORMER_ID>
00AF9F6700000001

> <PUBCHEM_MMFF94_ENERGY>
67.3242

> <PUBCHEM_FEATURE_SELFOVERLAP>
71.124

> <PUBCHEM_SHAPE_FINGERPRINT>
10 15 18272647953336429898
10411042 1 18193840577627547547
10595046 47 18336546015618000346
11273773 118 13038916499199706010
11315181 36 18273497871049393505
11524674 6 16128651955396914079
11724838 91 18334013896543026652
12082328 90 16845298203212415032
12166972 35 17749113309078162733
12236239 1 17749389230762217042
12516196 113 18411138026754650344
13288520 33 18410855465246016395
14251764 18 18186519913324357866
14251764 46 18410573993757222990
14856354 85 15626218039678786389
15419008 47 17918268754107812344
15461852 350 18408889547077207918
15510794 2 18131637773719018118
15728490 51 18410854378656369966
16087824 20 18265614279107960965
17093844 174 17603867797220879681
17686467 74 18339639070491349880
17780758 139 17989212538623842291
18335252 98 18413110559241959186
18927931 339 18341900675662728199
20721686 56 18263083370068754160
21150785 3 17203608190844048156
21236236 1 18341051822447136721
21267235 1 18409450315477509859
21365058 27 15769775758611832804
23402539 116 18410572864481569703
23559900 14 18410005576706443353
335352 9 18410287013734979309
34797466 226 17917999378385828436
4325135 7 18412263943862519804
6126387 218 11891330972742951180
9953998 17 18060706082679873425

> <PUBCHEM_SHAPE_MULTIPOLES>
529.27
23.93
2.37
1.05
63.06
0.63
0.04
-2.2
-0.02
-2.63
0.05
-1.07
0.03
-0.19

> <PUBCHEM_SHAPE_SELFOVERLAP>
1059.916

> <PUBCHEM_SHAPE_VOLUME>
310.1

> <PUBCHEM_COORDINATE_TYPE>
2
5
10

$$$$
