115023
  -OEChem-03292013323D

 59 61  0     1  0  0  0  0  0999 V2000
    0.8702   -4.1827   -0.5879 O   0  0  0  0  0  0  0  0  0  0  0  0
    3.1519    2.7075   -0.1682 O   0  0  0  0  0  0  0  0  0  0  0  0
    1.4146    4.8446    0.2075 O   0  0  0  0  0  0  0  0  0  0  0  0
   -6.6828   -2.1119    0.0451 O   0  5  0  0  0  0  0  0  0  0  0  0
   -6.8977    0.0573    0.3047 O   0  0  0  0  0  0  0  0  0  0  0  0
    3.7992   -2.0100    0.0937 N   0  0  0  0  0  0  0  0  0  0  0  0
    0.2244   -1.4091   -0.4100 N   0  0  0  0  0  0  0  0  0  0  0  0
   -2.3065    1.8834    0.1561 N   0  0  0  0  0  0  0  0  0  0  0  0
   -6.1870   -0.9628    0.1345 N   0  3  0  0  0  0  0  0  0  0  0  0
    1.6726   -3.2838    0.1798 C   0  0  1  0  0  0  0  0  0  0  0  0
    2.8759   -2.8446   -0.6627 C   0  0  0  0  0  0  0  0  0  0  0  0
    0.7780   -2.1451    0.6767 C   0  0  0  0  0  0  0  0  0  0  0  0
   -0.6336   -0.2926   -0.2184 C   0  0  0  0  0  0  0  0  0  0  0  0
    4.5681   -2.8180    1.0427 C   0  0  0  0  0  0  0  0  0  0  0  0
    4.7027   -1.2909   -0.8072 C   0  0  0  0  0  0  0  0  0  0  0  0
   -0.0884    0.9912   -0.1148 C   0  0  0  0  0  0  0  0  0  0  0  0
   -2.0160   -0.4872   -0.1345 C   0  0  0  0  0  0  0  0  0  0  0  0
   -0.9742    2.0654    0.0748 C   0  0  0  0  0  0  0  0  0  0  0  0
   -2.8263    0.6449    0.0557 C   0  0  0  0  0  0  0  0  0  0  0  0
    1.2969    1.2160   -0.1954 C   0  0  0  0  0  0  0  0  0  0  0  0
    5.4866   -1.9493    1.8853 C   0  0  0  0  0  0  0  0  0  0  0  0
    5.5710   -2.2545   -1.5982 C   0  0  0  0  0  0  0  0  0  0  0  0
   -2.5910   -1.7661   -0.2351 C   0  0  0  0  0  0  0  0  0  0  0  0
   -0.4375    3.3460    0.1787 C   0  0  0  0  0  0  0  0  0  0  0  0
   -4.2034    0.4575    0.1402 C   0  0  0  0  0  0  0  0  0  0  0  0
    1.8080    2.5059   -0.0882 C   0  0  0  0  0  0  0  0  0  0  0  0
    0.9387    3.5729    0.0992 C   0  0  0  0  0  0  0  0  0  0  0  0
   -4.7782   -0.8120    0.0406 C   0  0  0  0  0  0  0  0  0  0  0  0
   -3.9706   -1.9263   -0.1475 C   0  0  0  0  0  0  0  0  0  0  0  0
    3.8891    2.6611    1.0523 C   0  0  0  0  0  0  0  0  0  0  0  0
    1.5453    5.5929   -0.9996 C   0  0  0  0  0  0  0  0  0  0  0  0
    1.9981   -3.8607    1.0512 H   0  0  0  0  0  0  0  0  0  0  0  0
    2.4948   -2.3104   -1.5436 H   0  0  0  0  0  0  0  0  0  0  0  0
    3.3621   -3.7451   -1.0611 H   0  0  0  0  0  0  0  0  0  0  0  0
   -0.0356   -2.5758    1.2731 H   0  0  0  0  0  0  0  0  0  0  0  0
    1.3491   -1.4861    1.3406 H   0  0  0  0  0  0  0  0  0  0  0  0
   -0.0113   -1.9538   -1.2360 H   0  0  0  0  0  0  0  0  0  0  0  0
    5.1263   -3.6410    0.5829 H   0  0  0  0  0  0  0  0  0  0  0  0
    3.8826   -3.2900    1.7551 H   0  0  0  0  0  0  0  0  0  0  0  0
    5.3196   -0.5600   -0.2738 H   0  0  0  0  0  0  0  0  0  0  0  0
    4.1108   -0.6859   -1.5066 H   0  0  0  0  0  0  0  0  0  0  0  0
    1.9970    0.3997   -0.3497 H   0  0  0  0  0  0  0  0  0  0  0  0
    5.8648   -2.5307    2.7337 H   0  0  0  0  0  0  0  0  0  0  0  0
    4.9590   -1.0815    2.2961 H   0  0  0  0  0  0  0  0  0  0  0  0
    6.3623   -1.6006    1.3297 H   0  0  0  0  0  0  0  0  0  0  0  0
    6.2834   -2.8078   -0.9804 H   0  0  0  0  0  0  0  0  0  0  0  0
    5.0015   -2.9605   -2.2084 H   0  0  0  0  0  0  0  0  0  0  0  0
    6.1782   -1.6730   -2.3030 H   0  0  0  0  0  0  0  0  0  0  0  0
    1.4300   -4.9375   -0.8378 H   0  0  0  0  0  0  0  0  0  0  0  0
   -1.9915   -2.6601   -0.3846 H   0  0  0  0  0  0  0  0  0  0  0  0
   -1.1047    4.1940    0.3269 H   0  0  0  0  0  0  0  0  0  0  0  0
   -4.8258    1.3393    0.2882 H   0  0  0  0  0  0  0  0  0  0  0  0
   -4.3774   -2.9306   -0.2300 H   0  0  0  0  0  0  0  0  0  0  0  0
    4.9406    2.8559    0.8247 H   0  0  0  0  0  0  0  0  0  0  0  0
    3.8081    1.6700    1.5101 H   0  0  0  0  0  0  0  0  0  0  0  0
    3.5331    3.4276    1.7478 H   0  0  0  0  0  0  0  0  0  0  0  0
    1.9411    6.5808   -0.7491 H   0  0  0  0  0  0  0  0  0  0  0  0
    0.5700    5.7180   -1.4807 H   0  0  0  0  0  0  0  0  0  0  0  0
    2.2421    5.1002   -1.6850 H   0  0  0  0  0  0  0  0  0  0  0  0
  1 10  1  0  0  0  0
  1 49  1  0  0  0  0
  2 26  1  0  0  0  0
  2 30  1  0  0  0  0
  3 27  1  0  0  0  0
  3 31  1  0  0  0  0
  4  9  1  0  0  0  0
  5  9  2  0  0  0  0
  6 11  1  0  0  0  0
  6 14  1  0  0  0  0
  6 15  1  0  0  0  0
  7 12  1  0  0  0  0
  7 13  1  0  0  0  0
  7 37  1  0  0  0  0
  8 18  1  0  0  0  0
  8 19  2  0  0  0  0
  9 28  1  0  0  0  0
 10 11  1  0  0  0  0
 10 12  1  0  0  0  0
 10 32  1  0  0  0  0
 11 33  1  0  0  0  0
 11 34  1  0  0  0  0
 12 35  1  0  0  0  0
 12 36  1  0  0  0  0
 13 16  1  0  0  0  0
 13 17  2  0  0  0  0
 14 21  1  0  0  0  0
 14 38  1  0  0  0  0
 14 39  1  0  0  0  0
 15 22  1  0  0  0  0
 15 40  1  0  0  0  0
 15 41  1  0  0  0  0
 16 18  1  0  0  0  0
 16 20  2  0  0  0  0
 17 19  1  0  0  0  0
 17 23  1  0  0  0  0
 18 24  2  0  0  0  0
 19 25  1  0  0  0  0
 20 26  1  0  0  0  0
 20 42  1  0  0  0  0
 21 43  1  0  0  0  0
 21 44  1  0  0  0  0
 21 45  1  0  0  0  0
 22 46  1  0  0  0  0
 22 47  1  0  0  0  0
 22 48  1  0  0  0  0
 23 29  2  0  0  0  0
 23 50  1  0  0  0  0
 24 27  1  0  0  0  0
 24 51  1  0  0  0  0
 25 28  2  0  0  0  0
 25 52  1  0  0  0  0
 26 27  2  0  0  0  0
 28 29  1  0  0  0  0
 29 53  1  0  0  0  0
 30 54  1  0  0  0  0
 30 55  1  0  0  0  0
 30 56  1  0  0  0  0
 31 57  1  0  0  0  0
 31 58  1  0  0  0  0
 31 59  1  0  0  0  0
M  CHG  2   4  -1   9   1
M  END
> <PUBCHEM_COMPOUND_CID>
115023

> <PUBCHEM_CONFORMER_RMSD>
1

> <PUBCHEM_CONFORMER_DIVERSEORDER>
1
24
17
20
38
43
23
13
19
4
22
32
6
34
16
35
39
9
29
15
14
41
30
2
33
26
12
25
31
42
40
11
37
27
5
21
36
28
10
3
7
18
8

> <PUBCHEM_MMFF94_PARTIAL_CHARGES>
34
1 -0.68
10 0.28
11 0.27
12 0.37
13 0.1
14 0.27
15 0.27
18 0.31
19 0.31
2 -0.36
20 -0.15
23 -0.15
24 -0.15
25 -0.15
26 0.08
27 0.08
28 0.13
29 -0.15
3 -0.36
30 0.28
31 0.28
37 0.4
4 -0.52
42 0.15
49 0.4
5 -0.52
50 0.15
51 0.15
52 0.15
53 0.15
6 -0.81
7 -0.87
8 -0.62
9 0.91

> <PUBCHEM_EFFECTIVE_ROTOR_COUNT>
10

> <PUBCHEM_PHARMACOPHORE_FEATURES>
14
1 1 acceptor
1 1 donor
1 2 acceptor
1 3 acceptor
1 4 acceptor
1 4 anion
1 5 acceptor
1 6 cation
1 7 cation
1 7 donor
1 8 acceptor
6 16 18 20 24 26 27 rings
6 17 19 23 25 28 29 rings
6 8 13 16 17 18 19 rings

> <PUBCHEM_HEAVY_ATOM_COUNT>
31

> <PUBCHEM_ATOM_DEF_STEREO_COUNT>
0

> <PUBCHEM_ATOM_UDEF_STEREO_COUNT>
1

> <PUBCHEM_BOND_DEF_STEREO_COUNT>
0

> <PUBCHEM_BOND_UDEF_STEREO_COUNT>
0

> <PUBCHEM_ISOTOPIC_ATOM_COUNT>
0

> <PUBCHEM_COMPONENT_COUNT>
1

> <PUBCHEM_CACTVS_TAUTO_COUNT>
2

> <PUBCHEM_CONFORMER_ID>
0001C14F00000001

> <PUBCHEM_MMFF94_ENERGY>
127.8691

> <PUBCHEM_FEATURE_SELFOVERLAP>
71.197

> <PUBCHEM_SHAPE_FINGERPRINT>
10411042 1 18338518538608045558
10670039 82 18121230779760502414
10675989 125 16756611933801333223
1100329 8 18051697642596899537
11578080 2 17314492760887647519
11963148 33 17904759235036816043
12166972 35 17677056737649120246
12553582 1 18339637824476366022
12788726 201 18117849789598705010
13140716 1 18340763737516238288
1361 2 18339078297712022082
13785724 45 18341057341158456044
138480 1 18410856555360893429
14394314 77 18338526227000867272
14725015 67 18337380544906786794
14787075 74 18114754719826927066
14790565 3 17905893931088882581
15400415 2 17618223249131802149
15684973 49 17122811914422354180
15927050 60 17908427205451718662
16087824 20 17978232661091508469
19591789 44 18411702075860938420
19930381 70 18410571808067268800
20028762 73 17839740705527222023
20642791 35 18411139147045289050
21049683 271 18260561038637945351
22311459 1 18266460004474108796
23559900 14 18410008866925458139
24771293 8 18201706380121395522
24771750 20 18190755317338521637
4058900 60 17976275847403787909
469060 322 18268158547985077834
5104073 3 18341344379019882779
5309563 4 18411420566413648084
532947 4 18339644567627462742

> <PUBCHEM_SHAPE_MULTIPOLES>
588.69
12.29
6.57
1
10.79
8.03
-0.09
-11.92
-1.18
-6.39
0.73
-1.7
-0.34
-0.03

> <PUBCHEM_SHAPE_SELFOVERLAP>
1256.721

> <PUBCHEM_SHAPE_VOLUME>
329.7

> <PUBCHEM_COORDINATE_TYPE>
2
5
10

$$$$
