11508879
  -OEChem-03292013303D

 44 46  0     1  0  0  0  0  0999 V2000
    1.7392    1.2998   -0.5570 O   0  0  0  0  0  0  0  0  0  0  0  0
    0.1879   -0.2650   -1.3242 O   0  0  0  0  0  0  0  0  0  0  0  0
    4.6951   -1.5434   -0.3420 O   0  0  0  0  0  0  0  0  0  0  0  0
    5.0097    0.9663    1.0574 O   0  0  0  0  0  0  0  0  0  0  0  0
    1.8613   -2.3482   -0.3924 O   0  0  0  0  0  0  0  0  0  0  0  0
    1.9770    3.8515    0.4373 O   0  0  0  0  0  0  0  0  0  0  0  0
   -3.0955    2.8561    0.3103 O   0  0  0  0  0  0  0  0  0  0  0  0
   -0.6799   -4.1031    1.6694 O   0  0  0  0  0  0  0  0  0  0  0  0
   -1.3097   -1.9114    1.6024 O   0  0  0  0  0  0  0  0  0  0  0  0
    3.6019   -0.7681    0.1523 C   0  0  1  0  0  0  0  0  0  0  0  0
    3.9998    0.7065    0.0860 C   0  0  1  0  0  0  0  0  0  0  0  0
    2.3585   -1.0444   -0.6930 C   0  0  2  0  0  0  0  0  0  0  0  0
    2.7927    1.6074    0.3576 C   0  0  1  0  0  0  0  0  0  0  0  0
    1.2517   -0.0310   -0.4020 C   0  0  1  0  0  0  0  0  0  0  0  0
    3.1383    3.0828    0.1817 C   0  0  0  0  0  0  0  0  0  0  0  0
   -1.0738    0.0429   -0.8946 C   0  0  0  0  0  0  0  0  0  0  0  0
   -2.0621   -0.9414   -0.8258 C   0  0  0  0  0  0  0  0  0  0  0  0
   -1.3381    1.3650   -0.5269 C   0  0  0  0  0  0  0  0  0  0  0  0
   -2.6333    1.6388   -0.0916 C   0  0  0  0  0  0  0  0  0  0  0  0
   -3.6455    0.6881   -0.0083 C   0  0  0  0  0  0  0  0  0  0  0  0
   -3.3566   -0.6354   -0.3840 C   0  0  0  0  0  0  0  0  0  0  0  0
   -1.7711   -2.3168   -1.2127 C   0  0  0  0  0  0  0  0  0  0  0  0
   -4.7867    1.3811    0.4749 C   0  0  0  0  0  0  0  0  0  0  0  0
   -4.4002    2.6895    0.6513 C   0  0  0  0  0  0  0  0  0  0  0  0
   -1.3375   -3.2843   -0.3778 C   0  0  0  0  0  0  0  0  0  0  0  0
   -1.1230   -2.9831    1.0517 C   0  0  0  0  0  0  0  0  0  0  0  0
    3.4415   -1.0855    1.1901 H   0  0  0  0  0  0  0  0  0  0  0  0
    4.4292    0.9240   -0.8997 H   0  0  0  0  0  0  0  0  0  0  0  0
    2.6151   -1.0412   -1.7591 H   0  0  0  0  0  0  0  0  0  0  0  0
    2.4179    1.4670    1.3807 H   0  0  0  0  0  0  0  0  0  0  0  0
    0.8818   -0.1706    0.6246 H   0  0  0  0  0  0  0  0  0  0  0  0
    3.4645    3.2995   -0.8409 H   0  0  0  0  0  0  0  0  0  0  0  0
    3.9211    3.4004    0.8763 H   0  0  0  0  0  0  0  0  0  0  0  0
    5.4709   -1.3354    0.2064 H   0  0  0  0  0  0  0  0  0  0  0  0
    4.6354    0.7831    1.9361 H   0  0  0  0  0  0  0  0  0  0  0  0
    1.6556   -2.3800    0.5574 H   0  0  0  0  0  0  0  0  0  0  0  0
    1.2963    3.5759   -0.2000 H   0  0  0  0  0  0  0  0  0  0  0  0
   -0.6011    2.1546   -0.5886 H   0  0  0  0  0  0  0  0  0  0  0  0
   -4.1285   -1.3986   -0.3293 H   0  0  0  0  0  0  0  0  0  0  0  0
   -1.9201   -2.5529   -2.2630 H   0  0  0  0  0  0  0  0  0  0  0  0
   -5.7696    0.9762    0.6703 H   0  0  0  0  0  0  0  0  0  0  0  0
   -4.9094    3.5782    0.9945 H   0  0  0  0  0  0  0  0  0  0  0  0
   -1.1396   -4.2851   -0.7449 H   0  0  0  0  0  0  0  0  0  0  0  0
   -0.5208   -3.9562    2.6262 H   0  0  0  0  0  0  0  0  0  0  0  0
  1 13  1  0  0  0  0
  1 14  1  0  0  0  0
  2 14  1  0  0  0  0
  2 16  1  0  0  0  0
  3 10  1  0  0  0  0
  3 34  1  0  0  0  0
  4 11  1  0  0  0  0
  4 35  1  0  0  0  0
  5 12  1  0  0  0  0
  5 36  1  0  0  0  0
  6 15  1  0  0  0  0
  6 37  1  0  0  0  0
  7 19  1  0  0  0  0
  7 24  1  0  0  0  0
  8 26  1  0  0  0  0
  8 44  1  0  0  0  0
  9 26  2  0  0  0  0
 10 11  1  0  0  0  0
 10 12  1  0  0  0  0
 10 27  1  0  0  0  0
 11 13  1  0  0  0  0
 11 28  1  0  0  0  0
 12 14  1  0  0  0  0
 12 29  1  0  0  0  0
 13 15  1  0  0  0  0
 13 30  1  0  0  0  0
 14 31  1  0  0  0  0
 15 32  1  0  0  0  0
 15 33  1  0  0  0  0
 16 17  2  0  0  0  0
 16 18  1  0  0  0  0
 17 21  1  0  0  0  0
 17 22  1  0  0  0  0
 18 19  2  0  0  0  0
 18 38  1  0  0  0  0
 19 20  1  0  0  0  0
 20 21  2  0  0  0  0
 20 23  1  0  0  0  0
 21 39  1  0  0  0  0
 22 25  2  0  0  0  0
 22 40  1  0  0  0  0
 23 24  2  0  0  0  0
 23 41  1  0  0  0  0
 24 42  1  0  0  0  0
 25 26  1  0  0  0  0
 25 43  1  0  0  0  0
M  END
> <PUBCHEM_COMPOUND_CID>
11508879

> <PUBCHEM_CONFORMER_RMSD>
0.8

> <PUBCHEM_CONFORMER_DIVERSEORDER>
2
127
147
46
126
128
20
81
37
103
142
153
89
100
140
116
122
44
137
131
133
96
35
87
145
115
30
113
93
148
76
86
121
53
144
119
125
134
45
141
6
22
69
84
55
132
92
151
118
17
72
143
94
150
97
90
91
80
139
36
11
112
129
73
64
62
24
135
34
154
85
109
12
49
82
71
123
58
120
5
51
4
152
60
124
111
28
149
1
77
146
88
40
10
33
41
79
9
102
105
67
61
19
57
107
7
18
50
27
65
25
138
43
78
104
83
95
3
74
47
56
54
42
26
29
108
101
39
114
106
63
16
21
75
59
32
136
8
38
48
99
13
14
23
52
66
117
130
15
68
70
110
31
98

> <PUBCHEM_MMFF94_PARTIAL_CHARGES>
36
1 -0.56
10 0.28
11 0.28
12 0.28
13 0.28
14 0.56
15 0.28
16 0.08
17 0.03
18 -0.15
19 0.14
2 -0.36
21 -0.15
22 -0.18
23 -0.15
24 -0.01
25 -0.14
26 0.71
3 -0.68
34 0.4
35 0.4
36 0.4
37 0.4
38 0.15
39 0.15
4 -0.68
40 0.15
41 0.15
42 0.15
43 0.15
44 0.5
5 -0.68
6 -0.68
7 -0.28
8 -0.65
9 -0.57

> <PUBCHEM_EFFECTIVE_ROTOR_COUNT>
6.2

> <PUBCHEM_PHARMACOPHORE_FEATURES>
17
1 1 acceptor
1 2 acceptor
1 3 acceptor
1 3 donor
1 4 acceptor
1 4 donor
1 5 acceptor
1 5 donor
1 6 acceptor
1 6 donor
1 7 acceptor
1 8 acceptor
1 9 acceptor
3 8 9 26 anion
5 7 19 20 23 24 rings
6 1 10 11 12 13 14 rings
6 16 17 18 19 20 21 rings

> <PUBCHEM_HEAVY_ATOM_COUNT>
26

> <PUBCHEM_ATOM_DEF_STEREO_COUNT>
5

> <PUBCHEM_ATOM_UDEF_STEREO_COUNT>
0

> <PUBCHEM_BOND_DEF_STEREO_COUNT>
1

> <PUBCHEM_BOND_UDEF_STEREO_COUNT>
0

> <PUBCHEM_ISOTOPIC_ATOM_COUNT>
0

> <PUBCHEM_COMPONENT_COUNT>
1

> <PUBCHEM_CACTVS_TAUTO_COUNT>
1

> <PUBCHEM_CONFORMER_ID>
00AF9C8F00000002

> <PUBCHEM_MMFF94_ENERGY>
76.9107

> <PUBCHEM_FEATURE_SELFOVERLAP>
86.498

> <PUBCHEM_SHAPE_FINGERPRINT>
10366900 7 18125715940232914396
10616163 171 18196652019578291588
1100329 8 18411981317396645784
11370993 70 18411698759977315905
12633257 1 18261375768233043592
12788726 201 17974022922593397175
13004483 165 17910100653522712591
13135754 10 17314818349431783515
13140716 1 18049162473097704335
13583140 156 18118121377829849109
14081887 123 18049161369190707216
14178342 30 18189616227476297054
14223421 5 18124317361605790220
14466204 15 18122906417251349864
14955137 171 17686332071237650290
15238133 3 18338242574728640164
15295992 7 18336276677496142795
21033648 29 18187909652102367533
21524375 3 18338521824827440703
21731228 192 18409736123369236375
21857420 4 12015007149115787594
23227448 37 18343017817666835741
23419403 2 16314403763574163671
23558518 356 18338234972256451759
23559900 14 18201719522947752270
3380486 145 17614852146480599563
3493558 16 14902569793001460843
392239 28 18337963371952867331
474 4 18412822473672341517
5081480 168 17199712620830489908
5104073 3 18413102849305963738
58807428 26 18262519182858185555
7097593 13 18409438172918999486
81228 2 18043811098745305535
9709674 26 18341050825867187054
9981440 41 18127397072031452088

> <PUBCHEM_SHAPE_MULTIPOLES>
482.24
8.69
4.57
1.12
3.5
0.94
-0.2
-5.61
-1.42
-0.99
-1.5
-0.27
0.77
0.11

> <PUBCHEM_SHAPE_SELFOVERLAP>
1042.995

> <PUBCHEM_SHAPE_VOLUME>
262.1

> <PUBCHEM_COORDINATE_TYPE>
2
5
10

$$$$
