115005
  -OEChem-03292013323D

 49 52  0     1  0  0  0  0  0999 V2000
    3.0706    3.0333   -0.3177 S   0  0  0  0  0  0  0  0  0  0  0  0
    3.5459    1.4738   -0.2321 O   0  0  0  0  0  0  0  0  0  0  0  0
   -3.0074   -2.7654   -0.7455 O   0  0  0  0  0  0  0  0  0  0  0  0
    3.3674    3.4402   -1.8694 O   0  0  0  0  0  0  0  0  0  0  0  0
    1.6324    3.0600   -0.1264 O   0  0  0  0  0  0  0  0  0  0  0  0
    3.9333    3.8378    0.5274 O   0  0  0  0  0  0  0  0  0  0  0  0
   -4.4734    1.7652   -2.2664 O   0  0  0  0  0  0  0  0  0  0  0  0
   -5.4229    1.4290    2.2415 O   0  0  0  0  0  0  0  0  0  0  0  0
    1.7059   -1.3882   -0.0453 N   0  0  0  0  0  0  0  0  0  0  0  0
   -0.2479   -2.6315   -0.3896 N   0  0  0  0  0  0  0  0  0  0  0  0
    1.9539   -3.5997   -0.4948 N   0  0  0  0  0  0  0  0  0  0  0  0
   -3.5375    0.0645   -1.0318 N   0  0  0  0  0  0  0  0  0  0  0  0
   -4.9629    1.6194   -0.0175 N   0  0  0  0  0  0  0  0  0  0  0  0
    1.0354   -0.1211    0.1455 C   0  0  2  0  0  0  0  0  0  0  0  0
    3.1275   -1.4668   -0.2609 C   0  0  1  0  0  0  0  0  0  0  0  0
    3.8693   -0.7093    0.8453 C   0  0  2  0  0  0  0  0  0  0  0  0
    1.7902    0.6955    1.2094 C   0  0  0  0  0  0  0  0  0  0  0  0
    3.3070    0.7284    0.9591 C   0  0  2  0  0  0  0  0  0  0  0  0
   -0.4159   -0.3901    0.5773 C   0  0  0  0  0  0  0  0  0  0  0  0
   -1.0737   -1.4294   -0.3460 C   0  0  2  0  0  0  0  0  0  0  0  0
    1.1237   -2.5971   -0.3159 C   0  0  0  0  0  0  0  0  0  0  0  0
    3.3100   -2.9961   -0.2689 C   0  0  0  0  0  0  0  0  0  0  0  0
    5.3776   -0.7212    0.5958 C   0  0  0  0  0  0  0  0  0  0  0  0
   -2.4736   -1.7858    0.1383 C   0  0  1  0  0  0  0  0  0  0  0  0
   -3.3680   -0.5922    0.1645 C   0  0  0  0  0  0  0  0  0  0  0  0
   -3.9795   -0.1691    1.2792 C   0  0  0  0  0  0  0  0  0  0  0  0
   -4.3327    1.1901   -1.1864 C   0  0  0  0  0  0  0  0  0  0  0  0
   -4.8547    1.0259    1.2309 C   0  0  0  0  0  0  0  0  0  0  0  0
    1.0294    0.4212   -0.8076 H   0  0  0  0  0  0  0  0  0  0  0  0
    3.3696   -1.0620   -1.2520 H   0  0  0  0  0  0  0  0  0  0  0  0
    3.6872   -1.2100    1.8067 H   0  0  0  0  0  0  0  0  0  0  0  0
    1.3195    1.6535    1.4189 H   0  0  0  0  0  0  0  0  0  0  0  0
    1.6682    0.1641    2.1672 H   0  0  0  0  0  0  0  0  0  0  0  0
    3.8031    1.2403    1.7928 H   0  0  0  0  0  0  0  0  0  0  0  0
   -0.4300   -0.7648    1.6103 H   0  0  0  0  0  0  0  0  0  0  0  0
   -0.9651    0.5581    0.5709 H   0  0  0  0  0  0  0  0  0  0  0  0
   -1.0979   -1.0381   -1.3708 H   0  0  0  0  0  0  0  0  0  0  0  0
    3.9895   -3.3043   -1.0701 H   0  0  0  0  0  0  0  0  0  0  0  0
    3.7026   -3.3739    0.6819 H   0  0  0  0  0  0  0  0  0  0  0  0
   -0.7070   -3.5074   -0.6230 H   0  0  0  0  0  0  0  0  0  0  0  0
    5.6289   -0.2659   -0.3679 H   0  0  0  0  0  0  0  0  0  0  0  0
    5.9018   -0.1642    1.3795 H   0  0  0  0  0  0  0  0  0  0  0  0
    5.7677   -1.7440    0.5970 H   0  0  0  0  0  0  0  0  0  0  0  0
   -2.4199   -2.2582    1.1271 H   0  0  0  0  0  0  0  0  0  0  0  0
   -3.0032   -2.4034   -1.6478 H   0  0  0  0  0  0  0  0  0  0  0  0
   -3.0635   -0.2948   -1.8544 H   0  0  0  0  0  0  0  0  0  0  0  0
   -3.8604   -0.6695    2.2332 H   0  0  0  0  0  0  0  0  0  0  0  0
    4.2563    3.1827   -2.2098 H   0  0  0  0  0  0  0  0  0  0  0  0
   -5.5552    2.4419   -0.0889 H   0  0  0  0  0  0  0  0  0  0  0  0
  1  2  1  0  0  0  0
  1  4  1  0  0  0  0
  1  5  2  0  0  0  0
  1  6  2  0  0  0  0
  2 18  1  0  0  0  0
  3 24  1  0  0  0  0
  3 45  1  0  0  0  0
  4 48  1  0  0  0  0
  7 27  2  0  0  0  0
  8 28  2  0  0  0  0
  9 14  1  0  0  0  0
  9 15  1  0  0  0  0
  9 21  1  0  0  0  0
 10 20  1  0  0  0  0
 10 21  1  0  0  0  0
 10 40  1  0  0  0  0
 11 21  2  0  0  0  0
 11 22  1  0  0  0  0
 12 25  1  0  0  0  0
 12 27  1  0  0  0  0
 12 46  1  0  0  0  0
 13 27  1  0  0  0  0
 13 28  1  0  0  0  0
 13 49  1  0  0  0  0
 14 17  1  0  0  0  0
 14 19  1  0  0  0  0
 14 29  1  0  0  0  0
 15 16  1  0  0  0  0
 15 22  1  0  0  0  0
 15 30  1  0  0  0  0
 16 18  1  0  0  0  0
 16 23  1  0  0  0  0
 16 31  1  0  0  0  0
 17 18  1  0  0  0  0
 17 32  1  0  0  0  0
 17 33  1  0  0  0  0
 18 34  1  0  0  0  0
 19 20  1  0  0  0  0
 19 35  1  0  0  0  0
 19 36  1  0  0  0  0
 20 24  1  0  0  0  0
 20 37  1  0  0  0  0
 22 38  1  0  0  0  0
 22 39  1  0  0  0  0
 23 41  1  0  0  0  0
 23 42  1  0  0  0  0
 23 43  1  0  0  0  0
 24 25  1  0  0  0  0
 24 44  1  0  0  0  0
 25 26  2  0  0  0  0
 26 28  1  0  0  0  0
 26 47  1  0  0  0  0
M  END
> <PUBCHEM_COMPOUND_CID>
115005

> <PUBCHEM_CONFORMER_RMSD>
0.8

> <PUBCHEM_CONFORMER_DIVERSEORDER>
1
16
19
7
10
18
5
6
17
9
4
14
2
12
3
15
8
11
13

> <PUBCHEM_MMFF94_PARTIAL_CHARGES>
30
1 1.67
10 -0.82
11 -0.7
12 -0.54
13 -0.49
14 0.37
15 0.37
18 0.28
2 -0.46
20 0.37
21 0.55
22 0.25
24 0.42
25 -0.03
26 -0.14
27 0.69
28 0.62
3 -0.68
4 -0.68
40 0.4
45 0.4
46 0.37
47 0.15
48 0.5
49 0.37
5 -0.65
6 -0.65
7 -0.57
8 -0.57
9 -0.79

> <PUBCHEM_EFFECTIVE_ROTOR_COUNT>
5.4

> <PUBCHEM_PHARMACOPHORE_FEATURES>
16
1 10 donor
1 12 donor
1 13 donor
1 3 acceptor
1 3 donor
1 4 acceptor
1 5 acceptor
1 6 acceptor
1 7 acceptor
1 8 acceptor
4 1 4 5 6 anion
4 9 10 11 21 cation
5 9 11 15 21 22 rings
6 12 13 25 26 27 28 rings
6 9 10 14 19 20 21 rings
6 9 14 15 16 17 18 rings

> <PUBCHEM_HEAVY_ATOM_COUNT>
28

> <PUBCHEM_ATOM_DEF_STEREO_COUNT>
6

> <PUBCHEM_ATOM_UDEF_STEREO_COUNT>
0

> <PUBCHEM_BOND_DEF_STEREO_COUNT>
0

> <PUBCHEM_BOND_UDEF_STEREO_COUNT>
0

> <PUBCHEM_ISOTOPIC_ATOM_COUNT>
0

> <PUBCHEM_COMPONENT_COUNT>
1

> <PUBCHEM_CACTVS_TAUTO_COUNT>
12

> <PUBCHEM_CONFORMER_ID>
0001C13D00000001

> <PUBCHEM_MMFF94_ENERGY>
69.1854

> <PUBCHEM_FEATURE_SELFOVERLAP>
81.524

> <PUBCHEM_SHAPE_FINGERPRINT>
10670039 82 18048323541747606372
10928967 22 7997692051351211105
11135609 201 17984429804054589153
12173636 292 17836078245201016486
12403260 363 18268414910061739294
12422481 6 17971164102399163648
12633257 1 18335975415452046827
12788726 201 16629693821006667779
13140716 1 18337956791350917002
13583140 156 17676762077043176395
14251764 75 18194133034086866024
14790565 3 18195530518124512136
14848178 96 18342450465319389873
15003188 100 18263907883598489381
15081414 286 18268434542520285974
15163728 17 18119267291856990916
151778 21 18336834189899998580
1601671 61 18411135819051951850
16991981 162 16022581261354332932
18785283 64 18334585654287396750
20642791 178 18339085994588685634
20739085 24 18126576626088940954
21033648 144 18262232343135259620
21033648 29 17896883154162664431
21304253 335 18130783478109676722
21421861 104 18191018998493416242
21709351 56 18341043090641818350
21860390 5 18130224848561384102
23559900 14 18343017766438958114
338550 245 18055928601462466449
350125 39 18342176726175261371
474 4 18412544314457817467
5081480 168 17914349973631393439
5104073 3 18335979878213407050
5252454 2 18268720565920273009
543358 83 18200876175701477290
57724786 102 18340779139310835113
6086070 43 17971162920697367239
6287921 2 18334299798470580917
633830 44 18059584610636379901

> <PUBCHEM_SHAPE_MULTIPOLES>
514.09
11.56
4.34
1.39
9.19
1.39
0.08
5.63
-1.55
-4.86
1.43
1.62
0.92
-0.42

> <PUBCHEM_SHAPE_SELFOVERLAP>
1092.67

> <PUBCHEM_SHAPE_VOLUME>
287.9

> <PUBCHEM_COORDINATE_TYPE>
2
5
10

$$$$
