11504295
  -OEChem-03292013303D

 54 56  0     1  0  0  0  0  0999 V2000
    1.8585    1.3611    2.8631 O   0  0  0  0  0  0  0  0  0  0  0  0
    3.5236   -1.4392    0.9671 O   0  0  0  0  0  0  0  0  0  0  0  0
    3.6521    3.4867   -1.5119 O   0  0  0  0  0  0  0  0  0  0  0  0
   -7.8900    0.0285   -0.4447 O   0  0  0  0  0  0  0  0  0  0  0  0
    6.2718   -3.0679   -0.7222 O   0  0  0  0  0  0  0  0  0  0  0  0
   -0.0579   -0.2507    0.1056 N   0  0  0  0  0  0  0  0  0  0  0  0
    5.4664   -0.9355   -1.0256 N   0  0  0  0  0  0  0  0  0  0  0  0
   -1.4100   -0.0604   -0.3968 C   0  0  0  0  0  0  0  0  0  0  0  0
   -2.3926   -0.3299    0.7734 C   0  0  0  0  0  0  0  0  0  0  0  0
    0.2139    0.6555    1.2191 C   0  0  0  0  0  0  0  0  0  0  0  0
   -1.6043   -1.0436   -1.5592 C   0  0  0  0  0  0  0  0  0  0  0  0
   -1.5017    1.3814   -0.9146 C   0  0  0  0  0  0  0  0  0  0  0  0
    1.6465    0.4751    1.7569 C   0  0  1  0  0  0  0  0  0  0  0  0
   -3.8654   -0.2344    0.4473 C   0  0  0  0  0  0  0  0  0  0  0  0
    2.6787    0.7480    0.7124 C   0  0  0  0  0  0  0  0  0  0  0  0
    3.6181   -0.2203    0.3567 C   0  0  0  0  0  0  0  0  0  0  0  0
   -4.5111    0.9832    0.5826 C   0  0  0  0  0  0  0  0  0  0  0  0
   -4.5394   -1.3658    0.0192 C   0  0  0  0  0  0  0  0  0  0  0  0
    2.6965    1.9958    0.0882 C   0  0  0  0  0  0  0  0  0  0  0  0
    4.5592    0.0544   -0.6341 C   0  0  0  0  0  0  0  0  0  0  0  0
    3.6419    2.2704   -0.9005 C   0  0  0  0  0  0  0  0  0  0  0  0
    4.5721    1.2980   -1.2686 C   0  0  0  0  0  0  0  0  0  0  0  0
   -5.8700    1.0720    0.2812 C   0  0  0  0  0  0  0  0  0  0  0  0
   -5.8984   -1.2772   -0.2823 C   0  0  0  0  0  0  0  0  0  0  0  0
    4.7028   -2.2174    0.8927 C   0  0  0  0  0  0  0  0  0  0  0  0
   -6.5637   -0.0583   -0.1513 C   0  0  0  0  0  0  0  0  0  0  0  0
    5.5401   -2.1441   -0.3726 C   0  0  0  0  0  0  0  0  0  0  0  0
   -8.5379   -1.1653   -0.8813 C   0  0  0  0  0  0  0  0  0  0  0  0
   -2.2578    0.3748    1.6009 H   0  0  0  0  0  0  0  0  0  0  0  0
   -2.1989   -1.3230    1.2048 H   0  0  0  0  0  0  0  0  0  0  0  0
    0.0771   -1.2144    0.4109 H   0  0  0  0  0  0  0  0  0  0  0  0
   -0.4155    0.4542    2.0909 H   0  0  0  0  0  0  0  0  0  0  0  0
    0.0714    1.7116    0.9752 H   0  0  0  0  0  0  0  0  0  0  0  0
   -2.5671   -0.8946   -2.0593 H   0  0  0  0  0  0  0  0  0  0  0  0
   -0.8278   -0.9130   -2.3232 H   0  0  0  0  0  0  0  0  0  0  0  0
   -1.5589   -2.0842   -1.2174 H   0  0  0  0  0  0  0  0  0  0  0  0
   -2.3788    1.4986   -1.5633 H   0  0  0  0  0  0  0  0  0  0  0  0
   -0.6315    1.6531   -1.5252 H   0  0  0  0  0  0  0  0  0  0  0  0
   -1.6143    2.1267   -0.1207 H   0  0  0  0  0  0  0  0  0  0  0  0
    1.7309   -0.5372    2.1671 H   0  0  0  0  0  0  0  0  0  0  0  0
   -3.9829    1.8701    0.9202 H   0  0  0  0  0  0  0  0  0  0  0  0
   -4.0306   -2.3201   -0.0836 H   0  0  0  0  0  0  0  0  0  0  0  0
    1.9831    2.7661    0.3700 H   0  0  0  0  0  0  0  0  0  0  0  0
    2.8024    1.3312    3.0961 H   0  0  0  0  0  0  0  0  0  0  0  0
    5.2995    1.5136   -2.0473 H   0  0  0  0  0  0  0  0  0  0  0  0
   -6.3830    2.0241    0.3855 H   0  0  0  0  0  0  0  0  0  0  0  0
   -6.3759   -2.1935   -0.6122 H   0  0  0  0  0  0  0  0  0  0  0  0
    6.0712   -0.7594   -1.8224 H   0  0  0  0  0  0  0  0  0  0  0  0
    4.4043   -3.2629    1.0280 H   0  0  0  0  0  0  0  0  0  0  0  0
    5.3493   -1.9502    1.7375 H   0  0  0  0  0  0  0  0  0  0  0  0
    2.9405    4.0343   -1.1382 H   0  0  0  0  0  0  0  0  0  0  0  0
   -9.5865   -0.9135   -1.0702 H   0  0  0  0  0  0  0  0  0  0  0  0
   -8.1205   -1.5267   -1.8273 H   0  0  0  0  0  0  0  0  0  0  0  0
   -8.5294   -1.9356   -0.1026 H   0  0  0  0  0  0  0  0  0  0  0  0
  1 13  1  0  0  0  0
  1 44  1  0  0  0  0
  2 16  1  0  0  0  0
  2 25  1  0  0  0  0
  3 21  1  0  0  0  0
  3 51  1  0  0  0  0
  4 26  1  0  0  0  0
  4 28  1  0  0  0  0
  5 27  2  0  0  0  0
  6  8  1  0  0  0  0
  6 10  1  0  0  0  0
  6 31  1  0  0  0  0
  7 20  1  0  0  0  0
  7 27  1  0  0  0  0
  7 48  1  0  0  0  0
  8  9  1  0  0  0  0
  8 11  1  0  0  0  0
  8 12  1  0  0  0  0
  9 14  1  0  0  0  0
  9 29  1  0  0  0  0
  9 30  1  0  0  0  0
 10 13  1  0  0  0  0
 10 32  1  0  0  0  0
 10 33  1  0  0  0  0
 11 34  1  0  0  0  0
 11 35  1  0  0  0  0
 11 36  1  0  0  0  0
 12 37  1  0  0  0  0
 12 38  1  0  0  0  0
 12 39  1  0  0  0  0
 13 15  1  0  0  0  0
 13 40  1  0  0  0  0
 14 17  2  0  0  0  0
 14 18  1  0  0  0  0
 15 16  2  0  0  0  0
 15 19  1  0  0  0  0
 16 20  1  0  0  0  0
 17 23  1  0  0  0  0
 17 41  1  0  0  0  0
 18 24  2  0  0  0  0
 18 42  1  0  0  0  0
 19 21  2  0  0  0  0
 19 43  1  0  0  0  0
 20 22  2  0  0  0  0
 21 22  1  0  0  0  0
 22 45  1  0  0  0  0
 23 26  2  0  0  0  0
 23 46  1  0  0  0  0
 24 26  1  0  0  0  0
 24 47  1  0  0  0  0
 25 27  1  0  0  0  0
 25 49  1  0  0  0  0
 25 50  1  0  0  0  0
 28 52  1  0  0  0  0
 28 53  1  0  0  0  0
 28 54  1  0  0  0  0
M  END
> <PUBCHEM_COMPOUND_CID>
11504295

> <PUBCHEM_CONFORMER_RMSD>
0.8

> <PUBCHEM_CONFORMER_DIVERSEORDER>
2
21
38
27
34
60
10
54
58
7
42
62
47
31
50
30
33
57
40
52
9
66
29
53
26
14
19
65
49
64
55
23
70
15
35
45
46
41
59
37
44
63
20
4
48
51
6
32
43
56
39
24
69
13
18
16
68
3
61
25
67
28
22
17
36
8
11
1
12
5

> <PUBCHEM_MMFF94_PARTIAL_CHARGES>
36
1 -0.68
10 0.27
13 0.42
14 -0.14
15 -0.14
16 0.08
17 -0.15
18 -0.15
19 -0.15
2 -0.36
20 0.12
21 0.08
22 -0.15
23 -0.15
24 -0.15
25 0.34
26 0.08
27 0.57
28 0.28
3 -0.53
31 0.36
4 -0.36
41 0.15
42 0.15
43 0.15
44 0.4
45 0.15
46 0.15
47 0.15
48 0.37
5 -0.57
51 0.45
6 -0.9
7 -0.55
8 0.27
9 0.14

> <PUBCHEM_EFFECTIVE_ROTOR_COUNT>
7.6

> <PUBCHEM_PHARMACOPHORE_FEATURES>
13
1 1 acceptor
1 1 donor
1 2 acceptor
1 3 donor
1 4 acceptor
1 5 acceptor
1 6 cation
1 6 donor
1 7 donor
3 8 11 12 hydrophobe
6 14 17 18 23 24 26 rings
6 15 16 19 20 21 22 rings
6 2 7 16 20 25 27 rings

> <PUBCHEM_HEAVY_ATOM_COUNT>
28

> <PUBCHEM_ATOM_DEF_STEREO_COUNT>
1

> <PUBCHEM_ATOM_UDEF_STEREO_COUNT>
0

> <PUBCHEM_BOND_DEF_STEREO_COUNT>
0

> <PUBCHEM_BOND_UDEF_STEREO_COUNT>
0

> <PUBCHEM_ISOTOPIC_ATOM_COUNT>
0

> <PUBCHEM_COMPONENT_COUNT>
1

> <PUBCHEM_CACTVS_TAUTO_COUNT>
9

> <PUBCHEM_CONFORMER_ID>
00AF8AA700000002

> <PUBCHEM_MMFF94_ENERGY>
91.5602

> <PUBCHEM_FEATURE_SELFOVERLAP>
66.005

> <PUBCHEM_SHAPE_FINGERPRINT>
10670039 82 14562808803624288846
10906281 52 12685093640570966501
11135609 127 18193553591780859564
11386260 185 18186518825785484045
11646440 116 15195285322186462667
11719270 70 17632578232446359751
12107698 1 18187646877692240572
12166972 35 18272371945183135456
125118 31 11025783290027837175
12592606 108 18272652316100426695
13533116 47 18409450310117185493
13782708 43 17203042006711993247
14114211 68 14851608739277525600
14347332 77 18261951830199431824
14528608 73 17894910771709404777
14840074 17 16081085974847577243
15183329 4 18410578370735066723
16992610 120 10951462953275047418
17349148 13 14836136489119147537
17844677 252 18260551095688934669
20397935 70 12463579482097786188
20505436 4 10881696732319767920
21315759 40 18131635582441327081
21521721 280 8935002590511515061
21641784 216 15285351791363394919
21781051 124 17632019762339045799
21792934 111 14563628000074538989
21859007 373 14691739705918377673
221357 26 17968097491296011972
22956985 138 17128758798416525118
23081809 10 18202569492944511377
23522609 53 17985577587479824449
23559900 14 18339358669182506321
3004659 81 18413390921563508690
34797466 226 17894628197421500381
394071 54 16660929996916643581
4073 2 17968946434025356810
46194498 28 18113338622397058892
54039377 194 18271812255759251614
59682541 52 18113622270321421518
6081469 158 18343014481506128813
6438161 24 18272364256928165170

> <PUBCHEM_SHAPE_MULTIPOLES>
536.92
20.04
2.53
1.51
29.39
0.15
-0.56
-8.51
5.45
-5.24
0.75
-1.31
0.49
-1.08

> <PUBCHEM_SHAPE_SELFOVERLAP>
1147.258

> <PUBCHEM_SHAPE_VOLUME>
297.5

> <PUBCHEM_COORDINATE_TYPE>
2
5
10

$$$$
