115085
  -OEChem-03292013323D

 65 66  0     1  0  0  0  0  0999 V2000
   -0.5093    0.5974   -0.9159 O   0  0  0  0  0  0  0  0  0  0  0  0
   -1.4989   -2.0065    1.3423 O   0  0  0  0  0  0  0  0  0  0  0  0
    4.0294   -0.7495   -1.5609 O   0  0  0  0  0  0  0  0  0  0  0  0
   -4.7840    4.2407   -0.6373 O   0  0  0  0  0  0  0  0  0  0  0  0
    6.7059    1.0034    0.9362 O   0  0  0  0  0  0  0  0  0  0  0  0
   -1.9082   -1.6809   -0.9122 N   0  0  0  0  0  0  0  0  0  0  0  0
    1.4858   -0.5878   -0.7237 N   0  0  0  0  0  0  0  0  0  0  0  0
   -4.0256   -3.3021    1.1469 N   0  0  0  0  0  0  0  0  0  0  0  0
    4.5583    1.3776   -0.8002 N   0  0  0  0  0  0  0  0  0  0  0  0
    7.9561    0.2511   -0.8407 N   0  0  0  0  0  0  0  0  0  0  0  0
   -0.5188   -1.7507   -1.3455 C   0  0  1  0  0  0  0  0  0  0  0  0
   -0.5932   -1.9288   -2.8576 C   0  0  0  0  0  0  0  0  0  0  0  0
   -1.8989   -1.2324   -3.2331 C   0  0  0  0  0  0  0  0  0  0  0  0
   -2.8091   -1.5362   -2.0528 C   0  0  0  0  0  0  0  0  0  0  0  0
    0.1273   -0.4515   -0.9691 C   0  0  0  0  0  0  0  0  0  0  0  0
   -2.2890   -1.8890    0.4043 C   0  0  0  0  0  0  0  0  0  0  0  0
   -3.7756   -1.9561    0.6477 C   0  0  2  0  0  0  0  0  0  0  0  0
    2.3400    0.5150   -0.3663 C   0  0  1  0  0  0  0  0  0  0  0  0
    2.3825    0.7397    1.1500 C   0  0  0  0  0  0  0  0  0  0  0  0
   -4.2169   -0.9016    1.6625 C   0  0  0  0  0  0  0  0  0  0  0  0
    3.0239   -0.4115    1.9360 C   0  0  0  0  0  0  0  0  0  0  0  0
    3.7217    0.2839   -0.9702 C   0  0  0  0  0  0  0  0  0  0  0  0
   -4.3679    0.4709    1.0491 C   0  0  0  0  0  0  0  0  0  0  0  0
    3.0870   -0.0909    3.4303 C   0  0  0  0  0  0  0  0  0  0  0  0
   -5.5943    0.8635    0.5128 C   0  0  0  0  0  0  0  0  0  0  0  0
   -3.2814    1.3452    1.0186 C   0  0  0  0  0  0  0  0  0  0  0  0
    3.6869   -1.2420    4.2221 C   0  0  0  0  0  0  0  0  0  0  0  0
    5.9078    1.4123   -1.3131 C   0  0  0  0  0  0  0  0  0  0  0  0
   -5.7343    2.1304   -0.0536 C   0  0  0  0  0  0  0  0  0  0  0  0
   -3.4214    2.6121    0.4520 C   0  0  0  0  0  0  0  0  0  0  0  0
   -4.6478    3.0047   -0.0841 C   0  0  0  0  0  0  0  0  0  0  0  0
    6.8621    0.8694   -0.2744 C   0  0  0  0  0  0  0  0  0  0  0  0
   -0.0180   -2.5896   -0.8499 H   0  0  0  0  0  0  0  0  0  0  0  0
    0.2657   -1.5142   -3.3940 H   0  0  0  0  0  0  0  0  0  0  0  0
   -0.6694   -2.9953   -3.1022 H   0  0  0  0  0  0  0  0  0  0  0  0
   -1.7357   -0.1513   -3.3162 H   0  0  0  0  0  0  0  0  0  0  0  0
   -2.3113   -1.5849   -4.1826 H   0  0  0  0  0  0  0  0  0  0  0  0
   -3.3368   -2.4855   -2.1955 H   0  0  0  0  0  0  0  0  0  0  0  0
   -3.5317   -0.7330   -1.8834 H   0  0  0  0  0  0  0  0  0  0  0  0
   -4.3743   -1.8462   -0.2568 H   0  0  0  0  0  0  0  0  0  0  0  0
    1.9289    1.4186   -0.8351 H   0  0  0  0  0  0  0  0  0  0  0  0
    1.9062   -1.5108   -0.7890 H   0  0  0  0  0  0  0  0  0  0  0  0
    1.3596    0.8919    1.5187 H   0  0  0  0  0  0  0  0  0  0  0  0
    2.9283    1.6647    1.3719 H   0  0  0  0  0  0  0  0  0  0  0  0
   -3.5254   -0.8444    2.5138 H   0  0  0  0  0  0  0  0  0  0  0  0
   -5.1857   -1.1811    2.1002 H   0  0  0  0  0  0  0  0  0  0  0  0
    4.0389   -0.6023    1.5695 H   0  0  0  0  0  0  0  0  0  0  0  0
    2.4460   -1.3307    1.7833 H   0  0  0  0  0  0  0  0  0  0  0  0
   -5.0155   -3.4117    1.3640 H   0  0  0  0  0  0  0  0  0  0  0  0
   -3.8193   -3.9844    0.4177 H   0  0  0  0  0  0  0  0  0  0  0  0
    2.0798    0.1182    3.8093 H   0  0  0  0  0  0  0  0  0  0  0  0
    3.6892    0.8107    3.5926 H   0  0  0  0  0  0  0  0  0  0  0  0
    4.2172    2.2026   -0.3165 H   0  0  0  0  0  0  0  0  0  0  0  0
   -6.4473    0.1904    0.5279 H   0  0  0  0  0  0  0  0  0  0  0  0
   -2.3214    1.0527    1.4352 H   0  0  0  0  0  0  0  0  0  0  0  0
    3.0882   -2.1512    4.1074 H   0  0  0  0  0  0  0  0  0  0  0  0
    3.7234   -0.9912    5.2868 H   0  0  0  0  0  0  0  0  0  0  0  0
    4.7071   -1.4575    3.8885 H   0  0  0  0  0  0  0  0  0  0  0  0
    5.9615    0.8325   -2.2399 H   0  0  0  0  0  0  0  0  0  0  0  0
    6.1684    2.4538   -1.5227 H   0  0  0  0  0  0  0  0  0  0  0  0
   -6.6947    2.4239   -0.4688 H   0  0  0  0  0  0  0  0  0  0  0  0
   -2.5711    3.2883    0.4311 H   0  0  0  0  0  0  0  0  0  0  0  0
   -5.6964    4.3435   -0.9581 H   0  0  0  0  0  0  0  0  0  0  0  0
    8.6861   -0.1483   -0.2600 H   0  0  0  0  0  0  0  0  0  0  0  0
    8.0790    0.1687   -1.8448 H   0  0  0  0  0  0  0  0  0  0  0  0
  1 15  2  0  0  0  0
  2 16  2  0  0  0  0
  3 22  2  0  0  0  0
  4 31  1  0  0  0  0
  4 63  1  0  0  0  0
  5 32  2  0  0  0  0
  6 11  1  0  0  0  0
  6 14  1  0  0  0  0
  6 16  1  0  0  0  0
  7 15  1  0  0  0  0
  7 18  1  0  0  0  0
  7 42  1  0  0  0  0
  8 17  1  0  0  0  0
  8 49  1  0  0  0  0
  8 50  1  0  0  0  0
  9 22  1  0  0  0  0
  9 28  1  0  0  0  0
  9 53  1  0  0  0  0
 10 32  1  0  0  0  0
 10 64  1  0  0  0  0
 10 65  1  0  0  0  0
 11 12  1  0  0  0  0
 11 15  1  0  0  0  0
 11 33  1  0  0  0  0
 12 13  1  0  0  0  0
 12 34  1  0  0  0  0
 12 35  1  0  0  0  0
 13 14  1  0  0  0  0
 13 36  1  0  0  0  0
 13 37  1  0  0  0  0
 14 38  1  0  0  0  0
 14 39  1  0  0  0  0
 16 17  1  0  0  0  0
 17 20  1  0  0  0  0
 17 40  1  0  0  0  0
 18 19  1  0  0  0  0
 18 22  1  0  0  0  0
 18 41  1  0  0  0  0
 19 21  1  0  0  0  0
 19 43  1  0  0  0  0
 19 44  1  0  0  0  0
 20 23  1  0  0  0  0
 20 45  1  0  0  0  0
 20 46  1  0  0  0  0
 21 24  1  0  0  0  0
 21 47  1  0  0  0  0
 21 48  1  0  0  0  0
 23 25  2  0  0  0  0
 23 26  1  0  0  0  0
 24 27  1  0  0  0  0
 24 51  1  0  0  0  0
 24 52  1  0  0  0  0
 25 29  1  0  0  0  0
 25 54  1  0  0  0  0
 26 30  2  0  0  0  0
 26 55  1  0  0  0  0
 27 56  1  0  0  0  0
 27 57  1  0  0  0  0
 27 58  1  0  0  0  0
 28 32  1  0  0  0  0
 28 59  1  0  0  0  0
 28 60  1  0  0  0  0
 29 31  2  0  0  0  0
 29 61  1  0  0  0  0
 30 31  1  0  0  0  0
 30 62  1  0  0  0  0
M  END
> <PUBCHEM_COMPOUND_CID>
115085

> <PUBCHEM_CONFORMER_RMSD>
1.2

> <PUBCHEM_CONFORMER_DIVERSEORDER>
1
44
12
48
16
46
25
24
4
47
23
9
34
42
5
21
54
37
29
51
53
36
13
8
10
50
3
30
18
38
49
15
20
56
11
43
52
39
19
28
31
27
32
40
45
2
26
22
35
55
17
6
41
33
7
14

> <PUBCHEM_MMFF94_PARTIAL_CHARGES>
37
1 -0.57
10 -0.8
11 0.36
14 0.3
15 0.57
16 0.57
17 0.33
18 0.36
2 -0.57
20 0.14
22 0.57
23 -0.14
25 -0.15
26 -0.15
28 0.36
29 -0.15
3 -0.57
30 -0.15
31 0.08
32 0.57
4 -0.53
42 0.37
49 0.36
5 -0.57
50 0.36
53 0.37
54 0.15
55 0.15
6 -0.66
61 0.15
62 0.15
63 0.45
64 0.37
65 0.37
7 -0.73
8 -0.99
9 -0.73

> <PUBCHEM_EFFECTIVE_ROTOR_COUNT>
15

> <PUBCHEM_PHARMACOPHORE_FEATURES>
13
1 1 acceptor
1 10 donor
1 2 acceptor
1 27 hydrophobe
1 3 acceptor
1 4 donor
1 5 acceptor
1 7 donor
1 8 cation
1 8 donor
1 9 donor
5 6 11 12 13 14 rings
6 23 25 26 29 30 31 rings

> <PUBCHEM_HEAVY_ATOM_COUNT>
32

> <PUBCHEM_ATOM_DEF_STEREO_COUNT>
3

> <PUBCHEM_ATOM_UDEF_STEREO_COUNT>
0

> <PUBCHEM_BOND_DEF_STEREO_COUNT>
0

> <PUBCHEM_BOND_UDEF_STEREO_COUNT>
0

> <PUBCHEM_ISOTOPIC_ATOM_COUNT>
0

> <PUBCHEM_COMPONENT_COUNT>
1

> <PUBCHEM_CACTVS_TAUTO_COUNT>
16

> <PUBCHEM_CONFORMER_ID>
0001C18D00000001

> <PUBCHEM_MMFF94_ENERGY>
63.4552

> <PUBCHEM_FEATURE_SELFOVERLAP>
65.973

> <PUBCHEM_SHAPE_FINGERPRINT>
10577160 183 17632293437575915422
12166972 35 11815890150649474194
12596602 18 17895764018059134305
12760667 363 12107791834733887693
13911987 19 17060346189083396543
14347329 18 18272656701193321297
14856354 85 18191882320867985358
15876981 60 18115600395087862695
19053607 189 17983005657662225217
20511986 3 17313381206362094041
21033648 29 17704069616207031137
21756936 100 18409166627590205078
21796203 349 13624402047070220164
2260408 40 15936696964951517168
23522609 53 17169578331465524324
4015057 19 14692286287593489714
4112364 45 17534623712454434217
44802255 64 18059585727639360694
4938544 92 18335704957245863645
508706 21 17702650185313380171
6086070 43 16415187980304655766

> <PUBCHEM_SHAPE_MULTIPOLES>
604.29
16.19
3.27
3.14
21.86
1.49
-2.29
-8.65
5.93
-3.25
0.76
-0.51
-1.92
4.73

> <PUBCHEM_SHAPE_SELFOVERLAP>
1240.196

> <PUBCHEM_SHAPE_VOLUME>
346.6

> <PUBCHEM_COORDINATE_TYPE>
2
5
10

$$$$
