115160
  -OEChem-03292013323D

 34 35  0     1  0  0  0  0  0999 V2000
    1.6774   -0.2554   -0.9380 O   0  0  0  0  0  0  0  0  0  0  0  0
    4.0145    1.5222   -0.0717 O   0  0  0  0  0  0  0  0  0  0  0  0
   -2.4903   -2.1797    0.7036 O   0  0  0  0  0  0  0  0  0  0  0  0
    2.3013   -2.9235   -0.3499 O   0  0  0  0  0  0  0  0  0  0  0  0
   -0.9276    2.8921   -0.4860 O   0  0  0  0  0  0  0  0  0  0  0  0
   -4.2389   -0.1169    0.5842 O   0  0  0  0  0  0  0  0  0  0  0  0
   -0.2989    0.6821   -0.1071 N   0  0  0  0  0  0  0  0  0  0  0  0
   -2.5473    1.3710    0.0854 N   0  0  0  0  0  0  0  0  0  0  0  0
    1.0983    0.9099   -0.3338 C   0  0  1  0  0  0  0  0  0  0  0  0
    1.8665    1.1843    0.9488 C   0  0  0  0  0  0  0  0  0  0  0  0
    3.2216    0.5843    0.6530 C   0  0  1  0  0  0  0  0  0  0  0  0
    2.8854   -0.6054   -0.2353 C   0  0  1  0  0  0  0  0  0  0  0  0
   -0.6875   -0.6105    0.4409 C   0  0  0  0  0  0  0  0  0  0  0  0
   -2.0801   -1.0257   -0.0172 C   0  0  2  0  0  0  0  0  0  0  0  0
    2.6145   -1.8782    0.5563 C   0  0  0  0  0  0  0  0  0  0  0  0
   -1.2208    1.7314   -0.1907 C   0  0  0  0  0  0  0  0  0  0  0  0
   -3.0706    0.0923    0.2627 C   0  0  0  0  0  0  0  0  0  0  0  0
   -2.1176   -1.3742   -1.5051 C   0  0  0  0  0  0  0  0  0  0  0  0
    1.2310    1.7417   -1.0353 H   0  0  0  0  0  0  0  0  0  0  0  0
    1.4158    0.6700    1.8052 H   0  0  0  0  0  0  0  0  0  0  0  0
    1.8962    2.2545    1.1767 H   0  0  0  0  0  0  0  0  0  0  0  0
    3.7733    0.3164    1.5589 H   0  0  0  0  0  0  0  0  0  0  0  0
    3.6524   -0.7922   -0.9951 H   0  0  0  0  0  0  0  0  0  0  0  0
   -0.6518   -0.5331    1.5348 H   0  0  0  0  0  0  0  0  0  0  0  0
    0.0004   -1.4019    0.1497 H   0  0  0  0  0  0  0  0  0  0  0  0
    1.7944   -1.7778    1.2710 H   0  0  0  0  0  0  0  0  0  0  0  0
    3.5078   -2.1771    1.1140 H   0  0  0  0  0  0  0  0  0  0  0  0
   -1.8215   -0.5315   -2.1383 H   0  0  0  0  0  0  0  0  0  0  0  0
   -1.4573   -2.2213   -1.7232 H   0  0  0  0  0  0  0  0  0  0  0  0
   -3.1261   -1.6774   -1.8107 H   0  0  0  0  0  0  0  0  0  0  0  0
   -3.2110    2.1376    0.1540 H   0  0  0  0  0  0  0  0  0  0  0  0
    4.8568    1.0859   -0.2857 H   0  0  0  0  0  0  0  0  0  0  0  0
   -3.3526   -2.4662    0.3571 H   0  0  0  0  0  0  0  0  0  0  0  0
    1.5543   -2.6290   -0.8978 H   0  0  0  0  0  0  0  0  0  0  0  0
  1  9  1  0  0  0  0
  1 12  1  0  0  0  0
  2 11  1  0  0  0  0
  2 32  1  0  0  0  0
  3 14  1  0  0  0  0
  3 33  1  0  0  0  0
  4 15  1  0  0  0  0
  4 34  1  0  0  0  0
  5 16  2  0  0  0  0
  6 17  2  0  0  0  0
  7  9  1  0  0  0  0
  7 13  1  0  0  0  0
  7 16  1  0  0  0  0
  8 16  1  0  0  0  0
  8 17  1  0  0  0  0
  8 31  1  0  0  0  0
  9 10  1  0  0  0  0
  9 19  1  0  0  0  0
 10 11  1  0  0  0  0
 10 20  1  0  0  0  0
 10 21  1  0  0  0  0
 11 12  1  0  0  0  0
 11 22  1  0  0  0  0
 12 15  1  0  0  0  0
 12 23  1  0  0  0  0
 13 14  1  0  0  0  0
 13 24  1  0  0  0  0
 13 25  1  0  0  0  0
 14 17  1  0  0  0  0
 14 18  1  0  0  0  0
 15 26  1  0  0  0  0
 15 27  1  0  0  0  0
 18 28  1  0  0  0  0
 18 29  1  0  0  0  0
 18 30  1  0  0  0  0
M  END
> <PUBCHEM_COMPOUND_CID>
115160

> <PUBCHEM_CONFORMER_RMSD>
0.6

> <PUBCHEM_CONFORMER_DIVERSEORDER>
7
36
49
28
17
22
31
3
29
23
38
47
21
25
39
48
41
34
32
5
46
43
9
26
44
35
24
45
27
8
4
13
42
33
30
10
1
20
11
37
18
16
14
12
40
2
19
15
6

> <PUBCHEM_MMFF94_PARTIAL_CHARGES>
20
1 -0.56
11 0.28
12 0.28
13 0.3
14 0.34
15 0.28
16 0.69
17 0.57
2 -0.68
3 -0.68
31 0.37
32 0.4
33 0.4
34 0.4
4 -0.68
5 -0.57
6 -0.57
7 -0.66
8 -0.49
9 0.58

> <PUBCHEM_EFFECTIVE_ROTOR_COUNT>
3.8

> <PUBCHEM_PHARMACOPHORE_FEATURES>
12
1 1 acceptor
1 2 acceptor
1 2 donor
1 3 acceptor
1 3 donor
1 4 acceptor
1 4 donor
1 5 acceptor
1 6 acceptor
1 8 donor
5 1 9 10 11 12 rings
6 7 8 13 14 16 17 rings

> <PUBCHEM_HEAVY_ATOM_COUNT>
18

> <PUBCHEM_ATOM_DEF_STEREO_COUNT>
3

> <PUBCHEM_ATOM_UDEF_STEREO_COUNT>
1

> <PUBCHEM_BOND_DEF_STEREO_COUNT>
0

> <PUBCHEM_BOND_UDEF_STEREO_COUNT>
0

> <PUBCHEM_ISOTOPIC_ATOM_COUNT>
0

> <PUBCHEM_COMPONENT_COUNT>
1

> <PUBCHEM_CACTVS_TAUTO_COUNT>
3

> <PUBCHEM_CONFORMER_ID>
0001C1D800000007

> <PUBCHEM_MMFF94_ENERGY>
42.7211

> <PUBCHEM_FEATURE_SELFOVERLAP>
60.911

> <PUBCHEM_SHAPE_FINGERPRINT>
10366900 7 18200304536912756000
10608611 8 18339074900334965816
10616163 171 18410013277435059778
10618630 7 18260831500949321315
10922523 26 18263361399810987679
10967382 1 18410012151894808058
12251169 10 18202564003253691865
12382932 28 18409730707019980339
12553582 1 18409161142890698024
12932764 1 18060413638230061736
13140716 1 18194962078638345344
14178342 30 18195802088426434651
14223421 5 18410853248562973714
15219456 202 18341609283195087160
15375462 6 18410573981204896884
15422964 175 18262246632792192411
15442244 35 18194964037385713450
15775835 57 18202284735942814838
16945 1 18409444799610672276
17804303 29 18194971738125152454
19049666 15 18196928877444163864
19784866 170 18338518650572626936
20442098 301 18343293743630397158
20510252 161 18340487764297694913
20645477 70 18341608183567512631
21501502 16 18340480084853399632
21524375 3 17763178043120589413
22802520 49 18410294674938569219
23184049 29 18265045839103854954
23388829 49 17696178580284427429
23402539 116 18187917435057191920
23419403 2 13709839654104893025
23463225 33 18409733949920592815
23559900 14 18410289169318172012
2748010 2 18411981390184256175
34934 24 18410569613164972117
45790113 53 18198060270482159719
69090 78 18202559575595765583
7364860 26 18341895152303123754
81228 2 18334010566989129241
8809292 202 18408326566510661938
9709674 26 18410575041893260718

> <PUBCHEM_SHAPE_MULTIPOLES>
325.25
6.31
2.58
0.94
0.28
0.35
0.13
0.59
-0.81
0.44
0.21
-0.17
0.19
0.12

> <PUBCHEM_SHAPE_SELFOVERLAP>
679.054

> <PUBCHEM_SHAPE_VOLUME>
183.6

> <PUBCHEM_COORDINATE_TYPE>
2
5
10

$$$$
