115199
  -OEChem-03292013323D

 47 49  0     1  0  0  0  0  0999 V2000
    0.3324   -1.2913    1.4462 O   0  0  0  0  0  0  0  0  0  0  0  0
   -4.3687   -0.1998   -0.6533 O   0  0  0  0  0  0  0  0  0  0  0  0
    3.4903   -1.6749    1.5239 O   0  0  0  0  0  0  0  0  0  0  0  0
   -1.8911   -0.1499   -1.4587 O   0  0  0  0  0  0  0  0  0  0  0  0
   -5.4833   -2.1664   -1.0371 O   0  0  0  0  0  0  0  0  0  0  0  0
    1.7719   -1.1392   -0.3597 N   0  0  0  0  0  0  0  0  0  0  0  0
   -1.0796    0.6942    0.5550 N   0  0  0  0  0  0  0  0  0  0  0  0
    3.7201   -3.8979    0.9764 N   0  0  0  0  0  0  0  0  0  0  0  0
    2.0844    3.8706    0.0590 N   0  0  0  0  0  0  0  0  0  0  0  0
    0.3211    5.1638   -0.3291 N   0  0  0  0  0  0  0  0  0  0  0  0
    2.2312   -2.5215   -0.3234 C   0  0  1  0  0  0  0  0  0  0  0  0
    2.9165   -2.7374   -1.6677 C   0  0  0  0  0  0  0  0  0  0  0  0
    2.3472   -0.4226   -1.4951 C   0  0  0  0  0  0  0  0  0  0  0  0
    3.4300   -1.3464   -2.0316 C   0  0  0  0  0  0  0  0  0  0  0  0
    0.3116    0.7424    0.2084 C   0  0  2  0  0  0  0  0  0  0  0  0
    0.7946   -0.6565    0.4968 C   0  0  0  0  0  0  0  0  0  0  0  0
    3.1962   -2.6367    0.8182 C   0  0  0  0  0  0  0  0  0  0  0  0
    1.1041    1.7535    1.0274 C   0  0  0  0  0  0  0  0  0  0  0  0
   -3.4330    0.2788    0.3094 C   0  0  1  0  0  0  0  0  0  0  0  0
   -3.5461   -0.6557    1.4890 C   0  0  0  0  0  0  0  0  0  0  0  0
   -2.0717    0.2497   -0.3114 C   0  0  0  0  0  0  0  0  0  0  0  0
    0.9952    3.1468    0.4551 C   0  0  0  0  0  0  0  0  0  0  0  0
   -4.0009   -1.9543    0.8642 C   0  0  0  0  0  0  0  0  0  0  0  0
   -4.7218   -1.4891   -0.3641 C   0  0  0  0  0  0  0  0  0  0  0  0
   -0.0811    3.9658    0.2064 C   0  0  0  0  0  0  0  0  0  0  0  0
    1.6305    5.0741   -0.4042 C   0  0  0  0  0  0  0  0  0  0  0  0
    1.3904   -3.2034   -0.1575 H   0  0  0  0  0  0  0  0  0  0  0  0
    3.7193   -3.4799   -1.6628 H   0  0  0  0  0  0  0  0  0  0  0  0
    2.1730   -3.0495   -2.4117 H   0  0  0  0  0  0  0  0  0  0  0  0
    2.7376    0.5518   -1.1901 H   0  0  0  0  0  0  0  0  0  0  0  0
    1.5593   -0.2807   -2.2428 H   0  0  0  0  0  0  0  0  0  0  0  0
    3.5973   -1.2202   -3.1048 H   0  0  0  0  0  0  0  0  0  0  0  0
    4.3774   -1.1538   -1.5139 H   0  0  0  0  0  0  0  0  0  0  0  0
    0.3687    0.9651   -0.8607 H   0  0  0  0  0  0  0  0  0  0  0  0
    0.7603    1.7743    2.0696 H   0  0  0  0  0  0  0  0  0  0  0  0
    2.1642    1.4700    1.0598 H   0  0  0  0  0  0  0  0  0  0  0  0
   -1.3438    0.9796    1.4937 H   0  0  0  0  0  0  0  0  0  0  0  0
   -3.6841    1.3098    0.5799 H   0  0  0  0  0  0  0  0  0  0  0  0
   -4.3351   -0.2924    2.1600 H   0  0  0  0  0  0  0  0  0  0  0  0
   -2.6409   -0.7791    2.0894 H   0  0  0  0  0  0  0  0  0  0  0  0
   -4.6698   -2.5067    1.5280 H   0  0  0  0  0  0  0  0  0  0  0  0
   -3.1530   -2.5769    0.5644 H   0  0  0  0  0  0  0  0  0  0  0  0
    4.3907   -4.0954    1.7117 H   0  0  0  0  0  0  0  0  0  0  0  0
    3.4506   -4.6777    0.3852 H   0  0  0  0  0  0  0  0  0  0  0  0
    3.0503    3.5733    0.0988 H   0  0  0  0  0  0  0  0  0  0  0  0
   -1.1260    3.7578    0.3854 H   0  0  0  0  0  0  0  0  0  0  0  0
    2.3003    5.8344   -0.7799 H   0  0  0  0  0  0  0  0  0  0  0  0
  1 16  2  0  0  0  0
  2 19  1  0  0  0  0
  2 24  1  0  0  0  0
  3 17  2  0  0  0  0
  4 21  2  0  0  0  0
  5 24  2  0  0  0  0
  6 11  1  0  0  0  0
  6 13  1  0  0  0  0
  6 16  1  0  0  0  0
  7 15  1  0  0  0  0
  7 21  1  0  0  0  0
  7 37  1  0  0  0  0
  8 17  1  0  0  0  0
  8 43  1  0  0  0  0
  8 44  1  0  0  0  0
  9 22  1  0  0  0  0
  9 26  1  0  0  0  0
  9 45  1  0  0  0  0
 10 25  1  0  0  0  0
 10 26  2  0  0  0  0
 11 12  1  0  0  0  0
 11 17  1  0  0  0  0
 11 27  1  0  0  0  0
 12 14  1  0  0  0  0
 12 28  1  0  0  0  0
 12 29  1  0  0  0  0
 13 14  1  0  0  0  0
 13 30  1  0  0  0  0
 13 31  1  0  0  0  0
 14 32  1  0  0  0  0
 14 33  1  0  0  0  0
 15 16  1  0  0  0  0
 15 18  1  0  0  0  0
 15 34  1  0  0  0  0
 18 22  1  0  0  0  0
 18 35  1  0  0  0  0
 18 36  1  0  0  0  0
 19 20  1  0  0  0  0
 19 21  1  0  0  0  0
 19 38  1  0  0  0  0
 20 23  1  0  0  0  0
 20 39  1  0  0  0  0
 20 40  1  0  0  0  0
 22 25  2  0  0  0  0
 23 24  1  0  0  0  0
 23 41  1  0  0  0  0
 23 42  1  0  0  0  0
 25 46  1  0  0  0  0
 26 47  1  0  0  0  0
M  END
> <PUBCHEM_COMPOUND_CID>
115199

> <PUBCHEM_CONFORMER_RMSD>
1

> <PUBCHEM_CONFORMER_DIVERSEORDER>
1
193
176
266
67
270
155
114
150
208
225
151
261
161
153
248
237
200
97
61
162
19
245
186
134
25
282
48
212
140
54
231
214
205
175
220
263
86
259
109
180
89
137
222
168
142
235
269
258
158
69
221
51
275
246
204
195
192
217
30
94
189
147
56
32
272
228
83
194
145
144
178
24
78
66
163
115
47
99
230
197
152
223
191
141
211
253
236
278
102
233
276
229
187
254
241
146
159
206
106
184
93
101
256
216
224
251
55
74
64
98
247
58
203
129
124
65
133
120
148
207
173
75
59
215
167
104
121
267
199
53
255
239
85
179
130
17
119
100
4
84
77
46
11
156
23
226
190
143
260
279
232
96
169
131
170
164
240
2
33
242
39
139
227
43
166
73
60
122
62
273
6
29
157
91
3
238
35
71
108
219
113
82
57
95
165
21
185
81
68
182
8
118
209
281
90
280
123
201
13
27
52
92
107
22
135
37
252
20
218
12
7
172
181
18
177
63
138
188
262
160
268
72
198
128
250
79
50
154
49
213
76
70
277
38
183
264
112
14
202
234
132
136
111
249
36
116
28
125
196
34
117
26
45
210
127
15
126
44
265
105
41
5
271
149
171
110
174
40
87
16
10
31
274
103
80
244
88
257
9
243
42

> <PUBCHEM_MMFF94_PARTIAL_CHARGES>
29
1 -0.57
10 -0.57
11 0.36
13 0.3
15 0.36
16 0.57
17 0.57
18 0.18
19 0.34
2 -0.43
21 0.57
22 -0.33
23 0.06
24 0.66
25 0.08
26 0.04
3 -0.57
37 0.37
4 -0.57
43 0.37
44 0.37
45 0.27
46 0.15
47 0.15
5 -0.57
6 -0.66
7 -0.73
8 -0.8
9 0.03

> <PUBCHEM_EFFECTIVE_ROTOR_COUNT>
9.8

> <PUBCHEM_PHARMACOPHORE_FEATURES>
11
1 1 acceptor
1 3 acceptor
1 4 acceptor
1 5 acceptor
1 7 donor
1 8 donor
1 9 donor
3 9 10 26 cation
5 2 19 20 23 24 rings
5 6 11 12 13 14 rings
5 9 10 22 25 26 rings

> <PUBCHEM_HEAVY_ATOM_COUNT>
26

> <PUBCHEM_ATOM_DEF_STEREO_COUNT>
2

> <PUBCHEM_ATOM_UDEF_STEREO_COUNT>
1

> <PUBCHEM_BOND_DEF_STEREO_COUNT>
0

> <PUBCHEM_BOND_UDEF_STEREO_COUNT>
0

> <PUBCHEM_ISOTOPIC_ATOM_COUNT>
0

> <PUBCHEM_COMPONENT_COUNT>
1

> <PUBCHEM_CACTVS_TAUTO_COUNT>
16

> <PUBCHEM_CONFORMER_ID>
0001C1FF00000001

> <PUBCHEM_MMFF94_ENERGY>
45.7107

> <PUBCHEM_FEATURE_SELFOVERLAP>
55.822

> <PUBCHEM_SHAPE_FINGERPRINT>
11045515 52 18268448848929794060
11991303 11 17253438314922739668
12160290 23 17481429274723266880
12363563 72 18339924809922660003
12553582 1 18268162976070212979
12788726 201 17903095338291729296
13257819 37 17326909867612107333
13681431 1 18342461451729785968
13899415 180 18268412577909782855
13955234 65 18266182927622024049
14251757 5 17977679606019498845
15842332 3 17320166133998559414
1813 80 18272934882040638387
21304303 282 16965452609935212292
21344244 246 18055927721378831356
21452121 199 18336544928437269448
2255824 54 18270403935090667141
23366157 5 18337396057917111685
23557571 272 17695898939638573186
23559900 14 18338226159489838867
23598288 3 17614585651979850536
3057174 1 17763752382931413933
4409770 3 17616250287004916617
463206 1 18261109617700567883
633830 44 12107798410086575491
6669772 16 17838630198994548276
6786 2 17618234239677799412
7164475 11 17905054655539234350
81228 2 17839181809706605320

> <PUBCHEM_SHAPE_MULTIPOLES>
480.82
8.17
6.4
1.51
10.47
10.55
0.22
-9.87
1.23
-6.35
0.02
-0.79
-1.09
-0.41

> <PUBCHEM_SHAPE_SELFOVERLAP>
1024.099

> <PUBCHEM_SHAPE_VOLUME>
268.9

> <PUBCHEM_COORDINATE_TYPE>
2
5
10

$$$$
