115100
  -OEChem-03292013323D

 59 63  0     0  0  0  0  0  0999 V2000
   -4.4528   -1.7085    1.5538 O   0  0  0  0  0  0  0  0  0  0  0  0
    5.7998    1.1274    0.1728 O   0  0  0  0  0  0  0  0  0  0  0  0
    7.8664   -1.8562   -1.6731 O   0  0  0  0  0  0  0  0  0  0  0  0
    1.1693   -3.5442   -0.6243 O   0  0  0  0  0  0  0  0  0  0  0  0
    1.7481   -1.4021    0.1529 N   0  0  0  0  0  0  0  0  0  0  0  0
    8.9507    2.9550    0.1238 N   0  0  0  0  0  0  0  0  0  0  0  0
    6.8773    3.4467    0.8899 N   0  0  0  0  0  0  0  0  0  0  0  0
    8.8477    4.1709    0.6785 N   0  0  0  0  0  0  0  0  0  0  0  0
    7.6367    4.5049    1.1459 N   0  0  0  0  0  0  0  0  0  0  0  0
   -7.4324    0.2514    0.3545 C   0  0  0  0  0  0  0  0  0  0  0  0
   -6.6306   -0.9069    0.9444 C   0  0  0  0  0  0  0  0  0  0  0  0
   -8.9189   -0.0975    0.2535 C   0  0  0  0  0  0  0  0  0  0  0  0
   -5.1443   -0.5853    1.0097 C   0  0  0  0  0  0  0  0  0  0  0  0
   -9.7251    1.0521   -0.2946 C   0  0  0  0  0  0  0  0  0  0  0  0
  -10.2718    1.9973    0.5735 C   0  0  0  0  0  0  0  0  0  0  0  0
   -9.9249    1.1707   -1.6700 C   0  0  0  0  0  0  0  0  0  0  0  0
   -3.1646   -1.8949    1.1563 C   0  0  0  0  0  0  0  0  0  0  0  0
    5.8073   -1.0990   -0.7972 C   0  0  0  0  0  0  0  0  0  0  0  0
    5.1620   -0.0390   -0.1644 C   0  0  0  0  0  0  0  0  0  0  0  0
    3.1031   -1.3001   -0.1639 C   0  0  0  0  0  0  0  0  0  0  0  0
    3.8071   -0.1382    0.1536 C   0  0  0  0  0  0  0  0  0  0  0  0
   -0.5227   -2.2763    0.3455 C   0  0  0  0  0  0  0  0  0  0  0  0
  -11.0182    3.0609    0.0663 C   0  0  0  0  0  0  0  0  0  0  0  0
  -10.6712    2.2344   -2.1772 C   0  0  0  0  0  0  0  0  0  0  0  0
    5.1066   -2.2642   -1.1170 C   0  0  0  0  0  0  0  0  0  0  0  0
    3.7517   -2.3607   -0.7980 C   0  0  0  0  0  0  0  0  0  0  0  0
   -2.6325   -3.1830    1.0963 C   0  0  0  0  0  0  0  0  0  0  0  0
   -2.3757   -0.7976    0.8110 C   0  0  0  0  0  0  0  0  0  0  0  0
    7.2353   -0.9668   -1.1193 C   0  0  0  0  0  0  0  0  0  0  0  0
   -1.3117   -3.3736    0.6910 C   0  0  0  0  0  0  0  0  0  0  0  0
   -1.0548   -0.9884    0.4056 C   0  0  0  0  0  0  0  0  0  0  0  0
  -11.2178    3.1795   -1.3090 C   0  0  0  0  0  0  0  0  0  0  0  0
    0.8852   -2.4798   -0.0857 C   0  0  0  0  0  0  0  0  0  0  0  0
    7.1504    1.2642   -0.1287 C   0  0  0  0  0  0  0  0  0  0  0  0
    7.8738    0.3079   -0.7360 C   0  0  0  0  0  0  0  0  0  0  0  0
    7.6912    2.5393    0.2796 C   0  0  0  0  0  0  0  0  0  0  0  0
   -7.0426    0.5014   -0.6405 H   0  0  0  0  0  0  0  0  0  0  0  0
   -7.2983    1.1437    0.9791 H   0  0  0  0  0  0  0  0  0  0  0  0
   -6.9958   -1.1491    1.9502 H   0  0  0  0  0  0  0  0  0  0  0  0
   -6.7783   -1.8141    0.3450 H   0  0  0  0  0  0  0  0  0  0  0  0
   -9.0574   -0.9797   -0.3847 H   0  0  0  0  0  0  0  0  0  0  0  0
   -9.3088   -0.3781    1.2404 H   0  0  0  0  0  0  0  0  0  0  0  0
   -4.8037   -0.3583   -0.0089 H   0  0  0  0  0  0  0  0  0  0  0  0
   -4.9748    0.2849    1.6543 H   0  0  0  0  0  0  0  0  0  0  0  0
  -10.1215    1.9166    1.6469 H   0  0  0  0  0  0  0  0  0  0  0  0
   -9.5026    0.4417   -2.3565 H   0  0  0  0  0  0  0  0  0  0  0  0
    3.3069    0.6917    0.6475 H   0  0  0  0  0  0  0  0  0  0  0  0
    5.5963   -3.0991   -1.6104 H   0  0  0  0  0  0  0  0  0  0  0  0
  -11.4434    3.7971    0.7422 H   0  0  0  0  0  0  0  0  0  0  0  0
  -10.8263    2.3271   -3.2481 H   0  0  0  0  0  0  0  0  0  0  0  0
    3.2745   -3.2900   -1.0748 H   0  0  0  0  0  0  0  0  0  0  0  0
   -3.2420   -4.0412    1.3657 H   0  0  0  0  0  0  0  0  0  0  0  0
   -2.7447    0.2224    0.8632 H   0  0  0  0  0  0  0  0  0  0  0  0
    1.3797   -0.5945    0.6475 H   0  0  0  0  0  0  0  0  0  0  0  0
   -0.9143   -4.3845    0.6561 H   0  0  0  0  0  0  0  0  0  0  0  0
   -0.4883   -0.1082    0.1167 H   0  0  0  0  0  0  0  0  0  0  0  0
  -11.7987    4.0078   -1.7040 H   0  0  0  0  0  0  0  0  0  0  0  0
    8.9271    0.4236   -0.9668 H   0  0  0  0  0  0  0  0  0  0  0  0
    9.6396    4.8017    0.7405 H   0  0  0  0  0  0  0  0  0  0  0  0
  1 13  1  0  0  0  0
  1 17  1  0  0  0  0
  2 19  1  0  0  0  0
  2 34  1  0  0  0  0
  3 29  2  0  0  0  0
  4 33  2  0  0  0  0
  5 20  1  0  0  0  0
  5 33  1  0  0  0  0
  5 54  1  0  0  0  0
  6  8  1  0  0  0  0
  6 36  2  0  0  0  0
  7  9  2  0  0  0  0
  7 36  1  0  0  0  0
  8  9  1  0  0  0  0
  8 59  1  0  0  0  0
 10 11  1  0  0  0  0
 10 12  1  0  0  0  0
 10 37  1  0  0  0  0
 10 38  1  0  0  0  0
 11 13  1  0  0  0  0
 11 39  1  0  0  0  0
 11 40  1  0  0  0  0
 12 14  1  0  0  0  0
 12 41  1  0  0  0  0
 12 42  1  0  0  0  0
 13 43  1  0  0  0  0
 13 44  1  0  0  0  0
 14 15  2  0  0  0  0
 14 16  1  0  0  0  0
 15 23  1  0  0  0  0
 15 45  1  0  0  0  0
 16 24  2  0  0  0  0
 16 46  1  0  0  0  0
 17 27  2  0  0  0  0
 17 28  1  0  0  0  0
 18 19  2  0  0  0  0
 18 25  1  0  0  0  0
 18 29  1  0  0  0  0
 19 21  1  0  0  0  0
 20 21  2  0  0  0  0
 20 26  1  0  0  0  0
 21 47  1  0  0  0  0
 22 30  2  0  0  0  0
 22 31  1  0  0  0  0
 22 33  1  0  0  0  0
 23 32  2  0  0  0  0
 23 49  1  0  0  0  0
 24 32  1  0  0  0  0
 24 50  1  0  0  0  0
 25 26  2  0  0  0  0
 25 48  1  0  0  0  0
 26 51  1  0  0  0  0
 27 30  1  0  0  0  0
 27 52  1  0  0  0  0
 28 31  2  0  0  0  0
 28 53  1  0  0  0  0
 29 35  1  0  0  0  0
 30 55  1  0  0  0  0
 31 56  1  0  0  0  0
 32 57  1  0  0  0  0
 34 35  2  0  0  0  0
 34 36  1  0  0  0  0
 35 58  1  0  0  0  0
M  END
> <PUBCHEM_COMPOUND_CID>
115100

> <PUBCHEM_CONFORMER_RMSD>
1

> <PUBCHEM_CONFORMER_DIVERSEORDER>
1
85
66
89
53
137
110
62
120
115
33
10
48
20
87
95
119
70
113
34
105
72
41
5
136
114
124
80
21
40
63
128
121
49
131
92
135
19
88
6
44
123
138
112
67
46
104
65
132
125
47
39
9
12
127
23
82
116
140
37
84
42
38
107
8
45
7
99
35
75
76
78
24
111
81
71
69
51
96
129
79
94
103
101
17
27
117
139
29
134
83
73
57
13
59
102
68
43
50
22
15
56
54
26
91
58
14
25
55
98
74
130
109
64
77
106
122
4
126
30
86
32
28
118
36
100
60
52
18
93
108
3
90
133
97
61
2
31
16
11

> <PUBCHEM_MMFF94_PARTIAL_CHARGES>
49
1 -0.36
12 0.14
13 0.28
14 -0.14
15 -0.15
16 -0.15
17 0.08
18 0.09
19 0.08
2 -0.16
20 0.12
21 -0.15
22 0.09
23 -0.15
24 -0.15
25 -0.15
26 -0.15
27 -0.15
28 -0.15
29 0.47
3 -0.57
30 -0.15
31 -0.15
32 -0.15
33 0.54
34 0.12
35 -0.14
36 0.47
4 -0.57
45 0.15
46 0.15
47 0.15
48 0.15
49 0.15
5 -0.55
50 0.15
51 0.15
52 0.15
53 0.15
54 0.37
55 0.15
56 0.15
57 0.15
58 0.15
59 0.27
6 -0.71
7 -0.23
8 0.57
9 -0.42

> <PUBCHEM_EFFECTIVE_ROTOR_COUNT>
10

> <PUBCHEM_PHARMACOPHORE_FEATURES>
11
1 1 acceptor
1 2 acceptor
1 3 acceptor
1 4 acceptor
1 5 donor
3 6 7 36 cation
5 6 7 8 9 36 rings
6 14 15 16 23 24 32 rings
6 17 22 27 28 30 31 rings
6 18 19 20 21 25 26 rings
6 2 18 19 29 34 35 rings

> <PUBCHEM_HEAVY_ATOM_COUNT>
36

> <PUBCHEM_ATOM_DEF_STEREO_COUNT>
0

> <PUBCHEM_ATOM_UDEF_STEREO_COUNT>
0

> <PUBCHEM_BOND_DEF_STEREO_COUNT>
0

> <PUBCHEM_BOND_UDEF_STEREO_COUNT>
0

> <PUBCHEM_ISOTOPIC_ATOM_COUNT>
0

> <PUBCHEM_COMPONENT_COUNT>
1

> <PUBCHEM_CACTVS_TAUTO_COUNT>
23

> <PUBCHEM_CONFORMER_ID>
0001C19C00000001

> <PUBCHEM_MMFF94_ENERGY>
100.1573

> <PUBCHEM_FEATURE_SELFOVERLAP>
55.852

> <PUBCHEM_SHAPE_FINGERPRINT>
10029044 110 18409446978029718073
10168742 298 11383840384788100025
10280341 67 18333729131067596073
10533779 1 18201716319240318752
10533779 47 13406787796622545809
10835480 77 18200040663492876274
11061554 47 18259701208098478941
11146346 40 17274819194265597992
11409948 41 16987446295840391166
11421887 45 17914891170658032224
11456790 92 13407081388667609599
11578821 258 18188214333114224733
12013929 2 18334585608056470406
12539745 222 8358260346500755455
12559415 43 18040712538273029077
14202775 3 10087643693472369149
15455200 26 17843388842629113512
15604295 49 18407759227923778909
16991971 28 14045732726330393619
1754911 235 18272088263273593167
17852330 53 14707755217678954177
20105231 36 9943809980008928148
2026 5 9367350327934765137
21130990 3 9943809997753247833
21362267 2 18412536622182589169
21585482 111 18268435810306128920
21772523 7 18339349838825431869
21792934 111 18413105049226336162
22899556 105 11671798034684447269
2851757 41 10447926192411724421
306946 40 18187080655416682301
3918712 181 18408038507617839395
4073 2 18122353630399151338
4516262 110 18411703162504229075
4756326 101 18408885136082536815
4760202 170 18130785676832791256
5372103 7 18412544310663892831
54039377 194 11311767372687731219
6691757 9 14634877475163640995

> <PUBCHEM_SHAPE_MULTIPOLES>
692.48
45.87
5.13
1.37
83.26
3.82
0.39
60.96
12.29
-6.77
-1.1
1.62
0.17
7.88

> <PUBCHEM_SHAPE_SELFOVERLAP>
1518.431

> <PUBCHEM_SHAPE_VOLUME>
372.3

> <PUBCHEM_COORDINATE_TYPE>
2
5
10

$$$$
