11515637
  -OEChem-03292013303D

 25 26  0     0  0  0  0  0  0999 V2000
    0.0766   -2.2996    0.0059 S   0  0  0  0  0  0  0  0  0  0  0  0
   -2.8938   -2.1374    0.4895 O   0  0  0  0  0  0  0  0  0  0  0  0
   -2.9338    0.1561    0.7264 N   0  0  0  0  0  0  0  0  0  0  0  0
   -4.0797    2.0557   -0.2092 N   0  0  0  0  0  0  0  0  0  0  0  0
   -3.2760    0.4053   -1.5636 N   0  0  0  0  0  0  0  0  0  0  0  0
    1.9765    3.4049    0.3885 N   0  0  0  0  0  0  0  0  0  0  0  0
    1.2904   -0.0183    0.0931 C   0  0  0  0  0  0  0  0  0  0  0  0
    1.5327   -1.3819   -0.0992 C   0  0  0  0  0  0  0  0  0  0  0  0
   -0.1036    0.2339    0.3241 C   0  0  0  0  0  0  0  0  0  0  0  0
   -0.8652   -0.9102    0.3023 C   0  0  0  0  0  0  0  0  0  0  0  0
    2.3902    0.8715    0.0364 C   0  0  0  0  0  0  0  0  0  0  0  0
    2.8306   -1.8721   -0.3437 C   0  0  0  0  0  0  0  0  0  0  0  0
    3.6789    0.3886   -0.2061 C   0  0  0  0  0  0  0  0  0  0  0  0
    3.8945   -0.9693   -0.3937 C   0  0  0  0  0  0  0  0  0  0  0  0
   -2.2727   -1.0498    0.4907 C   0  0  0  0  0  0  0  0  0  0  0  0
    2.1624    2.2672    0.2303 C   0  0  0  0  0  0  0  0  0  0  0  0
   -3.4080    0.8555   -0.2715 C   0  0  0  0  0  0  0  0  0  0  0  0
   -0.5118    1.2220    0.5000 H   0  0  0  0  0  0  0  0  0  0  0  0
    3.0087   -2.9334   -0.4918 H   0  0  0  0  0  0  0  0  0  0  0  0
    4.5253    1.0703   -0.2501 H   0  0  0  0  0  0  0  0  0  0  0  0
    4.9001   -1.3358   -0.5817 H   0  0  0  0  0  0  0  0  0  0  0  0
   -4.2578    2.5103    0.6797 H   0  0  0  0  0  0  0  0  0  0  0  0
   -4.4115    2.5215   -1.0467 H   0  0  0  0  0  0  0  0  0  0  0  0
   -2.8195   -0.4690   -1.7973 H   0  0  0  0  0  0  0  0  0  0  0  0
   -3.6420    0.9445   -2.3411 H   0  0  0  0  0  0  0  0  0  0  0  0
  1  8  1  0  0  0  0
  1 10  1  0  0  0  0
  2 15  2  0  0  0  0
  3 15  1  0  0  0  0
  3 17  2  0  0  0  0
  4 17  1  0  0  0  0
  4 22  1  0  0  0  0
  4 23  1  0  0  0  0
  5 17  1  0  0  0  0
  5 24  1  0  0  0  0
  5 25  1  0  0  0  0
  6 16  3  0  0  0  0
  7  8  1  0  0  0  0
  7  9  1  0  0  0  0
  7 11  2  0  0  0  0
  8 12  2  0  0  0  0
  9 10  2  0  0  0  0
  9 18  1  0  0  0  0
 10 15  1  0  0  0  0
 11 13  1  0  0  0  0
 11 16  1  0  0  0  0
 12 14  1  0  0  0  0
 12 19  1  0  0  0  0
 13 14  2  0  0  0  0
 13 20  1  0  0  0  0
 14 21  1  0  0  0  0
M  END
> <PUBCHEM_COMPOUND_CID>
11515637

> <PUBCHEM_CONFORMER_RMSD>
0.6

> <PUBCHEM_CONFORMER_DIVERSEORDER>
1
13
5
10
4
9
3
11
8
6
12
2
7

> <PUBCHEM_MMFF94_PARTIAL_CHARGES>
24
1 -0.08
10 -0.05
11 0.07
12 -0.15
13 -0.15
14 -0.15
15 0.87
16 0.48
17 0.55
18 0.15
19 0.15
2 -0.57
20 0.15
21 0.15
22 0.4
23 0.4
24 0.4
25 0.4
3 -0.66
4 -0.85
5 -0.85
6 -0.56
8 0.04
9 -0.15

> <PUBCHEM_EFFECTIVE_ROTOR_COUNT>
2

> <PUBCHEM_PHARMACOPHORE_FEATURES>
7
1 2 acceptor
1 3 donor
1 4 donor
1 5 donor
1 6 acceptor
5 1 7 8 9 10 rings
6 7 8 11 12 13 14 rings

> <PUBCHEM_HEAVY_ATOM_COUNT>
17

> <PUBCHEM_ATOM_DEF_STEREO_COUNT>
0

> <PUBCHEM_ATOM_UDEF_STEREO_COUNT>
0

> <PUBCHEM_BOND_DEF_STEREO_COUNT>
0

> <PUBCHEM_BOND_UDEF_STEREO_COUNT>
0

> <PUBCHEM_ISOTOPIC_ATOM_COUNT>
0

> <PUBCHEM_COMPONENT_COUNT>
1

> <PUBCHEM_CACTVS_TAUTO_COUNT>
3

> <PUBCHEM_CONFORMER_ID>
00AFB6F500000001

> <PUBCHEM_MMFF94_ENERGY>
45.4765

> <PUBCHEM_FEATURE_SELFOVERLAP>
35.711

> <PUBCHEM_SHAPE_FINGERPRINT>
10608611 8 18337392750375328643
10967382 1 18267027163257265434
11471102 20 18411981326028856446
11615756 256 18335426806611256997
116883 192 17838624349195953526
11715629 250 18124033696011213616
12403259 226 18337390547057099187
12403260 363 18266165304849163610
12500047 106 18260830384326720919
12654215 9 18409730630232697870
12730499 353 18188772726655294959
13134695 92 18340762638077859516
13294875 104 17824799205440543507
13464514 151 18193839245517090535
13897977 150 18410292527533970739
13922767 16 18410571765059625554
14250199 8 18342454842038776901
14648413 74 18266181806577504896
15219456 202 18408888451032540866
15279308 100 18409732876226384502
15375462 6 18194124250714422819
16945 1 18340211790952290762
17041 50 18411424981761425622
18186145 218 18272663362856044826
18219364 16 18335715913897301073
200 152 17703785886319969382
20233049 118 18261115128158243606
20606313 2 18340487768629065438
20645477 56 18260551121716759297
20645477 70 18271812263679169078
20681677 76 18336826506445923723
21639500 275 18341607148448485716
221357 26 18267016172684206469
221490 88 18338245976052594522
22892500 29 18410003317289635364
23402539 116 18201149945896898286
23402655 69 18200311017912845557
23557571 272 17750517467490387011
23559900 14 18339925914415044170
25 1 18262799553748908135
2748010 2 18337677528213752738
3071541 158 18408892840926876404
34934 24 18411413982698723482
350125 39 18265906928248801411
3524813 1 18041836191041323189
5104073 3 18409169922088838066
5939293 188 18411415107795298416
6049 1 18187941628249072979
6438718 38 17415283827786002041
7364860 26 18198632223235568768
74978 22 18411418410234797907
7832392 63 18411980234843399586
81228 2 17533509082177441875
93112 12 18411138039027667991
9709674 26 18339368581508823202

> <PUBCHEM_SHAPE_MULTIPOLES>
327.91
7.15
2.9
0.81
3.35
1.5
0.16
1.64
1.12
-0.87
-0.28
0.46
0.01
0.83

> <PUBCHEM_SHAPE_SELFOVERLAP>
701.082

> <PUBCHEM_SHAPE_VOLUME>
181.9

> <PUBCHEM_COORDINATE_TYPE>
2
5
10

$$$$
