115166
  -OEChem-03292013323D

 34 35  0     1  0  0  0  0  0999 V2000
    0.5911   -0.3931    0.2562 O   0  0  0  0  0  0  0  0  0  0  0  0
   -0.7403    1.5049    0.5170 O   0  0  0  0  0  0  0  0  0  0  0  0
    4.0362    1.8403    0.3846 O   0  0  0  0  0  0  0  0  0  0  0  0
    4.0855   -0.8458   -0.7248 O   0  0  0  0  0  0  0  0  0  0  0  0
    1.4553    3.1240   -0.2194 O   0  0  0  0  0  0  0  0  0  0  0  0
    2.6812   -3.1296   -0.4290 O   0  0  0  0  0  0  0  0  0  0  0  0
    0.8855   -2.8345    0.9437 O   0  0  0  0  0  0  0  0  0  0  0  0
   -5.5348   -1.0187   -0.4957 O   0  0  0  0  0  0  0  0  0  0  0  0
    2.9225    1.2085   -0.2486 C   0  0  1  0  0  0  0  0  0  0  0  0
    3.0089   -0.2924    0.0301 C   0  0  1  0  0  0  0  0  0  0  0  0
    1.6223    1.8026    0.2939 C   0  0  2  0  0  0  0  0  0  0  0  0
    1.7174   -0.9920   -0.3746 C   0  0  1  0  0  0  0  0  0  0  0  0
    0.4133    0.9677   -0.1291 C   0  0  1  0  0  0  0  0  0  0  0  0
    1.6884   -2.3975    0.1327 C   0  0  0  0  0  0  0  0  0  0  0  0
   -1.9304    0.8787    0.2658 C   0  0  0  0  0  0  0  0  0  0  0  0
   -2.4098    0.8043   -1.0385 C   0  0  0  0  0  0  0  0  0  0  0  0
   -2.6524    0.3206    1.3161 C   0  0  0  0  0  0  0  0  0  0  0  0
   -3.6232    0.1657   -1.2948 C   0  0  0  0  0  0  0  0  0  0  0  0
   -3.8657   -0.3182    1.0598 C   0  0  0  0  0  0  0  0  0  0  0  0
   -4.3510   -0.3956   -0.2457 C   0  0  0  0  0  0  0  0  0  0  0  0
    3.0169    1.4180   -1.3214 H   0  0  0  0  0  0  0  0  0  0  0  0
    3.2351   -0.4622    1.0900 H   0  0  0  0  0  0  0  0  0  0  0  0
    1.6661    1.8850    1.3870 H   0  0  0  0  0  0  0  0  0  0  0  0
    1.5624   -1.0179   -1.4603 H   0  0  0  0  0  0  0  0  0  0  0  0
    0.2862    1.0369   -1.2176 H   0  0  0  0  0  0  0  0  0  0  0  0
    4.8438    1.4349    0.0251 H   0  0  0  0  0  0  0  0  0  0  0  0
    3.8975   -0.7020   -1.6680 H   0  0  0  0  0  0  0  0  0  0  0  0
    2.2420    3.6359    0.0356 H   0  0  0  0  0  0  0  0  0  0  0  0
    2.6804   -4.0563   -0.1072 H   0  0  0  0  0  0  0  0  0  0  0  0
   -1.8662    1.2510   -1.8658 H   0  0  0  0  0  0  0  0  0  0  0  0
   -2.2776    0.3779    2.3341 H   0  0  0  0  0  0  0  0  0  0  0  0
   -3.9982    0.1119   -2.3132 H   0  0  0  0  0  0  0  0  0  0  0  0
   -4.4230   -0.7516    1.8859 H   0  0  0  0  0  0  0  0  0  0  0  0
   -5.9013   -1.3473    0.3432 H   0  0  0  0  0  0  0  0  0  0  0  0
  1 12  1  0  0  0  0
  1 13  1  0  0  0  0
  2 13  1  0  0  0  0
  2 15  1  0  0  0  0
  3  9  1  0  0  0  0
  3 26  1  0  0  0  0
  4 10  1  0  0  0  0
  4 27  1  0  0  0  0
  5 11  1  0  0  0  0
  5 28  1  0  0  0  0
  6 14  1  0  0  0  0
  6 29  1  0  0  0  0
  7 14  2  0  0  0  0
  8 20  1  0  0  0  0
  8 34  1  0  0  0  0
  9 10  1  0  0  0  0
  9 11  1  0  0  0  0
  9 21  1  0  0  0  0
 10 12  1  0  0  0  0
 10 22  1  0  0  0  0
 11 13  1  0  0  0  0
 11 23  1  0  0  0  0
 12 14  1  0  0  0  0
 12 24  1  0  0  0  0
 13 25  1  0  0  0  0
 15 16  2  0  0  0  0
 15 17  1  0  0  0  0
 16 18  1  0  0  0  0
 16 30  1  0  0  0  0
 17 19  2  0  0  0  0
 17 31  1  0  0  0  0
 18 20  2  0  0  0  0
 18 32  1  0  0  0  0
 19 20  1  0  0  0  0
 19 33  1  0  0  0  0
M  END
> <PUBCHEM_COMPOUND_CID>
115166

> <PUBCHEM_CONFORMER_RMSD>
0.6

> <PUBCHEM_CONFORMER_DIVERSEORDER>
1
51
3
43
6
52
7
34
25
31
32
54
44
57
45
20
19
49
36
30
35
41
29
38
42
55
9
56
18
53
46
5
50
13
37
12
11
24
48
8
33
23
26
28
47
27
14
2
39
17
10
21
16
40
22
4
15

> <PUBCHEM_MMFF94_PARTIAL_CHARGES>
29
1 -0.56
10 0.28
11 0.28
12 0.34
13 0.56
14 0.66
15 0.08
16 -0.15
17 -0.15
18 -0.15
19 -0.15
2 -0.36
20 0.08
26 0.4
27 0.4
28 0.4
29 0.5
3 -0.68
30 0.15
31 0.15
32 0.15
33 0.15
34 0.45
4 -0.68
5 -0.68
6 -0.65
7 -0.57
8 -0.53
9 0.28

> <PUBCHEM_EFFECTIVE_ROTOR_COUNT>
4.2

> <PUBCHEM_PHARMACOPHORE_FEATURES>
14
1 1 acceptor
1 2 acceptor
1 3 acceptor
1 3 donor
1 4 acceptor
1 4 donor
1 5 acceptor
1 5 donor
1 6 acceptor
1 7 acceptor
1 8 donor
3 6 7 14 anion
6 1 9 10 11 12 13 rings
6 15 16 17 18 19 20 rings

> <PUBCHEM_HEAVY_ATOM_COUNT>
20

> <PUBCHEM_ATOM_DEF_STEREO_COUNT>
5

> <PUBCHEM_ATOM_UDEF_STEREO_COUNT>
0

> <PUBCHEM_BOND_DEF_STEREO_COUNT>
0

> <PUBCHEM_BOND_UDEF_STEREO_COUNT>
0

> <PUBCHEM_ISOTOPIC_ATOM_COUNT>
0

> <PUBCHEM_COMPONENT_COUNT>
1

> <PUBCHEM_CACTVS_TAUTO_COUNT>
2

> <PUBCHEM_CONFORMER_ID>
0001C1DE00000001

> <PUBCHEM_MMFF94_ENERGY>
57.4894

> <PUBCHEM_FEATURE_SELFOVERLAP>
71.182

> <PUBCHEM_SHAPE_FINGERPRINT>
10366900 7 18113624482097508771
11471102 20 18410575114733397581
11615757 297 18272091595477105041
11806522 49 18413109446254371492
12107183 9 17767417786053794897
12236239 1 17704076218115265369
12553582 1 17760370993802511851
13083527 12 18044073688977701778
13140716 1 18196367250308975944
13533116 47 18343864429547724091
13836976 161 18262236749813780228
13862211 1 18338517431419294606
14251717 144 18410855481602998288
14576447 43 18342175548747294638
14787075 74 17846210128971550488
14844126 61 16603781398378669466
15375358 24 17967248719795484417
15375462 189 17917709097950538393
15635459 17 18260266335051452619
19433438 38 18040709234630158005
200 152 18272367598987441857
20279233 1 17894912953584426657
20291156 8 18199469861547764767
204376 136 18265895946270860416
20645477 70 18410848837747644551
21054139 6 18055623160668113343
221490 88 18336831887829052926
2255824 54 18340772640698398252
23557571 272 17313100822369958229
23559900 14 18334850606620261473
23596394 208 18188197737433724679
23598288 3 17632017438687872153
23598291 2 18057897852636263521
2748010 2 18120106232066165864
2871803 45 18409729551794915021
3060560 45 18336543914872726852
3323516 105 18334576836999275275
33824 294 18409165536547354931
474 4 18268710678615387776
474229 33 18337390560369314584
6913067 236 18115291393264883445
81228 2 17187553950092583224
8272917 22 18411141337895003749
9709674 26 18333734607029618275
9981440 41 15690371485116909000

> <PUBCHEM_SHAPE_MULTIPOLES>
364.64
8.64
2.8
1.01
6.81
1.01
0.02
1.44
-1.13
-3.47
0.15
0.87
0.04
0.22

> <PUBCHEM_SHAPE_SELFOVERLAP>
773.93

> <PUBCHEM_SHAPE_VOLUME>
200.6

> <PUBCHEM_COORDINATE_TYPE>
2
5
10

$$$$
