11510122
  -OEChem-03292013303D

 33 36  0     1  0  0  0  0  0999 V2000
   -5.1742    1.7873    0.8784 Cl  0  0  0  0  0  0  0  0  0  0  0  0
    0.4328    2.3389   -0.6471 S   0  0  0  0  0  0  0  0  0  0  0  0
    4.0702    1.5210   -0.2988 S   0  0  0  0  0  0  0  0  0  0  0  0
    1.5478    3.4036    0.6986 S   0  0  0  0  0  0  0  0  0  0  0  0
    3.0436    2.1692    1.3518 S   0  0  0  0  0  0  0  0  0  0  0  0
   -0.5334   -1.4342   -0.6109 O   0  0  0  0  0  0  0  0  0  0  0  0
    0.9990   -1.7668    1.6131 O   0  0  0  0  0  0  0  0  0  0  0  0
    0.5079   -0.3046   -2.7947 O   0  0  0  0  0  0  0  0  0  0  0  0
    3.6039   -1.1651    1.5222 O   0  0  0  0  0  0  0  0  0  0  0  0
   -5.2923   -1.0073   -0.2176 O   0  0  0  0  0  0  0  0  0  0  0  0
    1.5515   -1.1676    0.4676 N   0  0  0  0  0  0  0  0  0  0  0  0
    2.5612   -0.2113   -1.7991 N   0  0  0  0  0  0  0  0  0  0  0  0
    0.5632   -0.4997   -0.3785 C   0  0  2  0  0  0  0  0  0  0  0  0
   -0.0082    0.8123    0.2538 C   0  0  2  0  0  0  0  0  0  0  0  0
   -1.4683    0.5244    0.1770 C   0  0  0  0  0  0  0  0  0  0  0  0
    1.1908   -0.3639   -1.7704 C   0  0  0  0  0  0  0  0  0  0  0  0
   -1.6794   -0.7544   -0.3057 C   0  0  0  0  0  0  0  0  0  0  0  0
    3.4385   -0.1508   -0.6457 C   0  0  2  0  0  0  0  0  0  0  0  0
    2.8902   -0.8813    0.5604 C   0  0  0  0  0  0  0  0  0  0  0  0
   -2.5428    1.3132    0.5616 C   0  0  0  0  0  0  0  0  0  0  0  0
   -2.9480   -1.2870   -0.4468 C   0  0  0  0  0  0  0  0  0  0  0  0
   -3.8345    0.7985    0.4242 C   0  0  0  0  0  0  0  0  0  0  0  0
   -4.0359   -0.4948   -0.0796 C   0  0  0  0  0  0  0  0  0  0  0  0
    1.1164   -3.1798    1.4863 C   0  0  0  0  0  0  0  0  0  0  0  0
    0.2582    0.8871    1.3140 H   0  0  0  0  0  0  0  0  0  0  0  0
    4.3177   -0.7271   -0.9587 H   0  0  0  0  0  0  0  0  0  0  0  0
    2.9886   -0.0698   -2.7092 H   0  0  0  0  0  0  0  0  0  0  0  0
   -2.3769    2.3087    0.9628 H   0  0  0  0  0  0  0  0  0  0  0  0
   -3.0833   -2.2931   -0.8301 H   0  0  0  0  0  0  0  0  0  0  0  0
    2.1662   -3.4875    1.5093 H   0  0  0  0  0  0  0  0  0  0  0  0
    0.6421   -3.5350    0.5662 H   0  0  0  0  0  0  0  0  0  0  0  0
    0.6053   -3.6400    2.3364 H   0  0  0  0  0  0  0  0  0  0  0  0
   -5.2314   -1.9083   -0.5786 H   0  0  0  0  0  0  0  0  0  0  0  0
  1 22  1  0  0  0  0
  2  4  1  0  0  0  0
  2 14  1  0  0  0  0
  3  5  1  0  0  0  0
  3 18  1  0  0  0  0
  4  5  1  0  0  0  0
  6 13  1  0  0  0  0
  6 17  1  0  0  0  0
  7 11  1  0  0  0  0
  7 24  1  0  0  0  0
  8 16  2  0  0  0  0
  9 19  2  0  0  0  0
 10 23  1  0  0  0  0
 10 33  1  0  0  0  0
 11 13  1  0  0  0  0
 11 19  1  0  0  0  0
 12 16  1  0  0  0  0
 12 18  1  0  0  0  0
 12 27  1  0  0  0  0
 13 14  1  0  0  0  0
 13 16  1  0  0  0  0
 14 15  1  0  0  0  0
 14 25  1  0  0  0  0
 15 17  1  0  0  0  0
 15 20  2  0  0  0  0
 17 21  2  0  0  0  0
 18 19  1  0  0  0  0
 18 26  1  0  0  0  0
 20 22  1  0  0  0  0
 20 28  1  0  0  0  0
 21 23  1  0  0  0  0
 21 29  1  0  0  0  0
 22 23  2  0  0  0  0
 24 30  1  0  0  0  0
 24 31  1  0  0  0  0
 24 32  1  0  0  0  0
M  END
> <PUBCHEM_COMPOUND_CID>
11510122

> <PUBCHEM_CONFORMER_RMSD>
0.6

> <PUBCHEM_CONFORMER_DIVERSEORDER>
2
1
3

> <PUBCHEM_MMFF94_PARTIAL_CHARGES>
26
1 -0.18
10 -0.53
11 -0.32
12 -0.73
13 0.64
14 0.37
15 -0.14
16 0.57
17 0.08
18 0.59
19 0.57
2 -0.23
20 -0.15
21 -0.15
22 0.18
23 0.08
24 0.28
27 0.37
28 0.15
29 0.15
3 -0.23
33 0.45
6 -0.36
7 -0.32
8 -0.57
9 -0.57

> <PUBCHEM_EFFECTIVE_ROTOR_COUNT>
2.4

> <PUBCHEM_PHARMACOPHORE_FEATURES>
8
1 10 donor
1 12 donor
1 6 acceptor
1 8 acceptor
1 9 acceptor
5 6 13 14 15 17 rings
6 11 12 13 16 18 19 rings
6 15 17 20 21 22 23 rings

> <PUBCHEM_HEAVY_ATOM_COUNT>
24

> <PUBCHEM_ATOM_DEF_STEREO_COUNT>
2

> <PUBCHEM_ATOM_UDEF_STEREO_COUNT>
1

> <PUBCHEM_BOND_DEF_STEREO_COUNT>
0

> <PUBCHEM_BOND_UDEF_STEREO_COUNT>
0

> <PUBCHEM_ISOTOPIC_ATOM_COUNT>
0

> <PUBCHEM_COMPONENT_COUNT>
1

> <PUBCHEM_CACTVS_TAUTO_COUNT>
6

> <PUBCHEM_CONFORMER_ID>
00AFA16A00000002

> <PUBCHEM_MMFF94_ENERGY>
67.0198

> <PUBCHEM_FEATURE_SELFOVERLAP>
40.707

> <PUBCHEM_SHAPE_FINGERPRINT>
10366900 7 18186242826970559913
10863032 1 18340203102459927450
10948715 1 18057321902080782512
11578080 2 17823392964450001325
12011746 2 18337957904259272940
12236239 1 18259991452570044502
12633257 1 18342171116240805512
13132413 78 18409728435103801413
13140716 1 18411703214201592289
13224815 77 18272653463341451897
13583140 156 18335686240152849765
13965767 371 17551810117839713345
14787075 74 18334297582673566040
15536298 74 18202003278040731729
1601671 61 18060426802442422236
16945 1 18131629015130467550
17980427 23 17845635011275591137
19078846 21 18337675217869539601
20691752 17 18113896104155849113
20905425 154 18343303652167960932
21421861 104 17970912150330508162
23419403 2 14876050217301939590
23558518 356 17907014337009678704
23559900 14 17702957915330317247
2838139 119 17774151465750847344
3286 77 18188478112914696730
34934 24 18412830157526940357
392239 28 18119532291149237299
474 4 18189617326861856836
5104073 3 18412829097002204953
5895379 119 17416705573798887665
5939293 188 18273215296324418616
633830 44 18411702101382803158
7097593 13 17830165810132433731
7364860 26 17988085615824335845
9981440 41 17191777694231296336
9999458 23 18188769595007341196

> <PUBCHEM_SHAPE_MULTIPOLES>
471.87
8.22
3.01
1.62
8.7
0.94
0.54
2.06
-1.29
-1.38
-1.4
-1.24
-0.6
-0.66

> <PUBCHEM_SHAPE_SELFOVERLAP>
974.678

> <PUBCHEM_SHAPE_VOLUME>
275.6

> <PUBCHEM_COORDINATE_TYPE>
2
5
10

$$$$
