115180
  -OEChem-03292013323D

 32 35  0     0  0  0  0  0  0999 V2000
   -1.4534   -3.5834   -0.0578 O   0  0  0  0  0  0  0  0  0  0  0  0
    1.4535    3.5836    0.0583 O   0  0  0  0  0  0  0  0  0  0  0  0
    1.2631   -3.5821    0.0512 O   0  0  0  0  0  0  0  0  0  0  0  0
   -1.2630    3.5822   -0.0502 O   0  0  0  0  0  0  0  0  0  0  0  0
   -0.7138   -2.3902   -0.0110 N   0  0  0  0  0  0  0  0  0  0  0  0
    0.7138    2.3902    0.0109 N   0  0  0  0  0  0  0  0  0  0  0  0
   -4.9393    0.0640    0.0173 N   0  0  0  0  0  0  0  0  0  0  0  0
    4.9393   -0.0642   -0.0176 N   0  0  0  0  0  0  0  0  0  0  0  0
   -0.7294    0.0144    0.0012 C   0  0  0  0  0  0  0  0  0  0  0  0
    0.7294   -0.0144   -0.0014 C   0  0  0  0  0  0  0  0  0  0  0  0
   -1.4488   -1.1907    0.0035 C   0  0  0  0  0  0  0  0  0  0  0  0
    1.4487    1.1907   -0.0036 C   0  0  0  0  0  0  0  0  0  0  0  0
    1.4241   -1.2345    0.0015 C   0  0  0  0  0  0  0  0  0  0  0  0
   -1.4241    1.2345   -0.0016 C   0  0  0  0  0  0  0  0  0  0  0  0
    0.6602   -2.5128    0.0162 C   0  0  0  0  0  0  0  0  0  0  0  0
   -0.6601    2.5127   -0.0167 C   0  0  0  0  0  0  0  0  0  0  0  0
   -2.8477   -1.1703    0.0097 C   0  0  0  0  0  0  0  0  0  0  0  0
    2.8476    1.1704   -0.0098 C   0  0  0  0  0  0  0  0  0  0  0  0
    2.8216   -1.2517   -0.0038 C   0  0  0  0  0  0  0  0  0  0  0  0
   -2.8217    1.2517    0.0037 C   0  0  0  0  0  0  0  0  0  0  0  0
   -3.5278    0.0488    0.0110 C   0  0  0  0  0  0  0  0  0  0  0  0
    3.5277   -0.0487   -0.0110 C   0  0  0  0  0  0  0  0  0  0  0  0
   -3.4180   -2.0960    0.0125 H   0  0  0  0  0  0  0  0  0  0  0  0
    3.4179    2.0961   -0.0125 H   0  0  0  0  0  0  0  0  0  0  0  0
    3.3652   -2.1934   -0.0023 H   0  0  0  0  0  0  0  0  0  0  0  0
   -3.3652    2.1934    0.0021 H   0  0  0  0  0  0  0  0  0  0  0  0
   -5.4360    0.9449    0.0217 H   0  0  0  0  0  0  0  0  0  0  0  0
   -5.4549   -0.8060    0.0260 H   0  0  0  0  0  0  0  0  0  0  0  0
    5.4551    0.8056   -0.0256 H   0  0  0  0  0  0  0  0  0  0  0  0
    5.4358   -0.9453   -0.0212 H   0  0  0  0  0  0  0  0  0  0  0  0
   -1.3762   -3.8769    0.8663 H   0  0  0  0  0  0  0  0  0  0  0  0
    1.3412    3.8251    0.9938 H   0  0  0  0  0  0  0  0  0  0  0  0
  1  5  1  0  0  0  0
  1 31  1  0  0  0  0
  2  6  1  0  0  0  0
  2 32  1  0  0  0  0
  3 15  2  0  0  0  0
  4 16  2  0  0  0  0
  5 11  1  0  0  0  0
  5 15  1  0  0  0  0
  6 12  1  0  0  0  0
  6 16  1  0  0  0  0
  7 21  1  0  0  0  0
  7 27  1  0  0  0  0
  7 28  1  0  0  0  0
  8 22  1  0  0  0  0
  8 29  1  0  0  0  0
  8 30  1  0  0  0  0
  9 10  1  0  0  0  0
  9 11  1  0  0  0  0
  9 14  2  0  0  0  0
 10 12  1  0  0  0  0
 10 13  2  0  0  0  0
 11 17  2  0  0  0  0
 12 18  2  0  0  0  0
 13 15  1  0  0  0  0
 13 19  1  0  0  0  0
 14 16  1  0  0  0  0
 14 20  1  0  0  0  0
 17 21  1  0  0  0  0
 17 23  1  0  0  0  0
 18 22  1  0  0  0  0
 18 24  1  0  0  0  0
 19 22  2  0  0  0  0
 19 25  1  0  0  0  0
 20 21  2  0  0  0  0
 20 26  1  0  0  0  0
M  END
> <PUBCHEM_COMPOUND_CID>
115180

> <PUBCHEM_CONFORMER_RMSD>
0.6

> <PUBCHEM_CONFORMER_DIVERSEORDER>
1

> <PUBCHEM_MMFF94_PARTIAL_CHARGES>
30
1 -0.44
11 0.12
12 0.12
13 0.09
14 0.09
15 0.54
16 0.54
17 -0.15
18 -0.15
19 -0.15
2 -0.44
20 -0.15
21 0.1
22 0.1
23 0.15
24 0.15
25 0.15
26 0.15
27 0.4
28 0.4
29 0.4
3 -0.57
30 0.4
31 0.4
32 0.4
4 -0.57
5 -0.14
6 -0.14
7 -0.9
8 -0.9

> <PUBCHEM_EFFECTIVE_ROTOR_COUNT>
0

> <PUBCHEM_PHARMACOPHORE_FEATURES>
10
1 3 acceptor
1 4 acceptor
1 7 cation
1 7 donor
1 8 cation
1 8 donor
6 10 12 13 18 19 22 rings
6 5 9 10 11 13 15 rings
6 6 9 10 12 14 16 rings
6 9 11 14 17 20 21 rings

> <PUBCHEM_HEAVY_ATOM_COUNT>
22

> <PUBCHEM_ATOM_DEF_STEREO_COUNT>
0

> <PUBCHEM_ATOM_UDEF_STEREO_COUNT>
0

> <PUBCHEM_BOND_DEF_STEREO_COUNT>
0

> <PUBCHEM_BOND_UDEF_STEREO_COUNT>
0

> <PUBCHEM_ISOTOPIC_ATOM_COUNT>
0

> <PUBCHEM_COMPONENT_COUNT>
1

> <PUBCHEM_CACTVS_TAUTO_COUNT>
3

> <PUBCHEM_CONFORMER_ID>
0001C1EC00000001

> <PUBCHEM_MMFF94_ENERGY>
92.0869

> <PUBCHEM_FEATURE_SELFOVERLAP>
50.867

> <PUBCHEM_SHAPE_FINGERPRINT>
10411042 1 17978511927948555307
10616163 171 18266460897330479244
10693767 8 18130489856892308759
10967382 1 18410575076157722247
1100329 8 18338799042911273106
11578080 2 17172607558671606012
11680986 33 18123185981104497505
12011746 2 18410575076078419421
12553582 1 18410845560233825767
12838862 33 18338496595625502437
13140716 1 18266177416593440203
14178342 30 17762043351209366224
14223421 5 18122907516736181502
14790565 3 18338812159747611621
15042514 8 18409167744466993922
15196674 1 18338799038616305669
16945 1 18410853243925037062
19591789 44 18410857676336567779
20028762 73 18057606658571445559
20510252 161 18271243803277120424
20739085 24 17977977612472946961
20905425 154 18053665776456734206
21197605 99 17977963594338730539
21267235 1 18410583880766813027
21421861 104 17899980434935751971
21501502 16 17978229357232035378
2334 1 17978229683644268551
23402539 116 18343293786369060854
23419403 2 16042164503720340178
23558518 356 17900833643100500849
23559900 14 18270964652605651804
23566358 2 18123749755522646565
238 59 17757786227165636975
266924 87 18193547866525669965
2748010 2 18194401327597000173
335352 9 18410856581114626493
34934 24 18410567405351529818
350125 39 18049449428700766947
43471831 8 18264205816536618714
484985 159 14572333648990178994
484989 97 18119524599438335759
589210 1 17689999354742484885
7832392 63 18339920549267389138

> <PUBCHEM_SHAPE_MULTIPOLES>
409.35
6.13
4.09
0.58
0
0
0
0
0
0
0
0
0
0

> <PUBCHEM_SHAPE_SELFOVERLAP>
938.927

> <PUBCHEM_SHAPE_VOLUME>
210.4

> <PUBCHEM_COORDINATE_TYPE>
2
5
10

$$$$
