115145
  -OEChem-03292013323D

 35 36  0     1  0  0  0  0  0999 V2000
    1.1298   -0.6470    0.0098 O   0  0  0  0  0  0  0  0  0  0  0  0
    3.3863    2.7006    0.7674 O   0  0  0  0  0  0  0  0  0  0  0  0
    4.6700    0.2587   -0.1474 O   0  0  0  0  0  0  0  0  0  0  0  0
   -0.8282    0.6126   -0.1396 O   0  0  0  0  0  0  0  0  0  0  0  0
    0.7231    2.9520   -0.4646 O   0  0  0  0  0  0  0  0  0  0  0  0
    4.1766   -2.3909   -0.0383 O   0  0  0  0  0  0  0  0  0  0  0  0
    2.1378   -2.8238    0.8846 O   0  0  0  0  0  0  0  0  0  0  0  0
   -1.2089   -1.3390   -1.2993 O   0  0  0  0  0  0  0  0  0  0  0  0
    2.7576    1.7196   -0.0588 C   0  0  1  0  0  0  0  0  0  0  0  0
    3.3246    0.3505    0.3180 C   0  0  1  0  0  0  0  0  0  0  0  0
    1.2435    1.7724    0.1480 C   0  0  2  0  0  0  0  0  0  0  0  0
    2.5087   -0.7663   -0.3211 C   0  0  1  0  0  0  0  0  0  0  0  0
    0.5561    0.5613   -0.4829 C   0  0  1  0  0  0  0  0  0  0  0  0
    2.8847   -2.0964    0.2472 C   0  0  0  0  0  0  0  0  0  0  0  0
   -1.5953   -0.4037   -0.6159 C   0  0  0  0  0  0  0  0  0  0  0  0
   -3.0080   -0.2335   -0.1923 C   0  0  0  0  0  0  0  0  0  0  0  0
   -3.7882   -1.3564   -0.0061 C   0  0  0  0  0  0  0  0  0  0  0  0
   -3.4970    1.0421    0.0026 C   0  0  0  0  0  0  0  0  0  0  0  0
   -5.1154   -1.1967    0.3922 C   0  0  0  0  0  0  0  0  0  0  0  0
   -4.8243    1.2017    0.4009 C   0  0  0  0  0  0  0  0  0  0  0  0
   -5.6334    0.0822    0.5957 C   0  0  0  0  0  0  0  0  0  0  0  0
    3.0084    1.9805   -1.0944 H   0  0  0  0  0  0  0  0  0  0  0  0
    3.3510    0.2457    1.4096 H   0  0  0  0  0  0  0  0  0  0  0  0
    1.0049    1.8331    1.2171 H   0  0  0  0  0  0  0  0  0  0  0  0
    2.6240   -0.8157   -1.4110 H   0  0  0  0  0  0  0  0  0  0  0  0
    0.6371    0.6021   -1.5780 H   0  0  0  0  0  0  0  0  0  0  0  0
    4.3452    2.6348    0.6191 H   0  0  0  0  0  0  0  0  0  0  0  0
    4.6611    0.3501   -1.1155 H   0  0  0  0  0  0  0  0  0  0  0  0
    1.1861    3.7115   -0.0715 H   0  0  0  0  0  0  0  0  0  0  0  0
    4.4439   -3.2608    0.3282 H   0  0  0  0  0  0  0  0  0  0  0  0
   -3.3953   -2.3572   -0.1580 H   0  0  0  0  0  0  0  0  0  0  0  0
   -2.8925    1.9301   -0.1553 H   0  0  0  0  0  0  0  0  0  0  0  0
   -5.7454   -2.0682    0.5445 H   0  0  0  0  0  0  0  0  0  0  0  0
   -5.2289    2.1975    0.5564 H   0  0  0  0  0  0  0  0  0  0  0  0
   -6.6669    0.2066    0.9053 H   0  0  0  0  0  0  0  0  0  0  0  0
  1 12  1  0  0  0  0
  1 13  1  0  0  0  0
  2  9  1  0  0  0  0
  2 27  1  0  0  0  0
  3 10  1  0  0  0  0
  3 28  1  0  0  0  0
  4 13  1  0  0  0  0
  4 15  1  0  0  0  0
  5 11  1  0  0  0  0
  5 29  1  0  0  0  0
  6 14  1  0  0  0  0
  6 30  1  0  0  0  0
  7 14  2  0  0  0  0
  8 15  2  0  0  0  0
  9 10  1  0  0  0  0
  9 11  1  0  0  0  0
  9 22  1  0  0  0  0
 10 12  1  0  0  0  0
 10 23  1  0  0  0  0
 11 13  1  0  0  0  0
 11 24  1  0  0  0  0
 12 14  1  0  0  0  0
 12 25  1  0  0  0  0
 13 26  1  0  0  0  0
 15 16  1  0  0  0  0
 16 17  2  0  0  0  0
 16 18  1  0  0  0  0
 17 19  1  0  0  0  0
 17 31  1  0  0  0  0
 18 20  2  0  0  0  0
 18 32  1  0  0  0  0
 19 21  2  0  0  0  0
 19 33  1  0  0  0  0
 20 21  1  0  0  0  0
 20 34  1  0  0  0  0
 21 35  1  0  0  0  0
M  END
> <PUBCHEM_COMPOUND_CID>
115145

> <PUBCHEM_CONFORMER_RMSD>
0.8

> <PUBCHEM_CONFORMER_DIVERSEORDER>
1
36
32
25
30
11
12
26
34
4
33
31
24
23
6
35
8
22
13
18
3
16
21
27
10
28
20
37
29
17
14
9
19
15
5
7
2

> <PUBCHEM_MMFF94_PARTIAL_CHARGES>
30
1 -0.56
10 0.28
11 0.28
12 0.34
13 0.56
14 0.66
15 0.63
16 0.09
17 -0.15
18 -0.15
19 -0.15
2 -0.68
20 -0.15
21 -0.15
27 0.4
28 0.4
29 0.4
3 -0.68
30 0.5
31 0.15
32 0.15
33 0.15
34 0.15
35 0.15
4 -0.43
5 -0.68
6 -0.65
7 -0.57
8 -0.57
9 0.28

> <PUBCHEM_EFFECTIVE_ROTOR_COUNT>
5.2

> <PUBCHEM_PHARMACOPHORE_FEATURES>
13
1 1 acceptor
1 2 acceptor
1 2 donor
1 3 acceptor
1 3 donor
1 5 acceptor
1 5 donor
1 6 acceptor
1 7 acceptor
1 8 acceptor
3 6 7 14 anion
6 1 9 10 11 12 13 rings
6 16 17 18 19 20 21 rings

> <PUBCHEM_HEAVY_ATOM_COUNT>
21

> <PUBCHEM_ATOM_DEF_STEREO_COUNT>
5

> <PUBCHEM_ATOM_UDEF_STEREO_COUNT>
0

> <PUBCHEM_BOND_DEF_STEREO_COUNT>
0

> <PUBCHEM_BOND_UDEF_STEREO_COUNT>
0

> <PUBCHEM_ISOTOPIC_ATOM_COUNT>
0

> <PUBCHEM_COMPONENT_COUNT>
1

> <PUBCHEM_CACTVS_TAUTO_COUNT>
1

> <PUBCHEM_CONFORMER_ID>
0001C1C900000001

> <PUBCHEM_MMFF94_ENERGY>
54.3704

> <PUBCHEM_FEATURE_SELFOVERLAP>
66.064

> <PUBCHEM_SHAPE_FINGERPRINT>
11405975 8 18411704253741719113
12107183 9 17980205175928333129
12236239 1 17917714612377271011
12251169 10 18411702110463263559
12507560 40 18408321086506880181
12553582 1 18266164038113899454
12596602 18 17632579400281396387
12644460 14 18410295817368214962
12670546 56 18272365412811905245
12892183 10 18338238262554665629
13140716 1 18122898991606206016
13167823 11 18413388744126041039
13533116 47 18410012169903196691
13583140 156 18335131008387697279
13675066 3 18186241723633469405
13785724 45 17696203504106980791
14178342 30 17910091831648615786
14341114 176 18410582773324529931
14790565 3 17975701902513852820
14866123 147 17258215168784887947
15042514 8 17546160806143608826
15196674 1 18410856538555466631
15375462 189 18410848846105639182
15442244 35 18340207384468721817
15475509 84 17987799592561876640
17492 89 18338518642347117915
17844677 252 18411708660304422001
1813 80 17022624173869124749
19784866 9 18342174518013217960
20645477 70 18341614797706326662
20832881 197 18043250141588274507
21065198 48 18342741827911923137
21065198 57 18409450284943136297
21065199 12 18408605885761735209
21267235 1 18340778090858526350
21421861 104 18042398037409247424
2255824 54 18262803002755320628
23184049 59 18343582915167176151
23559900 14 18335699464425751737
239999 70 18272097097525533358
3323516 105 18186520986137988187
33824 294 18335699472836416226
3421961 26 18410009905948854210
3545911 37 18410577310063027041
42 15 18408044022303138437
4214541 1 18410857634057009233
474 4 18191866936142000765
5104073 3 18412833482390550475
633830 44 18127408067459466548
7097593 13 18339639040168005431
77779 3 18410857672627117529
8272917 22 18411142450069753462
8863177 126 18041577909183709155
9709674 26 18262242234983077715
9999458 23 18337111271784425380

> <PUBCHEM_SHAPE_MULTIPOLES>
385.22
11.05
2.75
0.79
9.23
0.14
0.04
-1.4
-2.14
-3.16
-0.35
0.1
-0.09
-0.14

> <PUBCHEM_SHAPE_SELFOVERLAP>
819.656

> <PUBCHEM_SHAPE_VOLUME>
210.5

> <PUBCHEM_COORDINATE_TYPE>
2
5
10

$$$$
