115121
  -OEChem-03292013323D

 43 46  0     1  0  0  0  0  0999 V2000
    0.2293   -1.6414   -1.4488 O   0  0  0  0  0  0  0  0  0  0  0  0
   -0.1512    2.6580   -0.2447 O   0  0  0  0  0  0  0  0  0  0  0  0
    2.4578   -0.6653    1.7933 O   0  0  0  0  0  0  0  0  0  0  0  0
    1.9369    0.3028   -2.1245 O   0  0  0  0  0  0  0  0  0  0  0  0
    0.0746   -3.1583    0.7196 O   0  0  0  0  0  0  0  0  0  0  0  0
   -2.0436    0.3967    1.8041 O   0  0  0  0  0  0  0  0  0  0  0  0
    3.1019   -1.8420   -0.0861 O   0  0  0  0  0  0  0  0  0  0  0  0
   -0.8401    2.7998    1.8941 O   0  0  0  0  0  0  0  0  0  0  0  0
   -1.3104    0.0211   -0.5384 C   0  0  2  0  0  0  0  0  0  0  0  0
   -0.0937   -0.9147   -0.2389 C   0  0  2  0  0  0  0  0  0  0  0  0
    1.1645   -0.1164    0.1604 C   0  0  1  0  0  0  0  0  0  0  0  0
   -2.3928   -1.0652   -0.8251 C   0  0  1  0  0  0  0  0  0  0  0  0
    1.4929    0.9677   -0.9291 C   0  0  2  0  0  0  0  0  0  0  0  0
   -0.9663    0.8980   -1.7445 C   0  0  0  0  0  0  0  0  0  0  0  0
   -0.6719   -1.9507    0.7268 C   0  0  1  0  0  0  0  0  0  0  0  0
    0.2202    1.7715   -1.3220 C   0  0  1  0  0  0  0  0  0  0  0  0
   -2.1058   -2.1871    0.2052 C   0  0  0  0  0  0  0  0  0  0  0  0
   -1.7668    1.0187    0.5640 C   0  0  2  0  0  0  0  0  0  0  0  0
    1.3487    0.2590    1.6646 C   0  0  0  0  0  0  0  0  0  0  0  0
    2.3963   -1.0473    0.4939 C   0  0  0  0  0  0  0  0  0  0  0  0
   -3.8516   -0.6264   -0.8206 C   0  0  0  0  0  0  0  0  0  0  0  0
    2.6314    1.9128   -0.5211 C   0  0  0  0  0  0  0  0  0  0  0  0
   -0.8606    2.2085    0.8175 C   0  0  0  0  0  0  0  0  0  0  0  0
   -2.2075   -1.4830   -1.8253 H   0  0  0  0  0  0  0  0  0  0  0  0
   -1.8229    1.5352   -2.0002 H   0  0  0  0  0  0  0  0  0  0  0  0
   -0.7368    0.3210   -2.6458 H   0  0  0  0  0  0  0  0  0  0  0  0
   -0.7098   -1.6111    1.7625 H   0  0  0  0  0  0  0  0  0  0  0  0
    0.4580    2.4205   -2.1743 H   0  0  0  0  0  0  0  0  0  0  0  0
   -2.8091   -2.1461    1.0452 H   0  0  0  0  0  0  0  0  0  0  0  0
   -2.2213   -3.1733   -0.2587 H   0  0  0  0  0  0  0  0  0  0  0  0
   -2.7072    1.4817    0.2356 H   0  0  0  0  0  0  0  0  0  0  0  0
    1.6673    1.2763    1.9020 H   0  0  0  0  0  0  0  0  0  0  0  0
    0.5469   -0.0040    2.3572 H   0  0  0  0  0  0  0  0  0  0  0  0
   -4.1868   -0.3100    0.1717 H   0  0  0  0  0  0  0  0  0  0  0  0
   -4.0130    0.1989   -1.5211 H   0  0  0  0  0  0  0  0  0  0  0  0
   -4.4961   -1.4567   -1.1291 H   0  0  0  0  0  0  0  0  0  0  0  0
    0.6983   -1.0640   -2.0693 H   0  0  0  0  0  0  0  0  0  0  0  0
    3.5421    1.3533   -0.2810 H   0  0  0  0  0  0  0  0  0  0  0  0
    2.8949    2.5797   -1.3509 H   0  0  0  0  0  0  0  0  0  0  0  0
    2.3805    2.5415    0.3368 H   0  0  0  0  0  0  0  0  0  0  0  0
    2.1118    0.9782   -2.8019 H   0  0  0  0  0  0  0  0  0  0  0  0
    0.1386   -3.4634   -0.2014 H   0  0  0  0  0  0  0  0  0  0  0  0
   -2.5079    1.0419    2.3644 H   0  0  0  0  0  0  0  0  0  0  0  0
  1 10  1  0  0  0  0
  1 37  1  0  0  0  0
  2 16  1  0  0  0  0
  2 23  1  0  0  0  0
  3 19  1  0  0  0  0
  3 20  1  0  0  0  0
  4 13  1  0  0  0  0
  4 41  1  0  0  0  0
  5 15  1  0  0  0  0
  5 42  1  0  0  0  0
  6 18  1  0  0  0  0
  6 43  1  0  0  0  0
  7 20  2  0  0  0  0
  8 23  2  0  0  0  0
  9 10  1  0  0  0  0
  9 12  1  0  0  0  0
  9 14  1  0  0  0  0
  9 18  1  0  0  0  0
 10 11  1  0  0  0  0
 10 15  1  0  0  0  0
 11 13  1  0  0  0  0
 11 19  1  0  0  0  0
 11 20  1  0  0  0  0
 12 17  1  0  0  0  0
 12 21  1  0  0  0  0
 12 24  1  0  0  0  0
 13 16  1  0  0  0  0
 13 22  1  0  0  0  0
 14 16  1  0  0  0  0
 14 25  1  0  0  0  0
 14 26  1  0  0  0  0
 15 17  1  0  0  0  0
 15 27  1  0  0  0  0
 16 28  1  0  0  0  0
 17 29  1  0  0  0  0
 17 30  1  0  0  0  0
 18 23  1  0  0  0  0
 18 31  1  0  0  0  0
 19 32  1  0  0  0  0
 19 33  1  0  0  0  0
 21 34  1  0  0  0  0
 21 35  1  0  0  0  0
 21 36  1  0  0  0  0
 22 38  1  0  0  0  0
 22 39  1  0  0  0  0
 22 40  1  0  0  0  0
M  END
> <PUBCHEM_COMPOUND_CID>
115121

> <PUBCHEM_CONFORMER_RMSD>
0.6

> <PUBCHEM_CONFORMER_DIVERSEORDER>
1

> <PUBCHEM_MMFF94_PARTIAL_CHARGES>
21
1 -0.68
10 0.28
11 0.05
13 0.28
15 0.28
16 0.28
18 0.34
19 0.26
2 -0.43
20 0.67
23 0.66
3 -0.41
37 0.4
4 -0.68
41 0.4
42 0.4
43 0.4
5 -0.68
6 -0.68
7 -0.57
8 -0.57

> <PUBCHEM_EFFECTIVE_ROTOR_COUNT>
1.8

> <PUBCHEM_PHARMACOPHORE_FEATURES>
14
1 1 acceptor
1 1 donor
1 4 acceptor
1 4 donor
1 5 acceptor
1 5 donor
1 6 acceptor
1 6 donor
1 7 acceptor
1 8 acceptor
4 3 11 19 20 rings
5 9 10 12 15 17 rings
6 2 9 14 16 18 23 rings
6 9 10 11 13 14 16 rings

> <PUBCHEM_HEAVY_ATOM_COUNT>
23

> <PUBCHEM_ATOM_DEF_STEREO_COUNT>
8

> <PUBCHEM_ATOM_UDEF_STEREO_COUNT>
0

> <PUBCHEM_BOND_DEF_STEREO_COUNT>
0

> <PUBCHEM_BOND_UDEF_STEREO_COUNT>
0

> <PUBCHEM_ISOTOPIC_ATOM_COUNT>
0

> <PUBCHEM_COMPONENT_COUNT>
1

> <PUBCHEM_CACTVS_TAUTO_COUNT>
1

> <PUBCHEM_CONFORMER_ID>
0001C1B100000001

> <PUBCHEM_MMFF94_ENERGY>
89.9449

> <PUBCHEM_FEATURE_SELFOVERLAP>
72.678

> <PUBCHEM_SHAPE_FINGERPRINT>
10863032 1 17604980597540753485
10948715 1 17467627543341320893
11578080 2 18046313526996887341
12423570 1 9697060544004297308
13140716 1 18187640327766958811
13172582 1 18262524684352511062
14142880 1 17762581072635991808
144361 1 17753324567445647881
14617773 55 18343305851005996101
14817 1 10942292930380143173
15001771 113 18334861657554984550
15852999 172 16531671573237783263
15881359 60 17974528551443287551
16945 1 17683488815792873901
20905425 154 16753251839293643366
22112679 90 18272661133994786953
22344851 341 17398389114285953265
2334 1 18189048862128112519
23419403 2 16967660751237437444
23559900 14 17975985572809422924
2748010 2 17969201439086707445
427121 178 17198853747377367889
5845 1 12438809074293501869
81228 2 18265044747945038442

> <PUBCHEM_SHAPE_MULTIPOLES>
426.37
3.86
2.94
1.76
0.95
0.07
0.16
1
-0.49
-0.3
0.75
-0.26
-0.59
-0.49

> <PUBCHEM_SHAPE_SELFOVERLAP>
943.024

> <PUBCHEM_SHAPE_VOLUME>
225

> <PUBCHEM_COORDINATE_TYPE>
2
5
10

$$$$
