115262
  -OEChem-03292013323D

 34 34  0     1  0  0  0  0  0999 V2000
    3.2731    3.0082    0.0085 O   0  0  0  0  0  0  0  0  0  0  0  0
    1.5916    2.8236   -1.5044 O   0  0  0  0  0  0  0  0  0  0  0  0
   -0.7480    0.8432    2.1420 O   0  0  0  0  0  0  0  0  0  0  0  0
    3.8641   -2.4819   -1.4347 O   0  0  0  0  0  0  0  0  0  0  0  0
    4.0357   -2.1473    0.8028 O   0  0  0  0  0  0  0  0  0  0  0  0
   -1.6146   -2.9593   -0.5942 O   0  0  0  0  0  0  0  0  0  0  0  0
   -0.6781   -1.9381    1.2078 O   0  0  0  0  0  0  0  0  0  0  0  0
    0.2122    1.1198    0.0489 N   0  0  0  0  0  0  0  0  0  0  0  0
    1.5339    1.4591    0.5121 C   0  0  1  0  0  0  0  0  0  0  0  0
    2.4244    0.2275    0.7160 C   0  0  0  0  0  0  0  0  0  0  0  0
    2.7174   -0.6009   -0.5414 C   0  0  0  0  0  0  0  0  0  0  0  0
    2.1096    2.4772   -0.4506 C   0  0  0  0  0  0  0  0  0  0  0  0
   -0.8335    0.8360    0.9167 C   0  0  0  0  0  0  0  0  0  0  0  0
   -2.1278    0.4780    0.2815 C   0  0  0  0  0  0  0  0  0  0  0  0
   -2.4190   -0.8391   -0.0112 C   0  0  0  0  0  0  0  0  0  0  0  0
    3.5893   -1.8111   -0.2852 C   0  0  0  0  0  0  0  0  0  0  0  0
   -3.0106    1.5033    0.0026 C   0  0  0  0  0  0  0  0  0  0  0  0
   -3.6428   -1.1446   -0.6068 C   0  0  0  0  0  0  0  0  0  0  0  0
   -4.2343    1.1977   -0.5933 C   0  0  0  0  0  0  0  0  0  0  0  0
   -4.5503   -0.1261   -0.8980 C   0  0  0  0  0  0  0  0  0  0  0  0
   -1.4924   -1.9250    0.2808 C   0  0  0  0  0  0  0  0  0  0  0  0
    1.4200    1.9714    1.4762 H   0  0  0  0  0  0  0  0  0  0  0  0
    1.9589   -0.4275    1.4644 H   0  0  0  0  0  0  0  0  0  0  0  0
    3.3811    0.5465    1.1501 H   0  0  0  0  0  0  0  0  0  0  0  0
    3.2290    0.0247   -1.2810 H   0  0  0  0  0  0  0  0  0  0  0  0
    1.7767   -0.9593   -0.9738 H   0  0  0  0  0  0  0  0  0  0  0  0
    0.0487    1.0622   -0.9528 H   0  0  0  0  0  0  0  0  0  0  0  0
   -2.7714    2.5365    0.2375 H   0  0  0  0  0  0  0  0  0  0  0  0
   -3.9253   -2.1669   -0.8445 H   0  0  0  0  0  0  0  0  0  0  0  0
   -4.9414    1.9906   -0.8191 H   0  0  0  0  0  0  0  0  0  0  0  0
   -5.5045   -0.3640   -1.3590 H   0  0  0  0  0  0  0  0  0  0  0  0
    3.6368    3.6791   -0.6079 H   0  0  0  0  0  0  0  0  0  0  0  0
    4.4438   -3.2571   -1.2755 H   0  0  0  0  0  0  0  0  0  0  0  0
   -0.9874   -3.6857   -0.3906 H   0  0  0  0  0  0  0  0  0  0  0  0
  1 12  1  0  0  0  0
  1 32  1  0  0  0  0
  2 12  2  0  0  0  0
  3 13  2  0  0  0  0
  4 16  1  0  0  0  0
  4 33  1  0  0  0  0
  5 16  2  0  0  0  0
  6 21  1  0  0  0  0
  6 34  1  0  0  0  0
  7 21  2  0  0  0  0
  8  9  1  0  0  0  0
  8 13  1  0  0  0  0
  8 27  1  0  0  0  0
  9 10  1  0  0  0  0
  9 12  1  0  0  0  0
  9 22  1  0  0  0  0
 10 11  1  0  0  0  0
 10 23  1  0  0  0  0
 10 24  1  0  0  0  0
 11 16  1  0  0  0  0
 11 25  1  0  0  0  0
 11 26  1  0  0  0  0
 13 14  1  0  0  0  0
 14 15  1  0  0  0  0
 14 17  2  0  0  0  0
 15 18  2  0  0  0  0
 15 21  1  0  0  0  0
 17 19  1  0  0  0  0
 17 28  1  0  0  0  0
 18 20  1  0  0  0  0
 18 29  1  0  0  0  0
 19 20  2  0  0  0  0
 19 30  1  0  0  0  0
 20 31  1  0  0  0  0
M  END
> <PUBCHEM_COMPOUND_CID>
115262

> <PUBCHEM_CONFORMER_RMSD>
0.8

> <PUBCHEM_CONFORMER_DIVERSEORDER>
1
52
92
27
29
30
78
17
47
76
61
48
34
88
85
5
90
45
54
109
86
53
103
81
4
23
98
11
104
75
65
71
3
102
50
46
108
56
96
80
63
60
58
44
91
99
31
26
67
55
84
8
64
7
87
107
32
77
49
101
20
40
79
94
95
72
106
22
15
33
37
68
66
57
100
12
89
74
62
39
69
51
97
38
43
42
18
83
93
28
82
59
6
36
70
24
35
19
21
25
9
13
73
14
16
10
105
41
2

> <PUBCHEM_MMFF94_PARTIAL_CHARGES>
28
1 -0.65
11 0.06
12 0.66
13 0.54
14 0.09
15 0.09
16 0.66
17 -0.15
18 -0.15
19 -0.15
2 -0.57
20 -0.15
21 0.63
27 0.37
28 0.15
29 0.15
3 -0.57
30 0.15
31 0.15
32 0.5
33 0.5
34 0.5
4 -0.65
5 -0.57
6 -0.65
7 -0.57
8 -0.73
9 0.36

> <PUBCHEM_EFFECTIVE_ROTOR_COUNT>
8

> <PUBCHEM_PHARMACOPHORE_FEATURES>
12
1 1 acceptor
1 2 acceptor
1 3 acceptor
1 4 acceptor
1 5 acceptor
1 6 acceptor
1 7 acceptor
1 8 donor
3 1 2 12 anion
3 4 5 16 anion
3 6 7 21 anion
6 14 15 17 18 19 20 rings

> <PUBCHEM_HEAVY_ATOM_COUNT>
21

> <PUBCHEM_ATOM_DEF_STEREO_COUNT>
1

> <PUBCHEM_ATOM_UDEF_STEREO_COUNT>
0

> <PUBCHEM_BOND_DEF_STEREO_COUNT>
0

> <PUBCHEM_BOND_UDEF_STEREO_COUNT>
0

> <PUBCHEM_ISOTOPIC_ATOM_COUNT>
0

> <PUBCHEM_COMPONENT_COUNT>
1

> <PUBCHEM_CACTVS_TAUTO_COUNT>
2

> <PUBCHEM_CONFORMER_ID>
0001C23E00000001

> <PUBCHEM_MMFF94_ENERGY>
52.0666

> <PUBCHEM_FEATURE_SELFOVERLAP>
61.078

> <PUBCHEM_SHAPE_FINGERPRINT>
10062212 137 18060412491922329743
10616163 171 18050003590802726734
10756046 5 18337954592295752861
11370993 70 18193550288523065316
116883 192 18337667512587811212
12553582 1 18194140537816030242
12788726 201 17059519403399736633
14341114 328 11599422707635230942
15420108 30 16761144632090772777
17492 89 18338232786008036095
18186145 218 18187356628239684245
20645477 70 18410289241709902999
21069387 34 18130510742726774892
22393880 68 18268158737180000900
23559900 14 18272362092691617296
394222 165 14618508026387340546
4280585 95 18337957788648473510
6138700 20 18122905322093068862
633830 44 18334002896620078629
7364860 26 18340487871866776472
9709674 26 18337389460578371715
9981440 41 17830448749951494336

> <PUBCHEM_SHAPE_MULTIPOLES>
386.1
8.11
3.38
1.22
0.41
0.03
-0.2
-1.88
2.41
-3.09
0.77
-0.23
0.06
-0.01

> <PUBCHEM_SHAPE_SELFOVERLAP>
805.907

> <PUBCHEM_SHAPE_VOLUME>
216.9

> <PUBCHEM_COORDINATE_TYPE>
2
5
10

$$$$
