11522049
  -OEChem-03292013303D

 26 27  0     0  0  0  0  0  0999 V2000
    2.9127   -1.1286   -0.3738 S   0  0  0  0  0  0  0  0  0  0  0  0
    2.1613   -0.3292    0.8495 O   0  0  0  0  0  0  0  0  0  0  0  0
   -2.9606    2.4515   -0.5611 O   0  0  0  0  0  0  0  0  0  0  0  0
   -1.4859   -3.0993    0.4477 O   0  0  0  0  0  0  0  0  0  0  0  0
    3.6287   -2.3946    0.3675 O   0  0  0  0  0  0  0  0  0  0  0  0
   -3.6341   -2.5098   -0.0701 O   0  0  0  0  0  0  0  0  0  0  0  0
    1.9100   -1.6528   -1.2828 O   0  0  0  0  0  0  0  0  0  0  0  0
    3.9678   -0.2684   -0.8773 O   0  0  0  0  0  0  0  0  0  0  0  0
   -0.5838   -0.7035    0.3297 N   0  0  0  0  0  0  0  0  0  0  0  0
    0.0061    0.5661    0.2903 C   0  0  0  0  0  0  0  0  0  0  0  0
   -0.7793    1.6935   -0.0143 C   0  0  0  0  0  0  0  0  0  0  0  0
    1.3690    0.7390    0.5501 C   0  0  0  0  0  0  0  0  0  0  0  0
   -2.2299    1.5070   -0.2901 C   0  0  0  0  0  0  0  0  0  0  0  0
   -1.9187   -0.8707    0.0747 C   0  0  0  0  0  0  0  0  0  0  0  0
   -0.2123    2.9695   -0.0581 C   0  0  0  0  0  0  0  0  0  0  0  0
    1.9369    2.0138    0.5064 C   0  0  0  0  0  0  0  0  0  0  0  0
   -2.7691    0.1197   -0.2265 C   0  0  0  0  0  0  0  0  0  0  0  0
    1.1486    3.1246    0.2036 C   0  0  0  0  0  0  0  0  0  0  0  0
   -2.4674   -2.2280    0.1344 C   0  0  0  0  0  0  0  0  0  0  0  0
   -0.0183   -1.5120    0.5514 H   0  0  0  0  0  0  0  0  0  0  0  0
   -0.8093    3.8462   -0.2918 H   0  0  0  0  0  0  0  0  0  0  0  0
    2.9957    2.1500    0.7106 H   0  0  0  0  0  0  0  0  0  0  0  0
   -3.8249   -0.0171   -0.4272 H   0  0  0  0  0  0  0  0  0  0  0  0
    1.5969    4.1136    0.1721 H   0  0  0  0  0  0  0  0  0  0  0  0
   -1.8141   -4.0224    0.4976 H   0  0  0  0  0  0  0  0  0  0  0  0
    4.1242   -2.1749    1.1911 H   0  0  0  0  0  0  0  0  0  0  0  0
  1  2  1  0  0  0  0
  1  5  1  0  0  0  0
  1  7  2  0  0  0  0
  1  8  2  0  0  0  0
  2 12  1  0  0  0  0
  3 13  2  0  0  0  0
  4 19  1  0  0  0  0
  4 25  1  0  0  0  0
  5 26  1  0  0  0  0
  6 19  2  0  0  0  0
  9 10  1  0  0  0  0
  9 14  1  0  0  0  0
  9 20  1  0  0  0  0
 10 11  2  0  0  0  0
 10 12  1  0  0  0  0
 11 13  1  0  0  0  0
 11 15  1  0  0  0  0
 12 16  2  0  0  0  0
 13 17  1  0  0  0  0
 14 17  2  0  0  0  0
 14 19  1  0  0  0  0
 15 18  2  0  0  0  0
 15 21  1  0  0  0  0
 16 18  1  0  0  0  0
 16 22  1  0  0  0  0
 17 23  1  0  0  0  0
 18 24  1  0  0  0  0
M  END
> <PUBCHEM_COMPOUND_CID>
11522049

> <PUBCHEM_CONFORMER_RMSD>
0.6

> <PUBCHEM_CONFORMER_DIVERSEORDER>
1
4
7
3
8
6
2
5

> <PUBCHEM_MMFF94_PARTIAL_CHARGES>
26
1 1.67
10 0.1
11 0.09
12 0.08
13 0.47
14 0.11
15 -0.15
16 -0.15
17 -0.14
18 -0.15
19 0.71
2 -0.27
20 0.4
21 0.15
22 0.15
23 0.15
24 0.15
25 0.5
26 0.5
3 -0.57
4 -0.65
5 -0.68
6 -0.57
7 -0.65
8 -0.65
9 -0.6

> <PUBCHEM_EFFECTIVE_ROTOR_COUNT>
3

> <PUBCHEM_PHARMACOPHORE_FEATURES>
12
1 3 acceptor
1 4 acceptor
1 5 acceptor
1 6 acceptor
1 7 acceptor
1 8 acceptor
1 9 cation
1 9 donor
3 4 6 19 anion
4 1 5 7 8 anion
6 10 11 12 15 16 18 rings
6 9 10 11 13 14 17 rings

> <PUBCHEM_HEAVY_ATOM_COUNT>
19

> <PUBCHEM_ATOM_DEF_STEREO_COUNT>
0

> <PUBCHEM_ATOM_UDEF_STEREO_COUNT>
0

> <PUBCHEM_BOND_DEF_STEREO_COUNT>
0

> <PUBCHEM_BOND_UDEF_STEREO_COUNT>
0

> <PUBCHEM_ISOTOPIC_ATOM_COUNT>
0

> <PUBCHEM_COMPONENT_COUNT>
1

> <PUBCHEM_CACTVS_TAUTO_COUNT>
3

> <PUBCHEM_CONFORMER_ID>
00AFD00100000001

> <PUBCHEM_MMFF94_ENERGY>
51.4668

> <PUBCHEM_FEATURE_SELFOVERLAP>
61.035

> <PUBCHEM_SHAPE_FINGERPRINT>
10693767 8 17624664905795802095
10967382 1 17978223864269654617
11578080 2 17025116775467154428
11680986 33 18341321279736471273
116883 192 18339919424296836823
12054548 360 18411425024784938836
12553582 1 18410579495806027858
13140716 1 18341327820876334593
14115302 16 18118409449490840772
14223421 5 18194678391848279609
14790565 3 17907590133232018144
14863182 85 17469608871957906079
15375462 6 18122625221489302197
15415430 2 17695646060111098878
16752209 62 17832694682660400712
16945 1 18265604399384811721
17990270 104 18267300009465174520
193761 8 18337950207382511689
19591789 44 17907302044437415273
20028762 73 18201715116838853359
20645476 183 17824549560519152061
20645477 70 17905316687325882319
20871999 31 18409170991145122110
20905425 154 18267592496875331756
21197605 99 15163210781298901066
21501502 16 18339366369600191553
22182313 1 18271800285241863212
22213442 358 18411985792784236236
22721475 48 18200878379024370604
22802520 49 18341609326049795129
23184049 29 18336819879031629395
2334 1 18338792420188039545
23402539 116 17980746156849812860
23557571 272 18342465811812259068
23559900 14 18339631360476797440
2748010 2 18339911710055947425
3084891 72 17979346461177867449
589210 1 18338797934984102221
7364860 26 18053105308830905424
81228 2 17769947779130454024
8809292 202 18268427941049862022
9709674 26 18340193206887042957

> <PUBCHEM_SHAPE_MULTIPOLES>
348.79
5.55
3.99
0.8
0.99
0.42
-0.08
-3.7
-0.71
-0.68
0.05
0.34
-0.11
0.75

> <PUBCHEM_SHAPE_SELFOVERLAP>
747.487

> <PUBCHEM_SHAPE_VOLUME>
192.7

> <PUBCHEM_COORDINATE_TYPE>
2
5
10

$$$$
