11537736
  -OEChem-03292013303D

 40 42  0     1  0  0  0  0  0999 V2000
   -2.8395    3.1033    0.2997 O   0  0  0  0  0  0  0  0  0  0  0  0
   -0.5479    0.7522    1.5907 O   0  0  0  0  0  0  0  0  0  0  0  0
   -0.5809    1.7368   -1.7593 O   0  0  0  0  0  0  0  0  0  0  0  0
   -4.4797    1.8646   -0.7308 O   0  0  0  0  0  0  0  0  0  0  0  0
    3.8596   -1.0628   -0.1290 O   0  0  0  0  0  0  0  0  0  0  0  0
    5.3153    1.2368    0.4364 O   0  0  0  0  0  0  0  0  0  0  0  0
    0.4997   -3.5785   -1.8768 O   0  0  0  0  0  0  0  0  0  0  0  0
    0.6543   -4.8061    0.6122 O   0  0  0  0  0  0  0  0  0  0  0  0
   -1.1512    1.4636    0.5349 C   0  0  2  0  0  0  0  0  0  0  0  0
   -1.6227    2.8205    1.0114 C   0  0  0  0  0  0  0  0  0  0  0  0
   -2.4194    0.8693    0.0434 C   0  0  0  0  0  0  0  0  0  0  0  0
   -0.1824    1.5727   -0.6085 C   0  0  0  0  0  0  0  0  0  0  0  0
   -3.3926    1.9563   -0.1896 C   0  0  0  0  0  0  0  0  0  0  0  0
   -2.7424   -0.4121   -0.1520 C   0  0  0  0  0  0  0  0  0  0  0  0
    1.2789    1.4796   -0.3314 C   0  0  0  0  0  0  0  0  0  0  0  0
   -1.8484   -1.5670    0.0455 C   0  0  0  0  0  0  0  0  0  0  0  0
    1.8808    0.2412   -0.3621 C   0  0  0  0  0  0  0  0  0  0  0  0
    1.9743    2.6357   -0.0545 C   0  0  0  0  0  0  0  0  0  0  0  0
   -1.0917   -2.0287   -1.0190 C   0  0  0  0  0  0  0  0  0  0  0  0
   -1.7828   -2.1681    1.2918 C   0  0  0  0  0  0  0  0  0  0  0  0
    3.2485    0.1545   -0.1027 C   0  0  0  0  0  0  0  0  0  0  0  0
    3.3421    2.5491    0.2050 C   0  0  0  0  0  0  0  0  0  0  0  0
    3.9791    1.3084    0.1808 C   0  0  0  0  0  0  0  0  0  0  0  0
   -0.2458   -3.1218   -0.8321 C   0  0  0  0  0  0  0  0  0  0  0  0
   -0.9368   -3.2613    1.4789 C   0  0  0  0  0  0  0  0  0  0  0  0
   -0.1683   -3.7381    0.4169 C   0  0  0  0  0  0  0  0  0  0  0  0
   -1.8392    2.8466    2.0859 H   0  0  0  0  0  0  0  0  0  0  0  0
   -0.9096    3.6219    0.7934 H   0  0  0  0  0  0  0  0  0  0  0  0
   -3.7358   -0.6793   -0.5056 H   0  0  0  0  0  0  0  0  0  0  0  0
    0.0689    1.3453    2.0527 H   0  0  0  0  0  0  0  0  0  0  0  0
    1.3121   -0.6513   -0.5881 H   0  0  0  0  0  0  0  0  0  0  0  0
    1.4845    3.6044   -0.0372 H   0  0  0  0  0  0  0  0  0  0  0  0
   -1.1478   -1.5519   -1.9946 H   0  0  0  0  0  0  0  0  0  0  0  0
   -2.3771   -1.8061    2.1266 H   0  0  0  0  0  0  0  0  0  0  0  0
    3.8992    3.4561    0.4239 H   0  0  0  0  0  0  0  0  0  0  0  0
   -0.8860   -3.7318    2.4572 H   0  0  0  0  0  0  0  0  0  0  0  0
    3.1985   -1.7447   -0.3389 H   0  0  0  0  0  0  0  0  0  0  0  0
    5.6528    2.1320    0.6113 H   0  0  0  0  0  0  0  0  0  0  0  0
    1.0269   -4.3359   -1.5683 H   0  0  0  0  0  0  0  0  0  0  0  0
    0.5776   -5.1002    1.5361 H   0  0  0  0  0  0  0  0  0  0  0  0
  1 10  1  0  0  0  0
  1 13  1  0  0  0  0
  2  9  1  0  0  0  0
  2 30  1  0  0  0  0
  3 12  2  0  0  0  0
  4 13  2  0  0  0  0
  5 21  1  0  0  0  0
  5 37  1  0  0  0  0
  6 23  1  0  0  0  0
  6 38  1  0  0  0  0
  7 24  1  0  0  0  0
  7 39  1  0  0  0  0
  8 26  1  0  0  0  0
  8 40  1  0  0  0  0
  9 10  1  0  0  0  0
  9 11  1  0  0  0  0
  9 12  1  0  0  0  0
 10 27  1  0  0  0  0
 10 28  1  0  0  0  0
 11 13  1  0  0  0  0
 11 14  2  0  0  0  0
 12 15  1  0  0  0  0
 14 16  1  0  0  0  0
 14 29  1  0  0  0  0
 15 17  2  0  0  0  0
 15 18  1  0  0  0  0
 16 19  2  0  0  0  0
 16 20  1  0  0  0  0
 17 21  1  0  0  0  0
 17 31  1  0  0  0  0
 18 22  2  0  0  0  0
 18 32  1  0  0  0  0
 19 24  1  0  0  0  0
 19 33  1  0  0  0  0
 20 25  2  0  0  0  0
 20 34  1  0  0  0  0
 21 23  2  0  0  0  0
 22 23  1  0  0  0  0
 22 35  1  0  0  0  0
 24 26  2  0  0  0  0
 25 26  1  0  0  0  0
 25 36  1  0  0  0  0
M  END
> <PUBCHEM_COMPOUND_CID>
11537736

> <PUBCHEM_CONFORMER_RMSD>
0.8

> <PUBCHEM_CONFORMER_DIVERSEORDER>
1
8
74
61
25
35
52
73
16
65
53
10
43
67
18
26
63
51
50
6
28
69
22
68
20
62
76
44
54
42
30
31
60
17
7
24
59
12
46
75
47
36
55
27
5
79
19
23
45
32
29
77
58
11
56
48
38
33
78
72
21
37
57
34
64
71
39
41
3
9
49
14
2
70
40
13
66
4
15

> <PUBCHEM_MMFF94_PARTIAL_CHARGES>
38
1 -0.43
10 0.28
11 -0.12
12 0.42
13 0.71
14 -0.18
15 0.09
16 0.03
17 -0.15
18 -0.15
19 -0.15
2 -0.68
20 -0.15
21 0.08
22 -0.15
23 0.08
24 0.08
25 -0.15
26 0.08
29 0.15
3 -0.57
30 0.4
31 0.15
32 0.15
33 0.15
34 0.15
35 0.15
36 0.15
37 0.45
38 0.45
39 0.45
4 -0.57
40 0.45
5 -0.53
6 -0.53
7 -0.53
8 -0.53
9 0.48

> <PUBCHEM_EFFECTIVE_ROTOR_COUNT>
3.6

> <PUBCHEM_PHARMACOPHORE_FEATURES>
11
1 2 acceptor
1 2 donor
1 3 acceptor
1 4 acceptor
1 5 donor
1 6 donor
1 7 donor
1 8 donor
5 1 9 10 11 13 rings
6 15 17 18 21 22 23 rings
6 16 19 20 24 25 26 rings

> <PUBCHEM_HEAVY_ATOM_COUNT>
26

> <PUBCHEM_ATOM_DEF_STEREO_COUNT>
0

> <PUBCHEM_ATOM_UDEF_STEREO_COUNT>
1

> <PUBCHEM_BOND_DEF_STEREO_COUNT>
1

> <PUBCHEM_BOND_UDEF_STEREO_COUNT>
0

> <PUBCHEM_ISOTOPIC_ATOM_COUNT>
0

> <PUBCHEM_COMPONENT_COUNT>
1

> <PUBCHEM_CACTVS_TAUTO_COUNT>
120

> <PUBCHEM_CONFORMER_ID>
00B00D4800000001

> <PUBCHEM_MMFF94_ENERGY>
73.7108

> <PUBCHEM_FEATURE_SELFOVERLAP>
55.832

> <PUBCHEM_SHAPE_FINGERPRINT>
10616163 171 18194405721907895148
11370993 70 18412540990079341976
12156800 1 16124665134645178215
12422481 6 18120687779539359051
12553582 1 17474116873879385990
12592029 89 18265338305060385241
12788726 201 18194106641338044483
13004483 165 17979629366241466275
13140716 1 18411711975750259705
133893 2 17906168452333861849
138480 1 17545318579614116779
14081887 123 18054779852672155936
14844126 61 18121207938506568282
14955137 171 16543303887011683097
15420108 30 15899839960920985072
15664445 248 17117760246834190679
19930381 70 17832986044582884712
20197701 30 18336817637628770381
20554085 129 18056449825887793385
20642791 35 16899907388761072492
20691752 17 17392776765067752153
20775438 99 16399957828536331191
21452121 199 16965469643717511857
23559900 14 18343579651356697040
23728640 28 18337388369572165915
3298306 158 18120088381834054300
352729 6 18411429414030862833
392239 28 16822775540288145834
5265222 85 18263099738362835572
532947 4 18050286959981464101
59755656 215 18335985286278631117
6443956 14 17400645917763243524
7097593 13 16754962662470714843
9709674 26 18341336699011649988

> <PUBCHEM_SHAPE_MULTIPOLES>
488.11
6.41
5.56
1.23
9.22
3.02
0.08
-1.15
-0.52
-4.95
-0.11
-0.58
0.48
0.48

> <PUBCHEM_SHAPE_SELFOVERLAP>
1084.558

> <PUBCHEM_SHAPE_VOLUME>
261.3

> <PUBCHEM_COORDINATE_TYPE>
2
5
10

$$$$
