11537197
  -OEChem-03292013303D

 36 39  0     1  0  0  0  0  0999 V2000
   -0.9071    1.7901    0.1547 O   0  0  0  0  0  0  0  0  0  0  0  0
    2.7080    1.9619   -0.3483 O   0  0  0  0  0  0  0  0  0  0  0  0
    0.9984    3.5331   -0.4128 O   0  0  0  0  0  0  0  0  0  0  0  0
   -0.2327   -2.1836   -0.3741 O   0  0  0  0  0  0  0  0  0  0  0  0
   -2.7539   -2.6583   -0.2537 O   0  0  0  0  0  0  0  0  0  0  0  0
   -5.5983    1.1396    0.2195 O   0  0  0  0  0  0  0  0  0  0  0  0
    6.2368   -1.1690    0.0550 O   0  0  0  0  0  0  0  0  0  0  0  0
    0.7017   -0.0169    0.0232 C   0  0  0  0  0  0  0  0  0  0  0  0
    0.3822    1.2867    0.1254 C   0  0  0  0  0  0  0  0  0  0  0  0
    2.1347   -0.3595    0.0787 C   0  0  0  0  0  0  0  0  0  0  0  0
   -1.7775   -0.4595   -0.0438 C   0  0  0  0  0  0  0  0  0  0  0  0
    1.4548    2.3434    0.2339 C   0  0  1  0  0  0  0  0  0  0  0  0
   -0.4099   -0.9954   -0.1421 C   0  0  0  0  0  0  0  0  0  0  0  0
   -1.9547    0.9121    0.1000 C   0  0  0  0  0  0  0  0  0  0  0  0
    3.0753    0.6619   -0.1226 C   0  0  0  0  0  0  0  0  0  0  0  0
   -2.8862   -1.3091   -0.1028 C   0  0  0  0  0  0  0  0  0  0  0  0
   -4.1719   -0.7738   -0.0140 C   0  0  0  0  0  0  0  0  0  0  0  0
   -3.2408    1.4469    0.1866 C   0  0  0  0  0  0  0  0  0  0  0  0
    2.6163   -1.6531    0.3224 C   0  0  0  0  0  0  0  0  0  0  0  0
   -4.3492    0.6021    0.1304 C   0  0  0  0  0  0  0  0  0  0  0  0
    4.4471    0.3942   -0.1447 C   0  0  0  0  0  0  0  0  0  0  0  0
    3.9893   -1.9209    0.3224 C   0  0  0  0  0  0  0  0  0  0  0  0
    4.9036   -0.9001    0.0804 C   0  0  0  0  0  0  0  0  0  0  0  0
   -5.3660   -1.6728   -0.0738 C   0  0  0  0  0  0  0  0  0  0  0  0
    1.6154    2.5826    1.2931 H   0  0  0  0  0  0  0  0  0  0  0  0
   -3.3798    2.5194    0.2978 H   0  0  0  0  0  0  0  0  0  0  0  0
    1.9461   -2.4819    0.5280 H   0  0  0  0  0  0  0  0  0  0  0  0
    5.1519    1.2014   -0.3291 H   0  0  0  0  0  0  0  0  0  0  0  0
    4.3363   -2.9341    0.5082 H   0  0  0  0  0  0  0  0  0  0  0  0
   -5.1080   -2.7305   -0.1823 H   0  0  0  0  0  0  0  0  0  0  0  0
   -5.9533   -1.5883    0.8471 H   0  0  0  0  0  0  0  0  0  0  0  0
   -5.9948   -1.4145   -0.9328 H   0  0  0  0  0  0  0  0  0  0  0  0
    1.4009    4.2851    0.0541 H   0  0  0  0  0  0  0  0  0  0  0  0
   -1.8224   -2.9202   -0.2041 H   0  0  0  0  0  0  0  0  0  0  0  0
   -6.2825    0.4553    0.1630 H   0  0  0  0  0  0  0  0  0  0  0  0
    6.7212   -0.3458   -0.1288 H   0  0  0  0  0  0  0  0  0  0  0  0
  1  9  1  0  0  0  0
  1 14  1  0  0  0  0
  2 12  1  0  0  0  0
  2 15  1  0  0  0  0
  3 12  1  0  0  0  0
  3 33  1  0  0  0  0
  4 13  2  0  0  0  0
  5 16  1  0  0  0  0
  5 34  1  0  0  0  0
  6 20  1  0  0  0  0
  6 35  1  0  0  0  0
  7 23  1  0  0  0  0
  7 36  1  0  0  0  0
  8  9  2  0  0  0  0
  8 10  1  0  0  0  0
  8 13  1  0  0  0  0
  9 12  1  0  0  0  0
 10 15  2  0  0  0  0
 10 19  1  0  0  0  0
 11 13  1  0  0  0  0
 11 14  2  0  0  0  0
 11 16  1  0  0  0  0
 12 25  1  0  0  0  0
 14 18  1  0  0  0  0
 15 21  1  0  0  0  0
 16 17  2  0  0  0  0
 17 20  1  0  0  0  0
 17 24  1  0  0  0  0
 18 20  2  0  0  0  0
 18 26  1  0  0  0  0
 19 22  2  0  0  0  0
 19 27  1  0  0  0  0
 21 23  2  0  0  0  0
 21 28  1  0  0  0  0
 22 23  1  0  0  0  0
 22 29  1  0  0  0  0
 24 30  1  0  0  0  0
 24 31  1  0  0  0  0
 24 32  1  0  0  0  0
M  END
> <PUBCHEM_COMPOUND_CID>
11537197

> <PUBCHEM_CONFORMER_RMSD>
0.6

> <PUBCHEM_CONFORMER_DIVERSEORDER>
1

> <PUBCHEM_MMFF94_PARTIAL_CHARGES>
32
1 -0.16
10 0.03
11 0.09
12 0.7
13 0.47
14 0.08
15 0.08
16 0.08
17 -0.14
18 -0.15
19 -0.15
2 -0.36
20 0.08
21 -0.15
22 -0.15
23 0.08
24 0.14
26 0.15
27 0.15
28 0.15
29 0.15
3 -0.68
33 0.4
34 0.45
35 0.45
36 0.45
4 -0.57
5 -0.53
6 -0.53
7 -0.53
8 -0.01
9 -0.06

> <PUBCHEM_EFFECTIVE_ROTOR_COUNT>
0.4

> <PUBCHEM_PHARMACOPHORE_FEATURES>
12
1 1 acceptor
1 2 acceptor
1 3 acceptor
1 3 donor
1 4 acceptor
1 5 donor
1 6 donor
1 7 donor
6 1 8 9 11 13 14 rings
6 10 15 19 21 22 23 rings
6 11 14 16 17 18 20 rings
6 2 8 9 10 12 15 rings

> <PUBCHEM_HEAVY_ATOM_COUNT>
24

> <PUBCHEM_ATOM_DEF_STEREO_COUNT>
0

> <PUBCHEM_ATOM_UDEF_STEREO_COUNT>
1

> <PUBCHEM_BOND_DEF_STEREO_COUNT>
0

> <PUBCHEM_BOND_UDEF_STEREO_COUNT>
0

> <PUBCHEM_ISOTOPIC_ATOM_COUNT>
0

> <PUBCHEM_COMPONENT_COUNT>
1

> <PUBCHEM_CACTVS_TAUTO_COUNT>
36

> <PUBCHEM_CONFORMER_ID>
00B00B2D00000001

> <PUBCHEM_MMFF94_ENERGY>
77.5391

> <PUBCHEM_FEATURE_SELFOVERLAP>
61.034

> <PUBCHEM_SHAPE_FINGERPRINT>
10062212 137 18272928345432671519
10616163 171 18341053020521894959
10967382 1 18411138026026572132
1100329 8 18410856576851346506
11578080 2 17058356235555205811
12107183 9 17689152309882601842
12236239 1 18186522090350602462
12403259 226 18409724097540565557
12403260 363 18342175618036145653
12553582 1 18336814317407865490
12788726 201 17917446305881807288
12838862 33 18266721537526565984
13140716 1 18341618152566219881
13288520 33 18412263913074977655
138480 1 18338234985110308884
13862211 1 18411134727671420138
14341114 176 18412268358402993923
14790565 3 17331120494715027753
15042514 8 17977379439719174922
15099037 51 18411418393202452879
15196674 1 18411418440146360681
15352361 1 18410573972561974370
15442244 35 18411418431561707353
15536298 74 18342455988721211416
15788980 27 18187367618670351337
15927050 60 17765715007625171444
1601671 61 18341613689836651690
16087824 20 18193276295854852565
17349148 13 17988644107854346487
17492 89 18193838382203063371
17804303 29 18413671318313432825
1813 80 17458059370202983500
18681886 176 18343013423973580618
19141452 34 18413388730855790015
19591789 44 18410009918591136779
200 152 18273213114438184563
20028762 73 18131066082405291735
21033648 29 17531231864842140557
21267235 1 18410863165347379362
21709351 56 18410566293556121005
221490 88 18263087784661391034
23366157 5 18042682995515328868
23402539 116 18343577425961757406
23559900 14 18340761632581128808
23622692 118 18129088086835314831
3004659 81 18259988159110505830
335352 9 18411136909968299173
34934 24 18411978096577277696
350125 39 18411139143309146657
3680242 22 18265621983028251691
3886686 26 16894238324895744378
4214541 1 18410855460529185875
4409770 3 17827344493286705989
465052 167 18341056314666826503
5104073 3 18412826918920944977
559249 180 18410853235646663623
59755656 215 18268716022029743934
6138700 20 18337955584808231706
7364860 26 18268991062976399384
8863177 126 17824557480829951435
9709674 26 18191307284886791955
9981440 41 17327736709083662896

> <PUBCHEM_SHAPE_MULTIPOLES>
452.82
11.34
2.82
0.63
0.05
1.02
0.01
-4.12
0.36
0.17
-0.17
0.03
0
-0.53

> <PUBCHEM_SHAPE_SELFOVERLAP>
1030.398

> <PUBCHEM_SHAPE_VOLUME>
233.2

> <PUBCHEM_COORDINATE_TYPE>
2
5
10

$$$$
