115321
  -OEChem-03292013323D

 50 52  0     1  0  0  0  0  0999 V2000
    2.3696    0.8402   -0.0427 O   0  0  0  0  0  0  0  0  0  0  0  0
    0.8292   -2.2374    1.2067 O   0  0  0  0  0  0  0  0  0  0  0  0
    3.0332   -3.2095   -0.4289 O   0  0  0  0  0  0  0  0  0  0  0  0
    5.2695   -1.3994   -0.3400 O   0  0  0  0  0  0  0  0  0  0  0  0
    0.1702    0.2857   -1.6387 O   0  0  0  0  0  0  0  0  0  0  0  0
    4.3165    2.7638   -0.2042 O   0  0  0  0  0  0  0  0  0  0  0  0
   -3.2415    2.6765    0.3761 O   0  0  0  0  0  0  0  0  0  0  0  0
    0.2102    1.1321    2.9325 O   0  0  0  0  0  0  0  0  0  0  0  0
    0.1902    0.5567    0.6709 N   0  0  0  0  0  0  0  0  0  0  0  0
   -1.5597    1.7972    1.6542 N   0  0  0  0  0  0  0  0  0  0  0  0
    1.5258    0.0212    0.7615 C   0  0  1  0  0  0  0  0  0  0  0  0
    1.5696   -1.4319    0.2913 C   0  0  1  0  0  0  0  0  0  0  0  0
    3.0105   -1.9425    0.2320 C   0  0  2  0  0  0  0  0  0  0  0  0
    3.9230   -0.9657   -0.5115 C   0  0  1  0  0  0  0  0  0  0  0  0
    3.7451    0.4563    0.0330 C   0  0  1  0  0  0  0  0  0  0  0  0
   -1.9321    0.8591   -0.5803 C   0  0  2  0  0  0  0  0  0  0  0  0
   -0.4236    0.5604   -0.5930 C   0  0  0  0  0  0  0  0  0  0  0  0
   -2.2817    1.4623   -1.9635 C   0  0  0  0  0  0  0  0  0  0  0  0
    4.5444    1.4830   -0.7632 C   0  0  0  0  0  0  0  0  0  0  0  0
   -2.3114    1.8792    0.4958 C   0  0  0  0  0  0  0  0  0  0  0  0
   -0.3485    1.1380    1.8325 C   0  0  0  0  0  0  0  0  0  0  0  0
   -2.7715   -0.4234   -0.3782 C   0  0  0  0  0  0  0  0  0  0  0  0
   -1.4658    2.7074   -2.2365 C   0  0  0  0  0  0  0  0  0  0  0  0
   -4.0426   -0.3308    0.1743 C   0  0  0  0  0  0  0  0  0  0  0  0
   -2.2452   -1.6533   -0.7517 C   0  0  0  0  0  0  0  0  0  0  0  0
   -4.8001   -1.4877    0.3565 C   0  0  0  0  0  0  0  0  0  0  0  0
   -3.0029   -2.8102   -0.5695 C   0  0  0  0  0  0  0  0  0  0  0  0
   -4.2803   -2.7273   -0.0154 C   0  0  0  0  0  0  0  0  0  0  0  0
    1.8809    0.0733    1.7976 H   0  0  0  0  0  0  0  0  0  0  0  0
    1.1291   -1.5916   -0.6960 H   0  0  0  0  0  0  0  0  0  0  0  0
    3.3923   -2.1238    1.2448 H   0  0  0  0  0  0  0  0  0  0  0  0
    3.6983   -1.0016   -1.5843 H   0  0  0  0  0  0  0  0  0  0  0  0
    4.0666    0.5177    1.0816 H   0  0  0  0  0  0  0  0  0  0  0  0
   -3.3484    1.7172   -2.0190 H   0  0  0  0  0  0  0  0  0  0  0  0
   -2.1047    0.7350   -2.7669 H   0  0  0  0  0  0  0  0  0  0  0  0
    4.2264    1.5135   -1.8106 H   0  0  0  0  0  0  0  0  0  0  0  0
    5.6175    1.2748   -0.7261 H   0  0  0  0  0  0  0  0  0  0  0  0
   -1.8861    2.3492    2.4426 H   0  0  0  0  0  0  0  0  0  0  0  0
   -0.0749   -1.8816    1.2438 H   0  0  0  0  0  0  0  0  0  0  0  0
    2.4290   -3.7995    0.0535 H   0  0  0  0  0  0  0  0  0  0  0  0
    5.4883   -1.3344    0.6053 H   0  0  0  0  0  0  0  0  0  0  0  0
   -1.6036    3.4817   -1.4767 H   0  0  0  0  0  0  0  0  0  0  0  0
   -0.3941    2.5202   -2.3367 H   0  0  0  0  0  0  0  0  0  0  0  0
   -1.7896    3.1436   -3.1888 H   0  0  0  0  0  0  0  0  0  0  0  0
   -4.5008    0.6094    0.4573 H   0  0  0  0  0  0  0  0  0  0  0  0
   -1.2675   -1.7607   -1.2063 H   0  0  0  0  0  0  0  0  0  0  0  0
    3.3598    2.9348   -0.2409 H   0  0  0  0  0  0  0  0  0  0  0  0
   -5.7971   -1.4233    0.7827 H   0  0  0  0  0  0  0  0  0  0  0  0
   -2.6006   -3.7752   -0.8638 H   0  0  0  0  0  0  0  0  0  0  0  0
   -4.8711   -3.6279    0.1242 H   0  0  0  0  0  0  0  0  0  0  0  0
  1 11  1  0  0  0  0
  1 15  1  0  0  0  0
  2 12  1  0  0  0  0
  2 39  1  0  0  0  0
  3 13  1  0  0  0  0
  3 40  1  0  0  0  0
  4 14  1  0  0  0  0
  4 41  1  0  0  0  0
  5 17  2  0  0  0  0
  6 19  1  0  0  0  0
  6 47  1  0  0  0  0
  7 20  2  0  0  0  0
  8 21  2  0  0  0  0
  9 11  1  0  0  0  0
  9 17  1  0  0  0  0
  9 21  1  0  0  0  0
 10 20  1  0  0  0  0
 10 21  1  0  0  0  0
 10 38  1  0  0  0  0
 11 12  1  0  0  0  0
 11 29  1  0  0  0  0
 12 13  1  0  0  0  0
 12 30  1  0  0  0  0
 13 14  1  0  0  0  0
 13 31  1  0  0  0  0
 14 15  1  0  0  0  0
 14 32  1  0  0  0  0
 15 19  1  0  0  0  0
 15 33  1  0  0  0  0
 16 17  1  0  0  0  0
 16 18  1  0  0  0  0
 16 20  1  0  0  0  0
 16 22  1  0  0  0  0
 18 23  1  0  0  0  0
 18 34  1  0  0  0  0
 18 35  1  0  0  0  0
 19 36  1  0  0  0  0
 19 37  1  0  0  0  0
 22 24  2  0  0  0  0
 22 25  1  0  0  0  0
 23 42  1  0  0  0  0
 23 43  1  0  0  0  0
 23 44  1  0  0  0  0
 24 26  1  0  0  0  0
 24 45  1  0  0  0  0
 25 27  2  0  0  0  0
 25 46  1  0  0  0  0
 26 28  2  0  0  0  0
 26 48  1  0  0  0  0
 27 28  1  0  0  0  0
 27 49  1  0  0  0  0
 28 50  1  0  0  0  0
M  END
> <PUBCHEM_COMPOUND_CID>
115321

> <PUBCHEM_CONFORMER_RMSD>
0.8

> <PUBCHEM_CONFORMER_DIVERSEORDER>
1
6
35
29
37
25
23
30
39
8
36
22
16
24
11
38
27
26
34
21
40
32
14
19
2
33
31
28
4
10
15
13
9
17
18
20
7
5
3
12

> <PUBCHEM_MMFF94_PARTIAL_CHARGES>
36
1 -0.56
10 -0.49
11 0.58
12 0.28
13 0.28
14 0.28
15 0.28
16 0.27
17 0.57
19 0.28
2 -0.68
20 0.57
21 0.69
22 -0.14
24 -0.15
25 -0.15
26 -0.15
27 -0.15
28 -0.15
3 -0.68
38 0.37
39 0.4
4 -0.68
40 0.4
41 0.4
45 0.15
46 0.15
47 0.4
48 0.15
49 0.15
5 -0.57
50 0.15
6 -0.68
7 -0.57
8 -0.57
9 -0.42

> <PUBCHEM_EFFECTIVE_ROTOR_COUNT>
5.8

> <PUBCHEM_PHARMACOPHORE_FEATURES>
17
1 1 acceptor
1 10 donor
1 2 acceptor
1 2 donor
1 23 hydrophobe
1 3 acceptor
1 3 donor
1 4 acceptor
1 4 donor
1 5 acceptor
1 6 acceptor
1 6 donor
1 7 acceptor
1 8 acceptor
6 1 11 12 13 14 15 rings
6 22 24 25 26 27 28 rings
6 9 10 16 17 20 21 rings

> <PUBCHEM_HEAVY_ATOM_COUNT>
28

> <PUBCHEM_ATOM_DEF_STEREO_COUNT>
5

> <PUBCHEM_ATOM_UDEF_STEREO_COUNT>
1

> <PUBCHEM_BOND_DEF_STEREO_COUNT>
0

> <PUBCHEM_BOND_UDEF_STEREO_COUNT>
0

> <PUBCHEM_ISOTOPIC_ATOM_COUNT>
0

> <PUBCHEM_COMPONENT_COUNT>
1

> <PUBCHEM_CACTVS_TAUTO_COUNT>
3

> <PUBCHEM_CONFORMER_ID>
0001C27900000001

> <PUBCHEM_MMFF94_ENERGY>
86.979

> <PUBCHEM_FEATURE_SELFOVERLAP>
86.298

> <PUBCHEM_SHAPE_FINGERPRINT>
10369192 42 17554588970766636296
10616163 171 18343021064504499054
10863032 1 18411136892297851669
11578080 2 18339906195803632337
11759241 127 17967531315579480604
12173636 292 18126559025228565681
12467345 10 18411424989982062605
12553582 1 18199174269367408735
12596599 1 18127987304007819798
12714826 92 18340475704044948847
12788726 201 17417828226409105194
12916754 54 18407760318117244380
13103583 49 17559975362467070251
13224815 77 18410852149051332994
13544653 18 18339082704475042015
13583140 156 17846484925115723568
1361 2 17755304809594809268
13631057 29 18412542132804627310
13911987 19 14634877460849046502
14787075 74 18195525028665378998
15664445 248 17751343187742902101
16945 1 18270663377302069129
17349148 13 15791728603171026372
17492 54 17389100358370917861
17492 89 18341616975619255686
1813 80 17968655042533363119
19930381 70 18264768951100397844
20775530 9 18194394714007819283
21033648 29 13470422041039671163
22393880 68 18187358771533964150
22907989 373 18263907887777483557
23559900 14 18342448219267583504
23598288 3 17632580422346709261
2838139 119 16878811352324559086
350125 39 18410856590469601166
3737641 26 18342186608362441355
3797600 57 18201157753957297974
497634 4 18411991247324449204
5104073 3 18271519815371688778
6287921 2 18260557722891758780

> <PUBCHEM_SHAPE_MULTIPOLES>
519.31
9.04
3.44
1.68
5.17
0.61
-0.49
3.23
1.38
-0.78
0.61
-0.51
-1.22
0.02

> <PUBCHEM_SHAPE_SELFOVERLAP>
1115.231

> <PUBCHEM_SHAPE_VOLUME>
282

> <PUBCHEM_COORDINATE_TYPE>
2
5
10

$$$$
