115343
  -OEChem-03292013323D

 43 47  0     0  0  0  0  0  0999 V2000
    0.7668   -0.0199    2.2441 O   0  0  0  0  0  0  0  0  0  0  0  0
    3.0840   -0.0120   -1.1089 O   0  0  0  0  0  0  0  0  0  0  0  0
   -0.8871   -0.0172    3.8638 O   0  0  0  0  0  0  0  0  0  0  0  0
    3.6109    4.6860   -0.8892 O   0  0  0  0  0  0  0  0  0  0  0  0
    3.5047   -4.7240   -0.9843 O   0  0  0  0  0  0  0  0  0  0  0  0
   -3.3992   -1.1774   -2.7608 O   0  0  0  0  0  0  0  0  0  0  0  0
   -5.3925   -0.5683    1.1735 O   0  0  0  0  0  0  0  0  0  0  0  0
   -3.4564    1.0899   -2.9131 O   0  0  0  0  0  0  0  0  0  0  0  0
   -5.4612    0.5864   -0.7830 O   0  0  0  0  0  0  0  0  0  0  0  0
    0.8592   -0.0059    0.7842 C   0  0  0  0  0  0  0  0  0  0  0  0
   -0.5830    0.0147    0.3920 C   0  0  0  0  0  0  0  0  0  0  0  0
    1.6022    1.2487    0.3694 C   0  0  0  0  0  0  0  0  0  0  0  0
    1.5735   -1.2683    0.3436 C   0  0  0  0  0  0  0  0  0  0  0  0
   -1.3767    0.0121    1.5249 C   0  0  0  0  0  0  0  0  0  0  0  0
    2.6477    1.1681   -0.5574 C   0  0  0  0  0  0  0  0  0  0  0  0
    2.6210   -1.1929   -0.5812 C   0  0  0  0  0  0  0  0  0  0  0  0
   -0.5253   -0.0095    2.7043 C   0  0  0  0  0  0  0  0  0  0  0  0
   -1.1644    0.0344   -0.8659 C   0  0  0  0  0  0  0  0  0  0  0  0
    1.2503    2.5150    0.8691 C   0  0  0  0  0  0  0  0  0  0  0  0
    1.1927   -2.5362    0.8177 C   0  0  0  0  0  0  0  0  0  0  0  0
   -2.7582    0.0286    1.4703 C   0  0  0  0  0  0  0  0  0  0  0  0
   -2.5594    0.0512   -0.9533 C   0  0  0  0  0  0  0  0  0  0  0  0
   -3.3509    0.0486    0.2076 C   0  0  0  0  0  0  0  0  0  0  0  0
    3.3175    2.3204   -0.9828 C   0  0  0  0  0  0  0  0  0  0  0  0
    3.2651   -2.3512   -1.0296 C   0  0  0  0  0  0  0  0  0  0  0  0
    1.9233    3.6639    0.4499 C   0  0  0  0  0  0  0  0  0  0  0  0
    1.8399   -3.6914    0.3756 C   0  0  0  0  0  0  0  0  0  0  0  0
    2.9557    3.5665   -0.4776 C   0  0  0  0  0  0  0  0  0  0  0  0
    2.8750   -3.5989   -0.5494 C   0  0  0  0  0  0  0  0  0  0  0  0
   -3.1695    0.0727   -2.2769 C   0  0  0  0  0  0  0  0  0  0  0  0
   -4.8058    0.0660    0.1233 C   0  0  0  0  0  0  0  0  0  0  0  0
   -0.5473    0.0368   -1.7594 H   0  0  0  0  0  0  0  0  0  0  0  0
    0.4417    2.6217    1.5879 H   0  0  0  0  0  0  0  0  0  0  0  0
    0.3814   -2.6389    1.5340 H   0  0  0  0  0  0  0  0  0  0  0  0
   -3.3378    0.0384    2.3872 H   0  0  0  0  0  0  0  0  0  0  0  0
    4.1249    2.2371   -1.7067 H   0  0  0  0  0  0  0  0  0  0  0  0
    4.0752   -2.2788   -1.7515 H   0  0  0  0  0  0  0  0  0  0  0  0
    1.6329    4.6318    0.8494 H   0  0  0  0  0  0  0  0  0  0  0  0
    1.5223   -4.6573    0.7594 H   0  0  0  0  0  0  0  0  0  0  0  0
    4.2953    4.4326   -1.5322 H   0  0  0  0  0  0  0  0  0  0  0  0
    3.1062   -5.4967   -0.5482 H   0  0  0  0  0  0  0  0  0  0  0  0
   -3.8096   -1.1543   -3.6516 H   0  0  0  0  0  0  0  0  0  0  0  0
   -6.3713   -0.5525    1.1094 H   0  0  0  0  0  0  0  0  0  0  0  0
  1 10  1  0  0  0  0
  1 17  1  0  0  0  0
  2 15  1  0  0  0  0
  2 16  1  0  0  0  0
  3 17  2  0  0  0  0
  4 28  1  0  0  0  0
  4 40  1  0  0  0  0
  5 29  1  0  0  0  0
  5 41  1  0  0  0  0
  6 30  1  0  0  0  0
  6 42  1  0  0  0  0
  7 31  1  0  0  0  0
  7 43  1  0  0  0  0
  8 30  2  0  0  0  0
  9 31  2  0  0  0  0
 10 11  1  0  0  0  0
 10 12  1  0  0  0  0
 10 13  1  0  0  0  0
 11 14  1  0  0  0  0
 11 18  2  0  0  0  0
 12 15  2  0  0  0  0
 12 19  1  0  0  0  0
 13 16  2  0  0  0  0
 13 20  1  0  0  0  0
 14 17  1  0  0  0  0
 14 21  2  0  0  0  0
 15 24  1  0  0  0  0
 16 25  1  0  0  0  0
 18 22  1  0  0  0  0
 18 32  1  0  0  0  0
 19 26  2  0  0  0  0
 19 33  1  0  0  0  0
 20 27  2  0  0  0  0
 20 34  1  0  0  0  0
 21 23  1  0  0  0  0
 21 35  1  0  0  0  0
 22 23  2  0  0  0  0
 22 30  1  0  0  0  0
 23 31  1  0  0  0  0
 24 28  2  0  0  0  0
 24 36  1  0  0  0  0
 25 29  2  0  0  0  0
 25 37  1  0  0  0  0
 26 28  1  0  0  0  0
 26 38  1  0  0  0  0
 27 29  1  0  0  0  0
 27 39  1  0  0  0  0
M  END
> <PUBCHEM_COMPOUND_CID>
115343

> <PUBCHEM_CONFORMER_RMSD>
0.8

> <PUBCHEM_CONFORMER_DIVERSEORDER>
1

> <PUBCHEM_MMFF94_PARTIAL_CHARGES>
43
1 -0.43
10 0.71
11 -0.14
12 -0.14
13 -0.14
14 0.09
15 0.08
16 0.08
17 0.63
18 -0.15
19 -0.15
2 -0.17
20 -0.15
21 -0.15
22 0.09
23 0.09
24 -0.15
25 -0.15
26 -0.15
27 -0.15
28 0.08
29 0.08
3 -0.57
30 0.63
31 0.63
32 0.15
33 0.15
34 0.15
35 0.15
36 0.15
37 0.15
38 0.15
39 0.15
4 -0.53
40 0.45
41 0.45
42 0.5
43 0.5
5 -0.53
6 -0.65
7 -0.65
8 -0.57
9 -0.57

> <PUBCHEM_EFFECTIVE_ROTOR_COUNT>
2.4

> <PUBCHEM_PHARMACOPHORE_FEATURES>
15
1 2 acceptor
1 3 acceptor
1 4 donor
1 5 donor
1 6 acceptor
1 7 acceptor
1 8 acceptor
1 9 acceptor
3 6 8 30 anion
3 7 9 31 anion
5 1 10 11 14 17 rings
6 11 14 18 21 22 23 rings
6 12 15 19 24 26 28 rings
6 13 16 20 25 27 29 rings
6 2 10 12 13 15 16 rings

> <PUBCHEM_HEAVY_ATOM_COUNT>
31

> <PUBCHEM_ATOM_DEF_STEREO_COUNT>
0

> <PUBCHEM_ATOM_UDEF_STEREO_COUNT>
0

> <PUBCHEM_BOND_DEF_STEREO_COUNT>
0

> <PUBCHEM_BOND_UDEF_STEREO_COUNT>
0

> <PUBCHEM_ISOTOPIC_ATOM_COUNT>
0

> <PUBCHEM_COMPONENT_COUNT>
1

> <PUBCHEM_CACTVS_TAUTO_COUNT>
5

> <PUBCHEM_CONFORMER_ID>
0001C28F00000001

> <PUBCHEM_MMFF94_ENERGY>
103.3537

> <PUBCHEM_FEATURE_SELFOVERLAP>
76.387

> <PUBCHEM_SHAPE_FINGERPRINT>
10165383 225 17253207280141841732
10369192 42 17899988414932883333
105312 117 17832151889442674220
10930396 42 18190434166561693656
11101153 10 18048893897105990726
11578080 2 17534662383521770217
11582403 64 17752192049263267096
11720765 8 18119794825394005620
11725454 13 17750229390753031032
12553582 1 18126841608127685894
12730499 353 18263659518102553169
12788726 201 17108200001498918130
13009979 54 17416139277970776178
13681431 1 18265603304484253064
13911987 19 18046100170839372790
15219462 58 17616308810308096001
15324884 4 17316517107686465323
15878777 1 16917082022653973288
17980427 26 17765766503755634088
1813 80 17915184507394585462
18915476 22 18265071273536198403
19319366 153 18059578061054158179
20600515 1 15221408412939731235
22907989 373 16896240011056386612
23419403 2 17680468577752850130
23559900 14 18336544920127169739
238 59 18336542811013098438
25222932 49 15186497110629301191
376196 1 17751897323912157956
44802255 64 16305481034163914294
46194498 28 18261663810167095423
57527295 17 17606970485906782611
59025328 239 17910646823143916702
6677587 24 17253648110762597284
70251023 43 18337965471643086243
7399639 24 17970074554741306787

> <PUBCHEM_SHAPE_MULTIPOLES>
585.14
8.17
4.68
2.49
10.01
0.18
0.8
-0.25
-3.79
-10.04
-1.3
2.54
0.01
0.23

> <PUBCHEM_SHAPE_SELFOVERLAP>
1346.898

> <PUBCHEM_SHAPE_VOLUME>
299.4

> <PUBCHEM_COORDINATE_TYPE>
2
5
10

$$$$
