11536283
  -OEChem-03292013303D

 30 31  0     0  0  0  0  0  0999 V2000
    1.4415    2.4841    0.2829 O   0  0  0  0  0  0  0  0  0  0  0  0
    0.6477   -2.9627   -0.0525 O   0  0  0  0  0  0  0  0  0  0  0  0
    3.1393   -1.9497    0.0995 O   0  0  0  0  0  0  0  0  0  0  0  0
   -1.9305   -2.6303    0.0687 O   0  0  0  0  0  0  0  0  0  0  0  0
   -1.1124    2.7679    0.2329 O   0  0  0  0  0  0  0  0  0  0  0  0
   -3.5247    1.8126   -0.3003 O   0  0  0  0  0  0  0  0  0  0  0  0
   -4.1047   -0.8822   -0.1861 N   0  0  0  0  0  0  0  0  0  0  0  0
   -0.1013    0.6276    0.1338 C   0  0  0  0  0  0  0  0  0  0  0  0
   -0.3447   -0.7526    0.0660 C   0  0  0  0  0  0  0  0  0  0  0  0
    2.2869    0.2760    0.2085 C   0  0  0  0  0  0  0  0  0  0  0  0
    1.1992    1.1430    0.2127 C   0  0  0  0  0  0  0  0  0  0  0  0
    0.7734   -1.6040    0.0437 C   0  0  0  0  0  0  0  0  0  0  0  0
    2.0746   -1.0953    0.1183 C   0  0  0  0  0  0  0  0  0  0  0  0
    3.6804    0.8128    0.2890 C   0  0  0  0  0  0  0  0  0  0  0  0
   -1.7349   -1.2585    0.0031 C   0  0  0  0  0  0  0  0  0  0  0  0
   -1.2369    1.5607    0.0986 C   0  0  0  0  0  0  0  0  0  0  0  0
   -2.8093   -0.4572   -0.1053 C   0  0  0  0  0  0  0  0  0  0  0  0
   -2.6144    1.0149   -0.1247 C   0  0  0  0  0  0  0  0  0  0  0  0
    4.2707    1.0930   -1.0888 C   0  0  0  0  0  0  0  0  0  0  0  0
    3.7354    1.7252    0.8914 H   0  0  0  0  0  0  0  0  0  0  0  0
    4.3346    0.1242    0.8381 H   0  0  0  0  0  0  0  0  0  0  0  0
    3.6845    1.8477   -1.6239 H   0  0  0  0  0  0  0  0  0  0  0  0
    5.2944    1.4685   -0.9907 H   0  0  0  0  0  0  0  0  0  0  0  0
    4.2997    0.1908   -1.7083 H   0  0  0  0  0  0  0  0  0  0  0  0
    2.0647    2.6560    1.0073 H   0  0  0  0  0  0  0  0  0  0  0  0
    1.5345   -3.3630   -0.0519 H   0  0  0  0  0  0  0  0  0  0  0  0
    3.9330   -1.5052   -0.2358 H   0  0  0  0  0  0  0  0  0  0  0  0
   -4.3109   -1.8733   -0.1712 H   0  0  0  0  0  0  0  0  0  0  0  0
   -4.8556   -0.2072   -0.2579 H   0  0  0  0  0  0  0  0  0  0  0  0
   -1.1317   -3.0558    0.4170 H   0  0  0  0  0  0  0  0  0  0  0  0
  1 11  1  0  0  0  0
  1 25  1  0  0  0  0
  2 12  1  0  0  0  0
  2 26  1  0  0  0  0
  3 13  1  0  0  0  0
  3 27  1  0  0  0  0
  4 15  1  0  0  0  0
  4 30  1  0  0  0  0
  5 16  2  0  0  0  0
  6 18  2  0  0  0  0
  7 17  1  0  0  0  0
  7 28  1  0  0  0  0
  7 29  1  0  0  0  0
  8  9  2  0  0  0  0
  8 11  1  0  0  0  0
  8 16  1  0  0  0  0
  9 12  1  0  0  0  0
  9 15  1  0  0  0  0
 10 11  2  0  0  0  0
 10 13  1  0  0  0  0
 10 14  1  0  0  0  0
 12 13  2  0  0  0  0
 14 19  1  0  0  0  0
 14 20  1  0  0  0  0
 14 21  1  0  0  0  0
 15 17  2  0  0  0  0
 16 18  1  0  0  0  0
 17 18  1  0  0  0  0
 19 22  1  0  0  0  0
 19 23  1  0  0  0  0
 19 24  1  0  0  0  0
M  END
> <PUBCHEM_COMPOUND_CID>
11536283

> <PUBCHEM_CONFORMER_RMSD>
0.6

> <PUBCHEM_CONFORMER_DIVERSEORDER>
1

> <PUBCHEM_MMFF94_PARTIAL_CHARGES>
24
1 -0.53
10 -0.14
11 0.08
12 0.08
13 0.08
14 0.14
15 0.05
16 0.48
17 0.11
18 0.56
2 -0.53
25 0.45
26 0.45
27 0.45
28 0.4
29 0.4
3 -0.53
30 0.45
4 -0.53
5 -0.57
6 -0.57
7 -0.9
8 0.09
9 0.03

> <PUBCHEM_EFFECTIVE_ROTOR_COUNT>
1

> <PUBCHEM_PHARMACOPHORE_FEATURES>
11
1 1 donor
1 19 hydrophobe
1 2 donor
1 3 donor
1 4 donor
1 5 acceptor
1 6 acceptor
1 7 cation
1 7 donor
6 8 9 10 11 12 13 rings
6 8 9 15 16 17 18 rings

> <PUBCHEM_HEAVY_ATOM_COUNT>
19

> <PUBCHEM_ATOM_DEF_STEREO_COUNT>
0

> <PUBCHEM_ATOM_UDEF_STEREO_COUNT>
0

> <PUBCHEM_BOND_DEF_STEREO_COUNT>
0

> <PUBCHEM_BOND_UDEF_STEREO_COUNT>
0

> <PUBCHEM_ISOTOPIC_ATOM_COUNT>
0

> <PUBCHEM_COMPONENT_COUNT>
1

> <PUBCHEM_CACTVS_TAUTO_COUNT>
983

> <PUBCHEM_CONFORMER_ID>
00B0079B00000001

> <PUBCHEM_MMFF94_ENERGY>
59.8297

> <PUBCHEM_FEATURE_SELFOVERLAP>
55.873

> <PUBCHEM_SHAPE_FINGERPRINT>
10498660 4 18409450275873595812
10608611 8 18410569561414452449
10616163 171 18410577318130670326
10759866 29 18113338622312597354
10967382 1 18411134774746937107
11132069 177 18337945706193222272
11471102 20 18410847742493950167
13027679 85 18341050843194794465
13140716 1 18050846920516094617
13221675 6 18411699919433999314
13380535 76 18410286986857548794
14790565 3 18339098063178489473
15196674 1 18410854334915321539
15442244 35 18266173929423120906
15536298 74 18342736278550549426
16945 1 18411415150201418545
1813 80 17096913678487046826
193761 8 18195245516335650906
19591789 44 18122912185661115786
20510252 161 18343301453107282337
21267235 1 18410580573731984234
21501502 16 18338797810271502850
2334 1 17834954552585408969
23366157 5 17969507000715390930
23402539 116 18341887554590152660
23463225 33 18336260129277288434
23493267 7 17895475924696050320
23559900 14 18197491827804078762
2748010 2 17619066578664775874
3312278 4 18411140263741625624
335352 9 18194961833714049935
350125 39 18121786027850753892
43471831 8 18408599249631392890
474 4 17023755653313258452
5104073 3 18410292475915223401
58051976 378 18411701010856924188
7364860 26 18197776592456524382
8809292 202 18335423404965269795
9709674 26 18412265021271901366

> <PUBCHEM_SHAPE_MULTIPOLES>
350.81
6.25
2.92
0.68
1.06
0.48
0.07
-0.98
1.1
-0.41
-0.1
0.31
-0.1
-0.15

> <PUBCHEM_SHAPE_SELFOVERLAP>
774.637

> <PUBCHEM_SHAPE_VOLUME>
187.9

> <PUBCHEM_COORDINATE_TYPE>
2
5
10

$$$$
