11544617
  -OEChem-03292013303D

 42 45  0     1  0  0  0  0  0999 V2000
   -0.3062    1.6803   -0.1145 O   0  0  0  0  0  0  0  0  0  0  0  0
   -3.0777    0.7080   -1.4432 O   0  0  0  0  0  0  0  0  0  0  0  0
   -2.7818   -0.2309    1.8210 O   0  0  0  0  0  0  0  0  0  0  0  0
    1.0331    0.6901   -1.8465 O   0  0  0  0  0  0  0  0  0  0  0  0
    2.3689   -3.4917   -0.3763 O   0  0  0  0  0  0  0  0  0  0  0  0
   -3.8735    1.8619    0.3624 O   0  0  0  0  0  0  0  0  0  0  0  0
    3.1165    1.5042   -0.7799 O   0  0  0  0  0  0  0  0  0  0  0  0
    1.9211    2.6930    0.7995 O   0  0  0  0  0  0  0  0  0  0  0  0
    0.7526   -0.3850    0.3449 C   0  0  1  0  0  0  0  0  0  0  0  0
   -1.7643   -0.9466   -0.3395 C   0  0  2  0  0  0  0  0  0  0  0  0
   -2.1134    0.2004    0.6440 C   0  0  2  0  0  0  0  0  0  0  0  0
   -0.9074    1.0695    1.0502 C   0  0  1  0  0  0  0  0  0  0  0  0
    0.1769    0.1661    1.6415 C   0  0  0  0  0  0  0  0  0  0  0  0
   -0.2905   -1.3529   -0.2432 C   0  0  0  0  0  0  0  0  0  0  0  0
    0.8654    0.9248   -0.4623 C   0  0  2  0  0  0  0  0  0  0  0  0
    2.0504   -1.2166    0.4078 C   0  0  2  0  0  0  0  0  0  0  0  0
   -2.1010   -0.3125   -1.6947 C   0  0  0  0  0  0  0  0  0  0  0  0
    0.2127   -2.5504   -0.5650 C   0  0  0  0  0  0  0  0  0  0  0  0
   -2.7060   -2.1606   -0.1356 C   0  0  0  0  0  0  0  0  0  0  0  0
    1.6324   -2.5311   -0.2020 C   0  0  0  0  0  0  0  0  0  0  0  0
   -3.1226    1.0260   -0.1177 C   0  0  0  0  0  0  0  0  0  0  0  0
    2.6267   -1.4511    1.7967 C   0  0  0  0  0  0  0  0  0  0  0  0
    2.0062    1.8212   -0.0548 C   0  0  0  0  0  0  0  0  0  0  0  0
    4.2818    2.2838   -0.4927 C   0  0  0  0  0  0  0  0  0  0  0  0
   -1.2024    1.8531    1.7565 H   0  0  0  0  0  0  0  0  0  0  0  0
    0.9096    0.7609    2.1973 H   0  0  0  0  0  0  0  0  0  0  0  0
   -0.2179   -0.5945    2.3238 H   0  0  0  0  0  0  0  0  0  0  0  0
    2.8299   -0.8193   -0.2478 H   0  0  0  0  0  0  0  0  0  0  0  0
   -1.2596    0.1600   -2.2012 H   0  0  0  0  0  0  0  0  0  0  0  0
   -2.5317   -1.0326   -2.3992 H   0  0  0  0  0  0  0  0  0  0  0  0
   -0.2928   -3.4079   -0.9738 H   0  0  0  0  0  0  0  0  0  0  0  0
   -3.7612   -1.8664   -0.1779 H   0  0  0  0  0  0  0  0  0  0  0  0
   -2.5665   -2.9161   -0.9176 H   0  0  0  0  0  0  0  0  0  0  0  0
   -2.5270   -2.6481    0.8297 H   0  0  0  0  0  0  0  0  0  0  0  0
    1.9076   -1.9484    2.4566 H   0  0  0  0  0  0  0  0  0  0  0  0
    3.5107   -2.0964    1.7435 H   0  0  0  0  0  0  0  0  0  0  0  0
    2.9340   -0.5078    2.2583 H   0  0  0  0  0  0  0  0  0  0  0  0
   -3.6332   -0.6323    1.5818 H   0  0  0  0  0  0  0  0  0  0  0  0
    1.3846   -0.2043   -1.9844 H   0  0  0  0  0  0  0  0  0  0  0  0
    4.5798    2.1469    0.5512 H   0  0  0  0  0  0  0  0  0  0  0  0
    4.0931    3.3401   -0.7062 H   0  0  0  0  0  0  0  0  0  0  0  0
    5.0920    1.9341   -1.1379 H   0  0  0  0  0  0  0  0  0  0  0  0
  1 12  1  0  0  0  0
  1 15  1  0  0  0  0
  2 17  1  0  0  0  0
  2 21  1  0  0  0  0
  3 11  1  0  0  0  0
  3 38  1  0  0  0  0
  4 15  1  0  0  0  0
  4 39  1  0  0  0  0
  5 20  2  0  0  0  0
  6 21  2  0  0  0  0
  7 23  1  0  0  0  0
  7 24  1  0  0  0  0
  8 23  2  0  0  0  0
  9 13  1  0  0  0  0
  9 14  1  0  0  0  0
  9 15  1  0  0  0  0
  9 16  1  0  0  0  0
 10 11  1  0  0  0  0
 10 14  1  0  0  0  0
 10 17  1  0  0  0  0
 10 19  1  0  0  0  0
 11 12  1  0  0  0  0
 11 21  1  0  0  0  0
 12 13  1  0  0  0  0
 12 25  1  0  0  0  0
 13 26  1  0  0  0  0
 13 27  1  0  0  0  0
 14 18  2  0  0  0  0
 15 23  1  0  0  0  0
 16 20  1  0  0  0  0
 16 22  1  0  0  0  0
 16 28  1  0  0  0  0
 17 29  1  0  0  0  0
 17 30  1  0  0  0  0
 18 20  1  0  0  0  0
 18 31  1  0  0  0  0
 19 32  1  0  0  0  0
 19 33  1  0  0  0  0
 19 34  1  0  0  0  0
 22 35  1  0  0  0  0
 22 36  1  0  0  0  0
 22 37  1  0  0  0  0
 24 40  1  0  0  0  0
 24 41  1  0  0  0  0
 24 42  1  0  0  0  0
M  END
> <PUBCHEM_COMPOUND_CID>
11544617

> <PUBCHEM_CONFORMER_RMSD>
0.6

> <PUBCHEM_CONFORMER_DIVERSEORDER>
1
4
2
3

> <PUBCHEM_MMFF94_PARTIAL_CHARGES>
24
1 -0.56
10 0.14
11 0.34
12 0.28
14 -0.28
15 0.62
16 0.06
17 0.28
18 -0.14
2 -0.43
20 0.49
21 0.66
23 0.66
24 0.28
3 -0.68
31 0.15
38 0.4
39 0.4
4 -0.68
5 -0.57
6 -0.57
7 -0.43
8 -0.57
9 0.14

> <PUBCHEM_EFFECTIVE_ROTOR_COUNT>
3.2

> <PUBCHEM_PHARMACOPHORE_FEATURES>
11
1 1 acceptor
1 3 acceptor
1 3 donor
1 4 acceptor
1 4 donor
1 5 acceptor
1 6 acceptor
1 8 acceptor
5 2 10 11 17 21 rings
5 9 14 16 18 20 rings
8 1 9 10 11 12 13 14 15 rings

> <PUBCHEM_HEAVY_ATOM_COUNT>
24

> <PUBCHEM_ATOM_DEF_STEREO_COUNT>
5

> <PUBCHEM_ATOM_UDEF_STEREO_COUNT>
1

> <PUBCHEM_BOND_DEF_STEREO_COUNT>
0

> <PUBCHEM_BOND_UDEF_STEREO_COUNT>
0

> <PUBCHEM_ISOTOPIC_ATOM_COUNT>
0

> <PUBCHEM_COMPONENT_COUNT>
1

> <PUBCHEM_CACTVS_TAUTO_COUNT>
2

> <PUBCHEM_CONFORMER_ID>
00B0282900000001

> <PUBCHEM_MMFF94_ENERGY>
72.8447

> <PUBCHEM_FEATURE_SELFOVERLAP>
56.023

> <PUBCHEM_SHAPE_FINGERPRINT>
10863032 1 18408600387850077471
10948715 1 18336270131834276965
10967382 1 18340205167975173882
11578080 2 16302940980970611860
12035759 4 18270692961047080764
121448 382 17913759793743446764
12422481 6 17897696861597848736
12491281 212 18336260257736202976
12592029 89 18337962275960642602
12644460 14 18266478545614966617
12788726 201 17109305547656036512
13132413 78 17985818242332271080
13140716 1 18409440380173688571
13172582 1 18265043635453647603
14022347 108 17832148220912660850
14181834 199 18260536801895069478
14223421 5 18336275642620397691
14790565 3 17762347212083559697
16945 1 18267582416439472659
1813 80 17698172746474793638
18186145 218 18129390473891790208
18927931 339 9726266124719411268
19591789 44 18195816386530850650
19868273 325 17687472260763761078
20510252 161 17766559436016697432
20600515 1 17975678516347600994
21501502 16 18336256916620814263
21524375 3 18044378472536030040
23175994 123 17903649475257602583
2334 1 18338790242644810659
23419403 2 17537485839556734130
23559900 14 18056769947914156188
23566358 2 18271254922899951222
2748010 2 18337953497063398023
350125 39 18338518667578429203
4340502 62 18054819383698854635
5845 1 7826670409473531778
7364860 26 18339647741587085060
81228 2 17400638221424065720

> <PUBCHEM_SHAPE_MULTIPOLES>
446.95
5.42
3.18
1.46
0.14
1.46
-0.17
-2.65
0.37
2.25
0.27
-0.18
-0.04
-0.63

> <PUBCHEM_SHAPE_SELFOVERLAP>
1002.928

> <PUBCHEM_SHAPE_VOLUME>
236.4

> <PUBCHEM_COORDINATE_TYPE>
2
5
10

$$$$
