11546423
  -OEChem-03292013303D

 51 54  0     1  0  0  0  0  0999 V2000
    0.5779   -0.8357   -0.1140 O   0  0  0  0  0  0  0  0  0  0  0  0
    0.7064    1.9827   -0.6709 O   0  0  0  0  0  0  0  0  0  0  0  0
   -1.7775    2.6605    0.2899 O   0  0  0  0  0  0  0  0  0  0  0  0
    2.8623   -2.2298    0.3207 O   0  0  0  0  0  0  0  0  0  0  0  0
    3.1162    3.2293   -0.6328 O   0  0  0  0  0  0  0  0  0  0  0  0
   -4.7533   -2.0203    1.5136 O   0  0  0  0  0  0  0  0  0  0  0  0
   -5.1093   -3.2444   -0.9565 O   0  0  0  0  0  0  0  0  0  0  0  0
    3.9301   -4.2054    0.7709 O   0  0  0  0  0  0  0  0  0  0  0  0
   -3.6224    3.8776   -0.3828 O   0  0  0  0  0  0  0  0  0  0  0  0
   -0.5743    0.0208   -0.0286 C   0  0  1  0  0  0  0  0  0  0  0  0
   -0.4360    1.1836   -1.0244 C   0  0  1  0  0  0  0  0  0  0  0  0
   -1.7868   -0.8509   -0.2729 C   0  0  0  0  0  0  0  0  0  0  0  0
   -1.6379    2.1241   -1.0129 C   0  0  0  0  0  0  0  0  0  0  0  0
    1.7544   -0.1412   -0.1492 C   0  0  0  0  0  0  0  0  0  0  0  0
    1.8159    1.2261   -0.4093 C   0  0  0  0  0  0  0  0  0  0  0  0
    2.9400   -0.8413    0.0771 C   0  0  0  0  0  0  0  0  0  0  0  0
    3.0460    1.8883   -0.3986 C   0  0  0  0  0  0  0  0  0  0  0  0
    4.1765   -0.1993    0.0764 C   0  0  0  0  0  0  0  0  0  0  0  0
   -2.7253   -1.0399    0.7411 C   0  0  0  0  0  0  0  0  0  0  0  0
   -1.9651   -1.4650   -1.5124 C   0  0  0  0  0  0  0  0  0  0  0  0
    4.2249    1.1769   -0.1585 C   0  0  0  0  0  0  0  0  0  0  0  0
   -3.8431   -1.8433    0.5157 C   0  0  0  0  0  0  0  0  0  0  0  0
   -3.0828   -2.2686   -1.7377 C   0  0  0  0  0  0  0  0  0  0  0  0
    5.3761   -0.9810    0.3253 C   0  0  0  0  0  0  0  0  0  0  0  0
   -4.0219   -2.4576   -0.7238 C   0  0  0  0  0  0  0  0  0  0  0  0
    5.2898   -2.2939    0.5516 C   0  0  0  0  0  0  0  0  0  0  0  0
    3.9956   -2.9993    0.5604 C   0  0  0  0  0  0  0  0  0  0  0  0
   -2.8188    3.5320    0.4727 C   0  0  0  0  0  0  0  0  0  0  0  0
    3.0183    4.0901    0.4997 C   0  0  0  0  0  0  0  0  0  0  0  0
   -2.8431    4.0154    1.8912 C   0  0  0  0  0  0  0  0  0  0  0  0
   -5.8327   -1.0904    1.5790 C   0  0  0  0  0  0  0  0  0  0  0  0
   -0.5998    0.4070    1.0006 H   0  0  0  0  0  0  0  0  0  0  0  0
   -0.2775    0.8206   -2.0487 H   0  0  0  0  0  0  0  0  0  0  0  0
   -1.4547    2.9508   -1.7104 H   0  0  0  0  0  0  0  0  0  0  0  0
   -2.5552    1.6064   -1.3132 H   0  0  0  0  0  0  0  0  0  0  0  0
   -2.5933   -0.5640    1.7097 H   0  0  0  0  0  0  0  0  0  0  0  0
   -1.2406   -1.3364   -2.3117 H   0  0  0  0  0  0  0  0  0  0  0  0
    5.1776    1.7021   -0.1600 H   0  0  0  0  0  0  0  0  0  0  0  0
   -3.2154   -2.7458   -2.7049 H   0  0  0  0  0  0  0  0  0  0  0  0
    6.3389   -0.4820    0.3240 H   0  0  0  0  0  0  0  0  0  0  0  0
    6.1813   -2.8828    0.7379 H   0  0  0  0  0  0  0  0  0  0  0  0
    3.0840    5.1242    0.1508 H   0  0  0  0  0  0  0  0  0  0  0  0
    3.8417    3.9025    1.1961 H   0  0  0  0  0  0  0  0  0  0  0  0
    2.0582    3.9526    1.0073 H   0  0  0  0  0  0  0  0  0  0  0  0
   -5.6327   -3.2982   -0.1384 H   0  0  0  0  0  0  0  0  0  0  0  0
   -1.9114    4.5389    2.1196 H   0  0  0  0  0  0  0  0  0  0  0  0
   -2.9852    3.1688    2.5675 H   0  0  0  0  0  0  0  0  0  0  0  0
   -3.6762    4.7116    2.0234 H   0  0  0  0  0  0  0  0  0  0  0  0
   -6.4116   -1.1004    0.6500 H   0  0  0  0  0  0  0  0  0  0  0  0
   -5.4555   -0.0816    1.7746 H   0  0  0  0  0  0  0  0  0  0  0  0
   -6.4887   -1.3843    2.4030 H   0  0  0  0  0  0  0  0  0  0  0  0
  1 10  1  0  0  0  0
  1 14  1  0  0  0  0
  2 11  1  0  0  0  0
  2 15  1  0  0  0  0
  3 13  1  0  0  0  0
  3 28  1  0  0  0  0
  4 16  1  0  0  0  0
  4 27  1  0  0  0  0
  5 17  1  0  0  0  0
  5 29  1  0  0  0  0
  6 22  1  0  0  0  0
  6 31  1  0  0  0  0
  7 25  1  0  0  0  0
  7 45  1  0  0  0  0
  8 27  2  0  0  0  0
  9 28  2  0  0  0  0
 10 11  1  0  0  0  0
 10 12  1  0  0  0  0
 10 32  1  0  0  0  0
 11 13  1  0  0  0  0
 11 33  1  0  0  0  0
 12 19  2  0  0  0  0
 12 20  1  0  0  0  0
 13 34  1  0  0  0  0
 13 35  1  0  0  0  0
 14 15  1  0  0  0  0
 14 16  2  0  0  0  0
 15 17  2  0  0  0  0
 16 18  1  0  0  0  0
 17 21  1  0  0  0  0
 18 21  2  0  0  0  0
 18 24  1  0  0  0  0
 19 22  1  0  0  0  0
 19 36  1  0  0  0  0
 20 23  2  0  0  0  0
 20 37  1  0  0  0  0
 21 38  1  0  0  0  0
 22 25  2  0  0  0  0
 23 25  1  0  0  0  0
 23 39  1  0  0  0  0
 24 26  2  0  0  0  0
 24 40  1  0  0  0  0
 26 27  1  0  0  0  0
 26 41  1  0  0  0  0
 28 30  1  0  0  0  0
 29 42  1  0  0  0  0
 29 43  1  0  0  0  0
 29 44  1  0  0  0  0
 30 46  1  0  0  0  0
 30 47  1  0  0  0  0
 30 48  1  0  0  0  0
 31 49  1  0  0  0  0
 31 50  1  0  0  0  0
 31 51  1  0  0  0  0
M  END
> <PUBCHEM_COMPOUND_CID>
11546423

> <PUBCHEM_CONFORMER_RMSD>
0.8

> <PUBCHEM_CONFORMER_DIVERSEORDER>
1
17
43
44
30
42
46
39
22
61
52
23
10
34
47
19
15
21
45
6
37
40
8
55
41
27
11
16
36
5
60
64
26
18
38
25
53
20
62
33
3
51
54
14
7
57
56
24
50
9
59
2
31
12
13
58
4
49
63
48
32
29
35
28

> <PUBCHEM_MMFF94_PARTIAL_CHARGES>
38
1 -0.36
10 0.42
11 0.28
12 -0.14
13 0.28
14 0.08
15 0.08
16 0.08
17 0.08
18 0.03
19 -0.15
2 -0.36
20 -0.15
21 -0.15
22 0.08
23 -0.15
24 -0.18
25 0.08
26 -0.14
27 0.71
28 0.66
29 0.28
3 -0.43
30 0.06
31 0.28
36 0.15
37 0.15
38 0.15
39 0.15
4 -0.23
40 0.15
41 0.15
45 0.45
5 -0.36
6 -0.36
7 -0.53
8 -0.57
9 -0.57

> <PUBCHEM_EFFECTIVE_ROTOR_COUNT>
6.8

> <PUBCHEM_PHARMACOPHORE_FEATURES>
11
1 1 acceptor
1 2 acceptor
1 5 acceptor
1 6 acceptor
1 7 donor
1 8 acceptor
1 9 acceptor
6 1 2 10 11 14 15 rings
6 12 19 20 22 23 25 rings
6 14 15 16 17 18 21 rings
6 4 16 18 24 26 27 rings

> <PUBCHEM_HEAVY_ATOM_COUNT>
31

> <PUBCHEM_ATOM_DEF_STEREO_COUNT>
2

> <PUBCHEM_ATOM_UDEF_STEREO_COUNT>
0

> <PUBCHEM_BOND_DEF_STEREO_COUNT>
0

> <PUBCHEM_BOND_UDEF_STEREO_COUNT>
0

> <PUBCHEM_ISOTOPIC_ATOM_COUNT>
0

> <PUBCHEM_COMPONENT_COUNT>
1

> <PUBCHEM_CACTVS_TAUTO_COUNT>
3

> <PUBCHEM_CONFORMER_ID>
00B02F3700000001

> <PUBCHEM_MMFF94_ENERGY>
116.266

> <PUBCHEM_FEATURE_SELFOVERLAP>
55.899

> <PUBCHEM_SHAPE_FINGERPRINT>
10006869 2 18272096028200463321
10010297 198 17899732138608386561
10190108 129 18118709800469671584
1100329 8 18193272984144351768
11552529 35 18342454807441616320
11578080 2 17845066568043019008
12107183 9 18268156370626497611
12236239 1 17987524882079236223
12422481 6 18129396929396382671
12633257 1 17275110560920800683
12788726 201 18341342174841647485
13004483 165 18341896337745713641
13140716 1 15960609921654259674
13540713 5 18334582330632037220
13692114 37 17983309127782987185
13911987 19 17539136459723660316
140371 6 17751649972582151372
14400156 413 18119792863280040101
14790565 3 17253441604651423436
15475509 84 18343312443934270625
16728300 4 16380007726445642802
17492 89 18409724063069959926
17980427 23 17129319820910109525
19301679 30 18409176528060197227
19319366 153 17833551575965015596
20511986 3 17773031080291056807
21421861 104 18341061795129128446
21703447 108 18269540793046903024
23559900 14 18336808845624623340
23598288 3 18131064922425757980
25147074 1 18261123958606197428
283562 15 18124036985999172444
3117164 225 18266465295429933176
312423 11 18260554424430552692
350125 39 18410298038199155292
460360 51 18265346026889103732
463206 1 18120929778939505574
5104073 3 18265040359327135042
5486654 36 18262799554028346602
70251023 43 18336536200779394138
7164475 11 18410009965857162076
79837 15 17909839738754752193

> <PUBCHEM_SHAPE_MULTIPOLES>
585.14
11.86
5.75
1.29
0.13
3.91
0.09
-8.3
3.28
-1.22
1.06
-1.68
-0.11
-2.05

> <PUBCHEM_SHAPE_SELFOVERLAP>
1279.507

> <PUBCHEM_SHAPE_VOLUME>
316

> <PUBCHEM_COORDINATE_TYPE>
2
5
10

$$$$
