11547499
  -OEChem-03292013303D

 62 64  0     1  0  0  0  0  0999 V2000
    2.4325   -5.3090   -0.0602 Cl  0  0  0  0  0  0  0  0  0  0  0  0
    3.3849    0.3780   -1.5614 O   0  0  0  0  0  0  0  0  0  0  0  0
    3.1692   -2.5386   -1.3443 O   0  0  0  0  0  0  0  0  0  0  0  0
   -4.5259    2.7509   -1.0130 O   0  0  0  0  0  0  0  0  0  0  0  0
   -2.6275    4.7789   -0.8577 O   0  0  0  0  0  0  0  0  0  0  0  0
   -1.4027    0.0951    1.1415 O   0  0  0  0  0  0  0  0  0  0  0  0
   -5.8800    0.1247   -0.0799 O   0  0  0  0  0  0  0  0  0  0  0  0
    2.8899   -1.2866    0.5897 N   0  0  0  0  0  0  0  0  0  0  0  0
   -2.3760   -1.7950    0.1687 N   0  0  0  0  0  0  0  0  0  0  0  0
   -3.6060    0.2168    0.5098 N   0  0  0  0  0  0  0  0  0  0  0  0
   -3.5088   -2.4283   -0.2573 N   0  0  0  0  0  0  0  0  0  0  0  0
    3.9274    0.7418   -0.2824 C   0  0  0  0  0  0  0  0  0  0  0  0
    2.8734    1.6098    0.4256 C   0  0  0  0  0  0  0  0  0  0  0  0
    5.2795    1.4284   -0.5427 C   0  0  0  0  0  0  0  0  0  0  0  0
    2.8320    3.0713   -0.0244 C   0  0  0  0  0  0  0  0  0  0  0  0
    5.7866    2.3297    0.5803 C   0  0  0  0  0  0  0  0  0  0  0  0
    3.7926    3.9568    0.7692 C   0  0  0  0  0  0  0  0  0  0  0  0
    5.2724    3.7633    0.4543 C   0  0  0  0  0  0  0  0  0  0  0  0
    4.1175   -0.5606    0.5080 C   0  0  0  0  0  0  0  0  0  0  0  0
    2.5039   -2.2348   -0.3576 C   0  0  0  0  0  0  0  0  0  0  0  0
    1.1848   -2.8839   -0.1438 C   0  0  0  0  0  0  0  0  0  0  0  0
    0.0535   -2.0698   -0.0883 C   0  0  0  0  0  0  0  0  0  0  0  0
    1.0576   -4.2654    0.0014 C   0  0  0  0  0  0  0  0  0  0  0  0
   -1.2048   -2.6371    0.1125 C   0  0  0  0  0  0  0  0  0  0  0  0
   -3.6508    1.6130    0.9286 C   0  0  0  0  0  0  0  0  0  0  0  0
   -3.3553    2.5852   -0.2119 C   0  0  2  0  0  0  0  0  0  0  0  0
   -0.2007   -4.8328    0.2021 C   0  0  0  0  0  0  0  0  0  0  0  0
   -1.3319   -4.0187    0.2577 C   0  0  0  0  0  0  0  0  0  0  0  0
   -2.3781   -0.4648    0.6308 C   0  0  0  0  0  0  0  0  0  0  0  0
   -2.9028    3.9586    0.2736 C   0  0  0  0  0  0  0  0  0  0  0  0
   -4.7691   -0.3677    0.0516 C   0  0  0  0  0  0  0  0  0  0  0  0
   -4.6214   -1.7895   -0.3135 C   0  0  0  0  0  0  0  0  0  0  0  0
   -2.2156    6.0805   -0.4668 C   0  0  0  0  0  0  0  0  0  0  0  0
    1.8783    1.1895    0.2243 H   0  0  0  0  0  0  0  0  0  0  0  0
    3.0092    1.5744    1.5141 H   0  0  0  0  0  0  0  0  0  0  0  0
    6.0345    0.6536   -0.7346 H   0  0  0  0  0  0  0  0  0  0  0  0
    5.2358    1.9964   -1.4819 H   0  0  0  0  0  0  0  0  0  0  0  0
    3.0068    3.1661   -1.1019 H   0  0  0  0  0  0  0  0  0  0  0  0
    1.8177    3.4486    0.1593 H   0  0  0  0  0  0  0  0  0  0  0  0
    6.8811    2.3698    0.5088 H   0  0  0  0  0  0  0  0  0  0  0  0
    5.5561    1.9144    1.5673 H   0  0  0  0  0  0  0  0  0  0  0  0
    3.6286    3.8061    1.8436 H   0  0  0  0  0  0  0  0  0  0  0  0
    3.5398    5.0058    0.5691 H   0  0  0  0  0  0  0  0  0  0  0  0
    5.8490    4.3986    1.1385 H   0  0  0  0  0  0  0  0  0  0  0  0
    5.4795    4.1403   -0.5551 H   0  0  0  0  0  0  0  0  0  0  0  0
    4.8594   -1.2034    0.0197 H   0  0  0  0  0  0  0  0  0  0  0  0
    4.4623   -0.3639    1.5287 H   0  0  0  0  0  0  0  0  0  0  0  0
    4.0316   -0.1941   -2.0093 H   0  0  0  0  0  0  0  0  0  0  0  0
    2.2764   -1.0980    1.3774 H   0  0  0  0  0  0  0  0  0  0  0  0
    0.1712   -1.0025   -0.2518 H   0  0  0  0  0  0  0  0  0  0  0  0
   -2.9319    1.7614    1.7421 H   0  0  0  0  0  0  0  0  0  0  0  0
   -4.6474    1.8194    1.3386 H   0  0  0  0  0  0  0  0  0  0  0  0
   -2.5790    2.1814   -0.8736 H   0  0  0  0  0  0  0  0  0  0  0  0
   -0.3161   -5.9073    0.3204 H   0  0  0  0  0  0  0  0  0  0  0  0
   -2.2949   -4.4918    0.4305 H   0  0  0  0  0  0  0  0  0  0  0  0
   -3.6993    4.4272    0.8640 H   0  0  0  0  0  0  0  0  0  0  0  0
   -2.0008    3.8671    0.8894 H   0  0  0  0  0  0  0  0  0  0  0  0
   -5.5414   -2.2918   -0.6522 H   0  0  0  0  0  0  0  0  0  0  0  0
   -4.7490    1.8831   -1.3896 H   0  0  0  0  0  0  0  0  0  0  0  0
   -3.0059    6.5789    0.1029 H   0  0  0  0  0  0  0  0  0  0  0  0
   -1.2972    6.0308    0.1262 H   0  0  0  0  0  0  0  0  0  0  0  0
   -2.0161    6.6641   -1.3695 H   0  0  0  0  0  0  0  0  0  0  0  0
  1 23  1  0  0  0  0
  2 12  1  0  0  0  0
  2 48  1  0  0  0  0
  3 20  2  0  0  0  0
  4 26  1  0  0  0  0
  4 59  1  0  0  0  0
  5 30  1  0  0  0  0
  5 33  1  0  0  0  0
  6 29  2  0  0  0  0
  7 31  2  0  0  0  0
  8 19  1  0  0  0  0
  8 20  1  0  0  0  0
  8 49  1  0  0  0  0
  9 11  1  0  0  0  0
  9 24  1  0  0  0  0
  9 29  1  0  0  0  0
 10 25  1  0  0  0  0
 10 29  1  0  0  0  0
 10 31  1  0  0  0  0
 11 32  2  0  0  0  0
 12 13  1  0  0  0  0
 12 14  1  0  0  0  0
 12 19  1  0  0  0  0
 13 15  1  0  0  0  0
 13 34  1  0  0  0  0
 13 35  1  0  0  0  0
 14 16  1  0  0  0  0
 14 36  1  0  0  0  0
 14 37  1  0  0  0  0
 15 17  1  0  0  0  0
 15 38  1  0  0  0  0
 15 39  1  0  0  0  0
 16 18  1  0  0  0  0
 16 40  1  0  0  0  0
 16 41  1  0  0  0  0
 17 18  1  0  0  0  0
 17 42  1  0  0  0  0
 17 43  1  0  0  0  0
 18 44  1  0  0  0  0
 18 45  1  0  0  0  0
 19 46  1  0  0  0  0
 19 47  1  0  0  0  0
 20 21  1  0  0  0  0
 21 22  1  0  0  0  0
 21 23  2  0  0  0  0
 22 24  2  0  0  0  0
 22 50  1  0  0  0  0
 23 27  1  0  0  0  0
 24 28  1  0  0  0  0
 25 26  1  0  0  0  0
 25 51  1  0  0  0  0
 25 52  1  0  0  0  0
 26 30  1  0  0  0  0
 26 53  1  0  0  0  0
 27 28  2  0  0  0  0
 27 54  1  0  0  0  0
 28 55  1  0  0  0  0
 30 56  1  0  0  0  0
 30 57  1  0  0  0  0
 31 32  1  0  0  0  0
 32 58  1  0  0  0  0
 33 60  1  0  0  0  0
 33 61  1  0  0  0  0
 33 62  1  0  0  0  0
M  END
> <PUBCHEM_COMPOUND_CID>
11547499

> <PUBCHEM_CONFORMER_RMSD>
1.2

> <PUBCHEM_CONFORMER_DIVERSEORDER>
1
118
87
53
62
46
90
141
50
135
17
127
120
98
59
27
19
57
8
80
20
150
73
32
114
100
156
78
143
146
55
56
35
126
151
75
52
21
148
110
67
142
85
159
116
84
154
69
25
54
16
92
99
88
105
138
31
28
76
37
97
117
38
121
42
131
43
9
60
30
124
72
68
104
63
15
51
140
136
144
111
36
153
12
47
103
89
44
79
70
147
157
18
41
93
66
39
61
6
23
123
65
107
137
64
91
125
81
130
86
133
2
129
22
71
3
113
119
77
82
10
108
83
112
13
134
155
109
128
34
11
145
102
29
115
152
74
149
94
45
139
14
95
4
49
5
58
24
96
33
26
106
48
7
158
40
122
101
132

> <PUBCHEM_MMFF94_PARTIAL_CHARGES>
34
1 -0.18
10 -0.42
11 -0.51
12 0.28
19 0.3
2 -0.68
20 0.54
21 0.09
22 -0.15
23 0.18
24 0.12
25 0.3
26 0.28
27 -0.15
28 -0.15
29 0.69
3 -0.57
30 0.28
31 0.63
32 0.39
33 0.28
4 -0.68
48 0.4
49 0.37
5 -0.56
50 0.15
54 0.15
55 0.15
58 0.06
59 0.4
6 -0.57
7 -0.57
8 -0.73
9 -0.11

> <PUBCHEM_EFFECTIVE_ROTOR_COUNT>
10.4

> <PUBCHEM_PHARMACOPHORE_FEATURES>
13
1 11 acceptor
1 2 acceptor
1 2 donor
1 3 acceptor
1 4 acceptor
1 4 donor
1 5 acceptor
1 6 acceptor
1 7 acceptor
1 8 donor
6 21 22 23 24 27 28 rings
6 9 10 11 29 31 32 rings
7 12 13 14 15 16 17 18 rings

> <PUBCHEM_HEAVY_ATOM_COUNT>
33

> <PUBCHEM_ATOM_DEF_STEREO_COUNT>
1

> <PUBCHEM_ATOM_UDEF_STEREO_COUNT>
0

> <PUBCHEM_BOND_DEF_STEREO_COUNT>
0

> <PUBCHEM_BOND_UDEF_STEREO_COUNT>
0

> <PUBCHEM_ISOTOPIC_ATOM_COUNT>
0

> <PUBCHEM_COMPONENT_COUNT>
1

> <PUBCHEM_CACTVS_TAUTO_COUNT>
2

> <PUBCHEM_CONFORMER_ID>
00B0336B00000001

> <PUBCHEM_MMFF94_ENERGY>
93.8411

> <PUBCHEM_FEATURE_SELFOVERLAP>
65.988

> <PUBCHEM_SHAPE_FINGERPRINT>
10439779 11 17905597814209282034
10675989 125 18411135801581828641
11828042 226 16678091892059304829
12107183 9 18336814391261294618
12925494 130 17760930645849024497
13590594 115 17546457673967247242
13617811 41 18267007540068609291
13965767 371 18041551533895032478
14251764 38 18193274096530078509
144659 178 17904766931132543756
15082195 135 18194665004973021951
15320467 1 18410573963824937872
15322535 138 18410005503486621460
15400415 2 18411418453079865904
15419008 145 18264473131660471176
16067690 210 18044361962639644704
16992787 43 18411696626465480775
19246450 95 18193531443203415202
19611394 137 17537726868911536003
20567600 299 17977388226547165772
20764821 26 17401495844615079312
21133410 127 18114749218243321516
23559900 14 18052251800340926347
24893989 43 13297824661186429572
325973 47 17762336907629159712
3388396 114 18341032104204691871
437795 96 17908410708287753576
4756261 7 18054823700663233737
6371009 1 18339062844256095690
653340 110 18410288125420138156
6608658 132 18127120007870740351
6609424 69 14815901759984890193
7808743 9 18196087970377402482
7970288 3 8538684151916983106
9981440 41 18264211489999201746

> <PUBCHEM_SHAPE_MULTIPOLES>
625.85
12.07
9.23
0.91
3.55
2.32
-0.09
10.94
0.07
-0.88
-0.86
0.25
0.24
1.45

> <PUBCHEM_SHAPE_SELFOVERLAP>
1298.523

> <PUBCHEM_SHAPE_VOLUME>
352

> <PUBCHEM_COORDINATE_TYPE>
2
5
10

$$$$
