11545888
  -OEChem-03292013303D

 53 54  0     0  0  0  0  0  0999 V2000
   -0.0406    2.2964   -0.1893 O   0  0  0  0  0  0  0  0  0  0  0  0
    0.2607    0.5555    1.9572 O   0  0  0  0  0  0  0  0  0  0  0  0
    2.0528    2.5779   -1.9971 O   0  0  0  0  0  0  0  0  0  0  0  0
   -2.1346    2.6007    1.6132 O   0  0  0  0  0  0  0  0  0  0  0  0
    6.0825   -3.9418   -0.6134 O   0  0  0  0  0  0  0  0  0  0  0  0
   -6.1164   -3.9569    0.2630 O   0  0  0  0  0  0  0  0  0  0  0  0
    6.9656   -2.3222    0.7118 O   0  0  0  0  0  0  0  0  0  0  0  0
   -6.9995   -2.3550   -1.0834 O   0  0  0  0  0  0  0  0  0  0  0  0
    3.4978    0.1399    0.3113 C   0  0  0  0  0  0  0  0  0  0  0  0
    4.7618   -0.6309    0.4900 C   0  0  0  0  0  0  0  0  0  0  0  0
    1.1329    1.5810   -0.0234 C   0  0  0  0  0  0  0  0  0  0  0  0
   -3.5493    0.1316   -0.6812 C   0  0  0  0  0  0  0  0  0  0  0  0
   -4.8075   -0.6484   -0.8617 C   0  0  0  0  0  0  0  0  0  0  0  0
    2.4544   -0.0102    1.2248 C   0  0  0  0  0  0  0  0  0  0  0  0
    3.3587    1.0105   -0.7697 C   0  0  0  0  0  0  0  0  0  0  0  0
    1.2718    0.7103    1.0574 C   0  0  0  0  0  0  0  0  0  0  0  0
    2.1762    1.7311   -0.9370 C   0  0  0  0  0  0  0  0  0  0  0  0
   -1.1952    1.5901   -0.3435 C   0  0  0  0  0  0  0  0  0  0  0  0
    4.7572   -1.9948   -0.2107 C   0  0  0  0  0  0  0  0  0  0  0  0
   -2.2459    1.7427    0.5611 C   0  0  0  0  0  0  0  0  0  0  0  0
   -3.4230    1.0134    0.3920 C   0  0  0  0  0  0  0  0  0  0  0  0
   -2.4985   -0.0211   -1.5858 C   0  0  0  0  0  0  0  0  0  0  0  0
   -4.7998   -2.0057   -0.1483 C   0  0  0  0  0  0  0  0  0  0  0  0
   -1.3216    0.7083   -1.4169 C   0  0  0  0  0  0  0  0  0  0  0  0
    6.0426   -2.7490    0.0298 C   0  0  0  0  0  0  0  0  0  0  0  0
   -6.0790   -2.7699   -0.3910 C   0  0  0  0  0  0  0  0  0  0  0  0
    0.4840   -0.3540    3.0329 C   0  0  0  0  0  0  0  0  0  0  0  0
    3.1660    2.6727   -2.8836 C   0  0  0  0  0  0  0  0  0  0  0  0
   -3.2541    2.6980    2.4915 C   0  0  0  0  0  0  0  0  0  0  0  0
    5.6101   -0.0335    0.1284 H   0  0  0  0  0  0  0  0  0  0  0  0
    4.9561   -0.7668    1.5628 H   0  0  0  0  0  0  0  0  0  0  0  0
   -4.9901   -0.7965   -1.9350 H   0  0  0  0  0  0  0  0  0  0  0  0
   -5.6624   -0.0528   -0.5135 H   0  0  0  0  0  0  0  0  0  0  0  0
    2.6189   -0.7033    2.0431 H   0  0  0  0  0  0  0  0  0  0  0  0
    4.2020    1.0834   -1.4483 H   0  0  0  0  0  0  0  0  0  0  0  0
    3.9284   -2.6070    0.1626 H   0  0  0  0  0  0  0  0  0  0  0  0
    4.6348   -1.8596   -1.2913 H   0  0  0  0  0  0  0  0  0  0  0  0
   -4.2714    1.0880    1.0641 H   0  0  0  0  0  0  0  0  0  0  0  0
   -2.5846   -0.7048   -2.4262 H   0  0  0  0  0  0  0  0  0  0  0  0
   -4.6860   -1.8596    0.9318 H   0  0  0  0  0  0  0  0  0  0  0  0
   -3.9647   -2.6165   -0.5097 H   0  0  0  0  0  0  0  0  0  0  0  0
   -0.5176    0.5839   -2.1375 H   0  0  0  0  0  0  0  0  0  0  0  0
    0.6197   -1.3795    2.6728 H   0  0  0  0  0  0  0  0  0  0  0  0
    1.3060   -0.0242    3.6771 H   0  0  0  0  0  0  0  0  0  0  0  0
   -0.4219   -0.3516    3.6481 H   0  0  0  0  0  0  0  0  0  0  0  0
    4.0513    3.0745   -2.3792 H   0  0  0  0  0  0  0  0  0  0  0  0
    3.3663    1.7190   -3.3838 H   0  0  0  0  0  0  0  0  0  0  0  0
    2.8942    3.3895   -3.6656 H   0  0  0  0  0  0  0  0  0  0  0  0
   -2.9916    3.4242    3.2680 H   0  0  0  0  0  0  0  0  0  0  0  0
   -3.4519    1.7480    2.9998 H   0  0  0  0  0  0  0  0  0  0  0  0
   -4.1385    3.0894    1.9772 H   0  0  0  0  0  0  0  0  0  0  0  0
    6.9283   -4.4137   -0.4579 H   0  0  0  0  0  0  0  0  0  0  0  0
   -6.9582   -4.4353    0.1059 H   0  0  0  0  0  0  0  0  0  0  0  0
  1 11  1  0  0  0  0
  1 18  1  0  0  0  0
  2 16  1  0  0  0  0
  2 27  1  0  0  0  0
  3 17  1  0  0  0  0
  3 28  1  0  0  0  0
  4 20  1  0  0  0  0
  4 29  1  0  0  0  0
  5 25  1  0  0  0  0
  5 52  1  0  0  0  0
  6 26  1  0  0  0  0
  6 53  1  0  0  0  0
  7 25  2  0  0  0  0
  8 26  2  0  0  0  0
  9 10  1  0  0  0  0
  9 14  2  0  0  0  0
  9 15  1  0  0  0  0
 10 19  1  0  0  0  0
 10 30  1  0  0  0  0
 10 31  1  0  0  0  0
 11 16  2  0  0  0  0
 11 17  1  0  0  0  0
 12 13  1  0  0  0  0
 12 21  2  0  0  0  0
 12 22  1  0  0  0  0
 13 23  1  0  0  0  0
 13 32  1  0  0  0  0
 13 33  1  0  0  0  0
 14 16  1  0  0  0  0
 14 34  1  0  0  0  0
 15 17  2  0  0  0  0
 15 35  1  0  0  0  0
 18 20  2  0  0  0  0
 18 24  1  0  0  0  0
 19 25  1  0  0  0  0
 19 36  1  0  0  0  0
 19 37  1  0  0  0  0
 20 21  1  0  0  0  0
 21 38  1  0  0  0  0
 22 24  2  0  0  0  0
 22 39  1  0  0  0  0
 23 26  1  0  0  0  0
 23 40  1  0  0  0  0
 23 41  1  0  0  0  0
 24 42  1  0  0  0  0
 27 43  1  0  0  0  0
 27 44  1  0  0  0  0
 27 45  1  0  0  0  0
 28 46  1  0  0  0  0
 28 47  1  0  0  0  0
 28 48  1  0  0  0  0
 29 49  1  0  0  0  0
 29 50  1  0  0  0  0
 29 51  1  0  0  0  0
M  END
> <PUBCHEM_COMPOUND_CID>
11545888

> <PUBCHEM_CONFORMER_RMSD>
1

> <PUBCHEM_CONFORMER_DIVERSEORDER>
1
10
13
26
43
16
6
30
32
28
42
39
50
17
19
41
7
23
40
48
37
47
20
38
8
51
49
29
45
53
52
31
21
24
36
44
35
4
33
12
27
34
46
22
3
15
2
9
18
5
14
25
11

> <PUBCHEM_MMFF94_PARTIAL_CHARGES>
36
1 -0.17
10 0.14
11 0.08
12 -0.14
13 0.14
14 -0.15
15 -0.15
16 0.08
17 0.08
18 0.08
19 0.06
2 -0.36
20 0.08
21 -0.15
22 -0.15
23 0.06
24 -0.15
25 0.66
26 0.66
27 0.28
28 0.28
29 0.28
3 -0.36
34 0.15
35 0.15
38 0.15
39 0.15
4 -0.36
42 0.15
5 -0.65
52 0.5
53 0.5
6 -0.65
7 -0.57
8 -0.57
9 -0.14

> <PUBCHEM_EFFECTIVE_ROTOR_COUNT>
11

> <PUBCHEM_PHARMACOPHORE_FEATURES>
12
1 1 acceptor
1 2 acceptor
1 3 acceptor
1 4 acceptor
1 5 acceptor
1 6 acceptor
1 7 acceptor
1 8 acceptor
3 5 7 25 anion
3 6 8 26 anion
6 12 18 20 21 22 24 rings
6 9 11 14 15 16 17 rings

> <PUBCHEM_HEAVY_ATOM_COUNT>
29

> <PUBCHEM_ATOM_DEF_STEREO_COUNT>
0

> <PUBCHEM_ATOM_UDEF_STEREO_COUNT>
0

> <PUBCHEM_BOND_DEF_STEREO_COUNT>
0

> <PUBCHEM_BOND_UDEF_STEREO_COUNT>
0

> <PUBCHEM_ISOTOPIC_ATOM_COUNT>
0

> <PUBCHEM_COMPONENT_COUNT>
1

> <PUBCHEM_CACTVS_TAUTO_COUNT>
1

> <PUBCHEM_CONFORMER_ID>
00B02D2000000001

> <PUBCHEM_MMFF94_ENERGY>
104.2515

> <PUBCHEM_FEATURE_SELFOVERLAP>
61.033

> <PUBCHEM_SHAPE_FINGERPRINT>
10693767 8 18040709252269326738
11227688 84 17386854893760939538
117089 54 18411143545266458295
12788726 201 18128552633478604937
13009979 54 18342176648169335848
13383661 66 17970361523256471019
1361 4 18267300920880339514
14251764 30 18341889710142151563
15238133 3 12678906817031404987
17492 89 18411979173917996820
17909252 39 18194405712853640050
1813 80 18117855291689285796
19319366 153 17837210746156582524
19438510 23 10447925087803153318
19784866 240 18408601435532285389
20775438 99 17753885322697596618
21033648 29 15051455955473135457
21344244 181 17895475937929885219
21344244 246 18113903814608388380
22182313 1 15338570331538688632
22393880 68 17604130580753288477
23379529 103 18334577975034233762
238 59 16878211043833096585
2838139 119 8213554724521420646
3472631 163 10737280234459134579
3886686 26 17411073746434318663
46194498 28 17677041460175473030
474113 269 17917135175063026151
5104073 3 17704071797966320521
563151 248 18126303964484751649
636775 72 8645326326610963078
70251023 43 17894904135758475605
7970288 3 18340482365597708559

> <PUBCHEM_SHAPE_MULTIPOLES>
549.85
15.22
4.2
2.22
0.93
3.13
0.66
22.18
-2.73
0.15
-0.66
-0.13
-1.77
-3.14

> <PUBCHEM_SHAPE_SELFOVERLAP>
1157.245

> <PUBCHEM_SHAPE_VOLUME>
308.6

> <PUBCHEM_COORDINATE_TYPE>
2
5
10

$$$$
