11559764
  -OEChem-03292013303D

 43 46  0     1  0  0  0  0  0999 V2000
   -0.0171    0.7121    0.2629 O   0  0  0  0  0  0  0  0  0  0  0  0
    0.8513   -2.0322    0.2606 O   0  0  0  0  0  0  0  0  0  0  0  0
   -0.9788   -3.9696   -0.4045 O   0  0  0  0  0  0  0  0  0  0  0  0
    5.3649   -0.5789   -0.0704 O   0  0  0  0  0  0  0  0  0  0  0  0
   -4.5494    0.9636   -2.2255 O   0  0  0  0  0  0  0  0  0  0  0  0
   -5.2508    0.8468    2.5107 O   0  0  0  0  0  0  0  0  0  0  0  0
   -6.2162    1.3190   -0.0417 O   0  0  0  0  0  0  0  0  0  0  0  0
    7.5420    0.1096   -0.2488 O   0  0  0  0  0  0  0  0  0  0  0  0
   -0.8587   -0.3655    0.7096 C   0  0  2  0  0  0  0  0  0  0  0  0
   -0.5024   -1.6558   -0.0466 C   0  0  2  0  0  0  0  0  0  0  0  0
   -2.2895    0.0840    0.5090 C   0  0  0  0  0  0  0  0  0  0  0  0
   -1.3778   -2.8411    0.3516 C   0  0  0  0  0  0  0  0  0  0  0  0
    1.2998    0.3513    0.1665 C   0  0  0  0  0  0  0  0  0  0  0  0
    1.7213   -0.9799    0.1758 C   0  0  0  0  0  0  0  0  0  0  0  0
   -2.7722    0.3203   -0.7782 C   0  0  0  0  0  0  0  0  0  0  0  0
   -3.1257    0.2615    1.6111 C   0  0  0  0  0  0  0  0  0  0  0  0
    2.2318    1.3872    0.0468 C   0  0  0  0  0  0  0  0  0  0  0  0
    3.0797   -1.2839    0.1102 C   0  0  0  0  0  0  0  0  0  0  0  0
    3.5944    1.0909   -0.0341 C   0  0  0  0  0  0  0  0  0  0  0  0
    3.9979   -0.2411    0.0038 C   0  0  0  0  0  0  0  0  0  0  0  0
   -4.0913    0.7342   -0.9632 C   0  0  0  0  0  0  0  0  0  0  0  0
   -4.4448    0.6752    1.4259 C   0  0  0  0  0  0  0  0  0  0  0  0
   -4.9277    0.9116    0.1388 C   0  0  0  0  0  0  0  0  0  0  0  0
    4.6068    2.1265   -0.1519 C   0  0  0  0  0  0  0  0  0  0  0  0
    5.8992    1.7983   -0.2226 C   0  0  0  0  0  0  0  0  0  0  0  0
    6.3513    0.3952   -0.1840 C   0  0  0  0  0  0  0  0  0  0  0  0
   -5.1378   -0.1394   -2.9119 C   0  0  0  0  0  0  0  0  0  0  0  0
   -0.6613   -0.5007    1.7830 H   0  0  0  0  0  0  0  0  0  0  0  0
   -0.5491   -1.5158   -1.1355 H   0  0  0  0  0  0  0  0  0  0  0  0
   -2.4403   -2.6625    0.1647 H   0  0  0  0  0  0  0  0  0  0  0  0
   -1.2430   -3.0909    1.4089 H   0  0  0  0  0  0  0  0  0  0  0  0
   -2.1272    0.1938   -1.6441 H   0  0  0  0  0  0  0  0  0  0  0  0
   -2.7507    0.0773    2.6149 H   0  0  0  0  0  0  0  0  0  0  0  0
    1.8901    2.4197    0.0281 H   0  0  0  0  0  0  0  0  0  0  0  0
    3.4178   -2.3159    0.1300 H   0  0  0  0  0  0  0  0  0  0  0  0
   -1.1316   -3.7656   -1.3429 H   0  0  0  0  0  0  0  0  0  0  0  0
    4.2966    3.1651   -0.1816 H   0  0  0  0  0  0  0  0  0  0  0  0
    6.6603    2.5659   -0.3108 H   0  0  0  0  0  0  0  0  0  0  0  0
   -4.7476    0.6377    3.3163 H   0  0  0  0  0  0  0  0  0  0  0  0
   -6.6418    1.3871    0.8306 H   0  0  0  0  0  0  0  0  0  0  0  0
   -5.4579    0.2031   -3.8998 H   0  0  0  0  0  0  0  0  0  0  0  0
   -6.0133   -0.5091   -2.3689 H   0  0  0  0  0  0  0  0  0  0  0  0
   -4.4075   -0.9446   -3.0401 H   0  0  0  0  0  0  0  0  0  0  0  0
  1  9  1  0  0  0  0
  1 13  1  0  0  0  0
  2 10  1  0  0  0  0
  2 14  1  0  0  0  0
  3 12  1  0  0  0  0
  3 36  1  0  0  0  0
  4 20  1  0  0  0  0
  4 26  1  0  0  0  0
  5 21  1  0  0  0  0
  5 27  1  0  0  0  0
  6 22  1  0  0  0  0
  6 39  1  0  0  0  0
  7 23  1  0  0  0  0
  7 40  1  0  0  0  0
  8 26  2  0  0  0  0
  9 10  1  0  0  0  0
  9 11  1  0  0  0  0
  9 28  1  0  0  0  0
 10 12  1  0  0  0  0
 10 29  1  0  0  0  0
 11 15  1  0  0  0  0
 11 16  2  0  0  0  0
 12 30  1  0  0  0  0
 12 31  1  0  0  0  0
 13 14  2  0  0  0  0
 13 17  1  0  0  0  0
 14 18  1  0  0  0  0
 15 21  2  0  0  0  0
 15 32  1  0  0  0  0
 16 22  1  0  0  0  0
 16 33  1  0  0  0  0
 17 19  2  0  0  0  0
 17 34  1  0  0  0  0
 18 20  2  0  0  0  0
 18 35  1  0  0  0  0
 19 20  1  0  0  0  0
 19 24  1  0  0  0  0
 21 23  1  0  0  0  0
 22 23  2  0  0  0  0
 24 25  2  0  0  0  0
 24 37  1  0  0  0  0
 25 26  1  0  0  0  0
 25 38  1  0  0  0  0
 27 41  1  0  0  0  0
 27 42  1  0  0  0  0
 27 43  1  0  0  0  0
M  END
> <PUBCHEM_COMPOUND_CID>
11559764

> <PUBCHEM_CONFORMER_RMSD>
0.8

> <PUBCHEM_CONFORMER_DIVERSEORDER>
2
8
10
12
6
3
4
11
5
1
7
9

> <PUBCHEM_MMFF94_PARTIAL_CHARGES>
36
1 -0.36
10 0.28
11 -0.14
12 0.28
13 0.08
14 0.08
15 -0.15
16 -0.15
17 -0.15
18 -0.15
19 0.03
2 -0.36
20 0.08
21 0.08
22 0.08
23 0.08
24 -0.18
25 -0.14
26 0.71
27 0.28
3 -0.68
32 0.15
33 0.15
34 0.15
35 0.15
36 0.4
37 0.15
38 0.15
39 0.45
4 -0.23
40 0.45
5 -0.36
6 -0.53
7 -0.53
8 -0.57
9 0.42

> <PUBCHEM_EFFECTIVE_ROTOR_COUNT>
3.8

> <PUBCHEM_PHARMACOPHORE_FEATURES>
12
1 1 acceptor
1 2 acceptor
1 3 acceptor
1 3 donor
1 5 acceptor
1 6 donor
1 7 donor
1 8 acceptor
6 1 2 9 10 13 14 rings
6 11 15 16 21 22 23 rings
6 13 14 17 18 19 20 rings
6 4 19 20 24 25 26 rings

> <PUBCHEM_HEAVY_ATOM_COUNT>
27

> <PUBCHEM_ATOM_DEF_STEREO_COUNT>
2

> <PUBCHEM_ATOM_UDEF_STEREO_COUNT>
0

> <PUBCHEM_BOND_DEF_STEREO_COUNT>
0

> <PUBCHEM_BOND_UDEF_STEREO_COUNT>
0

> <PUBCHEM_ISOTOPIC_ATOM_COUNT>
0

> <PUBCHEM_COMPONENT_COUNT>
1

> <PUBCHEM_CACTVS_TAUTO_COUNT>
10

> <PUBCHEM_CONFORMER_ID>
00B0635400000002

> <PUBCHEM_MMFF94_ENERGY>
98.9291

> <PUBCHEM_FEATURE_SELFOVERLAP>
60.977

> <PUBCHEM_SHAPE_FINGERPRINT>
10 15 17530970219682001296
10554248 39 18411420614322894870
10906281 52 17987818370443158808
11089746 13 17775566455632034840
11315181 36 16917066680756874440
11796584 16 14045740408908340092
12236239 1 17632298943022043441
12403259 118 16660366995449435877
12403259 415 17967537839407786997
12788726 201 17489035838066844232
12969540 114 18334849515835348263
13583140 156 17240479225852944017
13911987 19 18408876322556476861
14790565 3 18341061717814988296
15183329 4 18342173363099213572
15196674 1 18266745856538373986
15238133 3 15285640958858543342
15461852 350 16153425078274493739
19304671 126 16449213308593347143
19489759 90 15554449587065587905
20505436 4 17560246804652962411
21033648 144 18269831077001745556
21033648 29 18113888377557481245
21033650 10 16843919428194735680
21236236 1 18340208604281963275
21756936 100 17846227648369581907
21792961 116 17894910677937373572
23402539 116 17917996078796033576
23559900 14 18200593717936677512
23569914 2 15795353834826583628
2838139 119 18341895190704920752
3004659 81 12319451070017787170
335352 9 18411142438012968342
34797466 226 14548728530073803672
34934 24 18334293180490564346
350125 39 18194971957216074475
4015057 19 17916863655050244056
474 4 18271528602721905419
4938544 92 13984650448179907335
5104073 3 18264205988952145496
57527293 21 17099221737739446561
59755656 215 18410862023793050452
59755656 520 18412266159691312371
633830 44 18130238038564081455
6669772 16 18340493270504167486

> <PUBCHEM_SHAPE_MULTIPOLES>
508.69
16.03
2.37
1.56
11.3
2.47
0.54
-8.56
2.38
0.25
0.12
-4.31
-0.38
-0.33

> <PUBCHEM_SHAPE_SELFOVERLAP>
1127.266

> <PUBCHEM_SHAPE_VOLUME>
271.4

> <PUBCHEM_COORDINATE_TYPE>
2
5
10

$$$$
