11561692
  -OEChem-03292013303D

 56 60  0     1  0  0  0  0  0999 V2000
    4.2282    0.2324    1.2710 S   0  0  0  0  0  0  0  0  0  0  0  0
    7.0580    1.1799    1.6698 F   0  0  0  0  0  0  0  0  0  0  0  0
    1.8154   -1.6590    1.0707 O   0  0  0  0  0  0  0  0  0  0  0  0
    0.5707   -3.7117   -1.6047 O   0  0  0  0  0  0  0  0  0  0  0  0
    2.5690   -4.4444    0.0850 O   0  0  0  0  0  0  0  0  0  0  0  0
   -7.0414    0.1029    1.0960 O   0  0  0  0  0  0  0  0  0  0  0  0
   -0.3084   -1.1888    0.1230 N   0  0  0  0  0  0  0  0  0  0  0  0
   -4.2458    1.1596   -0.3968 N   0  0  0  0  0  0  0  0  0  0  0  0
   -1.2356    0.8225   -0.1326 N   0  0  0  0  0  0  0  0  0  0  0  0
   -2.3038   -2.5738    0.0978 N   0  0  0  0  0  0  0  0  0  0  0  0
   -4.3170   -1.2227   -0.1809 N   0  0  0  0  0  0  0  0  0  0  0  0
   -5.6807    1.3005   -0.5200 C   0  0  1  0  0  0  0  0  0  0  0  0
    0.7298   -2.2023    0.2953 C   0  0  1  0  0  0  0  0  0  0  0  0
    1.3430   -2.6895   -1.0086 C   0  0  1  0  0  0  0  0  0  0  0  0
   -6.3219    1.3045    0.8751 C   0  0  1  0  0  0  0  0  0  0  0  0
    2.7033   -3.1688   -0.5416 C   0  0  1  0  0  0  0  0  0  0  0  0
   -6.0275    2.6567   -1.1471 C   0  0  0  0  0  0  0  0  0  0  0  0
    3.0654   -2.1350    0.5201 C   0  0  1  0  0  0  0  0  0  0  0  0
   -7.2543    2.5103    0.8865 C   0  0  0  0  0  0  0  0  0  0  0  0
   -6.5327    3.5141    0.0063 C   0  0  0  0  0  0  0  0  0  0  0  0
    3.8250   -0.9436   -0.0465 C   0  0  0  0  0  0  0  0  0  0  0  0
   -1.6551   -1.4010    0.0394 C   0  0  0  0  0  0  0  0  0  0  0  0
   -3.6068   -0.0573   -0.2342 C   0  0  0  0  0  0  0  0  0  0  0  0
   -2.2117   -0.1419   -0.1192 C   0  0  0  0  0  0  0  0  0  0  0  0
   -0.1062    0.1618    0.0151 C   0  0  0  0  0  0  0  0  0  0  0  0
   -3.6357   -2.3832   -0.0217 C   0  0  0  0  0  0  0  0  0  0  0  0
    5.0966    1.5065    0.3614 C   0  0  0  0  0  0  0  0  0  0  0  0
    6.4138    1.8187    0.6822 C   0  0  0  0  0  0  0  0  0  0  0  0
    4.4415    2.1781   -0.6661 C   0  0  0  0  0  0  0  0  0  0  0  0
    7.0828    2.8129   -0.0317 C   0  0  0  0  0  0  0  0  0  0  0  0
    5.1107    3.1721   -1.3799 C   0  0  0  0  0  0  0  0  0  0  0  0
    6.4314    3.4897   -1.0628 C   0  0  0  0  0  0  0  0  0  0  0  0
   -6.0805    0.5040   -1.1601 H   0  0  0  0  0  0  0  0  0  0  0  0
    0.2825   -3.0210    0.8726 H   0  0  0  0  0  0  0  0  0  0  0  0
    1.4611   -1.8700   -1.7278 H   0  0  0  0  0  0  0  0  0  0  0  0
    3.4399   -3.2666   -1.3441 H   0  0  0  0  0  0  0  0  0  0  0  0
   -5.5708    1.4022    1.6688 H   0  0  0  0  0  0  0  0  0  0  0  0
    3.6313   -2.6005    1.3364 H   0  0  0  0  0  0  0  0  0  0  0  0
   -6.8416    2.5205   -1.8705 H   0  0  0  0  0  0  0  0  0  0  0  0
   -5.1951    3.1317   -1.6762 H   0  0  0  0  0  0  0  0  0  0  0  0
   -7.4205    2.8890    1.8997 H   0  0  0  0  0  0  0  0  0  0  0  0
   -8.2349    2.2524    0.4682 H   0  0  0  0  0  0  0  0  0  0  0  0
   -7.1895    4.3203   -0.3323 H   0  0  0  0  0  0  0  0  0  0  0  0
   -5.6889    3.9595    0.5463 H   0  0  0  0  0  0  0  0  0  0  0  0
   -3.6726    1.9959   -0.3688 H   0  0  0  0  0  0  0  0  0  0  0  0
    3.2166   -0.4296   -0.7967 H   0  0  0  0  0  0  0  0  0  0  0  0
    4.7533   -1.2767   -0.5222 H   0  0  0  0  0  0  0  0  0  0  0  0
    0.8773    0.6103    0.0439 H   0  0  0  0  0  0  0  0  0  0  0  0
   -0.3027   -3.3382   -1.8113 H   0  0  0  0  0  0  0  0  0  0  0  0
    2.2280   -5.0605   -0.5858 H   0  0  0  0  0  0  0  0  0  0  0  0
   -7.4914    0.1861    1.9541 H   0  0  0  0  0  0  0  0  0  0  0  0
   -4.2440   -3.2806    0.0146 H   0  0  0  0  0  0  0  0  0  0  0  0
    3.4094    1.9559   -0.9243 H   0  0  0  0  0  0  0  0  0  0  0  0
    8.1111    3.0600    0.2154 H   0  0  0  0  0  0  0  0  0  0  0  0
    4.6028    3.7010   -2.1812 H   0  0  0  0  0  0  0  0  0  0  0  0
    6.9521    4.2642   -1.6182 H   0  0  0  0  0  0  0  0  0  0  0  0
  1 21  1  0  0  0  0
  1 27  1  0  0  0  0
  2 28  1  0  0  0  0
  3 13  1  0  0  0  0
  3 18  1  0  0  0  0
  4 14  1  0  0  0  0
  4 49  1  0  0  0  0
  5 16  1  0  0  0  0
  5 50  1  0  0  0  0
  6 15  1  0  0  0  0
  6 51  1  0  0  0  0
  7 13  1  0  0  0  0
  7 22  1  0  0  0  0
  7 25  1  0  0  0  0
  8 12  1  0  0  0  0
  8 23  1  0  0  0  0
  8 45  1  0  0  0  0
  9 24  1  0  0  0  0
  9 25  2  0  0  0  0
 10 22  2  0  0  0  0
 10 26  1  0  0  0  0
 11 23  1  0  0  0  0
 11 26  2  0  0  0  0
 12 15  1  0  0  0  0
 12 17  1  0  0  0  0
 12 33  1  0  0  0  0
 13 14  1  0  0  0  0
 13 34  1  0  0  0  0
 14 16  1  0  0  0  0
 14 35  1  0  0  0  0
 15 19  1  0  0  0  0
 15 37  1  0  0  0  0
 16 18  1  0  0  0  0
 16 36  1  0  0  0  0
 17 20  1  0  0  0  0
 17 39  1  0  0  0  0
 17 40  1  0  0  0  0
 18 21  1  0  0  0  0
 18 38  1  0  0  0  0
 19 20  1  0  0  0  0
 19 41  1  0  0  0  0
 19 42  1  0  0  0  0
 20 43  1  0  0  0  0
 20 44  1  0  0  0  0
 21 46  1  0  0  0  0
 21 47  1  0  0  0  0
 22 24  1  0  0  0  0
 23 24  2  0  0  0  0
 25 48  1  0  0  0  0
 26 52  1  0  0  0  0
 27 28  1  0  0  0  0
 27 29  2  0  0  0  0
 28 30  2  0  0  0  0
 29 31  1  0  0  0  0
 29 53  1  0  0  0  0
 30 32  1  0  0  0  0
 30 54  1  0  0  0  0
 31 32  2  0  0  0  0
 31 55  1  0  0  0  0
 32 56  1  0  0  0  0
M  END
> <PUBCHEM_COMPOUND_CID>
11561692

> <PUBCHEM_CONFORMER_RMSD>
1

> <PUBCHEM_CONFORMER_DIVERSEORDER>
1
428
343
377
337
265
257
160
341
353
203
434
371
282
396
422
412
49
280
198
414
106
111
389
253
185
409
260
105
317
382
310
262
25
340
423
351
362
295
229
259
223
397
370
247
344
319
322
429
67
407
124
302
419
348
323
308
290
266
267
27
366
19
264
332
307
256
401
217
293
196
329
150
112
393
218
289
165
413
387
127
408
24
251
378
242
252
137
368
40
204
142
356
171
57
87
69
286
333
82
416
420
427
80
355
233
433
240
170
350
102
277
324
77
336
236
34
296
60
194
173
314
306
132
390
175
205
287
315
2
421
129
404
195
163
288
181
99
235
186
227
239
435
216
313
301
411
190
193
188
291
161
120
354
269
149
109
380
299
81
131
215
172
192
155
425
384
347
432
325
321
79
392
358
214
367
431
151
374
376
64
275
270
263
225
415
100
383
16
4
331
297
61
58
200
126
369
292
284
345
228
207
274
104
330
6
232
46
395
386
334
162
339
279
56
359
202
316
89
174
335
243
167
254
145
33
381
180
418
168
7
88
76
361
54
364
237
365
182
398
199
271
136
391
166
278
328
273
219
363
342
90
115
5
372
176
245
327
39
357
119
184
138
373
95
285
375
86
338
15
144
303
394
360
220
326
309
294
169
118
222
400
178
93
305
55
402
388
11
28
249
276
272
78
83
134
63
346
197
311
44
417
187
157
65
224
312
51
320
206
101
12
281
164
37
430
125
116
300
210
212
91
135
154
128
352
177
268
230
117
399
133
114
221
156
426
84
45
147
72
43
208
405
304
123
20
21
159
98
70
32
403
85
244
158
74
10
108
94
298
238
241
261
248
73
97
17
47
231
283
92
183
107
36
103
71
68
75
379
13
53
246
110
139
96
122
62
209
234
50
48
250
30
191
29
406
52
152
258
22
3
130
18
146
31
410
153
349
66
318
38
255
14
35
179
143
148
226
113
59
141
121
42
23
189
26
8
9
41
424
140
211
385
213
201

> <PUBCHEM_MMFF94_PARTIAL_CHARGES>
39
1 -0.33
10 -0.57
11 -0.62
12 0.37
13 0.54
14 0.28
15 0.28
16 0.28
18 0.28
2 -0.19
21 0.23
22 0.11
23 0.41
24 0.23
25 0.04
26 0.47
27 0.1
28 0.19
29 -0.15
3 -0.56
30 -0.15
31 -0.15
32 -0.15
4 -0.68
45 0.4
48 0.15
49 0.4
5 -0.68
50 0.4
51 0.4
52 0.15
53 0.15
54 0.15
55 0.15
56 0.15
6 -0.68
7 0.05
8 -0.87
9 -0.57

> <PUBCHEM_EFFECTIVE_ROTOR_COUNT>
8

> <PUBCHEM_PHARMACOPHORE_FEATURES>
17
1 3 acceptor
1 4 acceptor
1 4 donor
1 5 acceptor
1 5 donor
1 6 acceptor
1 6 donor
1 8 cation
1 8 donor
3 10 11 26 cation
3 7 10 22 cation
3 7 9 25 cation
5 12 15 17 19 20 rings
5 3 13 14 16 18 rings
5 7 9 22 24 25 rings
6 10 11 22 23 24 26 rings
6 27 28 29 30 31 32 rings

> <PUBCHEM_HEAVY_ATOM_COUNT>
32

> <PUBCHEM_ATOM_DEF_STEREO_COUNT>
6

> <PUBCHEM_ATOM_UDEF_STEREO_COUNT>
0

> <PUBCHEM_BOND_DEF_STEREO_COUNT>
0

> <PUBCHEM_BOND_UDEF_STEREO_COUNT>
0

> <PUBCHEM_ISOTOPIC_ATOM_COUNT>
0

> <PUBCHEM_COMPONENT_COUNT>
1

> <PUBCHEM_CACTVS_TAUTO_COUNT>
3

> <PUBCHEM_CONFORMER_ID>
00B06ADC00000001

> <PUBCHEM_MMFF94_ENERGY>
77.6661

> <PUBCHEM_FEATURE_SELFOVERLAP>
86.892

> <PUBCHEM_SHAPE_FINGERPRINT>
10 15 18186522103388485577
10050765 1 18410012130716293115
10673678 19 18341336612690089896
10864689 126 18272932765397644144
10906281 52 18272374148754396707
12107183 9 18261939861518035018
12758862 56 17901383390288668530
12975358 362 18337404725425846921
1361 87 12895063080680441549
13944108 23 18340205194331462824
14117953 113 18410009923788580916
14251764 75 18410295843486496372
14294032 229 18198346358470491790
14340393 91 10447933845811019133
14394314 77 18189897685706961068
14790565 3 18266178525074946844
15198563 99 17551228906171302414
15400415 2 18412821387109023139
15439362 3 18411421722609573206
1577012 14 18261389010039508856
15840311 113 18263366898187226533
17980427 23 17968375766068465422
19053607 189 18339633534300065712
19302320 297 18259987076568530096
19309040 13 18272368663680181919
20715895 44 18410290316248396576
21298829 104 18409729586382312268
21585482 111 18261392208862256237
22033318 11 18041265635402531744
23559900 14 18267864978170282902
2748736 6 18410284830900361684
2838139 119 18198334255726859742
3411729 13 18335702719615303674
397830 11 18186812366042065049
4073 2 18335422366227041963
4093350 32 17703795777766802740
4169191 19 18408317787924855517
4408954 64 16738870811903306450
5104073 3 18040433278655222891
5109719 28 18336559277960409617
5219985 13 18340205293130904806
5265222 85 18124318469771234168
5364581 5 18187654613524556585
59682541 52 16917082044793714092
6898599 12 18272083929245773719

> <PUBCHEM_SHAPE_MULTIPOLES>
606.74
21.11
5.35
1.15
8.04
1.54
0
-28.65
3.17
-3.55
-1.6
-0.74
-0.23
-0.85

> <PUBCHEM_SHAPE_SELFOVERLAP>
1307.001

> <PUBCHEM_SHAPE_VOLUME>
339.1

> <PUBCHEM_COORDINATE_TYPE>
2
5
10

$$$$
