11567635
  -OEChem-03292013303D

 44 48  0     1  0  0  0  0  0999 V2000
    6.1393   -1.0049    0.6662 P   0  0  2  0  0  0  0  0  0  0  0  0
    2.7887    0.5718   -1.5657 O   0  0  0  0  0  0  0  0  0  0  0  0
    4.9535   -0.0324    1.2115 O   0  0  0  0  0  0  0  0  0  0  0  0
    6.1453   -0.8305   -0.9497 O   0  0  0  0  0  0  0  0  0  0  0  0
    3.3473    2.2473    1.1129 O   0  0  0  0  0  0  0  0  0  0  0  0
    5.5681   -2.5026    0.8953 O   0  0  0  0  0  0  0  0  0  0  0  0
    7.4743   -0.7683    1.3125 O   0  0  0  0  0  0  0  0  0  0  0  0
    0.6580    0.4432   -0.5087 N   0  0  0  0  0  0  0  0  0  0  0  0
   -0.8276   -1.2070   -0.7135 N   0  0  0  0  0  0  0  0  0  0  0  0
   -0.8207    2.2552    0.1479 N   0  0  0  0  0  0  0  0  0  0  0  0
   -3.1386    1.5034    0.2833 N   0  0  0  0  0  0  0  0  0  0  0  0
   -3.7873   -0.7519   -0.1858 N   0  0  0  0  0  0  0  0  0  0  0  0
    3.7659   -0.0297    0.4520 C   0  0  2  0  0  0  0  0  0  0  0  0
    4.0707    0.3500   -0.9818 C   0  0  1  0  0  0  0  0  0  0  0  0
    2.7225    1.0034    0.8100 C   0  0  2  0  0  0  0  0  0  0  0  0
    1.9504    1.1293   -0.5173 C   0  0  1  0  0  0  0  0  0  0  0  0
    4.9030   -0.7272   -1.6475 C   0  0  0  0  0  0  0  0  0  0  0  0
   -0.5574    0.9878   -0.2041 C   0  0  0  0  0  0  0  0  0  0  0  0
    0.4434   -0.8763   -0.8085 C   0  0  0  0  0  0  0  0  0  0  0  0
   -1.4645   -0.0513   -0.3365 C   0  0  0  0  0  0  0  0  0  0  0  0
   -2.7996    0.2423   -0.0775 C   0  0  0  0  0  0  0  0  0  0  0  0
   -2.1428    2.4180    0.3723 C   0  0  0  0  0  0  0  0  0  0  0  0
   -5.1851   -0.7400    0.0114 C   0  0  0  0  0  0  0  0  0  0  0  0
   -5.8373   -1.8941    0.4437 C   0  0  0  0  0  0  0  0  0  0  0  0
   -5.9118    0.4258   -0.2269 C   0  0  0  0  0  0  0  0  0  0  0  0
   -7.2185   -1.8823    0.6378 C   0  0  0  0  0  0  0  0  0  0  0  0
   -7.2930    0.4375   -0.0327 C   0  0  0  0  0  0  0  0  0  0  0  0
   -7.9463   -0.7166    0.3997 C   0  0  0  0  0  0  0  0  0  0  0  0
    3.3011   -1.0224    0.5031 H   0  0  0  0  0  0  0  0  0  0  0  0
    4.6391    1.2904   -1.0166 H   0  0  0  0  0  0  0  0  0  0  0  0
    2.1123    0.7158    1.6715 H   0  0  0  0  0  0  0  0  0  0  0  0
    1.7558    2.1745   -0.7847 H   0  0  0  0  0  0  0  0  0  0  0  0
    4.3969   -1.6983   -1.6489 H   0  0  0  0  0  0  0  0  0  0  0  0
    5.1072   -0.4677   -2.6909 H   0  0  0  0  0  0  0  0  0  0  0  0
    2.6398    2.8952    1.2725 H   0  0  0  0  0  0  0  0  0  0  0  0
    1.2428   -1.5505   -1.0846 H   0  0  0  0  0  0  0  0  0  0  0  0
    4.7136   -2.7643    0.4921 H   0  0  0  0  0  0  0  0  0  0  0  0
   -2.4505    3.4166    0.6634 H   0  0  0  0  0  0  0  0  0  0  0  0
   -3.4073   -1.6836   -0.3299 H   0  0  0  0  0  0  0  0  0  0  0  0
   -5.2814   -2.8087    0.6336 H   0  0  0  0  0  0  0  0  0  0  0  0
   -5.4450    1.3332   -0.5963 H   0  0  0  0  0  0  0  0  0  0  0  0
   -7.7273   -2.7809    0.9742 H   0  0  0  0  0  0  0  0  0  0  0  0
   -7.8614    1.3428   -0.2256 H   0  0  0  0  0  0  0  0  0  0  0  0
   -9.0220   -0.7080    0.5491 H   0  0  0  0  0  0  0  0  0  0  0  0
  1  3  1  0  0  0  0
  1  4  1  0  0  0  0
  1  6  1  0  0  0  0
  1  7  2  0  0  0  0
  2 14  1  0  0  0  0
  2 16  1  0  0  0  0
  3 13  1  0  0  0  0
  4 17  1  0  0  0  0
  5 15  1  0  0  0  0
  5 35  1  0  0  0  0
  6 37  1  0  0  0  0
  8 16  1  0  0  0  0
  8 18  1  0  0  0  0
  8 19  1  0  0  0  0
  9 19  2  0  0  0  0
  9 20  1  0  0  0  0
 10 18  2  0  0  0  0
 10 22  1  0  0  0  0
 11 21  1  0  0  0  0
 11 22  2  0  0  0  0
 12 21  1  0  0  0  0
 12 23  1  0  0  0  0
 12 39  1  0  0  0  0
 13 14  1  0  0  0  0
 13 15  1  0  0  0  0
 13 29  1  0  0  0  0
 14 17  1  0  0  0  0
 14 30  1  0  0  0  0
 15 16  1  0  0  0  0
 15 31  1  0  0  0  0
 16 32  1  0  0  0  0
 17 33  1  0  0  0  0
 17 34  1  0  0  0  0
 18 20  1  0  0  0  0
 19 36  1  0  0  0  0
 20 21  2  0  0  0  0
 22 38  1  0  0  0  0
 23 24  2  0  0  0  0
 23 25  1  0  0  0  0
 24 26  1  0  0  0  0
 24 40  1  0  0  0  0
 25 27  2  0  0  0  0
 25 41  1  0  0  0  0
 26 28  2  0  0  0  0
 26 42  1  0  0  0  0
 27 28  1  0  0  0  0
 27 43  1  0  0  0  0
 28 44  1  0  0  0  0
M  END
> <PUBCHEM_COMPOUND_CID>
11567635

> <PUBCHEM_CONFORMER_RMSD>
0.8

> <PUBCHEM_CONFORMER_DIVERSEORDER>
1
20
26
31
32
19
11
23
3
7
14
25
16
29
18
6
12
13
10
24
8
9
21
33
17
30
4
34
2
22
27
15
28
5

> <PUBCHEM_MMFF94_PARTIAL_CHARGES>
38
1 1.51
10 -0.57
11 -0.62
12 -0.6
13 0.28
14 0.28
15 0.28
16 0.54
17 0.28
18 0.11
19 0.04
2 -0.56
20 0.23
21 0.41
22 0.47
23 0.1
24 -0.15
25 -0.15
26 -0.15
27 -0.15
28 -0.15
3 -0.55
35 0.4
36 0.15
37 0.5
38 0.15
39 0.4
4 -0.55
40 0.15
41 0.15
42 0.15
43 0.15
44 0.15
5 -0.68
6 -0.77
7 -0.7
8 0.05
9 -0.57

> <PUBCHEM_EFFECTIVE_ROTOR_COUNT>
4.2

> <PUBCHEM_PHARMACOPHORE_FEATURES>
15
1 12 cation
1 12 donor
1 2 acceptor
1 5 acceptor
1 5 donor
1 6 acceptor
1 7 acceptor
3 10 11 22 cation
3 8 10 18 cation
3 8 9 19 cation
5 2 13 14 15 16 rings
5 8 9 18 19 20 rings
6 1 3 4 13 14 17 rings
6 10 11 18 20 21 22 rings
6 23 24 25 26 27 28 rings

> <PUBCHEM_HEAVY_ATOM_COUNT>
28

> <PUBCHEM_ATOM_DEF_STEREO_COUNT>
4

> <PUBCHEM_ATOM_UDEF_STEREO_COUNT>
0

> <PUBCHEM_BOND_DEF_STEREO_COUNT>
0

> <PUBCHEM_BOND_UDEF_STEREO_COUNT>
0

> <PUBCHEM_ISOTOPIC_ATOM_COUNT>
0

> <PUBCHEM_COMPONENT_COUNT>
1

> <PUBCHEM_CACTVS_TAUTO_COUNT>
3

> <PUBCHEM_CONFORMER_ID>
00B0821300000001

> <PUBCHEM_MMFF94_ENERGY>
63.3844

> <PUBCHEM_FEATURE_SELFOVERLAP>
76.828

> <PUBCHEM_SHAPE_FINGERPRINT>
10 15 17846493755652555248
10162869 55 16343691154455955669
10299344 5 17530685411731391603
106641 1 18413102880093323560
11135926 11 18412259511852299351
11646440 116 16988842769990450984
117089 54 18123757452780579418
11719270 70 18341897381207080263
11963148 33 18410571808105446063
12166972 35 17894635876512199205
12236239 1 18040156222983289237
12616971 3 17632570587177517837
13533116 47 18333167275977362130
13540713 4 17487067656249907301
13668630 136 16805323310216205627
13685833 64 18408882936821813282
13782708 43 18273218577546875511
13862211 1 18341331184600644151
13914758 101 17240763939525321589
14251764 18 18273214209860638216
15048467 5 11384115245646484211
15183329 4 15430031072286462561
15188451 53 18335419054247573944
15348495 7 17987797557158353563
15475509 35 18334845092626052746
16728300 4 18192980522768268690
18222031 100 17967818266476229501
19841028 212 17750225912399942210
20028762 73 18343306980614621967
2026 5 16372114518119355954
21150785 3 17312828194867368302
21267235 1 18412831278302252116
21781051 124 18261688050720570107
21792934 111 18202279208900504777
2215653 11 13840266991697899926
22224240 67 16200150993670547695
22956985 138 17974569092089137150
23035841 295 18333734624378168939
23522609 53 18045536120974013941
23559900 14 17313955249988992549
29717793 49 17022906744125643054
3004659 81 18113622317497386341
3178227 256 18202848768101426787
3383291 50 18412826897621084067
3472631 163 10087634918785072690
4340502 62 14764354833760872093
465052 167 18409171034115958919
5104073 3 17702391654015249595
59682541 52 14490463180088279016
59755656 215 18412269406597099727

> <PUBCHEM_SHAPE_MULTIPOLES>
519.96
21.52
2.04
1.13
12.56
0.33
0.12
-11.72
-4.51
0.36
-0.53
-1.96
-0.11
0.13

> <PUBCHEM_SHAPE_SELFOVERLAP>
1137.206

> <PUBCHEM_SHAPE_VOLUME>
282.2

> <PUBCHEM_COORDINATE_TYPE>
2
5
10

$$$$
