11561383
  -OEChem-03292013303D

 54 57  0     1  0  0  0  0  0999 V2000
   -4.2692    1.7087   -1.2545 S   0  0  0  0  0  0  0  0  0  0  0  0
    7.5145    1.9912    0.3783 F   0  0  0  0  0  0  0  0  0  0  0  0
    1.2992    1.2083    0.2201 O   0  0  0  0  0  0  0  0  0  0  0  0
   -5.7101    1.7877   -1.0979 O   0  0  0  0  0  0  0  0  0  0  0  0
   -3.6979    1.0693   -2.4249 O   0  0  0  0  0  0  0  0  0  0  0  0
   -5.7291    0.1890    1.8495 O   0  0  0  0  0  0  0  0  0  0  0  0
    3.4701   -2.2490   -0.9701 O   0  0  0  0  0  0  0  0  0  0  0  0
   -3.5741    1.0476    0.1792 N   0  0  1  0  0  0  0  0  0  0  0  0
    1.6915   -3.3864   -0.0436 N   0  0  0  0  0  0  0  0  0  0  0  0
   -3.3887   -1.7767   -0.3740 C   0  0  0  0  0  0  0  0  0  0  0  0
   -4.0489   -2.3469    0.8396 C   0  0  0  0  0  0  0  0  0  0  0  0
   -3.2982   -3.2432   -0.1012 C   0  0  0  0  0  0  0  0  0  0  0  0
   -2.1692   -0.9290   -0.2058 C   0  0  0  0  0  0  0  0  0  0  0  0
   -2.2844    0.4375    0.0621 C   0  0  0  0  0  0  0  0  0  0  0  0
   -0.9129   -1.5391   -0.3242 C   0  0  0  0  0  0  0  0  0  0  0  0
    0.2386   -0.7482   -0.1672 C   0  0  0  0  0  0  0  0  0  0  0  0
   -1.1529    1.2429    0.2224 C   0  0  0  0  0  0  0  0  0  0  0  0
    0.0817    0.6080    0.0996 C   0  0  0  0  0  0  0  0  0  0  0  0
    1.6397   -0.9737   -0.2098 C   0  0  0  0  0  0  0  0  0  0  0  0
   -3.9057    1.7034    1.4746 C   0  0  0  0  0  0  0  0  0  0  0  0
    2.2357    0.2426    0.0308 C   0  0  0  0  0  0  0  0  0  0  0  0
   -4.5237    0.6864    2.4165 C   0  0  0  0  0  0  0  0  0  0  0  0
   -3.6537    3.3790   -1.2063 C   0  0  0  0  0  0  0  0  0  0  0  0
    2.3352   -2.2053   -0.4504 C   0  0  0  0  0  0  0  0  0  0  0  0
    3.5973    0.6938    0.1206 C   0  0  0  0  0  0  0  0  0  0  0  0
    4.2635    1.1485   -1.0206 C   0  0  0  0  0  0  0  0  0  0  0  0
    4.2626    0.6801    1.3495 C   0  0  0  0  0  0  0  0  0  0  0  0
    5.5851    1.5861   -0.9336 C   0  0  0  0  0  0  0  0  0  0  0  0
    5.5842    1.1178    1.4366 C   0  0  0  0  0  0  0  0  0  0  0  0
    2.2741   -4.7010   -0.1902 C   0  0  0  0  0  0  0  0  0  0  0  0
    6.2455    1.5708    0.2950 C   0  0  0  0  0  0  0  0  0  0  0  0
   -4.0481   -1.5070   -1.1960 H   0  0  0  0  0  0  0  0  0  0  0  0
   -5.1295   -2.4205    0.8437 H   0  0  0  0  0  0  0  0  0  0  0  0
   -3.6058   -2.2068    1.8172 H   0  0  0  0  0  0  0  0  0  0  0  0
   -3.8802   -3.9069   -0.7317 H   0  0  0  0  0  0  0  0  0  0  0  0
   -2.4155   -3.7151    0.3107 H   0  0  0  0  0  0  0  0  0  0  0  0
   -0.8168   -2.5847   -0.5895 H   0  0  0  0  0  0  0  0  0  0  0  0
   -1.2114    2.3050    0.4290 H   0  0  0  0  0  0  0  0  0  0  0  0
   -4.6365    2.5026    1.3121 H   0  0  0  0  0  0  0  0  0  0  0  0
   -3.0265    2.1642    1.9348 H   0  0  0  0  0  0  0  0  0  0  0  0
   -3.8483   -0.1474    2.6161 H   0  0  0  0  0  0  0  0  0  0  0  0
   -4.7670    1.1535    3.3763 H   0  0  0  0  0  0  0  0  0  0  0  0
   -4.0471    3.8969   -2.0849 H   0  0  0  0  0  0  0  0  0  0  0  0
   -2.5649    3.3682   -1.2591 H   0  0  0  0  0  0  0  0  0  0  0  0
   -4.0032    3.8879   -0.3085 H   0  0  0  0  0  0  0  0  0  0  0  0
    0.8260   -3.3291    0.4814 H   0  0  0  0  0  0  0  0  0  0  0  0
    3.7633    1.1667   -1.9862 H   0  0  0  0  0  0  0  0  0  0  0  0
    3.7617    0.3299    2.2491 H   0  0  0  0  0  0  0  0  0  0  0  0
   -6.3224    0.9460    1.7072 H   0  0  0  0  0  0  0  0  0  0  0  0
    6.1004    1.9388   -1.8221 H   0  0  0  0  0  0  0  0  0  0  0  0
    6.0986    1.1060    2.3929 H   0  0  0  0  0  0  0  0  0  0  0  0
    2.9547   -4.8724    0.6475 H   0  0  0  0  0  0  0  0  0  0  0  0
    2.8276   -4.7652   -1.1303 H   0  0  0  0  0  0  0  0  0  0  0  0
    1.4713   -5.4414   -0.1749 H   0  0  0  0  0  0  0  0  0  0  0  0
  1  4  2  0  0  0  0
  1  5  2  0  0  0  0
  1  8  1  0  0  0  0
  1 23  1  0  0  0  0
  2 31  1  0  0  0  0
  3 18  1  0  0  0  0
  3 21  1  0  0  0  0
  6 22  1  0  0  0  0
  6 49  1  0  0  0  0
  7 24  2  0  0  0  0
  8 14  1  0  0  0  0
  8 20  1  0  0  0  0
  9 24  1  0  0  0  0
  9 30  1  0  0  0  0
  9 46  1  0  0  0  0
 10 11  1  0  0  0  0
 10 12  1  0  0  0  0
 10 13  1  0  0  0  0
 10 32  1  0  0  0  0
 11 12  1  0  0  0  0
 11 33  1  0  0  0  0
 11 34  1  0  0  0  0
 12 35  1  0  0  0  0
 12 36  1  0  0  0  0
 13 14  2  0  0  0  0
 13 15  1  0  0  0  0
 14 17  1  0  0  0  0
 15 16  2  0  0  0  0
 15 37  1  0  0  0  0
 16 18  1  0  0  0  0
 16 19  1  0  0  0  0
 17 18  2  0  0  0  0
 17 38  1  0  0  0  0
 19 21  2  0  0  0  0
 19 24  1  0  0  0  0
 20 22  1  0  0  0  0
 20 39  1  0  0  0  0
 20 40  1  0  0  0  0
 21 25  1  0  0  0  0
 22 41  1  0  0  0  0
 22 42  1  0  0  0  0
 23 43  1  0  0  0  0
 23 44  1  0  0  0  0
 23 45  1  0  0  0  0
 25 26  2  0  0  0  0
 25 27  1  0  0  0  0
 26 28  1  0  0  0  0
 26 47  1  0  0  0  0
 27 29  2  0  0  0  0
 27 48  1  0  0  0  0
 28 31  2  0  0  0  0
 28 50  1  0  0  0  0
 29 31  1  0  0  0  0
 29 51  1  0  0  0  0
 30 52  1  0  0  0  0
 30 53  1  0  0  0  0
 30 54  1  0  0  0  0
M  END
> <PUBCHEM_COMPOUND_CID>
11561383

> <PUBCHEM_CONFORMER_RMSD>
1

> <PUBCHEM_CONFORMER_DIVERSEORDER>
1
7
5
6
4
11
10
3
13
15
12
9
2
8
14

> <PUBCHEM_MMFF94_PARTIAL_CHARGES>
43
1 1.33
10 -0.07
11 -0.2
12 -0.2
13 -0.03
14 0.2
15 -0.15
17 -0.15
18 0.14
19 -0.09
2 -0.19
20 0.36
21 0.09
22 0.28
23 0.11
24 0.72
25 0.05
26 -0.15
27 -0.15
28 -0.15
29 -0.15
3 -0.28
30 0.3
31 0.19
32 0.1
33 0.1
34 0.1
35 0.1
36 0.1
37 0.15
38 0.15
4 -0.65
46 0.37
47 0.15
48 0.15
49 0.4
5 -0.65
50 0.15
51 0.15
6 -0.68
7 -0.57
8 -0.69
9 -0.73

> <PUBCHEM_EFFECTIVE_ROTOR_COUNT>
8.6

> <PUBCHEM_PHARMACOPHORE_FEATURES>
10
1 3 acceptor
1 4 acceptor
1 5 acceptor
1 6 acceptor
1 6 donor
1 7 acceptor
1 9 donor
5 3 16 18 19 21 rings
6 13 14 15 16 17 18 rings
6 25 26 27 28 29 31 rings

> <PUBCHEM_HEAVY_ATOM_COUNT>
31

> <PUBCHEM_ATOM_DEF_STEREO_COUNT>
0

> <PUBCHEM_ATOM_UDEF_STEREO_COUNT>
0

> <PUBCHEM_BOND_DEF_STEREO_COUNT>
0

> <PUBCHEM_BOND_UDEF_STEREO_COUNT>
0

> <PUBCHEM_ISOTOPIC_ATOM_COUNT>
0

> <PUBCHEM_COMPONENT_COUNT>
1

> <PUBCHEM_CACTVS_TAUTO_COUNT>
2

> <PUBCHEM_CONFORMER_ID>
00B069A700000001

> <PUBCHEM_MMFF94_ENERGY>
81.2047

> <PUBCHEM_FEATURE_SELFOVERLAP>
50.868

> <PUBCHEM_SHAPE_FINGERPRINT>
10 15 18114184150432574929
10290309 65 18411706452465015047
11135609 187 18341604877292014005
11135926 11 18342177735254588390
12107183 9 17898268534413135394
12236239 1 17968649528233523120
12390115 104 18202014256272156418
12403259 118 18114735045029974636
12422481 6 18040987407183329932
12930653 34 18410854386502980262
13140716 1 18199470042037170649
13540713 4 18336837394251868295
13583140 156 18201992257191346221
13631057 29 18199746019772103655
14790565 3 18267594687630854000
14856354 85 18117566342726077374
17980427 23 17458061607864867478
19377110 9 18040437736772805378
21033648 144 18343019956718908789
21033648 29 18041843879496961061
21236236 1 18340487875612838306
21279426 13 18272097085104861678
21756936 100 17704081681313835273
21796203 349 17476116460545807826
21859007 373 17244969450794211476
22149856 69 18192739816111216769
23559900 14 18268706104971459894
32027 91 18122906430621983798
3380486 145 18335993025620106145
350125 39 18267025144522571841
460360 51 18115582639308309115
469060 322 18264784323003790515
5104073 3 18413393129119053826
9981440 41 18335420209800096554

> <PUBCHEM_SHAPE_MULTIPOLES>
595.23
14.61
4.04
1.53
12.18
4.52
-0.33
-10.15
-2.3
-0.36
0.94
-1.83
-0.87
1.44

> <PUBCHEM_SHAPE_SELFOVERLAP>
1277.98

> <PUBCHEM_SHAPE_VOLUME>
336.1

> <PUBCHEM_COORDINATE_TYPE>
2
5
10

$$$$
