11567371
  -OEChem-03292013303D

 54 57  0     0  0  0  0  0  0999 V2000
    2.7955   -3.4611   -0.5545 S   0  0  0  0  0  0  0  0  0  0  0  0
    2.6509   -3.7755   -1.9624 O   0  0  0  0  0  0  0  0  0  0  0  0
    2.9579   -4.4995    0.4434 O   0  0  0  0  0  0  0  0  0  0  0  0
   -8.8497    0.0740   -0.7293 O   0  0  0  0  0  0  0  0  0  0  0  0
   -7.3170    1.6605   -1.2685 O   0  0  0  0  0  0  0  0  0  0  0  0
    0.0170    0.0646    0.4990 N   0  0  0  0  0  0  0  0  0  0  0  0
    2.0444    1.2726    0.4375 N   0  0  0  0  0  0  0  0  0  0  0  0
    4.1288    0.1332   -0.0021 N   0  0  0  0  0  0  0  0  0  0  0  0
   -2.8407    0.1150    0.9605 C   0  0  0  0  0  0  0  0  0  0  0  0
    4.1427    2.5784    0.3811 C   0  0  0  0  0  0  0  0  0  0  0  0
   -1.9024   -0.7432    1.8152 C   0  0  0  0  0  0  0  0  0  0  0  0
   -2.2482    0.2769   -0.4428 C   0  0  0  0  0  0  0  0  0  0  0  0
    3.4565    3.8194   -0.2268 C   0  0  0  0  0  0  0  0  0  0  0  0
    5.2947    2.8216   -0.6162 C   0  0  0  0  0  0  0  0  0  0  0  0
    4.8640    4.3032   -0.6339 C   0  0  0  0  0  0  0  0  0  0  0  0
   -0.4927   -0.1560    1.8592 C   0  0  0  0  0  0  0  0  0  0  0  0
   -0.8346    0.8567   -0.3945 C   0  0  0  0  0  0  0  0  0  0  0  0
    1.4062    0.0889    0.3270 C   0  0  0  0  0  0  0  0  0  0  0  0
   -4.2348   -0.5039    0.8947 C   0  0  0  0  0  0  0  0  0  0  0  0
    3.3817    1.2230    0.2636 C   0  0  0  0  0  0  0  0  0  0  0  0
    2.0579   -1.0938    0.0542 C   0  0  0  0  0  0  0  0  0  0  0  0
    3.4312   -1.0151   -0.1016 C   0  0  0  0  0  0  0  0  0  0  0  0
    1.4194   -2.4252   -0.0716 C   0  0  0  0  0  0  0  0  0  0  0  0
    4.1418   -2.2975   -0.3809 C   0  0  0  0  0  0  0  0  0  0  0  0
   -5.2332    0.3393    0.1040 C   0  0  0  0  0  0  0  0  0  0  0  0
   -6.6377   -0.2628    0.0618 C   0  0  0  0  0  0  0  0  0  0  0  0
   -7.5995    0.6062   -0.7164 C   0  0  0  0  0  0  0  0  0  0  0  0
   -2.9206    1.1076    1.4243 H   0  0  0  0  0  0  0  0  0  0  0  0
    4.4624    2.7629    1.4179 H   0  0  0  0  0  0  0  0  0  0  0  0
   -1.8553   -1.7609    1.4057 H   0  0  0  0  0  0  0  0  0  0  0  0
   -2.2914   -0.8272    2.8368 H   0  0  0  0  0  0  0  0  0  0  0  0
   -2.8545    0.9484   -1.0582 H   0  0  0  0  0  0  0  0  0  0  0  0
   -2.2226   -0.6960   -0.9506 H   0  0  0  0  0  0  0  0  0  0  0  0
    2.9243    4.4632    0.4786 H   0  0  0  0  0  0  0  0  0  0  0  0
    2.8036    3.6147   -1.0839 H   0  0  0  0  0  0  0  0  0  0  0  0
    6.3020    2.6299   -0.2368 H   0  0  0  0  0  0  0  0  0  0  0  0
    5.1797    2.3248   -1.5871 H   0  0  0  0  0  0  0  0  0  0  0  0
    0.1559   -0.8468    2.4117 H   0  0  0  0  0  0  0  0  0  0  0  0
   -0.4952    0.7953    2.4056 H   0  0  0  0  0  0  0  0  0  0  0  0
   -0.8625    1.8973   -0.0484 H   0  0  0  0  0  0  0  0  0  0  0  0
   -0.4211    0.8584   -1.4105 H   0  0  0  0  0  0  0  0  0  0  0  0
    5.3584    4.9165    0.1283 H   0  0  0  0  0  0  0  0  0  0  0  0
    4.9334    4.8082   -1.6003 H   0  0  0  0  0  0  0  0  0  0  0  0
   -4.6166   -0.6380    1.9148 H   0  0  0  0  0  0  0  0  0  0  0  0
   -4.1788   -1.5060    0.4501 H   0  0  0  0  0  0  0  0  0  0  0  0
    0.6638   -2.4574   -0.8597 H   0  0  0  0  0  0  0  0  0  0  0  0
    1.0299   -2.7854    0.8830 H   0  0  0  0  0  0  0  0  0  0  0  0
    4.7674   -2.5966    0.4626 H   0  0  0  0  0  0  0  0  0  0  0  0
    4.7070   -2.2580   -1.3139 H   0  0  0  0  0  0  0  0  0  0  0  0
   -5.2804    1.3471    0.5359 H   0  0  0  0  0  0  0  0  0  0  0  0
   -4.8968    0.4582   -0.9315 H   0  0  0  0  0  0  0  0  0  0  0  0
   -7.0236   -0.3704    1.0815 H   0  0  0  0  0  0  0  0  0  0  0  0
   -6.6046   -1.2487   -0.4144 H   0  0  0  0  0  0  0  0  0  0  0  0
   -9.4801    0.6341   -1.2304 H   0  0  0  0  0  0  0  0  0  0  0  0
  1  2  2  0  0  0  0
  1  3  2  0  0  0  0
  1 23  1  0  0  0  0
  1 24  1  0  0  0  0
  4 27  1  0  0  0  0
  4 54  1  0  0  0  0
  5 27  2  0  0  0  0
  6 16  1  0  0  0  0
  6 17  1  0  0  0  0
  6 18  1  0  0  0  0
  7 18  2  0  0  0  0
  7 20  1  0  0  0  0
  8 20  2  0  0  0  0
  8 22  1  0  0  0  0
  9 11  1  0  0  0  0
  9 12  1  0  0  0  0
  9 19  1  0  0  0  0
  9 28  1  0  0  0  0
 10 13  1  0  0  0  0
 10 14  1  0  0  0  0
 10 20  1  0  0  0  0
 10 29  1  0  0  0  0
 11 16  1  0  0  0  0
 11 30  1  0  0  0  0
 11 31  1  0  0  0  0
 12 17  1  0  0  0  0
 12 32  1  0  0  0  0
 12 33  1  0  0  0  0
 13 15  1  0  0  0  0
 13 34  1  0  0  0  0
 13 35  1  0  0  0  0
 14 15  1  0  0  0  0
 14 36  1  0  0  0  0
 14 37  1  0  0  0  0
 15 42  1  0  0  0  0
 15 43  1  0  0  0  0
 16 38  1  0  0  0  0
 16 39  1  0  0  0  0
 17 40  1  0  0  0  0
 17 41  1  0  0  0  0
 18 21  1  0  0  0  0
 19 25  1  0  0  0  0
 19 44  1  0  0  0  0
 19 45  1  0  0  0  0
 21 22  2  0  0  0  0
 21 23  1  0  0  0  0
 22 24  1  0  0  0  0
 23 46  1  0  0  0  0
 23 47  1  0  0  0  0
 24 48  1  0  0  0  0
 24 49  1  0  0  0  0
 25 26  1  0  0  0  0
 25 50  1  0  0  0  0
 25 51  1  0  0  0  0
 26 27  1  0  0  0  0
 26 52  1  0  0  0  0
 26 53  1  0  0  0  0
M  END
> <PUBCHEM_COMPOUND_CID>
11567371

> <PUBCHEM_CONFORMER_RMSD>
1

> <PUBCHEM_CONFORMER_DIVERSEORDER>
1
13
27
25
16
5
12
20
10
26
11
30
15
21
7
32
22
14
31
17
9
18
3
33
23
19
29
24
28
2
8
6
34
4

> <PUBCHEM_MMFF94_PARTIAL_CHARGES>
20
1 1.09
10 0.11
16 0.37
17 0.37
18 0.41
2 -0.65
20 0.51
21 -0.14
22 0.17
23 0.25
24 0.25
26 0.06
27 0.66
3 -0.65
4 -0.65
5 -0.57
54 0.5
6 -0.84
7 -0.62
8 -0.62

> <PUBCHEM_EFFECTIVE_ROTOR_COUNT>
8.4

> <PUBCHEM_PHARMACOPHORE_FEATURES>
11
1 2 acceptor
1 3 acceptor
1 4 acceptor
1 5 acceptor
3 4 5 27 anion
3 6 7 18 cation
3 7 8 20 cation
4 10 13 14 15 rings
5 1 21 22 23 24 rings
6 6 9 11 12 16 17 rings
6 7 8 18 20 21 22 rings

> <PUBCHEM_HEAVY_ATOM_COUNT>
27

> <PUBCHEM_ATOM_DEF_STEREO_COUNT>
0

> <PUBCHEM_ATOM_UDEF_STEREO_COUNT>
0

> <PUBCHEM_BOND_DEF_STEREO_COUNT>
0

> <PUBCHEM_BOND_UDEF_STEREO_COUNT>
0

> <PUBCHEM_ISOTOPIC_ATOM_COUNT>
0

> <PUBCHEM_COMPONENT_COUNT>
1

> <PUBCHEM_CACTVS_TAUTO_COUNT>
1

> <PUBCHEM_CONFORMER_ID>
00B0810B00000001

> <PUBCHEM_MMFF94_ENERGY>
66.7598

> <PUBCHEM_FEATURE_SELFOVERLAP>
56.115

> <PUBCHEM_SHAPE_FINGERPRINT>
10411042 1 18050004390543025538
10595046 47 18343584045429591529
10673678 19 18265618860445018013
10693767 8 17916602925451499054
10835480 77 18335420197226021361
11135609 127 18339352058938310621
11181472 205 18058460829256768289
11719270 70 18412821413316189986
12730499 353 18337684108382985026
12788726 201 16966068324179173362
13533116 47 18202281377731998867
13540713 4 18042424558690544747
13540713 5 17702402658085518009
14117953 113 18411421739599700700
14790565 3 17906176505218128708
15183329 4 18263362487413913115
15324884 4 17679335011245520987
19427546 62 18337109085281976970
20157964 124 18410856577194406665
20554085 129 17987505074243858496
20645477 70 18340488872130017282
20721686 124 18333726927686726314
20721686 146 17604997090738294084
21049683 118 17983275304693570400
21344244 78 17987503828412958402
23081809 10 17560804304292651649
23516275 100 17895468241486401357
23522609 53 17631192856849520505
23559900 14 18408892819394225978
23845131 108 18265052621015919274
255183 451 17914061902160344758
3004659 81 17988923315099510831
34797466 226 18408319974421326961
3534868 343 17987809513856883665
4073 2 18261957448971690795
4093350 32 18408039632799400957
44555599 121 18200883860152571777
46194498 28 18409726219116662413
59682541 52 18341045229972874703
6025842 7 18413109467876907574
6327066 14 18120659291048281100
6695519 79 17840886370546832379

> <PUBCHEM_SHAPE_MULTIPOLES>
521.08
17.39
4.81
1.22
46.91
1.29
0.18
-10.74
-6.27
-12.7
-1.69
0.74
0.39
1.1

> <PUBCHEM_SHAPE_SELFOVERLAP>
1085.824

> <PUBCHEM_SHAPE_VOLUME>
298.3

> <PUBCHEM_COORDINATE_TYPE>
2
5
10

$$$$
