11561674
  -OEChem-03292013303D

 56 58  0     1  0  0  0  0  0999 V2000
    0.6994    3.3483    1.8506 S   0  0  0  0  0  0  0  0  0  0  0  0
    1.8871    2.5377    1.6460 O   0  0  0  0  0  0  0  0  0  0  0  0
    0.5739    4.6515    1.2220 O   0  0  0  0  0  0  0  0  0  0  0  0
    0.3143   -0.6078    0.9385 O   0  0  0  0  0  0  0  0  0  0  0  0
    1.4369    2.7827   -2.0075 O   0  0  0  0  0  0  0  0  0  0  0  0
   -4.1929   -1.1993    1.1017 O   0  0  0  0  0  0  0  0  0  0  0  0
   -5.2214   -1.0745   -1.4777 O   0  0  0  0  0  0  0  0  0  0  0  0
    4.4740   -3.8774    0.3833 O   0  0  0  0  0  0  0  0  0  0  0  0
    0.5224    1.2950   -0.4269 N   0  0  0  0  0  0  0  0  0  0  0  0
    2.6635   -2.3791    0.5773 N   0  0  0  0  0  0  0  0  0  0  0  0
   -0.6977    1.9964   -0.0803 C   0  0  2  0  0  0  0  0  0  0  0  0
   -0.7107    2.3820    1.4003 C   0  0  0  0  0  0  0  0  0  0  0  0
   -1.9117    1.1707   -0.4520 C   0  0  0  0  0  0  0  0  0  0  0  0
    0.8903    0.0834    0.1189 C   0  0  0  0  0  0  0  0  0  0  0  0
    1.4434    1.7657   -1.3392 C   0  0  0  0  0  0  0  0  0  0  0  0
    2.1755   -0.2515   -0.4937 C   0  0  0  0  0  0  0  0  0  0  0  0
    2.5100    0.7657   -1.3753 C   0  0  0  0  0  0  0  0  0  0  0  0
   -2.4952    0.3605    0.5056 C   0  0  0  0  0  0  0  0  0  0  0  0
   -2.4093    1.2460   -1.7406 C   0  0  0  0  0  0  0  0  0  0  0  0
    2.9887   -1.3500   -0.3039 C   0  0  0  0  0  0  0  0  0  0  0  0
    0.4971    3.5740    3.6022 C   0  0  0  0  0  0  0  0  0  0  0  0
    3.6750    0.7382   -2.1138 C   0  0  0  0  0  0  0  0  0  0  0  0
   -3.6136   -0.3996    0.1633 C   0  0  0  0  0  0  0  0  0  0  0  0
   -3.5275    0.4856   -2.0830 C   0  0  0  0  0  0  0  0  0  0  0  0
    4.1750   -1.3992   -1.0415 C   0  0  0  0  0  0  0  0  0  0  0  0
   -4.1297   -0.3371   -1.1311 C   0  0  0  0  0  0  0  0  0  0  0  0
    4.5149   -0.3651   -1.9377 C   0  0  0  0  0  0  0  0  0  0  0  0
    3.3948   -3.5418    0.8603 C   0  0  0  0  0  0  0  0  0  0  0  0
   -3.3797   -2.2226    1.6725 C   0  0  0  0  0  0  0  0  0  0  0  0
   -4.9830   -2.3836   -1.9911 C   0  0  0  0  0  0  0  0  0  0  0  0
    2.6971   -4.4091    1.8779 C   0  0  0  0  0  0  0  0  0  0  0  0
   -4.2611   -3.3857    2.0750 C   0  0  0  0  0  0  0  0  0  0  0  0
   -0.7293    2.9294   -0.6593 H   0  0  0  0  0  0  0  0  0  0  0  0
   -0.6572    1.5228    2.0752 H   0  0  0  0  0  0  0  0  0  0  0  0
   -1.6020    2.9688    1.6488 H   0  0  0  0  0  0  0  0  0  0  0  0
   -2.1294    0.2819    1.5213 H   0  0  0  0  0  0  0  0  0  0  0  0
   -1.9458    1.8823   -2.4888 H   0  0  0  0  0  0  0  0  0  0  0  0
    0.5012    2.5961    4.0870 H   0  0  0  0  0  0  0  0  0  0  0  0
    1.3327    4.1754    3.9662 H   0  0  0  0  0  0  0  0  0  0  0  0
   -0.4453    4.0937    3.7838 H   0  0  0  0  0  0  0  0  0  0  0  0
    3.9363    1.5326   -2.8030 H   0  0  0  0  0  0  0  0  0  0  0  0
   -3.9242    0.5394   -3.0933 H   0  0  0  0  0  0  0  0  0  0  0  0
    4.8904   -2.2084   -0.9774 H   0  0  0  0  0  0  0  0  0  0  0  0
    5.4435   -0.4280   -2.4994 H   0  0  0  0  0  0  0  0  0  0  0  0
    1.7825   -2.2646    1.0736 H   0  0  0  0  0  0  0  0  0  0  0  0
   -2.8686   -1.8213    2.5544 H   0  0  0  0  0  0  0  0  0  0  0  0
   -2.6262   -2.5720    0.9556 H   0  0  0  0  0  0  0  0  0  0  0  0
   -4.4107   -2.9844   -1.2777 H   0  0  0  0  0  0  0  0  0  0  0  0
   -4.4494   -2.3261   -2.9450 H   0  0  0  0  0  0  0  0  0  0  0  0
   -5.9492   -2.8669   -2.1593 H   0  0  0  0  0  0  0  0  0  0  0  0
    2.6045   -3.8668    2.8230 H   0  0  0  0  0  0  0  0  0  0  0  0
    3.2753   -5.3219    2.0461 H   0  0  0  0  0  0  0  0  0  0  0  0
    1.7024   -4.6818    1.5140 H   0  0  0  0  0  0  0  0  0  0  0  0
   -3.6692   -4.1863    2.5274 H   0  0  0  0  0  0  0  0  0  0  0  0
   -5.0232   -3.0619    2.7915 H   0  0  0  0  0  0  0  0  0  0  0  0
   -4.7923   -3.7871    1.2059 H   0  0  0  0  0  0  0  0  0  0  0  0
  1  2  2  0  0  0  0
  1  3  2  0  0  0  0
  1 12  1  0  0  0  0
  1 21  1  0  0  0  0
  4 14  2  0  0  0  0
  5 15  2  0  0  0  0
  6 23  1  0  0  0  0
  6 29  1  0  0  0  0
  7 26  1  0  0  0  0
  7 30  1  0  0  0  0
  8 28  2  0  0  0  0
  9 11  1  0  0  0  0
  9 14  1  0  0  0  0
  9 15  1  0  0  0  0
 10 20  1  0  0  0  0
 10 28  1  0  0  0  0
 10 45  1  0  0  0  0
 11 12  1  0  0  0  0
 11 13  1  0  0  0  0
 11 33  1  0  0  0  0
 12 34  1  0  0  0  0
 12 35  1  0  0  0  0
 13 18  2  0  0  0  0
 13 19  1  0  0  0  0
 14 16  1  0  0  0  0
 15 17  1  0  0  0  0
 16 17  2  0  0  0  0
 16 20  1  0  0  0  0
 17 22  1  0  0  0  0
 18 23  1  0  0  0  0
 18 36  1  0  0  0  0
 19 24  2  0  0  0  0
 19 37  1  0  0  0  0
 20 25  2  0  0  0  0
 21 38  1  0  0  0  0
 21 39  1  0  0  0  0
 21 40  1  0  0  0  0
 22 27  2  0  0  0  0
 22 41  1  0  0  0  0
 23 26  2  0  0  0  0
 24 26  1  0  0  0  0
 24 42  1  0  0  0  0
 25 27  1  0  0  0  0
 25 43  1  0  0  0  0
 27 44  1  0  0  0  0
 28 31  1  0  0  0  0
 29 32  1  0  0  0  0
 29 46  1  0  0  0  0
 29 47  1  0  0  0  0
 30 48  1  0  0  0  0
 30 49  1  0  0  0  0
 30 50  1  0  0  0  0
 31 51  1  0  0  0  0
 31 52  1  0  0  0  0
 31 53  1  0  0  0  0
 32 54  1  0  0  0  0
 32 55  1  0  0  0  0
 32 56  1  0  0  0  0
M  END
> <PUBCHEM_COMPOUND_CID>
11561674

> <PUBCHEM_CONFORMER_RMSD>
1

> <PUBCHEM_CONFORMER_DIVERSEORDER>
1
59
38
33
43
56
66
7
20
23
46
30
65
53
37
51
57
39
32
41
61
47
17
21
27
22
55
14
44
49
54
40
63
67
50
48
18
12
60
13
64
25
34
10
16
29
58
62
26
52
8
35
19
42
45
2
9
28
68
24
5
15
3
4
6
11
31
36

> <PUBCHEM_MMFF94_PARTIAL_CHARGES>
38
1 1.09
10 -0.55
11 0.44
12 0.11
13 -0.14
14 0.54
15 0.54
16 0.09
17 0.09
18 -0.15
19 -0.15
2 -0.65
20 0.12
21 0.11
22 -0.15
23 0.08
24 -0.15
25 -0.15
26 0.08
27 -0.15
28 0.57
29 0.28
3 -0.65
30 0.28
31 0.06
36 0.15
37 0.15
4 -0.57
41 0.15
42 0.15
43 0.15
44 0.15
45 0.37
5 -0.57
6 -0.36
7 -0.36
8 -0.57
9 -0.42

> <PUBCHEM_EFFECTIVE_ROTOR_COUNT>
9.2

> <PUBCHEM_PHARMACOPHORE_FEATURES>
11
1 10 donor
1 2 acceptor
1 3 acceptor
1 4 acceptor
1 5 acceptor
1 6 acceptor
1 7 acceptor
1 8 acceptor
5 9 14 15 16 17 rings
6 13 18 19 23 24 26 rings
6 16 17 20 22 25 27 rings

> <PUBCHEM_HEAVY_ATOM_COUNT>
32

> <PUBCHEM_ATOM_DEF_STEREO_COUNT>
1

> <PUBCHEM_ATOM_UDEF_STEREO_COUNT>
0

> <PUBCHEM_BOND_DEF_STEREO_COUNT>
0

> <PUBCHEM_BOND_UDEF_STEREO_COUNT>
0

> <PUBCHEM_ISOTOPIC_ATOM_COUNT>
0

> <PUBCHEM_COMPONENT_COUNT>
1

> <PUBCHEM_CACTVS_TAUTO_COUNT>
4

> <PUBCHEM_CONFORMER_ID>
00B06ACA00000001

> <PUBCHEM_MMFF94_ENERGY>
103.1888

> <PUBCHEM_FEATURE_SELFOVERLAP>
55.941

> <PUBCHEM_SHAPE_FINGERPRINT>
10074138 170 17270602356861941297
10622 236 17900810566015112975
10928967 22 18341335595232156751
11552529 35 17693079778919344498
12160290 23 17411912677874860800
12549972 3 18341044212166482889
12553582 1 17988647363223259879
12788726 201 17983868782620669481
13009979 54 18124318199245836014
13383661 66 17833597622489510070
13911987 19 17461758170643185036
14747282 140 14447644490525230362
14787075 74 18200317735996557740
15163728 17 11170204090073329231
1813 80 17346331404813687205
20505436 4 17331452655307225596
20775438 99 17761176176392557223
20775530 9 18189898608633637170
23559900 14 17968936525999963709
23598288 3 18056505879569113985
46194498 28 16516550913159886055
463206 1 18411410688190249887
57527295 17 18411980269656857693
6376802 137 18054767521388818594
7970288 3 17918001559116593854
86090 222 17904493148489506043

> <PUBCHEM_SHAPE_MULTIPOLES>
611.35
9.47
5.5
2.82
5.61
0.87
0.97
10.89
-4.09
-3.5
5.33
0.47
-1.27
-0.29

> <PUBCHEM_SHAPE_SELFOVERLAP>
1304.251

> <PUBCHEM_SHAPE_VOLUME>
343

> <PUBCHEM_COORDINATE_TYPE>
2
5
10

$$$$
