11567473
  -OEChem-03292013303D

 48 52  0     1  0  0  0  0  0999 V2000
    1.3051   -3.0320   -0.3263 F   0  0  0  0  0  0  0  0  0  0  0  0
    5.5234   -0.0678    1.4459 O   0  0  0  0  0  0  0  0  0  0  0  0
   -3.7117   -2.6469   -0.2258 O   0  0  0  0  0  0  0  0  0  0  0  0
   -6.0192   -1.6912    0.5540 O   0  0  0  0  0  0  0  0  0  0  0  0
   -6.4480    0.3711   -0.3367 O   0  0  0  0  0  0  0  0  0  0  0  0
    2.2654   -0.5005   -0.0311 N   0  0  3  0  0  0  0  0  0  0  0  0
   -2.3398    1.1671    0.2151 N   0  0  0  0  0  0  0  0  0  0  0  0
    5.5920    0.1600   -1.4233 N   0  0  0  0  0  0  0  0  0  0  0  0
    1.0680    2.6913    0.3684 N   0  0  0  0  0  0  0  0  0  0  0  0
   -2.0099    2.6041    0.3836 C   0  0  0  0  0  0  0  0  0  0  0  0
    4.3797    0.2752   -0.6279 C   0  0  2  0  0  0  0  0  0  0  0  0
    4.5124   -0.6027    0.6085 C   0  0  2  0  0  0  0  0  0  0  0  0
   -1.7275    3.4625   -0.8012 C   0  0  0  0  0  0  0  0  0  0  0  0
   -2.9864    3.6594   -0.0085 C   0  0  0  0  0  0  0  0  0  0  0  0
    3.0725   -0.2304   -1.2306 C   0  0  0  0  0  0  0  0  0  0  0  0
    3.0982   -0.5453    1.1791 C   0  0  0  0  0  0  0  0  0  0  0  0
    0.9040   -0.7091   -0.0419 C   0  0  0  0  0  0  0  0  0  0  0  0
   -1.3865    0.1178    0.0802 C   0  0  0  0  0  0  0  0  0  0  0  0
    6.7244    0.6120   -0.5974 C   0  0  0  0  0  0  0  0  0  0  0  0
    6.7818   -0.1214    0.7520 C   0  0  0  0  0  0  0  0  0  0  0  0
   -0.0010    0.3473    0.0940 C   0  0  0  0  0  0  0  0  0  0  0  0
   -1.8335   -1.2124   -0.0749 C   0  0  0  0  0  0  0  0  0  0  0  0
   -3.6887    0.8700    0.1928 C   0  0  0  0  0  0  0  0  0  0  0  0
    0.4429   -2.0135   -0.1943 C   0  0  0  0  0  0  0  0  0  0  0  0
   -0.9257   -2.2699   -0.2112 C   0  0  0  0  0  0  0  0  0  0  0  0
   -4.2172   -0.3519    0.0518 C   0  0  0  0  0  0  0  0  0  0  0  0
   -3.2913   -1.5039   -0.0951 C   0  0  0  0  0  0  0  0  0  0  0  0
    0.5914    1.6464    0.2462 C   0  0  0  0  0  0  0  0  0  0  0  0
   -5.6749   -0.4852    0.0548 C   0  0  0  0  0  0  0  0  0  0  0  0
   -1.5206    2.8023    1.3323 H   0  0  0  0  0  0  0  0  0  0  0  0
    4.2463    1.3275   -0.3332 H   0  0  0  0  0  0  0  0  0  0  0  0
    4.7528   -1.6451    0.3505 H   0  0  0  0  0  0  0  0  0  0  0  0
   -0.9765    4.2385   -0.7225 H   0  0  0  0  0  0  0  0  0  0  0  0
   -1.8170    3.0267   -1.7890 H   0  0  0  0  0  0  0  0  0  0  0  0
   -3.8964    3.4704   -0.5632 H   0  0  0  0  0  0  0  0  0  0  0  0
   -3.0488    4.5424    0.6188 H   0  0  0  0  0  0  0  0  0  0  0  0
    2.6148    0.5220   -1.8813 H   0  0  0  0  0  0  0  0  0  0  0  0
    3.2126   -1.1571   -1.7992 H   0  0  0  0  0  0  0  0  0  0  0  0
    2.8884   -1.4303    1.7894 H   0  0  0  0  0  0  0  0  0  0  0  0
    2.9447    0.3458    1.7980 H   0  0  0  0  0  0  0  0  0  0  0  0
    5.5201    0.7437   -2.2557 H   0  0  0  0  0  0  0  0  0  0  0  0
    6.6269    1.6904   -0.4203 H   0  0  0  0  0  0  0  0  0  0  0  0
    7.6599    0.4531   -1.1435 H   0  0  0  0  0  0  0  0  0  0  0  0
    7.0669   -1.1718    0.6153 H   0  0  0  0  0  0  0  0  0  0  0  0
    7.5348    0.3436    1.3963 H   0  0  0  0  0  0  0  0  0  0  0  0
   -4.3583    1.7023    0.3674 H   0  0  0  0  0  0  0  0  0  0  0  0
   -1.2654   -3.2948   -0.3313 H   0  0  0  0  0  0  0  0  0  0  0  0
   -6.9917   -1.8186    0.5723 H   0  0  0  0  0  0  0  0  0  0  0  0
  1 24  1  0  0  0  0
  2 12  1  0  0  0  0
  2 20  1  0  0  0  0
  3 27  2  0  0  0  0
  4 29  1  0  0  0  0
  4 48  1  0  0  0  0
  5 29  2  0  0  0  0
  6 15  1  0  0  0  0
  6 16  1  0  0  0  0
  6 17  1  0  0  0  0
  7 10  1  0  0  0  0
  7 18  1  0  0  0  0
  7 23  1  0  0  0  0
  8 11  1  0  0  0  0
  8 19  1  0  0  0  0
  8 41  1  0  0  0  0
  9 28  3  0  0  0  0
 10 13  1  0  0  0  0
 10 14  1  0  0  0  0
 10 30  1  0  0  0  0
 11 12  1  0  0  0  0
 11 15  1  0  0  0  0
 11 31  1  0  0  0  0
 12 16  1  0  0  0  0
 12 32  1  0  0  0  0
 13 14  1  0  0  0  0
 13 33  1  0  0  0  0
 13 34  1  0  0  0  0
 14 35  1  0  0  0  0
 14 36  1  0  0  0  0
 15 37  1  0  0  0  0
 15 38  1  0  0  0  0
 16 39  1  0  0  0  0
 16 40  1  0  0  0  0
 17 21  1  0  0  0  0
 17 24  2  0  0  0  0
 18 21  2  0  0  0  0
 18 22  1  0  0  0  0
 19 20  1  0  0  0  0
 19 42  1  0  0  0  0
 19 43  1  0  0  0  0
 20 44  1  0  0  0  0
 20 45  1  0  0  0  0
 21 28  1  0  0  0  0
 22 25  2  0  0  0  0
 22 27  1  0  0  0  0
 23 26  2  0  0  0  0
 23 46  1  0  0  0  0
 24 25  1  0  0  0  0
 25 47  1  0  0  0  0
 26 27  1  0  0  0  0
 26 29  1  0  0  0  0
M  END
> <PUBCHEM_COMPOUND_CID>
11567473

> <PUBCHEM_CONFORMER_RMSD>
0.8

> <PUBCHEM_CONFORMER_DIVERSEORDER>
1
2

> <PUBCHEM_MMFF94_PARTIAL_CHARGES>
38
1 -0.19
10 0.07
11 0.27
12 0.28
13 -0.2
14 -0.2
15 0.37
16 0.37
17 0.1
18 0.1
19 0.27
2 -0.56
20 0.28
21 0.07
22 0.09
23 -0.05
24 0.19
25 -0.15
26 0.03
27 0.47
28 0.48
29 0.71
3 -0.57
30 0.1
33 0.1
34 0.1
35 0.1
36 0.1
4 -0.65
41 0.36
46 0.15
47 0.15
48 0.5
5 -0.57
6 -0.84
7 -0.37
8 -0.9
9 -0.56

> <PUBCHEM_EFFECTIVE_ROTOR_COUNT>
5

> <PUBCHEM_PHARMACOPHORE_FEATURES>
15
1 2 acceptor
1 26 anion
1 3 acceptor
1 4 acceptor
1 5 acceptor
1 6 cation
1 7 cation
1 8 cation
1 8 donor
1 9 acceptor
3 4 5 29 anion
5 6 11 12 15 16 rings
6 17 18 21 22 24 25 rings
6 2 8 11 12 19 20 rings
6 7 18 22 23 26 27 rings

> <PUBCHEM_HEAVY_ATOM_COUNT>
29

> <PUBCHEM_ATOM_DEF_STEREO_COUNT>
2

> <PUBCHEM_ATOM_UDEF_STEREO_COUNT>
0

> <PUBCHEM_BOND_DEF_STEREO_COUNT>
0

> <PUBCHEM_BOND_UDEF_STEREO_COUNT>
0

> <PUBCHEM_ISOTOPIC_ATOM_COUNT>
0

> <PUBCHEM_COMPONENT_COUNT>
1

> <PUBCHEM_CACTVS_TAUTO_COUNT>
1

> <PUBCHEM_CONFORMER_ID>
00B0817100000001

> <PUBCHEM_MMFF94_ENERGY>
111.0337

> <PUBCHEM_FEATURE_SELFOVERLAP>
76.642

> <PUBCHEM_SHAPE_FINGERPRINT>
10050765 1 18122344579794678319
10319926 262 18197476477944073354
10411042 1 18122906696862431135
10670039 82 18335997367747354668
10906281 52 18336282175318136035
1100329 8 18266457783664059395
11646440 116 18060147569237881859
11963148 33 18410005567943409547
12166972 35 17531248400096939220
12236239 1 17894910737597625090
12293681 4 18187655729899393371
12390115 104 18129671776753239753
12403259 415 17989196041354063896
12553582 1 18411410735581881567
12596602 18 17313105276024073802
12788726 201 18334854987771409425
12838862 33 18340189835691175837
12916748 109 18411703179957761750
13140716 1 18267018547684829547
13402501 40 18273494589446660808
14294032 229 18191878829223474469
14790565 3 18339653320824046697
14856354 85 18337396036231714151
15131766 46 16083078414745141894
15685185 35 17171822568237842932
16087824 20 18337954477672403789
17980427 23 17749966465613828764
20511986 3 17894618237313511876
21033648 29 17060043827242895682
21033650 10 18119837758351190132
21236236 1 18340205198172248969
21267235 1 18340211903386409315
21315764 268 18411693297386116056
21360443 126 18190453853996374573
21796203 349 17974885979360393097
22122407 14 15792027665849067196
22182313 1 18059581217596496038
22311459 1 18411418418961869419
23402539 116 18342171210777688711
23557571 272 18202010889181599524
23559900 14 18270676588178529017
283562 15 18339645542996469945
3004659 81 18334299803419643244
3178227 256 18337403724597382915
335352 9 18411416233603991045
3411729 13 18055626477011146240
34797466 226 17918001603084176060
350125 39 18410855464587289569
3633792 109 16805874105232870067
469060 322 18338814337580458817
5080951 261 17130395018063859462
5104073 3 18196373623887605762
5486654 2 18410857668153211431
59755656 215 18343581824192897703
7226269 152 18333447655800858659
7808743 9 18337953372905394664
9981440 41 18262242127065654738

> <PUBCHEM_SHAPE_MULTIPOLES>
546.13
14.48
3.24
0.93
10.94
2.09
-0.01
-1.45
0.46
-4.06
-0.28
1.2
0.06
-0.1

> <PUBCHEM_SHAPE_SELFOVERLAP>
1206.769

> <PUBCHEM_SHAPE_VOLUME>
293.3

> <PUBCHEM_COORDINATE_TYPE>
2
5
10

$$$$
