11560395
  -OEChem-03292013303D

 60 60  0     0  0  0  0  0  0999 V2000
    1.8825   -0.3632   -1.9113 O   0  0  0  0  0  0  0  0  0  0  0  0
    0.2337    1.9305   -1.9127 O   0  0  0  0  0  0  0  0  0  0  0  0
   -0.3452   -1.8825   -1.8894 O   0  0  0  0  0  0  0  0  0  0  0  0
   -1.9580    0.2148   -1.8876 O   0  0  0  0  0  0  0  0  0  0  0  0
    2.0598   -0.5501    0.9970 N   0  0  0  0  0  0  0  0  0  0  0  0
    0.5772    2.0398    0.9846 N   0  0  0  0  0  0  0  0  0  0  0  0
   -0.5342   -2.0282    1.0205 N   0  0  0  0  0  0  0  0  0  0  0  0
   -2.0168    0.5630    1.0108 N   0  0  0  0  0  0  0  0  0  0  0  0
    4.1080    0.1420   -1.6479 N   0  0  0  0  0  0  0  0  0  0  0  0
   -0.1654    4.1685   -1.5818 N   0  0  0  0  0  0  0  0  0  0  0  0
    0.1571   -4.1057   -1.6018 N   0  0  0  0  0  0  0  0  0  0  0  0
   -4.1891   -0.1879   -1.5166 N   0  0  0  0  0  0  0  0  0  0  0  0
    2.6285    0.6897    1.5583 C   0  0  0  0  0  0  0  0  0  0  0  0
    1.6829   -1.4997    2.0645 C   0  0  0  0  0  0  0  0  0  0  0  0
    1.5393    1.6676    2.0425 C   0  0  0  0  0  0  0  0  0  0  0  0
    0.7046   -2.5924    1.5887 C   0  0  0  0  0  0  0  0  0  0  0  0
   -0.6549    2.6132    1.5579 C   0  0  0  0  0  0  0  0  0  0  0  0
   -1.4841   -1.6393    2.0835 C   0  0  0  0  0  0  0  0  0  0  0  0
   -1.6282    1.5280    2.0603 C   0  0  0  0  0  0  0  0  0  0  0  0
   -2.5787   -0.6687    1.5964 C   0  0  0  0  0  0  0  0  0  0  0  0
    3.0155   -1.1592    0.0666 C   0  0  0  0  0  0  0  0  0  0  0  0
    1.1763    2.9893    0.0416 C   0  0  0  0  0  0  0  0  0  0  0  0
   -1.1438   -2.9932    0.1000 C   0  0  0  0  0  0  0  0  0  0  0  0
   -2.9840    1.1588    0.0836 C   0  0  0  0  0  0  0  0  0  0  0  0
    2.9182   -0.4280   -1.2527 C   0  0  0  0  0  0  0  0  0  0  0  0
    0.3747    2.9489   -1.2391 C   0  0  0  0  0  0  0  0  0  0  0  0
   -0.4116   -2.9110   -1.2196 C   0  0  0  0  0  0  0  0  0  0  0  0
   -2.9646    0.3551   -1.1963 C   0  0  0  0  0  0  0  0  0  0  0  0
    3.3056    0.4582    2.3917 H   0  0  0  0  0  0  0  0  0  0  0  0
    3.2501    1.2106    0.8223 H   0  0  0  0  0  0  0  0  0  0  0  0
    2.5797   -1.9765    2.4827 H   0  0  0  0  0  0  0  0  0  0  0  0
    1.2163   -0.9696    2.9010 H   0  0  0  0  0  0  0  0  0  0  0  0
    2.0192    2.5662    2.4531 H   0  0  0  0  0  0  0  0  0  0  0  0
    1.0190    1.2024    2.8860 H   0  0  0  0  0  0  0  0  0  0  0  0
    0.4716   -3.2616    2.4281 H   0  0  0  0  0  0  0  0  0  0  0  0
    1.2253   -3.2213    0.8588 H   0  0  0  0  0  0  0  0  0  0  0  0
   -1.1875    3.2332    0.8296 H   0  0  0  0  0  0  0  0  0  0  0  0
   -0.4112    3.2930    2.3858 H   0  0  0  0  0  0  0  0  0  0  0  0
   -0.9542   -1.1613    2.9137 H   0  0  0  0  0  0  0  0  0  0  0  0
   -1.9591   -2.5314    2.5135 H   0  0  0  0  0  0  0  0  0  0  0  0
   -1.1523    1.0099    2.8991 H   0  0  0  0  0  0  0  0  0  0  0  0
   -2.5199    2.0110    2.4819 H   0  0  0  0  0  0  0  0  0  0  0  0
   -3.2103   -1.2031    0.8797 H   0  0  0  0  0  0  0  0  0  0  0  0
   -3.2450   -0.4240    2.4348 H   0  0  0  0  0  0  0  0  0  0  0  0
    2.7702   -2.2000   -0.1694 H   0  0  0  0  0  0  0  0  0  0  0  0
    4.0359   -1.1614    0.4683 H   0  0  0  0  0  0  0  0  0  0  0  0
    2.1928    2.7063   -0.2510 H   0  0  0  0  0  0  0  0  0  0  0  0
    1.2367    4.0004    0.4618 H   0  0  0  0  0  0  0  0  0  0  0  0
   -2.1842   -2.7496   -0.1394 H   0  0  0  0  0  0  0  0  0  0  0  0
   -1.1473   -4.0092    0.5127 H   0  0  0  0  0  0  0  0  0  0  0  0
   -2.7079    2.1753   -0.2152 H   0  0  0  0  0  0  0  0  0  0  0  0
   -3.9877    1.2180    0.5215 H   0  0  0  0  0  0  0  0  0  0  0  0
    4.9564    0.0796   -1.0944 H   0  0  0  0  0  0  0  0  0  0  0  0
    4.1728    0.6575   -2.5193 H   0  0  0  0  0  0  0  0  0  0  0  0
   -0.0397    5.0021   -1.0168 H   0  0  0  0  0  0  0  0  0  0  0  0
   -0.7219    4.2719   -2.4238 H   0  0  0  0  0  0  0  0  0  0  0  0
    0.0933   -4.9480   -1.0392 H   0  0  0  0  0  0  0  0  0  0  0  0
    0.6731   -4.1804   -2.4722 H   0  0  0  0  0  0  0  0  0  0  0  0
   -5.0128   -0.0629   -0.9371 H   0  0  0  0  0  0  0  0  0  0  0  0
   -4.3062   -0.7461   -2.3557 H   0  0  0  0  0  0  0  0  0  0  0  0
  1 25  2  0  0  0  0
  2 26  2  0  0  0  0
  3 27  2  0  0  0  0
  4 28  2  0  0  0  0
  5 13  1  0  0  0  0
  5 14  1  0  0  0  0
  5 21  1  0  0  0  0
  6 15  1  0  0  0  0
  6 17  1  0  0  0  0
  6 22  1  0  0  0  0
  7 16  1  0  0  0  0
  7 18  1  0  0  0  0
  7 23  1  0  0  0  0
  8 19  1  0  0  0  0
  8 20  1  0  0  0  0
  8 24  1  0  0  0  0
  9 25  1  0  0  0  0
  9 53  1  0  0  0  0
  9 54  1  0  0  0  0
 10 26  1  0  0  0  0
 10 55  1  0  0  0  0
 10 56  1  0  0  0  0
 11 27  1  0  0  0  0
 11 57  1  0  0  0  0
 11 58  1  0  0  0  0
 12 28  1  0  0  0  0
 12 59  1  0  0  0  0
 12 60  1  0  0  0  0
 13 15  1  0  0  0  0
 13 29  1  0  0  0  0
 13 30  1  0  0  0  0
 14 16  1  0  0  0  0
 14 31  1  0  0  0  0
 14 32  1  0  0  0  0
 15 33  1  0  0  0  0
 15 34  1  0  0  0  0
 16 35  1  0  0  0  0
 16 36  1  0  0  0  0
 17 19  1  0  0  0  0
 17 37  1  0  0  0  0
 17 38  1  0  0  0  0
 18 20  1  0  0  0  0
 18 39  1  0  0  0  0
 18 40  1  0  0  0  0
 19 41  1  0  0  0  0
 19 42  1  0  0  0  0
 20 43  1  0  0  0  0
 20 44  1  0  0  0  0
 21 25  1  0  0  0  0
 21 45  1  0  0  0  0
 21 46  1  0  0  0  0
 22 26  1  0  0  0  0
 22 47  1  0  0  0  0
 22 48  1  0  0  0  0
 23 27  1  0  0  0  0
 23 49  1  0  0  0  0
 23 50  1  0  0  0  0
 24 28  1  0  0  0  0
 24 51  1  0  0  0  0
 24 52  1  0  0  0  0
M  END
> <PUBCHEM_COMPOUND_CID>
11560395

> <PUBCHEM_CONFORMER_RMSD>
1

> <PUBCHEM_CONFORMER_DIVERSEORDER>
1
8
37
20
6
24
16
31
9
47
41
46
4
14
26
19
32
44
42
30
38
10
17
5
45
28
33
48
39
3
43
23
35
15
12
18
11
25
29
7
21
22
40
34
13
27
2
36

> <PUBCHEM_MMFF94_PARTIAL_CHARGES>
36
1 -0.57
10 -0.8
11 -0.8
12 -0.8
13 0.27
14 0.27
15 0.27
16 0.27
17 0.27
18 0.27
19 0.27
2 -0.57
20 0.27
21 0.33
22 0.33
23 0.33
24 0.33
25 0.57
26 0.57
27 0.57
28 0.57
3 -0.57
4 -0.57
5 -0.81
53 0.37
54 0.37
55 0.37
56 0.37
57 0.37
58 0.37
59 0.37
6 -0.81
60 0.37
7 -0.81
8 -0.81
9 -0.8

> <PUBCHEM_EFFECTIVE_ROTOR_COUNT>
10.4

> <PUBCHEM_PHARMACOPHORE_FEATURES>
12
1 1 acceptor
1 10 donor
1 11 donor
1 12 donor
1 2 acceptor
1 3 acceptor
1 4 acceptor
1 5 cation
1 6 cation
1 7 cation
1 8 cation
1 9 donor

> <PUBCHEM_HEAVY_ATOM_COUNT>
28

> <PUBCHEM_ATOM_DEF_STEREO_COUNT>
0

> <PUBCHEM_ATOM_UDEF_STEREO_COUNT>
0

> <PUBCHEM_BOND_DEF_STEREO_COUNT>
0

> <PUBCHEM_BOND_UDEF_STEREO_COUNT>
0

> <PUBCHEM_ISOTOPIC_ATOM_COUNT>
0

> <PUBCHEM_COMPONENT_COUNT>
1

> <PUBCHEM_CACTVS_TAUTO_COUNT>
6

> <PUBCHEM_CONFORMER_ID>
00B065CB00000001

> <PUBCHEM_MMFF94_ENERGY>
75.0772

> <PUBCHEM_FEATURE_SELFOVERLAP>
60.925

> <PUBCHEM_SHAPE_FINGERPRINT>
12156800 1 14104214911179619339
15664445 248 17487871481302394553
17492 54 18333731308025028933
17980427 23 16601202485461179057
18981168 100 17534055556177060962
20600515 1 17913738821544923174
20905425 154 17686028640608719547
2818148 4 17337063801823417894
3060560 45 18048277203482099153
35225 105 18194376966996249402
70251023 43 17549264727648272775

> <PUBCHEM_SHAPE_MULTIPOLES>
512.9
4.64
4.61
2.73
0.09
0.18
0.01
-0.06
1.26
-0.02
1.26
-0.05
-0.03
0

> <PUBCHEM_SHAPE_SELFOVERLAP>
1012.414

> <PUBCHEM_SHAPE_VOLUME>
301.2

> <PUBCHEM_COORDINATE_TYPE>
2
5
10

$$$$
