11574162
  -OEChem-03292013303D

 44 46  0     1  0  0  0  0  0999 V2000
    0.7398    0.5463   -0.3077 O   0  0  0  0  0  0  0  0  0  0  0  0
   -0.2026   -0.1942    1.6941 O   0  0  0  0  0  0  0  0  0  0  0  0
    4.5441   -0.1450    1.0769 O   0  0  0  0  0  0  0  0  0  0  0  0
    4.1392    1.5521   -1.2278 O   0  0  0  0  0  0  0  0  0  0  0  0
    2.3027    0.1328    2.9689 O   0  0  0  0  0  0  0  0  0  0  0  0
    0.1660    1.8667   -2.6493 O   0  0  0  0  0  0  0  0  0  0  0  0
   -3.8276    2.0179   -0.2435 O   0  0  0  0  0  0  0  0  0  0  0  0
    1.4965   -2.9066   -1.4303 O   0  0  0  0  0  0  0  0  0  0  0  0
   -0.5080   -1.9201   -1.8920 O   0  0  0  0  0  0  0  0  0  0  0  0
    3.3631    0.6285    0.8588 C   0  0  1  0  0  0  0  0  0  0  0  0
    3.1329    0.7250   -0.6495 C   0  0  1  0  0  0  0  0  0  0  0  0
    2.1798   -0.0411    1.5575 C   0  0  2  0  0  0  0  0  0  0  0  0
    1.7549    1.3184   -0.9517 C   0  0  1  0  0  0  0  0  0  0  0  0
    0.8520    0.5724    1.1134 C   0  0  1  0  0  0  0  0  0  0  0  0
    1.4548    1.3164   -2.4473 C   0  0  0  0  0  0  0  0  0  0  0  0
   -1.3713   -0.2625    0.9867 C   0  0  0  0  0  0  0  0  0  0  0  0
   -2.0909    0.9063    0.6794 C   0  0  0  0  0  0  0  0  0  0  0  0
   -1.8781   -1.4958    0.5523 C   0  0  0  0  0  0  0  0  0  0  0  0
   -3.2744    0.7889   -0.0422 C   0  0  0  0  0  0  0  0  0  0  0  0
   -3.0712   -1.5715   -0.1709 C   0  0  0  0  0  0  0  0  0  0  0  0
   -1.9253    2.2947    0.9258 C   0  0  0  0  0  0  0  0  0  0  0  0
   -3.8018   -0.4222   -0.4867 C   0  0  0  0  0  0  0  0  0  0  0  0
   -1.1649   -2.7329    0.8474 C   0  0  0  0  0  0  0  0  0  0  0  0
   -3.0035    2.9227    0.3465 C   0  0  0  0  0  0  0  0  0  0  0  0
   -0.2040   -3.2801    0.0739 C   0  0  0  0  0  0  0  0  0  0  0  0
    0.1977   -2.6170   -1.1828 C   0  0  0  0  0  0  0  0  0  0  0  0
    3.5569    1.6180    1.2911 H   0  0  0  0  0  0  0  0  0  0  0  0
    3.2301   -0.2717   -1.0973 H   0  0  0  0  0  0  0  0  0  0  0  0
    2.1895   -1.1213    1.3693 H   0  0  0  0  0  0  0  0  0  0  0  0
    1.6838    2.3542   -0.5928 H   0  0  0  0  0  0  0  0  0  0  0  0
    0.7707    1.6010    1.4837 H   0  0  0  0  0  0  0  0  0  0  0  0
    1.4515    0.2996   -2.8540 H   0  0  0  0  0  0  0  0  0  0  0  0
    2.1777    1.9174   -3.0063 H   0  0  0  0  0  0  0  0  0  0  0  0
    5.2729    0.2985    0.6098 H   0  0  0  0  0  0  0  0  0  0  0  0
    4.0558    2.4408   -0.8419 H   0  0  0  0  0  0  0  0  0  0  0  0
    2.2993    1.0868    3.1569 H   0  0  0  0  0  0  0  0  0  0  0  0
   -0.4667    1.3273   -2.1448 H   0  0  0  0  0  0  0  0  0  0  0  0
   -3.4547   -2.5349   -0.5027 H   0  0  0  0  0  0  0  0  0  0  0  0
   -1.1326    2.7901    1.4665 H   0  0  0  0  0  0  0  0  0  0  0  0
   -4.7276   -0.4727   -1.0472 H   0  0  0  0  0  0  0  0  0  0  0  0
   -1.4351   -3.2221    1.7794 H   0  0  0  0  0  0  0  0  0  0  0  0
   -3.3149    3.9544    0.2729 H   0  0  0  0  0  0  0  0  0  0  0  0
    0.3132   -4.1817    0.3816 H   0  0  0  0  0  0  0  0  0  0  0  0
    1.8160   -2.4833   -2.2556 H   0  0  0  0  0  0  0  0  0  0  0  0
  1 13  1  0  0  0  0
  1 14  1  0  0  0  0
  2 14  1  0  0  0  0
  2 16  1  0  0  0  0
  3 10  1  0  0  0  0
  3 34  1  0  0  0  0
  4 11  1  0  0  0  0
  4 35  1  0  0  0  0
  5 12  1  0  0  0  0
  5 36  1  0  0  0  0
  6 15  1  0  0  0  0
  6 37  1  0  0  0  0
  7 19  1  0  0  0  0
  7 24  1  0  0  0  0
  8 26  1  0  0  0  0
  8 44  1  0  0  0  0
  9 26  2  0  0  0  0
 10 11  1  0  0  0  0
 10 12  1  0  0  0  0
 10 27  1  0  0  0  0
 11 13  1  0  0  0  0
 11 28  1  0  0  0  0
 12 14  1  0  0  0  0
 12 29  1  0  0  0  0
 13 15  1  0  0  0  0
 13 30  1  0  0  0  0
 14 31  1  0  0  0  0
 15 32  1  0  0  0  0
 15 33  1  0  0  0  0
 16 17  1  0  0  0  0
 16 18  2  0  0  0  0
 17 19  2  0  0  0  0
 17 21  1  0  0  0  0
 18 20  1  0  0  0  0
 18 23  1  0  0  0  0
 19 22  1  0  0  0  0
 20 22  2  0  0  0  0
 20 38  1  0  0  0  0
 21 24  2  0  0  0  0
 21 39  1  0  0  0  0
 22 40  1  0  0  0  0
 23 25  2  0  0  0  0
 23 41  1  0  0  0  0
 24 42  1  0  0  0  0
 25 26  1  0  0  0  0
 25 43  1  0  0  0  0
M  END
> <PUBCHEM_COMPOUND_CID>
11574162

> <PUBCHEM_CONFORMER_RMSD>
0.8

> <PUBCHEM_CONFORMER_DIVERSEORDER>
1
118
70
104
61
21
76
8
101
107
73
89
71
16
111
102
50
86
91
115
74
46
82
57
103
87
97
95
84
106
114
90
72
58
92
60
108
110
66
9
93
24
20
17
23
40
65
100
47
45
75
53
44
80
105
52
78
30
56
116
22
96
37
3
39
43
34
113
4
42
83
79
13
85
112
28
41
63
67
109
7
12
94
55
15
29
10
18
117
2
25
33
81
27
26
59
68
49
6
11
88
14
64
5
31
98
38
48
36
54
69
19
99
51
32
35
62
77

> <PUBCHEM_MMFF94_PARTIAL_CHARGES>
36
1 -0.56
10 0.28
11 0.28
12 0.28
13 0.28
14 0.56
15 0.28
16 0.08
18 0.03
19 0.14
2 -0.36
20 -0.15
21 -0.15
22 -0.15
23 -0.18
24 -0.01
25 -0.14
26 0.71
3 -0.68
34 0.4
35 0.4
36 0.4
37 0.4
38 0.15
39 0.15
4 -0.68
40 0.15
41 0.15
42 0.15
43 0.15
44 0.5
5 -0.68
6 -0.68
7 -0.28
8 -0.65
9 -0.57

> <PUBCHEM_EFFECTIVE_ROTOR_COUNT>
6.2

> <PUBCHEM_PHARMACOPHORE_FEATURES>
17
1 1 acceptor
1 2 acceptor
1 3 acceptor
1 3 donor
1 4 acceptor
1 4 donor
1 5 acceptor
1 5 donor
1 6 acceptor
1 6 donor
1 7 acceptor
1 8 acceptor
1 9 acceptor
3 8 9 26 anion
5 7 17 19 21 24 rings
6 1 10 11 12 13 14 rings
6 16 17 18 19 20 22 rings

> <PUBCHEM_HEAVY_ATOM_COUNT>
26

> <PUBCHEM_ATOM_DEF_STEREO_COUNT>
5

> <PUBCHEM_ATOM_UDEF_STEREO_COUNT>
0

> <PUBCHEM_BOND_DEF_STEREO_COUNT>
1

> <PUBCHEM_BOND_UDEF_STEREO_COUNT>
0

> <PUBCHEM_ISOTOPIC_ATOM_COUNT>
0

> <PUBCHEM_COMPONENT_COUNT>
1

> <PUBCHEM_CACTVS_TAUTO_COUNT>
1

> <PUBCHEM_CONFORMER_ID>
00B09B9200000001

> <PUBCHEM_MMFF94_ENERGY>
76.3493

> <PUBCHEM_FEATURE_SELFOVERLAP>
86.498

> <PUBCHEM_SHAPE_FINGERPRINT>
11370993 70 18343300340789620230
11582403 64 16052040123903392593
11640471 11 17749398112554417293
12156800 1 13969115456917905510
12422481 6 17903613226092412210
12467345 10 17315071301715173475
12788726 201 18118408577333353091
133893 2 17980215084164742299
13583140 156 17489008406342761040
14181834 199 17910113508396232899
14251764 3 17346590889652306776
15852999 172 18342462504038808947
16752209 62 18339632438671500227
16945 1 18337664325800712027
18981168 100 17899729815362616065
20645476 183 17823412884819348123
20691752 17 17751930112198293347
20905425 154 18202285758440748967
22907989 373 18196104449807766221
23419403 2 17187817858705865442
23559900 14 18130220463726510360
23598288 3 18189056567378511427
23598291 2 17967809492021073720
35225 105 18130217271980247076
5845 1 12995952940594814722
6992083 37 18040152924437888564
90525 40 18335710493321622923

> <PUBCHEM_SHAPE_MULTIPOLES>
482.24
6.28
3.4
2.13
2.05
1.8
0.32
-3.05
-0.48
-1.93
0.94
1.78
-0.35
-0.52

> <PUBCHEM_SHAPE_SELFOVERLAP>
1044.568

> <PUBCHEM_SHAPE_VOLUME>
262.1

> <PUBCHEM_COORDINATE_TYPE>
2
5
10

$$$$
