11574013
  -OEChem-03292013303D

 39 41  0     1  0  0  0  0  0999 V2000
    0.1905   -0.1089    1.7704 O   0  0  0  0  0  0  0  0  0  0  0  0
    2.8773   -0.6687   -0.5262 O   0  0  0  0  0  0  0  0  0  0  0  0
    1.5946   -2.7787    0.8332 O   0  0  0  0  0  0  0  0  0  0  0  0
    1.2063    2.2973    0.5052 O   0  0  0  0  0  0  0  0  0  0  0  0
    5.5932    1.4568   -1.3297 O   0  0  0  0  0  0  0  0  0  0  0  0
    5.3161   -0.8068   -1.1704 O   0  0  0  0  0  0  0  0  0  0  0  0
   -1.9297   -3.1986   -0.2016 O   0  0  0  0  0  0  0  0  0  0  0  0
   -4.9966    0.0095   -1.4191 O   0  0  0  0  0  0  0  0  0  0  0  0
   -4.8165    2.2636   -0.1139 O   0  0  0  0  0  0  0  0  0  0  0  0
   -2.6666    3.0367   -0.0116 O   0  0  0  0  0  0  0  0  0  0  0  0
   -1.5380   -0.9958    0.4685 N   0  0  0  0  0  0  0  0  0  0  0  0
   -3.4520   -1.5917   -0.8040 N   0  0  0  0  0  0  0  0  0  0  0  0
    1.5357    0.0544    1.3262 C   0  0  1  0  0  0  0  0  0  0  0  0
    1.5468   -0.5414   -0.0645 C   0  0  2  0  0  0  0  0  0  0  0  0
    0.7735   -1.8179    0.1772 C   0  0  2  0  0  0  0  0  0  0  0  0
    2.0643    1.4781    1.2938 C   0  0  1  0  0  0  0  0  0  0  0  0
   -0.3116   -1.3182    1.1447 C   0  0  1  0  0  0  0  0  0  0  0  0
    3.4648    1.4324    0.6606 C   0  0  0  0  0  0  0  0  0  0  0  0
    3.4819    0.6269   -0.6538 C   0  0  1  0  0  0  0  0  0  0  0  0
    4.8835    0.3316   -1.0740 C   0  0  0  0  0  0  0  0  0  0  0  0
   -1.9942    0.3180    0.4522 C   0  0  0  0  0  0  0  0  0  0  0  0
   -2.2742   -2.0151   -0.1765 C   0  0  0  0  0  0  0  0  0  0  0  0
   -3.1220    0.7079   -0.1515 C   0  0  0  0  0  0  0  0  0  0  0  0
   -3.9529   -0.2993   -0.8513 C   0  0  0  0  0  0  0  0  0  0  0  0
   -3.4742    2.1280   -0.0839 C   0  0  0  0  0  0  0  0  0  0  0  0
    0.9715    0.0704   -0.7740 H   0  0  0  0  0  0  0  0  0  0  0  0
    2.1848   -0.5116    2.0085 H   0  0  0  0  0  0  0  0  0  0  0  0
    0.4178   -2.2724   -0.7503 H   0  0  0  0  0  0  0  0  0  0  0  0
    2.1031    1.9131    2.2978 H   0  0  0  0  0  0  0  0  0  0  0  0
   -0.5305   -2.0513    1.9301 H   0  0  0  0  0  0  0  0  0  0  0  0
    4.1543    0.9688    1.3783 H   0  0  0  0  0  0  0  0  0  0  0  0
    3.8249    2.4505    0.4710 H   0  0  0  0  0  0  0  0  0  0  0  0
    2.9804    1.1662   -1.4664 H   0  0  0  0  0  0  0  0  0  0  0  0
    1.7024   -2.5310    1.7660 H   0  0  0  0  0  0  0  0  0  0  0  0
    0.3577    2.3623    0.9742 H   0  0  0  0  0  0  0  0  0  0  0  0
   -1.4068    1.0644    0.9689 H   0  0  0  0  0  0  0  0  0  0  0  0
   -3.9973   -2.3089   -1.2741 H   0  0  0  0  0  0  0  0  0  0  0  0
    6.5129    1.2555   -1.6055 H   0  0  0  0  0  0  0  0  0  0  0  0
   -5.0933    3.2038   -0.0703 H   0  0  0  0  0  0  0  0  0  0  0  0
  1 13  1  0  0  0  0
  1 17  1  0  0  0  0
  2 14  1  0  0  0  0
  2 19  1  0  0  0  0
  3 15  1  0  0  0  0
  3 34  1  0  0  0  0
  4 16  1  0  0  0  0
  4 35  1  0  0  0  0
  5 20  1  0  0  0  0
  5 38  1  0  0  0  0
  6 20  2  0  0  0  0
  7 22  2  0  0  0  0
  8 24  2  0  0  0  0
  9 25  1  0  0  0  0
  9 39  1  0  0  0  0
 10 25  2  0  0  0  0
 11 17  1  0  0  0  0
 11 21  1  0  0  0  0
 11 22  1  0  0  0  0
 12 22  1  0  0  0  0
 12 24  1  0  0  0  0
 12 37  1  0  0  0  0
 13 14  1  0  0  0  0
 13 16  1  0  0  0  0
 13 27  1  0  0  0  0
 14 15  1  0  0  0  0
 14 26  1  0  0  0  0
 15 17  1  0  0  0  0
 15 28  1  0  0  0  0
 16 18  1  0  0  0  0
 16 29  1  0  0  0  0
 17 30  1  0  0  0  0
 18 19  1  0  0  0  0
 18 31  1  0  0  0  0
 18 32  1  0  0  0  0
 19 20  1  0  0  0  0
 19 33  1  0  0  0  0
 21 23  2  0  0  0  0
 21 36  1  0  0  0  0
 23 24  1  0  0  0  0
 23 25  1  0  0  0  0
M  END
> <PUBCHEM_COMPOUND_CID>
11574013

> <PUBCHEM_CONFORMER_RMSD>
0.8

> <PUBCHEM_CONFORMER_DIVERSEORDER>
1
3
8
4
5
7
6
2

> <PUBCHEM_MMFF94_PARTIAL_CHARGES>
30
1 -0.56
10 -0.57
11 -0.47
12 -0.49
13 0.28
14 0.28
15 0.28
16 0.28
17 0.58
19 0.34
2 -0.56
20 0.66
21 -0.04
22 0.69
23 0.03
24 0.62
25 0.71
3 -0.68
34 0.4
35 0.4
36 0.15
37 0.37
38 0.5
39 0.5
4 -0.68
5 -0.65
6 -0.57
7 -0.57
8 -0.57
9 -0.65

> <PUBCHEM_EFFECTIVE_ROTOR_COUNT>
4.4

> <PUBCHEM_PHARMACOPHORE_FEATURES>
19
1 1 acceptor
1 10 acceptor
1 12 donor
1 2 acceptor
1 23 anion
1 3 acceptor
1 3 donor
1 4 acceptor
1 4 donor
1 5 acceptor
1 6 acceptor
1 7 acceptor
1 8 acceptor
1 9 acceptor
3 5 6 20 anion
3 9 10 25 anion
5 1 13 14 15 17 rings
6 11 12 21 22 23 24 rings
6 2 13 14 16 18 19 rings

> <PUBCHEM_HEAVY_ATOM_COUNT>
25

> <PUBCHEM_ATOM_DEF_STEREO_COUNT>
6

> <PUBCHEM_ATOM_UDEF_STEREO_COUNT>
0

> <PUBCHEM_BOND_DEF_STEREO_COUNT>
0

> <PUBCHEM_BOND_UDEF_STEREO_COUNT>
0

> <PUBCHEM_ISOTOPIC_ATOM_COUNT>
0

> <PUBCHEM_COMPONENT_COUNT>
1

> <PUBCHEM_CACTVS_TAUTO_COUNT>
3

> <PUBCHEM_CONFORMER_ID>
00B09AFD00000001

> <PUBCHEM_MMFF94_ENERGY>
75.8072

> <PUBCHEM_FEATURE_SELFOVERLAP>
97.006

> <PUBCHEM_SHAPE_FINGERPRINT>
10498660 4 18336814394864820421
10670039 82 18334293154193382900
10730089 88 18273221901709319637
10756046 5 18270683056394060206
11640471 11 17604133887862223499
12173636 292 18339910551073894431
12670546 177 18060139851128714702
12788726 201 17558554603895639313
12892183 10 12468628417843272991
13464514 151 18336832991867672362
13944108 23 17114662917942062429
13994607 96 17603877727596978121
14251757 17 18131077026028427228
14251764 75 18050292466515588333
14713325 29 18115324378360931747
14790565 3 17838630958750429713
14931854 50 18340482283935080901
15003188 33 18337121116007489604
15163728 17 17896345604471979622
15183329 4 17894632531434009238
15420108 30 16897935961077456176
15575132 122 17967810497408146085
18186145 218 18129948995680928874
18608769 82 18335429019004542395
18769570 83 17968095356982550612
19784866 240 14764352664807531919
200 152 16630256882524034826
20775438 99 16909143759403235295
20871999 31 18343022194196448485
21756936 100 17530973500767886360
21857420 4 15687811787634194327
22122407 14 15574711396111378453
221357 26 18201717379484784269
22182313 1 17986667280400086410
22393880 68 18343862225617662390
23557571 272 18049993691135328651
23559900 14 18202008725113804256
2637199 183 18409448051211982953
4028521 119 18335692871482134279
46194498 28 17845655970420363244
474 4 17675926495039106911
5252454 2 18264766571793737953
5283173 99 18340771524682258008
59755656 520 17095536071056107258
7808743 9 18261112958831039605
9709674 26 18128528448037784761

> <PUBCHEM_SHAPE_MULTIPOLES>
445.83
10.2
2.93
1.27
3.78
0.16
-0.12
-4.09
5.84
-2.14
-0.23
0.78
-0.01
-0.14

> <PUBCHEM_SHAPE_SELFOVERLAP>
967.761

> <PUBCHEM_SHAPE_VOLUME>
239.5

> <PUBCHEM_COORDINATE_TYPE>
2
5
10

$$$$
