11587035
  -OEChem-03292013303D

 30 31  0     0  0  0  0  0  0999 V2000
    1.3539   -2.4988   -0.2870 O   0  0  0  0  0  0  0  0  0  0  0  0
    3.2094    1.8699   -0.1907 O   0  0  0  0  0  0  0  0  0  0  0  0
    0.7367    2.9718    0.0349 O   0  0  0  0  0  0  0  0  0  0  0  0
   -1.1927   -2.8477    0.0881 O   0  0  0  0  0  0  0  0  0  0  0  0
   -1.7996    2.5790    0.2347 O   0  0  0  0  0  0  0  0  0  0  0  0
   -3.9189    1.0202   -0.0721 O   0  0  0  0  0  0  0  0  0  0  0  0
   -3.7618   -1.7307    0.0658 N   0  0  0  0  0  0  0  0  0  0  0  0
   -0.1597   -0.6216   -0.0462 C   0  0  0  0  0  0  0  0  0  0  0  0
    2.2585   -0.3206   -0.2323 C   0  0  0  0  0  0  0  0  0  0  0  0
   -0.2795    0.7751    0.0140 C   0  0  0  0  0  0  0  0  0  0  0  0
    1.1342   -1.1521   -0.1866 C   0  0  0  0  0  0  0  0  0  0  0  0
    2.1133    1.0596   -0.1467 C   0  0  0  0  0  0  0  0  0  0  0  0
    0.8427    1.6129   -0.0272 C   0  0  0  0  0  0  0  0  0  0  0  0
    3.6255   -0.9136   -0.3746 C   0  0  0  0  0  0  0  0  0  0  0  0
   -1.3691   -1.4734    0.0200 C   0  0  0  0  0  0  0  0  0  0  0  0
   -1.6171    1.3792    0.0996 C   0  0  0  0  0  0  0  0  0  0  0  0
   -2.6206   -0.9816    0.0257 C   0  0  0  0  0  0  0  0  0  0  0  0
   -2.8194    0.4900    0.0048 C   0  0  0  0  0  0  0  0  0  0  0  0
    4.2641   -1.2175    0.9758 C   0  0  0  0  0  0  0  0  0  0  0  0
    3.6124   -1.8137   -1.0008 H   0  0  0  0  0  0  0  0  0  0  0  0
    4.2792   -0.2260   -0.9267 H   0  0  0  0  0  0  0  0  0  0  0  0
    5.2598   -1.6491    0.8324 H   0  0  0  0  0  0  0  0  0  0  0  0
    3.6684   -1.9281    1.5577 H   0  0  0  0  0  0  0  0  0  0  0  0
    4.3750   -0.3072    1.5749 H   0  0  0  0  0  0  0  0  0  0  0  0
    2.1956   -2.7406    0.1296 H   0  0  0  0  0  0  0  0  0  0  0  0
    1.5412    3.3417    0.4342 H   0  0  0  0  0  0  0  0  0  0  0  0
    2.9508    2.7480   -0.5154 H   0  0  0  0  0  0  0  0  0  0  0  0
   -3.7001   -2.7409    0.0890 H   0  0  0  0  0  0  0  0  0  0  0  0
   -4.6661   -1.2759    0.0751 H   0  0  0  0  0  0  0  0  0  0  0  0
   -0.2824   -3.0449    0.3583 H   0  0  0  0  0  0  0  0  0  0  0  0
  1 11  1  0  0  0  0
  1 25  1  0  0  0  0
  2 12  1  0  0  0  0
  2 27  1  0  0  0  0
  3 13  1  0  0  0  0
  3 26  1  0  0  0  0
  4 15  1  0  0  0  0
  4 30  1  0  0  0  0
  5 16  2  0  0  0  0
  6 18  2  0  0  0  0
  7 17  1  0  0  0  0
  7 28  1  0  0  0  0
  7 29  1  0  0  0  0
  8 10  2  0  0  0  0
  8 11  1  0  0  0  0
  8 15  1  0  0  0  0
  9 11  2  0  0  0  0
  9 12  1  0  0  0  0
  9 14  1  0  0  0  0
 10 13  1  0  0  0  0
 10 16  1  0  0  0  0
 12 13  2  0  0  0  0
 14 19  1  0  0  0  0
 14 20  1  0  0  0  0
 14 21  1  0  0  0  0
 15 17  2  0  0  0  0
 16 18  1  0  0  0  0
 17 18  1  0  0  0  0
 19 22  1  0  0  0  0
 19 23  1  0  0  0  0
 19 24  1  0  0  0  0
M  END
> <PUBCHEM_COMPOUND_CID>
11587035

> <PUBCHEM_CONFORMER_RMSD>
0.6

> <PUBCHEM_CONFORMER_DIVERSEORDER>
1

> <PUBCHEM_MMFF94_PARTIAL_CHARGES>
24
1 -0.53
10 0.09
11 0.08
12 0.08
13 0.08
14 0.14
15 0.05
16 0.48
17 0.11
18 0.56
2 -0.53
25 0.45
26 0.45
27 0.45
28 0.4
29 0.4
3 -0.53
30 0.45
4 -0.53
5 -0.57
6 -0.57
7 -0.9
8 0.03
9 -0.14

> <PUBCHEM_EFFECTIVE_ROTOR_COUNT>
1

> <PUBCHEM_PHARMACOPHORE_FEATURES>
11
1 1 donor
1 19 hydrophobe
1 2 donor
1 3 donor
1 4 donor
1 5 acceptor
1 6 acceptor
1 7 cation
1 7 donor
6 8 10 15 16 17 18 rings
6 8 9 10 11 12 13 rings

> <PUBCHEM_HEAVY_ATOM_COUNT>
19

> <PUBCHEM_ATOM_DEF_STEREO_COUNT>
0

> <PUBCHEM_ATOM_UDEF_STEREO_COUNT>
0

> <PUBCHEM_BOND_DEF_STEREO_COUNT>
0

> <PUBCHEM_BOND_UDEF_STEREO_COUNT>
0

> <PUBCHEM_ISOTOPIC_ATOM_COUNT>
0

> <PUBCHEM_COMPONENT_COUNT>
1

> <PUBCHEM_CACTVS_TAUTO_COUNT>
983

> <PUBCHEM_CONFORMER_ID>
00B0CDDB00000001

> <PUBCHEM_MMFF94_ENERGY>
59.4524

> <PUBCHEM_FEATURE_SELFOVERLAP>
55.873

> <PUBCHEM_SHAPE_FINGERPRINT>
10062212 137 18410847759410445403
10608611 8 18411136969575614533
10967382 1 18267024964102011103
11132069 177 18341047419768015610
11471102 20 18411134783764100775
12251169 10 18336823105053274018
12382932 28 18268709411816001594
13140716 1 18411419531120827752
13380535 76 18340486664427143383
14178342 30 18125156039743086344
14790565 3 17907879313395732568
15196674 1 18410575110622845261
15375462 189 17895471419491862010
15442244 35 18410011048378317858
15536298 74 18342740745311275508
16945 1 18339932519140425783
17804303 29 18413109455097422714
1813 80 16807860816008934338
193761 8 18267024053463455796
200 152 18131058343015687319
20510252 161 18343867731438708017
21267235 1 18410583889399289959
21501502 16 18410577326641379708
221490 88 18336273451828140083
2334 1 18195249042524841446
23366157 5 17969501687882959356
23402539 116 18270104734736641711
23463225 33 18408603660762882444
23559900 14 18055069862086681918
238 59 16887475292875901405
2748010 2 18051415372475596005
335352 9 18338517439301873677
34934 24 18266451018985008119
5104073 3 18410858784665016897
57005193 9 18338507526422519039
7364860 26 18197781209520006840
8809292 202 18334299768442817115
9709674 26 18412832382193827942

> <PUBCHEM_SHAPE_MULTIPOLES>
350.81
6.23
2.96
0.66
1.06
0.43
0.05
-1.33
0.58
-0.36
0.05
0.3
-0.07
-0.22

> <PUBCHEM_SHAPE_SELFOVERLAP>
774.715

> <PUBCHEM_SHAPE_VOLUME>
187.8

> <PUBCHEM_COORDINATE_TYPE>
2
5
10

$$$$
