11588811
  -OEChem-03292013303D

 54 54  0     1  0  0  0  0  0999 V2000
   -0.0651    2.7060   -0.6353 P   0  0  0  0  0  0  0  0  0  0  0  0
    1.4860    2.5184   -1.0477 O   0  0  0  0  0  0  0  0  0  0  0  0
    4.2110    0.2003    1.2491 O   0  0  0  0  0  0  0  0  0  0  0  0
   -0.1714    1.8632    0.7407 O   0  0  0  0  0  0  0  0  0  0  0  0
   -0.1486    4.2425   -0.1378 O   0  0  0  0  0  0  0  0  0  0  0  0
   -1.0564    2.3194   -1.6936 O   0  0  0  0  0  0  0  0  0  0  0  0
    2.4657   -0.0805   -0.3001 N   0  0  0  0  0  0  0  0  0  0  0  0
    4.8749    2.6045    0.3870 N   0  0  0  0  0  0  0  0  0  0  0  0
   -2.3449   -1.8967   -0.6470 C   0  0  0  0  0  0  0  0  0  0  0  0
   -3.7144   -1.4933   -0.0919 C   0  0  0  0  0  0  0  0  0  0  0  0
   -2.0458   -3.3989   -0.6592 C   0  0  0  0  0  0  0  0  0  0  0  0
   -3.9236    0.0209   -0.0246 C   0  0  0  0  0  0  0  0  0  0  0  0
   -0.6882   -3.7433   -1.2769 C   0  0  0  0  0  0  0  0  0  0  0  0
   -5.2682    0.3660    0.6194 C   0  0  0  0  0  0  0  0  0  0  0  0
   -5.4947    1.8773    0.6582 C   0  0  0  0  0  0  0  0  0  0  0  0
    0.4491   -3.1675   -0.4712 C   0  0  0  0  0  0  0  0  0  0  0  0
    0.9312   -1.8905   -0.7589 C   0  0  0  0  0  0  0  0  0  0  0  0
    1.0189   -3.9117    0.5618 C   0  0  0  0  0  0  0  0  0  0  0  0
   -6.8448    2.2229    1.2661 C   0  0  0  0  0  0  0  0  0  0  0  0
    1.9829   -1.3579   -0.0134 C   0  0  0  0  0  0  0  0  0  0  0  0
    2.0706   -3.3791    1.3073 C   0  0  0  0  0  0  0  0  0  0  0  0
    2.5526   -2.1022    1.0197 C   0  0  0  0  0  0  0  0  0  0  0  0
    3.7283    1.9993   -0.2879 C   0  0  1  0  0  0  0  0  0  0  0  0
    3.5106    0.6159    0.3297 C   0  0  0  0  0  0  0  0  0  0  0  0
    2.4843    2.8650   -0.0934 C   0  0  0  0  0  0  0  0  0  0  0  0
   -1.5960   -1.3803   -0.0370 H   0  0  0  0  0  0  0  0  0  0  0  0
   -2.2503   -1.5029   -1.6669 H   0  0  0  0  0  0  0  0  0  0  0  0
   -4.4992   -1.9439   -0.7117 H   0  0  0  0  0  0  0  0  0  0  0  0
   -3.8239   -1.9172    0.9142 H   0  0  0  0  0  0  0  0  0  0  0  0
   -2.8283   -3.9097   -1.2333 H   0  0  0  0  0  0  0  0  0  0  0  0
   -2.1026   -3.7867    0.3655 H   0  0  0  0  0  0  0  0  0  0  0  0
   -3.1134    0.4790    0.5551 H   0  0  0  0  0  0  0  0  0  0  0  0
   -3.8747    0.4409   -1.0364 H   0  0  0  0  0  0  0  0  0  0  0  0
   -0.6366   -3.3789   -2.3106 H   0  0  0  0  0  0  0  0  0  0  0  0
   -0.5797   -4.8335   -1.3369 H   0  0  0  0  0  0  0  0  0  0  0  0
   -5.3040   -0.0378    1.6385 H   0  0  0  0  0  0  0  0  0  0  0  0
   -6.0779   -0.1114    0.0540 H   0  0  0  0  0  0  0  0  0  0  0  0
   -5.4431    2.2880   -0.3568 H   0  0  0  0  0  0  0  0  0  0  0  0
   -4.7015    2.3575    1.2430 H   0  0  0  0  0  0  0  0  0  0  0  0
    0.4917   -1.3116   -1.5683 H   0  0  0  0  0  0  0  0  0  0  0  0
    0.6506   -4.9067    0.7968 H   0  0  0  0  0  0  0  0  0  0  0  0
   -7.6614    1.7849    0.6831 H   0  0  0  0  0  0  0  0  0  0  0  0
   -6.9186    1.8525    2.2936 H   0  0  0  0  0  0  0  0  0  0  0  0
   -6.9852    3.3081    1.2851 H   0  0  0  0  0  0  0  0  0  0  0  0
    2.5124   -3.9592    2.1124 H   0  0  0  0  0  0  0  0  0  0  0  0
    3.3659   -1.7592    1.6434 H   0  0  0  0  0  0  0  0  0  0  0  0
    1.9971    0.3952   -1.0680 H   0  0  0  0  0  0  0  0  0  0  0  0
    3.9502    1.8686   -1.3535 H   0  0  0  0  0  0  0  0  0  0  0  0
    2.1009    2.7729    0.9291 H   0  0  0  0  0  0  0  0  0  0  0  0
    2.7224    3.9210   -0.2645 H   0  0  0  0  0  0  0  0  0  0  0  0
    5.7120    2.0541    0.1980 H   0  0  0  0  0  0  0  0  0  0  0  0
    5.0519    3.5299   -0.0023 H   0  0  0  0  0  0  0  0  0  0  0  0
   -1.0513    1.7425    1.1569 H   0  0  0  0  0  0  0  0  0  0  0  0
   -1.0219    4.6137    0.1110 H   0  0  0  0  0  0  0  0  0  0  0  0
  1  2  1  0  0  0  0
  1  4  1  0  0  0  0
  1  5  1  0  0  0  0
  1  6  2  0  0  0  0
  2 25  1  0  0  0  0
  3 24  2  0  0  0  0
  4 53  1  0  0  0  0
  5 54  1  0  0  0  0
  7 20  1  0  0  0  0
  7 24  1  0  0  0  0
  7 47  1  0  0  0  0
  8 23  1  0  0  0  0
  8 51  1  0  0  0  0
  8 52  1  0  0  0  0
  9 10  1  0  0  0  0
  9 11  1  0  0  0  0
  9 26  1  0  0  0  0
  9 27  1  0  0  0  0
 10 12  1  0  0  0  0
 10 28  1  0  0  0  0
 10 29  1  0  0  0  0
 11 13  1  0  0  0  0
 11 30  1  0  0  0  0
 11 31  1  0  0  0  0
 12 14  1  0  0  0  0
 12 32  1  0  0  0  0
 12 33  1  0  0  0  0
 13 16  1  0  0  0  0
 13 34  1  0  0  0  0
 13 35  1  0  0  0  0
 14 15  1  0  0  0  0
 14 36  1  0  0  0  0
 14 37  1  0  0  0  0
 15 19  1  0  0  0  0
 15 38  1  0  0  0  0
 15 39  1  0  0  0  0
 16 17  2  0  0  0  0
 16 18  1  0  0  0  0
 17 20  1  0  0  0  0
 17 40  1  0  0  0  0
 18 21  2  0  0  0  0
 18 41  1  0  0  0  0
 19 42  1  0  0  0  0
 19 43  1  0  0  0  0
 19 44  1  0  0  0  0
 20 22  2  0  0  0  0
 21 22  1  0  0  0  0
 21 45  1  0  0  0  0
 22 46  1  0  0  0  0
 23 24  1  0  0  0  0
 23 25  1  0  0  0  0
 23 48  1  0  0  0  0
 25 49  1  0  0  0  0
 25 50  1  0  0  0  0
M  END
> <PUBCHEM_COMPOUND_CID>
11588811

> <PUBCHEM_CONFORMER_RMSD>
1.2

> <PUBCHEM_CONFORMER_DIVERSEORDER>
4
79
2
82
68
28
5
119
115
77
23
136
6
137
104
112
15
39
67
91
37
140
33
72
7
55
83
135
57
92
118
48
25
44
117
80
121
96
73
75
99
46
126
8
88
14
145
42
11
94
109
123
101
43
19
35
122
84
98
62
116
12
60
95
134
139
105
86
59
20
32
54
107
74
41
71
90
65
30
114
132
113
110
27
36
106
24
81
131
102
130
26
45
17
47
76
13
61
53
52
66
50
85
128
70
100
97
120
142
51
40
18
34
125
89
69
29
144
58
63
64
103
93
111
56
9
108
49
38
141
22
87
10
124
127
78
133
143
16
3
129
1
138
31
21

> <PUBCHEM_MMFF94_PARTIAL_CHARGES>
27
1 1.51
13 0.14
16 -0.14
17 -0.15
18 -0.15
2 -0.55
20 0.12
21 -0.15
22 -0.15
23 0.33
24 0.57
25 0.28
3 -0.57
4 -0.77
40 0.15
41 0.15
45 0.15
46 0.15
47 0.37
5 -0.77
51 0.36
52 0.36
53 0.5
54 0.5
6 -0.7
7 -0.55
8 -0.99

> <PUBCHEM_EFFECTIVE_ROTOR_COUNT>
13

> <PUBCHEM_PHARMACOPHORE_FEATURES>
10
1 19 hydrophobe
1 3 acceptor
1 4 acceptor
1 5 acceptor
1 6 acceptor
1 7 donor
1 8 cation
1 8 donor
4 1 4 5 6 anion
6 16 17 18 20 21 22 rings

> <PUBCHEM_HEAVY_ATOM_COUNT>
25

> <PUBCHEM_ATOM_DEF_STEREO_COUNT>
1

> <PUBCHEM_ATOM_UDEF_STEREO_COUNT>
0

> <PUBCHEM_BOND_DEF_STEREO_COUNT>
0

> <PUBCHEM_BOND_UDEF_STEREO_COUNT>
0

> <PUBCHEM_ISOTOPIC_ATOM_COUNT>
0

> <PUBCHEM_COMPONENT_COUNT>
1

> <PUBCHEM_CACTVS_TAUTO_COUNT>
2

> <PUBCHEM_CONFORMER_ID>
00B0D4CB00000004

> <PUBCHEM_MMFF94_ENERGY>
4.5513

> <PUBCHEM_FEATURE_SELFOVERLAP>
50.78

> <PUBCHEM_SHAPE_FINGERPRINT>
10708813 3 18193837273963642991
1100329 8 18048311447335971620
11513181 2 17988648522738486087
12978246 48 18195250138284911939
13075007 39 17898320276258787585
14117953 113 18269274569108274093
14251764 75 18343027692255526977
14790565 3 18264211494283307356
15420108 30 18271801337435115087
15475509 84 17611458636447410914
16760501 71 18410865335318369763
21421861 104 18187919530737189984
21585483 110 18336260133931478421
245318 6 18262815050571057341
3388396 114 16687373483693181253
5047190 48 18410014304133139053
5283268 108 17976829675231475839
6433294 58 18265613169860984813
7064713 232 18270673276737436793

> <PUBCHEM_SHAPE_MULTIPOLES>
479.03
10.51
6.44
1.19
17.56
1.08
-0.01
-8.82
4.95
-2.29
-0.82
0.11
0.21
-1.89

> <PUBCHEM_SHAPE_SELFOVERLAP>
935.08

> <PUBCHEM_SHAPE_VOLUME>
288.2

> <PUBCHEM_COORDINATE_TYPE>
2
5
10

$$$$
