11583423
  -OEChem-03292013303D

 60 63  0     1  0  0  0  0  0999 V2000
    6.9712    0.4250    0.3572 S   0  0  0  0  0  0  0  0  0  0  0  0
   -6.3127   -0.7711    1.0027 S   0  0  0  0  0  0  0  0  0  0  0  0
    5.3665    0.5773    0.6516 O   0  0  0  0  0  0  0  0  0  0  0  0
    7.3233   -0.9804    0.4475 O   0  0  0  0  0  0  0  0  0  0  0  0
    7.2647    1.1705   -0.8533 O   0  0  0  0  0  0  0  0  0  0  0  0
   -5.5590    0.0882   -0.1731 O   0  0  0  0  0  0  0  0  0  0  0  0
   -6.0287   -0.1435    2.2806 O   0  0  0  0  0  0  0  0  0  0  0  0
   -6.0345   -2.1798    0.7887 O   0  0  0  0  0  0  0  0  0  0  0  0
    7.7138    1.2462    1.6664 N   0  0  0  0  0  0  0  0  0  0  0  0
   -7.9764   -0.5195    0.6660 N   0  0  0  0  0  0  0  0  0  0  0  0
    2.9697    0.1824    0.2269 C   0  0  1  0  0  0  0  0  0  0  0  0
    2.2937   -0.8752   -0.6687 C   0  0  2  0  0  0  0  0  0  0  0  0
    0.7956   -0.9946   -0.3903 C   0  0  1  0  0  0  0  0  0  0  0  0
    0.1200    0.3760   -0.6989 C   0  0  2  0  0  0  0  0  0  0  0  0
    4.4274    0.0095   -0.2407 C   0  0  2  0  0  0  0  0  0  0  0  0
    2.3472    1.5469   -0.0932 C   0  0  0  0  0  0  0  0  0  0  0  0
    3.1854   -2.1027   -0.5037 C   0  0  0  0  0  0  0  0  0  0  0  0
    0.8152    1.5310    0.0712 C   0  0  0  0  0  0  0  0  0  0  0  0
    4.6021   -1.5173   -0.3594 C   0  0  0  0  0  0  0  0  0  0  0  0
    0.1257   -2.0804   -1.2344 C   0  0  0  0  0  0  0  0  0  0  0  0
    2.8568   -0.0869    1.7494 C   0  0  0  0  0  0  0  0  0  0  0  0
   -1.3939    0.2990   -0.5211 C   0  0  0  0  0  0  0  0  0  0  0  0
   -1.3296   -2.2443   -0.8066 C   0  0  0  0  0  0  0  0  0  0  0  0
   -2.0650   -0.9399   -0.6173 C   0  0  0  0  0  0  0  0  0  0  0  0
   -2.1662    1.4612   -0.3479 C   0  0  0  0  0  0  0  0  0  0  0  0
   -3.4640   -0.9909   -0.4854 C   0  0  0  0  0  0  0  0  0  0  0  0
   -3.5561    1.3973   -0.2277 C   0  0  0  0  0  0  0  0  0  0  0  0
   -4.2051    0.1711   -0.2915 C   0  0  0  0  0  0  0  0  0  0  0  0
   -4.3300    2.6601   -0.0351 C   0  0  0  0  0  0  0  0  0  0  0  0
   -4.7569    3.2849   -1.3599 C   0  0  0  0  0  0  0  0  0  0  0  0
    2.3988   -0.5628   -1.7214 H   0  0  0  0  0  0  0  0  0  0  0  0
    0.6382   -1.2536    0.6647 H   0  0  0  0  0  0  0  0  0  0  0  0
    0.2694    0.5862   -1.7695 H   0  0  0  0  0  0  0  0  0  0  0  0
    4.5622    0.4687   -1.2291 H   0  0  0  0  0  0  0  0  0  0  0  0
    2.5801    1.8305   -1.1280 H   0  0  0  0  0  0  0  0  0  0  0  0
    2.7783    2.3288    0.5436 H   0  0  0  0  0  0  0  0  0  0  0  0
    3.1200   -2.7750   -1.3652 H   0  0  0  0  0  0  0  0  0  0  0  0
    2.9146   -2.6793    0.3879 H   0  0  0  0  0  0  0  0  0  0  0  0
    0.5533    1.4779    1.1349 H   0  0  0  0  0  0  0  0  0  0  0  0
    0.4467    2.4999   -0.2850 H   0  0  0  0  0  0  0  0  0  0  0  0
    5.0764   -1.9598    0.5225 H   0  0  0  0  0  0  0  0  0  0  0  0
    5.2172   -1.7682   -1.2305 H   0  0  0  0  0  0  0  0  0  0  0  0
    0.6372   -3.0429   -1.1228 H   0  0  0  0  0  0  0  0  0  0  0  0
    0.1749   -1.8141   -2.2982 H   0  0  0  0  0  0  0  0  0  0  0  0
    1.8215   -0.1113    2.0993 H   0  0  0  0  0  0  0  0  0  0  0  0
    3.3142   -1.0375    2.0414 H   0  0  0  0  0  0  0  0  0  0  0  0
    3.3638    0.7012    2.3183 H   0  0  0  0  0  0  0  0  0  0  0  0
   -1.3627   -2.7895    0.1454 H   0  0  0  0  0  0  0  0  0  0  0  0
   -1.8468   -2.8575   -1.5546 H   0  0  0  0  0  0  0  0  0  0  0  0
   -1.6902    2.4371   -0.3153 H   0  0  0  0  0  0  0  0  0  0  0  0
   -3.9600   -1.9540   -0.5679 H   0  0  0  0  0  0  0  0  0  0  0  0
   -5.2138    2.4815    0.5892 H   0  0  0  0  0  0  0  0  0  0  0  0
   -3.7253    3.3845    0.5255 H   0  0  0  0  0  0  0  0  0  0  0  0
    7.5910    2.2664    1.6987 H   0  0  0  0  0  0  0  0  0  0  0  0
    7.6229    0.8111    2.5935 H   0  0  0  0  0  0  0  0  0  0  0  0
   -3.8889    3.5268   -1.9824 H   0  0  0  0  0  0  0  0  0  0  0  0
   -5.3136    4.2098   -1.1790 H   0  0  0  0  0  0  0  0  0  0  0  0
   -5.4010    2.6062   -1.9290 H   0  0  0  0  0  0  0  0  0  0  0  0
   -8.3408   -0.9475   -0.1948 H   0  0  0  0  0  0  0  0  0  0  0  0
   -8.3359    0.4324    0.8129 H   0  0  0  0  0  0  0  0  0  0  0  0
  1  3  1  0  0  0  0
  1  4  2  0  0  0  0
  1  5  2  0  0  0  0
  1  9  1  0  0  0  0
  2  6  1  0  0  0  0
  2  7  2  0  0  0  0
  2  8  2  0  0  0  0
  2 10  1  0  0  0  0
  3 15  1  0  0  0  0
  6 28  1  0  0  0  0
  9 54  1  0  0  0  0
  9 55  1  0  0  0  0
 10 59  1  0  0  0  0
 10 60  1  0  0  0  0
 11 12  1  0  0  0  0
 11 15  1  0  0  0  0
 11 16  1  0  0  0  0
 11 21  1  0  0  0  0
 12 13  1  0  0  0  0
 12 17  1  0  0  0  0
 12 31  1  0  0  0  0
 13 14  1  0  0  0  0
 13 20  1  0  0  0  0
 13 32  1  0  0  0  0
 14 18  1  0  0  0  0
 14 22  1  0  0  0  0
 14 33  1  0  0  0  0
 15 19  1  0  0  0  0
 15 34  1  0  0  0  0
 16 18  1  0  0  0  0
 16 35  1  0  0  0  0
 16 36  1  0  0  0  0
 17 19  1  0  0  0  0
 17 37  1  0  0  0  0
 17 38  1  0  0  0  0
 18 39  1  0  0  0  0
 18 40  1  0  0  0  0
 19 41  1  0  0  0  0
 19 42  1  0  0  0  0
 20 23  1  0  0  0  0
 20 43  1  0  0  0  0
 20 44  1  0  0  0  0
 21 45  1  0  0  0  0
 21 46  1  0  0  0  0
 21 47  1  0  0  0  0
 22 24  1  0  0  0  0
 22 25  2  0  0  0  0
 23 24  1  0  0  0  0
 23 48  1  0  0  0  0
 23 49  1  0  0  0  0
 24 26  2  0  0  0  0
 25 27  1  0  0  0  0
 25 50  1  0  0  0  0
 26 28  1  0  0  0  0
 26 51  1  0  0  0  0
 27 28  2  0  0  0  0
 27 29  1  0  0  0  0
 29 30  1  0  0  0  0
 29 52  1  0  0  0  0
 29 53  1  0  0  0  0
 30 56  1  0  0  0  0
 30 57  1  0  0  0  0
 30 58  1  0  0  0  0
M  END
> <PUBCHEM_COMPOUND_CID>
11583423

> <PUBCHEM_CONFORMER_RMSD>
0.8

> <PUBCHEM_CONFORMER_DIVERSEORDER>
1
18
19
6
20
11
21
15
17
4
14
22
12
10
13
5
8
3
16
7
9
2

> <PUBCHEM_MMFF94_PARTIAL_CHARGES>
26
1 1.62
10 -0.98
14 0.14
15 0.28
2 1.62
22 -0.14
23 0.14
24 -0.14
25 -0.15
26 -0.15
27 -0.14
28 0.08
29 0.14
3 -0.46
4 -0.65
5 -0.65
50 0.15
51 0.15
54 0.42
55 0.42
59 0.42
6 -0.27
60 0.42
7 -0.65
8 -0.65
9 -0.98

> <PUBCHEM_EFFECTIVE_ROTOR_COUNT>
6.4

> <PUBCHEM_PHARMACOPHORE_FEATURES>
11
1 10 donor
1 30 hydrophobe
1 4 acceptor
1 5 acceptor
1 7 acceptor
1 8 acceptor
1 9 donor
5 11 12 15 17 19 rings
6 11 12 13 14 16 18 rings
6 13 14 20 22 23 24 rings
6 22 24 25 26 27 28 rings

> <PUBCHEM_HEAVY_ATOM_COUNT>
30

> <PUBCHEM_ATOM_DEF_STEREO_COUNT>
5

> <PUBCHEM_ATOM_UDEF_STEREO_COUNT>
0

> <PUBCHEM_BOND_DEF_STEREO_COUNT>
0

> <PUBCHEM_BOND_UDEF_STEREO_COUNT>
0

> <PUBCHEM_ISOTOPIC_ATOM_COUNT>
0

> <PUBCHEM_COMPONENT_COUNT>
1

> <PUBCHEM_CACTVS_TAUTO_COUNT>
1

> <PUBCHEM_CONFORMER_ID>
00B0BFBF00000001

> <PUBCHEM_MMFF94_ENERGY>
83.9572

> <PUBCHEM_FEATURE_SELFOVERLAP>
55.954

> <PUBCHEM_SHAPE_FINGERPRINT>
10 15 18410292523376244610
10165383 225 17846501443723512971
10290309 65 18271527494341379199
10369192 42 17275390910837405253
10411042 1 17836919367391897935
106641 1 18333733549929482843
11315181 36 17240486914271944253
11646440 116 17918277562626390792
12107698 1 18186804707662143385
12236239 1 18113334190022554932
12403259 118 18041005011969693253
12403259 415 18131342003782838673
12596602 18 17822287951079524768
12788726 201 17274539807249075872
13073987 5 18335137540352484939
13140716 1 18196376042740052847
13540713 4 18123760760199647279
13782708 43 15141228885800974426
13914758 101 13254807828065017514
14251764 18 18272088322401036118
14341114 176 18342461421775687135
14790565 3 18267582593424747028
14849402 71 17632013156114777472
15081414 286 18060143107099209116
15196674 1 18341328881764846654
15927050 60 18341888593889161254
18608769 82 18340768238509978555
19611394 137 18187938338246004939
2026 5 13841082770130527648
20281389 69 18342452647795681384
21033648 29 18130209485526552553
21130935 74 18187923924884872890
21267235 1 18410016537066960486
21279426 13 18199188378250203910
21521721 280 17917990620815337896
21792961 116 18060422370605469310
22182313 1 18198633142580155831
22224240 67 18202001049121562183
23559900 14 17989193846615407792
23576562 1 11383534746641646354
3178227 256 18341335565060909410
3383291 50 18186524332091936483
34797466 226 17917438653099099972
350125 39 18341334465565372069
3545911 37 18201718461921927462
392239 28 18334868233883449963
4073 2 18262802861342945081
4093350 32 16056885741342436436
4340502 62 17385723591397199986
5104073 3 18338798884177019987
5385378 56 17846787269481366134
5758199 1 17917714612483116802
57724786 102 16271352136579894768
59682541 35 18340490058010340387
59755656 520 16917065577192781967
7226269 152 17775282746644628336

> <PUBCHEM_SHAPE_MULTIPOLES>
579.91
19.96
2.52
1.26
8.57
0.72
0.5
2.42
7.52
-2.47
-0.78
-0.52
0.02
1.91

> <PUBCHEM_SHAPE_SELFOVERLAP>
1212.508

> <PUBCHEM_SHAPE_VOLUME>
332.2

> <PUBCHEM_COORDINATE_TYPE>
2
5
10

$$$$
