11589584
  -OEChem-03292013303D

 40 40  0     1  0  0  0  0  0999 V2000
   -6.6094   -2.1405    0.5959 F   0  0  0  0  0  0  0  0  0  0  0  0
    0.8970    2.7044    1.7846 O   0  0  0  0  0  0  0  0  0  0  0  0
    2.6328    1.3635   -1.5169 O   0  0  0  0  0  0  0  0  0  0  0  0
    1.1718    0.5586    0.0947 N   0  0  0  0  0  0  0  0  0  0  0  0
   -3.9864   -0.0582   -0.5154 N   0  0  0  0  0  0  0  0  0  0  0  0
    0.0276    3.8983    0.0253 N   0  0  0  0  0  0  0  0  0  0  0  0
   -6.3734    0.2224   -0.4015 N   0  0  0  0  0  0  0  0  0  0  0  0
   -1.2707    0.9040    0.1784 C   0  0  0  0  0  0  0  0  0  0  0  0
    0.1036    1.4889   -0.1640 C   0  0  1  0  0  0  0  0  0  0  0  0
   -1.5637   -0.3854   -0.5991 C   0  0  0  0  0  0  0  0  0  0  0  0
   -2.9065   -1.0009   -0.2197 C   0  0  0  0  0  0  0  0  0  0  0  0
    0.3774    2.7311    0.6714 C   0  0  0  0  0  0  0  0  0  0  0  0
    2.3655    0.5741   -0.6146 C   0  0  0  0  0  0  0  0  0  0  0  0
    3.3571   -0.4686   -0.2452 C   0  0  0  0  0  0  0  0  0  0  0  0
   -5.1842   -0.4496   -0.2419 C   0  0  0  0  0  0  0  0  0  0  0  0
    4.6976   -0.2147   -0.4489 C   0  0  0  0  0  0  0  0  0  0  0  0
    2.9058   -1.6570    0.2903 C   0  0  0  0  0  0  0  0  0  0  0  0
    5.6288   -1.1936   -0.1019 C   0  0  0  0  0  0  0  0  0  0  0  0
    3.8371   -2.6358    0.6374 C   0  0  0  0  0  0  0  0  0  0  0  0
    5.1986   -2.4039    0.4413 C   0  0  0  0  0  0  0  0  0  0  0  0
   -5.3065   -1.8372    0.3500 C   0  0  0  0  0  0  0  0  0  0  0  0
   -2.0412    1.6565   -0.0297 H   0  0  0  0  0  0  0  0  0  0  0  0
   -1.3245    0.6943    1.2550 H   0  0  0  0  0  0  0  0  0  0  0  0
    0.1315    1.7546   -1.2281 H   0  0  0  0  0  0  0  0  0  0  0  0
   -0.7808   -1.1294   -0.4126 H   0  0  0  0  0  0  0  0  0  0  0  0
   -1.5515   -0.1664   -1.6741 H   0  0  0  0  0  0  0  0  0  0  0  0
   -3.0050   -1.9196   -0.8088 H   0  0  0  0  0  0  0  0  0  0  0  0
   -2.8598   -1.2456    0.8475 H   0  0  0  0  0  0  0  0  0  0  0  0
    1.0683   -0.0457    0.9034 H   0  0  0  0  0  0  0  0  0  0  0  0
   -0.3968    3.9062   -0.8967 H   0  0  0  0  0  0  0  0  0  0  0  0
    0.1728    4.8005    0.4662 H   0  0  0  0  0  0  0  0  0  0  0  0
    5.0486    0.7246   -0.8658 H   0  0  0  0  0  0  0  0  0  0  0  0
    1.8544   -1.8873    0.4278 H   0  0  0  0  0  0  0  0  0  0  0  0
    6.6890   -1.0130   -0.2535 H   0  0  0  0  0  0  0  0  0  0  0  0
    3.5022   -3.5815    1.0535 H   0  0  0  0  0  0  0  0  0  0  0  0
    5.9234   -3.1667    0.7102 H   0  0  0  0  0  0  0  0  0  0  0  0
   -4.7942   -1.9060    1.3121 H   0  0  0  0  0  0  0  0  0  0  0  0
   -4.9434   -2.5994   -0.3427 H   0  0  0  0  0  0  0  0  0  0  0  0
   -7.2620   -0.1928   -0.1419 H   0  0  0  0  0  0  0  0  0  0  0  0
   -6.3946    1.1609   -0.7853 H   0  0  0  0  0  0  0  0  0  0  0  0
  1 21  1  0  0  0  0
  2 12  2  0  0  0  0
  3 13  2  0  0  0  0
  4  9  1  0  0  0  0
  4 13  1  0  0  0  0
  4 29  1  0  0  0  0
  5 11  1  0  0  0  0
  5 15  2  0  0  0  0
  6 12  1  0  0  0  0
  6 30  1  0  0  0  0
  6 31  1  0  0  0  0
  7 15  1  0  0  0  0
  7 39  1  0  0  0  0
  7 40  1  0  0  0  0
  8  9  1  0  0  0  0
  8 10  1  0  0  0  0
  8 22  1  0  0  0  0
  8 23  1  0  0  0  0
  9 12  1  0  0  0  0
  9 24  1  0  0  0  0
 10 11  1  0  0  0  0
 10 25  1  0  0  0  0
 10 26  1  0  0  0  0
 11 27  1  0  0  0  0
 11 28  1  0  0  0  0
 13 14  1  0  0  0  0
 14 16  2  0  0  0  0
 14 17  1  0  0  0  0
 15 21  1  0  0  0  0
 16 18  1  0  0  0  0
 16 32  1  0  0  0  0
 17 19  2  0  0  0  0
 17 33  1  0  0  0  0
 18 20  2  0  0  0  0
 18 34  1  0  0  0  0
 19 20  1  0  0  0  0
 19 35  1  0  0  0  0
 20 36  1  0  0  0  0
 21 37  1  0  0  0  0
 21 38  1  0  0  0  0
M  END
> <PUBCHEM_COMPOUND_CID>
11589584

> <PUBCHEM_CONFORMER_RMSD>
0.8

> <PUBCHEM_CONFORMER_DIVERSEORDER>
2
57
238
200
84
212
247
253
66
244
121
61
263
155
273
157
249
30
173
257
136
226
269
26
292
220
258
246
231
73
140
255
82
290
124
21
110
274
39
280
63
85
36
177
286
296
34
190
92
46
72
201
134
205
259
164
132
71
271
118
52
128
176
95
254
266
195
270
38
47
60
260
216
44
27
10
149
180
291
268
104
241
141
169
9
186
289
48
108
112
13
294
178
229
228
218
204
86
262
215
101
219
120
175
239
193
282
250
147
166
17
279
288
137
97
265
93
172
148
116
8
252
191
161
235
139
123
248
245
183
196
138
261
236
117
217
156
167
275
105
16
45
77
171
203
28
209
94
295
234
129
202
267
4
69
114
197
81
49
91
58
133
170
79
251
237
160
210
5
223
272
109
276
113
55
29
264
199
90
179
87
168
14
293
153
119
64
240
233
144
185
100
31
89
189
122
284
78
287
126
56
15
18
159
3
98
135
23
65
11
146
51
70
99
145
42
181
207
158
285
50
194
213
20
174
277
102
107
22
154
278
67
37
33
35
83
188
142
281
88
283
24
130
198
225
32
96
162
227
187
59
243
221
222
115
7
206
163
125
25
192
62
75
74
211
152
182
40
111
53
150
1
165
103
208
131
41
143
68
151
230
256
232
224
19
43
184
106
242
214
54
80
76
12
127
6

> <PUBCHEM_MMFF94_PARTIAL_CHARGES>
29
1 -0.34
11 0.25
12 0.57
13 0.54
14 0.09
15 0.44
16 -0.15
17 -0.15
18 -0.15
19 -0.15
2 -0.57
20 -0.15
21 0.4
29 0.37
3 -0.57
30 0.37
31 0.37
32 0.15
33 0.15
34 0.15
35 0.15
36 0.15
39 0.4
4 -0.73
40 0.4
5 -0.7
6 -0.8
7 -0.85
9 0.36

> <PUBCHEM_EFFECTIVE_ROTOR_COUNT>
9

> <PUBCHEM_PHARMACOPHORE_FEATURES>
7
1 2 acceptor
1 3 acceptor
1 4 donor
1 6 donor
1 7 donor
3 5 7 15 cation
6 14 16 17 18 19 20 rings

> <PUBCHEM_HEAVY_ATOM_COUNT>
21

> <PUBCHEM_ATOM_DEF_STEREO_COUNT>
1

> <PUBCHEM_ATOM_UDEF_STEREO_COUNT>
0

> <PUBCHEM_BOND_DEF_STEREO_COUNT>
0

> <PUBCHEM_BOND_UDEF_STEREO_COUNT>
0

> <PUBCHEM_ISOTOPIC_ATOM_COUNT>
0

> <PUBCHEM_COMPONENT_COUNT>
1

> <PUBCHEM_CACTVS_TAUTO_COUNT>
8

> <PUBCHEM_CONFORMER_ID>
00B0D7D000000002

> <PUBCHEM_MMFF94_ENERGY>
57.1051

> <PUBCHEM_FEATURE_SELFOVERLAP>
35.522

> <PUBCHEM_SHAPE_FINGERPRINT>
10447042 23 18409159992282821614
11265709 11 18342175544573568468
12516196 113 18413387644076226250
12553582 1 18271511049032447702
12633257 1 16056299692358740190
12788726 201 18341622460402417790
13004483 165 18340476782129050588
13052359 8 17980198587180293513
13073987 5 18412548747349382961
13631057 29 18339081476604784954
13955234 65 18052821635216561641
14123256 34 18411708672609581958
14251751 18 18186801361793001319
14251764 30 18260548944126441047
15042514 8 18197499515273338145
15183329 4 18186798046478765799
15927050 60 17766558328374012630
17492 89 18195525879618166430
200 152 18335981978631573710
20028762 73 18338515232132925266
20369508 70 18272089443529840661
20567600 247 18335419101719619795
20832881 197 18410011031446446795
21033648 29 15410620233611137657
21049683 271 18263370342176270860
21250096 35 18412823573125752190
21267235 1 18410860924060357238
22950370 63 18410013217300028515
23559900 14 18336259154662739969
3004659 81 18113054922332149086
314173 41 18340773731567168742
314194 84 18341047501451898887
3411729 13 17273967133511211296
3421961 26 18341046418993396921
3472631 163 9006473053766991610
351380 3 18413386527348170006
46194498 28 17240483658153763950
463206 1 18409444821165318582
465052 167 18342178864631047326
5104073 3 18059581308466179177
56616090 89 18261945242526585120
59682541 35 18341039801472037754
6327066 14 9150879582037657514
7495541 125 18338519750337247983
77188 2 18411699893876023620
7970288 3 18337951195098954386
8863177 126 18191311674839663027
9841814 1 17917717949572589584

> <PUBCHEM_SHAPE_MULTIPOLES>
393.23
14.49
3.4
0.95
15.78
2.42
-0.09
-13.98
0.15
-0.87
-1.17
-0.33
0.41
-0.25

> <PUBCHEM_SHAPE_SELFOVERLAP>
801.533

> <PUBCHEM_SHAPE_VOLUME>
226.6

> <PUBCHEM_COORDINATE_TYPE>
2
5
10

$$$$
