11582982
  -OEChem-03292013303D

 64 66  0     1  0  0  0  0  0999 V2000
    3.3135   -1.0628    1.5756 S   0  0  0  0  0  0  0  0  0  0  0  0
   -5.8303   -0.9376   -0.8851 O   0  0  0  0  0  0  0  0  0  0  0  0
   -1.0656    1.1026    2.2833 O   0  0  0  0  0  0  0  0  0  0  0  0
   -1.0509   -3.5085    0.6784 O   0  0  0  0  0  0  0  0  0  0  0  0
   -0.2006   -2.0612   -1.8565 O   0  0  0  0  0  0  0  0  0  0  0  0
   -1.5790    0.0433    0.2748 N   0  0  0  0  0  0  0  0  0  0  0  0
    1.2624   -1.6519   -0.0704 N   0  0  0  0  0  0  0  0  0  0  0  0
    4.6422   -0.6814   -0.6246 N   0  0  0  0  0  0  0  0  0  0  0  0
    2.3209   -1.3472   -0.8538 N   0  0  0  0  0  0  0  0  0  0  0  0
   -3.3752   -1.6016    0.4752 C   0  0  0  0  0  0  0  0  0  0  0  0
   -0.8469    2.3252    0.2423 C   0  0  0  0  0  0  0  0  0  0  0  0
   -1.9302   -1.2492    0.8173 C   0  0  1  0  0  0  0  0  0  0  0  0
    0.6273    2.2595   -0.1609 C   0  0  0  0  0  0  0  0  0  0  0  0
   -1.1659    3.5587    1.0926 C   0  0  0  0  0  0  0  0  0  0  0  0
   -4.3426   -0.5306    0.9916 C   0  0  0  0  0  0  0  0  0  0  0  0
   -3.5576   -1.7821   -1.0361 C   0  0  0  0  0  0  0  0  0  0  0  0
    0.9718    3.0060   -1.4475 C   0  0  0  0  0  0  0  0  0  0  0  0
   -1.1850    4.8793    0.3284 C   0  0  0  0  0  0  0  0  0  0  0  0
    0.2801    4.3463   -1.6824 C   0  0  0  0  0  0  0  0  0  0  0  0
    0.0950    5.2095   -0.4382 C   0  0  0  0  0  0  0  0  0  0  0  0
   -1.1759    1.1099    1.0599 C   0  0  0  0  0  0  0  0  0  0  0  0
   -5.7664   -0.8265    0.5362 C   0  0  0  0  0  0  0  0  0  0  0  0
   -5.0254   -2.0082   -1.3777 C   0  0  0  0  0  0  0  0  0  0  0  0
   -0.9924   -2.3369    0.3269 C   0  0  0  0  0  0  0  0  0  0  0  0
    0.0743   -1.9879   -0.6698 C   0  0  0  0  0  0  0  0  0  0  0  0
    5.6722   -0.5534    0.4093 C   0  0  1  0  0  0  0  0  0  0  0  0
    4.9327   -0.2376    1.7150 C   0  0  0  0  0  0  0  0  0  0  0  0
    3.3835   -1.0431   -0.1905 C   0  0  0  0  0  0  0  0  0  0  0  0
    6.4904   -1.8413    0.5064 C   0  0  0  0  0  0  0  0  0  0  0  0
    5.0237   -0.5914   -2.0199 C   0  0  0  0  0  0  0  0  0  0  0  0
   -3.6300   -2.5551    0.9593 H   0  0  0  0  0  0  0  0  0  0  0  0
   -1.4898    2.3256   -0.6475 H   0  0  0  0  0  0  0  0  0  0  0  0
   -1.8102   -1.2135    1.9069 H   0  0  0  0  0  0  0  0  0  0  0  0
    1.2525    2.6457    0.6551 H   0  0  0  0  0  0  0  0  0  0  0  0
    0.9471    1.2195   -0.2936 H   0  0  0  0  0  0  0  0  0  0  0  0
   -0.4505    3.6427    1.9218 H   0  0  0  0  0  0  0  0  0  0  0  0
   -2.1520    3.4377    1.5617 H   0  0  0  0  0  0  0  0  0  0  0  0
   -4.0681    0.4554    0.5982 H   0  0  0  0  0  0  0  0  0  0  0  0
   -4.3033   -0.4722    2.0850 H   0  0  0  0  0  0  0  0  0  0  0  0
   -2.9746   -2.6297   -1.4109 H   0  0  0  0  0  0  0  0  0  0  0  0
   -3.2249   -0.8867   -1.5733 H   0  0  0  0  0  0  0  0  0  0  0  0
    2.0587    3.1590   -1.4662 H   0  0  0  0  0  0  0  0  0  0  0  0
    0.7510    2.3570   -2.3048 H   0  0  0  0  0  0  0  0  0  0  0  0
   -2.0396    4.8883   -0.3598 H   0  0  0  0  0  0  0  0  0  0  0  0
   -1.3699    5.6839    1.0514 H   0  0  0  0  0  0  0  0  0  0  0  0
    0.8812    4.9045   -2.4117 H   0  0  0  0  0  0  0  0  0  0  0  0
   -0.6897    4.1782   -2.1672 H   0  0  0  0  0  0  0  0  0  0  0  0
    0.0165    6.2541   -0.7659 H   0  0  0  0  0  0  0  0  0  0  0  0
    0.9716    5.1551    0.2172 H   0  0  0  0  0  0  0  0  0  0  0  0
   -1.5689    0.1523   -0.7350 H   0  0  0  0  0  0  0  0  0  0  0  0
   -6.1473   -1.7480    0.9921 H   0  0  0  0  0  0  0  0  0  0  0  0
   -6.4309   -0.0105    0.8373 H   0  0  0  0  0  0  0  0  0  0  0  0
   -5.1532   -2.0487   -2.4641 H   0  0  0  0  0  0  0  0  0  0  0  0
   -5.3890   -2.9574   -0.9668 H   0  0  0  0  0  0  0  0  0  0  0  0
    6.3517    0.2757    0.1772 H   0  0  0  0  0  0  0  0  0  0  0  0
    1.3785   -1.6290    0.9373 H   0  0  0  0  0  0  0  0  0  0  0  0
    4.7473    0.8391    1.7923 H   0  0  0  0  0  0  0  0  0  0  0  0
    5.4730   -0.5641    2.6080 H   0  0  0  0  0  0  0  0  0  0  0  0
    5.8606   -2.7133    0.7131 H   0  0  0  0  0  0  0  0  0  0  0  0
    7.0201   -2.0363   -0.4323 H   0  0  0  0  0  0  0  0  0  0  0  0
    7.2379   -1.7649    1.3029 H   0  0  0  0  0  0  0  0  0  0  0  0
    5.9405   -0.0067   -2.1465 H   0  0  0  0  0  0  0  0  0  0  0  0
    5.1919   -1.5918   -2.4306 H   0  0  0  0  0  0  0  0  0  0  0  0
    4.2367   -0.1035   -2.6043 H   0  0  0  0  0  0  0  0  0  0  0  0
  1 27  1  0  0  0  0
  1 28  1  0  0  0  0
  2 22  1  0  0  0  0
  2 23  1  0  0  0  0
  3 21  2  0  0  0  0
  4 24  2  0  0  0  0
  5 25  2  0  0  0  0
  6 12  1  0  0  0  0
  6 21  1  0  0  0  0
  6 50  1  0  0  0  0
  7  9  1  0  0  0  0
  7 25  1  0  0  0  0
  7 56  1  0  0  0  0
  8 26  1  0  0  0  0
  8 28  1  0  0  0  0
  8 30  1  0  0  0  0
  9 28  2  0  0  0  0
 10 12  1  0  0  0  0
 10 15  1  0  0  0  0
 10 16  1  0  0  0  0
 10 31  1  0  0  0  0
 11 13  1  0  0  0  0
 11 14  1  0  0  0  0
 11 21  1  0  0  0  0
 11 32  1  0  0  0  0
 12 24  1  0  0  0  0
 12 33  1  0  0  0  0
 13 17  1  0  0  0  0
 13 34  1  0  0  0  0
 13 35  1  0  0  0  0
 14 18  1  0  0  0  0
 14 36  1  0  0  0  0
 14 37  1  0  0  0  0
 15 22  1  0  0  0  0
 15 38  1  0  0  0  0
 15 39  1  0  0  0  0
 16 23  1  0  0  0  0
 16 40  1  0  0  0  0
 16 41  1  0  0  0  0
 17 19  1  0  0  0  0
 17 42  1  0  0  0  0
 17 43  1  0  0  0  0
 18 20  1  0  0  0  0
 18 44  1  0  0  0  0
 18 45  1  0  0  0  0
 19 20  1  0  0  0  0
 19 46  1  0  0  0  0
 19 47  1  0  0  0  0
 20 48  1  0  0  0  0
 20 49  1  0  0  0  0
 22 51  1  0  0  0  0
 22 52  1  0  0  0  0
 23 53  1  0  0  0  0
 23 54  1  0  0  0  0
 24 25  1  0  0  0  0
 26 27  1  0  0  0  0
 26 29  1  0  0  0  0
 26 55  1  0  0  0  0
 27 57  1  0  0  0  0
 27 58  1  0  0  0  0
 29 59  1  0  0  0  0
 29 60  1  0  0  0  0
 29 61  1  0  0  0  0
 30 62  1  0  0  0  0
 30 63  1  0  0  0  0
 30 64  1  0  0  0  0
M  END
> <PUBCHEM_COMPOUND_CID>
11582982

> <PUBCHEM_CONFORMER_RMSD>
1.2

> <PUBCHEM_CONFORMER_DIVERSEORDER>
1
71
44
72
36
68
66
30
61
10
7
12
58
70
25
62
38
65
46
52
2
60
73
59
28
8
32
9
78
29
49
54
35
16
51
76
67
41
31
24
69
50
55
43
27
63
74
15
40
37
14
77
3
20
45
80
48
4
39
22
57
53
79
13
5
18
17
75
34
6
56
33
26
19
11
64
21
47
42
23

> <PUBCHEM_MMFF94_PARTIAL_CHARGES>
22
1 -0.37
11 0.06
12 0.36
2 -0.56
21 0.57
22 0.28
23 0.28
24 0.51
25 0.63
26 0.37
27 0.23
28 0.64
3 -0.57
30 0.37
4 -0.57
5 -0.57
50 0.37
56 0.37
6 -0.73
7 -0.37
8 -0.79
9 -0.51

> <PUBCHEM_EFFECTIVE_ROTOR_COUNT>
11.4

> <PUBCHEM_PHARMACOPHORE_FEATURES>
10
1 2 acceptor
1 3 acceptor
1 4 acceptor
1 5 acceptor
1 6 donor
1 7 donor
3 8 9 28 cation
5 1 8 26 27 28 rings
6 2 10 15 16 22 23 rings
7 11 13 14 17 18 19 20 rings

> <PUBCHEM_HEAVY_ATOM_COUNT>
30

> <PUBCHEM_ATOM_DEF_STEREO_COUNT>
2

> <PUBCHEM_ATOM_UDEF_STEREO_COUNT>
0

> <PUBCHEM_BOND_DEF_STEREO_COUNT>
1

> <PUBCHEM_BOND_UDEF_STEREO_COUNT>
0

> <PUBCHEM_ISOTOPIC_ATOM_COUNT>
0

> <PUBCHEM_COMPONENT_COUNT>
1

> <PUBCHEM_CACTVS_TAUTO_COUNT>
10

> <PUBCHEM_CONFORMER_ID>
00B0BE0600000001

> <PUBCHEM_MMFF94_ENERGY>
64.3165

> <PUBCHEM_FEATURE_SELFOVERLAP>
50.748

> <PUBCHEM_SHAPE_FINGERPRINT>
10006869 2 18050561847069166891
102385 1 17762053242493486739
10670039 82 18338533932746638150
10871710 139 18265352623974791645
10930396 42 18122592133720598890
11595378 159 18337382743787818730
12156800 1 16954178432278619997
12166972 35 18268706280885485207
12788726 201 18261668177800922690
13004483 165 18410004460057066184
13782708 43 17774732944282815958
140371 6 18340503234590449203
14068700 675 18272371992132395664
15439362 3 18120087545075456701
15840311 113 17489594485132927987
167882 2 18049722116300880109
1813 80 18411411843329847489
20600515 1 18341622554459564866
23402539 116 18343580741756241551
23559900 14 18195236952746343507
24771293 8 18201715205967575760
25019877 29 16988846106885128623
469060 322 18337684026578205043
508706 21 18123755253882593086
5252454 2 17693397554869625936
653340 110 18267864978349000848

> <PUBCHEM_SHAPE_MULTIPOLES>
577.83
11.64
5.88
1.72
6.87
11.12
-0.15
-11.54
-0.06
-2.42
-1.19
0.65
0.15
-1.23

> <PUBCHEM_SHAPE_SELFOVERLAP>
1168.664

> <PUBCHEM_SHAPE_VOLUME>
338.1

> <PUBCHEM_COORDINATE_TYPE>
2
5
10

$$$$
