11588145
  -OEChem-03292013303D

 42 44  0     1  0  0  0  0  0999 V2000
   -0.0862   -1.5572   -1.7047 S   0  0  0  0  0  0  0  0  0  0  0  0
   -2.5348    1.0160   -1.7145 S   0  0  0  0  0  0  0  0  0  0  0  0
    2.6271    2.6949    0.0663 O   0  0  0  0  0  0  0  0  0  0  0  0
   -0.1915    2.6039    0.0851 O   0  0  0  0  0  0  0  0  0  0  0  0
   -1.7759   -2.4772    0.9538 O   0  0  0  0  0  0  0  0  0  0  0  0
    0.3015    0.3576    0.2274 N   0  0  0  0  0  0  0  0  0  0  0  0
   -2.3222   -0.2235    0.7373 N   0  0  0  0  0  0  0  0  0  0  0  0
   -0.0941   -1.0387    0.0515 C   0  0  2  0  0  0  0  0  0  0  0  0
    1.7285    0.4983    0.5592 C   0  0  1  0  0  0  0  0  0  0  0  0
    0.9936   -1.8250    0.8124 C   0  0  0  0  0  0  0  0  0  0  0  0
    2.1810   -0.9407    0.6079 C   0  0  0  0  0  0  0  0  0  0  0  0
   -2.0552    1.0691    0.0546 C   0  0  1  0  0  0  0  0  0  0  0  0
    2.5681    1.3521   -0.4184 C   0  0  2  0  0  0  0  0  0  0  0  0
   -0.5673    1.4315    0.1440 C   0  0  0  0  0  0  0  0  0  0  0  0
   -1.4602   -1.3240    0.6478 C   0  0  0  0  0  0  0  0  0  0  0  0
    3.4196   -1.3288    0.2800 C   0  0  0  0  0  0  0  0  0  0  0  0
    4.0018    0.8812   -0.5230 C   0  0  0  0  0  0  0  0  0  0  0  0
   -2.8513    2.2377    0.6795 C   0  0  0  0  0  0  0  0  0  0  0  0
    4.3864   -0.3506   -0.1533 C   0  0  0  0  0  0  0  0  0  0  0  0
   -3.5403   -0.3524    1.5390 C   0  0  0  0  0  0  0  0  0  0  0  0
   -0.4576   -3.3049   -1.4478 C   0  0  0  0  0  0  0  0  0  0  0  0
   -4.2711    0.5808   -1.4840 C   0  0  0  0  0  0  0  0  0  0  0  0
    1.7602    0.9324    1.5674 H   0  0  0  0  0  0  0  0  0  0  0  0
    1.1914   -2.8550    0.5265 H   0  0  0  0  0  0  0  0  0  0  0  0
    0.7677   -1.8413    1.8880 H   0  0  0  0  0  0  0  0  0  0  0  0
    2.1153    1.3740   -1.4166 H   0  0  0  0  0  0  0  0  0  0  0  0
    3.7005   -2.3754    0.2493 H   0  0  0  0  0  0  0  0  0  0  0  0
    4.7449    1.5696   -0.9163 H   0  0  0  0  0  0  0  0  0  0  0  0
   -2.4968    2.4197    1.7033 H   0  0  0  0  0  0  0  0  0  0  0  0
   -2.6962    3.1791    0.1365 H   0  0  0  0  0  0  0  0  0  0  0  0
   -3.9290    2.0856    0.7625 H   0  0  0  0  0  0  0  0  0  0  0  0
    5.4205   -0.6623   -0.2482 H   0  0  0  0  0  0  0  0  0  0  0  0
   -3.4385    0.2775    2.4280 H   0  0  0  0  0  0  0  0  0  0  0  0
   -3.6740   -1.3813    1.8854 H   0  0  0  0  0  0  0  0  0  0  0  0
   -4.4351   -0.0681    0.9898 H   0  0  0  0  0  0  0  0  0  0  0  0
    3.0525    3.2394   -0.6183 H   0  0  0  0  0  0  0  0  0  0  0  0
   -1.5077   -3.4554   -1.1885 H   0  0  0  0  0  0  0  0  0  0  0  0
    0.1880   -3.8457   -0.7599 H   0  0  0  0  0  0  0  0  0  0  0  0
   -0.3254   -3.7948   -2.4192 H   0  0  0  0  0  0  0  0  0  0  0  0
   -4.8373    1.2965   -0.8887 H   0  0  0  0  0  0  0  0  0  0  0  0
   -4.3800   -0.4389   -1.1099 H   0  0  0  0  0  0  0  0  0  0  0  0
   -4.7338    0.5848   -2.4769 H   0  0  0  0  0  0  0  0  0  0  0  0
  1  8  1  0  0  0  0
  1 21  1  0  0  0  0
  2 12  1  0  0  0  0
  2 22  1  0  0  0  0
  3 13  1  0  0  0  0
  3 36  1  0  0  0  0
  4 14  2  0  0  0  0
  5 15  2  0  0  0  0
  6  8  1  0  0  0  0
  6  9  1  0  0  0  0
  6 14  1  0  0  0  0
  7 12  1  0  0  0  0
  7 15  1  0  0  0  0
  7 20  1  0  0  0  0
  8 10  1  0  0  0  0
  8 15  1  0  0  0  0
  9 11  1  0  0  0  0
  9 13  1  0  0  0  0
  9 23  1  0  0  0  0
 10 11  1  0  0  0  0
 10 24  1  0  0  0  0
 10 25  1  0  0  0  0
 11 16  2  0  0  0  0
 12 14  1  0  0  0  0
 12 18  1  0  0  0  0
 13 17  1  0  0  0  0
 13 26  1  0  0  0  0
 16 19  1  0  0  0  0
 16 27  1  0  0  0  0
 17 19  2  0  0  0  0
 17 28  1  0  0  0  0
 18 29  1  0  0  0  0
 18 30  1  0  0  0  0
 18 31  1  0  0  0  0
 19 32  1  0  0  0  0
 20 33  1  0  0  0  0
 20 34  1  0  0  0  0
 20 35  1  0  0  0  0
 21 37  1  0  0  0  0
 21 38  1  0  0  0  0
 21 39  1  0  0  0  0
 22 40  1  0  0  0  0
 22 41  1  0  0  0  0
 22 42  1  0  0  0  0
M  END
> <PUBCHEM_COMPOUND_CID>
11588145

> <PUBCHEM_CONFORMER_RMSD>
0.6

> <PUBCHEM_CONFORMER_DIVERSEORDER>
1
2

> <PUBCHEM_MMFF94_PARTIAL_CHARGES>
25
1 -0.46
10 0.14
11 -0.28
12 0.59
13 0.42
14 0.57
15 0.57
16 -0.15
17 -0.29
19 -0.15
2 -0.46
20 0.3
21 0.23
22 0.23
27 0.15
28 0.15
3 -0.68
32 0.15
36 0.4
4 -0.57
5 -0.57
6 -0.66
7 -0.66
8 0.59
9 0.44

> <PUBCHEM_EFFECTIVE_ROTOR_COUNT>
2.8

> <PUBCHEM_PHARMACOPHORE_FEATURES>
9
1 21 hydrophobe
1 22 hydrophobe
1 3 acceptor
1 3 donor
1 4 acceptor
1 5 acceptor
5 6 8 9 10 11 rings
6 6 7 8 12 14 15 rings
6 9 11 13 16 17 19 rings

> <PUBCHEM_HEAVY_ATOM_COUNT>
22

> <PUBCHEM_ATOM_DEF_STEREO_COUNT>
4

> <PUBCHEM_ATOM_UDEF_STEREO_COUNT>
0

> <PUBCHEM_BOND_DEF_STEREO_COUNT>
0

> <PUBCHEM_BOND_UDEF_STEREO_COUNT>
0

> <PUBCHEM_ISOTOPIC_ATOM_COUNT>
0

> <PUBCHEM_COMPONENT_COUNT>
1

> <PUBCHEM_CACTVS_TAUTO_COUNT>
1

> <PUBCHEM_CONFORMER_ID>
00B0D23100000001

> <PUBCHEM_MMFF94_ENERGY>
88.4501

> <PUBCHEM_FEATURE_SELFOVERLAP>
45.869

> <PUBCHEM_SHAPE_FINGERPRINT>
10863032 1 17458903734539147915
10948715 1 17969210158250106791
10967382 1 18263928730995145312
11578080 2 16517657919373588302
12011746 2 18334575702885127919
12035759 4 18129644379383491271
12633257 1 17970345901847530136
13140716 1 18409165549885872904
13221675 6 18408042888363148682
13583140 156 17749387044434108866
14223421 5 18116436023481769448
14289901 80 16008757896094742120
14787075 74 17824557484686665683
15196674 1 18335146362690071304
15309172 13 18202004295937178042
16752209 62 18200867392403224776
16945 1 18262797346267333682
18981168 100 18189035642508652912
192875 21 18194381330266440288
19591789 44 18337118946363520962
200 152 18343291553455500109
20602899 9 17203606008041112159
21267235 1 18263098689995020194
21524375 3 18337103480054172174
229495 10 17098868600579813207
23227448 37 17895758516332687332
2334 1 18192711361440904352
23402539 116 18271520897081045340
23419403 2 13264107634714329845
23493267 7 17385720275044111593
23559900 14 18262233310146499258
238 59 17683763719459202757
2748010 2 18337109080913111296
335352 9 18191309265087962548
34934 24 18335974342295902368
350125 39 18189065324948676752
474 4 18122059810947225889
5104073 3 18261678091054947232
81228 2 17908129229036427434
90525 40 18343303634881947262

> <PUBCHEM_SHAPE_MULTIPOLES>
432.88
6.66
2.97
1.43
1.95
0.61
0.42
-2.09
0.47
-0.05
0.39
-1.3
0.53
0.03

> <PUBCHEM_SHAPE_SELFOVERLAP>
896.639

> <PUBCHEM_SHAPE_VOLUME>
251.4

> <PUBCHEM_COORDINATE_TYPE>
2
5
10

$$$$
