11594626
  -OEChem-03292013303D

 39 40  0     1  0  0  0  0  0999 V2000
    2.2298    0.4259    0.9828 O   0  0  0  0  0  0  0  0  0  0  0  0
    4.9282   -0.3080   -0.2633 O   0  0  0  0  0  0  0  0  0  0  0  0
    1.8392    3.1899    0.7356 O   0  0  0  0  0  0  0  0  0  0  0  0
    0.8195   -3.3754    0.2242 O   0  0  0  0  0  0  0  0  0  0  0  0
   -3.4287    1.0700    0.9245 O   0  0  0  0  0  0  0  0  0  0  0  0
   -3.1495    1.0146   -1.4200 O   0  0  0  0  0  0  0  0  0  0  0  0
   -3.3997   -1.5866   -0.1590 O   0  0  0  0  0  0  0  0  0  0  0  0
    0.6167   -1.0508    0.1509 N   0  0  0  0  0  0  0  0  0  0  0  0
   -1.2789   -2.4699    0.0325 N   0  0  0  0  0  0  0  0  0  0  0  0
    2.0233   -0.7949    0.2583 C   0  0  1  0  0  0  0  0  0  0  0  0
    3.7909    0.3637   -0.8005 C   0  0  1  0  0  0  0  0  0  0  0  0
    2.6990   -0.6390   -1.0942 C   0  0  0  0  0  0  0  0  0  0  0  0
    3.1643    1.2538    0.2636 C   0  0  1  0  0  0  0  0  0  0  0  0
    2.3930    2.4280   -0.3248 C   0  0  0  0  0  0  0  0  0  0  0  0
   -0.2477    0.0321    0.0545 C   0  0  0  0  0  0  0  0  0  0  0  0
    0.1124   -2.3689    0.1423 C   0  0  0  0  0  0  0  0  0  0  0  0
   -1.5786   -0.0681   -0.0504 C   0  0  0  0  0  0  0  0  0  0  0  0
   -2.1858   -1.4255   -0.0659 C   0  0  0  0  0  0  0  0  0  0  0  0
   -2.4914    1.1115   -0.1532 C   0  0  0  0  0  0  0  0  0  0  0  0
   -2.8024    1.1076    2.2005 C   0  0  0  0  0  0  0  0  0  0  0  0
   -4.0536    2.0901   -1.6385 C   0  0  0  0  0  0  0  0  0  0  0  0
    2.5042   -1.5977    0.8297 H   0  0  0  0  0  0  0  0  0  0  0  0
    4.1218    0.9163   -1.6848 H   0  0  0  0  0  0  0  0  0  0  0  0
    2.0063   -0.2234   -1.8360 H   0  0  0  0  0  0  0  0  0  0  0  0
    3.0625   -1.5989   -1.4743 H   0  0  0  0  0  0  0  0  0  0  0  0
    3.8997    1.6122    0.9924 H   0  0  0  0  0  0  0  0  0  0  0  0
    1.5905    2.1202   -0.9989 H   0  0  0  0  0  0  0  0  0  0  0  0
    3.0737    3.0771   -0.8861 H   0  0  0  0  0  0  0  0  0  0  0  0
    0.1825    1.0199    0.0745 H   0  0  0  0  0  0  0  0  0  0  0  0
    5.2632   -0.9082   -0.9513 H   0  0  0  0  0  0  0  0  0  0  0  0
   -1.6650   -3.4099    0.0246 H   0  0  0  0  0  0  0  0  0  0  0  0
   -1.9376    2.0588   -0.1178 H   0  0  0  0  0  0  0  0  0  0  0  0
    1.3648    3.9374    0.3336 H   0  0  0  0  0  0  0  0  0  0  0  0
   -3.5790    1.2954    2.9478 H   0  0  0  0  0  0  0  0  0  0  0  0
   -2.0711    1.9202    2.2586 H   0  0  0  0  0  0  0  0  0  0  0  0
   -2.3350    0.1502    2.4474 H   0  0  0  0  0  0  0  0  0  0  0  0
   -3.5351    3.0511   -1.5676 H   0  0  0  0  0  0  0  0  0  0  0  0
   -4.8819    2.0527   -0.9251 H   0  0  0  0  0  0  0  0  0  0  0  0
   -4.4646    1.9908   -2.6469 H   0  0  0  0  0  0  0  0  0  0  0  0
  1 10  1  0  0  0  0
  1 13  1  0  0  0  0
  2 11  1  0  0  0  0
  2 30  1  0  0  0  0
  3 14  1  0  0  0  0
  3 33  1  0  0  0  0
  4 16  2  0  0  0  0
  5 19  1  0  0  0  0
  5 20  1  0  0  0  0
  6 19  1  0  0  0  0
  6 21  1  0  0  0  0
  7 18  2  0  0  0  0
  8 10  1  0  0  0  0
  8 15  1  0  0  0  0
  8 16  1  0  0  0  0
  9 16  1  0  0  0  0
  9 18  1  0  0  0  0
  9 31  1  0  0  0  0
 10 12  1  0  0  0  0
 10 22  1  0  0  0  0
 11 12  1  0  0  0  0
 11 13  1  0  0  0  0
 11 23  1  0  0  0  0
 12 24  1  0  0  0  0
 12 25  1  0  0  0  0
 13 14  1  0  0  0  0
 13 26  1  0  0  0  0
 14 27  1  0  0  0  0
 14 28  1  0  0  0  0
 15 17  2  0  0  0  0
 15 29  1  0  0  0  0
 17 18  1  0  0  0  0
 17 19  1  0  0  0  0
 19 32  1  0  0  0  0
 20 34  1  0  0  0  0
 20 35  1  0  0  0  0
 20 36  1  0  0  0  0
 21 37  1  0  0  0  0
 21 38  1  0  0  0  0
 21 39  1  0  0  0  0
M  END
> <PUBCHEM_COMPOUND_CID>
11594626

> <PUBCHEM_CONFORMER_RMSD>
0.8

> <PUBCHEM_CONFORMER_DIVERSEORDER>
1
36
28
33
23
12
11
34
26
45
35
17
32
39
10
20
38
5
27
44
40
8
7
43
16
14
41
24
9
37
31
42
29
2
22
19
6
18
4
3
25
13
30
21
15

> <PUBCHEM_MMFF94_PARTIAL_CHARGES>
24
1 -0.56
10 0.58
11 0.28
13 0.28
14 0.28
15 -0.04
16 0.69
17 -0.12
18 0.62
19 0.7
2 -0.68
20 0.28
21 0.28
29 0.15
3 -0.68
30 0.4
31 0.37
33 0.4
4 -0.57
5 -0.56
6 -0.56
7 -0.57
8 -0.47
9 -0.49

> <PUBCHEM_EFFECTIVE_ROTOR_COUNT>
6

> <PUBCHEM_PHARMACOPHORE_FEATURES>
12
1 1 acceptor
1 2 acceptor
1 2 donor
1 3 acceptor
1 3 donor
1 4 acceptor
1 5 acceptor
1 6 acceptor
1 7 acceptor
1 9 donor
5 1 10 11 12 13 rings
6 8 9 15 16 17 18 rings

> <PUBCHEM_HEAVY_ATOM_COUNT>
21

> <PUBCHEM_ATOM_DEF_STEREO_COUNT>
3

> <PUBCHEM_ATOM_UDEF_STEREO_COUNT>
0

> <PUBCHEM_BOND_DEF_STEREO_COUNT>
0

> <PUBCHEM_BOND_UDEF_STEREO_COUNT>
0

> <PUBCHEM_ISOTOPIC_ATOM_COUNT>
0

> <PUBCHEM_COMPONENT_COUNT>
1

> <PUBCHEM_CACTVS_TAUTO_COUNT>
3

> <PUBCHEM_CONFORMER_ID>
00B0EB8200000001

> <PUBCHEM_MMFF94_ENERGY>
55.6815

> <PUBCHEM_FEATURE_SELFOVERLAP>
60.948

> <PUBCHEM_SHAPE_FINGERPRINT>
10498660 4 18408037403384314005
10608611 8 18268147754753198756
11725454 13 17024565834479481093
12173636 292 18191298475750632086
12363563 72 10519694605451922973
12403260 363 18341044241777403982
13140716 1 18411705412718439224
13583140 156 17603869974985791449
14289901 80 16660656166917902459
15309172 13 18335711528482471011
16945 1 18267302036763643187
17134986 127 18335975398414615716
18186145 218 18341899584313558964
18219364 16 18335708217189695513
20233049 118 18260828164335018284
20449540 30 18341890823012882773
20510252 161 18124597741186791291
21041028 32 17401785024620467083
21524375 3 18335144210563737922
21639500 275 18266166245795011805
21864079 5 17458923624817792932
22182937 141 18341908423329958739
2334 1 18266739267045984360
23402539 116 18202286871147995134
23557571 272 17618515719155322446
23558518 356 18120378906596975218
23559900 14 18199186368553655346
23598291 2 17557420973184202623
238 59 17903319703283777117
25 1 18339931411297566582
2748010 2 18337953501300239045
3060560 45 18339349773978175700
350125 39 18337962310325622985
474 4 18342462504302709089
633830 44 18059306365485761548
81228 2 17830179365049200234

> <PUBCHEM_SHAPE_MULTIPOLES>
381.12
7.51
3.14
1.27
1.17
0.62
-0.22
-3.48
1.5
-0.06
-0.09
-1.24
-0.75
0.6

> <PUBCHEM_SHAPE_SELFOVERLAP>
791.94

> <PUBCHEM_SHAPE_VOLUME>
216.7

> <PUBCHEM_COORDINATE_TYPE>
2
5
10

$$$$
