11599547
  -OEChem-03292013303D

 65 69  0     1  0  0  0  0  0999 V2000
    1.4676   -0.5736   -0.1105 O   0  0  0  0  0  0  0  0  0  0  0  0
    2.8865   -1.4400    1.4913 O   0  0  0  0  0  0  0  0  0  0  0  0
    3.6066    2.9317   -1.9669 O   0  0  0  0  0  0  0  0  0  0  0  0
    2.0514   -2.5258    0.9930 O   0  0  0  0  0  0  0  0  0  0  0  0
   -4.4569   -1.9061    0.3871 O   0  0  0  0  0  0  0  0  0  0  0  0
   -4.9481   -0.0216   -0.8813 N   0  0  0  0  0  0  0  0  0  0  0  0
   -7.3872    1.9926    1.1142 N   0  0  0  0  0  0  0  0  0  0  0  0
    3.8640   -0.5520   -0.5620 C   0  0  1  0  0  0  0  0  0  0  0  0
    2.8388    0.9704    1.1647 C   0  0  2  0  0  0  0  0  0  0  0  0
    2.7474   -0.4215    0.5018 C   0  0  0  0  0  0  0  0  0  0  0  0
    3.7733    1.9349   -0.9690 C   0  0  0  0  0  0  0  0  0  0  0  0
    5.3344    1.0040    0.7767 C   0  0  0  0  0  0  0  0  0  0  0  0
    3.6910    0.5463   -1.6282 C   0  0  0  0  0  0  0  0  0  0  0  0
    2.6676    2.0659    0.0951 C   0  0  0  0  0  0  0  0  0  0  0  0
    5.2420   -0.3804    0.1086 C   0  0  0  0  0  0  0  0  0  0  0  0
    4.2196    1.1401    1.8306 C   0  0  0  0  0  0  0  0  0  0  0  0
    5.1482    2.0914   -0.2944 C   0  0  0  0  0  0  0  0  0  0  0  0
    0.9988   -1.8542    0.3071 C   0  0  0  0  0  0  0  0  0  0  0  0
    0.6093   -2.6688   -0.9264 C   0  0  0  0  0  0  0  0  0  0  0  0
   -0.1927   -1.6761    1.2519 C   0  0  0  0  0  0  0  0  0  0  0  0
   -0.6042   -2.0807   -1.6451 C   0  0  0  0  0  0  0  0  0  0  0  0
   -1.4079   -1.0852    0.5383 C   0  0  0  0  0  0  0  0  0  0  0  0
   -1.7973   -1.9130   -0.6942 C   0  0  0  0  0  0  0  0  0  0  0  0
   -2.9792   -1.2737   -1.4209 C   0  0  0  0  0  0  0  0  0  0  0  0
   -4.1924   -1.1297   -0.5269 C   0  0  0  0  0  0  0  0  0  0  0  0
   -6.1643    0.3561   -0.1984 C   0  0  0  0  0  0  0  0  0  0  0  0
   -6.1048    1.7599    0.4330 C   0  0  0  0  0  0  0  0  0  0  0  0
   -5.9372    2.8475   -0.6369 C   0  0  0  0  0  0  0  0  0  0  0  0
   -4.9745    1.8616    1.4677 C   0  0  0  0  0  0  0  0  0  0  0  0
    3.8166   -1.5355   -1.0442 H   0  0  0  0  0  0  0  0  0  0  0  0
    2.0540    1.0770    1.9232 H   0  0  0  0  0  0  0  0  0  0  0  0
    6.3130    1.1198    1.2554 H   0  0  0  0  0  0  0  0  0  0  0  0
    2.7358    0.4328   -2.1564 H   0  0  0  0  0  0  0  0  0  0  0  0
    4.4645    0.4514   -2.4017 H   0  0  0  0  0  0  0  0  0  0  0  0
    1.6786    2.0047   -0.3764 H   0  0  0  0  0  0  0  0  0  0  0  0
    2.7078    3.0599    0.5596 H   0  0  0  0  0  0  0  0  0  0  0  0
    5.4062   -1.1685    0.8529 H   0  0  0  0  0  0  0  0  0  0  0  0
    6.0363   -0.4857   -0.6410 H   0  0  0  0  0  0  0  0  0  0  0  0
    4.2816    2.1234    2.3132 H   0  0  0  0  0  0  0  0  0  0  0  0
    4.3577    0.3932    2.6214 H   0  0  0  0  0  0  0  0  0  0  0  0
    5.2385    3.0892    0.1543 H   0  0  0  0  0  0  0  0  0  0  0  0
    5.9464    2.0316   -1.0456 H   0  0  0  0  0  0  0  0  0  0  0  0
    3.6633    3.8007   -1.5341 H   0  0  0  0  0  0  0  0  0  0  0  0
    0.4012   -3.7066   -0.6358 H   0  0  0  0  0  0  0  0  0  0  0  0
    1.4522   -2.7106   -1.6275 H   0  0  0  0  0  0  0  0  0  0  0  0
   -0.4581   -2.6420    1.7003 H   0  0  0  0  0  0  0  0  0  0  0  0
    0.0843   -1.0177    2.0848 H   0  0  0  0  0  0  0  0  0  0  0  0
   -0.8812   -2.7371   -2.4787 H   0  0  0  0  0  0  0  0  0  0  0  0
   -0.3343   -1.1115   -2.0835 H   0  0  0  0  0  0  0  0  0  0  0  0
   -1.1874   -0.0524    0.2393 H   0  0  0  0  0  0  0  0  0  0  0  0
   -2.2294   -1.0313    1.2602 H   0  0  0  0  0  0  0  0  0  0  0  0
   -2.0975   -2.9120   -0.3485 H   0  0  0  0  0  0  0  0  0  0  0  0
   -2.6840   -0.2926   -1.8132 H   0  0  0  0  0  0  0  0  0  0  0  0
   -3.2772   -1.8908   -2.2770 H   0  0  0  0  0  0  0  0  0  0  0  0
   -4.6790    0.5229   -1.6953 H   0  0  0  0  0  0  0  0  0  0  0  0
   -6.3975   -0.3952    0.5661 H   0  0  0  0  0  0  0  0  0  0  0  0
   -6.9633    0.3061   -0.9485 H   0  0  0  0  0  0  0  0  0  0  0  0
   -6.7244    2.7876   -1.3976 H   0  0  0  0  0  0  0  0  0  0  0  0
   -5.9767    3.8510   -0.1964 H   0  0  0  0  0  0  0  0  0  0  0  0
   -4.9728    2.7595   -1.1491 H   0  0  0  0  0  0  0  0  0  0  0  0
   -5.0736    1.0918    2.2417 H   0  0  0  0  0  0  0  0  0  0  0  0
   -4.9772    2.8378    1.9670 H   0  0  0  0  0  0  0  0  0  0  0  0
   -3.9911    1.7396    1.0002 H   0  0  0  0  0  0  0  0  0  0  0  0
   -8.1489    1.9742    0.4368 H   0  0  0  0  0  0  0  0  0  0  0  0
   -7.3975    2.9247    1.5272 H   0  0  0  0  0  0  0  0  0  0  0  0
  1 10  1  0  0  0  0
  1 18  1  0  0  0  0
  2  4  1  0  0  0  0
  2 10  1  0  0  0  0
  3 11  1  0  0  0  0
  3 43  1  0  0  0  0
  4 18  1  0  0  0  0
  5 25  2  0  0  0  0
  6 25  1  0  0  0  0
  6 26  1  0  0  0  0
  6 55  1  0  0  0  0
  7 27  1  0  0  0  0
  7 64  1  0  0  0  0
  7 65  1  0  0  0  0
  8 10  1  0  0  0  0
  8 13  1  0  0  0  0
  8 15  1  0  0  0  0
  8 30  1  0  0  0  0
  9 10  1  0  0  0  0
  9 14  1  0  0  0  0
  9 16  1  0  0  0  0
  9 31  1  0  0  0  0
 11 13  1  0  0  0  0
 11 14  1  0  0  0  0
 11 17  1  0  0  0  0
 12 15  1  0  0  0  0
 12 16  1  0  0  0  0
 12 17  1  0  0  0  0
 12 32  1  0  0  0  0
 13 33  1  0  0  0  0
 13 34  1  0  0  0  0
 14 35  1  0  0  0  0
 14 36  1  0  0  0  0
 15 37  1  0  0  0  0
 15 38  1  0  0  0  0
 16 39  1  0  0  0  0
 16 40  1  0  0  0  0
 17 41  1  0  0  0  0
 17 42  1  0  0  0  0
 18 19  1  0  0  0  0
 18 20  1  0  0  0  0
 19 21  1  0  0  0  0
 19 44  1  0  0  0  0
 19 45  1  0  0  0  0
 20 22  1  0  0  0  0
 20 46  1  0  0  0  0
 20 47  1  0  0  0  0
 21 23  1  0  0  0  0
 21 48  1  0  0  0  0
 21 49  1  0  0  0  0
 22 23  1  0  0  0  0
 22 50  1  0  0  0  0
 22 51  1  0  0  0  0
 23 24  1  0  0  0  0
 23 52  1  0  0  0  0
 24 25  1  0  0  0  0
 24 53  1  0  0  0  0
 24 54  1  0  0  0  0
 26 27  1  0  0  0  0
 26 56  1  0  0  0  0
 26 57  1  0  0  0  0
 27 28  1  0  0  0  0
 27 29  1  0  0  0  0
 28 58  1  0  0  0  0
 28 59  1  0  0  0  0
 28 60  1  0  0  0  0
 29 61  1  0  0  0  0
 29 62  1  0  0  0  0
 29 63  1  0  0  0  0
M  END
> <PUBCHEM_COMPOUND_CID>
11599547

> <PUBCHEM_CONFORMER_RMSD>
1

> <PUBCHEM_CONFORMER_DIVERSEORDER>
2
87
1
96
29
43
36
76
73
67
114
62
92
45
60
30
102
53
13
74
109
85
119
120
25
71
44
104
90
66
31
14
70
17
49
100
39
51
118
112
42
94
18
57
78
41
101
38
84
134
107
35
19
63
121
91
131
99
122
111
56
129
130
132
106
86
32
27
89
127
77
47
28
54
125
26
61
55
11
123
81
69
105
23
48
34
113
75
5
108
40
50
3
46
126
21
103
68
116
115
4
65
9
8
7
52
58
97
124
24
82
12
88
33
79
10
95
117
20
80
133
93
128
6
16
110
83
15
98
37
72
22
64
59

> <PUBCHEM_MMFF94_PARTIAL_CHARGES>
18
1 -0.56
10 0.56
11 0.28
18 0.56
2 -0.28
24 0.06
25 0.57
26 0.3
27 0.27
3 -0.68
4 -0.28
43 0.4
5 -0.57
55 0.37
6 -0.73
64 0.36
65 0.36
7 -0.99

> <PUBCHEM_EFFECTIVE_ROTOR_COUNT>
7.6

> <PUBCHEM_PHARMACOPHORE_FEATURES>
14
1 1 acceptor
1 3 acceptor
1 3 donor
1 5 acceptor
1 6 donor
1 7 cation
1 7 donor
3 27 28 29 hydrophobe
5 1 2 4 10 18 rings
6 18 19 20 21 22 23 rings
6 8 11 12 13 15 17 rings
6 8 9 10 11 13 14 rings
6 8 9 10 12 15 16 rings
6 9 11 12 14 16 17 rings

> <PUBCHEM_HEAVY_ATOM_COUNT>
29

> <PUBCHEM_ATOM_DEF_STEREO_COUNT>
0

> <PUBCHEM_ATOM_UDEF_STEREO_COUNT>
2

> <PUBCHEM_BOND_DEF_STEREO_COUNT>
0

> <PUBCHEM_BOND_UDEF_STEREO_COUNT>
0

> <PUBCHEM_ISOTOPIC_ATOM_COUNT>
0

> <PUBCHEM_COMPONENT_COUNT>
1

> <PUBCHEM_CACTVS_TAUTO_COUNT>
2

> <PUBCHEM_CONFORMER_ID>
00B0FEBB00000002

> <PUBCHEM_MMFF94_ENERGY>
60.0474

> <PUBCHEM_FEATURE_SELFOVERLAP>
83.575

> <PUBCHEM_SHAPE_FINGERPRINT>
100830 2 18337966640112632813
10674148 151 18336553794173220924
10763959 59 18410017615383502006
11720765 8 17345482492396786886
1200032 147 17386584573558068788
12422481 6 18040713632887984517
12633257 1 16878218757472904079
13167372 99 18410008844944121970
13878862 14 18046041810570105381
14251751 18 8502652597988054959
14251764 75 17824277105053677540
14347329 18 17989201517574529451
14347332 77 9943807781882653235
14790565 3 18410575123639882461
14840074 17 18336272271535553757
14848178 5 9151176437439402351
15001296 14 18336548321641703677
15163728 17 18202293493834968479
15183329 4 16630813209806489523
15188451 53 11241967097079374779
15238133 3 18336824286274872792
17349148 13 9007065690096083879
20567600 9 18200601306394497791
20691028 202 18340488843046687937
20715895 44 18131632279131597606
21033648 29 18129651014965298402
21298829 104 18412259571433110936
21302155 148 18411418380771673469
21774942 28 17417811708360861608
22122407 14 18261681471004304449
22956985 138 7908296332050005382
23559900 14 17844811378509376223
2838139 119 18272643580415878039
338550 245 18334576832398976885
3680242 22 17967803955861236496
392239 28 17095516323044555211
397830 11 18041294201440591835
4058900 60 18412549790736824683
4144715 1 18335991934298071107
5104073 3 17313942060228582762
57724786 102 17895196670639652252
59682541 52 13470688127227076897
6608658 132 17988910181706523341
7808743 9 18343015602081246599
960060 61 13829856862945988362

> <PUBCHEM_SHAPE_MULTIPOLES>
557.5
16.41
3.36
1.6
23.36
0.45
0.11
14.13
-1.2
1.56
0.5
-0.82
0.25
-1.68

> <PUBCHEM_SHAPE_SELFOVERLAP>
1193.162

> <PUBCHEM_SHAPE_VOLUME>
303.5

> <PUBCHEM_COORDINATE_TYPE>
2
5
10

$$$$
