11590196
  -OEChem-03292013303D

 52 55  0     1  0  0  0  0  0999 V2000
   -1.3691   -2.2035   -0.4828 O   0  0  0  0  0  0  0  0  0  0  0  0
   -3.3330   -2.0145    0.8200 O   0  0  0  0  0  0  0  0  0  0  0  0
    1.5157    0.6534    0.2331 O   0  0  0  0  0  0  0  0  0  0  0  0
   -0.1341    2.1702    0.6240 O   0  0  0  0  0  0  0  0  0  0  0  0
   -7.2659    1.4237   -2.0090 O   0  0  0  0  0  0  0  0  0  0  0  0
   -8.6412    0.7453    0.3094 O   0  0  0  0  0  0  0  0  0  0  0  0
    8.4371    2.3983   -0.2530 O   0  0  0  0  0  0  0  0  0  0  0  0
    9.7517   -0.0402   -0.0261 O   0  0  0  0  0  0  0  0  0  0  0  0
   -2.6050   -1.4584   -0.2748 C   0  0  1  0  0  0  0  0  0  0  0  0
   -2.2126   -0.0314    0.0745 C   0  0  0  0  0  0  0  0  0  0  0  0
   -0.7823   -0.0402    0.0657 C   0  0  0  0  0  0  0  0  0  0  0  0
   -0.3802   -1.2650   -0.2464 C   0  0  0  0  0  0  0  0  0  0  0  0
   -3.4304   -1.5521   -1.5587 C   0  0  0  0  0  0  0  0  0  0  0  0
   -3.0401    0.9876    0.3289 C   0  0  0  0  0  0  0  0  0  0  0  0
    0.9930   -1.6322   -0.3460 C   0  0  0  0  0  0  0  0  0  0  0  0
    0.1930    1.0267    0.3324 C   0  0  0  0  0  0  0  0  0  0  0  0
   -4.5118    0.9249    0.3204 C   0  0  0  0  0  0  0  0  0  0  0  0
    1.9001   -0.6749   -0.1062 C   0  0  0  0  0  0  0  0  0  0  0  0
   -3.7276   -3.3506    0.5511 C   0  0  0  0  0  0  0  0  0  0  0  0
   -5.1966    1.2066   -0.8509 C   0  0  0  0  0  0  0  0  0  0  0  0
   -5.1835    0.5855    1.4839 C   0  0  0  0  0  0  0  0  0  0  0  0
    3.3184   -0.8798   -0.1630 C   0  0  0  0  0  0  0  0  0  0  0  0
   -6.5901    1.1472   -0.8589 C   0  0  0  0  0  0  0  0  0  0  0  0
   -6.5770    0.5263    1.4760 C   0  0  0  0  0  0  0  0  0  0  0  0
   -7.2803    0.8071    0.3045 C   0  0  0  0  0  0  0  0  0  0  0  0
    4.1500    0.1578    0.0853 C   0  0  0  0  0  0  0  0  0  0  0  0
    5.6226    0.1093    0.0557 C   0  0  0  0  0  0  0  0  0  0  0  0
    6.3373    1.2875   -0.0858 C   0  0  0  0  0  0  0  0  0  0  0  0
    6.2632   -1.1138    0.1695 C   0  0  0  0  0  0  0  0  0  0  0  0
    7.7311    1.2415   -0.1139 C   0  0  0  0  0  0  0  0  0  0  0  0
    7.6570   -1.1599    0.1413 C   0  0  0  0  0  0  0  0  0  0  0  0
    8.3909    0.0178   -0.0004 C   0  0  0  0  0  0  0  0  0  0  0  0
   -3.0516   -0.8675   -2.3269 H   0  0  0  0  0  0  0  0  0  0  0  0
   -3.3542   -2.5533   -2.0008 H   0  0  0  0  0  0  0  0  0  0  0  0
   -4.4935   -1.3558   -1.4004 H   0  0  0  0  0  0  0  0  0  0  0  0
   -2.6496    1.9730    0.5676 H   0  0  0  0  0  0  0  0  0  0  0  0
    1.2617   -2.6493   -0.6054 H   0  0  0  0  0  0  0  0  0  0  0  0
   -4.0938   -3.7788    1.4895 H   0  0  0  0  0  0  0  0  0  0  0  0
   -2.8959   -3.9740    0.2095 H   0  0  0  0  0  0  0  0  0  0  0  0
   -4.5582   -3.3884   -0.1594 H   0  0  0  0  0  0  0  0  0  0  0  0
   -4.6574    1.4741   -1.7566 H   0  0  0  0  0  0  0  0  0  0  0  0
   -4.6469    0.3652    2.4030 H   0  0  0  0  0  0  0  0  0  0  0  0
    3.6772   -1.8685   -0.4261 H   0  0  0  0  0  0  0  0  0  0  0  0
   -7.1087    0.2606    2.3856 H   0  0  0  0  0  0  0  0  0  0  0  0
    3.7620    1.1455    0.3252 H   0  0  0  0  0  0  0  0  0  0  0  0
    5.8321    2.2461   -0.1768 H   0  0  0  0  0  0  0  0  0  0  0  0
    5.7305   -2.0505    0.3002 H   0  0  0  0  0  0  0  0  0  0  0  0
   -6.6257    1.6366   -2.7095 H   0  0  0  0  0  0  0  0  0  0  0  0
    8.1589   -2.1193    0.2349 H   0  0  0  0  0  0  0  0  0  0  0  0
   -8.9606    0.9683   -0.5822 H   0  0  0  0  0  0  0  0  0  0  0  0
    9.3853    2.1799   -0.2524 H   0  0  0  0  0  0  0  0  0  0  0  0
   10.0310   -0.9674    0.0650 H   0  0  0  0  0  0  0  0  0  0  0  0
  1  9  1  0  0  0  0
  1 12  1  0  0  0  0
  2  9  1  0  0  0  0
  2 19  1  0  0  0  0
  3 16  1  0  0  0  0
  3 18  1  0  0  0  0
  4 16  2  0  0  0  0
  5 23  1  0  0  0  0
  5 48  1  0  0  0  0
  6 25  1  0  0  0  0
  6 50  1  0  0  0  0
  7 30  1  0  0  0  0
  7 51  1  0  0  0  0
  8 32  1  0  0  0  0
  8 52  1  0  0  0  0
  9 10  1  0  0  0  0
  9 13  1  0  0  0  0
 10 11  1  0  0  0  0
 10 14  2  0  0  0  0
 11 12  2  0  0  0  0
 11 16  1  0  0  0  0
 12 15  1  0  0  0  0
 13 33  1  0  0  0  0
 13 34  1  0  0  0  0
 13 35  1  0  0  0  0
 14 17  1  0  0  0  0
 14 36  1  0  0  0  0
 15 18  2  0  0  0  0
 15 37  1  0  0  0  0
 17 20  2  0  0  0  0
 17 21  1  0  0  0  0
 18 22  1  0  0  0  0
 19 38  1  0  0  0  0
 19 39  1  0  0  0  0
 19 40  1  0  0  0  0
 20 23  1  0  0  0  0
 20 41  1  0  0  0  0
 21 24  2  0  0  0  0
 21 42  1  0  0  0  0
 22 26  2  0  0  0  0
 22 43  1  0  0  0  0
 23 25  2  0  0  0  0
 24 25  1  0  0  0  0
 24 44  1  0  0  0  0
 26 27  1  0  0  0  0
 26 45  1  0  0  0  0
 27 28  2  0  0  0  0
 27 29  1  0  0  0  0
 28 30  1  0  0  0  0
 28 46  1  0  0  0  0
 29 31  2  0  0  0  0
 29 47  1  0  0  0  0
 30 32  2  0  0  0  0
 31 32  1  0  0  0  0
 31 49  1  0  0  0  0
M  END
> <PUBCHEM_COMPOUND_CID>
11590196

> <PUBCHEM_CONFORMER_RMSD>
0.8

> <PUBCHEM_CONFORMER_DIVERSEORDER>
1
15
18
8
14
10
17
20
2
7
19
12
16
9
3
6
13
5
11
4

> <PUBCHEM_MMFF94_PARTIAL_CHARGES>
45
1 -0.36
10 -0.14
11 0.01
12 0.08
14 -0.18
15 -0.15
16 0.71
17 0.03
18 0.08
19 0.28
2 -0.56
20 -0.15
21 -0.15
22 -0.15
23 0.08
24 -0.15
25 0.08
26 -0.18
27 0.03
28 -0.15
29 -0.15
3 -0.23
30 0.08
31 -0.15
32 0.08
36 0.15
37 0.15
4 -0.57
41 0.15
42 0.15
43 0.15
44 0.15
45 0.15
46 0.15
47 0.15
48 0.45
49 0.15
5 -0.53
50 0.45
51 0.45
52 0.45
6 -0.53
7 -0.53
8 -0.53
9 0.7

> <PUBCHEM_EFFECTIVE_ROTOR_COUNT>
4.4

> <PUBCHEM_PHARMACOPHORE_FEATURES>
11
1 1 acceptor
1 2 acceptor
1 4 acceptor
1 5 donor
1 6 donor
1 7 donor
1 8 donor
5 1 9 10 11 12 rings
6 17 20 21 23 24 25 rings
6 27 28 29 30 31 32 rings
6 3 11 12 15 16 18 rings

> <PUBCHEM_HEAVY_ATOM_COUNT>
32

> <PUBCHEM_ATOM_DEF_STEREO_COUNT>
0

> <PUBCHEM_ATOM_UDEF_STEREO_COUNT>
1

> <PUBCHEM_BOND_DEF_STEREO_COUNT>
2

> <PUBCHEM_BOND_UDEF_STEREO_COUNT>
0

> <PUBCHEM_ISOTOPIC_ATOM_COUNT>
0

> <PUBCHEM_COMPONENT_COUNT>
1

> <PUBCHEM_CACTVS_TAUTO_COUNT>
51

> <PUBCHEM_CONFORMER_ID>
00B0DA3400000001

> <PUBCHEM_MMFF94_ENERGY>
106.1653

> <PUBCHEM_FEATURE_SELFOVERLAP>
55.965

> <PUBCHEM_SHAPE_FINGERPRINT>
10 15 18113338600178378035
10050765 1 18125719234272487320
11135926 11 18342455911280041983
11315181 36 17989488537142736339
12104220 1 18131355190007807513
12236239 1 18333731347650470438
12838862 33 18340753880175598384
14251764 18 17846778494477480080
14251764 46 18202283584759652368
14856354 85 15195278738719119877
15131766 46 16373569394982065140
15183329 4 18131348605506060936
15461852 350 17632293514447236239
1577012 14 18335982052163086286
15840311 113 18260271858880627044
15849732 13 18040156205761196133
17093844 174 18334857246502460467
21033648 29 18059280076666098594
21150785 3 15626222411934167020
22224240 67 15574717993254945504
22311459 1 18272370854335340568
23559900 14 18059283374573637224
23576562 1 16915928759695752776
24771293 8 18059583451475790577
249057 3 18411700998003716028
335352 9 18343862225253801973
4073 2 18260270789407727810
4169191 19 18271528606810871561
437795 83 18268984298783431309
44802255 64 18040707044830242775
5470011 282 12247673886216066064
6009941 240 18113623395196788739
6086070 43 17346309440445770706
6691757 9 17703798041621125723
9663363 56 8574709092820102425
9953998 17 16515688849194227233

> <PUBCHEM_SHAPE_MULTIPOLES>
611.59
28.01
2.27
1.04
37.69
1.16
0.15
-11.76
0.48
-1.05
0.01
-2.29
-0.09
0.19

> <PUBCHEM_SHAPE_SELFOVERLAP>
1355.776

> <PUBCHEM_SHAPE_VOLUME>
326.9

> <PUBCHEM_COORDINATE_TYPE>
2
5
10

$$$$
