11608649
  -OEChem-03292013303D

 28 29  0     1  0  0  0  0  0999 V2000
    3.4014   -0.0822   -0.1488 S   0  0  0  0  0  0  0  0  0  0  0  0
    1.9829   -0.1464    0.6763 O   0  0  0  0  0  0  0  0  0  0  0  0
    0.2395    2.1441    0.8474 O   0  0  0  0  0  0  0  0  0  0  0  0
   -4.0480   -1.0831    0.0835 O   0  0  0  0  0  0  0  0  0  0  0  0
    4.5274   -0.2193    1.0225 O   0  0  0  0  0  0  0  0  0  0  0  0
    3.5298    1.2424   -0.7274 O   0  0  0  0  0  0  0  0  0  0  0  0
    3.4916   -1.2658   -0.9834 O   0  0  0  0  0  0  0  0  0  0  0  0
   -1.2527    0.7457   -0.4357 N   0  0  0  0  0  0  0  0  0  0  0  0
    0.8850    0.0904   -0.1406 N   0  0  0  0  0  0  0  0  0  0  0  0
   -4.0695    1.0906   -0.6708 N   0  0  0  0  0  0  0  0  0  0  0  0
    0.1202   -1.0429   -0.6418 C   0  0  2  0  0  0  0  0  0  0  0  0
   -0.9219   -0.2722   -1.4319 C   0  0  0  0  0  0  0  0  0  0  0  0
   -0.6357   -1.8010    0.4815 C   0  0  0  0  0  0  0  0  0  0  0  0
   -2.1801    0.3132    0.6016 C   0  0  2  0  0  0  0  0  0  0  0  0
   -1.5839   -0.9112    1.3409 C   0  0  0  0  0  0  0  0  0  0  0  0
    0.0321    1.1760    0.1311 C   0  0  0  0  0  0  0  0  0  0  0  0
   -3.5181    0.0219   -0.0045 C   0  0  0  0  0  0  0  0  0  0  0  0
    0.7388   -1.7045   -1.2526 H   0  0  0  0  0  0  0  0  0  0  0  0
   -0.4806    0.2315   -2.3009 H   0  0  0  0  0  0  0  0  0  0  0  0
   -1.7877   -0.8564   -1.7542 H   0  0  0  0  0  0  0  0  0  0  0  0
    0.0819   -2.2970    1.1457 H   0  0  0  0  0  0  0  0  0  0  0  0
   -1.2378   -2.5922    0.0169 H   0  0  0  0  0  0  0  0  0  0  0  0
   -2.3107    1.1316    1.3215 H   0  0  0  0  0  0  0  0  0  0  0  0
   -2.3519   -1.5302    1.8185 H   0  0  0  0  0  0  0  0  0  0  0  0
   -0.9743   -0.5222    2.1692 H   0  0  0  0  0  0  0  0  0  0  0  0
   -4.9720    1.0130   -1.1278 H   0  0  0  0  0  0  0  0  0  0  0  0
   -3.6009    1.9888   -0.7330 H   0  0  0  0  0  0  0  0  0  0  0  0
    4.3726   -0.9433    1.6736 H   0  0  0  0  0  0  0  0  0  0  0  0
  1  2  1  0  0  0  0
  1  5  1  0  0  0  0
  1  6  2  0  0  0  0
  1  7  2  0  0  0  0
  2  9  1  0  0  0  0
  3 16  2  0  0  0  0
  4 17  2  0  0  0  0
  5 28  1  0  0  0  0
  8 12  1  0  0  0  0
  8 14  1  0  0  0  0
  8 16  1  0  0  0  0
  9 11  1  0  0  0  0
  9 16  1  0  0  0  0
 10 17  1  0  0  0  0
 10 26  1  0  0  0  0
 10 27  1  0  0  0  0
 11 12  1  0  0  0  0
 11 13  1  0  0  0  0
 11 18  1  0  0  0  0
 12 19  1  0  0  0  0
 12 20  1  0  0  0  0
 13 15  1  0  0  0  0
 13 21  1  0  0  0  0
 13 22  1  0  0  0  0
 14 15  1  0  0  0  0
 14 17  1  0  0  0  0
 14 23  1  0  0  0  0
 15 24  1  0  0  0  0
 15 25  1  0  0  0  0
M  END
> <PUBCHEM_COMPOUND_CID>
11608649

> <PUBCHEM_CONFORMER_RMSD>
0.6

> <PUBCHEM_CONFORMER_DIVERSEORDER>
1
5
3
4
6
2

> <PUBCHEM_MMFF94_PARTIAL_CHARGES>
18
1 1.67
10 -0.8
11 0.3
12 0.3
14 0.36
16 0.69
17 0.57
2 -0.22
26 0.37
27 0.37
28 0.5
3 -0.57
4 -0.57
5 -0.68
6 -0.65
7 -0.65
8 -0.66
9 -0.32

> <PUBCHEM_EFFECTIVE_ROTOR_COUNT>
4

> <PUBCHEM_PHARMACOPHORE_FEATURES>
8
1 10 donor
1 3 acceptor
1 4 acceptor
1 5 acceptor
1 6 acceptor
1 7 acceptor
4 1 5 6 7 anion
8 8 9 11 12 13 14 15 16 rings

> <PUBCHEM_HEAVY_ATOM_COUNT>
17

> <PUBCHEM_ATOM_DEF_STEREO_COUNT>
2

> <PUBCHEM_ATOM_UDEF_STEREO_COUNT>
0

> <PUBCHEM_BOND_DEF_STEREO_COUNT>
0

> <PUBCHEM_BOND_UDEF_STEREO_COUNT>
0

> <PUBCHEM_ISOTOPIC_ATOM_COUNT>
0

> <PUBCHEM_COMPONENT_COUNT>
1

> <PUBCHEM_CACTVS_TAUTO_COUNT>
2

> <PUBCHEM_CONFORMER_ID>
00B1224900000001

> <PUBCHEM_MMFF94_ENERGY>
68.2566

> <PUBCHEM_FEATURE_SELFOVERLAP>
40.656

> <PUBCHEM_SHAPE_FINGERPRINT>
10219947 1 18060706082505708741
11132069 177 18413387626843505527
11401426 45 18342731906131352349
12032990 46 18272094880842288999
12119455 92 18130782339357975583
13024252 1 16081084878944789619
13464514 151 18121776132863470925
13581323 91 12823293489931992272
14115302 16 18113624499451405870
14943859 89 18060132145968090878
14993402 34 17846781823129895061
15375358 24 18413103983372358720
16945 1 17749403545851317275
17846911 113 18411978044636769682
18186145 218 18187644669741238941
200 152 18408319982383669906
20279233 1 18272091600093988154
20528008 55 18040999569934528466
21501502 16 18122344850329742599
23402539 116 18340194233246940326
23559900 14 18336830801830074550
2748010 2 18123187072136882473
296302 2 16370734724581566983
3286 77 18340764970324326301
57812782 119 14979960263278834731

> <PUBCHEM_SHAPE_MULTIPOLES>
303.54
7.06
1.55
1.12
2.86
0.15
-0.03
-0.01
-0.2
-0.12
0.17
0.1
-0.11
0.33

> <PUBCHEM_SHAPE_SELFOVERLAP>
625.459

> <PUBCHEM_SHAPE_VOLUME>
175.8

> <PUBCHEM_COORDINATE_TYPE>
2
5
10

$$$$
