11609955
  -OEChem-03292013303D

 43 44  0     0  0  0  0  0  0999 V2000
    0.8751    2.6279   -0.4352 S   0  0  0  0  0  0  0  0  0  0  0  0
    1.0495    3.7168    0.5094 O   0  0  0  0  0  0  0  0  0  0  0  0
    0.6913    2.8530   -1.8567 O   0  0  0  0  0  0  0  0  0  0  0  0
   -5.6195   -1.6461   -1.4165 O   0  0  0  0  0  0  0  0  0  0  0  0
   -7.6362   -2.4811    0.1792 O   0  0  0  0  0  0  0  0  0  0  0  0
   -0.5774    1.8696    0.1151 N   0  0  0  0  0  0  0  0  0  0  0  0
    4.8118   -2.8019   -0.1980 N   0  0  0  0  0  0  0  0  0  0  0  0
   -6.5860   -1.7004    0.6818 N   0  0  0  0  0  0  0  0  0  0  0  0
    2.1346    1.4365   -0.2294 C   0  0  0  0  0  0  0  0  0  0  0  0
    4.1394   -0.4551    0.0969 C   0  0  0  0  0  0  0  0  0  0  0  0
    5.2266   -1.4814    0.2744 C   0  0  0  0  0  0  0  0  0  0  0  0
    2.4302    0.5481   -1.2633 C   0  0  0  0  0  0  0  0  0  0  0  0
    2.8463    1.3742    0.9686 C   0  0  0  0  0  0  0  0  0  0  0  0
    3.4377   -0.4024   -1.0993 C   0  0  0  0  0  0  0  0  0  0  0  0
    3.8538    0.4236    1.1325 C   0  0  0  0  0  0  0  0  0  0  0  0
   -1.3776    1.1693   -0.6887 C   0  0  0  0  0  0  0  0  0  0  0  0
   -0.9924    1.9349    1.3802 C   0  0  0  0  0  0  0  0  0  0  0  0
   -2.4113    0.7331    0.1105 C   0  0  0  0  0  0  0  0  0  0  0  0
   -2.1676    1.2173    1.4193 C   0  0  0  0  0  0  0  0  0  0  0  0
    3.6380   -3.2638    0.5421 C   0  0  0  0  0  0  0  0  0  0  0  0
    5.9087   -3.7599   -0.0662 C   0  0  0  0  0  0  0  0  0  0  0  0
   -3.4981   -0.0519   -0.3283 C   0  0  0  0  0  0  0  0  0  0  0  0
   -4.5518   -0.5191    0.4000 C   0  0  0  0  0  0  0  0  0  0  0  0
   -5.6250   -1.3414   -0.2284 C   0  0  0  0  0  0  0  0  0  0  0  0
    6.0968   -1.1343   -0.2983 H   0  0  0  0  0  0  0  0  0  0  0  0
    5.5375   -1.5305    1.3270 H   0  0  0  0  0  0  0  0  0  0  0  0
    1.8867    0.5759   -2.2035 H   0  0  0  0  0  0  0  0  0  0  0  0
    2.6291    2.0532    1.7883 H   0  0  0  0  0  0  0  0  0  0  0  0
    3.6606   -1.0760   -1.9220 H   0  0  0  0  0  0  0  0  0  0  0  0
    4.4008    0.3850    2.0703 H   0  0  0  0  0  0  0  0  0  0  0  0
   -1.1845    1.0135   -1.7423 H   0  0  0  0  0  0  0  0  0  0  0  0
   -0.4639    2.4530    2.1690 H   0  0  0  0  0  0  0  0  0  0  0  0
   -2.7696    1.0677    2.3053 H   0  0  0  0  0  0  0  0  0  0  0  0
    2.7478   -2.6552    0.3566 H   0  0  0  0  0  0  0  0  0  0  0  0
    3.8174   -3.2955    1.6234 H   0  0  0  0  0  0  0  0  0  0  0  0
    3.3663   -4.2769    0.2213 H   0  0  0  0  0  0  0  0  0  0  0  0
    5.6164   -4.7373   -0.4659 H   0  0  0  0  0  0  0  0  0  0  0  0
    6.2209   -3.8931    0.9761 H   0  0  0  0  0  0  0  0  0  0  0  0
    6.7779   -3.4322   -0.6474 H   0  0  0  0  0  0  0  0  0  0  0  0
   -3.4836   -0.3118   -1.3865 H   0  0  0  0  0  0  0  0  0  0  0  0
   -4.6364   -0.3014    1.4601 H   0  0  0  0  0  0  0  0  0  0  0  0
   -6.5866   -1.5092    1.6778 H   0  0  0  0  0  0  0  0  0  0  0  0
   -7.7727   -3.0896    0.9248 H   0  0  0  0  0  0  0  0  0  0  0  0
  1  2  2  0  0  0  0
  1  3  2  0  0  0  0
  1  6  1  0  0  0  0
  1  9  1  0  0  0  0
  4 24  2  0  0  0  0
  5  8  1  0  0  0  0
  5 43  1  0  0  0  0
  6 16  1  0  0  0  0
  6 17  1  0  0  0  0
  7 11  1  0  0  0  0
  7 20  1  0  0  0  0
  7 21  1  0  0  0  0
  8 24  1  0  0  0  0
  8 42  1  0  0  0  0
  9 12  2  0  0  0  0
  9 13  1  0  0  0  0
 10 11  1  0  0  0  0
 10 14  2  0  0  0  0
 10 15  1  0  0  0  0
 11 25  1  0  0  0  0
 11 26  1  0  0  0  0
 12 14  1  0  0  0  0
 12 27  1  0  0  0  0
 13 15  2  0  0  0  0
 13 28  1  0  0  0  0
 14 29  1  0  0  0  0
 15 30  1  0  0  0  0
 16 18  2  0  0  0  0
 16 31  1  0  0  0  0
 17 19  2  0  0  0  0
 17 32  1  0  0  0  0
 18 19  1  0  0  0  0
 18 22  1  0  0  0  0
 19 33  1  0  0  0  0
 20 34  1  0  0  0  0
 20 35  1  0  0  0  0
 20 36  1  0  0  0  0
 21 37  1  0  0  0  0
 21 38  1  0  0  0  0
 21 39  1  0  0  0  0
 22 23  2  0  0  0  0
 22 40  1  0  0  0  0
 23 24  1  0  0  0  0
 23 41  1  0  0  0  0
M  END
> <PUBCHEM_COMPOUND_CID>
11609955

> <PUBCHEM_CONFORMER_RMSD>
0.8

> <PUBCHEM_CONFORMER_DIVERSEORDER>
1
31
37
30
36
15
26
12
17
11
33
22
4
35
14
2
3
7
8
13
20
9
28
5
18
27
10
29
24
16
19
34
25
23
32
21
6
38

> <PUBCHEM_MMFF94_PARTIAL_CHARGES>
35
1 1.29
10 -0.14
11 0.41
12 -0.15
13 -0.15
14 -0.15
15 -0.15
16 -0.3
17 -0.3
18 -0.05
19 -0.15
2 -0.65
20 0.27
21 0.27
22 -0.1
23 -0.14
24 0.62
27 0.15
28 0.15
29 0.15
3 -0.65
30 0.15
31 0.15
32 0.15
33 0.15
4 -0.57
40 0.15
41 0.15
42 0.37
43 0.4
5 -0.44
6 0.32
7 -0.81
8 -0.39
9 -0.01

> <PUBCHEM_EFFECTIVE_ROTOR_COUNT>
7

> <PUBCHEM_PHARMACOPHORE_FEATURES>
7
1 2 acceptor
1 3 acceptor
1 4 acceptor
1 7 cation
1 8 donor
5 6 16 17 18 19 rings
6 9 10 12 13 14 15 rings

> <PUBCHEM_HEAVY_ATOM_COUNT>
24

> <PUBCHEM_ATOM_DEF_STEREO_COUNT>
0

> <PUBCHEM_ATOM_UDEF_STEREO_COUNT>
0

> <PUBCHEM_BOND_DEF_STEREO_COUNT>
1

> <PUBCHEM_BOND_UDEF_STEREO_COUNT>
0

> <PUBCHEM_ISOTOPIC_ATOM_COUNT>
0

> <PUBCHEM_COMPONENT_COUNT>
1

> <PUBCHEM_CACTVS_TAUTO_COUNT>
3

> <PUBCHEM_CONFORMER_ID>
00B1276300000001

> <PUBCHEM_MMFF94_ENERGY>
53.6108

> <PUBCHEM_FEATURE_SELFOVERLAP>
35.536

> <PUBCHEM_SHAPE_FINGERPRINT>
10042902 136 18266747883378244614
11497681 19 18338241449953585030
11552529 35 17906733601642854592
11761917 116 18267310820880340070
11796584 16 17978228254227254662
12107183 9 18199199408190930985
12166972 35 18113624473223024038
12623949 98 18130231463280505182
12633257 1 15841256117170933504
13103583 49 17844256125041682800
13533116 47 18340770463529612137
13631057 29 18191872228570266582
13885169 86 9511165378710237575
13911852 28 18411696552237642191
13955234 65 18055350498980703089
13965767 371 12103556447424606584
13989917 61 18264773336383508475
14251740 57 18411696582460967866
14344974 204 18050283662244413026
14429115 67 18413108342284337070
14429380 30 18336830767296808706
14528608 73 11963657963940411289
14848178 5 18410570704144616179
14919807 6 17822837716775935167
15019793 15 17907299111197363475
15342168 16 9295290525829875569
15342816 4 18341063934376536444
15475509 35 18057320789810685099
15510800 12 18187369847711536114
155225 6 9943514232983331627
17492 89 18412261722620908577
19315092 285 18131913741439672002
1979834 28 16988295234753886991
20165401 70 18270398425445172983
20567600 234 12895078444579603681
20645477 70 18042403702387246849
20775438 99 17974840971902784283
20775530 9 18339348678703999230
21307412 95 18047464530754836685
21315759 148 17130141997873264118
21401589 2 11311758567039189372
21585483 132 18126829703201593415
22224240 67 18056751260094635944
270888 7 9295277340280335042
2748736 6 8934710063740452198
2838139 119 9439413406149694339
314194 84 18337400417018773496
345986 75 17846785113391368417
3472631 163 8286198353244178321
34797466 226 16516245296899569325
3680242 22 18271534182100966935
44062 13 18262514780675281325
46194498 28 17458904950046762773
463206 1 18334580130949522202
465052 167 18340210794857053117
5104073 3 17703791392388987409
5309563 4 18338516335485092498
56616090 13 9583515421413497837
5718773 13 18409444748372154418
58260988 647 18261682553805496819
6712543 237 15841549635447433559
70251023 43 18334579074804421993
7808743 9 9115993727181225528
7970288 3 18410855442948994242

> <PUBCHEM_SHAPE_MULTIPOLES>
459.34
15.48
4.25
1.26
19.27
1.21
-0.12
22.55
0.46
-3.09
-0.01
0.04
-0.58
-0.5

> <PUBCHEM_SHAPE_SELFOVERLAP>
955.276

> <PUBCHEM_SHAPE_VOLUME>
263.1

> <PUBCHEM_COORDINATE_TYPE>
2
5
10

$$$$
