11610599
  -OEChem-03292013303D

 47 50  0     1  0  0  0  0  0999 V2000
    2.7412   -0.3444    1.0457 O   0  0  0  0  0  0  0  0  0  0  0  0
    2.0361   -3.0514   -1.2117 O   0  0  0  0  0  0  0  0  0  0  0  0
    4.1893   -2.9594    0.4437 O   0  0  0  0  0  0  0  0  0  0  0  0
    4.5154    1.7814    0.6031 O   0  0  0  0  0  0  0  0  0  0  0  0
    5.0973    2.8863   -1.2298 O   0  5  0  0  0  0  0  0  0  0  0  0
    4.9500    4.0109    0.6899 O   0  0  0  0  0  0  0  0  0  0  0  0
    0.5509   -0.5998    0.1694 N   0  0  0  0  0  0  0  0  0  0  0  0
   -3.8801    0.5319   -0.4556 N   0  0  0  0  0  0  0  0  0  0  0  0
   -0.8842    1.0347   -0.3276 N   0  0  0  0  0  0  0  0  0  0  0  0
   -1.0060   -2.4400    0.4728 N   0  0  0  0  0  0  0  0  0  0  0  0
   -3.3110   -1.7206    0.1182 N   0  0  0  0  0  0  0  0  0  0  0  0
    4.8856    3.0064   -0.0224 N   0  3  0  0  0  0  0  0  0  0  0  0
    1.8243   -1.2680    0.4278 C   0  0  1  0  0  0  0  0  0  0  0  0
    2.5200   -1.7818   -0.8235 C   0  0  1  0  0  0  0  0  0  0  0  0
    3.9674   -1.8103   -0.3737 C   0  0  1  0  0  0  0  0  0  0  0  0
    4.0618   -0.5614    0.4974 C   0  0  1  0  0  0  0  0  0  0  0  0
   -5.3009    0.2605   -0.5076 C   0  0  0  0  0  0  0  0  0  0  0  0
   -6.0352    1.3713   -1.2487 C   0  0  0  0  0  0  0  0  0  0  0  0
   -5.9137    0.3253    0.8859 C   0  0  0  0  0  0  0  0  0  0  0  0
   -6.2071    2.4849   -0.2179 C   0  0  0  0  0  0  0  0  0  0  0  0
   -6.1226    1.8141    1.1530 C   0  0  0  0  0  0  0  0  0  0  0  0
    4.4662    0.6794   -0.2861 C   0  0  0  0  0  0  0  0  0  0  0  0
   -0.6938   -1.1640    0.2002 C   0  0  0  0  0  0  0  0  0  0  0  0
   -1.5682   -0.1350   -0.1108 C   0  0  0  0  0  0  0  0  0  0  0  0
   -2.9228   -0.4501   -0.1472 C   0  0  0  0  0  0  0  0  0  0  0  0
    0.3828    0.7224   -0.1518 C   0  0  0  0  0  0  0  0  0  0  0  0
   -2.3428   -2.6233    0.4074 C   0  0  0  0  0  0  0  0  0  0  0  0
    1.6219   -2.0711    1.1471 H   0  0  0  0  0  0  0  0  0  0  0  0
    2.4016   -1.0863   -1.6632 H   0  0  0  0  0  0  0  0  0  0  0  0
    4.6796   -1.8469   -1.2029 H   0  0  0  0  0  0  0  0  0  0  0  0
    4.7360   -0.6990    1.3503 H   0  0  0  0  0  0  0  0  0  0  0  0
   -5.4894   -0.7028   -0.9946 H   0  0  0  0  0  0  0  0  0  0  0  0
   -5.5082    1.7212   -2.1422 H   0  0  0  0  0  0  0  0  0  0  0  0
   -7.0248    1.0150   -1.5608 H   0  0  0  0  0  0  0  0  0  0  0  0
   -6.8887   -0.1781    0.8810 H   0  0  0  0  0  0  0  0  0  0  0  0
   -5.3028   -0.1434    1.6637 H   0  0  0  0  0  0  0  0  0  0  0  0
   -5.4074    3.2279   -0.3187 H   0  0  0  0  0  0  0  0  0  0  0  0
   -7.1583    3.0092   -0.3558 H   0  0  0  0  0  0  0  0  0  0  0  0
   -5.2751    2.2238    1.7148 H   0  0  0  0  0  0  0  0  0  0  0  0
   -7.0246    1.9889    1.7483 H   0  0  0  0  0  0  0  0  0  0  0  0
    5.4518    0.5103   -0.7372 H   0  0  0  0  0  0  0  0  0  0  0  0
    3.7238    0.8779   -1.0690 H   0  0  0  0  0  0  0  0  0  0  0  0
   -3.5452    1.4773   -0.6061 H   0  0  0  0  0  0  0  0  0  0  0  0
    1.2125    1.4093   -0.2492 H   0  0  0  0  0  0  0  0  0  0  0  0
    1.0910   -2.9555   -1.4183 H   0  0  0  0  0  0  0  0  0  0  0  0
    5.1107   -2.9219    0.7525 H   0  0  0  0  0  0  0  0  0  0  0  0
   -2.6896   -3.6301    0.6144 H   0  0  0  0  0  0  0  0  0  0  0  0
  1 13  1  0  0  0  0
  1 16  1  0  0  0  0
  2 14  1  0  0  0  0
  2 45  1  0  0  0  0
  3 15  1  0  0  0  0
  3 46  1  0  0  0  0
  4 12  1  0  0  0  0
  4 22  1  0  0  0  0
  5 12  1  0  0  0  0
  6 12  2  0  0  0  0
  7 13  1  0  0  0  0
  7 23  1  0  0  0  0
  7 26  1  0  0  0  0
  8 17  1  0  0  0  0
  8 25  1  0  0  0  0
  8 43  1  0  0  0  0
  9 24  1  0  0  0  0
  9 26  2  0  0  0  0
 10 23  2  0  0  0  0
 10 27  1  0  0  0  0
 11 25  1  0  0  0  0
 11 27  2  0  0  0  0
 13 14  1  0  0  0  0
 13 28  1  0  0  0  0
 14 15  1  0  0  0  0
 14 29  1  0  0  0  0
 15 16  1  0  0  0  0
 15 30  1  0  0  0  0
 16 22  1  0  0  0  0
 16 31  1  0  0  0  0
 17 18  1  0  0  0  0
 17 19  1  0  0  0  0
 17 32  1  0  0  0  0
 18 20  1  0  0  0  0
 18 33  1  0  0  0  0
 18 34  1  0  0  0  0
 19 21  1  0  0  0  0
 19 35  1  0  0  0  0
 19 36  1  0  0  0  0
 20 21  1  0  0  0  0
 20 37  1  0  0  0  0
 20 38  1  0  0  0  0
 21 39  1  0  0  0  0
 21 40  1  0  0  0  0
 22 41  1  0  0  0  0
 22 42  1  0  0  0  0
 23 24  1  0  0  0  0
 24 25  2  0  0  0  0
 26 44  1  0  0  0  0
 27 47  1  0  0  0  0
M  CHG  2   5  -1  12   1
M  END
> <PUBCHEM_COMPOUND_CID>
11610599

> <PUBCHEM_CONFORMER_RMSD>
1

> <PUBCHEM_CONFORMER_DIVERSEORDER>
1
52
16
53
65
63
44
8
36
61
46
32
35
54
45
68
10
49
51
67
37
60
50
47
14
13
42
56
59
34
38
66
33
57
19
62
58
6
30
39
43
27
26
25
40
20
23
29
12
28
55
31
22
48
5
64
15
11
4
41
17
9
21
18
2
7
24
3

> <PUBCHEM_MMFF94_PARTIAL_CHARGES>
28
1 -0.56
10 -0.57
11 -0.62
12 1.03
13 0.54
14 0.28
15 0.28
16 0.28
17 0.37
2 -0.68
22 0.28
23 0.11
24 0.23
25 0.41
26 0.04
27 0.47
3 -0.68
4 -0.27
43 0.4
44 0.15
45 0.4
46 0.4
47 0.15
5 -0.52
6 -0.52
7 0.05
8 -0.87
9 -0.57

> <PUBCHEM_EFFECTIVE_ROTOR_COUNT>
8

> <PUBCHEM_PHARMACOPHORE_FEATURES>
16
1 1 acceptor
1 2 acceptor
1 2 donor
1 3 acceptor
1 3 donor
1 5 acceptor
1 6 acceptor
1 8 cation
1 8 donor
3 10 11 27 cation
3 7 10 23 cation
3 7 9 26 cation
5 1 13 14 15 16 rings
5 17 18 19 20 21 rings
5 7 9 23 24 26 rings
6 10 11 23 24 25 27 rings

> <PUBCHEM_HEAVY_ATOM_COUNT>
27

> <PUBCHEM_ATOM_DEF_STEREO_COUNT>
4

> <PUBCHEM_ATOM_UDEF_STEREO_COUNT>
0

> <PUBCHEM_BOND_DEF_STEREO_COUNT>
0

> <PUBCHEM_BOND_UDEF_STEREO_COUNT>
0

> <PUBCHEM_ISOTOPIC_ATOM_COUNT>
0

> <PUBCHEM_COMPONENT_COUNT>
1

> <PUBCHEM_CACTVS_TAUTO_COUNT>
3

> <PUBCHEM_CONFORMER_ID>
00B129E700000001

> <PUBCHEM_MMFF94_ENERGY>
65.2827

> <PUBCHEM_FEATURE_SELFOVERLAP>
81.886

> <PUBCHEM_SHAPE_FINGERPRINT>
10 15 17894915148455282793
10835480 77 18410006641726301373
10906281 52 18059588970597962273
11796584 16 14261050066516294911
12236239 1 17917142781523348683
12422481 6 17531238491422978973
12788726 201 17560808680031208137
14790565 3 18338801087964981169
15081414 286 18333734610871489893
15183329 4 16128367130951905419
15840311 113 18337958879512456181
17844677 252 18337956662918791685
17980427 23 17750795652273794638
19427546 62 18411418423357537798
20691028 202 18341331090249221977
21033648 29 17240756256182224725
21033650 10 14835860460419717195
21304253 335 18260270780099881396
21315764 268 18189611657684238053
21859007 373 17387113296384371541
23559900 14 18411980231123958386
2916195 48 18334293167621135649
335352 9 18337670798174606190
34797466 226 17989215875280668349
4340502 62 16009038224552691979
5104073 3 18186799209729432826
633830 44 18410565167932414943

> <PUBCHEM_SHAPE_MULTIPOLES>
490.55
15.86
3.78
0.98
11.99
1.94
0.07
12.72
-0.05
-5.71
0
0.33
0.14
0.42

> <PUBCHEM_SHAPE_SELFOVERLAP>
1055.89

> <PUBCHEM_SHAPE_VOLUME>
269.1

> <PUBCHEM_COORDINATE_TYPE>
2
5
10

$$$$
