11611800
  -OEChem-03292013303D

 58 60  0     1  0  0  0  0  0999 V2000
    2.0574    1.1300    0.6774 O   0  0  0  0  0  0  0  0  0  0  0  0
   -4.6936    3.2045   -0.3882 O   0  0  0  0  0  0  0  0  0  0  0  0
    5.1103   -2.3408   -0.5656 O   0  0  0  0  0  0  0  0  0  0  0  0
    7.6634   -1.7909   -0.0217 O   0  0  0  0  0  0  0  0  0  0  0  0
   -5.2010   -2.7732   -1.9230 O   0  0  0  0  0  0  0  0  0  0  0  0
   -6.1733   -3.7922   -0.1389 O   0  0  0  0  0  0  0  0  0  0  0  0
    3.5686   -0.6233    0.0511 C   0  0  0  0  0  0  0  0  0  0  0  0
    2.4238   -1.5640   -0.1490 C   0  0  0  0  0  0  0  0  0  0  0  0
    3.3348    0.6866    0.4568 C   0  0  0  0  0  0  0  0  0  0  0  0
   -4.1177    1.9342   -0.7451 C   0  0  1  0  0  0  0  0  0  0  0  0
    2.0758   -2.3313    1.1325 C   0  0  0  0  0  0  0  0  0  0  0  0
   -2.6043    2.0102   -0.5788 C   0  0  0  0  0  0  0  0  0  0  0  0
    4.8762   -1.0567   -0.1677 C   0  0  0  0  0  0  0  0  0  0  0  0
    0.1324    2.1486   -0.2783 C   0  0  0  0  0  0  0  0  0  0  0  0
    1.6129    2.2237   -0.1161 C   0  0  0  0  0  0  0  0  0  0  0  0
    5.9430   -0.1779    0.0204 C   0  0  0  0  0  0  0  0  0  0  0  0
   -4.7456    0.7929   -0.0185 C   0  0  0  0  0  0  0  0  0  0  0  0
    4.3945    1.5679    0.6460 C   0  0  0  0  0  0  0  0  0  0  0  0
   -2.0880    2.7091    0.4915 C   0  0  0  0  0  0  0  0  0  0  0  0
   -1.8017    1.3781   -1.5043 C   0  0  0  0  0  0  0  0  0  0  0  0
   -0.7032    2.7791    0.6434 C   0  0  0  0  0  0  0  0  0  0  0  0
   -0.4169    1.4481   -1.3522 C   0  0  0  0  0  0  0  0  0  0  0  0
    5.7020    1.1343    0.4272 C   0  0  0  0  0  0  0  0  0  0  0  0
    0.8899   -3.2611    0.9304 C   0  0  0  0  0  0  0  0  0  0  0  0
   -4.9081   -0.4362   -0.6576 C   0  0  0  0  0  0  0  0  0  0  0  0
   -5.1712    0.9550    1.3000 C   0  0  0  0  0  0  0  0  0  0  0  0
    7.3165   -0.6078   -0.2026 C   0  0  0  0  0  0  0  0  0  0  0  0
   -5.4963   -1.5031    0.0216 C   0  0  0  0  0  0  0  0  0  0  0  0
   -5.7593   -0.1119    1.9792 C   0  0  0  0  0  0  0  0  0  0  0  0
   -5.9220   -1.3410    1.3401 C   0  0  0  0  0  0  0  0  0  0  0  0
    8.3674    0.3935   -0.6661 C   0  0  0  0  0  0  0  0  0  0  0  0
   -5.6667   -2.7848   -0.6439 C   0  0  0  0  0  0  0  0  0  0  0  0
    1.5414   -1.0177   -0.5048 H   0  0  0  0  0  0  0  0  0  0  0  0
    2.6494   -2.2726   -0.9562 H   0  0  0  0  0  0  0  0  0  0  0  0
   -4.3407    1.8395   -1.8164 H   0  0  0  0  0  0  0  0  0  0  0  0
    2.9399   -2.9191    1.4653 H   0  0  0  0  0  0  0  0  0  0  0  0
    1.8423   -1.6275    1.9406 H   0  0  0  0  0  0  0  0  0  0  0  0
    2.0934    2.2201   -1.1042 H   0  0  0  0  0  0  0  0  0  0  0  0
    1.8935    3.1635    0.3755 H   0  0  0  0  0  0  0  0  0  0  0  0
    4.2226    2.5889    0.9749 H   0  0  0  0  0  0  0  0  0  0  0  0
   -2.7225    3.1989    1.2236 H   0  0  0  0  0  0  0  0  0  0  0  0
   -2.2204    0.8297   -2.3425 H   0  0  0  0  0  0  0  0  0  0  0  0
   -0.2876    3.3247    1.4865 H   0  0  0  0  0  0  0  0  0  0  0  0
    0.2236    0.9505   -2.0757 H   0  0  0  0  0  0  0  0  0  0  0  0
    6.5126    1.8374    0.5977 H   0  0  0  0  0  0  0  0  0  0  0  0
    0.6642   -3.7955    1.8585 H   0  0  0  0  0  0  0  0  0  0  0  0
    1.1017   -4.0027    0.1536 H   0  0  0  0  0  0  0  0  0  0  0  0
   -0.0024   -2.6993    0.6359 H   0  0  0  0  0  0  0  0  0  0  0  0
   -4.5672   -0.5340   -1.6850 H   0  0  0  0  0  0  0  0  0  0  0  0
   -5.0491    1.9012    1.8201 H   0  0  0  0  0  0  0  0  0  0  0  0
   -5.6603    3.0997   -0.3683 H   0  0  0  0  0  0  0  0  0  0  0  0
   -6.0893    0.0140    3.0063 H   0  0  0  0  0  0  0  0  0  0  0  0
   -6.3822   -2.1598    1.8869 H   0  0  0  0  0  0  0  0  0  0  0  0
    6.0471   -2.4722   -0.7800 H   0  0  0  0  0  0  0  0  0  0  0  0
    8.8348    0.8633    0.2027 H   0  0  0  0  0  0  0  0  0  0  0  0
    7.9226    1.1511   -1.3170 H   0  0  0  0  0  0  0  0  0  0  0  0
    9.1285   -0.1335   -1.2495 H   0  0  0  0  0  0  0  0  0  0  0  0
   -5.3211   -3.6416   -2.3630 H   0  0  0  0  0  0  0  0  0  0  0  0
  1  9  1  0  0  0  0
  1 15  1  0  0  0  0
  2 10  1  0  0  0  0
  2 51  1  0  0  0  0
  3 13  1  0  0  0  0
  3 54  1  0  0  0  0
  4 27  2  0  0  0  0
  5 32  1  0  0  0  0
  5 58  1  0  0  0  0
  6 32  2  0  0  0  0
  7  8  1  0  0  0  0
  7  9  2  0  0  0  0
  7 13  1  0  0  0  0
  8 11  1  0  0  0  0
  8 33  1  0  0  0  0
  8 34  1  0  0  0  0
  9 18  1  0  0  0  0
 10 12  1  0  0  0  0
 10 17  1  0  0  0  0
 10 35  1  0  0  0  0
 11 24  1  0  0  0  0
 11 36  1  0  0  0  0
 11 37  1  0  0  0  0
 12 19  2  0  0  0  0
 12 20  1  0  0  0  0
 13 16  2  0  0  0  0
 14 15  1  0  0  0  0
 14 21  2  0  0  0  0
 14 22  1  0  0  0  0
 15 38  1  0  0  0  0
 15 39  1  0  0  0  0
 16 23  1  0  0  0  0
 16 27  1  0  0  0  0
 17 25  2  0  0  0  0
 17 26  1  0  0  0  0
 18 23  2  0  0  0  0
 18 40  1  0  0  0  0
 19 21  1  0  0  0  0
 19 41  1  0  0  0  0
 20 22  2  0  0  0  0
 20 42  1  0  0  0  0
 21 43  1  0  0  0  0
 22 44  1  0  0  0  0
 23 45  1  0  0  0  0
 24 46  1  0  0  0  0
 24 47  1  0  0  0  0
 24 48  1  0  0  0  0
 25 28  1  0  0  0  0
 25 49  1  0  0  0  0
 26 29  2  0  0  0  0
 26 50  1  0  0  0  0
 27 31  1  0  0  0  0
 28 30  2  0  0  0  0
 28 32  1  0  0  0  0
 29 30  1  0  0  0  0
 29 52  1  0  0  0  0
 30 53  1  0  0  0  0
 31 55  1  0  0  0  0
 31 56  1  0  0  0  0
 31 57  1  0  0  0  0
M  END
> <PUBCHEM_COMPOUND_CID>
11611800

> <PUBCHEM_CONFORMER_RMSD>
1

> <PUBCHEM_CONFORMER_DIVERSEORDER>
1
84
13
59
25
29
92
90
58
15
24
56
104
124
116
79
108
46
125
128
65
94
70
55
64
12
101
86
114
107
96
33
71
93
111
112
14
120
89
75
102
88
80
62
35
115
109
113
72
126
123
78
43
51
49
82
27
95
110
61
18
85
131
119
42
5
106
21
44
66
36
48
22
73
32
121
127
26
60
54
98
20
118
81
53
67
16
103
97
28
69
57
87
77
122
7
30
45
105
91
3
99
117
40
6
19
37
68
47
9
74
17
129
83
41
39
38
63
76
8
10
2
100
23
52
31
50
34
4
130
11

> <PUBCHEM_MMFF94_PARTIAL_CHARGES>
43
1 -0.36
10 0.57
12 -0.14
13 0.08
14 -0.14
15 0.42
16 0.09
17 -0.14
18 -0.15
19 -0.15
2 -0.68
20 -0.15
21 -0.15
22 -0.15
23 -0.15
25 -0.15
26 -0.15
27 0.42
28 0.09
29 -0.15
3 -0.53
30 -0.15
31 0.06
32 0.63
4 -0.57
40 0.15
41 0.15
42 0.15
43 0.15
44 0.15
45 0.15
49 0.15
5 -0.65
50 0.15
51 0.4
52 0.15
53 0.15
54 0.45
58 0.5
6 -0.57
7 -0.14
8 0.14
9 0.08

> <PUBCHEM_EFFECTIVE_ROTOR_COUNT>
9

> <PUBCHEM_PHARMACOPHORE_FEATURES>
12
1 1 acceptor
1 2 acceptor
1 2 donor
1 24 hydrophobe
1 3 donor
1 4 acceptor
1 5 acceptor
1 6 acceptor
3 5 6 32 anion
6 12 14 19 20 21 22 rings
6 17 25 26 28 29 30 rings
6 7 9 13 16 18 23 rings

> <PUBCHEM_HEAVY_ATOM_COUNT>
32

> <PUBCHEM_ATOM_DEF_STEREO_COUNT>
1

> <PUBCHEM_ATOM_UDEF_STEREO_COUNT>
0

> <PUBCHEM_BOND_DEF_STEREO_COUNT>
0

> <PUBCHEM_BOND_UDEF_STEREO_COUNT>
0

> <PUBCHEM_ISOTOPIC_ATOM_COUNT>
0

> <PUBCHEM_COMPONENT_COUNT>
1

> <PUBCHEM_CACTVS_TAUTO_COUNT>
9

> <PUBCHEM_CONFORMER_ID>
00B12E9800000001

> <PUBCHEM_MMFF94_ENERGY>
99.6751

> <PUBCHEM_FEATURE_SELFOVERLAP>
60.955

> <PUBCHEM_SHAPE_FINGERPRINT>
10391435 84 18338222834526113017
10462674 296 17770765012549516783
10864689 126 17977389334849396407
11136131 41 17969211253784377010
117089 54 18045788055519032091
11963148 33 18262230015991343090
12522641 126 18044659930375979868
12559416 138 18340758343217358039
12596602 18 17703511081670193121
13103583 49 17917440834778916969
13402501 40 18333735714619406578
13631057 29 18409726262040045661
13690498 29 18113614574078040413
13782708 43 18187639189932869816
14950920 106 17417813993647459849
15064981 113 13334741176969792898
15352257 5 18411702080240243218
15361156 5 18040161703678641757
15510800 12 17968383467577849419
16993427 108 17199941474443578599
17627616 140 17895743012007904955
17780758 139 17989211430543879137
18608769 82 18411699877059137936
20028762 73 18413388756895086862
20105231 36 17846788386725965526
208703 8 18267579294774215215
21197605 99 18341049735283123214
23559900 14 18336818719707996881
25269216 80 15647049405208181399
3737641 26 18339082575420379371
392239 28 18411704257498538081
4073 2 18263084318718313216
437795 51 18059569235529654072
463206 1 18264495156025664579
484989 97 18411704288349461722
5381727 24 18187364321665152576
6431902 208 18334857251440901803
8863177 126 18342453768254852392
999808 66 18272373040452491316

> <PUBCHEM_SHAPE_MULTIPOLES>
623.33
21.53
4.06
1.28
17.49
1.63
-0.03
11
0.23
-4.89
0.26
-1.88
0.2
-0.4

> <PUBCHEM_SHAPE_SELFOVERLAP>
1343.8

> <PUBCHEM_SHAPE_VOLUME>
341.6

> <PUBCHEM_COORDINATE_TYPE>
2
5
10

$$$$
