11619470
  -OEChem-03292013303D

 55 57  0     0  0  0  0  0  0999 V2000
    7.0172   -0.3550    0.5020 O   0  0  0  0  0  0  0  0  0  0  0  0
    0.3478    3.3801   -1.7320 O   0  0  0  0  0  0  0  0  0  0  0  0
   -7.8526   -3.4078    0.1532 O   0  0  0  0  0  0  0  0  0  0  0  0
  -10.4091   -2.6436   -0.1855 O   0  0  0  0  0  0  0  0  0  0  0  0
    1.8513    1.4329    0.9218 N   0  0  0  0  0  0  0  0  0  0  0  0
    8.0170   -2.9043   -0.2131 N   0  0  0  0  0  0  0  0  0  0  0  0
   -0.5910    2.7122    0.2552 N   0  0  0  0  0  0  0  0  0  0  0  0
   -9.3692   -1.7027   -0.1716 N   0  0  0  0  0  0  0  0  0  0  0  0
    3.7844    1.2385   -0.1748 C   0  0  0  0  0  0  0  0  0  0  0  0
    3.1184    0.9010    1.0053 C   0  0  0  0  0  0  0  0  0  0  0  0
    1.6939    2.0934   -0.2671 C   0  0  0  0  0  0  0  0  0  0  0  0
    2.8735    1.9907   -0.9680 C   0  0  0  0  0  0  0  0  0  0  0  0
    5.1158    0.8111   -0.3481 C   0  0  0  0  0  0  0  0  0  0  0  0
    5.7303    0.0639    0.6634 C   0  0  0  0  0  0  0  0  0  0  0  0
    3.7196    0.1543    2.0247 C   0  0  0  0  0  0  0  0  0  0  0  0
    8.5315   -1.6766   -0.8012 C   0  0  0  0  0  0  0  0  0  0  0  0
    7.4545   -0.6039   -0.8322 C   0  0  0  0  0  0  0  0  0  0  0  0
    5.0410   -0.2583    1.8307 C   0  0  0  0  0  0  0  0  0  0  0  0
    0.4873    2.7532   -0.6540 C   0  0  0  0  0  0  0  0  0  0  0  0
    6.8729   -3.4059   -0.9781 C   0  0  0  0  0  0  0  0  0  0  0  0
    9.0656   -3.9251   -0.1443 C   0  0  0  0  0  0  0  0  0  0  0  0
   -1.8631    3.3564    0.0181 C   0  0  0  0  0  0  0  0  0  0  0  0
   -2.9536    2.3824    0.0146 C   0  0  0  0  0  0  0  0  0  0  0  0
   -4.9187    0.6318    0.0098 C   0  0  0  0  0  0  0  0  0  0  0  0
   -6.9985   -1.2251    0.0103 C   0  0  0  0  0  0  0  0  0  0  0  0
   -4.6753   -0.6854   -0.3762 C   0  0  0  0  0  0  0  0  0  0  0  0
   -6.2000    1.0223    0.3960 C   0  0  0  0  0  0  0  0  0  0  0  0
   -5.7158   -1.6144   -0.3760 C   0  0  0  0  0  0  0  0  0  0  0  0
   -7.2405    0.0931    0.3964 C   0  0  0  0  0  0  0  0  0  0  0  0
   -3.8510    1.5839    0.0117 C   0  0  0  0  0  0  0  0  0  0  0  0
   -8.0837   -2.1931    0.0092 C   0  0  0  0  0  0  0  0  0  0  0  0
    3.0670    2.4090   -1.9470 H   0  0  0  0  0  0  0  0  0  0  0  0
    1.1517    1.3386    1.6440 H   0  0  0  0  0  0  0  0  0  0  0  0
    5.6353    1.1049   -1.2544 H   0  0  0  0  0  0  0  0  0  0  0  0
    3.1838   -0.0974    2.9337 H   0  0  0  0  0  0  0  0  0  0  0  0
    8.9181   -1.8408   -1.8150 H   0  0  0  0  0  0  0  0  0  0  0  0
    9.3623   -1.3103   -0.1849 H   0  0  0  0  0  0  0  0  0  0  0  0
    6.6438   -0.8882   -1.5131 H   0  0  0  0  0  0  0  0  0  0  0  0
    7.8990    0.3214   -1.2196 H   0  0  0  0  0  0  0  0  0  0  0  0
    5.5320   -0.8408    2.6068 H   0  0  0  0  0  0  0  0  0  0  0  0
    6.5815   -4.4002   -0.6177 H   0  0  0  0  0  0  0  0  0  0  0  0
    7.0913   -3.4926   -2.0488 H   0  0  0  0  0  0  0  0  0  0  0  0
    5.9817   -2.7863   -0.8403 H   0  0  0  0  0  0  0  0  0  0  0  0
    9.9121   -3.5674    0.4525 H   0  0  0  0  0  0  0  0  0  0  0  0
    9.4363   -4.2040   -1.1374 H   0  0  0  0  0  0  0  0  0  0  0  0
    8.6929   -4.8279    0.3524 H   0  0  0  0  0  0  0  0  0  0  0  0
   -0.4894    2.2305    1.1418 H   0  0  0  0  0  0  0  0  0  0  0  0
   -1.8449    3.9138   -0.9230 H   0  0  0  0  0  0  0  0  0  0  0  0
   -2.0057    4.0786    0.8285 H   0  0  0  0  0  0  0  0  0  0  0  0
   -3.6809   -1.0036   -0.6804 H   0  0  0  0  0  0  0  0  0  0  0  0
   -6.4026    2.0451    0.7045 H   0  0  0  0  0  0  0  0  0  0  0  0
   -5.5076   -2.6356   -0.6845 H   0  0  0  0  0  0  0  0  0  0  0  0
   -8.2198    0.4286    0.7255 H   0  0  0  0  0  0  0  0  0  0  0  0
   -9.6245   -0.7470   -0.3935 H   0  0  0  0  0  0  0  0  0  0  0  0
  -10.9801   -2.2622   -0.8735 H   0  0  0  0  0  0  0  0  0  0  0  0
  1 14  1  0  0  0  0
  1 17  1  0  0  0  0
  2 19  2  0  0  0  0
  3 31  2  0  0  0  0
  4  8  1  0  0  0  0
  4 55  1  0  0  0  0
  5 10  1  0  0  0  0
  5 11  1  0  0  0  0
  5 33  1  0  0  0  0
  6 16  1  0  0  0  0
  6 20  1  0  0  0  0
  6 21  1  0  0  0  0
  7 19  1  0  0  0  0
  7 22  1  0  0  0  0
  7 47  1  0  0  0  0
  8 31  1  0  0  0  0
  8 54  1  0  0  0  0
  9 10  2  0  0  0  0
  9 12  1  0  0  0  0
  9 13  1  0  0  0  0
 10 15  1  0  0  0  0
 11 12  2  0  0  0  0
 11 19  1  0  0  0  0
 12 32  1  0  0  0  0
 13 14  2  0  0  0  0
 13 34  1  0  0  0  0
 14 18  1  0  0  0  0
 15 18  2  0  0  0  0
 15 35  1  0  0  0  0
 16 17  1  0  0  0  0
 16 36  1  0  0  0  0
 16 37  1  0  0  0  0
 17 38  1  0  0  0  0
 17 39  1  0  0  0  0
 18 40  1  0  0  0  0
 20 41  1  0  0  0  0
 20 42  1  0  0  0  0
 20 43  1  0  0  0  0
 21 44  1  0  0  0  0
 21 45  1  0  0  0  0
 21 46  1  0  0  0  0
 22 23  1  0  0  0  0
 22 48  1  0  0  0  0
 22 49  1  0  0  0  0
 23 30  3  0  0  0  0
 24 26  2  0  0  0  0
 24 27  1  0  0  0  0
 24 30  1  0  0  0  0
 25 28  2  0  0  0  0
 25 29  1  0  0  0  0
 25 31  1  0  0  0  0
 26 28  1  0  0  0  0
 26 50  1  0  0  0  0
 27 29  2  0  0  0  0
 27 51  1  0  0  0  0
 28 52  1  0  0  0  0
 29 53  1  0  0  0  0
M  END
> <PUBCHEM_COMPOUND_CID>
11619470

> <PUBCHEM_CONFORMER_RMSD>
1

> <PUBCHEM_CONFORMER_DIVERSEORDER>
16
72
39
57
28
4
25
73
26
13
36
42
50
53
74
68
66
41
3
40
47
67
34
64
56
22
17
58
44
31
10
48
37
15
62
19
8
21
46
18
71
32
9
70
1
49
76
24
69
54
63
14
29
2
60
7
23
75
33
27
11
35
30
45
51
65
52
59
55
61
20
38
5
6
12
43

> <PUBCHEM_MMFF94_PARTIAL_CHARGES>
42
1 -0.36
10 -0.15
11 -0.24
12 -0.15
13 -0.15
14 0.08
15 -0.15
16 0.27
17 0.28
18 -0.15
19 0.71
2 -0.57
20 0.27
21 0.27
22 0.5
23 -0.2
24 0.07
25 0.09
26 -0.15
27 -0.15
28 -0.15
29 -0.15
3 -0.57
30 -0.07
31 0.54
32 0.15
33 0.27
34 0.15
35 0.15
4 -0.44
40 0.15
47 0.37
5 0.03
50 0.15
51 0.15
52 0.15
53 0.15
54 0.37
55 0.4
6 -0.81
7 -0.73
8 -0.39

> <PUBCHEM_EFFECTIVE_ROTOR_COUNT>
9

> <PUBCHEM_PHARMACOPHORE_FEATURES>
11
1 1 acceptor
1 2 acceptor
1 3 acceptor
1 5 cation
1 5 donor
1 6 cation
1 7 donor
1 8 donor
5 5 9 10 11 12 rings
6 24 25 26 27 28 29 rings
6 9 10 13 14 15 18 rings

> <PUBCHEM_HEAVY_ATOM_COUNT>
31

> <PUBCHEM_ATOM_DEF_STEREO_COUNT>
0

> <PUBCHEM_ATOM_UDEF_STEREO_COUNT>
0

> <PUBCHEM_BOND_DEF_STEREO_COUNT>
0

> <PUBCHEM_BOND_UDEF_STEREO_COUNT>
0

> <PUBCHEM_ISOTOPIC_ATOM_COUNT>
0

> <PUBCHEM_COMPONENT_COUNT>
1

> <PUBCHEM_CACTVS_TAUTO_COUNT>
9

> <PUBCHEM_CONFORMER_ID>
00B14C8E00000010

> <PUBCHEM_MMFF94_ENERGY>
73.3359

> <PUBCHEM_FEATURE_SELFOVERLAP>
55.916

> <PUBCHEM_SHAPE_FINGERPRINT>
10258705 36 18128261095520868078
10280341 67 10231762163145851971
10669705 251 18271811190053331382
10740516 88 18129392510149725582
11421887 21 11097843069323339119
11463208 1 18055924191048453494
11497681 19 18334859373402951796
11607047 74 18192152810073240452
117089 54 18410863122455949702
12013929 94 18343023277614806164
12592606 108 18335418011372478153
12895837 130 7925330931900634664
13248334 5 17976541933808907653
14344974 204 18340771455165891254
14931854 50 17603581915597440585
15152005 304 18339936973143903095
15152005 77 18343860022674473991
15183329 4 17749384897520186441
15347591 1 18411419492778800244
15455200 90 17386552563783575261
15510800 12 18413386532143875341
15773216 30 18265900349014129620
15781502 237 18269272366122581497
16991971 28 18260833704246763424
19841028 212 18261950881834566697
20028762 73 18410009944302769147
2026 5 18412544302016280519
20721686 146 8358243862294142402
208703 8 18335979835158381221
20982279 24 17677906802799733835
212700 22 18411128143634391383
21424621 283 9871457721783213804
21585481 151 18341051835252813515
23522609 53 18045251373612363005
23523788 1 17560813095089004677
255183 451 18259985989535895812
2835820 83 18411420618259873447
3711267 37 7925637743469731863
406291 66 18409166610299643819
44802255 64 12757732897424401136
44880168 125 18130213926143091063
54039377 194 18408325497121782029
5718773 13 18410575097849141901
5937810 71 12179839469095961207
6712543 237 16415483779065572509
96874 4 18260821618683468609

> <PUBCHEM_SHAPE_MULTIPOLES>
594.56
34.42
4.63
1.16
22.43
1.83
0.32
47.99
-2.18
-0.75
-1.3
-1.96
-0.3
0.89

> <PUBCHEM_SHAPE_SELFOVERLAP>
1268.482

> <PUBCHEM_SHAPE_VOLUME>
330.9

> <PUBCHEM_COORDINATE_TYPE>
2
5
10

$$$$
