11624303
  -OEChem-03292013303D

 43 45  0     0  0  0  0  0  0999 V2000
   -1.9155   -2.4706    0.3958 O   0  0  0  0  0  0  0  0  0  0  0  0
    5.5733   -0.8270    0.0413 O   0  0  0  0  0  0  0  0  0  0  0  0
   -6.8931    0.9556    0.1845 O   0  0  0  0  0  0  0  0  0  0  0  0
    1.8782    1.4202   -0.0887 N   0  0  0  0  0  0  0  0  0  0  0  0
    2.6164   -0.6675    0.1004 N   0  0  0  0  0  0  0  0  0  0  0  0
    4.2326    1.1063   -0.1162 N   0  0  0  0  0  0  0  0  0  0  0  0
    6.5433    1.2560   -0.1874 N   0  0  0  0  0  0  0  0  0  0  0  0
   -4.9228    0.6907    1.3710 N   0  0  0  0  0  0  0  0  0  0  0  0
   -4.9851    0.4508   -1.0260 N   0  0  0  0  0  0  0  0  0  0  0  0
    0.7537    0.6426    0.0179 C   0  0  0  0  0  0  0  0  0  0  0  0
    1.2409   -0.6561    0.1346 C   0  0  0  0  0  0  0  0  0  0  0  0
   -1.4971   -0.1163    0.1515 C   0  0  0  0  0  0  0  0  0  0  0  0
   -0.6063    0.9543    0.0219 C   0  0  0  0  0  0  0  0  0  0  0  0
   -1.0386   -1.4303    0.2706 C   0  0  0  0  0  0  0  0  0  0  0  0
    0.3318   -1.7196    0.2641 C   0  0  0  0  0  0  0  0  0  0  0  0
    2.9648    0.5925   -0.0340 C   0  0  0  0  0  0  0  0  0  0  0  0
   -2.9194    0.1670    0.1602 C   0  0  0  0  0  0  0  0  0  0  0  0
   -3.6009    0.4243    1.3263 C   0  0  0  0  0  0  0  0  0  0  0  0
   -3.6612    0.1919   -0.9973 C   0  0  0  0  0  0  0  0  0  0  0  0
    5.4495    0.3895   -0.0758 C   0  0  0  0  0  0  0  0  0  0  0  0
    7.9135    0.7985   -0.1760 C   0  0  0  0  0  0  0  0  0  0  0  0
   -2.3604   -3.0866   -0.8090 C   0  0  0  0  0  0  0  0  0  0  0  0
   -5.5438    0.6879    0.1761 C   0  0  0  0  0  0  0  0  0  0  0  0
    7.9947   -0.7070   -0.0305 C   0  0  0  0  0  0  0  0  0  0  0  0
   -7.5486    0.9528   -1.0754 C   0  0  0  0  0  0  0  0  0  0  0  0
   -0.9443    1.9814   -0.0718 H   0  0  0  0  0  0  0  0  0  0  0  0
    0.6862   -2.7416    0.3572 H   0  0  0  0  0  0  0  0  0  0  0  0
    1.9000    2.4262   -0.1893 H   0  0  0  0  0  0  0  0  0  0  0  0
    4.2989    2.1158   -0.2179 H   0  0  0  0  0  0  0  0  0  0  0  0
   -3.1057    0.4271    2.2924 H   0  0  0  0  0  0  0  0  0  0  0  0
   -3.2164    0.0058   -1.9699 H   0  0  0  0  0  0  0  0  0  0  0  0
    6.3703    2.2518   -0.2810 H   0  0  0  0  0  0  0  0  0  0  0  0
    8.3793    1.1265   -1.1103 H   0  0  0  0  0  0  0  0  0  0  0  0
    8.4223    1.2992    0.6534 H   0  0  0  0  0  0  0  0  0  0  0  0
   -3.3807   -3.4487   -0.6555 H   0  0  0  0  0  0  0  0  0  0  0  0
   -1.7152   -3.9415   -1.0328 H   0  0  0  0  0  0  0  0  0  0  0  0
   -2.3540   -2.3984   -1.6602 H   0  0  0  0  0  0  0  0  0  0  0  0
    7.6116   -1.0694    0.9292 H   0  0  0  0  0  0  0  0  0  0  0  0
    7.5670   -1.2468   -0.8818 H   0  0  0  0  0  0  0  0  0  0  0  0
    9.0572   -0.9842   -0.0296 H   0  0  0  0  0  0  0  0  0  0  0  0
   -7.1408    1.7272   -1.7339 H   0  0  0  0  0  0  0  0  0  0  0  0
   -8.6054    1.1796   -0.9057 H   0  0  0  0  0  0  0  0  0  0  0  0
   -7.4889   -0.0331   -1.5488 H   0  0  0  0  0  0  0  0  0  0  0  0
  1 14  1  0  0  0  0
  1 22  1  0  0  0  0
  2 20  2  0  0  0  0
  3 23  1  0  0  0  0
  3 25  1  0  0  0  0
  4 10  1  0  0  0  0
  4 16  1  0  0  0  0
  4 28  1  0  0  0  0
  5 11  1  0  0  0  0
  5 16  2  0  0  0  0
  6 16  1  0  0  0  0
  6 20  1  0  0  0  0
  6 29  1  0  0  0  0
  7 20  1  0  0  0  0
  7 21  1  0  0  0  0
  7 32  1  0  0  0  0
  8 18  2  0  0  0  0
  8 23  1  0  0  0  0
  9 19  1  0  0  0  0
  9 23  2  0  0  0  0
 10 11  2  0  0  0  0
 10 13  1  0  0  0  0
 11 15  1  0  0  0  0
 12 13  2  0  0  0  0
 12 14  1  0  0  0  0
 12 17  1  0  0  0  0
 13 26  1  0  0  0  0
 14 15  2  0  0  0  0
 15 27  1  0  0  0  0
 17 18  1  0  0  0  0
 17 19  2  0  0  0  0
 18 30  1  0  0  0  0
 19 31  1  0  0  0  0
 21 24  1  0  0  0  0
 21 33  1  0  0  0  0
 21 34  1  0  0  0  0
 22 35  1  0  0  0  0
 22 36  1  0  0  0  0
 22 37  1  0  0  0  0
 24 38  1  0  0  0  0
 24 39  1  0  0  0  0
 24 40  1  0  0  0  0
 25 41  1  0  0  0  0
 25 42  1  0  0  0  0
 25 43  1  0  0  0  0
M  END
> <PUBCHEM_COMPOUND_CID>
11624303

> <PUBCHEM_CONFORMER_RMSD>
0.8

> <PUBCHEM_CONFORMER_DIVERSEORDER>
1
2
3

> <PUBCHEM_MMFF94_PARTIAL_CHARGES>
29
1 -0.36
10 -0.15
11 0.23
13 -0.15
14 0.08
15 -0.15
16 0.25
18 0.16
19 0.16
2 -0.57
20 0.69
21 0.3
22 0.28
23 0.7
25 0.28
26 0.15
27 0.15
28 0.27
29 0.37
3 -0.36
30 0.15
31 0.15
32 0.37
4 0.03
5 -0.57
6 -0.49
7 -0.73
8 -0.62
9 -0.62

> <PUBCHEM_EFFECTIVE_ROTOR_COUNT>
7

> <PUBCHEM_PHARMACOPHORE_FEATURES>
10
1 1 acceptor
1 2 acceptor
1 4 donor
1 6 donor
1 7 donor
1 8 acceptor
3 8 9 23 cation
5 4 5 10 11 16 rings
6 10 11 12 13 14 15 rings
6 8 9 17 18 19 23 rings

> <PUBCHEM_HEAVY_ATOM_COUNT>
25

> <PUBCHEM_ATOM_DEF_STEREO_COUNT>
0

> <PUBCHEM_ATOM_UDEF_STEREO_COUNT>
0

> <PUBCHEM_BOND_DEF_STEREO_COUNT>
0

> <PUBCHEM_BOND_UDEF_STEREO_COUNT>
0

> <PUBCHEM_ISOTOPIC_ATOM_COUNT>
0

> <PUBCHEM_COMPONENT_COUNT>
1

> <PUBCHEM_CACTVS_TAUTO_COUNT>
8

> <PUBCHEM_CONFORMER_ID>
00B15F6F00000001

> <PUBCHEM_MMFF94_ENERGY>
83.4092

> <PUBCHEM_FEATURE_SELFOVERLAP>
50.936

> <PUBCHEM_SHAPE_FINGERPRINT>
10 15 17530966904109511064
10050765 1 18123187076405677264
10165383 225 18408602548704125453
10835480 77 18200873002511884552
11089746 13 17775567554958935896
11315181 36 17489590099285503184
12236239 1 17917991638696342801
12616971 3 17386009528918316606
12838862 33 18336249198311577152
13073987 5 9222966854795070060
13533116 47 17917149391246421962
13914758 101 16128383640553068218
14251764 18 18410011061463894146
14251764 46 18412545400989480569
15131766 46 16083931648115134348
15183329 4 18342458132342207362
15716309 27 11458422444891355760
15849732 13 17821730537227924900
15927050 60 17967812764797879554
17093844 174 18339641247971106298
18681886 176 17060046069569355417
19489759 90 16702588220381048736
20281389 69 18186800288383544732
21033648 29 18114728396136017293
21150785 3 15626223520199363568
21236236 1 18339643459336464047
21267235 1 18264492956301152491
21756936 100 17703804604610294379
22224240 67 13406796639992155304
23198884 109 17704356567124592928
23402539 116 18059856172823497757
23536379 177 16487259846165343808
23559900 14 18200588220125305104
23576562 1 18188767391973903709
249057 3 18409450310623483876
335352 9 18410293627314825596
34934 24 18408319990810412074
3545911 37 18409167718891686722
3633792 109 18199470978560989121
4073 2 18188214325251854986
4340502 62 16008747996611713850
437795 83 18190448391067175485
5104073 3 18264767834898576600
559249 180 18411136969755261374
59755656 215 18411704245267835518
59755656 520 18411132550444800279
6669772 16 18341054021123123047
7226269 152 18272936011680484176

> <PUBCHEM_SHAPE_MULTIPOLES>
466.99
20.37
1.89
0.9
20.61
1.75
-0.04
-7.86
2.77
-0.86
0.2
-1.36
-0.05
-0.23

> <PUBCHEM_SHAPE_SELFOVERLAP>
1012.625

> <PUBCHEM_SHAPE_VOLUME>
255.4

> <PUBCHEM_COORDINATE_TYPE>
2
5
10

$$$$
