11625932
  -OEChem-03292013303D

 58 60  0     1  0  0  0  0  0999 V2000
   -0.9434   -1.3724    1.3753 O   0  0  0  0  0  0  0  0  0  0  0  0
    0.8485   -2.2260    0.1486 O   0  0  0  0  0  0  0  0  0  0  0  0
   -3.6715   -3.0848   -1.1726 O   0  0  0  0  0  0  0  0  0  0  0  0
   -4.5039   -0.9722    0.6163 O   0  0  0  0  0  0  0  0  0  0  0  0
   -0.8883   -2.6632   -2.0423 O   0  0  0  0  0  0  0  0  0  0  0  0
   -1.5941    0.4202    3.3550 O   0  0  0  0  0  0  0  0  0  0  0  0
    5.4563   -1.2606   -0.7609 O   0  0  0  0  0  0  0  0  0  0  0  0
   -2.7368    2.2193   -1.9165 O   0  0  0  0  0  0  0  0  0  0  0  0
   -2.8024   -2.0517   -0.7060 C   0  0  1  0  0  0  0  0  0  0  0  0
   -3.2541   -1.6522    0.6987 C   0  0  1  0  0  0  0  0  0  0  0  0
   -1.3616   -2.5631   -0.6994 C   0  0  2  0  0  0  0  0  0  0  0  0
   -2.2224   -0.7360    1.3611 C   0  0  1  0  0  0  0  0  0  0  0  0
   -0.4382   -1.6140    0.0643 C   0  0  1  0  0  0  0  0  0  0  0  0
   -2.5942   -0.4184    2.8060 C   0  0  0  0  0  0  0  0  0  0  0  0
    1.9250   -1.3835    0.2009 C   0  0  0  0  0  0  0  0  0  0  0  0
    3.1558   -1.7728   -0.3201 C   0  0  0  0  0  0  0  0  0  0  0  0
    1.7726   -0.1288    0.7848 C   0  0  0  0  0  0  0  0  0  0  0  0
    2.8596    0.7433    0.8480 C   0  0  0  0  0  0  0  0  0  0  0  0
    2.7008    2.0889    1.4716 C   0  0  0  0  0  0  0  0  0  0  0  0
    4.2428   -0.9008   -0.2567 C   0  0  0  0  0  0  0  0  0  0  0  0
    4.0946    0.3573    0.3272 C   0  0  0  0  0  0  0  0  0  0  0  0
    2.2756    3.1928    0.4832 C   0  0  0  0  0  0  0  0  0  0  0  0
    3.3146   -3.1209   -0.9464 C   0  0  0  0  0  0  0  0  0  0  0  0
    0.9348    2.9321   -0.1585 C   0  0  0  0  0  0  0  0  0  0  0  0
    0.8768    2.2210   -1.3466 C   0  0  0  0  0  0  0  0  0  0  0  0
   -0.2144    3.4094    0.4517 C   0  0  0  0  0  0  0  0  0  0  0  0
   -0.3625    1.9809   -1.9399 C   0  0  0  0  0  0  0  0  0  0  0  0
   -1.4537    3.1691   -0.1415 C   0  0  0  0  0  0  0  0  0  0  0  0
   -1.5279    2.4550   -1.3374 C   0  0  0  0  0  0  0  0  0  0  0  0
   -3.8882    2.7321   -1.2477 C   0  0  0  0  0  0  0  0  0  0  0  0
   -2.9114   -1.2147   -1.4069 H   0  0  0  0  0  0  0  0  0  0  0  0
   -3.4112   -2.5551    1.3015 H   0  0  0  0  0  0  0  0  0  0  0  0
   -1.3185   -3.5719   -0.2720 H   0  0  0  0  0  0  0  0  0  0  0  0
   -2.1333    0.2137    0.8184 H   0  0  0  0  0  0  0  0  0  0  0  0
   -0.3772   -0.6732   -0.5003 H   0  0  0  0  0  0  0  0  0  0  0  0
   -3.5541    0.1016    2.8719 H   0  0  0  0  0  0  0  0  0  0  0  0
   -2.6413   -1.3260    3.4167 H   0  0  0  0  0  0  0  0  0  0  0  0
   -4.5782   -2.7334   -1.1525 H   0  0  0  0  0  0  0  0  0  0  0  0
   -4.3743   -0.1698    0.0826 H   0  0  0  0  0  0  0  0  0  0  0  0
   -0.9195   -1.7767   -2.4407 H   0  0  0  0  0  0  0  0  0  0  0  0
    0.8415    0.2007    1.2310 H   0  0  0  0  0  0  0  0  0  0  0  0
   -0.7451   -0.0489    3.2851 H   0  0  0  0  0  0  0  0  0  0  0  0
    1.9745    2.0290    2.2934 H   0  0  0  0  0  0  0  0  0  0  0  0
    3.6458    2.3861    1.9448 H   0  0  0  0  0  0  0  0  0  0  0  0
    4.9403    1.0392    0.3749 H   0  0  0  0  0  0  0  0  0  0  0  0
    2.2465    4.1547    1.0112 H   0  0  0  0  0  0  0  0  0  0  0  0
    3.0374    3.3090   -0.2992 H   0  0  0  0  0  0  0  0  0  0  0  0
    4.0627   -3.1104   -1.7462 H   0  0  0  0  0  0  0  0  0  0  0  0
    3.6201   -3.8507   -0.1901 H   0  0  0  0  0  0  0  0  0  0  0  0
    2.3832   -3.4646   -1.4087 H   0  0  0  0  0  0  0  0  0  0  0  0
    1.7771    1.8529   -1.8299 H   0  0  0  0  0  0  0  0  0  0  0  0
   -0.1658    3.9637    1.3847 H   0  0  0  0  0  0  0  0  0  0  0  0
    6.0852   -0.5308   -0.6277 H   0  0  0  0  0  0  0  0  0  0  0  0
   -0.4140    1.4231   -2.8709 H   0  0  0  0  0  0  0  0  0  0  0  0
   -2.3186    3.5639    0.3805 H   0  0  0  0  0  0  0  0  0  0  0  0
   -3.8724    3.8263   -1.2018 H   0  0  0  0  0  0  0  0  0  0  0  0
   -4.0152    2.2775   -0.2594 H   0  0  0  0  0  0  0  0  0  0  0  0
   -4.7615    2.4488   -1.8442 H   0  0  0  0  0  0  0  0  0  0  0  0
  1 12  1  0  0  0  0
  1 13  1  0  0  0  0
  2 13  1  0  0  0  0
  2 15  1  0  0  0  0
  3  9  1  0  0  0  0
  3 38  1  0  0  0  0
  4 10  1  0  0  0  0
  4 39  1  0  0  0  0
  5 11  1  0  0  0  0
  5 40  1  0  0  0  0
  6 14  1  0  0  0  0
  6 42  1  0  0  0  0
  7 20  1  0  0  0  0
  7 53  1  0  0  0  0
  8 29  1  0  0  0  0
  8 30  1  0  0  0  0
  9 10  1  0  0  0  0
  9 11  1  0  0  0  0
  9 31  1  0  0  0  0
 10 12  1  0  0  0  0
 10 32  1  0  0  0  0
 11 13  1  0  0  0  0
 11 33  1  0  0  0  0
 12 14  1  0  0  0  0
 12 34  1  0  0  0  0
 13 35  1  0  0  0  0
 14 36  1  0  0  0  0
 14 37  1  0  0  0  0
 15 16  1  0  0  0  0
 15 17  2  0  0  0  0
 16 20  2  0  0  0  0
 16 23  1  0  0  0  0
 17 18  1  0  0  0  0
 17 41  1  0  0  0  0
 18 19  1  0  0  0  0
 18 21  2  0  0  0  0
 19 22  1  0  0  0  0
 19 43  1  0  0  0  0
 19 44  1  0  0  0  0
 20 21  1  0  0  0  0
 21 45  1  0  0  0  0
 22 24  1  0  0  0  0
 22 46  1  0  0  0  0
 22 47  1  0  0  0  0
 23 48  1  0  0  0  0
 23 49  1  0  0  0  0
 23 50  1  0  0  0  0
 24 25  2  0  0  0  0
 24 26  1  0  0  0  0
 25 27  1  0  0  0  0
 25 51  1  0  0  0  0
 26 28  2  0  0  0  0
 26 52  1  0  0  0  0
 27 29  2  0  0  0  0
 27 54  1  0  0  0  0
 28 29  1  0  0  0  0
 28 55  1  0  0  0  0
 30 56  1  0  0  0  0
 30 57  1  0  0  0  0
 30 58  1  0  0  0  0
M  END
> <PUBCHEM_COMPOUND_CID>
11625932

> <PUBCHEM_CONFORMER_RMSD>
1

> <PUBCHEM_CONFORMER_DIVERSEORDER>
1
91
57
237
101
65
15
164
10
86
94
127
221
12
182
32
178
251
44
271
212
159
155
124
107
142
259
18
56
77
200
254
167
6
24
8
231
89
162
250
261
99
241
115
220
106
114
249
199
50
245
98
85
272
2
215
149
244
45
74
222
112
267
203
156
238
51
255
232
177
154
229
211
111
26
194
225
243
79
9
35
179
204
187
206
219
41
263
160
256
82
133
248
102
76
228
146
66
242
246
208
48
13
176
191
64
273
173
172
150
21
148
171
4
165
109
78
59
42
28
193
126
19
117
269
84
33
123
118
161
147
227
52
169
68
71
223
55
139
122
213
216
90
63
61
151
81
144
83
104
205
218
166
121
197
252
30
185
20
184
72
49
235
105
196
75
7
136
27
190
130
170
143
233
145
274
70
16
157
257
137
158
3
37
131
258
214
110
23
58
183
87
22
168
40
266
17
95
34
195
73
135
234
31
163
25
239
175
132
138
11
39
62
128
226
53
188
140
119
97
217
247
209
134
207
264
54
152
125
174
103
180
47
14
46
202
262
60
141
43
153
120
189
268
67
192
36
210
108
265
80
129
96
270
93
198
116
186
276
38
5
275
236
113
230
253
181
260
100
224
201
69
240
29
88
92

> <PUBCHEM_MMFF94_PARTIAL_CHARGES>
41
1 -0.56
10 0.28
11 0.28
12 0.28
13 0.56
14 0.28
15 0.08
16 -0.14
17 -0.15
18 -0.14
19 0.14
2 -0.36
20 0.08
21 -0.15
22 0.14
23 0.14
24 -0.14
25 -0.15
26 -0.15
27 -0.15
28 -0.15
29 0.08
3 -0.68
30 0.28
38 0.4
39 0.4
4 -0.68
40 0.4
41 0.15
42 0.4
45 0.15
5 -0.68
51 0.15
52 0.15
53 0.45
54 0.15
55 0.15
6 -0.68
7 -0.53
8 -0.36
9 0.28

> <PUBCHEM_EFFECTIVE_ROTOR_COUNT>
8.2

> <PUBCHEM_PHARMACOPHORE_FEATURES>
15
1 1 acceptor
1 2 acceptor
1 3 acceptor
1 3 donor
1 4 acceptor
1 4 donor
1 5 acceptor
1 5 donor
1 6 acceptor
1 6 donor
1 7 donor
1 8 acceptor
6 1 9 10 11 12 13 rings
6 15 16 17 18 20 21 rings
6 24 25 26 27 28 29 rings

> <PUBCHEM_HEAVY_ATOM_COUNT>
30

> <PUBCHEM_ATOM_DEF_STEREO_COUNT>
5

> <PUBCHEM_ATOM_UDEF_STEREO_COUNT>
0

> <PUBCHEM_BOND_DEF_STEREO_COUNT>
0

> <PUBCHEM_BOND_UDEF_STEREO_COUNT>
0

> <PUBCHEM_ISOTOPIC_ATOM_COUNT>
0

> <PUBCHEM_COMPONENT_COUNT>
1

> <PUBCHEM_CACTVS_TAUTO_COUNT>
9

> <PUBCHEM_CONFORMER_ID>
00B165CC00000001

> <PUBCHEM_MMFF94_ENERGY>
98.2064

> <PUBCHEM_FEATURE_SELFOVERLAP>
76.187

> <PUBCHEM_SHAPE_FINGERPRINT>
10119406 146 16897933757507331158
104564 63 18115862082591623268
10675989 125 14734489232885932134
10708813 3 17837493316449757537
11578080 2 17915714622254158648
12156800 1 16754580921392665281
12422481 6 18263948617363951249
12539773 59 17340976963843660575
13402501 40 18263646160765091077
13615921 28 17275108352996465592
15420108 30 16683702218737181968
17357779 13 18333728048171335044
17492 54 17898271828648146853
19930381 70 17398657395592785271
20764821 26 18410288082459311748
20775438 99 17766792318002531855
22113638 7 16824728873906858548
22907989 373 17619382834619199902
238 59 17325760379755333109
3052486 1 17968647247120429832
3380486 145 18339934701384959810
35225 105 17606950694628455927
437795 51 18118952600252521069
4409770 3 17619364112625076094
469060 322 16515976856768689999
474 4 17979067516185197458
5171179 24 18340758351753726020
6287921 2 17836931470482578310
6376802 137 16692984854518825074
7237137 82 18264508208716081470

> <PUBCHEM_SHAPE_MULTIPOLES>
570.43
7.48
5
2.11
3.11
1.78
1.11
-3.28
-0.53
-1.45
-1.88
-1.83
0.18
1.71

> <PUBCHEM_SHAPE_SELFOVERLAP>
1211.583

> <PUBCHEM_SHAPE_VOLUME>
316.1

> <PUBCHEM_COORDINATE_TYPE>
2
5
10

$$$$
