11631807
  -OEChem-03292013303D

 47 49  0     1  0  0  0  0  0999 V2000
    0.3699    0.6928    0.9207 O   0  0  0  0  0  0  0  0  0  0  0  0
   -1.1033    1.9998   -0.3162 O   0  0  0  0  0  0  0  0  0  0  0  0
    1.8979   -0.7690   -0.0655 O   0  0  0  0  0  0  0  0  0  0  0  0
   -3.8255   -2.6971    1.1800 O   0  0  0  0  0  0  0  0  0  0  0  0
    2.3291    2.7344    0.8783 O   0  0  0  0  0  0  0  0  0  0  0  0
    5.0623    1.6378    0.9647 O   0  0  0  0  0  0  0  0  0  0  0  0
    5.4019   -0.3945   -1.0627 O   0  0  0  0  0  0  0  0  0  0  0  0
    2.0933   -2.9460   -1.7322 O   0  0  0  0  0  0  0  0  0  0  0  0
   -5.6946    1.0492   -1.0879 O   0  0  0  0  0  0  0  0  0  0  0  0
   -1.9478    0.0332    0.9442 C   0  0  2  0  0  0  0  0  0  0  0  0
   -3.2967    0.1244    0.2028 C   0  0  2  0  0  0  0  0  0  0  0  0
   -3.3527   -1.1665   -0.6253 C   0  0  0  0  0  0  0  0  0  0  0  0
   -0.8092    0.6632    0.1153 C   0  0  2  0  0  0  0  0  0  0  0  0
   -2.7945   -2.2238    0.3223 C   0  0  1  0  0  0  0  0  0  0  0  0
   -1.7872   -1.4618    1.1396 C   0  0  0  0  0  0  0  0  0  0  0  0
   -3.4014    1.3640   -0.6192 C   0  0  0  0  0  0  0  0  0  0  0  0
    1.5471    0.6005    0.1191 C   0  0  2  0  0  0  0  0  0  0  0  0
    2.6680    1.3483    0.8409 C   0  0  1  0  0  0  0  0  0  0  0  0
    4.0061    1.1724    0.1229 C   0  0  2  0  0  0  0  0  0  0  0  0
    4.2719   -0.2981   -0.1997 C   0  0  1  0  0  0  0  0  0  0  0  0
    3.0580   -0.9321   -0.8831 C   0  0  1  0  0  0  0  0  0  0  0  0
   -2.3700    2.1952   -0.7952 C   0  0  0  0  0  0  0  0  0  0  0  0
   -0.8857   -2.0436    1.9405 C   0  0  0  0  0  0  0  0  0  0  0  0
    3.2545   -2.4278   -1.1094 C   0  0  0  0  0  0  0  0  0  0  0  0
   -4.6914    1.7452   -1.1949 C   0  0  0  0  0  0  0  0  0  0  0  0
   -2.0267    0.5400    1.9151 H   0  0  0  0  0  0  0  0  0  0  0  0
   -4.1056    0.1189    0.9471 H   0  0  0  0  0  0  0  0  0  0  0  0
   -4.3763   -1.3958   -0.9403 H   0  0  0  0  0  0  0  0  0  0  0  0
   -2.7249   -1.0867   -1.5220 H   0  0  0  0  0  0  0  0  0  0  0  0
   -0.6336    0.0493   -0.7809 H   0  0  0  0  0  0  0  0  0  0  0  0
   -2.3631   -3.0689   -0.2217 H   0  0  0  0  0  0  0  0  0  0  0  0
    1.3705    1.0756   -0.8568 H   0  0  0  0  0  0  0  0  0  0  0  0
    2.7493    1.0101    1.8813 H   0  0  0  0  0  0  0  0  0  0  0  0
    4.0439    1.7876   -0.7837 H   0  0  0  0  0  0  0  0  0  0  0  0
    4.5172   -0.8394    0.7223 H   0  0  0  0  0  0  0  0  0  0  0  0
    2.8654   -0.4645   -1.8584 H   0  0  0  0  0  0  0  0  0  0  0  0
   -2.4251    3.1413   -1.3169 H   0  0  0  0  0  0  0  0  0  0  0  0
   -0.8346   -3.1232    2.0321 H   0  0  0  0  0  0  0  0  0  0  0  0
   -0.1864   -1.4551    2.5239 H   0  0  0  0  0  0  0  0  0  0  0  0
   -4.1437   -1.9628    1.7316 H   0  0  0  0  0  0  0  0  0  0  0  0
    3.3923   -2.9617   -0.1632 H   0  0  0  0  0  0  0  0  0  0  0  0
    4.1123   -2.6304   -1.7569 H   0  0  0  0  0  0  0  0  0  0  0  0
   -4.7178    2.7003   -1.7463 H   0  0  0  0  0  0  0  0  0  0  0  0
    1.4676    2.8117    1.3231 H   0  0  0  0  0  0  0  0  0  0  0  0
    5.0424    1.1217    1.7885 H   0  0  0  0  0  0  0  0  0  0  0  0
    5.1894    0.0719   -1.8891 H   0  0  0  0  0  0  0  0  0  0  0  0
    1.3374   -2.7561   -1.1503 H   0  0  0  0  0  0  0  0  0  0  0  0
  1 13  1  0  0  0  0
  1 17  1  0  0  0  0
  2 13  1  0  0  0  0
  2 22  1  0  0  0  0
  3 17  1  0  0  0  0
  3 21  1  0  0  0  0
  4 14  1  0  0  0  0
  4 40  1  0  0  0  0
  5 18  1  0  0  0  0
  5 44  1  0  0  0  0
  6 19  1  0  0  0  0
  6 45  1  0  0  0  0
  7 20  1  0  0  0  0
  7 46  1  0  0  0  0
  8 24  1  0  0  0  0
  8 47  1  0  0  0  0
  9 25  2  0  0  0  0
 10 11  1  0  0  0  0
 10 13  1  0  0  0  0
 10 15  1  0  0  0  0
 10 26  1  0  0  0  0
 11 12  1  0  0  0  0
 11 16  1  0  0  0  0
 11 27  1  0  0  0  0
 12 14  1  0  0  0  0
 12 28  1  0  0  0  0
 12 29  1  0  0  0  0
 13 30  1  0  0  0  0
 14 15  1  0  0  0  0
 14 31  1  0  0  0  0
 15 23  2  0  0  0  0
 16 22  2  0  0  0  0
 16 25  1  0  0  0  0
 17 18  1  0  0  0  0
 17 32  1  0  0  0  0
 18 19  1  0  0  0  0
 18 33  1  0  0  0  0
 19 20  1  0  0  0  0
 19 34  1  0  0  0  0
 20 21  1  0  0  0  0
 20 35  1  0  0  0  0
 21 24  1  0  0  0  0
 21 36  1  0  0  0  0
 22 37  1  0  0  0  0
 23 38  1  0  0  0  0
 23 39  1  0  0  0  0
 24 41  1  0  0  0  0
 24 42  1  0  0  0  0
 25 43  1  0  0  0  0
M  END
> <PUBCHEM_COMPOUND_CID>
11631807

> <PUBCHEM_CONFORMER_RMSD>
0.8

> <PUBCHEM_CONFORMER_DIVERSEORDER>
2
28
35
16
71
56
64
39
40
41
58
50
32
46
18
54
67
5
20
63
38
52
4
10
66
53
45
27
68
1
57
55
13
74
42
77
30
33
8
44
62
65
7
36
24
14
47
31
70
22
17
72
34
3
37
25
19
61
49
11
26
48
73
15
23
12
6
51
69
9
76
75
29
43
59
21
60

> <PUBCHEM_MMFF94_PARTIAL_CHARGES>
33
1 -0.56
10 0.14
11 0.14
13 0.56
14 0.42
15 -0.28
16 -0.12
17 0.56
18 0.28
19 0.28
2 -0.36
20 0.28
21 0.28
22 -0.07
23 -0.3
24 0.28
25 0.5
3 -0.56
37 0.15
38 0.15
39 0.15
4 -0.68
40 0.4
43 0.06
44 0.4
45 0.4
46 0.4
47 0.4
5 -0.68
6 -0.68
7 -0.68
8 -0.68
9 -0.57

> <PUBCHEM_EFFECTIVE_ROTOR_COUNT>
6

> <PUBCHEM_PHARMACOPHORE_FEATURES>
17
1 1 acceptor
1 2 acceptor
1 3 acceptor
1 4 acceptor
1 4 donor
1 5 acceptor
1 5 donor
1 6 acceptor
1 6 donor
1 7 acceptor
1 7 donor
1 8 acceptor
1 8 donor
1 9 acceptor
5 10 11 12 14 15 rings
6 2 10 11 13 16 22 rings
6 3 17 18 19 20 21 rings

> <PUBCHEM_HEAVY_ATOM_COUNT>
25

> <PUBCHEM_ATOM_DEF_STEREO_COUNT>
9

> <PUBCHEM_ATOM_UDEF_STEREO_COUNT>
0

> <PUBCHEM_BOND_DEF_STEREO_COUNT>
0

> <PUBCHEM_BOND_UDEF_STEREO_COUNT>
0

> <PUBCHEM_ISOTOPIC_ATOM_COUNT>
0

> <PUBCHEM_COMPONENT_COUNT>
1

> <PUBCHEM_CACTVS_TAUTO_COUNT>
1

> <PUBCHEM_CONFORMER_ID>
00B17CBF00000002

> <PUBCHEM_MMFF94_ENERGY>
62.4769

> <PUBCHEM_FEATURE_SELFOVERLAP>
86.504

> <PUBCHEM_SHAPE_FINGERPRINT>
10366900 7 18343587309098386228
105312 117 17386551476550304045
107951 10 18040437664180945451
12236239 1 15864070961793295872
12553582 1 17696495991558952406
12788726 201 18127123087515246153
12969540 114 17896580844373707701
13402501 40 18410854365164910396
13544592 145 18337110060176217285
13583140 156 18130784611343031749
13911987 19 17988083430319199624
14251757 17 18339925905101903595
14790565 3 17904762181589544113
15375358 24 18411134732055726936
15635459 17 18270684169127797446
17980427 23 17750510853161721524
19930381 70 17768813061671895727
200 152 17275100626424087433
20600515 1 17603860165233443052
20645477 56 18261110760176854181
20645477 70 17632013061931211316
20693207 138 18268723727052678524
20871999 31 18113901593440187767
221490 88 18341901796659631326
22182313 1 18335712645643823747
22393880 68 18409169905041187542
23402539 116 18114451353348894848
23557571 272 18260833743159600755
23559900 14 18411134736535680880
3472631 163 17385729109965913044
4280585 95 17835529220107296430
495365 180 17988063578563165088
5104073 3 18413107277612470552
5283173 99 18335134276425506813
59755656 215 18408880720122848828
7399639 24 17981601877327584193
9709674 26 18411138034621963471

> <PUBCHEM_SHAPE_MULTIPOLES>
461.66
10.59
3.1
1.4
3.01
1
-0.05
-2.13
3.01
-0.72
0.04
0.07
0.62
3.1

> <PUBCHEM_SHAPE_SELFOVERLAP>
974.801

> <PUBCHEM_SHAPE_VOLUME>
254.2

> <PUBCHEM_COORDINATE_TYPE>
2
5
10

$$$$
