11631193
  -OEChem-03292013303D

 36 40  0     1  0  0  0  0  0999 V2000
   -3.8048   -0.7264   -1.3670 O   0  0  0  0  0  0  0  0  0  0  0  0
   -1.8024   -2.2735    1.3110 O   0  0  0  0  0  0  0  0  0  0  0  0
   -3.6187    2.2427    0.2012 O   0  0  0  0  0  0  0  0  0  0  0  0
    1.2779    3.0605    0.0803 O   0  0  0  0  0  0  0  0  0  0  0  0
    0.8147   -2.8415   -0.0808 O   0  0  0  0  0  0  0  0  0  0  0  0
    3.7157    2.3058    0.0102 O   0  0  0  0  0  0  0  0  0  0  0  0
   -4.0228   -0.0411   -0.1203 C   0  0  1  0  0  0  0  0  0  0  0  0
   -3.4508   -1.4204   -0.1629 C   0  0  2  0  0  0  0  0  0  0  0  0
   -1.9905   -1.6512    0.0399 C   0  0  1  0  0  0  0  0  0  0  0  0
   -3.1427    1.1229    0.0677 C   0  0  0  0  0  0  0  0  0  0  0  0
   -1.1447   -0.4025    0.0198 C   0  0  0  0  0  0  0  0  0  0  0  0
   -5.4717    0.0631    0.2237 C   0  0  0  0  0  0  0  0  0  0  0  0
   -1.6770    0.9007    0.0648 C   0  0  0  0  0  0  0  0  0  0  0  0
    0.2486   -0.4814   -0.0080 C   0  0  0  0  0  0  0  0  0  0  0  0
    1.0932    0.6478    0.0098 C   0  0  0  0  0  0  0  0  0  0  0  0
   -0.8406    2.0408    0.0853 C   0  0  0  0  0  0  0  0  0  0  0  0
    0.5502    1.9170    0.0584 C   0  0  0  0  0  0  0  0  0  0  0  0
    1.1390   -1.6743   -0.0541 C   0  0  0  0  0  0  0  0  0  0  0  0
    2.4761    0.2244   -0.0249 C   0  0  0  0  0  0  0  0  0  0  0  0
    2.5281   -1.1756   -0.0635 C   0  0  0  0  0  0  0  0  0  0  0  0
    3.6537    0.9520   -0.0243 C   0  0  0  0  0  0  0  0  0  0  0  0
    3.7092   -1.8898   -0.1020 C   0  0  0  0  0  0  0  0  0  0  0  0
    4.8667    0.2532   -0.0629 C   0  0  0  0  0  0  0  0  0  0  0  0
    4.8936   -1.1534   -0.1013 C   0  0  0  0  0  0  0  0  0  0  0  0
   -4.0583   -2.2758    0.1028 H   0  0  0  0  0  0  0  0  0  0  0  0
   -1.6490   -2.3470   -0.7341 H   0  0  0  0  0  0  0  0  0  0  0  0
   -5.5928    0.2774    1.2906 H   0  0  0  0  0  0  0  0  0  0  0  0
   -5.9450    0.8718   -0.3433 H   0  0  0  0  0  0  0  0  0  0  0  0
   -6.0220   -0.8585    0.0037 H   0  0  0  0  0  0  0  0  0  0  0  0
   -1.2829    3.0349    0.1166 H   0  0  0  0  0  0  0  0  0  0  0  0
   -1.9925   -1.6166    2.0031 H   0  0  0  0  0  0  0  0  0  0  0  0
    3.7245   -2.9728   -0.1315 H   0  0  0  0  0  0  0  0  0  0  0  0
    0.6842    3.8298    0.1150 H   0  0  0  0  0  0  0  0  0  0  0  0
    5.8086    0.7972   -0.0637 H   0  0  0  0  0  0  0  0  0  0  0  0
    5.8496   -1.6695   -0.1308 H   0  0  0  0  0  0  0  0  0  0  0  0
    2.9194    2.6657   -0.4083 H   0  0  0  0  0  0  0  0  0  0  0  0
  1  7  1  0  0  0  0
  1  8  1  0  0  0  0
  2  9  1  0  0  0  0
  2 31  1  0  0  0  0
  3 10  2  0  0  0  0
  4 17  1  0  0  0  0
  4 33  1  0  0  0  0
  5 18  2  0  0  0  0
  6 21  1  0  0  0  0
  6 36  1  0  0  0  0
  7  8  1  0  0  0  0
  7 10  1  0  0  0  0
  7 12  1  0  0  0  0
  8  9  1  0  0  0  0
  8 25  1  0  0  0  0
  9 11  1  0  0  0  0
  9 26  1  0  0  0  0
 10 13  1  0  0  0  0
 11 13  1  0  0  0  0
 11 14  2  0  0  0  0
 12 27  1  0  0  0  0
 12 28  1  0  0  0  0
 12 29  1  0  0  0  0
 13 16  2  0  0  0  0
 14 15  1  0  0  0  0
 14 18  1  0  0  0  0
 15 17  2  0  0  0  0
 15 19  1  0  0  0  0
 16 17  1  0  0  0  0
 16 30  1  0  0  0  0
 18 20  1  0  0  0  0
 19 20  2  0  0  0  0
 19 21  1  0  0  0  0
 20 22  1  0  0  0  0
 21 23  2  0  0  0  0
 22 24  2  0  0  0  0
 22 32  1  0  0  0  0
 23 24  1  0  0  0  0
 23 34  1  0  0  0  0
 24 35  1  0  0  0  0
M  END
> <PUBCHEM_COMPOUND_CID>
11631193

> <PUBCHEM_CONFORMER_RMSD>
0.6

> <PUBCHEM_CONFORMER_DIVERSEORDER>
1

> <PUBCHEM_MMFF94_PARTIAL_CHARGES>
30
1 -0.3
10 0.48
11 -0.14
12 0.09
13 0.09
14 0.09
16 -0.15
17 0.08
18 0.4
2 -0.68
20 0.09
21 0.08
22 -0.15
23 -0.15
24 -0.15
25 0.1
3 -0.57
30 0.15
31 0.4
32 0.15
33 0.45
34 0.15
35 0.15
36 0.45
4 -0.53
5 -0.57
6 -0.53
7 0.05
8 -0.05
9 0.52

> <PUBCHEM_EFFECTIVE_ROTOR_COUNT>
0.4

> <PUBCHEM_PHARMACOPHORE_FEATURES>
11
1 1 acceptor
1 2 acceptor
1 2 donor
1 3 acceptor
1 4 donor
1 5 acceptor
1 6 donor
5 14 15 18 19 20 rings
6 11 13 14 15 16 17 rings
6 19 20 21 22 23 24 rings
7 1 7 8 9 10 11 13 rings

> <PUBCHEM_HEAVY_ATOM_COUNT>
24

> <PUBCHEM_ATOM_DEF_STEREO_COUNT>
3

> <PUBCHEM_ATOM_UDEF_STEREO_COUNT>
0

> <PUBCHEM_BOND_DEF_STEREO_COUNT>
0

> <PUBCHEM_BOND_UDEF_STEREO_COUNT>
0

> <PUBCHEM_ISOTOPIC_ATOM_COUNT>
0

> <PUBCHEM_COMPONENT_COUNT>
1

> <PUBCHEM_CACTVS_TAUTO_COUNT>
31

> <PUBCHEM_CONFORMER_ID>
00B17A5900000001

> <PUBCHEM_MMFF94_ENERGY>
84.1525

> <PUBCHEM_FEATURE_SELFOVERLAP>
56.011

> <PUBCHEM_SHAPE_FINGERPRINT>
10616163 171 18413109446096362926
10906281 52 18339662069534791439
10967382 1 18410856577120371592
11578080 2 13769654203320998484
11680986 33 18264771141221722472
12011746 2 18410292505911499983
12107183 9 17692534407686336635
12236239 1 17847062185989618231
12553582 1 18337662036461700041
13140716 1 18265901448139459841
13224815 77 18342179963994572326
13862211 1 18410851040717960790
14115302 16 17968105243152714694
14790565 3 18411145701286637105
15196674 1 18411419479533838012
15209289 33 18409449180909687995
15442244 35 18411982420950228192
15536298 74 18343018900172751808
16945 1 18410576219046096065
17349148 13 18408880733123814690
1813 80 17385727980252338124
19591789 44 18411698790105455406
200 152 18060416919527157531
21029758 11 18413103957223045641
21033648 29 17603852413007066373
21267235 1 18411708659750637879
21279426 13 18265613178144561981
21421861 104 17827357674736198082
221490 88 18336833111899838266
2334 1 18411141368028080114
23402539 116 18341044121354477702
23559900 14 18411134783943721600
2748010 2 17976823404272859337
2871803 45 18408881806939602198
3004659 81 18260268513037604574
335352 9 18267022760673187732
34934 24 18339356469890439346
350125 39 18410858771553657005
3680242 22 18262799536732439986
4214541 1 18411982420976582429
4280585 95 17337040295927175094
474 4 17749115529903198076
5104073 3 18411419483844513553
59755656 215 18338804408059279278
8809292 202 18261395576300524211
9709674 26 18340774745274694854
9981440 41 17474100381089646520

> <PUBCHEM_SHAPE_MULTIPOLES>
458.69
9.58
2.81
0.72
0.57
0.57
0.01
-0.57
0.49
-0.67
-0.22
0.34
-0.18
0.01

> <PUBCHEM_SHAPE_SELFOVERLAP>
1060.966

> <PUBCHEM_SHAPE_VOLUME>
234.9

> <PUBCHEM_COORDINATE_TYPE>
2
5
10

$$$$
