11632737
  -OEChem-03292013303D

 45 48  0     0  0  0  0  0  0999 V2000
    2.5528    0.5341   -1.2263 S   0  0  0  0  0  0  0  0  0  0  0  0
   -5.8656   -1.7184   -0.2463 F   0  0  0  0  0  0  0  0  0  0  0  0
   -1.4653   -3.4272   -0.0209 F   0  0  0  0  0  0  0  0  0  0  0  0
   -4.5878    2.0278   -0.5761 O   0  0  0  0  0  0  0  0  0  0  0  0
   -6.2307    0.7391    0.4285 N   0  0  0  0  0  0  0  0  0  0  0  0
   -0.4047   -0.8577    0.1224 N   0  0  0  0  0  0  0  0  0  0  0  0
    3.8567    0.4323    1.0033 N   0  0  0  0  0  0  0  0  0  0  0  0
    5.1972    0.5353   -0.9414 N   0  0  0  0  0  0  0  0  0  0  0  0
    6.6766    0.3028    0.9115 N   0  0  0  0  0  0  0  0  0  0  0  0
   -7.2261    1.7731    0.4921 C   0  0  0  0  0  0  0  0  0  0  0  0
   -8.1071    2.0578   -0.6799 C   0  0  0  0  0  0  0  0  0  0  0  0
   -8.6783    1.4294    0.5574 C   0  0  0  0  0  0  0  0  0  0  0  0
   -4.9530    0.9338   -0.1103 C   0  0  0  0  0  0  0  0  0  0  0  0
   -4.0445   -0.2017   -0.0869 C   0  0  0  0  0  0  0  0  0  0  0  0
   -2.6691    0.0113    0.0059 C   0  0  0  0  0  0  0  0  0  0  0  0
   -4.5456   -1.5015   -0.1571 C   0  0  0  0  0  0  0  0  0  0  0  0
   -1.7950   -1.0754    0.0286 C   0  0  0  0  0  0  0  0  0  0  0  0
   -3.6716   -2.5883   -0.1345 C   0  0  0  0  0  0  0  0  0  0  0  0
   -2.2962   -2.3752   -0.0418 C   0  0  0  0  0  0  0  0  0  0  0  0
    0.1737    0.4482    0.1976 C   0  0  0  0  0  0  0  0  0  0  0  0
    1.6784    0.4554    0.2296 C   0  0  0  0  0  0  0  0  0  0  0  0
    2.5093    0.4086    1.3058 C   0  0  0  0  0  0  0  0  0  0  0  0
    3.9981    0.4975   -0.3019 C   0  0  0  0  0  0  0  0  0  0  0  0
    6.5109    0.3850   -0.4266 C   0  0  0  0  0  0  0  0  0  0  0  0
    7.5467    0.3323   -1.3439 C   0  0  0  0  0  0  0  0  0  0  0  0
    8.8399    0.1849   -0.8549 C   0  0  0  0  0  0  0  0  0  0  0  0
    9.0527    0.0965    0.5165 C   0  0  0  0  0  0  0  0  0  0  0  0
    7.9476    0.1602    1.3497 C   0  0  0  0  0  0  0  0  0  0  0  0
   -6.9045    2.6210    1.0883 H   0  0  0  0  0  0  0  0  0  0  0  0
   -8.3588    3.0913   -0.8839 H   0  0  0  0  0  0  0  0  0  0  0  0
   -8.0140    1.4364   -1.5622 H   0  0  0  0  0  0  0  0  0  0  0  0
   -8.9688    0.3874    0.5032 H   0  0  0  0  0  0  0  0  0  0  0  0
   -9.3154    2.0403    1.1850 H   0  0  0  0  0  0  0  0  0  0  0  0
   -6.4790   -0.1609    0.8302 H   0  0  0  0  0  0  0  0  0  0  0  0
   -2.3046    1.0326    0.0685 H   0  0  0  0  0  0  0  0  0  0  0  0
   -4.0618   -3.6001   -0.1891 H   0  0  0  0  0  0  0  0  0  0  0  0
    0.1932   -1.6768    0.1435 H   0  0  0  0  0  0  0  0  0  0  0  0
   -0.1549    1.0608   -0.6528 H   0  0  0  0  0  0  0  0  0  0  0  0
   -0.1767    0.9557    1.1065 H   0  0  0  0  0  0  0  0  0  0  0  0
    2.2041    0.3553    2.3422 H   0  0  0  0  0  0  0  0  0  0  0  0
    5.1741    0.6278   -1.9542 H   0  0  0  0  0  0  0  0  0  0  0  0
    7.3762    0.4014   -2.4133 H   0  0  0  0  0  0  0  0  0  0  0  0
    9.6804    0.1391   -1.5408 H   0  0  0  0  0  0  0  0  0  0  0  0
   10.0521   -0.0185    0.9201 H   0  0  0  0  0  0  0  0  0  0  0  0
    8.0598    0.0960    2.4270 H   0  0  0  0  0  0  0  0  0  0  0  0
  1 21  1  0  0  0  0
  1 23  1  0  0  0  0
  2 16  1  0  0  0  0
  3 19  1  0  0  0  0
  4 13  2  0  0  0  0
  5 10  1  0  0  0  0
  5 13  1  0  0  0  0
  5 34  1  0  0  0  0
  6 17  1  0  0  0  0
  6 20  1  0  0  0  0
  6 37  1  0  0  0  0
  7 22  1  0  0  0  0
  7 23  2  0  0  0  0
  8 23  1  0  0  0  0
  8 24  1  0  0  0  0
  8 41  1  0  0  0  0
  9 24  1  0  0  0  0
  9 28  2  0  0  0  0
 10 11  1  0  0  0  0
 10 12  1  0  0  0  0
 10 29  1  0  0  0  0
 11 12  1  0  0  0  0
 11 30  1  0  0  0  0
 11 31  1  0  0  0  0
 12 32  1  0  0  0  0
 12 33  1  0  0  0  0
 13 14  1  0  0  0  0
 14 15  2  0  0  0  0
 14 16  1  0  0  0  0
 15 17  1  0  0  0  0
 15 35  1  0  0  0  0
 16 18  2  0  0  0  0
 17 19  2  0  0  0  0
 18 19  1  0  0  0  0
 18 36  1  0  0  0  0
 20 21  1  0  0  0  0
 20 38  1  0  0  0  0
 20 39  1  0  0  0  0
 21 22  2  0  0  0  0
 22 40  1  0  0  0  0
 24 25  2  0  0  0  0
 25 26  1  0  0  0  0
 25 42  1  0  0  0  0
 26 27  2  0  0  0  0
 26 43  1  0  0  0  0
 27 28  1  0  0  0  0
 27 44  1  0  0  0  0
 28 45  1  0  0  0  0
M  END
> <PUBCHEM_COMPOUND_CID>
11632737

> <PUBCHEM_CONFORMER_RMSD>
1

> <PUBCHEM_CONFORMER_DIVERSEORDER>
1
126
136
56
125
162
77
50
178
123
58
151
60
3
57
157
54
152
26
13
171
161
176
2
9
160
163
174
158
75
127
168
86
147
179
107
172
35
142
164
59
81
22
154
145
101
88
10
33
53
175
85
15
149
45
177
70
28
135
61
144
83
159
143
20
113
84
42
51
66
18
146
103
16
44
30
132
167
115
71
133
47
64
97
112
165
27
124
94
29
46
108
114
100
110
34
39
138
109
36
74
95
8
89
65
173
139
49
5
78
130
12
82
121
76
120
156
79
148
96
41
105
134
52
19
87
48
169
141
32
91
129
63
69
170
62
150
92
106
23
72
117
119
17
7
14
38
131
4
137
80
25
122
6
166
93
153
43
116
24
104
98
55
118
128
73
67
90
102
155
31
11
99
21
140
40
111
37
68

> <PUBCHEM_MMFF94_PARTIAL_CHARGES>
43
1 -0.08
10 0.05
11 -0.2
12 -0.2
13 0.54
14 0.09
15 -0.15
16 0.19
17 0.1
18 -0.15
19 0.19
2 -0.19
20 0.55
21 -0.14
22 0.08
23 0.46
24 0.41
25 -0.15
26 -0.15
27 -0.15
28 0.16
29 0.1
3 -0.19
30 0.1
31 0.1
32 0.1
33 0.1
34 0.37
35 0.15
36 0.15
37 0.4
4 -0.57
40 0.15
41 0.4
42 0.15
43 0.15
44 0.15
45 0.15
5 -0.58
6 -0.87
7 -0.57
8 -0.58
9 -0.62

> <PUBCHEM_EFFECTIVE_ROTOR_COUNT>
8.6

> <PUBCHEM_PHARMACOPHORE_FEATURES>
10
1 4 acceptor
1 5 donor
1 6 cation
1 6 donor
1 8 donor
1 9 acceptor
3 7 8 23 cation
5 1 7 21 22 23 rings
6 14 15 16 17 18 19 rings
6 9 24 25 26 27 28 rings

> <PUBCHEM_HEAVY_ATOM_COUNT>
28

> <PUBCHEM_ATOM_DEF_STEREO_COUNT>
0

> <PUBCHEM_ATOM_UDEF_STEREO_COUNT>
0

> <PUBCHEM_BOND_DEF_STEREO_COUNT>
0

> <PUBCHEM_BOND_UDEF_STEREO_COUNT>
0

> <PUBCHEM_ISOTOPIC_ATOM_COUNT>
0

> <PUBCHEM_COMPONENT_COUNT>
1

> <PUBCHEM_CACTVS_TAUTO_COUNT>
6

> <PUBCHEM_CONFORMER_ID>
00B1806100000001

> <PUBCHEM_MMFF94_ENERGY>
77.959

> <PUBCHEM_FEATURE_SELFOVERLAP>
50.746

> <PUBCHEM_SHAPE_FINGERPRINT>
10 15 18040999514949338385
10165383 225 18411982430595249697
10299344 5 17894629266942145098
10411042 1 17906453583045932479
106641 1 14996291318804444905
10670039 82 18408036330058857439
10674148 151 18335699464483774496
10904742 90 18186520990654319811
11135926 11 18113606881596427490
11211813 128 11458423531381159360
11524674 6 17632296821952336790
11719270 70 17988928882126083494
11796584 16 18342178904024289278
12089408 11 18113899386264769574
12144603 126 17967538995835645628
12236239 1 17894630387917988364
12758862 11 17988640813477580048
12838862 33 18337942420997278709
13885169 127 18413671314392914420
14150022 121 13623521326041707983
14150023 24 18186516575692112379
14251764 18 18187362133934012243
14251764 46 18409167701216335076
14294032 229 18261956219725405244
14344974 52 17632569471192967053
14429380 56 14764340562201479000
15065858 18 17775001307003354870
15119646 104 17749382656069705066
15183329 4 17313096489154163826
15419008 47 17632854222876642144
15419008 91 18058714897841526128
15461852 350 17703784856060302573
15510794 2 17632579357294813102
1577012 14 18187639206648521851
16087824 20 18337391531433850397
17093844 174 18272651281002362547
18335252 98 11458421328400507464
20105231 36 13912322370245094128
23424782 7 11386362634913995472
23522609 53 17531828899946349132
23559900 14 18060134375251205792
249057 3 18411138047575904780
3178227 256 14996286925068634196
335352 9 18412260641001209053
3633792 109 14692576493979976981
4073 2 18115028644936667658
4461854 278 11386376915486050657
59682541 35 11674885502195727612
5969126 39 14836412406097013026
6691757 9 18411986871522842659

> <PUBCHEM_SHAPE_MULTIPOLES>
534.75
30.34
2.19
1.06
23.35
1.77
-0.02
-14.06
-0.33
-6.15
0.17
1.81
-0.23
-0.25

> <PUBCHEM_SHAPE_SELFOVERLAP>
1144.975

> <PUBCHEM_SHAPE_VOLUME>
298.4

> <PUBCHEM_COORDINATE_TYPE>
2
5
10

$$$$
