11632731
  -OEChem-03292013303D

 42 43  0     0  0  0  0  0  0999 V2000
   -4.0527   -3.2412    0.2178 Cl  0  0  0  0  0  0  0  0  0  0  0  0
    5.8338   -1.4617    0.4919 S   0  0  0  0  0  0  0  0  0  0  0  0
    0.2009   -1.3283   -1.6880 S   0  0  0  0  0  0  0  0  0  0  0  0
   -1.1609    2.8217    0.8877 O   0  0  0  0  0  0  0  0  0  0  0  0
    6.0492   -0.6957    1.7071 O   0  0  0  0  0  0  0  0  0  0  0  0
    5.2086   -2.7721    0.5377 O   0  0  0  0  0  0  0  0  0  0  0  0
    1.3435    0.9202   -0.6089 N   0  0  0  0  0  0  0  0  0  0  0  0
   -0.8732    0.7562   -0.2030 N   0  0  0  0  0  0  0  0  0  0  0  0
    7.3108   -1.5851   -0.3505 N   0  0  0  0  0  0  0  0  0  0  0  0
   -7.3095   -1.3916    0.3489 N   0  0  0  0  0  0  0  0  0  0  0  0
    1.0146    2.1771    0.0535 C   0  0  0  0  0  0  0  0  0  0  0  0
    2.7014    0.6701   -1.0918 C   0  0  0  0  0  0  0  0  0  0  0  0
   -0.4795    1.9886    0.2992 C   0  0  0  0  0  0  0  0  0  0  0  0
    0.2089    0.0986   -0.8020 C   0  0  0  0  0  0  0  0  0  0  0  0
    1.7284    2.3367    1.3958 C   0  0  0  0  0  0  0  0  0  0  0  0
    1.2242    3.3900   -0.8525 C   0  0  0  0  0  0  0  0  0  0  0  0
    3.5191   -0.1777   -0.1240 C   0  0  0  0  0  0  0  0  0  0  0  0
    4.9246   -0.4565   -0.6392 C   0  0  0  0  0  0  0  0  0  0  0  0
   -2.2179    0.2887   -0.0863 C   0  0  0  0  0  0  0  0  0  0  0  0
   -2.4759   -1.0791    0.0001 C   0  0  0  0  0  0  0  0  0  0  0  0
   -3.2724    1.2011   -0.0592 C   0  0  0  0  0  0  0  0  0  0  0  0
   -3.7891   -1.5349    0.1139 C   0  0  0  0  0  0  0  0  0  0  0  0
   -4.5857    0.7453    0.0546 C   0  0  0  0  0  0  0  0  0  0  0  0
   -4.8441   -0.6227    0.1411 C   0  0  0  0  0  0  0  0  0  0  0  0
   -6.2072   -1.0478    0.2560 C   0  0  0  0  0  0  0  0  0  0  0  0
    3.2084    1.6225   -1.2709 H   0  0  0  0  0  0  0  0  0  0  0  0
    2.6434    0.1636   -2.0608 H   0  0  0  0  0  0  0  0  0  0  0  0
    2.8066    2.4718    1.2614 H   0  0  0  0  0  0  0  0  0  0  0  0
    1.3533    3.2095    1.9423 H   0  0  0  0  0  0  0  0  0  0  0  0
    1.5751    1.4601    2.0360 H   0  0  0  0  0  0  0  0  0  0  0  0
    0.8018    4.2957   -0.4021 H   0  0  0  0  0  0  0  0  0  0  0  0
    2.2846    3.5847   -1.0407 H   0  0  0  0  0  0  0  0  0  0  0  0
    0.7335    3.2503   -1.8229 H   0  0  0  0  0  0  0  0  0  0  0  0
    3.0016   -1.1266    0.0621 H   0  0  0  0  0  0  0  0  0  0  0  0
    3.5824    0.3172    0.8509 H   0  0  0  0  0  0  0  0  0  0  0  0
    4.8833   -0.9879   -1.5954 H   0  0  0  0  0  0  0  0  0  0  0  0
    5.4765    0.4798   -0.7706 H   0  0  0  0  0  0  0  0  0  0  0  0
   -1.6853   -1.8131    0.0979 H   0  0  0  0  0  0  0  0  0  0  0  0
   -3.1290    2.2695   -0.1793 H   0  0  0  0  0  0  0  0  0  0  0  0
   -5.3973    1.4695    0.0620 H   0  0  0  0  0  0  0  0  0  0  0  0
    7.3303   -2.1610   -1.2012 H   0  0  0  0  0  0  0  0  0  0  0  0
    7.9027   -0.7470   -0.4047 H   0  0  0  0  0  0  0  0  0  0  0  0
  1 22  1  0  0  0  0
  2  5  2  0  0  0  0
  2  6  2  0  0  0  0
  2  9  1  0  0  0  0
  2 18  1  0  0  0  0
  3 14  2  0  0  0  0
  4 13  2  0  0  0  0
  7 11  1  0  0  0  0
  7 12  1  0  0  0  0
  7 14  1  0  0  0  0
  8 13  1  0  0  0  0
  8 14  1  0  0  0  0
  8 19  1  0  0  0  0
  9 41  1  0  0  0  0
  9 42  1  0  0  0  0
 10 25  3  0  0  0  0
 11 13  1  0  0  0  0
 11 15  1  0  0  0  0
 11 16  1  0  0  0  0
 12 17  1  0  0  0  0
 12 26  1  0  0  0  0
 12 27  1  0  0  0  0
 15 28  1  0  0  0  0
 15 29  1  0  0  0  0
 15 30  1  0  0  0  0
 16 31  1  0  0  0  0
 16 32  1  0  0  0  0
 16 33  1  0  0  0  0
 17 18  1  0  0  0  0
 17 34  1  0  0  0  0
 17 35  1  0  0  0  0
 18 36  1  0  0  0  0
 18 37  1  0  0  0  0
 19 20  2  0  0  0  0
 19 21  1  0  0  0  0
 20 22  1  0  0  0  0
 20 38  1  0  0  0  0
 21 23  2  0  0  0  0
 21 39  1  0  0  0  0
 22 24  2  0  0  0  0
 23 24  1  0  0  0  0
 23 40  1  0  0  0  0
 24 25  1  0  0  0  0
M  END
> <PUBCHEM_COMPOUND_CID>
11632731

> <PUBCHEM_CONFORMER_RMSD>
0.8

> <PUBCHEM_CONFORMER_DIVERSEORDER>
3
21
61
14
6
23
32
66
54
27
24
33
22
60
2
10
62
57
65
52
30
31
44
51
11
43
39
64
63
53
13
5
12
46
59
42
55
35
29
41
9
56
45
37
58
40
18
26
19
1
48
50
34
28
38
17
20
49
47
25
8
15
36
7
4
16

> <PUBCHEM_MMFF94_PARTIAL_CHARGES>
27
1 -0.18
10 -0.56
11 0.36
12 0.3
13 0.57
14 0.5
18 0.11
19 0.12
2 1.33
20 -0.15
21 -0.15
22 0.18
23 -0.15
24 0.07
25 0.48
3 -0.38
38 0.15
39 0.15
4 -0.57
40 0.15
41 0.42
42 0.42
5 -0.65
6 -0.65
7 -0.66
8 -0.24
9 -0.98

> <PUBCHEM_EFFECTIVE_ROTOR_COUNT>
5.6

> <PUBCHEM_PHARMACOPHORE_FEATURES>
9
1 10 acceptor
1 3 acceptor
1 4 acceptor
1 5 acceptor
1 6 acceptor
1 9 donor
3 11 15 16 hydrophobe
5 7 8 11 13 14 rings
6 19 20 21 22 23 24 rings

> <PUBCHEM_HEAVY_ATOM_COUNT>
25

> <PUBCHEM_ATOM_DEF_STEREO_COUNT>
0

> <PUBCHEM_ATOM_UDEF_STEREO_COUNT>
0

> <PUBCHEM_BOND_DEF_STEREO_COUNT>
0

> <PUBCHEM_BOND_UDEF_STEREO_COUNT>
0

> <PUBCHEM_ISOTOPIC_ATOM_COUNT>
0

> <PUBCHEM_COMPONENT_COUNT>
1

> <PUBCHEM_CACTVS_TAUTO_COUNT>
1

> <PUBCHEM_CONFORMER_ID>
00B1805B00000003

> <PUBCHEM_MMFF94_ENERGY>
65.8704

> <PUBCHEM_FEATURE_SELFOVERLAP>
45.69

> <PUBCHEM_SHAPE_FINGERPRINT>
10753850 27 18186237325170220538
11456790 92 18130240319813994611
11963148 33 17476076208212594511
12107183 9 18339089185807746873
12166972 35 18040722475940673812
12516196 113 18411134727940244218
12633257 1 18271262607076283267
12760667 363 18411980256571508727
13140716 1 18200882867492483585
13685833 64 18408604777021862915
13862211 1 18412827984094049687
13955234 65 18051138282534803737
14178342 30 17986970551982798617
14420673 8 18410295800336584299
15042514 8 18267868289853221060
15163728 17 10591768748441817776
15183329 4 15719390616488113986
15196674 1 18125447660086632159
15927050 60 17765435731565961630
16728300 4 18190449468085737175
17492 89 18120657100456444659
1813 80 18040988558192841212
1979834 28 17489317377484115654
20567600 70 18409448107284077458
21033648 29 16056606404367895673
21267235 1 18410300206793194719
21637258 2 17676200260950356824
21756936 100 9799392409646648868
23522609 53 18047226069918611709
23559900 14 18265049313954144753
2838139 119 10087635979821706498
3004659 81 18040438785325197462
316301 35 18266460004067329403
335352 9 18410575064016775237
3383291 50 18409450301955214371
3411729 13 17915456323686439472
3886686 26 17114096665495965442
4409770 3 17898562086517006029
465052 167 18411706516572351023
5104073 3 17986123014023959635
559249 180 18334857186995150327
5718773 13 18339640152918638447
59682541 52 14418125193800973192
7970288 3 18408321073305967346
9709674 26 18048038768546813059

> <PUBCHEM_SHAPE_MULTIPOLES>
486.53
15.69
3.37
1.12
5.29
0.86
-0.03
-14.74
3.7
0.75
0.41
1.1
0.06
-0.32

> <PUBCHEM_SHAPE_SELFOVERLAP>
989.003

> <PUBCHEM_SHAPE_VOLUME>
287.9

> <PUBCHEM_COORDINATE_TYPE>
2
5
10

$$$$
