11641515
  -OEChem-03292013303D

 58 61  0     1  0  0  0  0  0999 V2000
   -6.8081   -4.2611    0.7957 Cl  0  0  0  0  0  0  0  0  0  0  0  0
   -2.0296    2.5362   -0.8305 S   0  0  0  0  0  0  0  0  0  0  0  0
    6.3824   -1.6245   -1.2238 O   0  0  0  0  0  0  0  0  0  0  0  0
    1.7029    3.6240    1.8427 O   0  0  0  0  0  0  0  0  0  0  0  0
    0.0116    4.6115    0.1491 O   0  0  0  0  0  0  0  0  0  0  0  0
   -1.6909    2.2630   -2.2158 O   0  0  0  0  0  0  0  0  0  0  0  0
   -2.6107    3.8134   -0.4563 O   0  0  0  0  0  0  0  0  0  0  0  0
    4.3987   -1.5568   -0.0100 N   0  0  0  0  0  0  0  0  0  0  0  0
    2.6962    2.2971    0.2147 N   0  0  0  0  0  0  0  0  0  0  0  0
    5.6461   -3.5504   -0.2575 N   0  0  0  0  0  0  0  0  0  0  0  0
    4.2163   -0.1360   -0.1849 C   0  0  0  0  0  0  0  0  0  0  0  0
    2.9387    0.1555   -0.9807 C   0  0  0  0  0  0  0  0  0  0  0  0
    4.1810    0.5797    1.1700 C   0  0  0  0  0  0  0  0  0  0  0  0
    2.6923    1.6575   -1.1063 C   0  0  0  0  0  0  0  0  0  0  0  0
    3.9110    2.0723    1.0001 C   0  0  0  0  0  0  0  0  0  0  0  0
    3.4413   -2.2359    0.8636 C   0  0  0  0  0  0  0  0  0  0  0  0
    3.3560   -3.7202    0.5580 C   0  0  0  0  0  0  0  0  0  0  0  0
    5.5302   -2.1956   -0.5374 C   0  0  0  0  0  0  0  0  0  0  0  0
    1.6757    3.0970    0.7276 C   0  0  0  0  0  0  0  0  0  0  0  0
    4.7542   -4.2966    0.6072 C   0  0  0  0  0  0  0  0  0  0  0  0
    0.4748    3.3110   -0.1590 C   0  0  1  0  0  0  0  0  0  0  0  0
   -0.5904    2.2877    0.1639 C   0  0  0  0  0  0  0  0  0  0  0  0
   -3.1350    1.2598   -0.3073 C   0  0  0  0  0  0  0  0  0  0  0  0
   -3.1034    0.0337   -0.9493 C   0  0  0  0  0  0  0  0  0  0  0  0
   -4.0092    1.5102    0.7319 C   0  0  0  0  0  0  0  0  0  0  0  0
   -3.9751   -0.9907   -0.5453 C   0  0  0  0  0  0  0  0  0  0  0  0
   -4.8781   -0.7519    0.5181 C   0  0  0  0  0  0  0  0  0  0  0  0
   -4.8825    0.5041    1.1461 C   0  0  0  0  0  0  0  0  0  0  0  0
   -3.9708   -2.2466   -1.1735 C   0  0  0  0  0  0  0  0  0  0  0  0
   -5.7499   -1.7761    0.9219 C   0  0  0  0  0  0  0  0  0  0  0  0
   -4.8440   -3.2529   -0.7592 C   0  0  0  0  0  0  0  0  0  0  0  0
   -5.7318   -3.0181    0.2865 C   0  0  0  0  0  0  0  0  0  0  0  0
    5.0610    0.2706   -0.7550 H   0  0  0  0  0  0  0  0  0  0  0  0
    3.0123   -0.2903   -1.9803 H   0  0  0  0  0  0  0  0  0  0  0  0
    2.0546   -0.2860   -0.5094 H   0  0  0  0  0  0  0  0  0  0  0  0
    3.3912    0.1722    1.8126 H   0  0  0  0  0  0  0  0  0  0  0  0
    5.1291    0.4324    1.7010 H   0  0  0  0  0  0  0  0  0  0  0  0
    3.4867    2.1284   -1.6972 H   0  0  0  0  0  0  0  0  0  0  0  0
    1.7597    1.7937   -1.6506 H   0  0  0  0  0  0  0  0  0  0  0  0
    3.8349    2.5487    1.9826 H   0  0  0  0  0  0  0  0  0  0  0  0
    4.7394    2.5538    0.4670 H   0  0  0  0  0  0  0  0  0  0  0  0
    2.4421   -1.8049    0.7787 H   0  0  0  0  0  0  0  0  0  0  0  0
    3.7841   -2.0964    1.8960 H   0  0  0  0  0  0  0  0  0  0  0  0
    2.9282   -3.8663   -0.4417 H   0  0  0  0  0  0  0  0  0  0  0  0
    2.7040   -4.2270    1.2770 H   0  0  0  0  0  0  0  0  0  0  0  0
    5.1676   -4.2517    1.6205 H   0  0  0  0  0  0  0  0  0  0  0  0
    4.7614   -5.3402    0.2783 H   0  0  0  0  0  0  0  0  0  0  0  0
    0.7180    3.3402   -1.2206 H   0  0  0  0  0  0  0  0  0  0  0  0
    6.4643   -4.0327   -0.6166 H   0  0  0  0  0  0  0  0  0  0  0  0
   -0.2302    1.2697   -0.0147 H   0  0  0  0  0  0  0  0  0  0  0  0
   -0.9108    2.3717    1.2086 H   0  0  0  0  0  0  0  0  0  0  0  0
    0.6826    5.2467   -0.1550 H   0  0  0  0  0  0  0  0  0  0  0  0
   -2.4029   -0.1505   -1.7605 H   0  0  0  0  0  0  0  0  0  0  0  0
   -4.0325    2.4676    1.2431 H   0  0  0  0  0  0  0  0  0  0  0  0
   -5.5669    0.7094    1.9666 H   0  0  0  0  0  0  0  0  0  0  0  0
   -3.2854   -2.4526   -1.9931 H   0  0  0  0  0  0  0  0  0  0  0  0
   -6.4477   -1.6002    1.7393 H   0  0  0  0  0  0  0  0  0  0  0  0
   -4.8190   -4.2156   -1.2633 H   0  0  0  0  0  0  0  0  0  0  0  0
  1 32  1  0  0  0  0
  2  6  2  0  0  0  0
  2  7  2  0  0  0  0
  2 22  1  0  0  0  0
  2 23  1  0  0  0  0
  3 18  2  0  0  0  0
  4 19  2  0  0  0  0
  5 21  1  0  0  0  0
  5 52  1  0  0  0  0
  8 11  1  0  0  0  0
  8 16  1  0  0  0  0
  8 18  1  0  0  0  0
  9 14  1  0  0  0  0
  9 15  1  0  0  0  0
  9 19  1  0  0  0  0
 10 18  1  0  0  0  0
 10 20  1  0  0  0  0
 10 49  1  0  0  0  0
 11 12  1  0  0  0  0
 11 13  1  0  0  0  0
 11 33  1  0  0  0  0
 12 14  1  0  0  0  0
 12 34  1  0  0  0  0
 12 35  1  0  0  0  0
 13 15  1  0  0  0  0
 13 36  1  0  0  0  0
 13 37  1  0  0  0  0
 14 38  1  0  0  0  0
 14 39  1  0  0  0  0
 15 40  1  0  0  0  0
 15 41  1  0  0  0  0
 16 17  1  0  0  0  0
 16 42  1  0  0  0  0
 16 43  1  0  0  0  0
 17 20  1  0  0  0  0
 17 44  1  0  0  0  0
 17 45  1  0  0  0  0
 19 21  1  0  0  0  0
 20 46  1  0  0  0  0
 20 47  1  0  0  0  0
 21 22  1  0  0  0  0
 21 48  1  0  0  0  0
 22 50  1  0  0  0  0
 22 51  1  0  0  0  0
 23 24  2  0  0  0  0
 23 25  1  0  0  0  0
 24 26  1  0  0  0  0
 24 53  1  0  0  0  0
 25 28  2  0  0  0  0
 25 54  1  0  0  0  0
 26 27  2  0  0  0  0
 26 29  1  0  0  0  0
 27 28  1  0  0  0  0
 27 30  1  0  0  0  0
 28 55  1  0  0  0  0
 29 31  2  0  0  0  0
 29 56  1  0  0  0  0
 30 32  2  0  0  0  0
 30 57  1  0  0  0  0
 31 32  1  0  0  0  0
 31 58  1  0  0  0  0
M  END
> <PUBCHEM_COMPOUND_CID>
11641515

> <PUBCHEM_CONFORMER_RMSD>
1

> <PUBCHEM_CONFORMER_DIVERSEORDER>
1
124
277
39
252
382
23
290
114
178
193
367
195
155
328
335
243
219
269
236
109
160
171
76
319
43
210
309
82
165
343
283
235
32
365
51
344
8
188
351
30
241
294
374
320
122
347
18
295
340
36
144
215
125
226
123
173
130
168
108
200
368
68
358
334
28
202
72
27
339
157
172
306
248
329
288
119
196
246
185
48
174
322
275
22
218
167
228
95
198
63
64
209
85
362
233
245
55
348
254
34
266
175
370
289
256
376
94
270
361
127
338
132
373
360
79
296
237
190
89
242
354
170
305
184
104
105
73
356
58
70
231
3
265
318
297
16
71
299
285
253
59
136
250
371
204
379
303
341
224
336
359
38
176
54
21
142
331
33
121
118
10
220
86
169
181
62
323
279
345
13
183
203
217
187
267
268
260
214
301
189
276
311
35
126
46
381
212
156
161
240
213
147
141
192
128
179
327
273
230
255
307
164
84
199
272
284
261
78
349
29
249
87
14
110
239
11
166
216
280
90
117
366
375
223
194
152
363
7
221
6
81
247
49
222
133
321
92
333
286
31
186
380
52
310
324
44
4
9
143
137
257
191
65
278
229
61
364
182
106
145
98
138
281
129
135
159
24
40
148
282
107
69
45
251
308
5
151
232
146
197
15
50
350
206
150
300
372
292
317
325
17
271
274
53
74
153
103
120
25
332
201
378
313
67
99
96
100
115
262
158
66
140
37
264
298
326
19
291
12
131
346
312
369
77
60
357
259
377
205
316
207
91
258
139
102
56
2
41
177
355
314
97
304
83
162
112
80
116
149
93
57
208
287
26
342
113
163
244
227
234
238
293
134
154
211
353
88
263
47
225
315
337
352
302
180
111
75
330
101
20
42

> <PUBCHEM_MMFF94_PARTIAL_CHARGES>
35
1 -0.18
10 -0.73
11 0.3
14 0.3
15 0.3
16 0.3
18 0.69
19 0.57
2 1.2
20 0.3
21 0.34
22 0.11
23 -0.01
24 -0.15
25 -0.15
28 -0.15
29 -0.15
3 -0.57
30 -0.15
31 -0.15
32 0.18
4 -0.57
49 0.37
5 -0.68
52 0.4
53 0.15
54 0.15
55 0.15
56 0.15
57 0.15
58 0.15
6 -0.65
7 -0.65
8 -0.66
9 -0.66

> <PUBCHEM_EFFECTIVE_ROTOR_COUNT>
8.2

> <PUBCHEM_PHARMACOPHORE_FEATURES>
11
1 10 donor
1 3 acceptor
1 4 acceptor
1 5 acceptor
1 5 donor
1 6 acceptor
1 7 acceptor
6 23 24 25 26 27 28 rings
6 26 27 29 30 31 32 rings
6 8 10 16 17 18 20 rings
6 9 11 12 13 14 15 rings

> <PUBCHEM_HEAVY_ATOM_COUNT>
32

> <PUBCHEM_ATOM_DEF_STEREO_COUNT>
1

> <PUBCHEM_ATOM_UDEF_STEREO_COUNT>
0

> <PUBCHEM_BOND_DEF_STEREO_COUNT>
0

> <PUBCHEM_BOND_UDEF_STEREO_COUNT>
0

> <PUBCHEM_ISOTOPIC_ATOM_COUNT>
0

> <PUBCHEM_COMPONENT_COUNT>
1

> <PUBCHEM_CACTVS_TAUTO_COUNT>
2

> <PUBCHEM_CONFORMER_ID>
00B1A2AB00000001

> <PUBCHEM_MMFF94_ENERGY>
60.5421

> <PUBCHEM_FEATURE_SELFOVERLAP>
55.884

> <PUBCHEM_SHAPE_FINGERPRINT>
10049733 71 18336540642847112763
10622 236 17826227394421986994
10838868 229 18410014343415391099
10928967 22 18340216274908340311
11070050 100 17127876187259302744
11409948 41 17910938465190016879
117089 54 18410301332149057395
11963148 33 18410004443336165498
11991303 11 17750223717951235229
12107183 9 18271540697708871353
12422481 6 17203325555561426140
12633046 712 18410567379898939493
13165053 137 15886011355960140867
13553639 21 18116151254187328251
1361 2 17977664535058112147
1361 87 18265607685102982020
13911852 28 18338797926958436421
13989917 61 18047757293328406011
14114206 34 14346648072787590796
14950920 106 17988646263769966273
15001296 14 18261664904903759778
15019793 15 18339641243239074779
15064981 113 11963972338535681418
15064986 96 17703802405323223119
15320291 9 17829599570208462867
15320294 125 17467631494953715654
15320467 1 18050285065848775555
15361156 5 18041294191885649677
15728490 83 18193280697615699075
16728300 4 18200318857399688647
17492 89 18409445873668955460
17909252 39 18340486669449987882
1813 80 17823978042818950789
19246450 95 17840327527458034185
19301676 85 18122051015181466151
19301679 30 18194970875775365579
19315092 285 18130514148962914849
20775530 9 18261387823794708676
21049683 118 13326034230289157797
21315759 227 18189878877780427140
24893989 43 17266956771636822527
25222932 49 18270961353601088820
3383291 50 17978220561836034169
3472631 163 8501560783200292585
354706 35 17606971869060065384
3737641 26 18410853282706798048
3886686 26 18340775832592218481
404807 14 18410299082245369971
437795 163 18336265640485674834
4394409 98 16673559751803077924
44062 13 18263360296231713653
4435113 14 17243871361418126947
4461854 278 17762329619612744272
463206 1 18408326583474221042
484985 159 18122910828536561009
49967989 163 17908995305640439006
50009960 94 18044064965836353106
50080093 196 17622705936220173470
56633871 153 18411986841115147577
613672 6 18194091115232047540
6201460 15 17825945919044973834
6422251 121 18333725832306405459
7970288 3 18410575071788733072
86090 222 17750509770708474931
8863177 126 18412826867682218300

> <PUBCHEM_SHAPE_MULTIPOLES>
619.97
16.79
6.96
1.33
5.36
1.07
-0.12
22.69
1.55
-1.98
0.89
0.08
-0.43
1.2

> <PUBCHEM_SHAPE_SELFOVERLAP>
1306.475

> <PUBCHEM_SHAPE_VOLUME>
348.3

> <PUBCHEM_COORDINATE_TYPE>
2
5
10

$$$$
