11644907
  -OEChem-03292013303D

 31 33  0     0  0  0  0  0  0999 V2000
    0.1865   -0.3576   -0.0265 O   0  0  0  0  0  0  0  0  0  0  0  0
    2.5060    2.4118   -0.0922 O   0  0  0  0  0  0  0  0  0  0  0  0
   -4.3876    1.2475    0.0370 O   0  0  0  0  0  0  0  0  0  0  0  0
   -2.2969    2.8722    0.0301 O   0  0  0  0  0  0  0  0  0  0  0  0
   -3.4518   -3.4085   -0.0125 O   0  0  0  0  0  0  0  0  0  0  0  0
    4.8378   -2.1679    0.0690 O   0  0  0  0  0  0  0  0  0  0  0  0
    2.1633    1.0222   -0.0347 C   0  0  0  0  0  0  0  0  0  0  0  0
    0.6693    0.9411   -0.0197 C   0  0  0  0  0  0  0  0  0  0  0  0
   -2.0843    0.5060    0.0054 C   0  0  0  0  0  0  0  0  0  0  0  0
   -1.1723   -0.5484   -0.0135 C   0  0  0  0  0  0  0  0  0  0  0  0
    2.7411    0.4558    1.2387 C   0  0  0  0  0  0  0  0  0  0  0  0
    2.7212    0.3574   -1.2690 C   0  0  0  0  0  0  0  0  0  0  0  0
   -0.1059    2.0352   -0.0018 C   0  0  0  0  0  0  0  0  0  0  0  0
   -1.5739    1.8858    0.0122 C   0  0  0  0  0  0  0  0  0  0  0  0
   -3.4578    0.2523    0.0182 C   0  0  0  0  0  0  0  0  0  0  0  0
    3.6019   -0.5677    1.2852 C   0  0  0  0  0  0  0  0  0  0  0  0
    3.5819   -0.6668   -1.2490 C   0  0  0  0  0  0  0  0  0  0  0  0
   -1.6307   -1.8661   -0.0198 C   0  0  0  0  0  0  0  0  0  0  0  0
    4.0673   -1.2141    0.0377 C   0  0  0  0  0  0  0  0  0  0  0  0
   -3.0019   -2.1236   -0.0069 C   0  0  0  0  0  0  0  0  0  0  0  0
   -3.9132   -1.0667    0.0121 C   0  0  0  0  0  0  0  0  0  0  0  0
    2.4330    0.9103    2.1782 H   0  0  0  0  0  0  0  0  0  0  0  0
    2.3978    0.7373   -2.2362 H   0  0  0  0  0  0  0  0  0  0  0  0
    0.2694    3.0513    0.0059 H   0  0  0  0  0  0  0  0  0  0  0  0
   -0.9229   -2.6911   -0.0345 H   0  0  0  0  0  0  0  0  0  0  0  0
    3.9829   -0.9432    2.2275 H   0  0  0  0  0  0  0  0  0  0  0  0
    3.9483   -1.1151   -2.1650 H   0  0  0  0  0  0  0  0  0  0  0  0
    3.4762    2.4868   -0.1017 H   0  0  0  0  0  0  0  0  0  0  0  0
   -4.9822   -1.2664    0.0222 H   0  0  0  0  0  0  0  0  0  0  0  0
   -3.9550    2.1153    0.0387 H   0  0  0  0  0  0  0  0  0  0  0  0
   -4.4244   -3.4023   -0.0017 H   0  0  0  0  0  0  0  0  0  0  0  0
  1  8  1  0  0  0  0
  1 10  1  0  0  0  0
  2  7  1  0  0  0  0
  2 28  1  0  0  0  0
  3 15  1  0  0  0  0
  3 30  1  0  0  0  0
  4 14  2  0  0  0  0
  5 20  1  0  0  0  0
  5 31  1  0  0  0  0
  6 19  2  0  0  0  0
  7  8  1  0  0  0  0
  7 11  1  0  0  0  0
  7 12  1  0  0  0  0
  8 13  2  0  0  0  0
  9 10  1  0  0  0  0
  9 14  1  0  0  0  0
  9 15  2  0  0  0  0
 10 18  2  0  0  0  0
 11 16  2  0  0  0  0
 11 22  1  0  0  0  0
 12 17  2  0  0  0  0
 12 23  1  0  0  0  0
 13 14  1  0  0  0  0
 13 24  1  0  0  0  0
 15 21  1  0  0  0  0
 16 19  1  0  0  0  0
 16 26  1  0  0  0  0
 17 19  1  0  0  0  0
 17 27  1  0  0  0  0
 18 20  1  0  0  0  0
 18 25  1  0  0  0  0
 20 21  2  0  0  0  0
 21 29  1  0  0  0  0
M  END
> <PUBCHEM_COMPOUND_CID>
11644907

> <PUBCHEM_CONFORMER_RMSD>
0.6

> <PUBCHEM_CONFORMER_DIVERSEORDER>
1
2
6
5
3
4

> <PUBCHEM_MMFF94_PARTIAL_CHARGES>
31
1 -0.16
10 0.08
11 -0.29
12 -0.29
13 -0.14
14 0.47
15 0.08
16 -0.14
17 -0.14
18 -0.15
19 0.54
2 -0.68
20 0.08
21 -0.15
22 0.15
23 0.15
24 0.15
25 0.15
26 0.15
27 0.15
28 0.4
29 0.15
3 -0.53
30 0.45
31 0.45
4 -0.57
5 -0.53
6 -0.57
7 0.69
8 -0.06
9 0.09

> <PUBCHEM_EFFECTIVE_ROTOR_COUNT>
1.2

> <PUBCHEM_PHARMACOPHORE_FEATURES>
10
1 1 acceptor
1 2 acceptor
1 2 donor
1 3 donor
1 4 acceptor
1 5 donor
1 6 acceptor
6 1 8 9 10 13 14 rings
6 7 11 12 16 17 19 rings
6 9 10 15 18 20 21 rings

> <PUBCHEM_HEAVY_ATOM_COUNT>
21

> <PUBCHEM_ATOM_DEF_STEREO_COUNT>
0

> <PUBCHEM_ATOM_UDEF_STEREO_COUNT>
0

> <PUBCHEM_BOND_DEF_STEREO_COUNT>
0

> <PUBCHEM_BOND_UDEF_STEREO_COUNT>
0

> <PUBCHEM_ISOTOPIC_ATOM_COUNT>
0

> <PUBCHEM_COMPONENT_COUNT>
1

> <PUBCHEM_CACTVS_TAUTO_COUNT>
12

> <PUBCHEM_CONFORMER_ID>
00B1AFEB00000001

> <PUBCHEM_MMFF94_ENERGY>
52.0011

> <PUBCHEM_FEATURE_SELFOVERLAP>
50.776

> <PUBCHEM_SHAPE_FINGERPRINT>
10062212 137 18333730221683503115
10616163 171 18411986900648688286
10618630 7 18337953492773588558
11405975 8 18343305881207742129
12236239 1 17676774180313549124
12553582 1 17908982454312571743
12555020 224 18337662032573083935
12633257 1 18272101456563813289
13140716 1 18341051908246242969
13296908 3 18339924930001863439
13862211 1 18411980274347457295
14178342 30 18264471924283582666
14223421 5 18269268135464003608
14866123 147 17192928384599336418
15042514 8 18409452497014928163
15196674 1 18410575115049700805
15442244 35 18410012147658129384
16752209 62 18262790770741137497
16945 1 18410575063505084845
17492 89 18337672047804380234
17804303 29 18413109441801265593
1813 80 17603302678219368436
18186145 218 17240478138999442363
19141452 34 18341895182188390915
19591789 44 17690283711821696619
19862831 5 17530683208138569858
20281475 54 18339082691341966925
20291156 8 18335702788118554418
21197605 99 12929710226193275978
21267235 1 18408892845237921339
21634736 98 18261116317679782540
221490 88 18336271257437351554
23184049 29 18411417340872395572
23366157 5 18043249252351118060
23402539 116 18271516503878206037
23559900 14 18342175570575578356
2748010 2 18196083576662573717
312423 11 18188220886859095816
335352 9 18338798914584721309
474 4 17096947969163319668
5104073 3 18342742952771381779
5281201 14 11963384107824279410
5385378 56 17620484506800882473
559249 180 17971189219024440882
59755656 215 18195525887875012439
633830 44 16660365891553429357
67856867 119 18261113032552385108
7364860 26 18340486781129959448
74978 22 18409167697232636660
9709674 26 18340766034869456618
9981440 41 17539980889255019416

> <PUBCHEM_SHAPE_MULTIPOLES>
396.95
8.72
2.91
0.92
1.93
0.37
0
4.29
-0.14
-1.98
0
1.04
0.05
-0.05

> <PUBCHEM_SHAPE_SELFOVERLAP>
886.081

> <PUBCHEM_SHAPE_VOLUME>
208.5

> <PUBCHEM_COORDINATE_TYPE>
2
5
10

$$$$
