11644921
  -OEChem-03292013303D

 33 34  0     1  0  0  0  0  0999 V2000
    2.2400   -0.0432    1.3222 O   0  0  0  0  0  0  0  0  0  0  0  0
    2.4103    0.8132   -1.5487 O   0  0  0  0  0  0  0  0  0  0  0  0
    2.2875   -2.6256   -0.4561 O   0  0  0  0  0  0  0  0  0  0  0  0
    5.2917    1.2480   -0.2000 O   0  0  0  0  0  0  0  0  0  0  0  0
   -3.0585    2.5925   -0.1858 O   0  5  0  0  0  0  0  0  0  0  0  0
   -0.9137    2.2718    0.1817 O   0  0  0  0  0  0  0  0  0  0  0  0
    0.0458    0.0379    0.4516 N   0  0  0  0  0  0  0  0  0  0  0  0
   -1.4359   -1.8010    0.3046 N   0  0  0  0  0  0  0  0  0  0  0  0
   -2.0775    1.8391    0.0139 N   0  3  0  0  0  0  0  0  0  0  0  0
   -3.7863   -1.4492   -0.0946 N   0  0  0  0  0  0  0  0  0  0  0  0
   -4.6477    0.7403   -0.3458 N   0  0  0  0  0  0  0  0  0  0  0  0
    2.9077   -0.3622   -0.9219 C   0  0  2  0  0  0  0  0  0  0  0  0
    1.7630   -1.3137   -0.6418 C   0  0  2  0  0  0  0  0  0  0  0  0
    3.4076   -0.0522    0.4833 C   0  0  1  0  0  0  0  0  0  0  0  0
    1.1981   -0.8007    0.6811 C   0  0  1  0  0  0  0  0  0  0  0  0
    4.1471    1.2643    0.6374 C   0  0  0  0  0  0  0  0  0  0  0  0
   -1.2375   -0.4518    0.2688 C   0  0  0  0  0  0  0  0  0  0  0  0
   -2.2941    0.4337    0.0525 C   0  0  0  0  0  0  0  0  0  0  0  0
   -3.5450   -0.1220   -0.1223 C   0  0  0  0  0  0  0  0  0  0  0  0
   -2.7025   -2.2193    0.1200 C   0  0  0  0  0  0  0  0  0  0  0  0
    3.6896   -0.7975   -1.5526 H   0  0  0  0  0  0  0  0  0  0  0  0
    1.0261   -1.3564   -1.4496 H   0  0  0  0  0  0  0  0  0  0  0  0
    4.0517   -0.8707    0.8293 H   0  0  0  0  0  0  0  0  0  0  0  0
    0.9478   -1.6182    1.3673 H   0  0  0  0  0  0  0  0  0  0  0  0
    4.4677    1.3973    1.6765 H   0  0  0  0  0  0  0  0  0  0  0  0
    3.5153    2.1225    0.3846 H   0  0  0  0  0  0  0  0  0  0  0  0
    0.2601    0.9414    0.0468 H   0  0  0  0  0  0  0  0  0  0  0  0
    3.1759    1.3517   -1.8117 H   0  0  0  0  0  0  0  0  0  0  0  0
    2.8469   -2.6334    0.3383 H   0  0  0  0  0  0  0  0  0  0  0  0
    5.7497    2.0964   -0.0742 H   0  0  0  0  0  0  0  0  0  0  0  0
   -2.8671   -3.2893    0.1470 H   0  0  0  0  0  0  0  0  0  0  0  0
   -5.5487    0.2869   -0.4444 H   0  0  0  0  0  0  0  0  0  0  0  0
   -4.5007    1.5783   -0.8942 H   0  0  0  0  0  0  0  0  0  0  0  0
  1 14  1  0  0  0  0
  1 15  1  0  0  0  0
  2 12  1  0  0  0  0
  2 28  1  0  0  0  0
  3 13  1  0  0  0  0
  3 29  1  0  0  0  0
  4 16  1  0  0  0  0
  4 30  1  0  0  0  0
  5  9  1  0  0  0  0
  6  9  2  0  0  0  0
  7 15  1  0  0  0  0
  7 17  1  0  0  0  0
  7 27  1  0  0  0  0
  8 17  2  0  0  0  0
  8 20  1  0  0  0  0
  9 18  1  0  0  0  0
 10 19  1  0  0  0  0
 10 20  2  0  0  0  0
 11 19  1  0  0  0  0
 11 32  1  0  0  0  0
 11 33  1  0  0  0  0
 12 13  1  0  0  0  0
 12 14  1  0  0  0  0
 12 21  1  0  0  0  0
 13 15  1  0  0  0  0
 13 22  1  0  0  0  0
 14 16  1  0  0  0  0
 14 23  1  0  0  0  0
 15 24  1  0  0  0  0
 16 25  1  0  0  0  0
 16 26  1  0  0  0  0
 17 18  1  0  0  0  0
 18 19  2  0  0  0  0
 20 31  1  0  0  0  0
M  CHG  2   5  -1   9   1
M  END
> <PUBCHEM_COMPOUND_CID>
11644921

> <PUBCHEM_CONFORMER_RMSD>
0.8

> <PUBCHEM_CONFORMER_DIVERSEORDER>
1
102
93
110
88
81
92
58
98
59
119
65
43
111
90
24
60
47
69
114
57
18
112
115
36
63
9
56
101
26
74
109
7
71
45
91
62
21
30
3
116
89
51
87
31
103
118
6
106
54
79
99
37
105
12
68
100
64
25
22
67
23
33
46
52
27
16
41
72
50
97
32
5
35
84
44
49
17
108
2
75
11
53
19
10
82
29
83
61
95
15
4
107
78
28
120
85
77
76
13
48
14
80
96
70
55
34
117
73
113
39
40
8
42
66
38
104
86
20
94

> <PUBCHEM_MMFF94_PARTIAL_CHARGES>
27
1 -0.56
10 -0.62
11 -0.9
12 0.28
13 0.28
14 0.28
15 0.65
16 0.28
17 0.41
18 0.13
19 0.41
2 -0.68
20 0.47
27 0.4
28 0.4
29 0.4
3 -0.68
30 0.4
31 0.15
32 0.4
33 0.4
4 -0.68
5 -0.52
6 -0.52
7 -0.87
8 -0.62
9 0.91

> <PUBCHEM_EFFECTIVE_ROTOR_COUNT>
5

> <PUBCHEM_PHARMACOPHORE_FEATURES>
17
1 1 acceptor
1 11 cation
1 11 donor
1 2 acceptor
1 2 donor
1 3 acceptor
1 3 donor
1 4 acceptor
1 4 donor
1 5 acceptor
1 5 anion
1 6 acceptor
1 7 donor
3 7 8 17 cation
3 8 10 20 cation
5 1 12 13 14 15 rings
6 8 10 17 18 19 20 rings

> <PUBCHEM_HEAVY_ATOM_COUNT>
20

> <PUBCHEM_ATOM_DEF_STEREO_COUNT>
0

> <PUBCHEM_ATOM_UDEF_STEREO_COUNT>
4

> <PUBCHEM_BOND_DEF_STEREO_COUNT>
0

> <PUBCHEM_BOND_UDEF_STEREO_COUNT>
0

> <PUBCHEM_ISOTOPIC_ATOM_COUNT>
0

> <PUBCHEM_COMPONENT_COUNT>
1

> <PUBCHEM_CACTVS_TAUTO_COUNT>
13

> <PUBCHEM_CONFORMER_ID>
00B1AFF900000001

> <PUBCHEM_MMFF94_ENERGY>
83.5804

> <PUBCHEM_FEATURE_SELFOVERLAP>
86.487

> <PUBCHEM_SHAPE_FINGERPRINT>
10366900 7 18059565923307463057
10498660 4 18410573989552030533
10608611 8 18341328903324065922
10646746 165 18410855460692774624
11132069 177 18407760335223085005
11715629 250 18336266760379700380
12173636 292 18337670807117202207
12236239 1 17676200286250746834
12553582 1 18122071063830567847
128620 24 18261114096960105427
14790565 3 18125164823558667073
15375358 24 18342171189402818891
15375462 6 18343018874276406062
17134986 127 17687177596005846493
18186145 218 17986679177253683067
192875 21 17603586382611406636
20279233 1 18202282511060292699
20510252 161 18341894044154056577
20645477 56 18409168783948812505
20645477 70 17203333264959449286
20715895 44 17824525393297958013
20871999 31 18337944693071726255
23114952 82 17916877802740913150
23402539 116 18335412517333853118
23557571 272 18341618165113394498
23559900 14 18127686033484799650
34934 24 18410849971613852527
3545911 37 18408606946038395606
4028521 119 18408880716139104877
4340502 62 16226051051204596121
474 4 17386011701765806988
5104073 3 18410013212773141946
58051976 378 18412824702791808974
7364860 26 18341049597765262770
81228 2 18335990804773588441
9709674 26 18342178821401890190

> <PUBCHEM_SHAPE_MULTIPOLES>
351.47
8.72
2.4
0.91
2.32
0.12
-0.09
2.34
-0.5
-1.27
-0.15
0.75
0
0.4

> <PUBCHEM_SHAPE_SELFOVERLAP>
744.667

> <PUBCHEM_SHAPE_VOLUME>
193.5

> <PUBCHEM_COORDINATE_TYPE>
2
5
10

$$$$
