11655056
  -OEChem-03292013303D

 58 61  0     1  0  0  0  0  0999 V2000
   -3.8686    0.6886   -0.1321 O   0  0  0  0  0  0  0  0  0  0  0  0
   -4.5353    3.1231   -1.3940 O   0  0  0  0  0  0  0  0  0  0  0  0
    0.5654    1.9951    0.5225 O   0  0  0  0  0  0  0  0  0  0  0  0
   -0.3952   -2.5315   -0.9252 O   0  0  0  0  0  0  0  0  0  0  0  0
    2.0030   -1.6727   -0.5440 O   0  0  0  0  0  0  0  0  0  0  0  0
    6.8755    0.7775   -1.8754 O   0  0  0  0  0  0  0  0  0  0  0  0
    8.0647   -0.1057    0.4766 O   0  0  0  0  0  0  0  0  0  0  0  0
   -3.8083    1.9555    0.5737 C   0  0  1  0  0  0  0  0  0  0  0  0
   -2.3803    2.5118    0.4697 C   0  0  0  0  0  0  0  0  0  0  0  0
   -4.8453    2.8975   -0.0156 C   0  0  0  0  0  0  0  0  0  0  0  0
   -1.6539    1.2532    0.1853 C   0  0  0  0  0  0  0  0  0  0  0  0
   -2.5631    0.2696   -0.1736 C   0  0  0  0  0  0  0  0  0  0  0  0
   -2.1631   -0.9977   -0.5537 C   0  0  0  0  0  0  0  0  0  0  0  0
   -0.2957    0.9912    0.1769 C   0  0  0  0  0  0  0  0  0  0  0  0
   -6.2416    2.2744    0.0393 C   0  0  0  0  0  0  0  0  0  0  0  0
   -4.8380    4.2482    0.7049 C   0  0  0  0  0  0  0  0  0  0  0  0
    0.1324   -0.2864   -0.1914 C   0  0  0  0  0  0  0  0  0  0  0  0
   -0.7953   -1.2793   -0.5573 C   0  0  0  0  0  0  0  0  0  0  0  0
   -3.1692   -2.0272   -0.9413 C   0  0  0  0  0  0  0  0  0  0  0  0
    1.5789   -0.5758   -0.2038 C   0  0  0  0  0  0  0  0  0  0  0  0
    2.4812    0.5373    0.2034 C   0  0  0  0  0  0  0  0  0  0  0  0
    1.9085    1.7066    0.5271 C   0  0  0  0  0  0  0  0  0  0  0  0
   -3.6454   -2.8554    0.2275 C   0  0  0  0  0  0  0  0  0  0  0  0
    3.9421    0.3701    0.2715 C   0  0  0  0  0  0  0  0  0  0  0  0
   -3.5206   -4.1838    0.4101 C   0  0  0  0  0  0  0  0  0  0  0  0
    4.7328    0.6547   -0.8439 C   0  0  0  0  0  0  0  0  0  0  0  0
    4.5422   -0.0737    1.4518 C   0  0  0  0  0  0  0  0  0  0  0  0
   -2.8442   -5.0355   -0.6312 C   0  0  0  0  0  0  0  0  0  0  0  0
   -4.0209   -4.9464    1.6040 C   0  0  0  0  0  0  0  0  0  0  0  0
    6.1170    0.4961   -0.7793 C   0  0  0  0  0  0  0  0  0  0  0  0
    5.9264   -0.2323    1.5165 C   0  0  0  0  0  0  0  0  0  0  0  0
    6.7139    0.0527    0.4009 C   0  0  0  0  0  0  0  0  0  0  0  0
   -4.0459    1.7415    1.6262 H   0  0  0  0  0  0  0  0  0  0  0  0
   -2.0668    2.9851    1.4047 H   0  0  0  0  0  0  0  0  0  0  0  0
   -2.2387    3.2091   -0.3619 H   0  0  0  0  0  0  0  0  0  0  0  0
   -6.9909    2.9602   -0.3735 H   0  0  0  0  0  0  0  0  0  0  0  0
   -6.5326    2.0292    1.0659 H   0  0  0  0  0  0  0  0  0  0  0  0
   -6.3009    1.3645   -0.5683 H   0  0  0  0  0  0  0  0  0  0  0  0
   -5.0243    4.1324    1.7777 H   0  0  0  0  0  0  0  0  0  0  0  0
   -3.8879    4.7756    0.5688 H   0  0  0  0  0  0  0  0  0  0  0  0
   -5.6087    4.9112    0.2942 H   0  0  0  0  0  0  0  0  0  0  0  0
   -4.0557   -1.5277   -1.3568 H   0  0  0  0  0  0  0  0  0  0  0  0
   -2.8037   -2.6067   -1.7918 H   0  0  0  0  0  0  0  0  0  0  0  0
   -5.1980    3.7362   -1.7556 H   0  0  0  0  0  0  0  0  0  0  0  0
    2.4638    2.5820    0.8408 H   0  0  0  0  0  0  0  0  0  0  0  0
   -4.1569   -2.2917    1.0077 H   0  0  0  0  0  0  0  0  0  0  0  0
   -1.0970   -3.1758   -0.7573 H   0  0  0  0  0  0  0  0  0  0  0  0
    4.2759    1.0002   -1.7689 H   0  0  0  0  0  0  0  0  0  0  0  0
    3.9420   -0.3008    2.3296 H   0  0  0  0  0  0  0  0  0  0  0  0
   -2.7254   -4.5747   -1.6115 H   0  0  0  0  0  0  0  0  0  0  0  0
   -1.8570   -5.3474   -0.2742 H   0  0  0  0  0  0  0  0  0  0  0  0
   -3.4361   -5.9424   -0.8035 H   0  0  0  0  0  0  0  0  0  0  0  0
   -4.7668   -5.6878    1.3005 H   0  0  0  0  0  0  0  0  0  0  0  0
   -3.1932   -5.4632    2.1002 H   0  0  0  0  0  0  0  0  0  0  0  0
   -4.4887   -4.2823    2.3383 H   0  0  0  0  0  0  0  0  0  0  0  0
    6.3784   -0.5787    2.4421 H   0  0  0  0  0  0  0  0  0  0  0  0
    7.8081    0.6123   -1.6525 H   0  0  0  0  0  0  0  0  0  0  0  0
    8.2975   -0.4188    1.3675 H   0  0  0  0  0  0  0  0  0  0  0  0
  1  8  1  0  0  0  0
  1 12  1  0  0  0  0
  2 10  1  0  0  0  0
  2 44  1  0  0  0  0
  3 14  1  0  0  0  0
  3 22  1  0  0  0  0
  4 18  1  0  0  0  0
  4 47  1  0  0  0  0
  5 20  2  0  0  0  0
  6 30  1  0  0  0  0
  6 57  1  0  0  0  0
  7 32  1  0  0  0  0
  7 58  1  0  0  0  0
  8  9  1  0  0  0  0
  8 10  1  0  0  0  0
  8 33  1  0  0  0  0
  9 11  1  0  0  0  0
  9 34  1  0  0  0  0
  9 35  1  0  0  0  0
 10 15  1  0  0  0  0
 10 16  1  0  0  0  0
 11 12  1  0  0  0  0
 11 14  2  0  0  0  0
 12 13  2  0  0  0  0
 13 18  1  0  0  0  0
 13 19  1  0  0  0  0
 14 17  1  0  0  0  0
 15 36  1  0  0  0  0
 15 37  1  0  0  0  0
 15 38  1  0  0  0  0
 16 39  1  0  0  0  0
 16 40  1  0  0  0  0
 16 41  1  0  0  0  0
 17 18  2  0  0  0  0
 17 20  1  0  0  0  0
 19 23  1  0  0  0  0
 19 42  1  0  0  0  0
 19 43  1  0  0  0  0
 20 21  1  0  0  0  0
 21 22  2  0  0  0  0
 21 24  1  0  0  0  0
 22 45  1  0  0  0  0
 23 25  2  0  0  0  0
 23 46  1  0  0  0  0
 24 26  2  0  0  0  0
 24 27  1  0  0  0  0
 25 28  1  0  0  0  0
 25 29  1  0  0  0  0
 26 30  1  0  0  0  0
 26 48  1  0  0  0  0
 27 31  2  0  0  0  0
 27 49  1  0  0  0  0
 28 50  1  0  0  0  0
 28 51  1  0  0  0  0
 28 52  1  0  0  0  0
 29 53  1  0  0  0  0
 29 54  1  0  0  0  0
 29 55  1  0  0  0  0
 30 32  2  0  0  0  0
 31 32  1  0  0  0  0
 31 56  1  0  0  0  0
M  END
> <PUBCHEM_COMPOUND_CID>
11655056

> <PUBCHEM_CONFORMER_RMSD>
0.8

> <PUBCHEM_CONFORMER_DIVERSEORDER>
6
111
94
11
121
103
139
132
131
76
64
117
24
141
108
83
10
107
23
116
52
136
110
62
44
113
106
102
1
105
69
70
61
45
29
63
86
100
96
93
18
25
12
127
128
97
90
71
56
58
91
138
98
99
27
137
72
48
122
14
16
126
38
43
57
67
13
68
2
123
89
59
21
46
109
85
79
33
17
30
60
140
74
92
20
8
19
129
55
133
114
134
82
35
88
47
124
31
101
22
78
53
42
87
81
119
125
115
32
65
135
39
28
54
41
118
66
26
51
84
7
104
40
130
9
37
120
3
34
80
112
77
95
49
15
36
5
73
4
75
50

> <PUBCHEM_MMFF94_PARTIAL_CHARGES>
39
1 -0.36
10 0.28
11 -0.14
12 0.08
13 -0.14
14 0.08
17 0.09
18 0.08
19 0.28
2 -0.68
20 0.47
21 -0.01
22 -0.07
23 -0.29
24 0.03
25 -0.28
26 -0.15
27 -0.15
28 0.14
29 0.14
3 -0.16
30 0.08
31 -0.15
32 0.08
4 -0.53
44 0.4
45 0.15
46 0.15
47 0.45
48 0.15
49 0.15
5 -0.57
56 0.15
57 0.45
58 0.45
6 -0.53
7 -0.53
8 0.28
9 0.14

> <PUBCHEM_EFFECTIVE_ROTOR_COUNT>
4.6

> <PUBCHEM_PHARMACOPHORE_FEATURES>
14
1 1 acceptor
1 2 acceptor
1 2 donor
1 3 acceptor
1 4 donor
1 5 acceptor
1 6 donor
1 7 donor
3 10 15 16 hydrophobe
3 25 28 29 hydrophobe
5 1 8 9 11 12 rings
6 11 12 13 14 17 18 rings
6 24 26 27 30 31 32 rings
6 3 14 17 20 21 22 rings

> <PUBCHEM_HEAVY_ATOM_COUNT>
32

> <PUBCHEM_ATOM_DEF_STEREO_COUNT>
0

> <PUBCHEM_ATOM_UDEF_STEREO_COUNT>
1

> <PUBCHEM_BOND_DEF_STEREO_COUNT>
0

> <PUBCHEM_BOND_UDEF_STEREO_COUNT>
0

> <PUBCHEM_ISOTOPIC_ATOM_COUNT>
0

> <PUBCHEM_COMPONENT_COUNT>
1

> <PUBCHEM_CACTVS_TAUTO_COUNT>
43

> <PUBCHEM_CONFORMER_ID>
00B1D79000000006

> <PUBCHEM_MMFF94_ENERGY>
100.0321

> <PUBCHEM_FEATURE_SELFOVERLAP>
71.184

> <PUBCHEM_SHAPE_FINGERPRINT>
10050765 1 18267302217464272536
10290309 65 18194968444280855691
10411042 1 18051972821156997935
10675989 125 17621886383635302721
10906281 52 18058736780013739101
10940486 97 18334579078803880013
1100329 8 18050564041602912907
11056379 131 18339366373816310575
11377469 6 17678451085390384383
11809386 21 18335133241322590346
11991303 11 18260544516072882751
12107183 9 18119517753138841690
12236239 1 18187362139326127784
12616971 3 17676203546953999952
12788726 201 18190180276762836387
13009979 54 18044661029860402023
13140716 1 18270115846128474297
13248334 5 17474387977333223855
13540713 4 17987506186308266768
13690498 29 18267594691603581174
13782708 43 17703227438236456374
13911987 19 18191854649132474917
14790565 3 18124881161958123889
14844126 61 18337389452474163123
14856354 85 18410858784459327118
14866123 147 18410572920791281659
15131766 46 16879372192484083300
15230672 131 18266462014877272326
15250474 111 18188195564386651114
15347591 1 18339079402273114368
15439362 3 17982453698149136671
1577012 14 18186523212033340756
15927050 60 18340202986612803439
16087824 20 18413386541757053119
16990350 14 17476644178566020977
17980427 26 17836073478267158445
18608769 82 18343864429405474489
19301679 30 18264497341579521075
19427546 20 18336833086145924012
21033648 29 18193568770300401821
21639891 77 18201721812160131377
21796203 349 17396453922699166515
22182313 1 17702964589941727414
23559900 14 17917701410260415440
23569914 152 15978648638047591716
23569943 247 15050906157220992684
23576562 1 18262247732504729172
25269216 80 18191047749447204558
335352 9 18343297050850634996
4058900 60 18052545370198464281
4073 2 18412543215631855386
4409770 3 18409163342837353559
44389302 135 18191289509690180338
44802255 64 17895465913623383005
497634 4 17895750819867675438
504843 32 18261671477047585325
5104073 3 18200029680844639448
513202 73 18265624362656801291
59755656 215 18059011671101114164
59755656 520 18337665326739172773
6086070 43 16629945682258153378
6669772 16 18198625428629280335
6700243 42 17839220541768751660
9896288 288 18410295826170068707
9981440 41 18265618672336525465

> <PUBCHEM_SHAPE_MULTIPOLES>
617.46
16.52
5.54
1.17
29.05
5.78
-0.04
-5.57
-0.7
-16.02
-0.94
0.83
0.32
0.2

> <PUBCHEM_SHAPE_SELFOVERLAP>
1358.261

> <PUBCHEM_SHAPE_VOLUME>
334.8

> <PUBCHEM_COORDINATE_TYPE>
2
5
10

$$$$
