11658872
  -OEChem-03292013303D

 31 32  0     1  0  0  0  0  0999 V2000
    3.5073   -2.1203    0.0478 O   0  0  0  0  0  0  0  0  0  0  0  0
    3.5143    1.3927   -0.6752 O   0  0  0  0  0  0  0  0  0  0  0  0
    4.3488    0.2070    1.1162 O   0  0  0  0  0  0  0  0  0  0  0  0
   -0.6418   -0.9872    0.2698 N   0  0  0  0  0  0  0  0  0  0  0  0
   -2.6708   -1.8247   -0.0362 N   0  0  0  0  0  0  0  0  0  0  0  0
   -1.1487    1.3857    0.2886 N   0  0  0  0  0  0  0  0  0  0  0  0
   -3.5387    1.7708   -0.0204 N   0  0  0  0  0  0  0  0  0  0  0  0
   -5.1033   -0.0189   -0.2960 N   0  0  0  0  0  0  0  0  0  0  0  0
    0.8012   -0.9543    0.4667 C   0  0  0  0  0  0  0  0  0  0  0  0
    1.6262   -0.8879   -0.8268 C   0  0  0  0  0  0  0  0  0  0  0  0
    3.1488   -0.9416   -0.6547 C   0  0  1  0  0  0  0  0  0  0  0  0
   -1.4696    0.0863    0.1974 C   0  0  0  0  0  0  0  0  0  0  0  0
   -2.7312   -0.4544    0.0069 C   0  0  0  0  0  0  0  0  0  0  0  0
   -1.3961   -2.1116    0.1253 C   0  0  0  0  0  0  0  0  0  0  0  0
    3.7351    0.2631    0.0581 C   0  0  0  0  0  0  0  0  0  0  0  0
   -3.7896    0.4420   -0.1029 C   0  0  0  0  0  0  0  0  0  0  0  0
   -2.2528    2.1544    0.1676 C   0  0  0  0  0  0  0  0  0  0  0  0
    4.0608    2.5989   -0.1323 C   0  0  0  0  0  0  0  0  0  0  0  0
    1.0584   -1.8528    1.0401 H   0  0  0  0  0  0  0  0  0  0  0  0
    1.0220   -0.0927    1.1074 H   0  0  0  0  0  0  0  0  0  0  0  0
    1.3279   -1.7385   -1.4543 H   0  0  0  0  0  0  0  0  0  0  0  0
    1.3472    0.0161   -1.3826 H   0  0  0  0  0  0  0  0  0  0  0  0
    3.6213   -1.0009   -1.6425 H   0  0  0  0  0  0  0  0  0  0  0  0
   -0.9744   -3.1074    0.1433 H   0  0  0  0  0  0  0  0  0  0  0  0
    4.4762   -2.1982    0.0165 H   0  0  0  0  0  0  0  0  0  0  0  0
   -2.0888    3.2250    0.2290 H   0  0  0  0  0  0  0  0  0  0  0  0
   -5.2932   -1.0101   -0.3571 H   0  0  0  0  0  0  0  0  0  0  0  0
   -5.8556    0.6521   -0.3718 H   0  0  0  0  0  0  0  0  0  0  0  0
    5.1494    2.5206   -0.0554 H   0  0  0  0  0  0  0  0  0  0  0  0
    3.6175    2.8081    0.8459 H   0  0  0  0  0  0  0  0  0  0  0  0
    3.8149    3.4194   -0.8116 H   0  0  0  0  0  0  0  0  0  0  0  0
  1 11  1  0  0  0  0
  1 25  1  0  0  0  0
  2 15  1  0  0  0  0
  2 18  1  0  0  0  0
  3 15  2  0  0  0  0
  4  9  1  0  0  0  0
  4 12  1  0  0  0  0
  4 14  1  0  0  0  0
  5 13  1  0  0  0  0
  5 14  2  0  0  0  0
  6 12  2  0  0  0  0
  6 17  1  0  0  0  0
  7 16  1  0  0  0  0
  7 17  2  0  0  0  0
  8 16  1  0  0  0  0
  8 27  1  0  0  0  0
  8 28  1  0  0  0  0
  9 10  1  0  0  0  0
  9 19  1  0  0  0  0
  9 20  1  0  0  0  0
 10 11  1  0  0  0  0
 10 21  1  0  0  0  0
 10 22  1  0  0  0  0
 11 15  1  0  0  0  0
 11 23  1  0  0  0  0
 12 13  1  0  0  0  0
 13 16  2  0  0  0  0
 14 24  1  0  0  0  0
 17 26  1  0  0  0  0
 18 29  1  0  0  0  0
 18 30  1  0  0  0  0
 18 31  1  0  0  0  0
M  END
> <PUBCHEM_COMPOUND_CID>
11658872

> <PUBCHEM_CONFORMER_RMSD>
0.6

> <PUBCHEM_CONFORMER_DIVERSEORDER>
1
9
6
105
32
38
47
59
110
76
111
100
18
81
80
11
104
33
54
42
7
78
39
106
40
88
91
108
5
31
10
13
99
66
17
96
14
29
28
89
69
19
12
109
61
98
56
77
16
64
103
70
79
26
107
22
60
45
72
52
68
57
34
43
87
85
8
67
35
102
55
90
53
62
21
97
24
25
27
75
46
23
83
84
94
71
20
95
51
4
41
73
50
86
15
63
49
92
2
3
65
93
30
101
58
82
48
44
37
74
36

> <PUBCHEM_MMFF94_PARTIAL_CHARGES>
22
1 -0.68
11 0.34
12 0.11
13 0.23
14 0.04
15 0.66
16 0.41
17 0.47
18 0.28
2 -0.43
24 0.15
25 0.4
26 0.15
27 0.4
28 0.4
3 -0.57
4 0.05
5 -0.57
6 -0.57
7 -0.62
8 -0.9
9 0.26

> <PUBCHEM_EFFECTIVE_ROTOR_COUNT>
5

> <PUBCHEM_PHARMACOPHORE_FEATURES>
10
1 1 acceptor
1 1 donor
1 3 acceptor
1 8 cation
1 8 donor
3 4 5 14 cation
3 4 6 12 cation
3 6 7 17 cation
5 4 5 12 13 14 rings
6 6 7 12 13 16 17 rings

> <PUBCHEM_HEAVY_ATOM_COUNT>
18

> <PUBCHEM_ATOM_DEF_STEREO_COUNT>
0

> <PUBCHEM_ATOM_UDEF_STEREO_COUNT>
1

> <PUBCHEM_BOND_DEF_STEREO_COUNT>
0

> <PUBCHEM_BOND_UDEF_STEREO_COUNT>
0

> <PUBCHEM_ISOTOPIC_ATOM_COUNT>
0

> <PUBCHEM_COMPONENT_COUNT>
1

> <PUBCHEM_CACTVS_TAUTO_COUNT>
3

> <PUBCHEM_CONFORMER_ID>
00B1E67800000001

> <PUBCHEM_MMFF94_ENERGY>
27.249

> <PUBCHEM_FEATURE_SELFOVERLAP>
51.36

> <PUBCHEM_SHAPE_FINGERPRINT>
10498660 4 18268157620388432612
10608611 8 18412266129589228270
12173636 292 18411979131284776703
12403260 363 18340200769960493174
12633257 1 18114168740822802040
14790565 3 18269564853875928761
15196674 1 18411139100106246637
15442244 35 18265333911377367330
15536298 74 18412548686834478588
17492 89 18409169926352929034
17834072 32 18121780530699076229
18186145 218 18129395833989655626
20510252 161 18411989082745301923
20645477 56 18335143093908768007
20645477 70 17060063592967748126
21652331 79 18409169930383437541
23227448 37 18411417353783548213
23402539 116 18341322328098615575
23557571 272 18199201735313910934
23559900 14 18342738469100285302
351380 180 18411134706312283990
3545911 37 18412265025977961414
4028521 119 18336263462045264205
4340502 62 16660649527610613195
474 4 17676776465188814468
5104073 3 18335707134678258363
6333272 397 18408324371671324474
67856867 119 18410284844354501530
69090 78 18413387609890652223
9709674 26 18342183219485428654
9981440 41 18045783648770738482

> <PUBCHEM_SHAPE_MULTIPOLES>
327.92
9.47
2.5
0.75
2.32
0.69
0.01
2.99
-0.29
0.81
-0.02
0.44
-0.03
-0.04

> <PUBCHEM_SHAPE_SELFOVERLAP>
692.599

> <PUBCHEM_SHAPE_VOLUME>
182.3

> <PUBCHEM_COORDINATE_TYPE>
2
5
10

$$$$
