11659239
  -OEChem-03292013303D

 31 33  0     0  0  0  0  0  0999 V2000
    4.3961    0.5877    0.2245 O   0  0  0  0  0  0  0  0  0  0  0  0
    2.2881    2.3009    0.1963 O   0  0  0  0  0  0  0  0  0  0  0  0
   -0.2666    2.5900    0.1183 O   0  0  0  0  0  0  0  0  0  0  0  0
   -1.0159   -2.6989   -0.0417 O   0  0  0  0  0  0  0  0  0  0  0  0
    3.9830   -2.1431    0.1413 O   0  0  0  0  0  0  0  0  0  0  0  0
   -5.6460   -0.7033   -0.1495 O   0  0  0  0  0  0  0  0  0  0  0  0
    0.7333    0.4477    0.0969 C   0  0  0  0  0  0  0  0  0  0  0  0
    0.5300   -0.9332    0.0551 C   0  0  0  0  0  0  0  0  0  0  0  0
   -1.7842    0.8206    0.0207 C   0  0  0  0  0  0  0  0  0  0  0  0
   -1.9875   -0.5603   -0.0214 C   0  0  0  0  0  0  0  0  0  0  0  0
   -0.4163    1.3751    0.0813 C   0  0  0  0  0  0  0  0  0  0  0  0
   -0.8377   -1.4876   -0.0059 C   0  0  0  0  0  0  0  0  0  0  0  0
    2.0348    0.9605    0.1543 C   0  0  0  0  0  0  0  0  0  0  0  0
    1.6283   -1.8014    0.0707 C   0  0  0  0  0  0  0  0  0  0  0  0
    3.1264    0.0918    0.1693 C   0  0  0  0  0  0  0  0  0  0  0  0
    2.9236   -1.2862    0.1278 C   0  0  0  0  0  0  0  0  0  0  0  0
   -3.2890   -1.0731   -0.0788 C   0  0  0  0  0  0  0  0  0  0  0  0
   -2.8824    1.6888    0.0054 C   0  0  0  0  0  0  0  0  0  0  0  0
   -4.3806   -0.2043   -0.0938 C   0  0  0  0  0  0  0  0  0  0  0  0
   -4.1777    1.1736   -0.0520 C   0  0  0  0  0  0  0  0  0  0  0  0
    5.0403    0.8546   -1.0187 C   0  0  0  0  0  0  0  0  0  0  0  0
    1.4897   -2.8793    0.0386 H   0  0  0  0  0  0  0  0  0  0  0  0
   -3.4601   -2.1463   -0.1120 H   0  0  0  0  0  0  0  0  0  0  0  0
   -2.7527    2.7672    0.0373 H   0  0  0  0  0  0  0  0  0  0  0  0
   -5.0256    1.8532   -0.0636 H   0  0  0  0  0  0  0  0  0  0  0  0
    1.4651    2.8110    0.1719 H   0  0  0  0  0  0  0  0  0  0  0  0
    4.8006   -1.6233    0.2280 H   0  0  0  0  0  0  0  0  0  0  0  0
    6.0525    1.2115   -0.8100 H   0  0  0  0  0  0  0  0  0  0  0  0
    4.5030    1.6323   -1.5706 H   0  0  0  0  0  0  0  0  0  0  0  0
    5.1087   -0.0542   -1.6250 H   0  0  0  0  0  0  0  0  0  0  0  0
   -5.6020   -1.6746   -0.1726 H   0  0  0  0  0  0  0  0  0  0  0  0
  1 15  1  0  0  0  0
  1 21  1  0  0  0  0
  2 13  1  0  0  0  0
  2 26  1  0  0  0  0
  3 11  2  0  0  0  0
  4 12  2  0  0  0  0
  5 16  1  0  0  0  0
  5 27  1  0  0  0  0
  6 19  1  0  0  0  0
  6 31  1  0  0  0  0
  7  8  1  0  0  0  0
  7 11  1  0  0  0  0
  7 13  2  0  0  0  0
  8 12  1  0  0  0  0
  8 14  2  0  0  0  0
  9 10  2  0  0  0  0
  9 11  1  0  0  0  0
  9 18  1  0  0  0  0
 10 12  1  0  0  0  0
 10 17  1  0  0  0  0
 13 15  1  0  0  0  0
 14 16  1  0  0  0  0
 14 22  1  0  0  0  0
 15 16  2  0  0  0  0
 17 19  2  0  0  0  0
 17 23  1  0  0  0  0
 18 20  2  0  0  0  0
 18 24  1  0  0  0  0
 19 20  1  0  0  0  0
 20 25  1  0  0  0  0
 21 28  1  0  0  0  0
 21 29  1  0  0  0  0
 21 30  1  0  0  0  0
M  END
> <PUBCHEM_COMPOUND_CID>
11659239

> <PUBCHEM_CONFORMER_RMSD>
0.6

> <PUBCHEM_CONFORMER_DIVERSEORDER>
1

> <PUBCHEM_MMFF94_PARTIAL_CHARGES>
28
1 -0.36
10 0.09
11 0.4
12 0.4
13 0.08
14 -0.15
15 0.08
16 0.08
17 -0.15
18 -0.15
19 0.08
2 -0.53
20 -0.15
21 0.28
22 0.15
23 0.15
24 0.15
25 0.15
26 0.45
27 0.45
3 -0.57
31 0.45
4 -0.57
5 -0.53
6 -0.53
7 0.09
8 0.09
9 0.09

> <PUBCHEM_EFFECTIVE_ROTOR_COUNT>
1

> <PUBCHEM_PHARMACOPHORE_FEATURES>
9
1 1 acceptor
1 2 donor
1 3 acceptor
1 4 acceptor
1 5 donor
1 6 donor
6 7 8 13 14 15 16 rings
6 7 8 9 10 11 12 rings
6 9 10 17 18 19 20 rings

> <PUBCHEM_HEAVY_ATOM_COUNT>
21

> <PUBCHEM_ATOM_DEF_STEREO_COUNT>
0

> <PUBCHEM_ATOM_UDEF_STEREO_COUNT>
0

> <PUBCHEM_BOND_DEF_STEREO_COUNT>
0

> <PUBCHEM_BOND_UDEF_STEREO_COUNT>
0

> <PUBCHEM_ISOTOPIC_ATOM_COUNT>
0

> <PUBCHEM_COMPONENT_COUNT>
1

> <PUBCHEM_CACTVS_TAUTO_COUNT>
57

> <PUBCHEM_CONFORMER_ID>
00B1E7E700000001

> <PUBCHEM_MMFF94_ENERGY>
73.7677

> <PUBCHEM_FEATURE_SELFOVERLAP>
45.714

> <PUBCHEM_SHAPE_FINGERPRINT>
10411042 1 16681754361296093007
10616163 171 18340207513043629110
10967382 1 18411135852794212928
11471102 20 18410289198828977238
12011746 2 18411983576248750445
12236239 1 17822008718334101092
12403259 226 18337665304715911173
12403259 415 18412255156101436993
12403814 3 17530960289337473829
12788726 201 17916876720325038096
12954195 1 17986976058916712892
13140716 1 18194954373846590672
13862211 1 18411412921118926434
14787075 74 18335421283335561619
14790565 3 18339089193791123489
15196674 1 18410573942418056025
15230672 131 13363146630721107067
15442244 35 18339359652371411618
15536298 74 18342454816121117602
16945 1 18266735959920978066
19591789 44 18410571764980822515
200 152 18130783460919264185
20028762 73 18130780192582041375
20510252 161 18272088249529030185
20645477 70 18339923719064218438
21029758 11 18342453755623119081
21267235 1 18411426102516041107
221490 88 18336551606974550603
2334 1 18411134740740607097
23402539 116 18271799142527108359
23402655 69 18341890762603778941
23463225 33 18410291389357178737
23559900 14 18197774410871704818
2748010 2 18410571760727682973
2871803 45 18334288743562266591
3004659 81 18261675875083904110
335352 9 18195244412544815431
34934 24 18339918320490455970
350125 39 18411140225751915449
3545911 37 18410576210192514758
474 4 17458634462123759548
5104073 3 18338797818887792609
537710 114 18410577292292320732
69090 78 18413384350068457667
7364860 26 18341609351951545776
9709674 26 18411422816829344303
9981440 41 17615121522402497472

> <PUBCHEM_SHAPE_MULTIPOLES>
396.95
9.28
2.44
0.65
1.13
0.11
-0.05
-0.17
-1.18
-0.52
0.08
-0.26
-0.05
-0.28

> <PUBCHEM_SHAPE_SELFOVERLAP>
896.23

> <PUBCHEM_SHAPE_VOLUME>
207.3

> <PUBCHEM_COORDINATE_TYPE>
2
5
10

$$$$
