11653403
  -OEChem-03292013303D

 38 41  0     1  0  0  0  0  0999 V2000
   -4.1987   -0.2721    1.8685 Cl  0  0  0  0  0  0  0  0  0  0  0  0
   -3.2678   -1.1140   -1.9545 O   0  0  0  0  0  0  0  0  0  0  0  0
   -1.9053   -2.1955    1.2284 O   0  0  0  0  0  0  0  0  0  0  0  0
   -3.3959    2.3294    0.0241 O   0  0  0  0  0  0  0  0  0  0  0  0
    1.4835    3.0648    0.0226 O   0  0  0  0  0  0  0  0  0  0  0  0
    0.9456   -2.8313   -0.0277 O   0  0  0  0  0  0  0  0  0  0  0  0
    3.9149    2.2779    0.0060 O   0  0  0  0  0  0  0  0  0  0  0  0
   -3.2845   -1.2779   -0.5316 C   0  0  1  0  0  0  0  0  0  0  0  0
   -1.8588   -1.5828   -0.0578 C   0  0  1  0  0  0  0  0  0  0  0  0
   -3.9072   -0.0259    0.1100 C   0  0  2  0  0  0  0  0  0  0  0  0
   -0.9770   -0.3633   -0.0334 C   0  0  0  0  0  0  0  0  0  0  0  0
   -1.5003    0.9406   -0.0030 C   0  0  0  0  0  0  0  0  0  0  0  0
    0.4136   -0.4637   -0.0270 C   0  0  0  0  0  0  0  0  0  0  0  0
   -2.9707    1.1756    0.0225 C   0  0  0  0  0  0  0  0  0  0  0  0
    1.2716    0.6540   -0.0112 C   0  0  0  0  0  0  0  0  0  0  0  0
    2.6491    0.2125   -0.0118 C   0  0  0  0  0  0  0  0  0  0  0  0
   -5.2569    0.3132   -0.5388 C   0  0  0  0  0  0  0  0  0  0  0  0
   -0.6479    2.0696    0.0112 C   0  0  0  0  0  0  0  0  0  0  0  0
    1.2873   -1.6689   -0.0289 C   0  0  0  0  0  0  0  0  0  0  0  0
    0.7424    1.9296    0.0049 C   0  0  0  0  0  0  0  0  0  0  0  0
    2.6831   -1.1888   -0.0230 C   0  0  0  0  0  0  0  0  0  0  0  0
    3.8360    0.9246   -0.0027 C   0  0  0  0  0  0  0  0  0  0  0  0
    3.8550   -1.9190   -0.0253 C   0  0  0  0  0  0  0  0  0  0  0  0
    5.0400    0.2094   -0.0052 C   0  0  0  0  0  0  0  0  0  0  0  0
    5.0489   -1.1981   -0.0164 C   0  0  0  0  0  0  0  0  0  0  0  0
   -3.9284   -2.1440   -0.3339 H   0  0  0  0  0  0  0  0  0  0  0  0
   -1.4253   -2.3081   -0.7572 H   0  0  0  0  0  0  0  0  0  0  0  0
   -5.9386   -0.5443   -0.5083 H   0  0  0  0  0  0  0  0  0  0  0  0
   -5.7530    1.1500   -0.0324 H   0  0  0  0  0  0  0  0  0  0  0  0
   -5.1346    0.6104   -1.5865 H   0  0  0  0  0  0  0  0  0  0  0  0
   -1.0661    3.0744    0.0317 H   0  0  0  0  0  0  0  0  0  0  0  0
   -2.7003   -0.3561   -2.1728 H   0  0  0  0  0  0  0  0  0  0  0  0
   -2.4260   -3.0126    1.1470 H   0  0  0  0  0  0  0  0  0  0  0  0
    3.8564   -3.0024   -0.0336 H   0  0  0  0  0  0  0  0  0  0  0  0
    5.9941    0.7321    0.0011 H   0  0  0  0  0  0  0  0  0  0  0  0
    5.9983   -1.7271   -0.0180 H   0  0  0  0  0  0  0  0  0  0  0  0
    2.3233    2.8830    0.4707 H   0  0  0  0  0  0  0  0  0  0  0  0
    4.8477    2.5525    0.0107 H   0  0  0  0  0  0  0  0  0  0  0  0
  1 10  1  0  0  0  0
  2  8  1  0  0  0  0
  2 32  1  0  0  0  0
  3  9  1  0  0  0  0
  3 33  1  0  0  0  0
  4 14  2  0  0  0  0
  5 20  1  0  0  0  0
  5 37  1  0  0  0  0
  6 19  2  0  0  0  0
  7 22  1  0  0  0  0
  7 38  1  0  0  0  0
  8  9  1  0  0  0  0
  8 10  1  0  0  0  0
  8 26  1  0  0  0  0
  9 11  1  0  0  0  0
  9 27  1  0  0  0  0
 10 14  1  0  0  0  0
 10 17  1  0  0  0  0
 11 12  1  0  0  0  0
 11 13  2  0  0  0  0
 12 14  1  0  0  0  0
 12 18  2  0  0  0  0
 13 15  1  0  0  0  0
 13 19  1  0  0  0  0
 15 16  1  0  0  0  0
 15 20  2  0  0  0  0
 16 21  2  0  0  0  0
 16 22  1  0  0  0  0
 17 28  1  0  0  0  0
 17 29  1  0  0  0  0
 17 30  1  0  0  0  0
 18 20  1  0  0  0  0
 18 31  1  0  0  0  0
 19 21  1  0  0  0  0
 21 23  1  0  0  0  0
 22 24  2  0  0  0  0
 23 25  2  0  0  0  0
 23 34  1  0  0  0  0
 24 25  1  0  0  0  0
 24 35  1  0  0  0  0
 25 36  1  0  0  0  0
M  END
> <PUBCHEM_COMPOUND_CID>
11653403

> <PUBCHEM_CONFORMER_RMSD>
0.6

> <PUBCHEM_CONFORMER_DIVERSEORDER>
2
1

> <PUBCHEM_MMFF94_PARTIAL_CHARGES>
30
1 -0.29
10 0.35
11 -0.14
12 0.09
13 0.09
14 0.42
18 -0.15
19 0.4
2 -0.68
20 0.08
21 0.09
22 0.08
23 -0.15
24 -0.15
25 -0.15
3 -0.68
31 0.15
32 0.4
33 0.4
34 0.15
35 0.15
36 0.15
37 0.45
38 0.45
4 -0.57
5 -0.53
6 -0.57
7 -0.53
8 0.28
9 0.42

> <PUBCHEM_EFFECTIVE_ROTOR_COUNT>
0.6

> <PUBCHEM_PHARMACOPHORE_FEATURES>
12
1 2 acceptor
1 2 donor
1 3 acceptor
1 3 donor
1 4 acceptor
1 5 donor
1 6 acceptor
1 7 donor
5 13 15 16 19 21 rings
6 11 12 13 15 18 20 rings
6 16 21 22 23 24 25 rings
6 8 9 10 11 12 14 rings

> <PUBCHEM_HEAVY_ATOM_COUNT>
25

> <PUBCHEM_ATOM_DEF_STEREO_COUNT>
3

> <PUBCHEM_ATOM_UDEF_STEREO_COUNT>
0

> <PUBCHEM_BOND_DEF_STEREO_COUNT>
0

> <PUBCHEM_BOND_UDEF_STEREO_COUNT>
0

> <PUBCHEM_ISOTOPIC_ATOM_COUNT>
0

> <PUBCHEM_COMPONENT_COUNT>
1

> <PUBCHEM_CACTVS_TAUTO_COUNT>
31

> <PUBCHEM_CONFORMER_ID>
00B1D11B00000002

> <PUBCHEM_MMFF94_ENERGY>
88.9388

> <PUBCHEM_FEATURE_SELFOVERLAP>
61.098

> <PUBCHEM_SHAPE_FINGERPRINT>
10616163 171 18413108346721872222
10906281 52 18339379486298165439
10967382 1 18410575093643390632
11578080 2 13625258627058616732
12011746 2 18409446964569361415
12236239 1 17917992789315054951
12553582 1 18409159991760250634
13140716 1 18266751370596023777
13224815 77 18413390946974616078
13544653 18 18335707130425546668
13583140 156 16733252538817459448
13862211 1 18410570656873900922
14790565 3 18411144610306908620
15196674 1 18410855447243272924
15209289 33 18409449197878671051
15536298 74 18342737421011850156
15788980 27 18334858307549000430
16945 1 18409731794068536777
17349148 13 18408317783312824674
1813 80 17385446509834364796
19591789 44 18411136918262632894
200 152 18131063831857251783
20028762 73 18202557393299647582
21029758 11 18412540998743045209
21033648 29 17604414263316978077
21267235 1 18411707560191517862
21279426 13 18193274100555878004
21421861 104 17827075104685264738
221490 88 18336270153519915234
2334 1 18411139164767873030
23402539 116 18340761564209636198
23559900 14 18410852200881318304
2748010 2 17976259354739199473
335352 9 18338797784586348804
34797466 226 15841553032544562896
34934 24 18266173920838259533
350125 39 18411139113392406441
3680242 22 18262516962412874122
4214541 1 18411699842172197188
5104073 3 18337392643143792728
59755656 215 18338240354388940126
9709674 26 18340210695878211014
9981440 41 17475502258451912792

> <PUBCHEM_SHAPE_MULTIPOLES>
481.14
9.97
2.73
0.95
1.55
0.65
0.09
-0.6
0.08
0.96
0.05
-1.26
-0.31
-0.01

> <PUBCHEM_SHAPE_SELFOVERLAP>
1085.126

> <PUBCHEM_SHAPE_VOLUME>
254.2

> <PUBCHEM_COORDINATE_TYPE>
2
5
10

$$$$
