11652265
  -OEChem-03292013303D

 39 41  0     1  0  0  0  0  0999 V2000
    0.0300   -1.5489   -0.0572 O   0  0  0  0  0  0  0  0  0  0  0  0
   -1.2224    0.2286    1.7853 O   0  0  0  0  0  0  0  0  0  0  0  0
   -2.3331   -2.2326    1.1741 O   0  0  0  0  0  0  0  0  0  0  0  0
   -2.6533    1.7758   -1.1997 O   0  0  0  0  0  0  0  0  0  0  0  0
    0.0040    2.5610    0.1639 O   0  0  0  0  0  0  0  0  0  0  0  0
    2.6010    2.5777    0.1571 O   0  0  0  0  0  0  0  0  0  0  0  0
   -1.1485   -0.8052   -0.4481 C   0  0  2  0  0  0  0  0  0  0  0  0
   -1.2555    0.5049    0.3734 C   0  0  1  0  0  0  0  0  0  0  0  0
   -2.3781   -1.7111   -0.1562 C   0  0  2  0  0  0  0  0  0  0  0  0
   -2.5660    1.2707    0.1274 C   0  0  2  0  0  0  0  0  0  0  0  0
   -3.7120   -0.9746   -0.3566 C   0  0  0  0  0  0  0  0  0  0  0  0
   -3.7837    0.3692    0.3829 C   0  0  0  0  0  0  0  0  0  0  0  0
   -0.0018    1.3363    0.1806 C   0  0  0  0  0  0  0  0  0  0  0  0
   -1.0632   -0.6008   -1.9832 C   0  0  0  0  0  0  0  0  0  0  0  0
    1.2562    0.5657    0.0625 C   0  0  0  0  0  0  0  0  0  0  0  0
    1.1982   -0.8291   -0.0276 C   0  0  0  0  0  0  0  0  0  0  0  0
    2.4894    1.2227    0.0717 C   0  0  0  0  0  0  0  0  0  0  0  0
    2.3813   -1.5682   -0.0748 C   0  0  0  0  0  0  0  0  0  0  0  0
    3.6136   -0.9144   -0.0610 C   0  0  0  0  0  0  0  0  0  0  0  0
    3.6672    0.4779    0.0071 C   0  0  0  0  0  0  0  0  0  0  0  0
    4.8766   -1.7057   -0.1218 C   0  0  0  0  0  0  0  0  0  0  0  0
   -2.3451   -2.5893   -0.8129 H   0  0  0  0  0  0  0  0  0  0  0  0
   -2.6275    2.1321    0.8044 H   0  0  0  0  0  0  0  0  0  0  0  0
   -4.5398   -1.6030   -0.0058 H   0  0  0  0  0  0  0  0  0  0  0  0
   -3.8841   -0.8016   -1.4247 H   0  0  0  0  0  0  0  0  0  0  0  0
   -4.7041    0.8835    0.0810 H   0  0  0  0  0  0  0  0  0  0  0  0
   -3.8678    0.1726    1.4590 H   0  0  0  0  0  0  0  0  0  0  0  0
   -0.2623    0.0895   -2.2663 H   0  0  0  0  0  0  0  0  0  0  0  0
   -0.8274   -1.5521   -2.4763 H   0  0  0  0  0  0  0  0  0  0  0  0
   -1.9884   -0.2257   -2.4248 H   0  0  0  0  0  0  0  0  0  0  0  0
   -0.5595   -0.4625    1.9513 H   0  0  0  0  0  0  0  0  0  0  0  0
   -3.0988   -2.8213    1.2861 H   0  0  0  0  0  0  0  0  0  0  0  0
   -3.4855    2.2729   -1.2738 H   0  0  0  0  0  0  0  0  0  0  0  0
    2.3380   -2.6532   -0.1343 H   0  0  0  0  0  0  0  0  0  0  0  0
    4.6325    0.9792    0.0149 H   0  0  0  0  0  0  0  0  0  0  0  0
    5.1942   -1.8267   -1.1622 H   0  0  0  0  0  0  0  0  0  0  0  0
    5.6791   -1.2110    0.4358 H   0  0  0  0  0  0  0  0  0  0  0  0
    4.7442   -2.6985    0.3218 H   0  0  0  0  0  0  0  0  0  0  0  0
    3.5409    2.8273    0.1513 H   0  0  0  0  0  0  0  0  0  0  0  0
  1  7  1  0  0  0  0
  1 16  1  0  0  0  0
  2  8  1  0  0  0  0
  2 31  1  0  0  0  0
  3  9  1  0  0  0  0
  3 32  1  0  0  0  0
  4 10  1  0  0  0  0
  4 33  1  0  0  0  0
  5 13  2  0  0  0  0
  6 17  1  0  0  0  0
  6 39  1  0  0  0  0
  7  8  1  0  0  0  0
  7  9  1  0  0  0  0
  7 14  1  0  0  0  0
  8 10  1  0  0  0  0
  8 13  1  0  0  0  0
  9 11  1  0  0  0  0
  9 22  1  0  0  0  0
 10 12  1  0  0  0  0
 10 23  1  0  0  0  0
 11 12  1  0  0  0  0
 11 24  1  0  0  0  0
 11 25  1  0  0  0  0
 12 26  1  0  0  0  0
 12 27  1  0  0  0  0
 13 15  1  0  0  0  0
 14 28  1  0  0  0  0
 14 29  1  0  0  0  0
 14 30  1  0  0  0  0
 15 16  1  0  0  0  0
 15 17  2  0  0  0  0
 16 18  2  0  0  0  0
 17 20  1  0  0  0  0
 18 19  1  0  0  0  0
 18 34  1  0  0  0  0
 19 20  2  0  0  0  0
 19 21  1  0  0  0  0
 20 35  1  0  0  0  0
 21 36  1  0  0  0  0
 21 37  1  0  0  0  0
 21 38  1  0  0  0  0
M  END
> <PUBCHEM_COMPOUND_CID>
11652265

> <PUBCHEM_CONFORMER_RMSD>
0.6

> <PUBCHEM_CONFORMER_DIVERSEORDER>
1

> <PUBCHEM_MMFF94_PARTIAL_CHARGES>
24
1 -0.36
10 0.28
13 0.42
15 0.09
16 0.08
17 0.08
18 -0.15
19 -0.14
2 -0.68
20 -0.15
21 0.14
3 -0.68
31 0.4
32 0.4
33 0.4
34 0.15
35 0.15
39 0.45
4 -0.68
5 -0.57
6 -0.53
7 0.28
8 0.34
9 0.28

> <PUBCHEM_EFFECTIVE_ROTOR_COUNT>
1

> <PUBCHEM_PHARMACOPHORE_FEATURES>
12
1 1 acceptor
1 2 acceptor
1 2 donor
1 3 acceptor
1 3 donor
1 4 acceptor
1 4 donor
1 5 acceptor
1 6 donor
6 1 7 8 13 15 16 rings
6 15 16 17 18 19 20 rings
6 7 8 9 10 11 12 rings

> <PUBCHEM_HEAVY_ATOM_COUNT>
21

> <PUBCHEM_ATOM_DEF_STEREO_COUNT>
4

> <PUBCHEM_ATOM_UDEF_STEREO_COUNT>
0

> <PUBCHEM_BOND_DEF_STEREO_COUNT>
0

> <PUBCHEM_BOND_UDEF_STEREO_COUNT>
0

> <PUBCHEM_ISOTOPIC_ATOM_COUNT>
0

> <PUBCHEM_COMPONENT_COUNT>
1

> <PUBCHEM_CACTVS_TAUTO_COUNT>
12

> <PUBCHEM_CONFORMER_ID>
00B1CCA900000001

> <PUBCHEM_MMFF94_ENERGY>
72.2559

> <PUBCHEM_FEATURE_SELFOVERLAP>
60.965

> <PUBCHEM_SHAPE_FINGERPRINT>
10062212 137 18202838855438337455
10608611 8 18409444812543066396
10863032 1 18339645654201350177
10948715 1 18264768749531638877
10967382 1 18267865171363741324
11132069 177 18271519819445050890
11315181 36 17774719767380731802
12403259 226 18410006645763013597
12553582 1 18337666391833182666
13140716 1 18413111658231081592
13221675 6 18341048523806725758
13224815 77 18131346440715852146
13288520 33 18341897342805146614
13296908 3 18342174488069402046
13581323 91 16774078479362065686
14115302 16 18041574558881838286
14223421 5 18265615557677762890
14790565 3 17691415105203701360
15196674 1 18412544318583641572
15309172 13 17060627710867274527
15442244 35 18413109437743655680
15536298 74 18272650173364789688
16945 1 18196938764274048401
17804303 29 18409736135942921542
18186145 218 17822002129564157646
200 152 17989483022046311343
21267235 1 18412554201314400431
21501502 16 18340488962476908437
221490 88 18336835294149497506
2334 1 18340486784928489360
23366157 5 18113898316844630876
23402539 116 18200304416569074263
23419403 2 15656615426098184771
23463225 33 18413109472092727596
23559900 14 18341325618338703336
2748010 2 18341046401976791524
296302 2 12175614083947795030
3286 77 18333729143593873550
335352 9 18267867185624399196
34934 24 18266452110302177922
350125 39 18411142445585096329
465052 167 18128822018149134839
5104073 3 18413109476203137930
69090 78 18411134723671546667
7364860 26 18271805778652656512
74978 22 18410572881719415434
8809292 202 18334861605968151218
90525 40 17917996100223254663
9709674 26 18337673121651277002
9981440 41 17620461846352501344

> <PUBCHEM_SHAPE_MULTIPOLES>
396.95
7.04
2.38
1.05
4.01
0.65
-0.16
-1.96
0.01
0.37
0.1
-0.72
-0.14
0.26

> <PUBCHEM_SHAPE_SELFOVERLAP>
872.342

> <PUBCHEM_SHAPE_VOLUME>
209.9

> <PUBCHEM_COORDINATE_TYPE>
2
5
10

$$$$
