11655595
  -OEChem-03292013303D

 39 41  0     1  0  0  0  0  0999 V2000
    2.2786   -1.7489    1.6117 S   0  0  0  0  0  0  0  0  0  0  0  0
   -5.8541    1.1038    1.4364 S   0  0  0  0  0  0  0  0  0  0  0  0
    1.2002    2.6016    0.3658 O   0  0  0  0  0  0  0  0  0  0  0  0
    4.1018    1.8569   -1.8858 O   0  0  0  0  0  0  0  0  0  0  0  0
    4.6409    2.5986    0.2094 O   0  0  0  0  0  0  0  0  0  0  0  0
   -1.6603   -1.9010    1.0550 O   0  0  0  0  0  0  0  0  0  0  0  0
   -1.8191   -1.8989   -2.0427 O   0  0  0  0  0  0  0  0  0  0  0  0
    2.2676    0.5037    0.2075 N   0  0  0  0  0  0  0  0  0  0  0  0
   -0.9037    0.1459    0.1895 N   0  0  0  0  0  0  0  0  0  0  0  0
   -3.0322   -1.2883   -1.7132 N   0  0  0  0  0  0  0  0  0  0  0  0
   -5.3148   -0.0335   -0.8214 N   0  0  0  0  0  0  0  0  0  0  0  0
   -7.4900    0.8767   -0.6478 N   0  0  0  0  0  0  0  0  0  0  0  0
    1.4680   -0.6945    0.3895 C   0  0  2  0  0  0  0  0  0  0  0  0
    0.3592    0.2410    0.9179 C   0  0  1  0  0  0  0  0  0  0  0  0
    1.2813    1.3978    0.4389 C   0  0  0  0  0  0  0  0  0  0  0  0
    3.5901    0.4901   -0.1072 C   0  0  0  0  0  0  0  0  0  0  0  0
    3.7879   -1.9439    0.6011 C   0  0  0  0  0  0  0  0  0  0  0  0
    4.3293   -0.6389    0.0202 C   0  0  0  0  0  0  0  0  0  0  0  0
    4.1744    1.7700   -0.5438 C   0  0  0  0  0  0  0  0  0  0  0  0
   -1.7766   -0.9189    0.3397 C   0  0  0  0  0  0  0  0  0  0  0  0
    5.7261   -0.7522   -0.3564 C   0  0  0  0  0  0  0  0  0  0  0  0
   -3.0132   -0.7932   -0.5125 C   0  0  0  0  0  0  0  0  0  0  0  0
    6.4239   -1.8731   -0.2193 C   0  0  0  0  0  0  0  0  0  0  0  0
   -4.2181   -0.1230   -0.0121 C   0  0  0  0  0  0  0  0  0  0  0  0
   -4.2944    0.4198    1.2349 C   0  0  0  0  0  0  0  0  0  0  0  0
   -6.2530    0.6022   -0.1555 C   0  0  0  0  0  0  0  0  0  0  0  0
    1.2386   -1.1910   -0.5617 H   0  0  0  0  0  0  0  0  0  0  0  0
    0.2043    0.2578    2.0034 H   0  0  0  0  0  0  0  0  0  0  0  0
   -1.1701    0.8853   -0.4568 H   0  0  0  0  0  0  0  0  0  0  0  0
    4.4774   -2.3856    1.3257 H   0  0  0  0  0  0  0  0  0  0  0  0
    3.5870   -2.6674   -0.1968 H   0  0  0  0  0  0  0  0  0  0  0  0
    6.2311    0.1240   -0.7516 H   0  0  0  0  0  0  0  0  0  0  0  0
    7.4706   -1.8688   -0.5143 H   0  0  0  0  0  0  0  0  0  0  0  0
    6.0615   -2.8281    0.1354 H   0  0  0  0  0  0  0  0  0  0  0  0
    4.4814    2.6963   -2.2228 H   0  0  0  0  0  0  0  0  0  0  0  0
   -3.5594    0.4621    2.0263 H   0  0  0  0  0  0  0  0  0  0  0  0
   -1.9954   -2.2077   -2.9473 H   0  0  0  0  0  0  0  0  0  0  0  0
   -7.7668    0.5979   -1.5833 H   0  0  0  0  0  0  0  0  0  0  0  0
   -8.1863    1.3705   -0.0991 H   0  0  0  0  0  0  0  0  0  0  0  0
  1 13  1  0  0  0  0
  1 17  1  0  0  0  0
  2 25  1  0  0  0  0
  2 26  1  0  0  0  0
  3 15  2  0  0  0  0
  4 19  1  0  0  0  0
  4 35  1  0  0  0  0
  5 19  2  0  0  0  0
  6 20  2  0  0  0  0
  7 10  1  0  0  0  0
  7 37  1  0  0  0  0
  8 13  1  0  0  0  0
  8 15  1  0  0  0  0
  8 16  1  0  0  0  0
  9 14  1  0  0  0  0
  9 20  1  0  0  0  0
  9 29  1  0  0  0  0
 10 22  2  0  0  0  0
 11 24  1  0  0  0  0
 11 26  2  0  0  0  0
 12 26  1  0  0  0  0
 12 38  1  0  0  0  0
 12 39  1  0  0  0  0
 13 14  1  0  0  0  0
 13 27  1  0  0  0  0
 14 15  1  0  0  0  0
 14 28  1  0  0  0  0
 16 18  2  0  0  0  0
 16 19  1  0  0  0  0
 17 18  1  0  0  0  0
 17 30  1  0  0  0  0
 17 31  1  0  0  0  0
 18 21  1  0  0  0  0
 20 22  1  0  0  0  0
 21 23  2  0  0  0  0
 21 32  1  0  0  0  0
 22 24  1  0  0  0  0
 23 33  1  0  0  0  0
 23 34  1  0  0  0  0
 24 25  2  0  0  0  0
 25 36  1  0  0  0  0
M  END
> <PUBCHEM_COMPOUND_CID>
11655595

> <PUBCHEM_CONFORMER_RMSD>
0.8

> <PUBCHEM_CONFORMER_DIVERSEORDER>
9
75
72
64
68
86
14
57
21
95
62
80
90
70
42
66
63
78
69
39
89
59
18
87
92
50
77
30
93
15
34
81
65
91
36
84
76
53
38
28
47
51
13
43
83
61
2
94
58
24
40
44
82
49
45
11
67
79
25
88
74
41
22
4
12
20
60
55
8
10
56
85
48
1
5
17
73
27
71
54
46
32
26
31
35
7
37
6
52
19
33
29
16
3
23

> <PUBCHEM_MMFF94_PARTIAL_CHARGES>
35
1 -0.45
10 -0.51
11 -0.57
12 -0.88
13 0.44
14 0.28
15 0.58
16 0.12
17 0.37
18 -0.14
19 0.71
2 -0.08
20 0.63
21 -0.15
22 0.54
23 -0.3
24 0.14
25 -0.11
26 0.46
29 0.37
3 -0.57
32 0.15
33 0.15
34 0.15
35 0.5
36 0.15
37 0.4
38 0.4
39 0.4
4 -0.65
5 -0.57
6 -0.57
7 -0.34
8 -0.39
9 -0.65

> <PUBCHEM_EFFECTIVE_ROTOR_COUNT>
6.6

> <PUBCHEM_PHARMACOPHORE_FEATURES>
14
1 10 acceptor
1 12 donor
1 23 hydrophobe
1 3 acceptor
1 4 acceptor
1 5 acceptor
1 6 acceptor
1 7 anion
1 9 donor
3 11 12 26 cation
3 4 5 19 anion
4 8 13 14 15 rings
5 2 11 24 25 26 rings
6 1 8 13 16 17 18 rings

> <PUBCHEM_HEAVY_ATOM_COUNT>
26

> <PUBCHEM_ATOM_DEF_STEREO_COUNT>
1

> <PUBCHEM_ATOM_UDEF_STEREO_COUNT>
1

> <PUBCHEM_BOND_DEF_STEREO_COUNT>
1

> <PUBCHEM_BOND_UDEF_STEREO_COUNT>
0

> <PUBCHEM_ISOTOPIC_ATOM_COUNT>
0

> <PUBCHEM_COMPONENT_COUNT>
1

> <PUBCHEM_CACTVS_TAUTO_COUNT>
8

> <PUBCHEM_CONFORMER_ID>
00B1D9AB00000009

> <PUBCHEM_MMFF94_ENERGY>
67.5706

> <PUBCHEM_FEATURE_SELFOVERLAP>
71.36

> <PUBCHEM_SHAPE_FINGERPRINT>
10165383 225 17022906718087392179
11475781 23 15338567011723654761
11724838 91 9295277331721782864
11796584 16 16558749035525600438
12236239 1 18201720651949190098
12616971 3 18412259545441553230
12730499 353 17313108535941330746
12788726 201 18060150811949136265
12916748 109 13262396635787205146
14117953 113 17988366966626446694
14848160 23 13326855526482438709
15183329 4 17989213641950739893
17844677 252 17894632517963557917
18186145 218 17676483986722214682
18222031 100 14261360180050286816
19489759 90 15769775732821033059
20511986 3 18130776880686612080
20612939 158 18335143094051147376
21033648 29 17385710401536627853
21267235 1 18337680724043850626
221357 26 18261388914663829756
22224240 67 9150880668700819174
23559900 14 18341325686493833960
2838139 119 18272652316838742289
29717793 49 18059860545474439742
3004659 81 18408603643656879466
335352 9 18408045096256264326
3411729 13 16772650283046885160
4073 2 17895481435065666938
5104073 3 18114461274791681002
543358 83 18411136956948974328
5486654 2 12252190671103125121
559249 180 17846493734215239943
59755656 520 18113615690890843555
633830 44 18187924040711676866

> <PUBCHEM_SHAPE_MULTIPOLES>
488.52
16.78
2.28
1.38
13.65
0.74
0.28
1.79
1.96
-3.2
0.05
0.89
-0.32
-1.45

> <PUBCHEM_SHAPE_SELFOVERLAP>
1025.563

> <PUBCHEM_SHAPE_VOLUME>
278.3

> <PUBCHEM_COORDINATE_TYPE>
2
5
10

$$$$
