11662986
  -OEChem-03292013303D

 79 82  0     1  0  0  0  0  0999 V2000
    0.7853   -1.4411   -1.2010 O   0  0  0  0  0  0  0  0  0  0  0  0
    3.7369    2.2821   -1.1089 O   0  0  0  0  0  0  0  0  0  0  0  0
    6.8536   -1.1527   -2.8487 O   0  0  0  0  0  0  0  0  0  0  0  0
   -5.6428    1.8876   -1.4390 O   0  0  0  0  0  0  0  0  0  0  0  0
   -7.3786   -1.7938   -1.1685 O   0  0  0  0  0  0  0  0  0  0  0  0
   -7.7960   -2.7651    0.8390 O   0  0  0  0  0  0  0  0  0  0  0  0
   -7.1902    0.6469   -0.2368 N   0  0  0  0  0  0  0  0  0  0  0  0
    0.3913    0.1305    0.6554 C   0  0  1  0  0  0  0  0  0  0  0  0
    1.4065    1.1850    0.1558 C   0  0  2  0  0  0  0  0  0  0  0  0
    2.8151    0.9897    0.7383 C   0  0  1  0  0  0  0  0  0  0  0  0
    3.3375   -0.4310    0.3372 C   0  0  1  0  0  0  0  0  0  0  0  0
    4.7845   -0.7018    0.9056 C   0  0  2  0  0  0  0  0  0  0  0  0
   -0.8819    0.6720   -0.0466 C   0  0  2  0  0  0  0  0  0  0  0  0
    0.8660   -1.2687    0.2135 C   0  0  2  0  0  0  0  0  0  0  0  0
    2.3101   -1.5510    0.6797 C   0  0  0  0  0  0  0  0  0  0  0  0
    5.7518    0.4275    0.4170 C   0  0  2  0  0  0  0  0  0  0  0  0
    0.6956    2.5153    0.4009 C   0  0  0  0  0  0  0  0  0  0  0  0
    3.7859    2.1049    0.3036 C   0  0  1  0  0  0  0  0  0  0  0  0
   -0.7911    2.2022    0.1549 C   0  0  0  0  0  0  0  0  0  0  0  0
    5.2251    1.8374    0.7527 C   0  0  0  0  0  0  0  0  0  0  0  0
    5.3578   -2.0784    0.4555 C   0  0  0  0  0  0  0  0  0  0  0  0
    0.2107    0.1292    2.1983 C   0  0  0  0  0  0  0  0  0  0  0  0
   -2.2100    0.0910    0.4171 C   0  0  1  0  0  0  0  0  0  0  0  0
    6.1078    0.3075   -1.0801 C   0  0  0  0  0  0  0  0  0  0  0  0
    4.7815   -0.7342    2.4578 C   0  0  0  0  0  0  0  0  0  0  0  0
    5.6703   -2.1653   -1.0321 C   0  0  0  0  0  0  0  0  0  0  0  0
    6.6477   -1.0725   -1.4423 C   0  0  1  0  0  0  0  0  0  0  0  0
   -3.3755    0.7604   -0.3403 C   0  0  0  0  0  0  0  0  0  0  0  0
   -2.2065   -1.4314    0.2421 C   0  0  0  0  0  0  0  0  0  0  0  0
   -4.7597    0.2875    0.1147 C   0  0  0  0  0  0  0  0  0  0  0  0
   -5.8908    1.0210   -0.5964 C   0  0  0  0  0  0  0  0  0  0  0  0
   -7.4602   -0.3826    0.7642 C   0  0  0  0  0  0  0  0  0  0  0  0
   -8.3723    1.2561   -0.8340 C   0  0  0  0  0  0  0  0  0  0  0  0
   -7.5653   -1.7642    0.1715 C   0  0  0  0  0  0  0  0  0  0  0  0
    1.4855    1.0800   -0.9375 H   0  0  0  0  0  0  0  0  0  0  0  0
    2.7479    1.0483    1.8291 H   0  0  0  0  0  0  0  0  0  0  0  0
    3.4080   -0.4500   -0.7575 H   0  0  0  0  0  0  0  0  0  0  0  0
   -0.7934    0.4937   -1.1289 H   0  0  0  0  0  0  0  0  0  0  0  0
    0.2597   -2.0611    0.6524 H   0  0  0  0  0  0  0  0  0  0  0  0
    2.6371   -2.4872    0.2136 H   0  0  0  0  0  0  0  0  0  0  0  0
    2.2992   -1.7235    1.7602 H   0  0  0  0  0  0  0  0  0  0  0  0
    6.7021    0.3138    0.9597 H   0  0  0  0  0  0  0  0  0  0  0  0
    0.8472    2.8697    1.4266 H   0  0  0  0  0  0  0  0  0  0  0  0
    1.0523    3.2992   -0.2750 H   0  0  0  0  0  0  0  0  0  0  0  0
    3.4663    3.0578    0.7405 H   0  0  0  0  0  0  0  0  0  0  0  0
   -1.3825    2.5468    1.0109 H   0  0  0  0  0  0  0  0  0  0  0  0
   -1.1533    2.7324   -0.7331 H   0  0  0  0  0  0  0  0  0  0  0  0
    5.8917    2.5842    0.3031 H   0  0  0  0  0  0  0  0  0  0  0  0
    5.2842    1.9862    1.8377 H   0  0  0  0  0  0  0  0  0  0  0  0
    4.6878   -2.8976    0.7372 H   0  0  0  0  0  0  0  0  0  0  0  0
    6.2923   -2.2710    1.0017 H   0  0  0  0  0  0  0  0  0  0  0  0
   -0.4825   -0.6543    2.5202 H   0  0  0  0  0  0  0  0  0  0  0  0
    1.1468   -0.0573    2.7313 H   0  0  0  0  0  0  0  0  0  0  0  0
   -0.1812    1.0785    2.5765 H   0  0  0  0  0  0  0  0  0  0  0  0
   -2.3646    0.3060    1.4819 H   0  0  0  0  0  0  0  0  0  0  0  0
    6.8580    1.0636   -1.3459 H   0  0  0  0  0  0  0  0  0  0  0  0
    5.2560    0.5126   -1.7307 H   0  0  0  0  0  0  0  0  0  0  0  0
    4.2087   -1.5842    2.8423 H   0  0  0  0  0  0  0  0  0  0  0  0
    4.3683    0.1719    2.9063 H   0  0  0  0  0  0  0  0  0  0  0  0
    5.8020   -0.8406    2.8455 H   0  0  0  0  0  0  0  0  0  0  0  0
    4.7530   -2.1045   -1.6298 H   0  0  0  0  0  0  0  0  0  0  0  0
    6.1015   -3.1477   -1.2612 H   0  0  0  0  0  0  0  0  0  0  0  0
    7.6170   -1.2269   -0.9536 H   0  0  0  0  0  0  0  0  0  0  0  0
    1.0737   -2.3466   -1.4061 H   0  0  0  0  0  0  0  0  0  0  0  0
   -3.3335    1.8479   -0.2095 H   0  0  0  0  0  0  0  0  0  0  0  0
   -3.2679    0.5746   -1.4172 H   0  0  0  0  0  0  0  0  0  0  0  0
    3.4879    1.4519   -1.5417 H   0  0  0  0  0  0  0  0  0  0  0  0
   -1.8198   -1.7349   -0.7350 H   0  0  0  0  0  0  0  0  0  0  0  0
   -1.6531   -1.9248    1.0413 H   0  0  0  0  0  0  0  0  0  0  0  0
   -3.2088   -1.8575    0.3273 H   0  0  0  0  0  0  0  0  0  0  0  0
   -4.8424    0.4708    1.1908 H   0  0  0  0  0  0  0  0  0  0  0  0
   -4.8882   -0.7779   -0.0870 H   0  0  0  0  0  0  0  0  0  0  0  0
    7.2130   -2.0351   -3.0435 H   0  0  0  0  0  0  0  0  0  0  0  0
   -6.6858   -0.4011    1.5325 H   0  0  0  0  0  0  0  0  0  0  0  0
   -8.4118   -0.1475    1.2539 H   0  0  0  0  0  0  0  0  0  0  0  0
   -8.0930    1.9738   -1.6096 H   0  0  0  0  0  0  0  0  0  0  0  0
   -8.9981    0.4772   -1.2782 H   0  0  0  0  0  0  0  0  0  0  0  0
   -8.9321    1.7793   -0.0533 H   0  0  0  0  0  0  0  0  0  0  0  0
   -7.4503   -2.7030   -1.5295 H   0  0  0  0  0  0  0  0  0  0  0  0
  1 14  1  0  0  0  0
  1 64  1  0  0  0  0
  2 18  1  0  0  0  0
  2 67  1  0  0  0  0
  3 27  1  0  0  0  0
  3 73  1  0  0  0  0
  4 31  2  0  0  0  0
  5 34  1  0  0  0  0
  5 79  1  0  0  0  0
  6 34  2  0  0  0  0
  7 31  1  0  0  0  0
  7 32  1  0  0  0  0
  7 33  1  0  0  0  0
  8  9  1  0  0  0  0
  8 13  1  0  0  0  0
  8 14  1  0  0  0  0
  8 22  1  0  0  0  0
  9 10  1  0  0  0  0
  9 17  1  0  0  0  0
  9 35  1  0  0  0  0
 10 11  1  0  0  0  0
 10 18  1  0  0  0  0
 10 36  1  0  0  0  0
 11 12  1  0  0  0  0
 11 15  1  0  0  0  0
 11 37  1  0  0  0  0
 12 16  1  0  0  0  0
 12 21  1  0  0  0  0
 12 25  1  0  0  0  0
 13 19  1  0  0  0  0
 13 23  1  0  0  0  0
 13 38  1  0  0  0  0
 14 15  1  0  0  0  0
 14 39  1  0  0  0  0
 15 40  1  0  0  0  0
 15 41  1  0  0  0  0
 16 20  1  0  0  0  0
 16 24  1  0  0  0  0
 16 42  1  0  0  0  0
 17 19  1  0  0  0  0
 17 43  1  0  0  0  0
 17 44  1  0  0  0  0
 18 20  1  0  0  0  0
 18 45  1  0  0  0  0
 19 46  1  0  0  0  0
 19 47  1  0  0  0  0
 20 48  1  0  0  0  0
 20 49  1  0  0  0  0
 21 26  1  0  0  0  0
 21 50  1  0  0  0  0
 21 51  1  0  0  0  0
 22 52  1  0  0  0  0
 22 53  1  0  0  0  0
 22 54  1  0  0  0  0
 23 28  1  0  0  0  0
 23 29  1  0  0  0  0
 23 55  1  0  0  0  0
 24 27  1  0  0  0  0
 24 56  1  0  0  0  0
 24 57  1  0  0  0  0
 25 58  1  0  0  0  0
 25 59  1  0  0  0  0
 25 60  1  0  0  0  0
 26 27  1  0  0  0  0
 26 61  1  0  0  0  0
 26 62  1  0  0  0  0
 27 63  1  0  0  0  0
 28 30  1  0  0  0  0
 28 65  1  0  0  0  0
 28 66  1  0  0  0  0
 29 68  1  0  0  0  0
 29 69  1  0  0  0  0
 29 70  1  0  0  0  0
 30 31  1  0  0  0  0
 30 71  1  0  0  0  0
 30 72  1  0  0  0  0
 32 34  1  0  0  0  0
 32 74  1  0  0  0  0
 32 75  1  0  0  0  0
 33 76  1  0  0  0  0
 33 77  1  0  0  0  0
 33 78  1  0  0  0  0
M  END
> <PUBCHEM_COMPOUND_CID>
11662986

> <PUBCHEM_CONFORMER_RMSD>
1

> <PUBCHEM_CONFORMER_DIVERSEORDER>
2
25
14
15
7
23
27
4
8
24
26
22
18
3
19
17
10
16
5
28
6
12
21
20
11
1
9
13

> <PUBCHEM_MMFF94_PARTIAL_CHARGES>
19
1 -0.68
14 0.28
18 0.28
2 -0.68
27 0.28
3 -0.68
30 0.06
31 0.57
32 0.36
33 0.3
34 0.66
4 -0.57
5 -0.65
6 -0.57
64 0.4
67 0.4
7 -0.66
73 0.4
79 0.5

> <PUBCHEM_EFFECTIVE_ROTOR_COUNT>
9.2

> <PUBCHEM_PHARMACOPHORE_FEATURES>
15
1 1 acceptor
1 1 donor
1 2 acceptor
1 2 donor
1 29 hydrophobe
1 3 acceptor
1 3 donor
1 4 acceptor
1 5 acceptor
1 6 acceptor
3 5 6 34 anion
5 8 9 13 17 19 rings
6 10 11 12 16 18 20 rings
6 12 16 21 24 26 27 rings
6 8 9 10 11 14 15 rings

> <PUBCHEM_HEAVY_ATOM_COUNT>
34

> <PUBCHEM_ATOM_DEF_STEREO_COUNT>
11

> <PUBCHEM_ATOM_UDEF_STEREO_COUNT>
0

> <PUBCHEM_BOND_DEF_STEREO_COUNT>
0

> <PUBCHEM_BOND_UDEF_STEREO_COUNT>
0

> <PUBCHEM_ISOTOPIC_ATOM_COUNT>
0

> <PUBCHEM_COMPONENT_COUNT>
1

> <PUBCHEM_CACTVS_TAUTO_COUNT>
1

> <PUBCHEM_CONFORMER_ID>
00B1F68A00000002

> <PUBCHEM_MMFF94_ENERGY>
121.4302

> <PUBCHEM_FEATURE_SELFOVERLAP>
76.303

> <PUBCHEM_SHAPE_FINGERPRINT>
117089 54 17628933227168465102
11719270 70 18202278091855586335
11828532 37 18340498841276625798
11963148 33 18336255774160455747
12166972 35 18260548944116320429
125118 31 9871752403261814691
13533116 47 16702017557425875890
13782708 43 17846773005841637041
13811026 1 18409445903475172994
15119646 104 16128660725693427029
15183329 4 18412262814101647561
15352257 5 18410011061754168091
21057603 40 17346606239882105750
21267235 1 18342179946756687473
21781051 124 18342464758881243911
221357 26 18341614772812235384
22149856 69 18130796646442580921
23522609 53 17387426639765665269
23559900 14 18413672427058677520
23569943 247 17980206288204472410
24771750 20 18118410785084265188
3004659 81 18334857208079856592
34797466 226 18202562882926740504
4073 2 17604431919732041539
4625314 4 18409445887223835469
484989 97 18410858754373417729
49967989 163 17168713084787564667
59755656 215 18335421231980700332
9831232 110 18412545370867122886

> <PUBCHEM_SHAPE_MULTIPOLES>
659.51
23.73
2.56
1.58
41.73
0.02
0.13
-8.07
6.78
0.17
0.2
-2.45
-0.41
1.77

> <PUBCHEM_SHAPE_SELFOVERLAP>
1373.923

> <PUBCHEM_SHAPE_VOLUME>
370.9

> <PUBCHEM_COORDINATE_TYPE>
2
5
10

$$$$
