11662058
  -OEChem-03292013303D

 59 61  0     1  0  0  0  0  0999 V2000
   -0.5838    1.7679   -0.3123 O   0  0  0  0  0  0  0  0  0  0  0  0
    0.8173   -0.0724   -0.6196 O   0  0  0  0  0  0  0  0  0  0  0  0
    2.4986    4.3933   -1.0001 O   0  0  0  0  0  0  0  0  0  0  0  0
    0.0798    5.3203    0.2829 O   0  0  0  0  0  0  0  0  0  0  0  0
    3.0656    1.6037   -0.2402 O   0  0  0  0  0  0  0  0  0  0  0  0
   -3.0665    2.5091    0.6058 O   0  0  0  0  0  0  0  0  0  0  0  0
    0.8335   -3.3539    0.9965 O   0  0  0  0  0  0  0  0  0  0  0  0
   -4.1930   -0.7444    2.0012 O   0  0  0  0  0  0  0  0  0  0  0  0
   -3.4858   -2.3405   -2.4416 O   0  0  0  0  0  0  0  0  0  0  0  0
    1.6562    3.5621   -0.2002 C   0  0  1  0  0  0  0  0  0  0  0  0
    0.2177    4.0550   -0.3585 C   0  0  1  0  0  0  0  0  0  0  0  0
    1.7962    2.1088   -0.6537 C   0  0  2  0  0  0  0  0  0  0  0  0
   -0.7680    3.0626    0.2629 C   0  0  1  0  0  0  0  0  0  0  0  0
    0.7075    1.2278   -0.0413 C   0  0  1  0  0  0  0  0  0  0  0  0
    0.3907   -1.0777    0.2864 C   0  0  2  0  0  0  0  0  0  0  0  0
   -2.2157    3.4743    0.0150 C   0  0  0  0  0  0  0  0  0  0  0  0
    1.1927   -2.3692    0.0225 C   0  0  1  0  0  0  0  0  0  0  0  0
   -1.1024   -1.2421    0.1077 C   0  0  0  0  0  0  0  0  0  0  0  0
    2.6913   -2.1804    0.1038 C   0  0  0  0  0  0  0  0  0  0  0  0
   -1.6118   -1.7215   -1.0990 C   0  0  0  0  0  0  0  0  0  0  0  0
   -1.9696   -0.9140    1.1496 C   0  0  0  0  0  0  0  0  0  0  0  0
    3.4134   -1.8327   -1.0380 C   0  0  0  0  0  0  0  0  0  0  0  0
    3.3514   -2.3537    1.3204 C   0  0  0  0  0  0  0  0  0  0  0  0
   -3.3465   -1.0654    0.9848 C   0  0  0  0  0  0  0  0  0  0  0  0
   -2.9886   -1.8730   -1.2639 C   0  0  0  0  0  0  0  0  0  0  0  0
   -3.8561   -1.5449   -0.2218 C   0  0  0  0  0  0  0  0  0  0  0  0
    4.7953   -1.6585   -0.9632 C   0  0  0  0  0  0  0  0  0  0  0  0
    4.7333   -2.1793    1.3951 C   0  0  0  0  0  0  0  0  0  0  0  0
    5.4552   -1.8316    0.2532 C   0  0  0  0  0  0  0  0  0  0  0  0
   -3.6049   -0.2590    3.2072 C   0  0  0  0  0  0  0  0  0  0  0  0
   -4.9031   -2.4709   -2.5418 C   0  0  0  0  0  0  0  0  0  0  0  0
    1.9998    3.6845    0.8337 H   0  0  0  0  0  0  0  0  0  0  0  0
   -0.0067    4.2014   -1.4221 H   0  0  0  0  0  0  0  0  0  0  0  0
    1.7715    2.0437   -1.7480 H   0  0  0  0  0  0  0  0  0  0  0  0
   -0.6195    2.9858    1.3488 H   0  0  0  0  0  0  0  0  0  0  0  0
    0.8651    1.1831    1.0452 H   0  0  0  0  0  0  0  0  0  0  0  0
    0.6025   -0.7937    1.3271 H   0  0  0  0  0  0  0  0  0  0  0  0
   -2.4354    3.4998   -1.0576 H   0  0  0  0  0  0  0  0  0  0  0  0
   -2.4362    4.4524    0.4531 H   0  0  0  0  0  0  0  0  0  0  0  0
    0.9665   -2.7957   -0.9621 H   0  0  0  0  0  0  0  0  0  0  0  0
    2.2293    4.2922   -1.9290 H   0  0  0  0  0  0  0  0  0  0  0  0
    0.2634    5.1984    1.2301 H   0  0  0  0  0  0  0  0  0  0  0  0
    3.1040    1.6404    0.7308 H   0  0  0  0  0  0  0  0  0  0  0  0
   -3.9818    2.7856    0.4291 H   0  0  0  0  0  0  0  0  0  0  0  0
   -0.9497   -1.9687   -1.9246 H   0  0  0  0  0  0  0  0  0  0  0  0
   -1.5227   -0.5433    2.0658 H   0  0  0  0  0  0  0  0  0  0  0  0
   -0.0956   -3.5961    0.8450 H   0  0  0  0  0  0  0  0  0  0  0  0
    2.9110   -1.6936   -1.9916 H   0  0  0  0  0  0  0  0  0  0  0  0
    2.8137   -2.6085    2.2294 H   0  0  0  0  0  0  0  0  0  0  0  0
   -4.9348   -1.6400   -0.2885 H   0  0  0  0  0  0  0  0  0  0  0  0
    5.3572   -1.3867   -1.8520 H   0  0  0  0  0  0  0  0  0  0  0  0
    5.2471   -2.3102    2.3430 H   0  0  0  0  0  0  0  0  0  0  0  0
    6.5310   -1.6945    0.3118 H   0  0  0  0  0  0  0  0  0  0  0  0
   -4.4232   -0.0529    3.9051 H   0  0  0  0  0  0  0  0  0  0  0  0
   -3.0772    0.6872    3.0464 H   0  0  0  0  0  0  0  0  0  0  0  0
   -2.9677   -1.0157    3.6772 H   0  0  0  0  0  0  0  0  0  0  0  0
   -5.1220   -2.8555   -3.5434 H   0  0  0  0  0  0  0  0  0  0  0  0
   -5.4037   -1.5006   -2.4559 H   0  0  0  0  0  0  0  0  0  0  0  0
   -5.2915   -3.2038   -1.8265 H   0  0  0  0  0  0  0  0  0  0  0  0
  1 13  1  0  0  0  0
  1 14  1  0  0  0  0
  2 14  1  0  0  0  0
  2 15  1  0  0  0  0
  3 10  1  0  0  0  0
  3 41  1  0  0  0  0
  4 11  1  0  0  0  0
  4 42  1  0  0  0  0
  5 12  1  0  0  0  0
  5 43  1  0  0  0  0
  6 16  1  0  0  0  0
  6 44  1  0  0  0  0
  7 17  1  0  0  0  0
  7 47  1  0  0  0  0
  8 24  1  0  0  0  0
  8 30  1  0  0  0  0
  9 25  1  0  0  0  0
  9 31  1  0  0  0  0
 10 11  1  0  0  0  0
 10 12  1  0  0  0  0
 10 32  1  0  0  0  0
 11 13  1  0  0  0  0
 11 33  1  0  0  0  0
 12 14  1  0  0  0  0
 12 34  1  0  0  0  0
 13 16  1  0  0  0  0
 13 35  1  0  0  0  0
 14 36  1  0  0  0  0
 15 17  1  0  0  0  0
 15 18  1  0  0  0  0
 15 37  1  0  0  0  0
 16 38  1  0  0  0  0
 16 39  1  0  0  0  0
 17 19  1  0  0  0  0
 17 40  1  0  0  0  0
 18 20  2  0  0  0  0
 18 21  1  0  0  0  0
 19 22  2  0  0  0  0
 19 23  1  0  0  0  0
 20 25  1  0  0  0  0
 20 45  1  0  0  0  0
 21 24  2  0  0  0  0
 21 46  1  0  0  0  0
 22 27  1  0  0  0  0
 22 48  1  0  0  0  0
 23 28  2  0  0  0  0
 23 49  1  0  0  0  0
 24 26  1  0  0  0  0
 25 26  2  0  0  0  0
 26 50  1  0  0  0  0
 27 29  2  0  0  0  0
 27 51  1  0  0  0  0
 28 29  1  0  0  0  0
 28 52  1  0  0  0  0
 29 53  1  0  0  0  0
 30 54  1  0  0  0  0
 30 55  1  0  0  0  0
 30 56  1  0  0  0  0
 31 57  1  0  0  0  0
 31 58  1  0  0  0  0
 31 59  1  0  0  0  0
M  END
> <PUBCHEM_COMPOUND_CID>
11662058

> <PUBCHEM_CONFORMER_RMSD>
1

> <PUBCHEM_CONFORMER_DIVERSEORDER>
2
4
144
110
332
124
211
295
331
87
27
216
314
185
276
93
226
86
156
193
112
172
177
17
188
264
102
313
59
28
301
68
309
238
266
312
328
270
326
35
249
246
222
91
132
40
215
95
57
8
116
255
107
25
224
164
43
247
306
66
167
64
128
157
227
319
195
294
291
9
280
114
18
342
305
323
151
153
248
31
277
175
197
250
140
297
292
83
265
285
317
73
160
80
34
327
254
13
42
282
178
267
115
198
206
81
275
55
70
329
252
48
155
158
261
283
137
30
92
103
251
149
288
316
123
237
192
169
191
214
286
244
278
231
218
152
304
183
334
47
142
336
274
63
196
41
263
162
71
19
65
61
159
139
56
84
229
245
194
72
335
136
150
51
210
88
166
154
235
67
290
344
111
296
174
322
101
221
23
243
228
14
232
7
259
145
99
293
3
26
180
199
220
315
318
324
98
186
176
143
109
45
121
96
213
79
119
163
209
279
272
24
284
77
343
16
22
299
134
333
239
5
127
219
69
15
287
54
60
11
308
97
302
307
346
32
271
49
33
217
184
203
74
345
135
225
100
141
10
330
108
189
89
187
269
113
204
12
337
268
1
256
338
300
233
240
125
179
230
321
94
58
147
310
126
44
29
339
320
168
190
133
311
262
170
200
46
6
78
205
138
212
298
120
62
171
347
37
260
53
253
50
289
341
117
241
340
207
181
148
129
130
208
202
75
118
173
39
90
258
21
76
38
165
36
146
223
20
257
85
161
104
303
122
325
242
201
273
236
234
106
131
82
105
281
52
182

> <PUBCHEM_MMFF94_PARTIAL_CHARGES>
44
1 -0.56
10 0.28
11 0.28
12 0.28
13 0.28
14 0.56
15 0.42
16 0.28
17 0.42
18 -0.14
19 -0.14
2 -0.56
20 -0.15
21 -0.15
22 -0.15
23 -0.15
24 0.08
25 0.08
26 -0.15
27 -0.15
28 -0.15
29 -0.15
3 -0.68
30 0.28
31 0.28
4 -0.68
41 0.4
42 0.4
43 0.4
44 0.4
45 0.15
46 0.15
47 0.4
48 0.15
49 0.15
5 -0.68
50 0.15
51 0.15
52 0.15
53 0.15
6 -0.68
7 -0.68
8 -0.36
9 -0.36

> <PUBCHEM_EFFECTIVE_ROTOR_COUNT>
9.2

> <PUBCHEM_PHARMACOPHORE_FEATURES>
17
1 1 acceptor
1 2 acceptor
1 3 acceptor
1 3 donor
1 4 acceptor
1 4 donor
1 5 acceptor
1 5 donor
1 6 acceptor
1 6 donor
1 7 acceptor
1 7 donor
1 8 acceptor
1 9 acceptor
6 1 10 11 12 13 14 rings
6 18 20 21 24 25 26 rings
6 19 22 23 27 28 29 rings

> <PUBCHEM_HEAVY_ATOM_COUNT>
31

> <PUBCHEM_ATOM_DEF_STEREO_COUNT>
5

> <PUBCHEM_ATOM_UDEF_STEREO_COUNT>
2

> <PUBCHEM_BOND_DEF_STEREO_COUNT>
0

> <PUBCHEM_BOND_UDEF_STEREO_COUNT>
0

> <PUBCHEM_ISOTOPIC_ATOM_COUNT>
0

> <PUBCHEM_COMPONENT_COUNT>
1

> <PUBCHEM_CACTVS_TAUTO_COUNT>
1

> <PUBCHEM_CONFORMER_ID>
00B1F2EA00000002

> <PUBCHEM_MMFF94_ENERGY>
107.215

> <PUBCHEM_FEATURE_SELFOVERLAP>
86.342

> <PUBCHEM_SHAPE_FINGERPRINT>
10871710 139 18337679594536283214
10906281 52 17545060212005245969
1100329 8 18263930938250132744
11578080 2 17702359837045084657
12160290 23 17756990004331863494
12422481 6 17909301033875399361
12553582 1 18409174285760331226
12788726 201 17974552612087495691
13009979 54 17845938541073078971
13140716 1 18336265622688393440
133893 2 18266741478964873143
13911987 19 17613718536753974701
14955137 171 18265641847300046306
15842332 3 17916035735932682951
1813 80 18342460331144527494
20101258 96 18336832983293373712
20600515 1 15841284687409886899
20764821 26 18409445860715624884
21041028 32 18335432235233167115
2132832 1 18059567044800699495
25147074 1 17987807439904741515
469060 322 18340762654778421419
513202 73 17979370659140593102
5171179 24 18201140110427098032
57527295 17 17823675535329277903
70251023 43 18338785802060544759
7471813 234 18340753923056797423
7808743 9 18049441436531273282

> <PUBCHEM_SHAPE_MULTIPOLES>
585.14
9
6.24
1.91
4.31
10.21
0.53
-9.05
0.16
0.22
-1.36
-2.81
-1.67
-2.56

> <PUBCHEM_SHAPE_SELFOVERLAP>
1237.715

> <PUBCHEM_SHAPE_VOLUME>
325.1

> <PUBCHEM_COORDINATE_TYPE>
2
5
10

$$$$
