11667832
  -OEChem-03292013303D

 53 57  0     1  0  0  0  0  0999 V2000
    2.1499    2.1296   -0.4778 O   0  0  0  0  0  0  0  0  0  0  0  0
   -2.2320    3.3954    0.3500 O   0  0  0  0  0  0  0  0  0  0  0  0
   -2.8145    0.4368   -1.3637 O   0  0  0  0  0  0  0  0  0  0  0  0
   -4.7895   -2.1605   -1.0663 O   0  0  0  0  0  0  0  0  0  0  0  0
    2.5517   -0.6137   -0.7537 N   0  0  2  0  0  0  0  0  0  0  0  0
   -5.3663   -0.6933    0.5991 N   0  0  0  0  0  0  0  0  0  0  0  0
    0.0407    0.8950   -0.7046 C   0  0  2  0  0  0  0  0  0  0  0  0
    1.2528    1.2441    0.2184 C   0  0  1  0  0  0  0  0  0  0  0  0
    2.0189   -0.0666    0.5178 C   0  0  1  0  0  0  0  0  0  0  0  0
    0.5915    0.2629   -2.0141 C   0  0  0  0  0  0  0  0  0  0  0  0
    0.8022    2.0025    1.4919 C   0  0  0  0  0  0  0  0  0  0  0  0
   -0.6948    2.2107   -1.0639 C   0  0  0  0  0  0  0  0  0  0  0  0
    1.5315   -0.9248   -1.7573 C   0  0  0  0  0  0  0  0  0  0  0  0
   -0.8636   -0.1604   -0.0318 C   0  0  0  0  0  0  0  0  0  0  0  0
    1.1289   -1.0332    1.3257 C   0  0  0  0  0  0  0  0  0  0  0  0
    3.4749   -1.7286   -0.5688 C   0  0  0  0  0  0  0  0  0  0  0  0
    4.5510   -1.3873    0.4479 C   0  0  0  0  0  0  0  0  0  0  0  0
   -0.3230   -1.0726    0.9042 C   0  0  0  0  0  0  0  0  0  0  0  0
    0.0208    3.2721    1.1634 C   0  0  0  0  0  0  0  0  0  0  0  0
    5.4216   -0.2176    0.1756 C   0  0  0  0  0  0  0  0  0  0  0  0
    5.9669   -1.6114    0.0664 C   0  0  0  0  0  0  0  0  0  0  0  0
   -1.0898    2.9708    0.1846 C   0  0  0  0  0  0  0  0  0  0  0  0
   -2.2218   -0.2931   -0.3752 C   0  0  0  0  0  0  0  0  0  0  0  0
   -1.1491   -2.0426    1.4983 C   0  0  0  0  0  0  0  0  0  0  0  0
   -3.0292   -1.2663    0.2179 C   0  0  0  0  0  0  0  0  0  0  0  0
   -2.4950   -2.1373    1.1583 C   0  0  0  0  0  0  0  0  0  0  0  0
   -4.4347   -1.4109   -0.1423 C   0  0  0  0  0  0  0  0  0  0  0  0
    2.8645    0.2233    1.1516 H   0  0  0  0  0  0  0  0  0  0  0  0
    1.1345    1.0182   -2.5977 H   0  0  0  0  0  0  0  0  0  0  0  0
   -0.2321   -0.0727   -2.6579 H   0  0  0  0  0  0  0  0  0  0  0  0
    1.6828    2.2874    2.0812 H   0  0  0  0  0  0  0  0  0  0  0  0
    0.1787    1.3753    2.1371 H   0  0  0  0  0  0  0  0  0  0  0  0
   -1.5435    2.1162   -1.7386 H   0  0  0  0  0  0  0  0  0  0  0  0
   -0.0119    2.8787   -1.6086 H   0  0  0  0  0  0  0  0  0  0  0  0
    0.9523   -1.8112   -1.4720 H   0  0  0  0  0  0  0  0  0  0  0  0
    2.0178   -1.1730   -2.7093 H   0  0  0  0  0  0  0  0  0  0  0  0
    1.1540   -0.7220    2.3790 H   0  0  0  0  0  0  0  0  0  0  0  0
    1.5383   -2.0490    1.3102 H   0  0  0  0  0  0  0  0  0  0  0  0
    2.9620   -2.6427   -0.2479 H   0  0  0  0  0  0  0  0  0  0  0  0
    3.9454   -1.9621   -1.5325 H   0  0  0  0  0  0  0  0  0  0  0  0
    4.2674   -1.6038    1.4699 H   0  0  0  0  0  0  0  0  0  0  0  0
    0.6696    4.0350    0.7200 H   0  0  0  0  0  0  0  0  0  0  0  0
   -0.4106    3.6898    2.0793 H   0  0  0  0  0  0  0  0  0  0  0  0
    5.7392    0.3834    1.0191 H   0  0  0  0  0  0  0  0  0  0  0  0
    5.2959    0.3406   -0.7440 H   0  0  0  0  0  0  0  0  0  0  0  0
    6.2008   -1.9831   -0.9234 H   0  0  0  0  0  0  0  0  0  0  0  0
    6.6524   -1.9441    0.8366 H   0  0  0  0  0  0  0  0  0  0  0  0
    2.6707    1.6083   -1.1111 H   0  0  0  0  0  0  0  0  0  0  0  0
   -0.7391   -2.7347    2.2301 H   0  0  0  0  0  0  0  0  0  0  0  0
   -3.1111   -2.9002    1.6268 H   0  0  0  0  0  0  0  0  0  0  0  0
   -3.7742    0.3034   -1.3985 H   0  0  0  0  0  0  0  0  0  0  0  0
   -5.0929   -0.0817    1.3618 H   0  0  0  0  0  0  0  0  0  0  0  0
   -6.3581   -0.7605    0.3965 H   0  0  0  0  0  0  0  0  0  0  0  0
  1  8  1  0  0  0  0
  1 48  1  0  0  0  0
  2 22  2  0  0  0  0
  3 23  1  0  0  0  0
  3 51  1  0  0  0  0
  4 27  2  0  0  0  0
  5  9  1  0  0  0  0
  5 13  1  0  0  0  0
  5 16  1  0  0  0  0
  6 27  1  0  0  0  0
  6 52  1  0  0  0  0
  6 53  1  0  0  0  0
  7  8  1  0  0  0  0
  7 10  1  0  0  0  0
  7 12  1  0  0  0  0
  7 14  1  0  0  0  0
  8  9  1  0  0  0  0
  8 11  1  0  0  0  0
  9 15  1  0  0  0  0
  9 28  1  0  0  0  0
 10 13  1  0  0  0  0
 10 29  1  0  0  0  0
 10 30  1  0  0  0  0
 11 19  1  0  0  0  0
 11 31  1  0  0  0  0
 11 32  1  0  0  0  0
 12 22  1  0  0  0  0
 12 33  1  0  0  0  0
 12 34  1  0  0  0  0
 13 35  1  0  0  0  0
 13 36  1  0  0  0  0
 14 18  2  0  0  0  0
 14 23  1  0  0  0  0
 15 18  1  0  0  0  0
 15 37  1  0  0  0  0
 15 38  1  0  0  0  0
 16 17  1  0  0  0  0
 16 39  1  0  0  0  0
 16 40  1  0  0  0  0
 17 20  1  0  0  0  0
 17 21  1  0  0  0  0
 17 41  1  0  0  0  0
 18 24  1  0  0  0  0
 19 22  1  0  0  0  0
 19 42  1  0  0  0  0
 19 43  1  0  0  0  0
 20 21  1  0  0  0  0
 20 44  1  0  0  0  0
 20 45  1  0  0  0  0
 21 46  1  0  0  0  0
 21 47  1  0  0  0  0
 23 25  2  0  0  0  0
 24 26  2  0  0  0  0
 24 49  1  0  0  0  0
 25 26  1  0  0  0  0
 25 27  1  0  0  0  0
 26 50  1  0  0  0  0
M  END
> <PUBCHEM_COMPOUND_CID>
11667832

> <PUBCHEM_CONFORMER_RMSD>
0.8

> <PUBCHEM_CONFORMER_DIVERSEORDER>
1
4
2
3

> <PUBCHEM_MMFF94_PARTIAL_CHARGES>
36
1 -0.68
12 0.06
13 0.27
14 -0.14
15 0.14
16 0.37
17 -0.19
18 -0.14
19 0.06
2 -0.57
20 -0.2
21 -0.2
22 0.45
23 0.08
24 -0.15
25 0.09
26 -0.15
27 0.54
3 -0.53
4 -0.57
41 0.1
44 0.1
45 0.1
46 0.1
47 0.1
48 0.4
49 0.15
5 -0.81
50 0.15
51 0.45
52 0.37
53 0.37
6 -0.8
7 0.14
8 0.28
9 0.27

> <PUBCHEM_EFFECTIVE_ROTOR_COUNT>
5

> <PUBCHEM_PHARMACOPHORE_FEATURES>
11
1 1 acceptor
1 1 donor
1 2 acceptor
1 3 donor
1 4 acceptor
1 5 cation
1 6 donor
6 14 18 23 24 25 26 rings
6 5 7 8 9 10 13 rings
6 7 8 11 12 19 22 rings
6 7 8 9 14 15 18 rings

> <PUBCHEM_HEAVY_ATOM_COUNT>
27

> <PUBCHEM_ATOM_DEF_STEREO_COUNT>
3

> <PUBCHEM_ATOM_UDEF_STEREO_COUNT>
0

> <PUBCHEM_BOND_DEF_STEREO_COUNT>
0

> <PUBCHEM_BOND_UDEF_STEREO_COUNT>
0

> <PUBCHEM_ISOTOPIC_ATOM_COUNT>
0

> <PUBCHEM_COMPONENT_COUNT>
1

> <PUBCHEM_CACTVS_TAUTO_COUNT>
51

> <PUBCHEM_CONFORMER_ID>
00B2097800000001

> <PUBCHEM_MMFF94_ENERGY>
102.1867

> <PUBCHEM_FEATURE_SELFOVERLAP>
57.451

> <PUBCHEM_SHAPE_FINGERPRINT>
104564 63 18263083228065021955
10863032 1 18045791336060759476
10906281 52 18267890374326838242
10930396 42 18122311780041868106
1100329 8 18338520716331103393
11315181 36 18041284267276479770
12293681 4 18410583894026430595
12516196 113 18341893026141565490
12760667 363 18408886209550573850
12788726 201 18265917820301603908
13134695 92 18269838790551583733
13140716 1 18189349015854348851
13544653 18 18411423916704767538
13583140 156 14979674334542793066
13726171 33 14997383060583448975
14713325 29 17773034155545799496
14787075 74 18335700576806664878
14790565 3 17544471951492960124
14866123 147 18192715544654895331
16945 1 18041831810026649992
17980427 23 17060073561354207561
17980427 26 17555159621052930757
1813 80 17988656206482002406
20600515 1 18263098702552874487
20642791 13 18339364063281647558
21041028 32 18412829100991456573
21236236 1 18336829680595398234
23402539 116 18409164385501595775
23419403 2 18265029470836265044
23557571 272 18269843030127409966
23559900 14 17968662760647596828
24893992 56 18260832597600818697
283562 15 18335137540611156074
3380486 145 18048045352220183234
4340502 62 17832717772278412161
463206 1 18408885169683847402
57527585 103 16735552609906547306
59755656 520 17974288716390893452
6004065 56 18197769097691406007
70251023 43 18127667483214976663
7226269 152 18335140847872844325
81228 2 18122935064730277592
9981440 41 17198808641831096302

> <PUBCHEM_SHAPE_MULTIPOLES>
522.21
8.77
3.33
1.49
4.74
2.94
-0.26
-7.43
-0.29
-1.74
0.91
-0.12
-0.03
0.18

> <PUBCHEM_SHAPE_SELFOVERLAP>
1150.019

> <PUBCHEM_SHAPE_VOLUME>
276.6

> <PUBCHEM_COORDINATE_TYPE>
2
5
10

$$$$
