11669698
  -OEChem-03292013303D

 53 54  0     1  0  0  0  0  0999 V2000
    1.8092   -1.2065   -0.1045 O   0  0  0  0  0  0  0  0  0  0  0  0
   -1.7217   -0.2886   -0.0431 O   0  0  0  0  0  0  0  0  0  0  0  0
    0.7987    0.9065    2.0711 O   0  0  0  0  0  0  0  0  0  0  0  0
    0.8939   -4.8316    0.7457 O   0  0  0  0  0  0  0  0  0  0  0  0
   -0.9099   -0.5033    2.5596 O   0  0  0  0  0  0  0  0  0  0  0  0
    1.2750   -3.9517   -1.3116 O   0  0  0  0  0  0  0  0  0  0  0  0
    1.8015    0.7656   -1.3079 O   0  0  0  0  0  0  0  0  0  0  0  0
   -2.1937    1.7405    0.9556 O   0  0  0  0  0  0  0  0  0  0  0  0
   10.1105    1.2317    0.2085 O   0  0  0  0  0  0  0  0  0  0  0  0
  -10.3181    0.3103   -0.9157 O   0  0  0  0  0  0  0  0  0  0  0  0
    0.4007   -1.3517   -0.3111 C   0  0  2  0  0  0  0  0  0  0  0  0
   -0.3317   -0.1156    0.2298 C   0  0  2  0  0  0  0  0  0  0  0  0
   -0.0201   -2.6834    0.3122 C   0  0  0  0  0  0  0  0  0  0  0  0
   -0.2048    0.0585    1.7312 C   0  0  0  0  0  0  0  0  0  0  0  0
    0.7720   -3.8640   -0.2001 C   0  0  0  0  0  0  0  0  0  0  0  0
    2.3711   -0.0995   -0.6615 C   0  0  0  0  0  0  0  0  0  0  0  0
   -2.5345    0.7206    0.3778 C   0  0  0  0  0  0  0  0  0  0  0  0
    3.8173   -0.1237   -0.3458 C   0  0  0  0  0  0  0  0  0  0  0  0
   -3.9240    0.3644    0.0111 C   0  0  0  0  0  0  0  0  0  0  0  0
    4.6040    0.8733   -0.7751 C   0  0  0  0  0  0  0  0  0  0  0  0
    6.0518    0.9672   -0.5170 C   0  0  0  0  0  0  0  0  0  0  0  0
   -4.9225    1.2080    0.3082 C   0  0  0  0  0  0  0  0  0  0  0  0
   -6.3411    0.9717   -0.0130 C   0  0  0  0  0  0  0  0  0  0  0  0
    6.7542   -0.1746   -0.1674 C   0  0  0  0  0  0  0  0  0  0  0  0
    6.6821    2.1960   -0.6284 C   0  0  0  0  0  0  0  0  0  0  0  0
   -6.7721   -0.3189   -0.2732 C   0  0  0  0  0  0  0  0  0  0  0  0
   -7.2161    2.0454   -0.0491 C   0  0  0  0  0  0  0  0  0  0  0  0
    8.1245   -0.0851    0.0774 C   0  0  0  0  0  0  0  0  0  0  0  0
    8.0523    2.2852   -0.3837 C   0  0  0  0  0  0  0  0  0  0  0  0
   -8.1149   -0.5421   -0.5778 C   0  0  0  0  0  0  0  0  0  0  0  0
   -8.5589    1.8221   -0.3537 C   0  0  0  0  0  0  0  0  0  0  0  0
    8.7736    1.1448   -0.0307 C   0  0  0  0  0  0  0  0  0  0  0  0
   -9.0083    0.5284   -0.6181 C   0  0  0  0  0  0  0  0  0  0  0  0
    0.2195   -1.4269   -1.3925 H   0  0  0  0  0  0  0  0  0  0  0  0
   -0.0507    0.8258   -0.2423 H   0  0  0  0  0  0  0  0  0  0  0  0
    0.1505   -2.6413    1.3945 H   0  0  0  0  0  0  0  0  0  0  0  0
   -1.0816   -2.8854    0.1365 H   0  0  0  0  0  0  0  0  0  0  0  0
    4.1761   -0.9540    0.2513 H   0  0  0  0  0  0  0  0  0  0  0  0
   -4.0686   -0.5732   -0.5128 H   0  0  0  0  0  0  0  0  0  0  0  0
    0.8784    1.0079    3.0435 H   0  0  0  0  0  0  0  0  0  0  0  0
    4.1799    1.6948   -1.3482 H   0  0  0  0  0  0  0  0  0  0  0  0
    1.4194   -5.5944    0.4226 H   0  0  0  0  0  0  0  0  0  0  0  0
   -4.7106    2.1484    0.8122 H   0  0  0  0  0  0  0  0  0  0  0  0
    6.2953   -1.1553   -0.0926 H   0  0  0  0  0  0  0  0  0  0  0  0
    6.1337    3.0938   -0.9009 H   0  0  0  0  0  0  0  0  0  0  0  0
   -6.1177   -1.1838   -0.2320 H   0  0  0  0  0  0  0  0  0  0  0  0
   -6.8809    3.0593    0.1528 H   0  0  0  0  0  0  0  0  0  0  0  0
    8.6765   -0.9817    0.3471 H   0  0  0  0  0  0  0  0  0  0  0  0
    8.5525    3.2462   -0.4690 H   0  0  0  0  0  0  0  0  0  0  0  0
   -8.4539   -1.5552   -0.7774 H   0  0  0  0  0  0  0  0  0  0  0  0
   -9.2501    2.6600   -0.3840 H   0  0  0  0  0  0  0  0  0  0  0  0
   10.4473    0.3490    0.4397 H   0  0  0  0  0  0  0  0  0  0  0  0
  -10.4522   -0.6406   -1.0702 H   0  0  0  0  0  0  0  0  0  0  0  0
  1 11  1  0  0  0  0
  1 16  1  0  0  0  0
  2 12  1  0  0  0  0
  2 17  1  0  0  0  0
  3 14  1  0  0  0  0
  3 40  1  0  0  0  0
  4 15  1  0  0  0  0
  4 42  1  0  0  0  0
  5 14  2  0  0  0  0
  6 15  2  0  0  0  0
  7 16  2  0  0  0  0
  8 17  2  0  0  0  0
  9 32  1  0  0  0  0
  9 52  1  0  0  0  0
 10 33  1  0  0  0  0
 10 53  1  0  0  0  0
 11 12  1  0  0  0  0
 11 13  1  0  0  0  0
 11 34  1  0  0  0  0
 12 14  1  0  0  0  0
 12 35  1  0  0  0  0
 13 15  1  0  0  0  0
 13 36  1  0  0  0  0
 13 37  1  0  0  0  0
 16 18  1  0  0  0  0
 17 19  1  0  0  0  0
 18 20  2  0  0  0  0
 18 38  1  0  0  0  0
 19 22  2  0  0  0  0
 19 39  1  0  0  0  0
 20 21  1  0  0  0  0
 20 41  1  0  0  0  0
 21 24  2  0  0  0  0
 21 25  1  0  0  0  0
 22 23  1  0  0  0  0
 22 43  1  0  0  0  0
 23 26  2  0  0  0  0
 23 27  1  0  0  0  0
 24 28  1  0  0  0  0
 24 44  1  0  0  0  0
 25 29  2  0  0  0  0
 25 45  1  0  0  0  0
 26 30  1  0  0  0  0
 26 46  1  0  0  0  0
 27 31  2  0  0  0  0
 27 47  1  0  0  0  0
 28 32  2  0  0  0  0
 28 48  1  0  0  0  0
 29 32  1  0  0  0  0
 29 49  1  0  0  0  0
 30 33  2  0  0  0  0
 30 50  1  0  0  0  0
 31 33  1  0  0  0  0
 31 51  1  0  0  0  0
M  END
> <PUBCHEM_COMPOUND_CID>
11669698

> <PUBCHEM_CONFORMER_RMSD>
1.2

> <PUBCHEM_CONFORMER_DIVERSEORDER>
1
20
13
12
10
21
18
19
6
15
24
14
4
2
5
16
11
3
7
8
9
23
17
22

> <PUBCHEM_MMFF94_PARTIAL_CHARGES>
49
1 -0.43
10 -0.53
11 0.28
12 0.34
13 0.06
14 0.66
15 0.66
16 0.71
17 0.71
18 -0.14
19 -0.14
2 -0.43
20 -0.18
21 0.03
22 -0.18
23 0.03
24 -0.15
25 -0.15
26 -0.15
27 -0.15
28 -0.15
29 -0.15
3 -0.65
30 -0.15
31 -0.15
32 0.08
33 0.08
38 0.15
39 0.15
4 -0.65
40 0.5
41 0.15
42 0.5
43 0.15
44 0.15
45 0.15
46 0.15
47 0.15
48 0.15
49 0.15
5 -0.57
50 0.15
51 0.15
52 0.45
53 0.45
6 -0.57
7 -0.57
8 -0.57
9 -0.53

> <PUBCHEM_EFFECTIVE_ROTOR_COUNT>
12

> <PUBCHEM_PHARMACOPHORE_FEATURES>
12
1 10 donor
1 3 acceptor
1 4 acceptor
1 5 acceptor
1 6 acceptor
1 7 acceptor
1 8 acceptor
1 9 donor
3 3 5 14 anion
3 4 6 15 anion
6 21 24 25 28 29 32 rings
6 23 26 27 30 31 33 rings

> <PUBCHEM_HEAVY_ATOM_COUNT>
33

> <PUBCHEM_ATOM_DEF_STEREO_COUNT>
2

> <PUBCHEM_ATOM_UDEF_STEREO_COUNT>
0

> <PUBCHEM_BOND_DEF_STEREO_COUNT>
2

> <PUBCHEM_BOND_UDEF_STEREO_COUNT>
0

> <PUBCHEM_ISOTOPIC_ATOM_COUNT>
0

> <PUBCHEM_COMPONENT_COUNT>
1

> <PUBCHEM_CACTVS_TAUTO_COUNT>
4

> <PUBCHEM_CONFORMER_ID>
00B210C200000001

> <PUBCHEM_MMFF94_ENERGY>
86.0247

> <PUBCHEM_FEATURE_SELFOVERLAP>
61.017

> <PUBCHEM_SHAPE_FINGERPRINT>
10050765 1 18050286960493368477
10076449 9 13039189199647966265
10165383 225 18410853265436900997
10299344 5 9655578508946751468
10595046 47 18268712723942791801
10904742 90 18412262839407260447
11443803 9 18333447659916426218
12107183 9 7997679892673121145
12202916 173 17822014207033462129
12522641 33 18335420149248450243
12592606 108 9151166546198856589
12758862 56 9655568591682564981
13150687 139 18342747295268797486
13540713 5 17628648444701939019
13673619 4 12247678249428292971
13726171 33 17273711857887753785
13968360 50 18409450249977399110
14040221 310 18058440071321176351
14117953 113 18409177610602913916
14251764 46 18272369771882321148
14937079 2 18336834198917967884
15131766 46 13697875933103963982
15301273 46 12612748004155758576
15773216 30 18270120093630207598
15840311 113 18113621201465610588
15890870 6 18411139143472813524
16758388 162 18260820489645393352
16992727 255 18202001070543534751
19301679 30 8141824789143362520
19304144 158 18188207603211461373
20554085 129 18202273698399344538
21057603 11 18113615716244592338
21267235 1 9655577404965621830
21403212 168 16805039623178350160
21591340 7 18335419084085621828
22224240 67 18408605855153567518
24771293 8 18187369792636726645
249057 3 16128651980998061348
3633792 109 18341901749520492546
395649 100 18261673775087846679
4073 2 18334581214420614099
45266715 3 18201451238190687310
45377200 153 15769478933975874903
5219985 9 9223232931897416566
57527306 92 17530681021874363044
57527358 35 16556240899368646372
6057620 51 18343582911584586217
6058803 2 17269774416110990259
67123 10 18413670218860145877
99344 41 18408605876607662134

> <PUBCHEM_SHAPE_MULTIPOLES>
620.43
31.89
3.3
1.19
10.07
5.58
0.65
-24.67
-7.99
-2.16
-0.25
0.17
0.1
-0.36

> <PUBCHEM_SHAPE_SELFOVERLAP>
1318.792

> <PUBCHEM_SHAPE_VOLUME>
342

> <PUBCHEM_COORDINATE_TYPE>
2
5
10

$$$$
