11660490
  -OEChem-03292013303D

 50 51  0     1  0  0  0  0  0999 V2000
    2.9490    3.8188    0.5141 O   0  0  0  0  0  0  0  0  0  0  0  0
    0.1444    3.6081    1.0897 O   0  0  0  0  0  0  0  0  0  0  0  0
    0.7948   -3.6363    0.8037 O   0  0  0  0  0  0  0  0  0  0  0  0
    3.2945   -4.8299    0.5725 O   0  0  0  0  0  0  0  0  0  0  0  0
   -6.2079    0.3258   -1.0983 O   0  0  0  0  0  0  0  0  0  0  0  0
   -5.7290   -2.2954   -0.3068 O   0  0  0  0  0  0  0  0  0  0  0  0
    2.6065    2.9330   -0.5496 C   0  0  1  0  0  0  0  0  0  0  0  0
    2.7873    1.4876   -0.0714 C   0  0  0  0  0  0  0  0  0  0  0  0
    1.1871    3.2321   -1.0379 C   0  0  0  0  0  0  0  0  0  0  0  0
    2.5144    0.4743   -1.1894 C   0  0  0  0  0  0  0  0  0  0  0  0
    0.1287    2.9890    0.0260 C   0  0  0  0  0  0  0  0  0  0  0  0
   -0.9078    1.9175   -0.2787 C   0  0  0  0  0  0  0  0  0  0  0  0
    2.7194   -0.9432   -0.7173 C   0  0  0  0  0  0  0  0  0  0  0  0
   -1.9511    1.7409    0.8259 C   0  0  0  0  0  0  0  0  0  0  0  0
   -2.9642    0.6633    0.5214 C   0  0  0  0  0  0  0  0  0  0  0  0
    1.6526   -1.6397   -0.1701 C   0  0  0  0  0  0  0  0  0  0  0  0
    3.9715   -1.5265   -0.8386 C   0  0  0  0  0  0  0  0  0  0  0  0
    4.2824    3.6086    0.9530 C   0  0  0  0  0  0  0  0  0  0  0  0
   -4.1276    0.9966   -0.1533 C   0  0  0  0  0  0  0  0  0  0  0  0
    1.8422   -2.9510    0.2661 C   0  0  0  0  0  0  0  0  0  0  0  0
   -2.7113   -0.6386    0.9223 C   0  0  0  0  0  0  0  0  0  0  0  0
    4.1612   -2.8377   -0.4020 C   0  0  0  0  0  0  0  0  0  0  0  0
    3.0966   -3.5500    0.1503 C   0  0  0  0  0  0  0  0  0  0  0  0
   -5.0633    0.0011   -0.4350 C   0  0  0  0  0  0  0  0  0  0  0  0
   -3.6471   -1.6340    0.6410 C   0  0  0  0  0  0  0  0  0  0  0  0
   -4.8231   -1.3142   -0.0377 C   0  0  0  0  0  0  0  0  0  0  0  0
    3.2877    3.1299   -1.3883 H   0  0  0  0  0  0  0  0  0  0  0  0
    2.1497    1.2896    0.8000 H   0  0  0  0  0  0  0  0  0  0  0  0
    3.8106    1.3088    0.2762 H   0  0  0  0  0  0  0  0  0  0  0  0
    1.1052    4.2924   -1.3084 H   0  0  0  0  0  0  0  0  0  0  0  0
    0.9428    2.6631   -1.9399 H   0  0  0  0  0  0  0  0  0  0  0  0
    3.1790    0.6736   -2.0404 H   0  0  0  0  0  0  0  0  0  0  0  0
    1.4989    0.5643   -1.5860 H   0  0  0  0  0  0  0  0  0  0  0  0
   -1.4038    2.1914   -1.2172 H   0  0  0  0  0  0  0  0  0  0  0  0
   -0.3840    0.9715   -0.4366 H   0  0  0  0  0  0  0  0  0  0  0  0
   -2.4710    2.6920    1.0024 H   0  0  0  0  0  0  0  0  0  0  0  0
   -1.4513    1.5101    1.7764 H   0  0  0  0  0  0  0  0  0  0  0  0
    0.6740   -1.1780   -0.0758 H   0  0  0  0  0  0  0  0  0  0  0  0
    4.8072   -0.9796   -1.2655 H   0  0  0  0  0  0  0  0  0  0  0  0
    4.3286    2.8000    1.6881 H   0  0  0  0  0  0  0  0  0  0  0  0
    4.6062    4.5192    1.4669 H   0  0  0  0  0  0  0  0  0  0  0  0
    4.9741    3.4326    0.1226 H   0  0  0  0  0  0  0  0  0  0  0  0
   -4.3098    2.0225   -0.4626 H   0  0  0  0  0  0  0  0  0  0  0  0
   -1.7970   -0.8977    1.4486 H   0  0  0  0  0  0  0  0  0  0  0  0
    5.1409   -3.2985   -0.4946 H   0  0  0  0  0  0  0  0  0  0  0  0
   -3.4533   -2.6570    0.9523 H   0  0  0  0  0  0  0  0  0  0  0  0
    0.9577   -4.5906    0.7341 H   0  0  0  0  0  0  0  0  0  0  0  0
    2.6152   -5.0685    1.2238 H   0  0  0  0  0  0  0  0  0  0  0  0
   -6.2024    1.2789   -1.2926 H   0  0  0  0  0  0  0  0  0  0  0  0
   -6.4798   -1.8969   -0.7804 H   0  0  0  0  0  0  0  0  0  0  0  0
  1  7  1  0  0  0  0
  1 18  1  0  0  0  0
  2 11  2  0  0  0  0
  3 20  1  0  0  0  0
  3 47  1  0  0  0  0
  4 23  1  0  0  0  0
  4 48  1  0  0  0  0
  5 24  1  0  0  0  0
  5 49  1  0  0  0  0
  6 26  1  0  0  0  0
  6 50  1  0  0  0  0
  7  8  1  0  0  0  0
  7  9  1  0  0  0  0
  7 27  1  0  0  0  0
  8 10  1  0  0  0  0
  8 28  1  0  0  0  0
  8 29  1  0  0  0  0
  9 11  1  0  0  0  0
  9 30  1  0  0  0  0
  9 31  1  0  0  0  0
 10 13  1  0  0  0  0
 10 32  1  0  0  0  0
 10 33  1  0  0  0  0
 11 12  1  0  0  0  0
 12 14  1  0  0  0  0
 12 34  1  0  0  0  0
 12 35  1  0  0  0  0
 13 16  2  0  0  0  0
 13 17  1  0  0  0  0
 14 15  1  0  0  0  0
 14 36  1  0  0  0  0
 14 37  1  0  0  0  0
 15 19  2  0  0  0  0
 15 21  1  0  0  0  0
 16 20  1  0  0  0  0
 16 38  1  0  0  0  0
 17 22  2  0  0  0  0
 17 39  1  0  0  0  0
 18 40  1  0  0  0  0
 18 41  1  0  0  0  0
 18 42  1  0  0  0  0
 19 24  1  0  0  0  0
 19 43  1  0  0  0  0
 20 23  2  0  0  0  0
 21 25  2  0  0  0  0
 21 44  1  0  0  0  0
 22 23  1  0  0  0  0
 22 45  1  0  0  0  0
 24 26  2  0  0  0  0
 25 26  1  0  0  0  0
 25 46  1  0  0  0  0
M  END
> <PUBCHEM_COMPOUND_CID>
11660490

> <PUBCHEM_CONFORMER_RMSD>
1.4

> <PUBCHEM_CONFORMER_DIVERSEORDER>
2
4
60
107
50
193
58
177
42
49
145
52
135
185
55
128
201
44
96
76
64
99
141
3
61
36
126
122
73
146
205
196
13
151
51
152
21
38
209
31
171
87
109
68
84
22
167
176
6
139
142
173
168
88
72
158
54
83
208
86
100
12
102
149
91
34
80
82
137
46
118
63
154
66
162
183
200
79
67
156
24
7
94
14
157
112
136
132
62
35
90
153
97
47
27
195
197
95
134
165
59
9
32
41
15
81
75
40
203
74
23
166
108
103
169
30
172
129
17
113
1
39
161
125
179
25
57
19
92
155
124
123
184
186
20
163
98
10
174
119
114
182
105
164
192
8
5
170
71
207
175
143
160
101
89
37
65
11
198
33
204
77
53
133
29
199
28
106
70
18
69
150
48
110
16
117
188
138
144
206
104
120
93
187
116
210
121
194
148
56
180
111
191
178
45
131
211
202
26
127
140
130
189
43
85
115
147
159
181
78
190

> <PUBCHEM_MMFF94_PARTIAL_CHARGES>
35
1 -0.56
10 0.14
11 0.45
12 0.06
13 -0.14
14 0.14
15 -0.14
16 -0.15
17 -0.15
18 0.28
19 -0.15
2 -0.57
20 0.08
21 -0.15
22 -0.15
23 0.08
24 0.08
25 -0.15
26 0.08
3 -0.53
38 0.15
39 0.15
4 -0.53
43 0.15
44 0.15
45 0.15
46 0.15
47 0.45
48 0.45
49 0.45
5 -0.53
50 0.45
6 -0.53
7 0.28
9 0.06

> <PUBCHEM_EFFECTIVE_ROTOR_COUNT>
9

> <PUBCHEM_PHARMACOPHORE_FEATURES>
8
1 1 acceptor
1 2 acceptor
1 3 donor
1 4 donor
1 5 donor
1 6 donor
6 13 16 17 20 22 23 rings
6 15 19 21 24 25 26 rings

> <PUBCHEM_HEAVY_ATOM_COUNT>
26

> <PUBCHEM_ATOM_DEF_STEREO_COUNT>
1

> <PUBCHEM_ATOM_UDEF_STEREO_COUNT>
0

> <PUBCHEM_BOND_DEF_STEREO_COUNT>
0

> <PUBCHEM_BOND_UDEF_STEREO_COUNT>
0

> <PUBCHEM_ISOTOPIC_ATOM_COUNT>
0

> <PUBCHEM_COMPONENT_COUNT>
1

> <PUBCHEM_CACTVS_TAUTO_COUNT>
998

> <PUBCHEM_CONFORMER_ID>
00B1ECCA00000002

> <PUBCHEM_MMFF94_ENERGY>
65.1004

> <PUBCHEM_FEATURE_SELFOVERLAP>
40.608

> <PUBCHEM_SHAPE_FINGERPRINT>
114674 6 18409453617600504680
11552529 35 17400361144852815318
11719270 70 18266453394429483656
12107183 9 18054804896938182657
12553582 1 18121236289168950698
12969540 37 18409167671753074396
13533116 47 18411705396277113061
13631057 29 18122631557420931094
138480 1 18410015399138166068
14117953 113 17764871295495879391
14844126 61 17398114850944383696
14863182 85 18264498462850360596
15352361 1 18265618688640590319
19026451 147 18411697664829844219
19930381 70 18409169939284472203
20775530 9 18046923584161237792
21304304 249 18265891540135711208
21703447 108 18343578538506675224
22956985 138 18336539410127130176
23559900 14 18410285879278011579
238918 7 17836939167226931402
3298306 158 18194968675950548949
3421961 26 18411138021906120068
4280585 95 18191015716752656178
463206 1 18047765801204094202
532947 4 18338236080389441555
59682541 52 18338778088915953605
6433294 58 18410015472200109007
9777508 108 17045416233859410192

> <PUBCHEM_SHAPE_MULTIPOLES>
499.85
11.39
6.41
1.02
15.75
0.69
-0.03
5.24
-1.71
-9.54
1.46
-0.09
-0.32
0.38

> <PUBCHEM_SHAPE_SELFOVERLAP>
1046.789

> <PUBCHEM_SHAPE_VOLUME>
282.1

> <PUBCHEM_COORDINATE_TYPE>
2
5
10

$$$$
