11676121
  -OEChem-03292013303D

 53 54  0     0  0  0  0  0  0999 V2000
   -1.8263    0.0107   -2.3912 S   0  0  0  0  0  0  0  0  0  0  0  0
   -3.1036    0.6241   -2.7003 O   0  0  0  0  0  0  0  0  0  0  0  0
   -1.2732   -1.0123   -3.2575 O   0  0  0  0  0  0  0  0  0  0  0  0
   -1.7649    2.4816   -0.5105 O   0  0  0  0  0  0  0  0  0  0  0  0
   -4.4664   -1.3111    3.1614 O   0  5  0  0  0  0  0  0  0  0  0  0
   -5.3175   -0.1398    1.5114 O   0  0  0  0  0  0  0  0  0  0  0  0
    0.3233    3.1611   -1.2354 N   0  0  0  0  0  0  0  0  0  0  0  0
   -0.6566    1.2324   -2.1434 N   0  0  0  0  0  0  0  0  0  0  0  0
    0.3036   -1.6628   -0.9707 N   0  0  0  0  0  0  0  0  0  0  0  0
   -4.3861   -0.8157    2.0114 N   0  3  0  0  0  0  0  0  0  0  0  0
    1.0876    3.9880    0.9398 C   0  0  0  0  0  0  0  0  0  0  0  0
    2.4924    3.4169    0.7469 C   0  0  0  0  0  0  0  0  0  0  0  0
    0.4366    4.3231   -0.3967 C   0  0  0  0  0  0  0  0  0  0  0  0
    3.1305    3.0454    2.0852 C   0  0  0  0  0  0  0  0  0  0  0  0
   -1.9305   -0.6915   -0.7727 C   0  0  0  0  0  0  0  0  0  0  0  0
   -0.8820   -1.4393   -0.2367 C   0  0  0  0  0  0  0  0  0  0  0  0
   -3.0916   -0.4849   -0.0280 C   0  0  0  0  0  0  0  0  0  0  0  0
    4.5407    2.5081    1.8999 C   0  0  0  0  0  0  0  0  0  0  0  0
   -0.7801    2.3236   -1.2256 C   0  0  0  0  0  0  0  0  0  0  0  0
   -0.9948   -1.9804    1.0440 C   0  0  0  0  0  0  0  0  0  0  0  0
   -3.2043   -1.0260    1.2527 C   0  0  0  0  0  0  0  0  0  0  0  0
    1.6416   -1.8591   -0.5815 C   0  0  0  0  0  0  0  0  0  0  0  0
   -2.1559   -1.7738    1.7888 C   0  0  0  0  0  0  0  0  0  0  0  0
    2.4877   -2.6438   -1.3651 C   0  0  0  0  0  0  0  0  0  0  0  0
    2.1215   -1.2690    0.5877 C   0  0  0  0  0  0  0  0  0  0  0  0
    4.2941   -2.2480    0.1898 C   0  0  0  0  0  0  0  0  0  0  0  0
    3.8141   -2.8382   -0.9794 C   0  0  0  0  0  0  0  0  0  0  0  0
    3.4478   -1.4635    0.9733 C   0  0  0  0  0  0  0  0  0  0  0  0
    5.7122   -2.4559    0.6021 C   0  0  0  0  0  0  0  0  0  0  0  0
    0.4684    3.2619    1.4810 H   0  0  0  0  0  0  0  0  0  0  0  0
    1.1363    4.8948    1.5540 H   0  0  0  0  0  0  0  0  0  0  0  0
    2.4604    2.5210    0.1157 H   0  0  0  0  0  0  0  0  0  0  0  0
    3.1200    4.1537    0.2307 H   0  0  0  0  0  0  0  0  0  0  0  0
    1.0317    5.0640   -0.9407 H   0  0  0  0  0  0  0  0  0  0  0  0
   -0.5592    4.7469   -0.2281 H   0  0  0  0  0  0  0  0  0  0  0  0
    2.5202    2.2872    2.5898 H   0  0  0  0  0  0  0  0  0  0  0  0
    3.1642    3.9241    2.7397 H   0  0  0  0  0  0  0  0  0  0  0  0
    1.0892    2.9442   -1.8658 H   0  0  0  0  0  0  0  0  0  0  0  0
   -3.9046    0.1006   -0.4479 H   0  0  0  0  0  0  0  0  0  0  0  0
    0.2423    1.1203   -2.6293 H   0  0  0  0  0  0  0  0  0  0  0  0
    4.9728    2.2355    2.8678 H   0  0  0  0  0  0  0  0  0  0  0  0
    5.1887    3.2597    1.4380 H   0  0  0  0  0  0  0  0  0  0  0  0
    4.5418    1.6174    1.2640 H   0  0  0  0  0  0  0  0  0  0  0  0
    0.1577   -1.7483   -1.9719 H   0  0  0  0  0  0  0  0  0  0  0  0
   -0.2062   -2.5880    1.4793 H   0  0  0  0  0  0  0  0  0  0  0  0
   -2.2109   -2.2149    2.7807 H   0  0  0  0  0  0  0  0  0  0  0  0
    2.1254   -3.1092   -2.2781 H   0  0  0  0  0  0  0  0  0  0  0  0
    1.4931   -0.6315    1.2037 H   0  0  0  0  0  0  0  0  0  0  0  0
    4.4640   -3.4502   -1.5991 H   0  0  0  0  0  0  0  0  0  0  0  0
    3.8122   -0.9923    1.8824 H   0  0  0  0  0  0  0  0  0  0  0  0
    6.3449   -1.6686    0.1805 H   0  0  0  0  0  0  0  0  0  0  0  0
    5.8123   -2.4405    1.6927 H   0  0  0  0  0  0  0  0  0  0  0  0
    6.0855   -3.4271    0.2600 H   0  0  0  0  0  0  0  0  0  0  0  0
  1  2  2  0  0  0  0
  1  3  2  0  0  0  0
  1  8  1  0  0  0  0
  1 15  1  0  0  0  0
  4 19  2  0  0  0  0
  5 10  1  0  0  0  0
  6 10  2  0  0  0  0
  7 13  1  0  0  0  0
  7 19  1  0  0  0  0
  7 38  1  0  0  0  0
  8 19  1  0  0  0  0
  8 40  1  0  0  0  0
  9 16  1  0  0  0  0
  9 22  1  0  0  0  0
  9 44  1  0  0  0  0
 10 21  1  0  0  0  0
 11 12  1  0  0  0  0
 11 13  1  0  0  0  0
 11 30  1  0  0  0  0
 11 31  1  0  0  0  0
 12 14  1  0  0  0  0
 12 32  1  0  0  0  0
 12 33  1  0  0  0  0
 13 34  1  0  0  0  0
 13 35  1  0  0  0  0
 14 18  1  0  0  0  0
 14 36  1  0  0  0  0
 14 37  1  0  0  0  0
 15 16  2  0  0  0  0
 15 17  1  0  0  0  0
 16 20  1  0  0  0  0
 17 21  2  0  0  0  0
 17 39  1  0  0  0  0
 18 41  1  0  0  0  0
 18 42  1  0  0  0  0
 18 43  1  0  0  0  0
 20 23  2  0  0  0  0
 20 45  1  0  0  0  0
 21 23  1  0  0  0  0
 22 24  2  0  0  0  0
 22 25  1  0  0  0  0
 23 46  1  0  0  0  0
 24 27  1  0  0  0  0
 24 47  1  0  0  0  0
 25 28  2  0  0  0  0
 25 48  1  0  0  0  0
 26 27  2  0  0  0  0
 26 28  1  0  0  0  0
 26 29  1  0  0  0  0
 27 49  1  0  0  0  0
 28 50  1  0  0  0  0
 29 51  1  0  0  0  0
 29 52  1  0  0  0  0
 29 53  1  0  0  0  0
M  CHG  2   5  -1  10   1
M  END
> <PUBCHEM_COMPOUND_CID>
11676121

> <PUBCHEM_CONFORMER_RMSD>
1

> <PUBCHEM_CONFORMER_DIVERSEORDER>
1
130
90
214
53
208
69
39
120
112
129
36
173
111
166
121
89
33
118
181
141
107
152
42
98
110
66
122
72
59
41
189
109
144
43
106
201
96
135
100
132
199
55
206
126
151
68
204
133
145
191
125
82
57
44
52
184
65
183
148
124
200
207
64
93
197
123
102
47
76
104
58
134
77
163
86
115
87
167
75
114
91
97
80
188
51
85
15
23
2
192
137
185
170
71
8
35
161
13
158
73
136
213
128
196
127
117
164
179
9
18
26
153
182
16
105
211
140
131
63
108
29
171
149
78
50
24
195
83
34
139
3
159
99
14
70
46
198
190
154
143
119
19
172
165
79
94
74
113
11
194
157
101
40
187
205
209
169
49
146
176
156
212
67
147
5
92
37
32
54
186
180
22
155
21
116
103
174
95
28
6
84
7
138
17
4
38
88
20
81
25
61
142
193
48
175
62
56
202
30
162
60
203
210
10
45
177
27
178
12
168
160
31
150

> <PUBCHEM_MMFF94_PARTIAL_CHARGES>
35
1 1.45
10 0.91
13 0.3
15 -0.01
16 0.1
17 -0.15
19 0.87
2 -0.65
20 -0.15
21 0.13
22 0.1
23 -0.15
24 -0.15
25 -0.15
26 -0.14
27 -0.15
28 -0.15
29 0.14
3 -0.65
38 0.37
39 0.15
4 -0.57
40 0.42
44 0.4
45 0.15
46 0.15
47 0.15
48 0.15
49 0.15
5 -0.52
50 0.15
6 -0.52
7 -0.73
8 -0.79
9 -0.6

> <PUBCHEM_EFFECTIVE_ROTOR_COUNT>
11

> <PUBCHEM_PHARMACOPHORE_FEATURES>
13
1 18 hydrophobe
1 2 acceptor
1 3 acceptor
1 4 acceptor
1 5 acceptor
1 5 anion
1 6 acceptor
1 7 donor
1 8 donor
1 9 cation
1 9 donor
6 15 16 17 20 21 23 rings
6 22 24 25 26 27 28 rings

> <PUBCHEM_HEAVY_ATOM_COUNT>
29

> <PUBCHEM_ATOM_DEF_STEREO_COUNT>
0

> <PUBCHEM_ATOM_UDEF_STEREO_COUNT>
0

> <PUBCHEM_BOND_DEF_STEREO_COUNT>
0

> <PUBCHEM_BOND_UDEF_STEREO_COUNT>
0

> <PUBCHEM_ISOTOPIC_ATOM_COUNT>
0

> <PUBCHEM_COMPONENT_COUNT>
1

> <PUBCHEM_CACTVS_TAUTO_COUNT>
3

> <PUBCHEM_CONFORMER_ID>
00B229D900000001

> <PUBCHEM_MMFF94_ENERGY>
58.7986

> <PUBCHEM_FEATURE_SELFOVERLAP>
66.112

> <PUBCHEM_SHAPE_FINGERPRINT>
107951 10 16304798146394007533
12156800 1 17196619569714394160
12422481 6 18337659927849517176
12633257 1 17534619610090019841
12788726 201 17831843673371200764
14114211 80 17834405888606330880
14363568 33 18339081601064209520
17980427 23 17701558212065593153
19319366 153 16749297376920935464
19930381 70 17909792691724702780
20764821 26 17979332477666938740
21792965 20 17024004086769165187
23419403 2 18259981591831320973
35225 105 17039837908680569968
4112364 45 17703529735229988129
469060 322 18058432232393827431
5171179 24 18335412496344222749
7288768 16 17399234145102100732

> <PUBCHEM_SHAPE_MULTIPOLES>
551.39
8.89
5.43
2.8
2.79
7.09
-0.3
-5.09
5.86
6.53
0.41
-3.36
-0.21
3.27

> <PUBCHEM_SHAPE_SELFOVERLAP>
1133.082

> <PUBCHEM_SHAPE_VOLUME>
317

> <PUBCHEM_COORDINATE_TYPE>
2
5
10

$$$$
