11676971
  -OEChem-03292013303D

 66 69  0     0  0  0  0  0  0999 V2000
    7.0658   -0.1590    1.4534 O   0  0  0  0  0  0  0  0  0  0  0  0
   -3.9432   -2.5068   -0.1089 O   0  0  0  0  0  0  0  0  0  0  0  0
    5.4352   -1.2683    0.2254 N   0  0  0  0  0  0  0  0  0  0  0  0
    8.3436    0.8290   -0.5001 N   0  0  0  0  0  0  0  0  0  0  0  0
   -2.9291   -0.4140    0.0262 N   0  0  0  0  0  0  0  0  0  0  0  0
   -6.5545   -1.2538   -0.1696 N   0  0  0  0  0  0  0  0  0  0  0  0
   -5.4858    0.6904   -0.0702 N   0  0  0  0  0  0  0  0  0  0  0  0
  -10.0614   -0.7230   -0.3197 N   0  0  0  0  0  0  0  0  0  0  0  0
    2.5947   -1.8376    0.1138 C   0  0  0  0  0  0  0  0  0  0  0  0
    3.2862   -1.4093    1.4219 C   0  0  0  0  0  0  0  0  0  0  0  0
    3.3586   -1.2809   -1.1029 C   0  0  0  0  0  0  0  0  0  0  0  0
    4.7633   -1.7991    1.4130 C   0  0  0  0  0  0  0  0  0  0  0  0
    4.8351   -1.6729   -1.0517 C   0  0  0  0  0  0  0  0  0  0  0  0
    1.1282   -1.4504    0.0912 C   0  0  0  0  0  0  0  0  0  0  0  0
    0.7602   -0.1062    0.1487 C   0  0  0  0  0  0  0  0  0  0  0  0
   -0.5884    0.2493    0.1275 C   0  0  0  0  0  0  0  0  0  0  0  0
    6.5674   -0.4671    0.3677 C   0  0  0  0  0  0  0  0  0  0  0  0
    0.1475   -2.4392    0.0125 C   0  0  0  0  0  0  0  0  0  0  0  0
   -0.9409    1.6888    0.1891 C   0  0  0  0  0  0  0  0  0  0  0  0
   -1.0588    2.4387   -1.1190 C   0  0  0  0  0  0  0  0  0  0  0  0
   -1.5691   -0.7396    0.0488 C   0  0  0  0  0  0  0  0  0  0  0  0
   -1.8109    3.7662   -0.9885 C   0  0  0  0  0  0  0  0  0  0  0  0
   -1.3092    4.5566    0.2134 C   0  0  0  0  0  0  0  0  0  0  0  0
   -1.2011   -2.0839   -0.0087 C   0  0  0  0  0  0  0  0  0  0  0  0
   -1.4847    3.7610    1.5059 C   0  0  0  0  0  0  0  0  0  0  0  0
    7.1989    0.0419   -0.9034 C   0  0  0  0  0  0  0  0  0  0  0  0
   -1.1392    2.3059    1.3698 C   0  0  0  0  0  0  0  0  0  0  0  0
    7.9346    2.1718   -0.0697 C   0  0  0  0  0  0  0  0  0  0  0  0
    9.3226    0.9320   -1.5892 C   0  0  0  0  0  0  0  0  0  0  0  0
   -4.0341   -1.2824   -0.0495 C   0  0  0  0  0  0  0  0  0  0  0  0
   -5.3471   -0.6165   -0.0966 C   0  0  0  0  0  0  0  0  0  0  0  0
   -7.5248   -0.2920   -0.1908 C   0  0  0  0  0  0  0  0  0  0  0  0
   -6.8409    0.8994   -0.1282 C   0  0  0  0  0  0  0  0  0  0  0  0
   -8.9188   -0.5289   -0.2616 C   0  0  0  0  0  0  0  0  0  0  0  0
    2.6584   -2.9342    0.0598 H   0  0  0  0  0  0  0  0  0  0  0  0
    2.7894   -1.8727    2.2829 H   0  0  0  0  0  0  0  0  0  0  0  0
    3.2113   -0.3231    1.5592 H   0  0  0  0  0  0  0  0  0  0  0  0
    2.9123   -1.6539   -2.0327 H   0  0  0  0  0  0  0  0  0  0  0  0
    3.2883   -0.1862   -1.1339 H   0  0  0  0  0  0  0  0  0  0  0  0
    4.8732   -2.8898    1.3928 H   0  0  0  0  0  0  0  0  0  0  0  0
    5.2449   -1.4391    2.3277 H   0  0  0  0  0  0  0  0  0  0  0  0
    5.3537   -1.2388   -1.9078 H   0  0  0  0  0  0  0  0  0  0  0  0
    4.9430   -2.7614   -1.1290 H   0  0  0  0  0  0  0  0  0  0  0  0
    1.5205    0.6692    0.2091 H   0  0  0  0  0  0  0  0  0  0  0  0
    0.4196   -3.4905   -0.0329 H   0  0  0  0  0  0  0  0  0  0  0  0
   -1.5767    1.8222   -1.8639 H   0  0  0  0  0  0  0  0  0  0  0  0
   -0.0495    2.6283   -1.5060 H   0  0  0  0  0  0  0  0  0  0  0  0
   -1.6827    4.3532   -1.9048 H   0  0  0  0  0  0  0  0  0  0  0  0
   -2.8858    3.5733   -0.8792 H   0  0  0  0  0  0  0  0  0  0  0  0
   -0.2479    4.7979    0.0721 H   0  0  0  0  0  0  0  0  0  0  0  0
   -1.8440    5.5099    0.2900 H   0  0  0  0  0  0  0  0  0  0  0  0
   -1.8830   -2.9178   -0.0708 H   0  0  0  0  0  0  0  0  0  0  0  0
   -0.8633    4.2102    2.2890 H   0  0  0  0  0  0  0  0  0  0  0  0
   -2.5257    3.8337    1.8432 H   0  0  0  0  0  0  0  0  0  0  0  0
    6.4817    0.6174   -1.4990 H   0  0  0  0  0  0  0  0  0  0  0  0
    7.5173   -0.8384   -1.4751 H   0  0  0  0  0  0  0  0  0  0  0  0
   -1.0606    1.7418    2.2965 H   0  0  0  0  0  0  0  0  0  0  0  0
   -3.1505    0.5780    0.0625 H   0  0  0  0  0  0  0  0  0  0  0  0
    8.8044    2.7286    0.2974 H   0  0  0  0  0  0  0  0  0  0  0  0
    7.4891    2.7447   -0.8919 H   0  0  0  0  0  0  0  0  0  0  0  0
    7.2137    2.1555    0.7534 H   0  0  0  0  0  0  0  0  0  0  0  0
    8.8989    1.4113   -2.4791 H   0  0  0  0  0  0  0  0  0  0  0  0
   10.1973    1.5081   -1.2672 H   0  0  0  0  0  0  0  0  0  0  0  0
    9.6893   -0.0613   -1.8715 H   0  0  0  0  0  0  0  0  0  0  0  0
   -6.7003   -2.2544   -0.2014 H   0  0  0  0  0  0  0  0  0  0  0  0
   -7.2503    1.8998   -0.1219 H   0  0  0  0  0  0  0  0  0  0  0  0
  1 17  2  0  0  0  0
  2 30  2  0  0  0  0
  3 12  1  0  0  0  0
  3 13  1  0  0  0  0
  3 17  1  0  0  0  0
  4 26  1  0  0  0  0
  4 28  1  0  0  0  0
  4 29  1  0  0  0  0
  5 21  1  0  0  0  0
  5 30  1  0  0  0  0
  5 58  1  0  0  0  0
  6 31  1  0  0  0  0
  6 32  1  0  0  0  0
  6 65  1  0  0  0  0
  7 31  2  0  0  0  0
  7 33  1  0  0  0  0
  8 34  3  0  0  0  0
  9 10  1  0  0  0  0
  9 11  1  0  0  0  0
  9 14  1  0  0  0  0
  9 35  1  0  0  0  0
 10 12  1  0  0  0  0
 10 36  1  0  0  0  0
 10 37  1  0  0  0  0
 11 13  1  0  0  0  0
 11 38  1  0  0  0  0
 11 39  1  0  0  0  0
 12 40  1  0  0  0  0
 12 41  1  0  0  0  0
 13 42  1  0  0  0  0
 13 43  1  0  0  0  0
 14 15  2  0  0  0  0
 14 18  1  0  0  0  0
 15 16  1  0  0  0  0
 15 44  1  0  0  0  0
 16 19  1  0  0  0  0
 16 21  2  0  0  0  0
 17 26  1  0  0  0  0
 18 24  2  0  0  0  0
 18 45  1  0  0  0  0
 19 20  1  0  0  0  0
 19 27  2  0  0  0  0
 20 22  1  0  0  0  0
 20 46  1  0  0  0  0
 20 47  1  0  0  0  0
 21 24  1  0  0  0  0
 22 23  1  0  0  0  0
 22 48  1  0  0  0  0
 22 49  1  0  0  0  0
 23 25  1  0  0  0  0
 23 50  1  0  0  0  0
 23 51  1  0  0  0  0
 24 52  1  0  0  0  0
 25 27  1  0  0  0  0
 25 53  1  0  0  0  0
 25 54  1  0  0  0  0
 26 55  1  0  0  0  0
 26 56  1  0  0  0  0
 27 57  1  0  0  0  0
 28 59  1  0  0  0  0
 28 60  1  0  0  0  0
 28 61  1  0  0  0  0
 29 62  1  0  0  0  0
 29 63  1  0  0  0  0
 29 64  1  0  0  0  0
 30 31  1  0  0  0  0
 32 33  2  0  0  0  0
 32 34  1  0  0  0  0
 33 66  1  0  0  0  0
M  END
> <PUBCHEM_COMPOUND_CID>
11676971

> <PUBCHEM_CONFORMER_RMSD>
1

> <PUBCHEM_CONFORMER_DIVERSEORDER>
1
47
24
40
38
39
53
54
32
12
19
37
14
41
21
4
51
27
49
15
30
45
26
52
56
36
16
31
33
7
42
46
29
23
34
55
35
22
43
48
57
9
8
25
44
18
6
2
13
28
17
50
11
3
10
5
20

> <PUBCHEM_MMFF94_PARTIAL_CHARGES>
37
1 -0.57
12 0.3
13 0.3
14 -0.14
15 -0.15
16 0.03
17 0.57
18 -0.15
19 -0.17
2 -0.57
20 0.14
21 0.12
24 -0.15
25 0.14
26 0.33
27 -0.29
28 0.27
29 0.27
3 -0.66
30 0.71
31 0.1
32 -0.13
33 0.08
34 0.54
4 -0.81
44 0.15
45 0.15
5 -0.55
52 0.15
57 0.15
58 0.37
6 0.03
65 0.27
66 0.15
7 -0.57
8 -0.56
9 0.14

> <PUBCHEM_EFFECTIVE_ROTOR_COUNT>
10

> <PUBCHEM_PHARMACOPHORE_FEATURES>
11
1 1 acceptor
1 2 acceptor
1 4 cation
1 5 donor
1 6 donor
1 8 acceptor
3 6 7 31 cation
5 6 7 31 32 33 rings
6 14 15 16 18 21 24 rings
6 19 20 22 23 25 27 rings
6 3 9 10 11 12 13 rings

> <PUBCHEM_HEAVY_ATOM_COUNT>
34

> <PUBCHEM_ATOM_DEF_STEREO_COUNT>
0

> <PUBCHEM_ATOM_UDEF_STEREO_COUNT>
0

> <PUBCHEM_BOND_DEF_STEREO_COUNT>
0

> <PUBCHEM_BOND_UDEF_STEREO_COUNT>
0

> <PUBCHEM_ISOTOPIC_ATOM_COUNT>
0

> <PUBCHEM_COMPONENT_COUNT>
1

> <PUBCHEM_CACTVS_TAUTO_COUNT>
7

> <PUBCHEM_CONFORMER_ID>
00B22D2B00000001

> <PUBCHEM_MMFF94_ENERGY>
75.1909

> <PUBCHEM_FEATURE_SELFOVERLAP>
55.822

> <PUBCHEM_SHAPE_FINGERPRINT>
10050765 1 17978791207785332738
10076449 9 18343584040823394225
102385 1 17620193131845166479
10940486 97 18058158604823624079
12516196 113 18342454816875731875
12788726 201 18262233292824043275
13383665 225 18270137729329537444
13617811 41 18411422804228831142
14028597 1 17750225920688598699
14118638 360 18335143047529161026
1454969 45 18412263930476444930
15131766 46 14905893960740489442
15276724 80 18340768152383396268
15840311 113 17967817159313566694
15849732 13 17846775205455918671
15980000 95 18411700985320138169
16087824 20 18411981318256703221
17899979 19 18334298686048086157
18608769 82 18343293752383693416
18681886 176 18272078427925618443
20238998 120 18342736321690782985
21049683 271 18408884049445663789
24771293 8 18272657822891428585
283562 15 18265897965079316363
335352 9 18412541033931134239
350125 39 18411698768863045968
3552219 110 18202289082629521905
469060 322 18264778653610354753
5219985 9 18411132533544271725
550186 72 18337955567475985976
6523845 18 16343703214992849550
9961470 85 17901112133861548196
9962374 69 18341323505895938295

> <PUBCHEM_SHAPE_MULTIPOLES>
658.08
26.39
3.93
1.17
2.82
5.22
0.16
-2.5
-6.21
-1.28
0.41
1.74
0.37
-1.19

> <PUBCHEM_SHAPE_SELFOVERLAP>
1397.596

> <PUBCHEM_SHAPE_VOLUME>
361

> <PUBCHEM_COORDINATE_TYPE>
2
5
10

$$$$
