11677589
  -OEChem-03292013303D

 64 67  0     0  0  0  0  0  0999 V2000
   -5.4629   -0.0420    1.0027 S   0  0  0  0  0  0  0  0  0  0  0  0
   -5.9115   -0.3140    2.3547 O   0  0  0  0  0  0  0  0  0  0  0  0
   -6.4237    0.1974   -0.0567 O   0  0  0  0  0  0  0  0  0  0  0  0
   -4.3677    1.8168   -1.2316 O   0  0  0  0  0  0  0  0  0  0  0  0
    2.6585   -0.0222   -0.1486 N   0  0  0  0  0  0  0  0  0  0  0  0
    3.4261   -2.1068   -0.2353 N   0  0  0  0  0  0  0  0  0  0  0  0
    6.6354   -0.4759    0.6386 N   0  0  0  0  0  0  0  0  0  0  0  0
   -2.9795    2.9720    0.2128 N   0  0  0  0  0  0  0  0  0  0  0  0
   -4.3239    1.2325    1.0295 N   0  0  0  0  0  0  0  0  0  0  0  0
    3.9949    0.0665    0.1444 C   0  0  0  0  0  0  0  0  0  0  0  0
    2.3667   -1.3401   -0.3676 C   0  0  0  0  0  0  0  0  0  0  0  0
    4.4504   -1.2466    0.0841 C   0  0  0  0  0  0  0  0  0  0  0  0
    1.7586    1.0428   -0.2114 C   0  0  0  0  0  0  0  0  0  0  0  0
    1.0066   -1.8091   -0.7113 C   0  0  0  0  0  0  0  0  0  0  0  0
    4.8190    1.1417    0.4469 C   0  0  0  0  0  0  0  0  0  0  0  0
    5.7985   -1.5003    0.3392 C   0  0  0  0  0  0  0  0  0  0  0  0
   -0.0308    3.1624   -0.3362 C   0  0  0  0  0  0  0  0  0  0  0  0
    1.0692    1.4248    0.9316 C   0  0  0  0  0  0  0  0  0  0  0  0
    1.5658    1.7057   -1.4160 C   0  0  0  0  0  0  0  0  0  0  0  0
   -0.9916    4.3010   -0.4034 C   0  0  0  0  0  0  0  0  0  0  0  0
    6.1390    0.7854    0.6837 C   0  0  0  0  0  0  0  0  0  0  0  0
    0.1702    2.4896    0.8689 C   0  0  0  0  0  0  0  0  0  0  0  0
    0.6670    2.7705   -1.4788 C   0  0  0  0  0  0  0  0  0  0  0  0
   -2.4222    3.8761   -0.7572 C   0  0  0  0  0  0  0  0  0  0  0  0
    0.7544   -1.8319   -2.2223 C   0  0  0  0  0  0  0  0  0  0  0  0
    6.3927   -2.8666    0.3020 C   0  0  0  0  0  0  0  0  0  0  0  0
    7.1191    1.8622    1.0196 C   0  0  0  0  0  0  0  0  0  0  0  0
   -3.9176    2.0043   -0.1051 C   0  0  0  0  0  0  0  0  0  0  0  0
   -4.4487   -1.3910    0.4777 C   0  0  0  0  0  0  0  0  0  0  0  0
   -3.8029   -2.1617    1.4291 C   0  0  0  0  0  0  0  0  0  0  0  0
   -4.3192   -1.6523   -0.8754 C   0  0  0  0  0  0  0  0  0  0  0  0
   -2.8610   -3.5042   -0.3450 C   0  0  0  0  0  0  0  0  0  0  0  0
   -3.0028   -3.2266    1.0145 C   0  0  0  0  0  0  0  0  0  0  0  0
   -3.5192   -2.7171   -1.2899 C   0  0  0  0  0  0  0  0  0  0  0  0
   -2.0068   -4.6433   -0.7884 C   0  0  0  0  0  0  0  0  0  0  0  0
    0.8829   -2.8296   -0.3277 H   0  0  0  0  0  0  0  0  0  0  0  0
    0.2306   -1.2125   -0.2200 H   0  0  0  0  0  0  0  0  0  0  0  0
    4.4632    2.1627    0.4934 H   0  0  0  0  0  0  0  0  0  0  0  0
    1.2174    0.9090    1.8768 H   0  0  0  0  0  0  0  0  0  0  0  0
    2.1053    1.4124   -2.3128 H   0  0  0  0  0  0  0  0  0  0  0  0
   -0.6441    5.0352   -1.1415 H   0  0  0  0  0  0  0  0  0  0  0  0
   -0.9941    4.8324    0.5578 H   0  0  0  0  0  0  0  0  0  0  0  0
   -0.3628    2.7856    1.7684 H   0  0  0  0  0  0  0  0  0  0  0  0
    0.5181    3.2857   -2.4240 H   0  0  0  0  0  0  0  0  0  0  0  0
   -3.0724    4.7570   -0.7882 H   0  0  0  0  0  0  0  0  0  0  0  0
   -2.4501    3.4084   -1.7480 H   0  0  0  0  0  0  0  0  0  0  0  0
    1.4821   -2.4738   -2.7304 H   0  0  0  0  0  0  0  0  0  0  0  0
   -0.2471   -2.2209   -2.4306 H   0  0  0  0  0  0  0  0  0  0  0  0
    0.8263   -0.8321   -2.6592 H   0  0  0  0  0  0  0  0  0  0  0  0
    6.2660   -3.3059   -0.6924 H   0  0  0  0  0  0  0  0  0  0  0  0
    5.9022   -3.5112    1.0379 H   0  0  0  0  0  0  0  0  0  0  0  0
    7.4629   -2.8398    0.5302 H   0  0  0  0  0  0  0  0  0  0  0  0
    6.8166    2.3799    1.9355 H   0  0  0  0  0  0  0  0  0  0  0  0
    8.1197    1.4477    1.1813 H   0  0  0  0  0  0  0  0  0  0  0  0
    7.1827    2.5876    0.2021 H   0  0  0  0  0  0  0  0  0  0  0  0
   -2.7341    3.0966    1.1902 H   0  0  0  0  0  0  0  0  0  0  0  0
   -3.9291    1.4846    1.9443 H   0  0  0  0  0  0  0  0  0  0  0  0
   -3.8960   -1.9565    2.4911 H   0  0  0  0  0  0  0  0  0  0  0  0
   -4.8183   -1.0498   -1.6278 H   0  0  0  0  0  0  0  0  0  0  0  0
   -2.4946   -3.8328    1.7596 H   0  0  0  0  0  0  0  0  0  0  0  0
   -3.4168   -2.9231   -2.3521 H   0  0  0  0  0  0  0  0  0  0  0  0
   -2.5830   -5.5737   -0.7721 H   0  0  0  0  0  0  0  0  0  0  0  0
   -1.1348   -4.7563   -0.1351 H   0  0  0  0  0  0  0  0  0  0  0  0
   -1.6275   -4.4859   -1.8037 H   0  0  0  0  0  0  0  0  0  0  0  0
  1  2  2  0  0  0  0
  1  3  2  0  0  0  0
  1  9  1  0  0  0  0
  1 29  1  0  0  0  0
  4 28  2  0  0  0  0
  5 10  1  0  0  0  0
  5 11  1  0  0  0  0
  5 13  1  0  0  0  0
  6 11  2  0  0  0  0
  6 12  1  0  0  0  0
  7 16  2  0  0  0  0
  7 21  1  0  0  0  0
  8 24  1  0  0  0  0
  8 28  1  0  0  0  0
  8 56  1  0  0  0  0
  9 28  1  0  0  0  0
  9 57  1  0  0  0  0
 10 12  2  0  0  0  0
 10 15  1  0  0  0  0
 11 14  1  0  0  0  0
 12 16  1  0  0  0  0
 13 18  2  0  0  0  0
 13 19  1  0  0  0  0
 14 25  1  0  0  0  0
 14 36  1  0  0  0  0
 14 37  1  0  0  0  0
 15 21  2  0  0  0  0
 15 38  1  0  0  0  0
 16 26  1  0  0  0  0
 17 20  1  0  0  0  0
 17 22  2  0  0  0  0
 17 23  1  0  0  0  0
 18 22  1  0  0  0  0
 18 39  1  0  0  0  0
 19 23  2  0  0  0  0
 19 40  1  0  0  0  0
 20 24  1  0  0  0  0
 20 41  1  0  0  0  0
 20 42  1  0  0  0  0
 21 27  1  0  0  0  0
 22 43  1  0  0  0  0
 23 44  1  0  0  0  0
 24 45  1  0  0  0  0
 24 46  1  0  0  0  0
 25 47  1  0  0  0  0
 25 48  1  0  0  0  0
 25 49  1  0  0  0  0
 26 50  1  0  0  0  0
 26 51  1  0  0  0  0
 26 52  1  0  0  0  0
 27 53  1  0  0  0  0
 27 54  1  0  0  0  0
 27 55  1  0  0  0  0
 29 30  2  0  0  0  0
 29 31  1  0  0  0  0
 30 33  1  0  0  0  0
 30 58  1  0  0  0  0
 31 34  2  0  0  0  0
 31 59  1  0  0  0  0
 32 33  2  0  0  0  0
 32 34  1  0  0  0  0
 32 35  1  0  0  0  0
 33 60  1  0  0  0  0
 34 61  1  0  0  0  0
 35 62  1  0  0  0  0
 35 63  1  0  0  0  0
 35 64  1  0  0  0  0
M  END
> <PUBCHEM_COMPOUND_CID>
11677589

> <PUBCHEM_CONFORMER_RMSD>
1

> <PUBCHEM_CONFORMER_DIVERSEORDER>
1
159
190
80
41
275
326
147
227
3
209
246
23
26
296
226
130
61
137
238
19
291
276
66
241
95
157
224
277
13
314
283
204
120
37
143
116
189
90
56
6
123
170
192
63
125
68
279
155
45
208
94
287
78
303
212
148
12
91
86
151
146
69
139
103
92
290
140
28
232
109
17
273
153
11
304
229
258
10
121
265
308
141
260
51
182
24
255
244
262
282
207
206
295
172
48
199
307
127
200
49
98
27
193
228
222
119
317
285
243
40
176
167
256
188
44
30
115
132
173
5
25
31
22
59
177
126
194
230
15
288
248
318
9
286
220
247
20
284
72
104
57
77
128
249
292
87
169
52
301
154
235
71
297
312
161
179
323
280
203
122
142
14
53
32
62
133
254
271
118
43
219
145
106
165
112
163
324
289
210
180
113
136
21
191
168
325
225
42
88
89
320
183
309
268
294
198
152
82
108
36
266
322
272
166
97
149
7
187
300
65
231
293
131
267
321
237
110
299
252
216
240
274
76
313
218
158
302
257
84
39
8
162
242
164
259
201
213
50
281
135
185
160
16
171
184
129
195
196
60
221
239
33
117
175
214
54
315
211
79
197
264
253
310
101
75
85
46
215
102
38
236
2
186
174
111
298
34
74
202
319
250
234
245
217
205
100
278
93
251
261
99
107
150
316
156
306
58
311
124
134
73
223
70
47
55
64
233
29
105
269
4
81
263
138
270
178
67
35
114
181
305
144
83
96
18

> <PUBCHEM_MMFF94_PARTIAL_CHARGES>
45
1 1.45
10 -0.15
11 0.01
12 0.23
13 -0.02
14 0.18
15 -0.15
16 0.17
17 -0.14
18 -0.15
19 -0.15
2 -0.65
20 0.14
21 0.17
22 -0.15
23 -0.15
24 0.3
26 0.14
27 0.14
28 0.87
29 -0.01
3 -0.65
30 -0.15
31 -0.15
32 -0.14
33 -0.15
34 -0.15
35 0.14
38 0.15
39 0.15
4 -0.57
40 0.15
43 0.15
44 0.15
5 0.33
56 0.37
57 0.42
58 0.15
59 0.15
6 -0.57
60 0.15
61 0.15
7 -0.62
8 -0.73
9 -0.79

> <PUBCHEM_EFFECTIVE_ROTOR_COUNT>
9

> <PUBCHEM_PHARMACOPHORE_FEATURES>
12
1 2 acceptor
1 25 hydrophobe
1 3 acceptor
1 4 acceptor
1 7 acceptor
1 8 donor
1 9 donor
3 5 6 11 cation
5 5 6 10 11 12 rings
6 13 17 18 19 22 23 rings
6 29 30 31 32 33 34 rings
6 7 10 12 15 16 21 rings

> <PUBCHEM_HEAVY_ATOM_COUNT>
35

> <PUBCHEM_ATOM_DEF_STEREO_COUNT>
0

> <PUBCHEM_ATOM_UDEF_STEREO_COUNT>
0

> <PUBCHEM_BOND_DEF_STEREO_COUNT>
0

> <PUBCHEM_BOND_UDEF_STEREO_COUNT>
0

> <PUBCHEM_ISOTOPIC_ATOM_COUNT>
0

> <PUBCHEM_COMPONENT_COUNT>
1

> <PUBCHEM_CACTVS_TAUTO_COUNT>
6

> <PUBCHEM_CONFORMER_ID>
00B22F9500000001

> <PUBCHEM_MMFF94_ENERGY>
75.1121

> <PUBCHEM_FEATURE_SELFOVERLAP>
61.072

> <PUBCHEM_SHAPE_FINGERPRINT>
10462674 296 17909258427457658414
10794284 68 18197227060524398556
11135609 12 18260552251119702225
11135609 99 18337670799055216606
11136131 41 17831003990813516312
11828532 37 17678474171825940739
12422481 6 18202282494429114910
13122387 1 17906459831758013863
13383665 225 18262249928155618196
13402501 40 18341051831242656573
13560911 43 18192702569786086339
14117953 113 18411421692412615373
14279260 333 17822008658331719218
14725015 67 18409166598401127257
15274700 208 16772373223491830992
15276724 80 18413102858339126510
15328829 1 17677355878084276182
16110190 28 18341056289097157881
16993438 75 18336818698337733325
17809404 112 15051193254378399271
18608769 82 18411978071229935016
19311894 1 18336825402529566123
19315092 285 16842186787074436591
19611394 137 18272647940404380536
20764821 26 18337964497118215079
21133410 90 17131265896124309291
229767 44 18412553093856052723
25223398 141 18189900816758095396
354706 109 18121756379649727688
4573279 73 18189622829300759892
463206 1 18337962302221245089
5080951 261 17750776780240684388
552612 73 18058155293677944184

> <PUBCHEM_SHAPE_MULTIPOLES>
681.62
16.21
5.67
1.45
12.41
0.45
-0.08
-4.9
6.61
-4.21
-1.43
-1.23
-0.19
0.45

> <PUBCHEM_SHAPE_SELFOVERLAP>
1458.159

> <PUBCHEM_SHAPE_VOLUME>
380

> <PUBCHEM_COORDINATE_TYPE>
2
5
10

$$$$
