11673949
  -OEChem-03292013303D

 29 31  0     0  0  0  0  0  0999 V2000
    3.5063    0.7087    0.0063 S   0  0  0  0  0  0  0  0  0  0  0  0
    3.9446    0.9056   -1.3634 O   0  0  0  0  0  0  0  0  0  0  0  0
    3.7416    1.7363    1.0047 O   0  0  0  0  0  0  0  0  0  0  0  0
    1.1323    2.5671   -0.0811 O   0  0  0  0  0  0  0  0  0  0  0  0
   -0.3306   -2.5659   -0.0105 O   0  0  0  0  0  0  0  0  0  0  0  0
   -4.6746   -1.6286    0.0319 O   0  0  0  0  0  0  0  0  0  0  0  0
   -5.6005    0.4473    0.0260 O   0  0  0  0  0  0  0  0  0  0  0  0
    2.3457   -2.0781   -0.0084 N   0  0  0  0  0  0  0  0  0  0  0  0
   -2.2680   -0.7528    0.0057 N   0  0  0  0  0  0  0  0  0  0  0  0
    4.2874   -0.7738    0.6123 C   0  0  0  0  0  0  0  0  0  0  0  0
    1.8087    0.2922   -0.0035 C   0  0  0  0  0  0  0  0  0  0  0  0
    3.7822   -1.9899   -0.1364 C   0  0  0  0  0  0  0  0  0  0  0  0
    1.4724   -1.0101   -0.0097 C   0  0  0  0  0  0  0  0  0  0  0  0
    0.8049    1.3876   -0.0366 C   0  0  0  0  0  0  0  0  0  0  0  0
    0.0268   -1.3924   -0.0098 C   0  0  0  0  0  0  0  0  0  0  0  0
   -0.6118    1.0043   -0.0206 C   0  0  0  0  0  0  0  0  0  0  0  0
   -0.9833   -0.3272   -0.0072 C   0  0  0  0  0  0  0  0  0  0  0  0
   -1.6199    1.9677   -0.0208 C   0  0  0  0  0  0  0  0  0  0  0  0
   -2.9513    1.5650   -0.0069 C   0  0  0  0  0  0  0  0  0  0  0  0
   -3.2203    0.2062    0.0059 C   0  0  0  0  0  0  0  0  0  0  0  0
   -4.5929   -0.2691    0.0221 C   0  0  0  0  0  0  0  0  0  0  0  0
    4.0658   -0.8452    1.6830 H   0  0  0  0  0  0  0  0  0  0  0  0
    5.3675   -0.6522    0.4877 H   0  0  0  0  0  0  0  0  0  0  0  0
    4.0465   -1.9296   -1.1981 H   0  0  0  0  0  0  0  0  0  0  0  0
    4.2426   -2.8974    0.2675 H   0  0  0  0  0  0  0  0  0  0  0  0
    1.9290   -3.0039   -0.0266 H   0  0  0  0  0  0  0  0  0  0  0  0
   -1.3885    3.0290   -0.0310 H   0  0  0  0  0  0  0  0  0  0  0  0
   -3.7407    2.3092   -0.0063 H   0  0  0  0  0  0  0  0  0  0  0  0
   -5.6055   -1.9379    0.0423 H   0  0  0  0  0  0  0  0  0  0  0  0
  1  2  2  0  0  0  0
  1  3  2  0  0  0  0
  1 10  1  0  0  0  0
  1 11  1  0  0  0  0
  4 14  2  0  0  0  0
  5 15  2  0  0  0  0
  6 21  1  0  0  0  0
  6 29  1  0  0  0  0
  7 21  2  0  0  0  0
  8 12  1  0  0  0  0
  8 13  1  0  0  0  0
  8 26  1  0  0  0  0
  9 17  1  0  0  0  0
  9 20  2  0  0  0  0
 10 12  1  0  0  0  0
 10 22  1  0  0  0  0
 10 23  1  0  0  0  0
 11 13  2  0  0  0  0
 11 14  1  0  0  0  0
 12 24  1  0  0  0  0
 12 25  1  0  0  0  0
 13 15  1  0  0  0  0
 14 16  1  0  0  0  0
 15 17  1  0  0  0  0
 16 17  2  0  0  0  0
 16 18  1  0  0  0  0
 18 19  2  0  0  0  0
 18 27  1  0  0  0  0
 19 20  1  0  0  0  0
 19 28  1  0  0  0  0
 20 21  1  0  0  0  0
M  END
> <PUBCHEM_COMPOUND_CID>
11673949

> <PUBCHEM_CONFORMER_RMSD>
0.6

> <PUBCHEM_CONFORMER_DIVERSEORDER>
1
2

> <PUBCHEM_MMFF94_PARTIAL_CHARGES>
24
1 1.21
10 0.11
12 0.37
13 0.11
14 0.47
15 0.47
16 0.09
17 0.4
18 -0.15
19 -0.15
2 -0.65
20 0.4
21 0.63
26 0.4
27 0.15
28 0.15
29 0.5
3 -0.65
4 -0.57
5 -0.57
6 -0.65
7 -0.57
8 -0.87
9 -0.62

> <PUBCHEM_EFFECTIVE_ROTOR_COUNT>
1.6

> <PUBCHEM_PHARMACOPHORE_FEATURES>
13
1 2 acceptor
1 3 acceptor
1 4 acceptor
1 5 acceptor
1 6 acceptor
1 7 acceptor
1 8 cation
1 8 donor
1 9 acceptor
3 6 7 21 anion
6 1 8 10 11 12 13 rings
6 11 13 14 15 16 17 rings
6 9 16 17 18 19 20 rings

> <PUBCHEM_HEAVY_ATOM_COUNT>
21

> <PUBCHEM_ATOM_DEF_STEREO_COUNT>
0

> <PUBCHEM_ATOM_UDEF_STEREO_COUNT>
0

> <PUBCHEM_BOND_DEF_STEREO_COUNT>
0

> <PUBCHEM_BOND_UDEF_STEREO_COUNT>
0

> <PUBCHEM_ISOTOPIC_ATOM_COUNT>
0

> <PUBCHEM_COMPONENT_COUNT>
1

> <PUBCHEM_CACTVS_TAUTO_COUNT>
3

> <PUBCHEM_CONFORMER_ID>
00B2215D00000001

> <PUBCHEM_MMFF94_ENERGY>
49.3252

> <PUBCHEM_FEATURE_SELFOVERLAP>
66.113

> <PUBCHEM_SHAPE_FINGERPRINT>
10967382 1 18410855490409314632
11471102 20 18410008832185742711
11680986 33 18335990868755148491
11806522 49 18409166619205992135
12011746 2 18410579491658273004
12403259 226 18338229350323855824
12403259 415 18409440363131358924
13140716 1 17978223086849049184
13862211 1 18410287008517228883
14787075 74 18334858354830817395
14790565 3 18339931415914540673
15196674 1 18410573955234548521
15536298 74 18342457023713117762
16945 1 18338236093332514972
17349148 13 18113898255902426154
19591789 44 18338797818983185378
200 152 18201712947595473453
20028762 73 18201711864779334727
20261772 1 18201718491918536143
20691752 17 17531537464217401720
21267235 1 18338805524312705006
221490 88 18335426811206592883
22182313 1 18262783082644338788
2334 1 18410293575637963716
23402539 116 18341322349251711495
23463225 33 18336264531629251220
23559900 14 18411979187187903544
2748010 2 18337670802548051476
2871803 45 18334290925358154231
335352 9 18410573963676829447
34934 24 18340202011670051030
350125 39 18337954493886200740
474 4 17386297596564552396
5104073 3 18411138000631478073
537710 114 18410296908506322132
69090 78 18342452655684171303
7364860 26 18341891913644646560
9709674 26 18408890637250210811

> <PUBCHEM_SHAPE_MULTIPOLES>
390.84
9.32
2.45
0.71
5.77
0.13
-0.05
1.17
0.26
-0.88
0.02
-0.52
-0.14
0.03

> <PUBCHEM_SHAPE_SELFOVERLAP>
857.163

> <PUBCHEM_SHAPE_VOLUME>
210.8

> <PUBCHEM_COORDINATE_TYPE>
2
5
10

$$$$
