11676764
  -OEChem-03292013303D

 55 58  0     1  0  0  0  0  0999 V2000
   -1.6540   -2.1441   -0.6436 O   0  0  0  0  0  0  0  0  0  0  0  0
   -3.6434   -2.0665    0.6315 O   0  0  0  0  0  0  0  0  0  0  0  0
    1.2221    0.6238    0.3873 O   0  0  0  0  0  0  0  0  0  0  0  0
   -0.4318    2.1054    0.8820 O   0  0  0  0  0  0  0  0  0  0  0  0
   -7.5105    1.6313   -1.9500 O   0  0  0  0  0  0  0  0  0  0  0  0
   -8.9339    0.7500    0.2689 O   0  0  0  0  0  0  0  0  0  0  0  0
    8.3676    1.9961    0.0669 O   0  0  0  0  0  0  0  0  0  0  0  0
    9.4887   -0.5474    0.0701 O   0  0  0  0  0  0  0  0  0  0  0  0
   -2.8922   -1.4160   -0.3933 C   0  0  1  0  0  0  0  0  0  0  0  0
   -2.5038   -0.0284    0.0926 C   0  0  0  0  0  0  0  0  0  0  0  0
   -1.0736   -0.0423    0.1116 C   0  0  0  0  0  0  0  0  0  0  0  0
   -0.6680   -1.2351   -0.3029 C   0  0  0  0  0  0  0  0  0  0  0  0
   -3.6916   -1.3889   -1.6966 C   0  0  0  0  0  0  0  0  0  0  0  0
   -3.3339    0.9665    0.4222 C   0  0  0  0  0  0  0  0  0  0  0  0
    0.7061   -1.5973   -0.4081 C   0  0  0  0  0  0  0  0  0  0  0  0
   -0.1014    0.9919    0.4938 C   0  0  0  0  0  0  0  0  0  0  0  0
   -4.8052    0.9109    0.3786 C   0  0  0  0  0  0  0  0  0  0  0  0
    1.6103   -0.6697   -0.0639 C   0  0  0  0  0  0  0  0  0  0  0  0
   -4.0356   -3.3710    0.2340 C   0  0  0  0  0  0  0  0  0  0  0  0
   -5.4655    1.3010   -0.7755 C   0  0  0  0  0  0  0  0  0  0  0  0
   -5.5012    0.4697    1.4927 C   0  0  0  0  0  0  0  0  0  0  0  0
    3.0291   -0.8743   -0.1108 C   0  0  0  0  0  0  0  0  0  0  0  0
   -6.8588    1.2483   -0.8167 C   0  0  0  0  0  0  0  0  0  0  0  0
   -6.8944    0.4171    1.4516 C   0  0  0  0  0  0  0  0  0  0  0  0
    3.9191    0.0731    0.2255 C   0  0  0  0  0  0  0  0  0  0  0  0
   -7.5731    0.8064    0.2968 C   0  0  0  0  0  0  0  0  0  0  0  0
    5.3831   -0.0864    0.1846 C   0  0  0  0  0  0  0  0  0  0  0  0
    6.1878    1.0408    0.1449 C   0  0  0  0  0  0  0  0  0  0  0  0
    5.9271   -1.3607    0.1864 C   0  0  0  0  0  0  0  0  0  0  0  0
    7.5738    0.8897    0.1061 C   0  0  0  0  0  0  0  0  0  0  0  0
    7.3131   -1.5119    0.1476 C   0  0  0  0  0  0  0  0  0  0  0  0
    8.1365   -0.3867    0.1075 C   0  0  0  0  0  0  0  0  0  0  0  0
    8.7075    2.5046   -1.2216 C   0  0  0  0  0  0  0  0  0  0  0  0
   -3.2957   -0.6387   -2.3914 H   0  0  0  0  0  0  0  0  0  0  0  0
   -3.6086   -2.3460   -2.2266 H   0  0  0  0  0  0  0  0  0  0  0  0
   -4.7573   -1.2035   -1.5423 H   0  0  0  0  0  0  0  0  0  0  0  0
   -2.9462    1.9245    0.7575 H   0  0  0  0  0  0  0  0  0  0  0  0
    0.9769   -2.5879   -0.7539 H   0  0  0  0  0  0  0  0  0  0  0  0
   -4.4217   -3.8814    1.1219 H   0  0  0  0  0  0  0  0  0  0  0  0
   -3.1985   -3.9640   -0.1463 H   0  0  0  0  0  0  0  0  0  0  0  0
   -4.8517   -3.3404   -0.4934 H   0  0  0  0  0  0  0  0  0  0  0  0
   -4.9075    1.6478   -1.6421 H   0  0  0  0  0  0  0  0  0  0  0  0
   -4.9838    0.1643    2.3984 H   0  0  0  0  0  0  0  0  0  0  0  0
    3.3484   -1.8502   -0.4644 H   0  0  0  0  0  0  0  0  0  0  0  0
   -7.4451    0.0718    2.3224 H   0  0  0  0  0  0  0  0  0  0  0  0
    3.5857    1.0557    0.5523 H   0  0  0  0  0  0  0  0  0  0  0  0
    5.7576    2.0394    0.1427 H   0  0  0  0  0  0  0  0  0  0  0  0
    5.3270   -2.2634    0.2397 H   0  0  0  0  0  0  0  0  0  0  0  0
    7.7391   -2.5118    0.1541 H   0  0  0  0  0  0  0  0  0  0  0  0
   -6.8558    1.9046   -2.6154 H   0  0  0  0  0  0  0  0  0  0  0  0
   -9.2348    1.0547   -0.6049 H   0  0  0  0  0  0  0  0  0  0  0  0
    9.6950   -1.4978    0.0762 H   0  0  0  0  0  0  0  0  0  0  0  0
    7.8066    2.8111   -1.7625 H   0  0  0  0  0  0  0  0  0  0  0  0
    9.2562    1.7545   -1.7999 H   0  0  0  0  0  0  0  0  0  0  0  0
    9.3489    3.3798   -1.0863 H   0  0  0  0  0  0  0  0  0  0  0  0
  1  9  1  0  0  0  0
  1 12  1  0  0  0  0
  2  9  1  0  0  0  0
  2 19  1  0  0  0  0
  3 16  1  0  0  0  0
  3 18  1  0  0  0  0
  4 16  2  0  0  0  0
  5 23  1  0  0  0  0
  5 50  1  0  0  0  0
  6 26  1  0  0  0  0
  6 51  1  0  0  0  0
  7 30  1  0  0  0  0
  7 33  1  0  0  0  0
  8 32  1  0  0  0  0
  8 52  1  0  0  0  0
  9 10  1  0  0  0  0
  9 13  1  0  0  0  0
 10 11  1  0  0  0  0
 10 14  2  0  0  0  0
 11 12  2  0  0  0  0
 11 16  1  0  0  0  0
 12 15  1  0  0  0  0
 13 34  1  0  0  0  0
 13 35  1  0  0  0  0
 13 36  1  0  0  0  0
 14 17  1  0  0  0  0
 14 37  1  0  0  0  0
 15 18  2  0  0  0  0
 15 38  1  0  0  0  0
 17 20  2  0  0  0  0
 17 21  1  0  0  0  0
 18 22  1  0  0  0  0
 19 39  1  0  0  0  0
 19 40  1  0  0  0  0
 19 41  1  0  0  0  0
 20 23  1  0  0  0  0
 20 42  1  0  0  0  0
 21 24  2  0  0  0  0
 21 43  1  0  0  0  0
 22 25  2  0  0  0  0
 22 44  1  0  0  0  0
 23 26  2  0  0  0  0
 24 26  1  0  0  0  0
 24 45  1  0  0  0  0
 25 27  1  0  0  0  0
 25 46  1  0  0  0  0
 27 28  2  0  0  0  0
 27 29  1  0  0  0  0
 28 30  1  0  0  0  0
 28 47  1  0  0  0  0
 29 31  2  0  0  0  0
 29 48  1  0  0  0  0
 30 32  2  0  0  0  0
 31 32  1  0  0  0  0
 31 49  1  0  0  0  0
 33 53  1  0  0  0  0
 33 54  1  0  0  0  0
 33 55  1  0  0  0  0
M  END
> <PUBCHEM_COMPOUND_CID>
11676764

> <PUBCHEM_CONFORMER_RMSD>
0.8

> <PUBCHEM_CONFORMER_DIVERSEORDER>
1
20
16
7
25
10
22
19
15
8
11
9
18
5
17
13
24
2
23
14
12
6
21
3
4

> <PUBCHEM_MMFF94_PARTIAL_CHARGES>
45
1 -0.36
10 -0.14
11 0.01
12 0.08
14 -0.18
15 -0.15
16 0.71
17 0.03
18 0.08
19 0.28
2 -0.56
20 -0.15
21 -0.15
22 -0.15
23 0.08
24 -0.15
25 -0.18
26 0.08
27 0.03
28 -0.15
29 -0.15
3 -0.23
30 0.08
31 -0.15
32 0.08
33 0.28
37 0.15
38 0.15
4 -0.57
42 0.15
43 0.15
44 0.15
45 0.15
46 0.15
47 0.15
48 0.15
49 0.15
5 -0.53
50 0.45
51 0.45
52 0.45
6 -0.53
7 -0.36
8 -0.53
9 0.7

> <PUBCHEM_EFFECTIVE_ROTOR_COUNT>
5.4

> <PUBCHEM_PHARMACOPHORE_FEATURES>
11
1 1 acceptor
1 2 acceptor
1 4 acceptor
1 5 donor
1 6 donor
1 7 acceptor
1 8 donor
5 1 9 10 11 12 rings
6 17 20 21 23 24 26 rings
6 27 28 29 30 31 32 rings
6 3 11 12 15 16 18 rings

> <PUBCHEM_HEAVY_ATOM_COUNT>
33

> <PUBCHEM_ATOM_DEF_STEREO_COUNT>
0

> <PUBCHEM_ATOM_UDEF_STEREO_COUNT>
1

> <PUBCHEM_BOND_DEF_STEREO_COUNT>
2

> <PUBCHEM_BOND_UDEF_STEREO_COUNT>
0

> <PUBCHEM_ISOTOPIC_ATOM_COUNT>
0

> <PUBCHEM_COMPONENT_COUNT>
1

> <PUBCHEM_CACTVS_TAUTO_COUNT>
23

> <PUBCHEM_CONFORMER_ID>
00B22C5C00000001

> <PUBCHEM_MMFF94_ENERGY>
119.2194

> <PUBCHEM_FEATURE_SELFOVERLAP>
55.961

> <PUBCHEM_SHAPE_FINGERPRINT>
10 15 18186803569242303571
10050765 1 18056753462679024865
11135926 11 18271522013920476111
11315181 36 17917992793699621747
11578821 258 18333453148764402884
12236239 1 18335420193194687550
12539745 222 18129673031891772475
12838862 33 18270384032143801696
14251764 18 17703789201960700121
14251764 46 18342458118840127129
15131766 46 16808444939570442356
15183329 4 18060134328217470928
15461852 350 17561079241680492799
1577012 14 18408884075362738574
15840311 113 18259990375509030708
15849732 13 18113621170466785797
16989713 51 17345185812677355303
195137 175 18342739637220301820
21150785 3 15410892950822496845
22224240 67 16008751307714981360
22311459 1 18202001006150595512
23559900 14 17988350576588393192
23576562 1 16915927655546272864
24771293 8 17989214707371953745
249057 3 18413388743888488804
335352 9 18273493485808916093
4073 2 18260270785054816226
4169191 19 18272654506823222235
437795 83 18198334071118243189
44802255 64 18041551465560333463
504579 68 13686300171295766062
6009941 240 18186524306395673611
6086070 43 17131546253628917923
6691757 9 17561090228539599471
9663363 56 8286196146580443137
9953998 17 16587746447500748769

> <PUBCHEM_SHAPE_MULTIPOLES>
632.17
29.88
2.39
1.09
35.84
0.86
0.22
-13.31
1.32
-0.11
0.36
-1.84
-0.24
-0.54

> <PUBCHEM_SHAPE_SELFOVERLAP>
1393.841

> <PUBCHEM_SHAPE_VOLUME>
340.5

> <PUBCHEM_COORDINATE_TYPE>
2
5
10

$$$$
