11675536
  -OEChem-03292013303D

 49 51  0     0  0  0  0  0  0999 V2000
   -3.4185   -0.6104    1.1652 O   0  0  0  0  0  0  0  0  0  0  0  0
    1.0633   -3.0351    1.7032 O   0  0  0  0  0  0  0  0  0  0  0  0
    3.9391   -0.9083   -2.0096 O   0  0  0  0  0  0  0  0  0  0  0  0
    4.2574    4.6576    0.9832 O   0  0  0  0  0  0  0  0  0  0  0  0
   -5.1380    4.0217   -1.2775 O   0  0  0  0  0  0  0  0  0  0  0  0
    3.3903   -1.5901    0.1376 N   0  0  0  0  0  0  0  0  0  0  0  0
   -0.8392   -1.2304    2.0560 N   0  0  0  0  0  0  0  0  0  0  0  0
    1.8129   -3.3450   -0.5702 C   0  0  0  0  0  0  0  0  0  0  0  0
    3.2410   -2.9954   -0.1657 C   0  0  0  0  0  0  0  0  0  0  0  0
   -0.5964   -2.6425    0.0861 C   0  0  0  0  0  0  0  0  0  0  0  0
    0.7867   -3.0138    0.5060 C   0  0  0  0  0  0  0  0  0  0  0  0
   -1.3469   -1.7830    0.8571 C   0  0  0  0  0  0  0  0  0  0  0  0
   -2.6363   -1.4566    0.4371 C   0  0  0  0  0  0  0  0  0  0  0  0
   -1.0709   -3.1928   -1.0854 C   0  0  0  0  0  0  0  0  0  0  0  0
   -3.1430   -1.9984   -0.7441 C   0  0  0  0  0  0  0  0  0  0  0  0
   -2.3603   -2.8664   -1.5053 C   0  0  0  0  0  0  0  0  0  0  0  0
    3.7342   -0.6249   -0.8160 C   0  0  0  0  0  0  0  0  0  0  0  0
    3.8701    0.7456   -0.3488 C   0  0  0  0  0  0  0  0  0  0  0  0
   -3.8501    0.5524    0.5515 C   0  0  0  0  0  0  0  0  0  0  0  0
    4.7117    1.6315   -1.0216 C   0  0  0  0  0  0  0  0  0  0  0  0
    3.1585    1.1746    0.7715 C   0  0  0  0  0  0  0  0  0  0  0  0
   -2.9487    1.3026   -0.1828 C   0  0  0  0  0  0  0  0  0  0  0  0
   -5.1723    0.9360    0.6878 C   0  0  0  0  0  0  0  0  0  0  0  0
    4.8418    2.9462   -0.5741 C   0  0  0  0  0  0  0  0  0  0  0  0
    3.2885    2.4894    1.2191 C   0  0  0  0  0  0  0  0  0  0  0  0
    4.1303    3.3751    0.5464 C   0  0  0  0  0  0  0  0  0  0  0  0
   -3.3841    2.4747   -0.8011 C   0  0  0  0  0  0  0  0  0  0  0  0
   -5.6076    2.1082    0.0694 C   0  0  0  0  0  0  0  0  0  0  0  0
   -4.7136    2.8775   -0.6751 C   0  0  0  0  0  0  0  0  0  0  0  0
    1.7452   -4.4170   -0.7847 H   0  0  0  0  0  0  0  0  0  0  0  0
    1.5730   -2.7887   -1.4836 H   0  0  0  0  0  0  0  0  0  0  0  0
    3.9324   -3.2647   -0.9712 H   0  0  0  0  0  0  0  0  0  0  0  0
    3.5347   -3.5497    0.7320 H   0  0  0  0  0  0  0  0  0  0  0  0
   -0.4950   -3.8878   -1.6875 H   0  0  0  0  0  0  0  0  0  0  0  0
    3.2864   -1.3291    1.1121 H   0  0  0  0  0  0  0  0  0  0  0  0
   -4.1497   -1.7651   -1.0806 H   0  0  0  0  0  0  0  0  0  0  0  0
   -2.7579   -3.2939   -2.4212 H   0  0  0  0  0  0  0  0  0  0  0  0
    0.1057   -1.4202    2.3588 H   0  0  0  0  0  0  0  0  0  0  0  0
   -1.4151   -0.5932    2.5908 H   0  0  0  0  0  0  0  0  0  0  0  0
    5.2783    1.3160   -1.8939 H   0  0  0  0  0  0  0  0  0  0  0  0
    2.4676    0.5285    1.3053 H   0  0  0  0  0  0  0  0  0  0  0  0
   -1.9044    1.0217   -0.2806 H   0  0  0  0  0  0  0  0  0  0  0  0
   -5.8696    0.3379    1.2667 H   0  0  0  0  0  0  0  0  0  0  0  0
    5.5015    3.6262   -1.1064 H   0  0  0  0  0  0  0  0  0  0  0  0
    2.7261    2.8202    2.0881 H   0  0  0  0  0  0  0  0  0  0  0  0
   -2.6819    3.0722   -1.3762 H   0  0  0  0  0  0  0  0  0  0  0  0
   -6.6459    2.4109    0.1755 H   0  0  0  0  0  0  0  0  0  0  0  0
    4.8783    5.1287    0.4013 H   0  0  0  0  0  0  0  0  0  0  0  0
   -6.0833    4.1468   -1.0856 H   0  0  0  0  0  0  0  0  0  0  0  0
  1 13  1  0  0  0  0
  1 19  1  0  0  0  0
  2 11  2  0  0  0  0
  3 17  2  0  0  0  0
  4 26  1  0  0  0  0
  4 48  1  0  0  0  0
  5 29  1  0  0  0  0
  5 49  1  0  0  0  0
  6  9  1  0  0  0  0
  6 17  1  0  0  0  0
  6 35  1  0  0  0  0
  7 12  1  0  0  0  0
  7 38  1  0  0  0  0
  7 39  1  0  0  0  0
  8  9  1  0  0  0  0
  8 11  1  0  0  0  0
  8 30  1  0  0  0  0
  8 31  1  0  0  0  0
  9 32  1  0  0  0  0
  9 33  1  0  0  0  0
 10 11  1  0  0  0  0
 10 12  2  0  0  0  0
 10 14  1  0  0  0  0
 12 13  1  0  0  0  0
 13 15  2  0  0  0  0
 14 16  2  0  0  0  0
 14 34  1  0  0  0  0
 15 16  1  0  0  0  0
 15 36  1  0  0  0  0
 16 37  1  0  0  0  0
 17 18  1  0  0  0  0
 18 20  2  0  0  0  0
 18 21  1  0  0  0  0
 19 22  2  0  0  0  0
 19 23  1  0  0  0  0
 20 24  1  0  0  0  0
 20 40  1  0  0  0  0
 21 25  2  0  0  0  0
 21 41  1  0  0  0  0
 22 27  1  0  0  0  0
 22 42  1  0  0  0  0
 23 28  2  0  0  0  0
 23 43  1  0  0  0  0
 24 26  2  0  0  0  0
 24 44  1  0  0  0  0
 25 26  1  0  0  0  0
 25 45  1  0  0  0  0
 27 29  2  0  0  0  0
 27 46  1  0  0  0  0
 28 29  1  0  0  0  0
 28 47  1  0  0  0  0
M  END
> <PUBCHEM_COMPOUND_CID>
11675536

> <PUBCHEM_CONFORMER_RMSD>
1

> <PUBCHEM_CONFORMER_DIVERSEORDER>
1
180
230
59
9
48
205
113
276
169
286
261
176
110
68
245
179
186
281
17
141
211
8
178
175
227
57
181
271
287
98
107
193
217
132
29
153
196
273
74
37
53
148
21
267
6
61
40
244
172
229
130
191
117
279
80
162
112
126
224
44
272
33
128
199
71
137
88
60
166
252
226
142
185
87
140
282
161
195
189
246
96
268
14
233
219
93
222
278
170
32
202
151
135
23
16
147
247
35
115
250
221
239
39
174
129
114
156
56
54
270
111
11
215
263
200
194
277
46
124
242
243
134
184
190
225
209
119
64
284
144
265
234
118
62
109
89
262
158
51
77
13
165
70
127
43
187
266
241
253
213
103
49
177
192
36
240
83
138
78
163
183
218
146
66
82
150
197
237
104
22
149
131
20
25
214
41
106
171
139
201
260
7
216
12
45
52
182
50
84
198
275
228
259
238
143
255
81
76
42
155
38
167
152
210
97
164
258
249
125
30
18
90
145
231
55
100
208
27
69
257
5
264
269
188
26
232
31
285
108
159
157
34
204
28
91
73
92
86
102
19
256
235
203
72
122
274
121
207
283
3
2
75
4
67
47
236
280
136
105
101
133
206
95
254
58
123
154
120
173
10
79
85
160
220
168
24
248
65
99
223
63
251
15
116
94
212

> <PUBCHEM_MMFF94_PARTIAL_CHARGES>
45
1 -0.17
10 0.09
11 0.42
12 0.1
13 0.08
14 -0.15
15 -0.15
16 -0.15
17 0.54
18 0.09
19 0.08
2 -0.57
20 -0.15
21 -0.15
22 -0.15
23 -0.15
24 -0.15
25 -0.15
26 0.08
27 -0.15
28 -0.15
29 0.08
3 -0.57
34 0.15
35 0.37
36 0.15
37 0.15
38 0.4
39 0.4
4 -0.53
40 0.15
41 0.15
42 0.15
43 0.15
44 0.15
45 0.15
46 0.15
47 0.15
48 0.45
49 0.45
5 -0.53
6 -0.73
7 -0.9
8 0.06
9 0.3

> <PUBCHEM_EFFECTIVE_ROTOR_COUNT>
8

> <PUBCHEM_PHARMACOPHORE_FEATURES>
11
1 1 acceptor
1 2 acceptor
1 3 acceptor
1 4 donor
1 5 donor
1 6 donor
1 7 cation
1 7 donor
6 10 12 13 14 15 16 rings
6 18 20 21 24 25 26 rings
6 19 22 23 27 28 29 rings

> <PUBCHEM_HEAVY_ATOM_COUNT>
29

> <PUBCHEM_ATOM_DEF_STEREO_COUNT>
0

> <PUBCHEM_ATOM_UDEF_STEREO_COUNT>
0

> <PUBCHEM_BOND_DEF_STEREO_COUNT>
0

> <PUBCHEM_BOND_UDEF_STEREO_COUNT>
0

> <PUBCHEM_ISOTOPIC_ATOM_COUNT>
0

> <PUBCHEM_COMPONENT_COUNT>
1

> <PUBCHEM_CACTVS_TAUTO_COUNT>
70

> <PUBCHEM_CONFORMER_ID>
00B2279000000001

> <PUBCHEM_MMFF94_ENERGY>
99.6594

> <PUBCHEM_FEATURE_SELFOVERLAP>
55.822

> <PUBCHEM_SHAPE_FINGERPRINT>
10439779 11 18050272688142535744
10871710 139 18267017452626502407
11146346 40 17546412629010241125
11410812 94 17468790789308576716
11720765 8 18057895650088232694
12925494 130 18117561722148557181
133061 13 17481972850554626624
13583140 156 18044955475818532875
13617811 41 17907004437716580167
13944108 23 17904206927552905428
14223995 32 18340481258023764496
14251764 38 18339069501755928786
14251764 75 18342750602229994137
14347329 18 18048323538011814300
14468879 13 18261682570136033530
14739800 52 18041559140155208075
15082195 135 18197479750587995575
15276724 80 18343302604897574231
15322535 138 18268137837589842504
15721738 15 18123168135600967509
16067690 210 17254251932136646056
16991981 162 17560808774847223795
16992727 255 18262821618087665492
1768 85 18339373985009835049
20764821 26 18338784698084852100
21049683 118 17096087974970809131
21388113 180 18410577292366537525
21475661 188 18189055300268355899
21859007 373 17767684224746374640
22393880 68 18129952303164143790
2838139 119 18335701577470832543
325973 47 18123189004598644985
3298306 158 18409728422445726769
3388396 114 17838035362865785342
4371632 12 18191278573447494501
469060 322 17400941072432929874
508180 173 18339657633498576890
508706 21 18124035899661771864
5252454 2 18272093837270614667
550186 83 16009321894046850652
6036956 94 17470164125399421093
653340 110 18123464153494314540
7288768 16 17822293543005858859

> <PUBCHEM_SHAPE_MULTIPOLES>
557.5
12.75
6.3
1.44
1.84
1.95
-0.07
15.54
1.93
-1.8
0.5
-0.15
-0.31
1.56

> <PUBCHEM_SHAPE_SELFOVERLAP>
1212.639

> <PUBCHEM_SHAPE_VOLUME>
302.1

> <PUBCHEM_COORDINATE_TYPE>
2
5
10

$$$$
