11695449
  -OEChem-03292013303D

 44 43  0     1  0  0  0  0  0999 V2000
    6.0779    0.5357   -0.0726 S   0  0  0  0  0  0  0  0  0  0  0  0
    4.6988    1.4617    1.1378 S   0  0  0  0  0  0  0  0  0  0  0  0
   -4.4086   -0.6571    0.7795 O   0  0  0  0  0  0  0  0  0  0  0  0
   -0.1234    1.1444    0.2843 O   0  0  0  0  0  0  0  0  0  0  0  0
   -4.0316    0.4245   -1.2209 O   0  0  0  0  0  0  0  0  0  0  0  0
   -1.5325    1.4734   -1.5105 O   0  0  0  0  0  0  0  0  0  0  0  0
   -5.7491   -0.9473    0.3703 C   0  0  0  0  0  0  0  0  0  0  0  0
   -5.6971   -1.7843   -0.9070 C   0  0  0  0  0  0  0  0  0  0  0  0
   -6.4154   -1.7305    1.4993 C   0  0  0  0  0  0  0  0  0  0  0  0
   -6.4800    0.3724    0.1275 C   0  0  0  0  0  0  0  0  0  0  0  0
    5.8826   -1.1988    0.4047 C   0  0  1  0  0  0  0  0  0  0  0  0
    6.3679   -2.1541   -0.6955 C   0  0  0  0  0  0  0  0  0  0  0  0
   -3.6549    0.0412   -0.1225 C   0  0  0  0  0  0  0  0  0  0  0  0
    6.6466   -1.4363    1.7053 C   0  0  0  0  0  0  0  0  0  0  0  0
    5.6498   -1.9767   -2.0278 C   0  0  0  0  0  0  0  0  0  0  0  0
   -2.2801    0.2575    0.4615 C   0  0  0  0  0  0  0  0  0  0  0  0
   -1.3043    1.0270   -0.3952 C   0  0  0  0  0  0  0  0  0  0  0  0
    0.9132    1.8571   -0.3986 C   0  0  0  0  0  0  0  0  0  0  0  0
    2.1261    1.8944    0.4739 C   0  0  0  0  0  0  0  0  0  0  0  0
    3.3142    1.3959    0.1065 C   0  0  0  0  0  0  0  0  0  0  0  0
   -5.4679   -1.2175   -1.8128 H   0  0  0  0  0  0  0  0  0  0  0  0
   -4.9474   -2.5800   -0.8248 H   0  0  0  0  0  0  0  0  0  0  0  0
   -6.6687   -2.2572   -1.0938 H   0  0  0  0  0  0  0  0  0  0  0  0
   -6.4101   -1.1511    2.4297 H   0  0  0  0  0  0  0  0  0  0  0  0
   -5.8653   -2.6553    1.7076 H   0  0  0  0  0  0  0  0  0  0  0  0
   -7.4515   -1.9906    1.2594 H   0  0  0  0  0  0  0  0  0  0  0  0
   -6.2900    1.0809    0.9422 H   0  0  0  0  0  0  0  0  0  0  0  0
   -6.2116    0.8758   -0.8045 H   0  0  0  0  0  0  0  0  0  0  0  0
   -7.5625    0.2058    0.0732 H   0  0  0  0  0  0  0  0  0  0  0  0
    4.8188   -1.4053    0.5726 H   0  0  0  0  0  0  0  0  0  0  0  0
    7.4481   -2.0410   -0.8540 H   0  0  0  0  0  0  0  0  0  0  0  0
    6.2131   -3.1870   -0.3581 H   0  0  0  0  0  0  0  0  0  0  0  0
    7.7188   -1.2392    1.5911 H   0  0  0  0  0  0  0  0  0  0  0  0
    6.5399   -2.4807    2.0204 H   0  0  0  0  0  0  0  0  0  0  0  0
    6.2680   -0.8178    2.5259 H   0  0  0  0  0  0  0  0  0  0  0  0
    4.5639   -2.0262   -1.8990 H   0  0  0  0  0  0  0  0  0  0  0  0
    5.9015   -1.0274   -2.5092 H   0  0  0  0  0  0  0  0  0  0  0  0
    5.9428   -2.7764   -2.7162 H   0  0  0  0  0  0  0  0  0  0  0  0
   -2.4034    0.8102    1.3997 H   0  0  0  0  0  0  0  0  0  0  0  0
   -1.8440   -0.7288    0.6553 H   0  0  0  0  0  0  0  0  0  0  0  0
    1.1219    1.3650   -1.3558 H   0  0  0  0  0  0  0  0  0  0  0  0
    0.5805    2.8837   -0.5903 H   0  0  0  0  0  0  0  0  0  0  0  0
    2.0058    2.3638    1.4479 H   0  0  0  0  0  0  0  0  0  0  0  0
    3.4091    0.9348   -0.8723 H   0  0  0  0  0  0  0  0  0  0  0  0
  1  2  1  0  0  0  0
  1 11  1  0  0  0  0
  2 20  1  0  0  0  0
  3  7  1  0  0  0  0
  3 13  1  0  0  0  0
  4 17  1  0  0  0  0
  4 18  1  0  0  0  0
  5 13  2  0  0  0  0
  6 17  2  0  0  0  0
  7  8  1  0  0  0  0
  7  9  1  0  0  0  0
  7 10  1  0  0  0  0
  8 21  1  0  0  0  0
  8 22  1  0  0  0  0
  8 23  1  0  0  0  0
  9 24  1  0  0  0  0
  9 25  1  0  0  0  0
  9 26  1  0  0  0  0
 10 27  1  0  0  0  0
 10 28  1  0  0  0  0
 10 29  1  0  0  0  0
 11 12  1  0  0  0  0
 11 14  1  0  0  0  0
 11 30  1  0  0  0  0
 12 15  1  0  0  0  0
 12 31  1  0  0  0  0
 12 32  1  0  0  0  0
 13 16  1  0  0  0  0
 14 33  1  0  0  0  0
 14 34  1  0  0  0  0
 14 35  1  0  0  0  0
 15 36  1  0  0  0  0
 15 37  1  0  0  0  0
 15 38  1  0  0  0  0
 16 17  1  0  0  0  0
 16 39  1  0  0  0  0
 16 40  1  0  0  0  0
 18 19  1  0  0  0  0
 18 41  1  0  0  0  0
 18 42  1  0  0  0  0
 19 20  2  0  0  0  0
 19 43  1  0  0  0  0
 20 44  1  0  0  0  0
M  END
> <PUBCHEM_COMPOUND_CID>
11695449

> <PUBCHEM_CONFORMER_RMSD>
1.4

> <PUBCHEM_CONFORMER_DIVERSEORDER>
1
6
43
13
9
45
16
17
21
7
10
49
47
2
11
4
44
46
34
48
35
12
42
36
14
15
39
19
22
3
32
29
26
20
38
27
28
8
37
31
24
40
23
5
33
25
41
30
18

> <PUBCHEM_MMFF94_PARTIAL_CHARGES>
16
1 -0.23
11 0.23
13 0.66
16 0.12
17 0.66
18 0.42
19 -0.29
2 -0.1
20 -0.05
3 -0.43
4 -0.43
43 0.15
44 0.15
5 -0.57
6 -0.57
7 0.28

> <PUBCHEM_EFFECTIVE_ROTOR_COUNT>
11

> <PUBCHEM_PHARMACOPHORE_FEATURES>
7
1 14 hydrophobe
1 15 hydrophobe
1 16 anion
1 5 acceptor
1 6 acceptor
4 7 8 9 10 hydrophobe
5 1 2 11 12 20 hydrophobe

> <PUBCHEM_HEAVY_ATOM_COUNT>
20

> <PUBCHEM_ATOM_DEF_STEREO_COUNT>
0

> <PUBCHEM_ATOM_UDEF_STEREO_COUNT>
1

> <PUBCHEM_BOND_DEF_STEREO_COUNT>
1

> <PUBCHEM_BOND_UDEF_STEREO_COUNT>
0

> <PUBCHEM_ISOTOPIC_ATOM_COUNT>
0

> <PUBCHEM_COMPONENT_COUNT>
1

> <PUBCHEM_CACTVS_TAUTO_COUNT>
1

> <PUBCHEM_CONFORMER_ID>
00B2755900000001

> <PUBCHEM_MMFF94_ENERGY>
23.1001

> <PUBCHEM_FEATURE_SELFOVERLAP>
35.547

> <PUBCHEM_SHAPE_FINGERPRINT>
10 15 14045739352530773914
10316853 100 18411985754620823134
10883706 89 16915400821951205819
125118 31 10880003462194403138
12778500 126 12103566343662012782
13533116 47 18201439220550218480
13551218 46 18201719557038419870
13685833 64 18409167714491386936
13782708 43 18334573559612037925
13955234 65 18128246978063534368
14123256 34 18411705361621865014
14216079 64 18408602561019217635
14251740 57 18130512942752350670
14251764 30 18412823611833445816
14461889 52 11959722806686239221
14556957 393 14634866414177415791
15352257 5 18410574015485643834
15510800 12 18339927014048082290
1768 124 18131348644082022294
20281389 69 12247690378331514561
20397935 70 18059858364121605198
20398071 356 18411141341768068762
20621476 21 18259989296654652539
21095086 4 17914908543858266358
21150785 3 14996284738381524488
21623969 137 18343016684423275414
21682296 61 18411984654480772223
220451 1 17703508908543529828
22864921 267 16916803829022233374
23016692 55 17821729429453650004
2303208 19 18333728026654527908
23559900 14 17531527710473649817
25122255 55 18261399978515350355
2748736 6 10591757675831824114
2916195 48 11527956659764617321
3089732 80 18410295792194893150
312425 54 16415191300140269958
328310 630 10737276918892257271
33382 64 18343865520216391672
33532 11 18408884079162126147
34797466 226 17458347485394656860
465052 167 18412262840129790708
543368 44 8430320134759575307
59682541 35 12103567541815450519
59682541 52 14634864228814086210

> <PUBCHEM_SHAPE_MULTIPOLES>
395.81
23.1
2.44
1.46
2.22
0.54
-0.06
15.63
3.86
-2.95
-0.33
-0.95
0.65
1.85

> <PUBCHEM_SHAPE_SELFOVERLAP>
734.457

> <PUBCHEM_SHAPE_VOLUME>
251

> <PUBCHEM_COORDINATE_TYPE>
2
5
10

$$$$
