11691484
  -OEChem-03292013303D

 62 64  0     0  0  0  0  0  0999 V2000
    8.3446   -0.4818    0.9686 S   0  0  0  0  0  0  0  0  0  0  0  0
   -1.9049    0.5698   -0.5347 O   0  0  0  0  0  0  0  0  0  0  0  0
   -7.7859    0.2041    0.7788 O   0  0  0  0  0  0  0  0  0  0  0  0
   -7.7007   -1.3757   -0.8708 O   0  0  0  0  0  0  0  0  0  0  0  0
    0.4194    2.0727   -0.4339 O   0  0  0  0  0  0  0  0  0  0  0  0
    9.0351    0.8004    1.0579 O   0  0  0  0  0  0  0  0  0  0  0  0
    8.3933   -1.4004    2.1023 O   0  0  0  0  0  0  0  0  0  0  0  0
   -5.7662   -0.7820    0.2730 N   0  0  0  0  0  0  0  0  0  0  0  0
   -0.6835   -1.3727   -0.8262 N   0  0  0  0  0  0  0  0  0  0  0  0
    2.8629    0.7716   -0.6956 N   0  0  0  0  0  0  0  0  0  0  0  0
    1.7236   -1.2992   -0.9122 N   0  0  0  0  0  0  0  0  0  0  0  0
    6.5508    0.7306   -0.4432 N   0  0  0  0  0  0  0  0  0  0  0  0
   -2.9457   -0.2045    0.0492 C   0  0  0  0  0  0  0  0  0  0  0  0
   -3.8946    0.7314    0.7985 C   0  0  0  0  0  0  0  0  0  0  0  0
   -3.6936   -0.9736   -1.0416 C   0  0  0  0  0  0  0  0  0  0  0  0
   -5.1048   -0.0227    1.3406 C   0  0  0  0  0  0  0  0  0  0  0  0
   -4.9054   -1.7023   -0.4711 C   0  0  0  0  0  0  0  0  0  0  0  0
   -7.1329   -0.7053   -0.0102 C   0  0  0  0  0  0  0  0  0  0  0  0
   -0.6813   -0.0342   -0.6573 C   0  0  0  0  0  0  0  0  0  0  0  0
   -9.1932    0.3426    0.5509 C   0  0  0  0  0  0  0  0  0  0  0  0
    0.4665    0.7303   -0.6058 C   0  0  0  0  0  0  0  0  0  0  0  0
    1.6520    0.0372   -0.7406 C   0  0  0  0  0  0  0  0  0  0  0  0
   -9.4256    1.3949   -0.5226 C   0  0  0  0  0  0  0  0  0  0  0  0
   -9.8788    0.7065    1.8591 C   0  0  0  0  0  0  0  0  0  0  0  0
    0.5356   -1.9324   -0.9450 C   0  0  0  0  0  0  0  0  0  0  0  0
    4.1575    0.4385   -0.2663 C   0  0  0  0  0  0  0  0  0  0  0  0
    5.2860    1.0173   -0.8244 C   0  0  0  0  0  0  0  0  0  0  0  0
    4.3390   -0.4946    0.7485 C   0  0  0  0  0  0  0  0  0  0  0  0
    6.6880   -0.1809    0.5456 C   0  0  0  0  0  0  0  0  0  0  0  0
    0.4464    2.5636    0.9088 C   0  0  0  0  0  0  0  0  0  0  0  0
    5.6252   -0.8157    1.1680 C   0  0  0  0  0  0  0  0  0  0  0  0
    5.1557    2.0257   -1.9194 C   0  0  0  0  0  0  0  0  0  0  0  0
    9.0153   -1.3593   -0.4287 C   0  0  0  0  0  0  0  0  0  0  0  0
   -2.5361   -0.9086    0.7881 H   0  0  0  0  0  0  0  0  0  0  0  0
   -3.3602    1.2306    1.6156 H   0  0  0  0  0  0  0  0  0  0  0  0
   -4.2268    1.5307    0.1228 H   0  0  0  0  0  0  0  0  0  0  0  0
   -3.0445   -1.6935   -1.5492 H   0  0  0  0  0  0  0  0  0  0  0  0
   -4.0188   -0.2689   -1.8188 H   0  0  0  0  0  0  0  0  0  0  0  0
   -4.7947   -0.7443    2.1056 H   0  0  0  0  0  0  0  0  0  0  0  0
   -5.7926    0.6810    1.8169 H   0  0  0  0  0  0  0  0  0  0  0  0
   -5.4633   -2.1845   -1.2799 H   0  0  0  0  0  0  0  0  0  0  0  0
   -4.5885   -2.4881    0.2245 H   0  0  0  0  0  0  0  0  0  0  0  0
   -9.6256   -0.6104    0.2211 H   0  0  0  0  0  0  0  0  0  0  0  0
   -8.9445    1.1065   -1.4630 H   0  0  0  0  0  0  0  0  0  0  0  0
  -10.4935    1.5404   -0.7118 H   0  0  0  0  0  0  0  0  0  0  0  0
   -8.9882    2.3554   -0.2280 H   0  0  0  0  0  0  0  0  0  0  0  0
   -9.6920   -0.0648    2.6142 H   0  0  0  0  0  0  0  0  0  0  0  0
  -10.9599    0.8134    1.7278 H   0  0  0  0  0  0  0  0  0  0  0  0
   -9.4792    1.6436    2.2619 H   0  0  0  0  0  0  0  0  0  0  0  0
    2.7883    1.6693   -1.1644 H   0  0  0  0  0  0  0  0  0  0  0  0
    0.5635   -3.0064   -1.0813 H   0  0  0  0  0  0  0  0  0  0  0  0
    3.4951   -0.9745    1.2362 H   0  0  0  0  0  0  0  0  0  0  0  0
    5.7710   -1.5412    1.9604 H   0  0  0  0  0  0  0  0  0  0  0  0
   -0.4264    2.2057    1.4639 H   0  0  0  0  0  0  0  0  0  0  0  0
    1.3665    2.2544    1.4145 H   0  0  0  0  0  0  0  0  0  0  0  0
    0.4157    3.6560    0.8733 H   0  0  0  0  0  0  0  0  0  0  0  0
    4.6057    1.6086   -2.7691 H   0  0  0  0  0  0  0  0  0  0  0  0
    6.1418    2.3317   -2.2857 H   0  0  0  0  0  0  0  0  0  0  0  0
    4.6453    2.9240   -1.5577 H   0  0  0  0  0  0  0  0  0  0  0  0
    8.9477   -0.7247   -1.3143 H   0  0  0  0  0  0  0  0  0  0  0  0
    8.4519   -2.2838   -0.5687 H   0  0  0  0  0  0  0  0  0  0  0  0
   10.0613   -1.5884   -0.2142 H   0  0  0  0  0  0  0  0  0  0  0  0
  1  6  2  0  0  0  0
  1  7  2  0  0  0  0
  1 29  1  0  0  0  0
  1 33  1  0  0  0  0
  2 13  1  0  0  0  0
  2 19  1  0  0  0  0
  3 18  1  0  0  0  0
  3 20  1  0  0  0  0
  4 18  2  0  0  0  0
  5 21  1  0  0  0  0
  5 30  1  0  0  0  0
  8 16  1  0  0  0  0
  8 17  1  0  0  0  0
  8 18  1  0  0  0  0
  9 19  2  0  0  0  0
  9 25  1  0  0  0  0
 10 22  1  0  0  0  0
 10 26  1  0  0  0  0
 10 50  1  0  0  0  0
 11 22  1  0  0  0  0
 11 25  2  0  0  0  0
 12 27  1  0  0  0  0
 12 29  2  0  0  0  0
 13 14  1  0  0  0  0
 13 15  1  0  0  0  0
 13 34  1  0  0  0  0
 14 16  1  0  0  0  0
 14 35  1  0  0  0  0
 14 36  1  0  0  0  0
 15 17  1  0  0  0  0
 15 37  1  0  0  0  0
 15 38  1  0  0  0  0
 16 39  1  0  0  0  0
 16 40  1  0  0  0  0
 17 41  1  0  0  0  0
 17 42  1  0  0  0  0
 19 21  1  0  0  0  0
 20 23  1  0  0  0  0
 20 24  1  0  0  0  0
 20 43  1  0  0  0  0
 21 22  2  0  0  0  0
 23 44  1  0  0  0  0
 23 45  1  0  0  0  0
 23 46  1  0  0  0  0
 24 47  1  0  0  0  0
 24 48  1  0  0  0  0
 24 49  1  0  0  0  0
 25 51  1  0  0  0  0
 26 27  2  0  0  0  0
 26 28  1  0  0  0  0
 27 32  1  0  0  0  0
 28 31  2  0  0  0  0
 28 52  1  0  0  0  0
 29 31  1  0  0  0  0
 30 54  1  0  0  0  0
 30 55  1  0  0  0  0
 30 56  1  0  0  0  0
 31 53  1  0  0  0  0
 32 57  1  0  0  0  0
 32 58  1  0  0  0  0
 32 59  1  0  0  0  0
 33 60  1  0  0  0  0
 33 61  1  0  0  0  0
 33 62  1  0  0  0  0
M  END
> <PUBCHEM_COMPOUND_CID>
11691484

> <PUBCHEM_CONFORMER_RMSD>
1

> <PUBCHEM_CONFORMER_DIVERSEORDER>
1
119
98
43
126
51
118
52
73
99
94
89
84
131
75
113
115
77
63
28
117
133
122
59
104
6
37
54
60
102
92
68
103
19
129
26
36
120
127
74
44
96
5
123
2
95
91
125
134
88
27
32
57
105
76
111
49
97
67
66
106
70
40
124
3
72
83
82
41
114
93
107
50
110
121
78
90
80
65
61
38
87
56
24
130
128
116
109
34
108
53
47
42
58
55
9
33
11
15
69
71
86
48
35
64
132
100
17
62
81
7
29
13
101
79
20
4
45
30
39
85
112
10
14
18
31
8
25
12
21
16
46
23
22

> <PUBCHEM_MMFF94_PARTIAL_CHARGES>
33
1 1.2
10 -0.6
11 -0.62
12 -0.62
13 0.28
16 0.3
17 0.3
18 0.78
19 0.39
2 -0.36
20 0.28
21 0.08
22 0.41
25 0.47
26 0.1
27 0.17
28 -0.15
29 0.3
3 -0.43
30 0.28
31 -0.15
32 0.14
33 0.11
4 -0.57
5 -0.36
50 0.4
51 0.15
52 0.15
53 0.15
6 -0.65
7 -0.65
8 -0.66
9 -0.62

> <PUBCHEM_EFFECTIVE_ROTOR_COUNT>
10.2

> <PUBCHEM_PHARMACOPHORE_FEATURES>
12
1 10 cation
1 10 donor
1 12 acceptor
1 4 acceptor
1 5 acceptor
1 6 acceptor
1 7 acceptor
3 20 23 24 hydrophobe
3 9 11 25 cation
6 12 26 27 28 29 31 rings
6 8 13 14 15 16 17 rings
6 9 11 19 21 22 25 rings

> <PUBCHEM_HEAVY_ATOM_COUNT>
33

> <PUBCHEM_ATOM_DEF_STEREO_COUNT>
0

> <PUBCHEM_ATOM_UDEF_STEREO_COUNT>
0

> <PUBCHEM_BOND_DEF_STEREO_COUNT>
0

> <PUBCHEM_BOND_UDEF_STEREO_COUNT>
0

> <PUBCHEM_ISOTOPIC_ATOM_COUNT>
0

> <PUBCHEM_COMPONENT_COUNT>
1

> <PUBCHEM_CACTVS_TAUTO_COUNT>
3

> <PUBCHEM_CONFORMER_ID>
00B265DC00000001

> <PUBCHEM_MMFF94_ENERGY>
97.2438

> <PUBCHEM_FEATURE_SELFOVERLAP>
60.917

> <PUBCHEM_SHAPE_FINGERPRINT>
10076449 9 11818995176045356455
10299344 5 18259984881591626914
10674148 151 16225765220725326169
10883706 142 15482670161348758974
11061554 47 16845300389810095529
11135609 127 12319437923724846714
11135926 11 18341040866102207567
11315181 36 12535349005170346791
11456790 92 18335709347288425297
11638347 137 17240485805605801739
11719270 70 18342461439198539519
12089408 11 18412262869455960223
12664476 115 15697996327729916330
12741549 16 18040713658748102325
12838862 33 17917423212543561645
14251764 46 17989488519572606774
14344974 52 8286188454004235838
15461852 350 15697996358659915117
15510794 2 15913612773944683687
1754911 235 12823295689619860521
1818759 1 16515405157429147818
19841028 212 17241037704883054834
20105231 36 14418134024354272345
21049683 271 9727632800171055791
21792934 111 18343860022468718944
22224240 67 17988923383470574838
232437 2 13695587749904206457
24771293 8 17489594433572312249
24893992 56 18201157754659164875
306946 40 15985100782943073497
34797466 226 15213303057874640094
439807 62 18113899364537180328
44389302 135 18338226091040408050
54039377 194 12396301457180458643
6126387 218 18409727349104725585
6201320 215 18115582640152899941
636775 8 10665239151267536001

> <PUBCHEM_SHAPE_MULTIPOLES>
622.85
33.89
1.82
1.44
21.42
0.42
-0.28
-1.03
-12.62
-0.51
0.36
-0.83
0.1
-2.2

> <PUBCHEM_SHAPE_SELFOVERLAP>
1290.543

> <PUBCHEM_SHAPE_VOLUME>
358.3

> <PUBCHEM_COORDINATE_TYPE>
2
5
10

$$$$
