11696677
  -OEChem-03292013303D

 59 60  0     1  0  0  0  0  0999 V2000
    2.3466   -1.8166    0.4751 O   0  0  0  0  0  0  0  0  0  0  0  0
    3.5750    1.5846   -0.2428 O   0  0  0  0  0  0  0  0  0  0  0  0
   -0.6127    0.0025    1.6703 O   0  0  0  0  0  0  0  0  0  0  0  0
    4.7233   -2.3236   -1.0639 O   0  0  0  0  0  0  0  0  0  0  0  0
    5.5590    2.4032   -0.9057 O   0  0  0  0  0  0  0  0  0  0  0  0
   -0.8496    0.0995   -0.6260 O   0  0  0  0  0  0  0  0  0  0  0  0
   -5.4076    2.1465   -0.3574 O   0  0  0  0  0  0  0  0  0  0  0  0
    2.9974   -0.7892   -0.2876 C   0  0  1  0  0  0  0  0  0  0  0  0
    2.9170    0.5326    0.4794 C   0  0  2  0  0  0  0  0  0  0  0  0
    1.4672    0.9261    0.8063 C   0  0  1  0  0  0  0  0  0  0  0  0
    4.4993   -1.1259   -0.3173 C   0  0  2  0  0  0  0  0  0  0  0  0
    0.7829   -0.2472    1.5319 C   0  0  2  0  0  0  0  0  0  0  0  0
    0.9697   -1.5688    0.7714 C   0  0  2  0  0  0  0  0  0  0  0  0
    5.3368    0.0029   -0.9383 C   0  0  1  0  0  0  0  0  0  0  0  0
    2.4149   -0.7323   -1.7137 C   0  0  0  0  0  0  0  0  0  0  0  0
    1.4182    2.2132    1.6405 C   0  0  0  0  0  0  0  0  0  0  0  0
    4.8556    1.4246   -0.6607 C   0  0  0  0  0  0  0  0  0  0  0  0
    0.4688   -2.7563    1.5915 C   0  0  0  0  0  0  0  0  0  0  0  0
    6.8033   -0.1428   -0.5199 C   0  0  0  0  0  0  0  0  0  0  0  0
   -1.3045    0.1553    0.5054 C   0  0  0  0  0  0  0  0  0  0  0  0
   -2.7210    0.4056    0.8481 C   0  0  0  0  0  0  0  0  0  0  0  0
   -3.6222    0.5919   -0.1257 C   0  0  0  0  0  0  0  0  0  0  0  0
   -5.0800    0.8498    0.1393 C   0  0  2  0  0  0  0  0  0  0  0  0
   -5.9627   -0.2097   -0.5336 C   0  0  0  0  0  0  0  0  0  0  0  0
   -7.4552    0.0583   -0.3098 C   0  0  0  0  0  0  0  0  0  0  0  0
   -8.3186   -0.9811   -1.0253 C   0  0  0  0  0  0  0  0  0  0  0  0
   -9.8008   -0.7032   -0.8316 C   0  0  0  0  0  0  0  0  0  0  0  0
    3.4382    0.4309    1.4435 H   0  0  0  0  0  0  0  0  0  0  0  0
    0.9878    1.2013   -0.1351 H   0  0  0  0  0  0  0  0  0  0  0  0
    4.8453   -1.3342    0.7042 H   0  0  0  0  0  0  0  0  0  0  0  0
    1.2088   -0.3399    2.5390 H   0  0  0  0  0  0  0  0  0  0  0  0
    0.4263   -1.6314   -0.1711 H   0  0  0  0  0  0  0  0  0  0  0  0
    5.3041   -0.1077   -2.0312 H   0  0  0  0  0  0  0  0  0  0  0  0
    2.9729   -0.0562   -2.3678 H   0  0  0  0  0  0  0  0  0  0  0  0
    2.4145   -1.7286   -2.1702 H   0  0  0  0  0  0  0  0  0  0  0  0
    1.3768   -0.3959   -1.7287 H   0  0  0  0  0  0  0  0  0  0  0  0
    1.8918    3.0469    1.1116 H   0  0  0  0  0  0  0  0  0  0  0  0
    0.3837    2.5037    1.8511 H   0  0  0  0  0  0  0  0  0  0  0  0
    1.9348    2.0840    2.5974 H   0  0  0  0  0  0  0  0  0  0  0  0
    1.0144   -2.8346    2.5385 H   0  0  0  0  0  0  0  0  0  0  0  0
    0.6459   -3.6937    1.0524 H   0  0  0  0  0  0  0  0  0  0  0  0
   -0.6008   -2.6788    1.8075 H   0  0  0  0  0  0  0  0  0  0  0  0
    7.1854   -1.1417   -0.7546 H   0  0  0  0  0  0  0  0  0  0  0  0
    6.9237    0.0283    0.5556 H   0  0  0  0  0  0  0  0  0  0  0  0
    7.4363    0.5840   -1.0407 H   0  0  0  0  0  0  0  0  0  0  0  0
    4.1736   -3.0199   -0.6654 H   0  0  0  0  0  0  0  0  0  0  0  0
   -3.0054    0.4290    1.8945 H   0  0  0  0  0  0  0  0  0  0  0  0
   -3.3145    0.5689   -1.1687 H   0  0  0  0  0  0  0  0  0  0  0  0
   -5.2825    0.8602    1.2165 H   0  0  0  0  0  0  0  0  0  0  0  0
   -5.7722   -0.2146   -1.6150 H   0  0  0  0  0  0  0  0  0  0  0  0
   -5.7054   -1.2062   -0.1533 H   0  0  0  0  0  0  0  0  0  0  0  0
   -7.7171    1.0567   -0.6797 H   0  0  0  0  0  0  0  0  0  0  0  0
   -7.6732    0.0439    0.7649 H   0  0  0  0  0  0  0  0  0  0  0  0
   -8.0915   -0.9802   -2.0978 H   0  0  0  0  0  0  0  0  0  0  0  0
   -8.0864   -1.9827   -0.6452 H   0  0  0  0  0  0  0  0  0  0  0  0
   -5.3076    2.1333   -1.3248 H   0  0  0  0  0  0  0  0  0  0  0  0
  -10.3990   -1.4593   -1.3496 H   0  0  0  0  0  0  0  0  0  0  0  0
  -10.0687   -0.7263    0.2295 H   0  0  0  0  0  0  0  0  0  0  0  0
  -10.0720    0.2782   -1.2335 H   0  0  0  0  0  0  0  0  0  0  0  0
  1  8  1  0  0  0  0
  1 13  1  0  0  0  0
  2  9  1  0  0  0  0
  2 17  1  0  0  0  0
  3 12  1  0  0  0  0
  3 20  1  0  0  0  0
  4 11  1  0  0  0  0
  4 46  1  0  0  0  0
  5 17  2  0  0  0  0
  6 20  2  0  0  0  0
  7 23  1  0  0  0  0
  7 56  1  0  0  0  0
  8  9  1  0  0  0  0
  8 11  1  0  0  0  0
  8 15  1  0  0  0  0
  9 10  1  0  0  0  0
  9 28  1  0  0  0  0
 10 12  1  0  0  0  0
 10 16  1  0  0  0  0
 10 29  1  0  0  0  0
 11 14  1  0  0  0  0
 11 30  1  0  0  0  0
 12 13  1  0  0  0  0
 12 31  1  0  0  0  0
 13 18  1  0  0  0  0
 13 32  1  0  0  0  0
 14 17  1  0  0  0  0
 14 19  1  0  0  0  0
 14 33  1  0  0  0  0
 15 34  1  0  0  0  0
 15 35  1  0  0  0  0
 15 36  1  0  0  0  0
 16 37  1  0  0  0  0
 16 38  1  0  0  0  0
 16 39  1  0  0  0  0
 18 40  1  0  0  0  0
 18 41  1  0  0  0  0
 18 42  1  0  0  0  0
 19 43  1  0  0  0  0
 19 44  1  0  0  0  0
 19 45  1  0  0  0  0
 20 21  1  0  0  0  0
 21 22  2  0  0  0  0
 21 47  1  0  0  0  0
 22 23  1  0  0  0  0
 22 48  1  0  0  0  0
 23 24  1  0  0  0  0
 23 49  1  0  0  0  0
 24 25  1  0  0  0  0
 24 50  1  0  0  0  0
 24 51  1  0  0  0  0
 25 26  1  0  0  0  0
 25 52  1  0  0  0  0
 25 53  1  0  0  0  0
 26 27  1  0  0  0  0
 26 54  1  0  0  0  0
 26 55  1  0  0  0  0
 27 57  1  0  0  0  0
 27 58  1  0  0  0  0
 27 59  1  0  0  0  0
M  END
> <PUBCHEM_COMPOUND_CID>
11696677

> <PUBCHEM_CONFORMER_RMSD>
1

> <PUBCHEM_CONFORMER_DIVERSEORDER>
1
22
7
24
32
26
12
19
3
29
10
8
14
23
20
18
31
13
4
21
17
11
9
5
16
27
6
30
15
25
2
28

> <PUBCHEM_MMFF94_PARTIAL_CHARGES>
22
1 -0.56
11 0.28
12 0.28
13 0.28
14 0.06
17 0.66
2 -0.43
20 0.71
21 -0.14
22 -0.29
23 0.42
3 -0.43
4 -0.68
46 0.4
47 0.15
48 0.15
5 -0.57
56 0.4
6 -0.57
7 -0.68
8 0.28
9 0.28

> <PUBCHEM_EFFECTIVE_ROTOR_COUNT>
8.4

> <PUBCHEM_PHARMACOPHORE_FEATURES>
10
1 1 acceptor
1 27 hydrophobe
1 4 acceptor
1 4 donor
1 5 acceptor
1 6 acceptor
1 7 acceptor
1 7 donor
6 1 8 9 10 12 13 rings
6 2 8 9 11 14 17 rings

> <PUBCHEM_HEAVY_ATOM_COUNT>
27

> <PUBCHEM_ATOM_DEF_STEREO_COUNT>
8

> <PUBCHEM_ATOM_UDEF_STEREO_COUNT>
0

> <PUBCHEM_BOND_DEF_STEREO_COUNT>
1

> <PUBCHEM_BOND_UDEF_STEREO_COUNT>
0

> <PUBCHEM_ISOTOPIC_ATOM_COUNT>
0

> <PUBCHEM_COMPONENT_COUNT>
1

> <PUBCHEM_CACTVS_TAUTO_COUNT>
1

> <PUBCHEM_CONFORMER_ID>
00B27A2500000001

> <PUBCHEM_MMFF94_ENERGY>
71.7443

> <PUBCHEM_FEATURE_SELFOVERLAP>
50.775

> <PUBCHEM_SHAPE_FINGERPRINT>
10299344 5 18060702784894062807
10595046 47 18335416821545185481
10693767 8 18126007070650391886
11796584 16 15195280923865469573
12236239 1 17774445984030773048
12730499 353 18040725731383439891
12838863 1 18339641123940034442
13668630 136 17274825753370994317
13673619 4 15626503891791252187
13685833 64 16128654154884080443
14528608 73 18260548901065705993
15003188 100 18187367652930298365
15183329 4 18272374148506671825
15301273 46 11169906165572523864
15352257 5 17489585689150870567
15461852 350 13912332296209615315
15475509 35 12823027361580780548
15475509 84 11314298460701931502
15840311 113 11963397349562394062
16945 1 18196684881333032546
18365409 1 18042409204784217671
18608769 82 18187936135788164355
20157964 124 18408327679265757718
20554085 129 15357690916619367649
20715895 44 18187652423001467012
20812841 46 9151178653748106927
21150785 3 18335137601373297967
21267235 1 16487258759396043729
21344244 246 18269278963451681406
21360443 126 17968095378283223003
21521239 73 18341334413809720434
21781051 124 16630244827067690103
221357 26 18413106152125758097
23522609 53 17773344325347416665
23559900 14 18334855082783195329
246663 6 16630809924520414079
25223398 141 17532670107313161827
27425 322 16661777755258328416
312425 54 10663813075384297421
335352 9 18333739009972399070
34797466 226 18410859858781367173
4325135 7 18409446999356393791
439807 62 18060419119246849695
465052 167 17418091014547586893
57527306 92 15791733022903325804
57527452 28 15769782347001915652
58260988 587 15912181283141764186
59520757 100 17095811039770067683

> <PUBCHEM_SHAPE_MULTIPOLES>
514.56
21.58
2.14
1.42
52.47
0.16
0.29
1.04
-11.82
-2.15
0.39
-0.62
0.21
-0.42

> <PUBCHEM_SHAPE_SELFOVERLAP>
1047.787

> <PUBCHEM_SHAPE_VOLUME>
296.1

> <PUBCHEM_COORDINATE_TYPE>
2
5
10

$$$$
