117072562
  -OEChem-03292013293D

 57 60  0     1  0  0  0  0  0999 V2000
   -1.8924    0.1120    1.2856 F   0  0  0  0  0  0  0  0  0  0  0  0
    2.4202    0.2594    1.9552 O   0  0  0  0  0  0  0  0  0  0  0  0
   -0.9094   -2.4560   -1.0216 O   0  0  0  0  0  0  0  0  0  0  0  0
    3.4003    2.4141    0.7358 O   0  0  0  0  0  0  0  0  0  0  0  0
    3.6771   -2.0505    0.3966 O   0  0  0  0  0  0  0  0  0  0  0  0
    5.5445    0.4629    1.2613 O   0  0  0  0  0  0  0  0  0  0  0  0
   -6.7475    0.4560    1.4213 O   0  0  0  0  0  0  0  0  0  0  0  0
    7.2208    0.1534   -0.8266 O   0  0  0  0  0  0  0  0  0  0  0  0
    1.2960   -0.4334   -0.1110 C   0  0  1  0  0  0  0  0  0  0  0  0
    0.4687    0.8719   -0.0952 C   0  0  2  0  0  0  0  0  0  0  0  0
   -0.9065    0.7270   -0.7631 C   0  0  1  0  0  0  0  0  0  0  0  0
   -1.7341   -0.3691   -0.0062 C   0  0  1  0  0  0  0  0  0  0  0  0
    2.5999    0.0916    0.5527 C   0  0  1  0  0  0  0  0  0  0  0  0
    0.5061   -1.4860    0.6918 C   0  0  0  0  0  0  0  0  0  0  0  0
    1.4392    1.9318   -0.6229 C   0  0  0  0  0  0  0  0  0  0  0  0
   -0.9359   -1.6957    0.1767 C   0  0  2  0  0  0  0  0  0  0  0  0
    2.8273    1.4567   -0.1409 C   0  0  1  0  0  0  0  0  0  0  0  0
   -3.1968   -0.5068   -0.5870 C   0  0  1  0  0  0  0  0  0  0  0  0
   -1.6450    2.0787   -0.7638 C   0  0  0  0  0  0  0  0  0  0  0  0
    1.6007   -0.9549   -1.5420 C   0  0  0  0  0  0  0  0  0  0  0  0
   -3.0625    1.9644   -1.3119 C   0  0  0  0  0  0  0  0  0  0  0  0
   -3.8256    0.8924   -0.5765 C   0  0  0  0  0  0  0  0  0  0  0  0
    3.7749   -0.8307    0.4260 C   0  0  0  0  0  0  0  0  0  0  0  0
   -3.2527   -1.0466   -2.0345 C   0  0  0  0  0  0  0  0  0  0  0  0
   -4.0072   -1.4795    0.2572 C   0  0  0  0  0  0  0  0  0  0  0  0
   -4.9616    1.1950    0.0713 C   0  0  0  0  0  0  0  0  0  0  0  0
   -5.1381   -1.1840    0.9054 C   0  0  0  0  0  0  0  0  0  0  0  0
    5.1623   -0.2301    0.3273 C   0  0  0  0  0  0  0  0  0  0  0  0
   -5.7018    0.1769    0.8444 C   0  0  0  0  0  0  0  0  0  0  0  0
    5.9794   -0.5207   -0.9057 C   0  0  0  0  0  0  0  0  0  0  0  0
    0.2728    1.1481    0.9539 H   0  0  0  0  0  0  0  0  0  0  0  0
   -0.7739    0.4304   -1.8081 H   0  0  0  0  0  0  0  0  0  0  0  0
    0.4360   -1.1793    1.7428 H   0  0  0  0  0  0  0  0  0  0  0  0
    1.0444   -2.4412    0.6804 H   0  0  0  0  0  0  0  0  0  0  0  0
    1.4139    1.9591   -1.7185 H   0  0  0  0  0  0  0  0  0  0  0  0
    1.1846    2.9312   -0.2550 H   0  0  0  0  0  0  0  0  0  0  0  0
   -1.4453   -2.3094    0.9289 H   0  0  0  0  0  0  0  0  0  0  0  0
    3.4860    1.3722   -1.0128 H   0  0  0  0  0  0  0  0  0  0  0  0
   -1.0940    2.8072   -1.3702 H   0  0  0  0  0  0  0  0  0  0  0  0
   -1.6825    2.4837    0.2563 H   0  0  0  0  0  0  0  0  0  0  0  0
    2.2985   -0.3121   -2.0877 H   0  0  0  0  0  0  0  0  0  0  0  0
    0.7087   -1.0304   -2.1670 H   0  0  0  0  0  0  0  0  0  0  0  0
    2.0434   -1.9562   -1.5130 H   0  0  0  0  0  0  0  0  0  0  0  0
   -3.0352    1.7330   -2.3829 H   0  0  0  0  0  0  0  0  0  0  0  0
   -3.5561    2.9399   -1.2233 H   0  0  0  0  0  0  0  0  0  0  0  0
   -2.5411   -0.5486   -2.6994 H   0  0  0  0  0  0  0  0  0  0  0  0
   -4.2507   -0.9037   -2.4699 H   0  0  0  0  0  0  0  0  0  0  0  0
   -3.0511   -2.1218   -2.0879 H   0  0  0  0  0  0  0  0  0  0  0  0
   -3.6532   -2.5063    0.3199 H   0  0  0  0  0  0  0  0  0  0  0  0
    3.1579    0.7979    2.2896 H   0  0  0  0  0  0  0  0  0  0  0  0
   -0.4483   -3.2911   -0.8341 H   0  0  0  0  0  0  0  0  0  0  0  0
    3.4803    3.2497    0.2450 H   0  0  0  0  0  0  0  0  0  0  0  0
   -5.3730    2.1988    0.0655 H   0  0  0  0  0  0  0  0  0  0  0  0
   -5.6714   -1.9329    1.4793 H   0  0  0  0  0  0  0  0  0  0  0  0
    5.4381   -0.1686   -1.7878 H   0  0  0  0  0  0  0  0  0  0  0  0
    6.1626   -1.5964   -0.9718 H   0  0  0  0  0  0  0  0  0  0  0  0
    7.7130   -0.0564   -1.6385 H   0  0  0  0  0  0  0  0  0  0  0  0
  1 12  1  0  0  0  0
  2 13  1  0  0  0  0
  2 50  1  0  0  0  0
  3 16  1  0  0  0  0
  3 51  1  0  0  0  0
  4 17  1  0  0  0  0
  4 52  1  0  0  0  0
  5 23  2  0  0  0  0
  6 28  2  0  0  0  0
  7 29  2  0  0  0  0
  8 30  1  0  0  0  0
  8 57  1  0  0  0  0
  9 10  1  0  0  0  0
  9 13  1  0  0  0  0
  9 14  1  0  0  0  0
  9 20  1  0  0  0  0
 10 11  1  0  0  0  0
 10 15  1  0  0  0  0
 10 31  1  0  0  0  0
 11 12  1  0  0  0  0
 11 19  1  0  0  0  0
 11 32  1  0  0  0  0
 12 16  1  0  0  0  0
 12 18  1  0  0  0  0
 13 17  1  0  0  0  0
 13 23  1  0  0  0  0
 14 16  1  0  0  0  0
 14 33  1  0  0  0  0
 14 34  1  0  0  0  0
 15 17  1  0  0  0  0
 15 35  1  0  0  0  0
 15 36  1  0  0  0  0
 16 37  1  0  0  0  0
 17 38  1  0  0  0  0
 18 22  1  0  0  0  0
 18 24  1  0  0  0  0
 18 25  1  0  0  0  0
 19 21  1  0  0  0  0
 19 39  1  0  0  0  0
 19 40  1  0  0  0  0
 20 41  1  0  0  0  0
 20 42  1  0  0  0  0
 20 43  1  0  0  0  0
 21 22  1  0  0  0  0
 21 44  1  0  0  0  0
 21 45  1  0  0  0  0
 22 26  2  0  0  0  0
 23 28  1  0  0  0  0
 24 46  1  0  0  0  0
 24 47  1  0  0  0  0
 24 48  1  0  0  0  0
 25 27  2  0  0  0  0
 25 49  1  0  0  0  0
 26 29  1  0  0  0  0
 26 53  1  0  0  0  0
 27 29  1  0  0  0  0
 27 54  1  0  0  0  0
 28 30  1  0  0  0  0
 30 55  1  0  0  0  0
 30 56  1  0  0  0  0
M  END
> <PUBCHEM_COMPOUND_CID>
117072562

> <PUBCHEM_CONFORMER_RMSD>
0.8

> <PUBCHEM_CONFORMER_DIVERSEORDER>
2
5
7
1
4
6
3

> <PUBCHEM_MMFF94_PARTIAL_CHARGES>
29
1 -0.34
12 0.34
13 0.34
16 0.28
17 0.28
18 0.28
2 -0.68
21 0.14
22 -0.28
23 0.51
25 -0.29
26 -0.14
27 -0.14
28 0.51
29 0.54
3 -0.68
30 0.34
4 -0.68
49 0.15
5 -0.57
50 0.4
51 0.4
52 0.4
53 0.15
54 0.15
57 0.4
6 -0.57
7 -0.57
8 -0.68

> <PUBCHEM_EFFECTIVE_ROTOR_COUNT>
4.4

> <PUBCHEM_PHARMACOPHORE_FEATURES>
15
1 2 acceptor
1 2 donor
1 3 acceptor
1 3 donor
1 4 acceptor
1 4 donor
1 5 acceptor
1 6 acceptor
1 7 acceptor
1 8 acceptor
1 8 donor
5 9 10 13 15 17 rings
6 11 12 18 19 21 22 rings
6 18 22 25 26 27 29 rings
6 9 10 11 12 14 16 rings

> <PUBCHEM_HEAVY_ATOM_COUNT>
30

> <PUBCHEM_ATOM_DEF_STEREO_COUNT>
8

> <PUBCHEM_ATOM_UDEF_STEREO_COUNT>
0

> <PUBCHEM_BOND_DEF_STEREO_COUNT>
0

> <PUBCHEM_BOND_UDEF_STEREO_COUNT>
0

> <PUBCHEM_ISOTOPIC_ATOM_COUNT>
0

> <PUBCHEM_COMPONENT_COUNT>
1

> <PUBCHEM_CACTVS_TAUTO_COUNT>
10

> <PUBCHEM_CONFORMER_ID>
06FA62B200000002

> <PUBCHEM_MMFF94_ENERGY>
101.922

> <PUBCHEM_FEATURE_SELFOVERLAP>
76.251

> <PUBCHEM_SHAPE_FINGERPRINT>
10076449 9 18411991243778165092
10675989 125 16531418157304309557
11089746 13 14620792691438304803
11578080 2 17486762245857981320
11796584 16 16056881342884508302
12011746 2 18342457019966789934
12035758 1 18340476816694556608
12107698 1 17967253108777696933
12236239 1 17775565359697721939
12403259 415 18410003338696289360
12422481 6 18335987480796130481
12616971 3 18201435925703465357
12633257 1 17846497058556388597
12788726 201 17987519217207167024
13140716 1 18190744322111713731
13224815 77 18259978293217341925
13583140 156 17096063858455309855
13914758 101 14548466782119110286
14341114 176 18409450249913433049
14617045 38 18408608050346371302
14849402 71 18114751559084672308
14856354 85 18040724692286599543
14955137 171 18410300215378120809
15183329 4 18409441484439154446
15196674 1 18335136527062066949
15685185 35 16518808293059314212
15788980 27 14333402367692214534
1601671 61 18335977602292027046
17349148 13 17561362881399815382
1813 80 16805323275328784446
18608769 82 18114468941176694738
21033648 29 18129360675055139848
21267235 1 18260554428229699469
22182313 1 18267868285447198639
23402539 116 18131344228438585583
23522609 53 17897192185017427356
23559900 14 18341323483503015568
23569943 247 17985829229133986606
24771293 8 18127395960574750704
2838139 119 14979960251053375091
335352 9 18410856568477793925
34797466 226 18335432261915516492
350125 39 18408325475335799988
392239 28 18040444295773312099
4093350 32 17274827978491529764
5104073 3 18338792437357093553
5265222 85 18340495581612355870
59755656 215 18131075896309915566
59755656 520 17060336310421356359
7226269 152 17275388690212693233

> <PUBCHEM_SHAPE_MULTIPOLES>
569.03
13.84
2.1
1.38
5.79
0.33
-0.13
-0.04
2.53
-0.37
-0.3
-0.38
-0.12
0.43

> <PUBCHEM_SHAPE_SELFOVERLAP>
1240.784

> <PUBCHEM_SHAPE_VOLUME>
306.8

> <PUBCHEM_COORDINATE_TYPE>
2
5
10

$$$$
