11704413
  -OEChem-03292013303D

 49 52  0     1  0  0  0  0  0999 V2000
   -3.1074    0.0728   -1.8841 Cl  0  0  0  0  0  0  0  0  0  0  0  0
    0.3043    0.7219   -1.4325 O   0  0  0  0  0  0  0  0  0  0  0  0
    1.8986    0.5477    0.2604 O   0  0  0  0  0  0  0  0  0  0  0  0
   -2.0900    3.4211   -0.9737 O   0  0  0  0  0  0  0  0  0  0  0  0
    4.5749   -0.3283   -0.3161 O   0  0  0  0  0  0  0  0  0  0  0  0
    1.0914   -1.8355   -2.3791 O   0  0  0  0  0  0  0  0  0  0  0  0
    3.0357   -3.0791   -1.0205 O   0  0  0  0  0  0  0  0  0  0  0  0
   -3.9392   -3.9635   -0.4189 N   0  0  0  0  0  0  0  0  0  0  0  0
   -0.5338    1.5448   -0.6126 C   0  0  2  0  0  0  0  0  0  0  0  0
   -0.8741    2.8227   -1.3903 C   0  0  2  0  0  0  0  0  0  0  0  0
    0.3105    2.1024    0.5107 C   0  0  0  0  0  0  0  0  0  0  0  0
   -1.4915    0.7236    0.1837 C   0  0  0  0  0  0  0  0  0  0  0  0
    1.0686   -0.1851   -0.6391 C   0  0  2  0  0  0  0  0  0  0  0  0
    3.6354   -1.1698    0.3458 C   0  0  1  0  0  0  0  0  0  0  0  0
    1.9278   -1.0186   -1.5809 C   0  0  1  0  0  0  0  0  0  0  0  0
    2.6391   -0.3071    1.1465 C   0  0  1  0  0  0  0  0  0  0  0  0
   -1.0574    0.6757    1.5281 C   0  0  0  0  0  0  0  0  0  0  0  0
    0.0902    1.5642    1.7146 C   0  0  0  0  0  0  0  0  0  0  0  0
    0.2707    3.7450   -1.0045 C   0  0  0  0  0  0  0  0  0  0  0  0
    0.9358    3.3082    0.0762 C   0  0  0  0  0  0  0  0  0  0  0  0
    2.8703   -1.8871   -0.7651 C   0  0  0  0  0  0  0  0  0  0  0  0
   -2.6086    0.0255   -0.2362 C   0  0  0  0  0  0  0  0  0  0  0  0
    4.3937   -2.1571    1.2325 C   0  0  0  0  0  0  0  0  0  0  0  0
   -1.7479   -0.0650    2.4711 C   0  0  0  0  0  0  0  0  0  0  0  0
    3.3074    0.6160    2.1632 C   0  0  0  0  0  0  0  0  0  0  0  0
   -3.3044   -0.7270    0.7125 C   0  0  0  0  0  0  0  0  0  0  0  0
   -2.8776   -0.7736    2.0517 C   0  0  0  0  0  0  0  0  0  0  0  0
   -4.5232   -1.5116    0.3411 C   0  0  0  0  0  0  0  0  0  0  0  0
   -4.1992   -2.8833   -0.0846 C   0  0  0  0  0  0  0  0  0  0  0  0
   -0.8945    2.6532   -2.4721 H   0  0  0  0  0  0  0  0  0  0  0  0
    0.4096   -0.8726   -0.0936 H   0  0  0  0  0  0  0  0  0  0  0  0
    2.5240   -0.3881   -2.2485 H   0  0  0  0  0  0  0  0  0  0  0  0
    1.9288   -0.9523    1.6808 H   0  0  0  0  0  0  0  0  0  0  0  0
    0.4533    1.8979    2.6718 H   0  0  0  0  0  0  0  0  0  0  0  0
    0.4786    4.6773   -1.5106 H   0  0  0  0  0  0  0  0  0  0  0  0
    1.7222    3.8327    0.5931 H   0  0  0  0  0  0  0  0  0  0  0  0
    5.0518   -2.7949    0.6305 H   0  0  0  0  0  0  0  0  0  0  0  0
    5.0484   -1.6411    1.9419 H   0  0  0  0  0  0  0  0  0  0  0  0
    3.7095   -2.8074    1.7872 H   0  0  0  0  0  0  0  0  0  0  0  0
   -1.4356   -0.0926    3.5095 H   0  0  0  0  0  0  0  0  0  0  0  0
    3.9522    1.3499    1.6676 H   0  0  0  0  0  0  0  0  0  0  0  0
    2.5730    1.1889    2.7323 H   0  0  0  0  0  0  0  0  0  0  0  0
    3.9061    0.0565    2.8869 H   0  0  0  0  0  0  0  0  0  0  0  0
   -2.2108    4.2354   -1.4916 H   0  0  0  0  0  0  0  0  0  0  0  0
   -3.4262   -1.3614    2.7844 H   0  0  0  0  0  0  0  0  0  0  0  0
    4.0938    0.4152   -0.7174 H   0  0  0  0  0  0  0  0  0  0  0  0
    0.5258   -2.3619   -1.7886 H   0  0  0  0  0  0  0  0  0  0  0  0
   -5.1147   -1.0013   -0.4269 H   0  0  0  0  0  0  0  0  0  0  0  0
   -5.1985   -1.5619    1.2059 H   0  0  0  0  0  0  0  0  0  0  0  0
  1 22  1  0  0  0  0
  2  9  1  0  0  0  0
  2 13  1  0  0  0  0
  3 13  1  0  0  0  0
  3 16  1  0  0  0  0
  4 10  1  0  0  0  0
  4 44  1  0  0  0  0
  5 14  1  0  0  0  0
  5 46  1  0  0  0  0
  6 15  1  0  0  0  0
  6 47  1  0  0  0  0
  7 21  2  0  0  0  0
  8 29  3  0  0  0  0
  9 10  1  0  0  0  0
  9 11  1  0  0  0  0
  9 12  1  0  0  0  0
 10 19  1  0  0  0  0
 10 30  1  0  0  0  0
 11 18  2  0  0  0  0
 11 20  1  0  0  0  0
 12 17  2  0  0  0  0
 12 22  1  0  0  0  0
 13 15  1  0  0  0  0
 13 31  1  0  0  0  0
 14 16  1  0  0  0  0
 14 21  1  0  0  0  0
 14 23  1  0  0  0  0
 15 21  1  0  0  0  0
 15 32  1  0  0  0  0
 16 25  1  0  0  0  0
 16 33  1  0  0  0  0
 17 18  1  0  0  0  0
 17 24  1  0  0  0  0
 18 34  1  0  0  0  0
 19 20  2  0  0  0  0
 19 35  1  0  0  0  0
 20 36  1  0  0  0  0
 22 26  2  0  0  0  0
 23 37  1  0  0  0  0
 23 38  1  0  0  0  0
 23 39  1  0  0  0  0
 24 27  2  0  0  0  0
 24 40  1  0  0  0  0
 25 41  1  0  0  0  0
 25 42  1  0  0  0  0
 25 43  1  0  0  0  0
 26 27  1  0  0  0  0
 26 28  1  0  0  0  0
 27 45  1  0  0  0  0
 28 29  1  0  0  0  0
 28 48  1  0  0  0  0
 28 49  1  0  0  0  0
M  END
> <PUBCHEM_COMPOUND_CID>
11704413

> <PUBCHEM_CONFORMER_RMSD>
0.8

> <PUBCHEM_CONFORMER_DIVERSEORDER>
1
5
3
4
2

> <PUBCHEM_MMFF94_PARTIAL_CHARGES>
35
1 -0.18
10 0.42
11 -0.14
12 -0.14
13 0.56
14 0.34
15 0.34
16 0.28
17 0.03
18 -0.18
19 -0.29
2 -0.56
20 -0.15
21 0.45
22 0.18
24 -0.15
26 -0.14
27 -0.15
28 0.34
29 0.36
3 -0.56
34 0.15
35 0.15
36 0.15
4 -0.68
40 0.15
44 0.4
45 0.15
46 0.4
47 0.4
5 -0.68
6 -0.68
7 -0.57
8 -0.56
9 0.56

> <PUBCHEM_EFFECTIVE_ROTOR_COUNT>
4.2

> <PUBCHEM_PHARMACOPHORE_FEATURES>
14
1 2 acceptor
1 3 acceptor
1 4 acceptor
1 4 donor
1 5 acceptor
1 5 donor
1 6 acceptor
1 6 donor
1 7 acceptor
1 8 acceptor
5 9 10 11 19 20 rings
5 9 11 12 17 18 rings
6 12 17 22 24 26 27 rings
6 3 13 14 15 16 21 rings

> <PUBCHEM_HEAVY_ATOM_COUNT>
29

> <PUBCHEM_ATOM_DEF_STEREO_COUNT>
6

> <PUBCHEM_ATOM_UDEF_STEREO_COUNT>
0

> <PUBCHEM_BOND_DEF_STEREO_COUNT>
0

> <PUBCHEM_BOND_UDEF_STEREO_COUNT>
0

> <PUBCHEM_ISOTOPIC_ATOM_COUNT>
0

> <PUBCHEM_COMPONENT_COUNT>
1

> <PUBCHEM_CACTVS_TAUTO_COUNT>
4

> <PUBCHEM_CONFORMER_ID>
00B2985D00000001

> <PUBCHEM_MMFF94_ENERGY>
115.0044

> <PUBCHEM_FEATURE_SELFOVERLAP>
71.492

> <PUBCHEM_SHAPE_FINGERPRINT>
11578080 2 18131350774038122417
11582403 64 16248199531551328712
11828532 37 17532358950777492415
12156800 1 12041563799727342384
12160290 23 17610648335121856325
12363563 72 18261114066837299291
12553582 1 18119278175045694603
12633257 1 17128194731813602506
12788726 201 17969511398292345129
13004483 165 18262802848041344587
13083527 12 18265608973466829697
13224815 77 18058166129600317172
133893 2 17974876130604756721
13544653 18 18131061641228732435
13583140 156 18052796084951593906
13681431 1 18189635979883815317
13911987 19 16305761430212042724
14840074 17 18121769797792302672
14844126 61 18044932376977441050
14863182 85 17558283273525932687
16945 1 17987790942444688697
17974551 9 15982036327508563059
1813 80 18336283287645931651
20626108 58 18267019638691061723
20775530 9 18342465815591307543
21304303 282 17249739097912987292
21344244 181 17979060593119630597
21421861 104 17912110496733163771
21452121 199 18187927347483080077
21756936 100 15410029912295454106
23419403 2 18058144211813111249
23559900 14 17558860431684629119
3027735 51 17836080070778687447
463206 1 18040715879024628779
469060 322 17913455096189900854
57527293 21 18410573968583577400
5845 1 9362207872621679472
6086070 43 11379113469116863099
633830 44 8934733192270574019
6669772 16 17688326993985279932
81228 2 18119816802441413849
9981440 41 17123638304510120242

> <PUBCHEM_SHAPE_MULTIPOLES>
558.48
7.47
4.14
2.14
0.03
1.2
-0.42
-8.44
-1.02
1.14
1.65
0
-0.12
0.71

> <PUBCHEM_SHAPE_SELFOVERLAP>
1234.186

> <PUBCHEM_SHAPE_VOLUME>
299.2

> <PUBCHEM_COORDINATE_TYPE>
2
5
10

$$$$
