11705150
  -OEChem-03292013303D

 70 71  0     1  0  0  0  0  0999 V2000
    2.0636   -1.1748    0.7372 O   0  0  0  0  0  0  0  0  0  0  0  0
    3.8487    1.8388   -0.4133 O   0  0  0  0  0  0  0  0  0  0  0  0
    4.3326   -2.2820   -0.6410 O   0  0  0  0  0  0  0  0  0  0  0  0
   -0.5580    1.2592    1.5728 O   0  0  0  0  0  0  0  0  0  0  0  0
    5.9464    2.2157   -1.1231 O   0  0  0  0  0  0  0  0  0  0  0  0
    3.1512   -3.2016    1.1184 O   0  0  0  0  0  0  0  0  0  0  0  0
   -0.7592    1.0628   -0.7206 O   0  0  0  0  0  0  0  0  0  0  0  0
   -4.8903    3.8733   -0.8768 O   0  0  0  0  0  0  0  0  0  0  0  0
    2.8824   -0.3890   -0.1418 C   0  0  1  0  0  0  0  0  0  0  0  0
    3.0189    1.0244    0.4289 C   0  0  2  0  0  0  0  0  0  0  0  0
    1.6532    1.6940    0.6523 C   0  0  1  0  0  0  0  0  0  0  0  0
    4.3070   -0.9690   -0.0774 C   0  0  2  0  0  0  0  0  0  0  0  0
    0.7771    0.7660    1.5141 C   0  0  2  0  0  0  0  0  0  0  0  0
    0.7455   -0.6637    0.9531 C   0  0  2  0  0  0  0  0  0  0  0  0
    5.3259   -0.0947   -0.8248 C   0  0  1  0  0  0  0  0  0  0  0  0
    2.3277   -0.4426   -1.5790 C   0  0  0  0  0  0  0  0  0  0  0  0
    1.8144    3.0780    1.2953 C   0  0  0  0  0  0  0  0  0  0  0  0
    5.0875    1.4117   -0.7648 C   0  0  0  0  0  0  0  0  0  0  0  0
    0.0472   -1.6222    1.9161 C   0  0  0  0  0  0  0  0  0  0  0  0
    6.7444   -0.4181   -0.3450 C   0  0  0  0  0  0  0  0  0  0  0  0
    3.5001   -3.1899   -0.0543 C   0  0  0  0  0  0  0  0  0  0  0  0
   -1.2062    1.3549    0.3773 C   0  0  0  0  0  0  0  0  0  0  0  0
    3.0589   -4.1984   -1.0713 C   0  0  0  0  0  0  0  0  0  0  0  0
   -2.5628    1.8820    0.6376 C   0  0  0  0  0  0  0  0  0  0  0  0
   -3.4108    2.0790   -0.3808 C   0  0  0  0  0  0  0  0  0  0  0  0
   -4.8033    2.6176   -0.2006 C   0  0  2  0  0  0  0  0  0  0  0  0
   -5.8874    1.6872   -0.7620 C   0  0  0  0  0  0  0  0  0  0  0  0
   -5.9259    0.3199   -0.0732 C   0  0  0  0  0  0  0  0  0  0  0  0
   -7.0433   -0.5558   -0.6459 C   0  0  0  0  0  0  0  0  0  0  0  0
   -7.1461   -1.9280    0.0262 C   0  0  0  0  0  0  0  0  0  0  0  0
   -8.2134   -2.8306   -0.5938 C   0  0  0  0  0  0  0  0  0  0  0  0
   -8.2260   -4.2040    0.0602 C   0  0  0  0  0  0  0  0  0  0  0  0
    3.5088    0.9781    1.4134 H   0  0  0  0  0  0  0  0  0  0  0  0
    1.2328    1.9074   -0.3322 H   0  0  0  0  0  0  0  0  0  0  0  0
    4.6169   -1.0593    0.9742 H   0  0  0  0  0  0  0  0  0  0  0  0
    1.1744    0.7501    2.5368 H   0  0  0  0  0  0  0  0  0  0  0  0
    0.2073   -0.7703    0.0114 H   0  0  0  0  0  0  0  0  0  0  0  0
    5.2834   -0.3546   -1.8917 H   0  0  0  0  0  0  0  0  0  0  0  0
    3.0120   -0.0019   -2.3096 H   0  0  0  0  0  0  0  0  0  0  0  0
    2.1131   -1.4698   -1.8860 H   0  0  0  0  0  0  0  0  0  0  0  0
    1.3827    0.0949   -1.6772 H   0  0  0  0  0  0  0  0  0  0  0  0
    2.4243    3.7375    0.6693 H   0  0  0  0  0  0  0  0  0  0  0  0
    0.8417    3.5620    1.4311 H   0  0  0  0  0  0  0  0  0  0  0  0
    2.2955    3.0044    2.2765 H   0  0  0  0  0  0  0  0  0  0  0  0
    0.5673   -1.6549    2.8799 H   0  0  0  0  0  0  0  0  0  0  0  0
    0.0662   -2.6430    1.5181 H   0  0  0  0  0  0  0  0  0  0  0  0
   -0.9952   -1.3380    2.0881 H   0  0  0  0  0  0  0  0  0  0  0  0
    6.9546   -1.4898   -0.4229 H   0  0  0  0  0  0  0  0  0  0  0  0
    6.8853   -0.1143    0.6983 H   0  0  0  0  0  0  0  0  0  0  0  0
    7.4936    0.1103   -0.9445 H   0  0  0  0  0  0  0  0  0  0  0  0
    3.8622   -4.9186   -1.2437 H   0  0  0  0  0  0  0  0  0  0  0  0
    2.7855   -3.7073   -2.0080 H   0  0  0  0  0  0  0  0  0  0  0  0
    2.1755   -4.7239   -0.6974 H   0  0  0  0  0  0  0  0  0  0  0  0
   -2.8472    2.1000    1.6613 H   0  0  0  0  0  0  0  0  0  0  0  0
   -3.1048    1.8592   -1.4010 H   0  0  0  0  0  0  0  0  0  0  0  0
   -5.0054    2.8104    0.8600 H   0  0  0  0  0  0  0  0  0  0  0  0
   -5.7379    1.5572   -1.8423 H   0  0  0  0  0  0  0  0  0  0  0  0
   -6.8642    2.1780   -0.6600 H   0  0  0  0  0  0  0  0  0  0  0  0
   -6.0827    0.4558    1.0036 H   0  0  0  0  0  0  0  0  0  0  0  0
   -4.9686   -0.1983   -0.1999 H   0  0  0  0  0  0  0  0  0  0  0  0
   -6.8737   -0.6951   -1.7209 H   0  0  0  0  0  0  0  0  0  0  0  0
   -8.0038   -0.0362   -0.5417 H   0  0  0  0  0  0  0  0  0  0  0  0
   -6.1714   -2.4278   -0.0389 H   0  0  0  0  0  0  0  0  0  0  0  0
   -7.3598   -1.7912    1.0936 H   0  0  0  0  0  0  0  0  0  0  0  0
   -5.7796    4.2323   -0.7162 H   0  0  0  0  0  0  0  0  0  0  0  0
   -8.0243   -2.9461   -1.6673 H   0  0  0  0  0  0  0  0  0  0  0  0
   -9.2001   -2.3660   -0.4855 H   0  0  0  0  0  0  0  0  0  0  0  0
   -7.2614   -4.7067   -0.0634 H   0  0  0  0  0  0  0  0  0  0  0  0
   -8.4389   -4.1264    1.1311 H   0  0  0  0  0  0  0  0  0  0  0  0
   -8.9974   -4.8330   -0.3950 H   0  0  0  0  0  0  0  0  0  0  0  0
  1  9  1  0  0  0  0
  1 14  1  0  0  0  0
  2 10  1  0  0  0  0
  2 18  1  0  0  0  0
  3 12  1  0  0  0  0
  3 21  1  0  0  0  0
  4 13  1  0  0  0  0
  4 22  1  0  0  0  0
  5 18  2  0  0  0  0
  6 21  2  0  0  0  0
  7 22  2  0  0  0  0
  8 26  1  0  0  0  0
  8 65  1  0  0  0  0
  9 10  1  0  0  0  0
  9 12  1  0  0  0  0
  9 16  1  0  0  0  0
 10 11  1  0  0  0  0
 10 33  1  0  0  0  0
 11 13  1  0  0  0  0
 11 17  1  0  0  0  0
 11 34  1  0  0  0  0
 12 15  1  0  0  0  0
 12 35  1  0  0  0  0
 13 14  1  0  0  0  0
 13 36  1  0  0  0  0
 14 19  1  0  0  0  0
 14 37  1  0  0  0  0
 15 18  1  0  0  0  0
 15 20  1  0  0  0  0
 15 38  1  0  0  0  0
 16 39  1  0  0  0  0
 16 40  1  0  0  0  0
 16 41  1  0  0  0  0
 17 42  1  0  0  0  0
 17 43  1  0  0  0  0
 17 44  1  0  0  0  0
 19 45  1  0  0  0  0
 19 46  1  0  0  0  0
 19 47  1  0  0  0  0
 20 48  1  0  0  0  0
 20 49  1  0  0  0  0
 20 50  1  0  0  0  0
 21 23  1  0  0  0  0
 22 24  1  0  0  0  0
 23 51  1  0  0  0  0
 23 52  1  0  0  0  0
 23 53  1  0  0  0  0
 24 25  2  0  0  0  0
 24 54  1  0  0  0  0
 25 26  1  0  0  0  0
 25 55  1  0  0  0  0
 26 27  1  0  0  0  0
 26 56  1  0  0  0  0
 27 28  1  0  0  0  0
 27 57  1  0  0  0  0
 27 58  1  0  0  0  0
 28 29  1  0  0  0  0
 28 59  1  0  0  0  0
 28 60  1  0  0  0  0
 29 30  1  0  0  0  0
 29 61  1  0  0  0  0
 29 62  1  0  0  0  0
 30 31  1  0  0  0  0
 30 63  1  0  0  0  0
 30 64  1  0  0  0  0
 31 32  1  0  0  0  0
 31 66  1  0  0  0  0
 31 67  1  0  0  0  0
 32 68  1  0  0  0  0
 32 69  1  0  0  0  0
 32 70  1  0  0  0  0
M  END
> <PUBCHEM_COMPOUND_CID>
11705150

> <PUBCHEM_CONFORMER_RMSD>
1.2

> <PUBCHEM_CONFORMER_DIVERSEORDER>
1
17
34
27
53
13
18
50
44
22
47
39
9
12
36
49
21
48
7
15
37
16
24
29
10
40
45
19
54
41
30
43
46
52
14
25
2
38
42
32
20
33
28
35
6
51
23
26
8
11
31
5
3
4

> <PUBCHEM_MMFF94_PARTIAL_CHARGES>
24
1 -0.56
10 0.28
12 0.28
13 0.28
14 0.28
15 0.06
18 0.66
2 -0.43
21 0.66
22 0.71
23 0.06
24 -0.14
25 -0.29
26 0.42
3 -0.43
4 -0.43
5 -0.57
54 0.15
55 0.15
6 -0.57
65 0.4
7 -0.57
8 -0.68
9 0.28

> <PUBCHEM_EFFECTIVE_ROTOR_COUNT>
12.4

> <PUBCHEM_PHARMACOPHORE_FEATURES>
10
1 1 acceptor
1 32 hydrophobe
1 5 acceptor
1 6 acceptor
1 7 acceptor
1 8 acceptor
1 8 donor
5 27 28 29 30 31 hydrophobe
6 1 9 10 11 13 14 rings
6 2 9 10 12 15 18 rings

> <PUBCHEM_HEAVY_ATOM_COUNT>
32

> <PUBCHEM_ATOM_DEF_STEREO_COUNT>
8

> <PUBCHEM_ATOM_UDEF_STEREO_COUNT>
0

> <PUBCHEM_BOND_DEF_STEREO_COUNT>
1

> <PUBCHEM_BOND_UDEF_STEREO_COUNT>
0

> <PUBCHEM_ISOTOPIC_ATOM_COUNT>
0

> <PUBCHEM_COMPONENT_COUNT>
1

> <PUBCHEM_CACTVS_TAUTO_COUNT>
1

> <PUBCHEM_CONFORMER_ID>
00B29B3E00000001

> <PUBCHEM_MMFF94_ENERGY>
85.187

> <PUBCHEM_FEATURE_SELFOVERLAP>
50.817

> <PUBCHEM_SHAPE_FINGERPRINT>
10595046 47 18409731720812097349
10693767 8 17983305829295843622
11103572 155 18340775845761865979
11497681 19 18410011070301521533
117089 54 18200878379605438343
11761917 116 18268993258163883871
11963148 33 18411410700869378031
12422481 6 10519978267036537851
13140716 1 9725335865310129324
1361 4 18411700950854346239
13690498 29 18412819197477380381
13692114 37 18336822095952724882
13782708 43 18411699864163836097
15352257 5 18342739616204323191
17492 89 17838901426331978686
21196832 93 18337111263295009427
22393880 68 18189609450498374113
23569917 315 18272097055146371798
25222932 49 18344144791178534574
404807 78 18264214788496836447
439807 62 18413387623424056309
484989 97 18342461460398776651

> <PUBCHEM_SHAPE_MULTIPOLES>
611.59
20.61
4.9
1.32
40.08
3.26
0.3
12.83
-6.97
4.76
-0.38
-0.69
-0.03
0.66

> <PUBCHEM_SHAPE_SELFOVERLAP>
1242.064

> <PUBCHEM_SHAPE_VOLUME>
351.9

> <PUBCHEM_COORDINATE_TYPE>
2
5
10

$$$$
