11717517
  -OEChem-03292013303D

 44 47  0     0  0  0  0  0  0999 V2000
    0.1028   -0.7316    0.3718 O   0  0  0  0  0  0  0  0  0  0  0  0
    1.0467    4.6199   -0.3196 O   0  0  0  0  0  0  0  0  0  0  0  0
   -5.2708   -3.3438    0.2378 O   0  0  0  0  0  0  0  0  0  0  0  0
    1.4808   -3.8993   -0.3969 O   0  0  0  0  0  0  0  0  0  0  0  0
    3.2065    2.6426    0.1773 N   0  0  0  0  0  0  0  0  0  0  0  0
   -1.6726    3.4286   -0.4071 N   0  0  0  0  0  0  0  0  0  0  0  0
    3.7078   -3.1714   -0.3050 N   0  0  0  0  0  0  0  0  0  0  0  0
    1.6423    1.0594    0.2578 C   0  0  0  0  0  0  0  0  0  0  0  0
    2.9069    0.4555    0.4682 C   0  0  0  0  0  0  0  0  0  0  0  0
    1.8560    2.4221    0.0793 C   0  0  0  0  0  0  0  0  0  0  0  0
   -0.7384    1.4428   -0.0273 C   0  0  0  0  0  0  0  0  0  0  0  0
   -0.4725    2.7972   -0.1997 C   0  0  0  0  0  0  0  0  0  0  0  0
    0.3131    0.4646    0.2164 C   0  0  0  0  0  0  0  0  0  0  0  0
    3.1834   -0.9759    0.7027 C   0  0  0  0  0  0  0  0  0  0  0  0
    0.8354    3.4233   -0.1655 C   0  0  0  0  0  0  0  0  0  0  0  0
   -2.1405    1.2685   -0.1362 C   0  0  0  0  0  0  0  0  0  0  0  0
    3.8524    1.4562    0.4133 C   0  0  0  0  0  0  0  0  0  0  0  0
    3.4336   -1.7864   -0.5799 C   0  0  0  0  0  0  0  0  0  0  0  0
   -2.6902    2.5102   -0.3702 C   0  0  0  0  0  0  0  0  0  0  0  0
   -2.9443    0.0842   -0.0403 C   0  0  0  0  0  0  0  0  0  0  0  0
   -3.2220   -0.6664   -1.1835 C   0  0  0  0  0  0  0  0  0  0  0  0
   -3.4498   -0.3190    1.1964 C   0  0  0  0  0  0  0  0  0  0  0  0
    5.0981   -3.5651   -0.0959 C   0  0  0  0  0  0  0  0  0  0  0  0
   -4.0036   -1.8180   -1.0901 C   0  0  0  0  0  0  0  0  0  0  0  0
   -4.2315   -1.4704    1.2898 C   0  0  0  0  0  0  0  0  0  0  0  0
    2.6787   -4.1080   -0.2401 C   0  0  0  0  0  0  0  0  0  0  0  0
   -4.5084   -2.2200    0.1465 C   0  0  0  0  0  0  0  0  0  0  0  0
    2.3681   -1.4335    1.2758 H   0  0  0  0  0  0  0  0  0  0  0  0
    4.0643   -1.0648    1.3531 H   0  0  0  0  0  0  0  0  0  0  0  0
    4.9281    1.4325    0.5197 H   0  0  0  0  0  0  0  0  0  0  0  0
    3.6580    3.5426    0.0890 H   0  0  0  0  0  0  0  0  0  0  0  0
    2.5447   -1.7236   -1.2201 H   0  0  0  0  0  0  0  0  0  0  0  0
    4.2668   -1.3636   -1.1542 H   0  0  0  0  0  0  0  0  0  0  0  0
   -1.7902    4.4203   -0.5633 H   0  0  0  0  0  0  0  0  0  0  0  0
   -3.7137    2.8295   -0.5148 H   0  0  0  0  0  0  0  0  0  0  0  0
   -2.8354   -0.3678   -2.1552 H   0  0  0  0  0  0  0  0  0  0  0  0
   -3.2426    0.2531    2.0978 H   0  0  0  0  0  0  0  0  0  0  0  0
    5.1740   -4.6336    0.1226 H   0  0  0  0  0  0  0  0  0  0  0  0
    5.5069   -2.9969    0.7440 H   0  0  0  0  0  0  0  0  0  0  0  0
    5.6667   -3.3439   -1.0036 H   0  0  0  0  0  0  0  0  0  0  0  0
   -4.2117   -2.3934   -1.9881 H   0  0  0  0  0  0  0  0  0  0  0  0
   -4.6216   -1.7788    2.2559 H   0  0  0  0  0  0  0  0  0  0  0  0
    3.0549   -5.1206   -0.0219 H   0  0  0  0  0  0  0  0  0  0  0  0
   -5.3606   -3.7364   -0.6476 H   0  0  0  0  0  0  0  0  0  0  0  0
  1 13  2  0  0  0  0
  2 15  2  0  0  0  0
  3 27  1  0  0  0  0
  3 44  1  0  0  0  0
  4 26  2  0  0  0  0
  5 10  1  0  0  0  0
  5 17  1  0  0  0  0
  5 31  1  0  0  0  0
  6 12  1  0  0  0  0
  6 19  1  0  0  0  0
  6 34  1  0  0  0  0
  7 18  1  0  0  0  0
  7 23  1  0  0  0  0
  7 26  1  0  0  0  0
  8  9  1  0  0  0  0
  8 10  2  0  0  0  0
  8 13  1  0  0  0  0
  9 14  1  0  0  0  0
  9 17  2  0  0  0  0
 10 15  1  0  0  0  0
 11 12  2  0  0  0  0
 11 13  1  0  0  0  0
 11 16  1  0  0  0  0
 12 15  1  0  0  0  0
 14 18  1  0  0  0  0
 14 28  1  0  0  0  0
 14 29  1  0  0  0  0
 16 19  2  0  0  0  0
 16 20  1  0  0  0  0
 17 30  1  0  0  0  0
 18 32  1  0  0  0  0
 18 33  1  0  0  0  0
 19 35  1  0  0  0  0
 20 21  2  0  0  0  0
 20 22  1  0  0  0  0
 21 24  1  0  0  0  0
 21 36  1  0  0  0  0
 22 25  2  0  0  0  0
 22 37  1  0  0  0  0
 23 38  1  0  0  0  0
 23 39  1  0  0  0  0
 23 40  1  0  0  0  0
 24 27  2  0  0  0  0
 24 41  1  0  0  0  0
 25 27  1  0  0  0  0
 25 42  1  0  0  0  0
 26 43  1  0  0  0  0
M  END
> <PUBCHEM_COMPOUND_CID>
11717517

> <PUBCHEM_CONFORMER_RMSD>
0.8

> <PUBCHEM_CONFORMER_DIVERSEORDER>
1
19
22
2
21
15
23
20
18
8
9
17
24
10
16
5
25
3
4
11
12
7
6
13
14

> <PUBCHEM_MMFF94_PARTIAL_CHARGES>
37
1 -0.57
10 -0.24
11 -0.09
12 -0.24
13 0.74
14 0.18
15 0.74
16 -0.05
17 -0.3
18 0.3
19 -0.3
2 -0.57
20 0.05
21 -0.15
22 -0.15
23 0.3
24 -0.15
25 -0.15
26 0.57
27 0.08
3 -0.53
30 0.15
31 0.27
34 0.27
35 0.15
36 0.15
37 0.15
4 -0.57
41 0.15
42 0.15
43 0.06
44 0.45
5 0.03
6 0.03
7 -0.66
8 -0.09
9 -0.18

> <PUBCHEM_EFFECTIVE_ROTOR_COUNT>
5

> <PUBCHEM_PHARMACOPHORE_FEATURES>
12
1 1 acceptor
1 2 acceptor
1 3 donor
1 4 acceptor
1 5 cation
1 5 donor
1 6 cation
1 6 donor
5 5 8 9 10 17 rings
5 6 11 12 16 19 rings
6 20 21 22 24 25 27 rings
6 8 10 11 12 13 15 rings

> <PUBCHEM_HEAVY_ATOM_COUNT>
27

> <PUBCHEM_ATOM_DEF_STEREO_COUNT>
0

> <PUBCHEM_ATOM_UDEF_STEREO_COUNT>
0

> <PUBCHEM_BOND_DEF_STEREO_COUNT>
0

> <PUBCHEM_BOND_UDEF_STEREO_COUNT>
0

> <PUBCHEM_ISOTOPIC_ATOM_COUNT>
0

> <PUBCHEM_COMPONENT_COUNT>
1

> <PUBCHEM_CACTVS_TAUTO_COUNT>
200

> <PUBCHEM_CONFORMER_ID>
00B2CB8D00000001

> <PUBCHEM_MMFF94_ENERGY>
44.695

> <PUBCHEM_FEATURE_SELFOVERLAP>
61.087

> <PUBCHEM_SHAPE_FINGERPRINT>
10622 236 17773009051663234015
11578080 2 17558246973322807737
12107183 9 18198077906425096937
12236239 1 17627243591407390289
12553582 1 18267016339728793381
12969540 37 18336542721188030830
12990986 174 18193556654023508426
13140716 1 18268712714519745488
1361 2 17978791543156694443
14251757 5 17760370993939323862
14844126 61 17831862343742139194
14863182 85 18120376707642570876
15320467 1 18266739275679006942
15927050 60 16896242210037937348
16628084 112 17325762587990580637
17492 89 18411133640918171651
19930381 70 18337670922796975955
20028762 73 17839462533053665063
20101258 96 18194413198929285170
20645477 70 17900531582583164009
20775438 99 17761723539602979133
20775530 9 18339359665129966418
21197605 99 17397834952221697091
221490 88 18338798918847903322
23379529 103 18125165939912105494
23559900 14 18338786806855791672
3737641 26 18341060678400539134
3882209 13 17760321623407216727
4280585 95 18047459046656735570
4616759 239 17482528812996879058
463206 1 17978511923595130518
5265222 85 16609436187170138998
5309563 4 18410577288203620919
56633871 153 18339934718923324081
9709674 26 18338227155194485061

> <PUBCHEM_SHAPE_MULTIPOLES>
517.23
9.57
6.16
0.91
1.86
0.56
0.05
11.26
0.52
-3.59
-0.92
0.69
0.28
0.93

> <PUBCHEM_SHAPE_SELFOVERLAP>
1154.958

> <PUBCHEM_SHAPE_VOLUME>
277.2

> <PUBCHEM_COORDINATE_TYPE>
2
5
10

$$$$
