11711453
  -OEChem-03292013303D

 58 60  0     1  0  0  0  0  0999 V2000
    0.1449    3.5730    1.9254 O   0  0  0  0  0  0  0  0  0  0  0  0
    3.9852    4.1275   -0.4328 O   0  0  0  0  0  0  0  0  0  0  0  0
   -0.1891   -1.6198    1.4777 O   0  0  0  0  0  0  0  0  0  0  0  0
    3.9683   -3.1839   -0.2353 O   0  0  0  0  0  0  0  0  0  0  0  0
    1.5822   -3.6530    1.0819 O   0  0  0  0  0  0  0  0  0  0  0  0
   -2.9600   -0.2365   -2.9676 O   0  0  0  0  0  0  0  0  0  0  0  0
   -4.4609    0.0717    1.5698 O   0  0  0  0  0  0  0  0  0  0  0  0
   -4.9917   -0.4526   -1.0972 O   0  0  0  0  0  0  0  0  0  0  0  0
    0.6162    2.4277   -0.1174 C   0  0  1  0  0  0  0  0  0  0  0  0
    2.1447    2.6560   -0.0370 C   0  0  1  0  0  0  0  0  0  0  0  0
    0.2257    1.0551    0.5258 C   0  0  2  0  0  0  0  0  0  0  0  0
    2.8598    1.5360   -0.8059 C   0  0  0  0  0  0  0  0  0  0  0  0
    1.2413   -0.0658    0.3106 C   0  0  0  0  0  0  0  0  0  0  0  0
    2.4792    0.1688   -0.3104 C   0  0  0  0  0  0  0  0  0  0  0  0
   -0.1675    3.5711    0.5483 C   0  0  0  0  0  0  0  0  0  0  0  0
    2.5863    4.0097   -0.6022 C   0  0  0  0  0  0  0  0  0  0  0  0
   -1.1818    0.6480    0.0880 C   0  0  0  0  0  0  0  0  0  0  0  0
    0.9661   -1.3603    0.7933 C   0  0  0  0  0  0  0  0  0  0  0  0
    3.3768   -0.8947   -0.5024 C   0  0  0  0  0  0  0  0  0  0  0  0
   -2.1890    0.5437    1.0368 C   0  0  0  0  0  0  0  0  0  0  0  0
   -1.4321    0.3880   -1.2522 C   0  0  0  0  0  0  0  0  0  0  0  0
    1.8715   -2.4061    0.6123 C   0  0  0  0  0  0  0  0  0  0  0  0
    3.0742   -2.1749   -0.0439 C   0  0  0  0  0  0  0  0  0  0  0  0
   -2.7158    0.0161   -1.6514 C   0  0  0  0  0  0  0  0  0  0  0  0
   -3.4728    0.1718    0.6375 C   0  0  0  0  0  0  0  0  0  0  0  0
   -3.7361   -0.0920   -0.7066 C   0  0  0  0  0  0  0  0  0  0  0  0
   -0.0522   -2.1040    2.8097 C   0  0  0  0  0  0  0  0  0  0  0  0
    3.8422   -3.9433   -1.4362 C   0  0  0  0  0  0  0  0  0  0  0  0
   -2.7801   -1.5791   -3.4140 C   0  0  0  0  0  0  0  0  0  0  0  0
   -4.6356   -1.1981    2.1955 C   0  0  0  0  0  0  0  0  0  0  0  0
    0.3472    2.4348   -1.1826 H   0  0  0  0  0  0  0  0  0  0  0  0
    2.4663    2.6036    1.0133 H   0  0  0  0  0  0  0  0  0  0  0  0
    0.2227    1.1899    1.6171 H   0  0  0  0  0  0  0  0  0  0  0  0
    2.6229    1.5930   -1.8761 H   0  0  0  0  0  0  0  0  0  0  0  0
    3.9454    1.6562   -0.7039 H   0  0  0  0  0  0  0  0  0  0  0  0
    0.0595    4.5485    0.1164 H   0  0  0  0  0  0  0  0  0  0  0  0
   -1.2462    3.4192    0.4387 H   0  0  0  0  0  0  0  0  0  0  0  0
    2.1318    4.8442   -0.0638 H   0  0  0  0  0  0  0  0  0  0  0  0
    2.3448    4.0985   -1.6666 H   0  0  0  0  0  0  0  0  0  0  0  0
    4.3255   -0.7180   -1.0053 H   0  0  0  0  0  0  0  0  0  0  0  0
   -1.9917    0.7516    2.0852 H   0  0  0  0  0  0  0  0  0  0  0  0
   -0.6427    0.4622   -1.9955 H   0  0  0  0  0  0  0  0  0  0  0  0
   -0.3685    4.2891    2.3362 H   0  0  0  0  0  0  0  0  0  0  0  0
    4.2489    4.9867   -0.8039 H   0  0  0  0  0  0  0  0  0  0  0  0
    2.3409   -4.2356    0.9062 H   0  0  0  0  0  0  0  0  0  0  0  0
    0.9042   -1.8214    3.2637 H   0  0  0  0  0  0  0  0  0  0  0  0
   -0.8535   -1.6629    3.4105 H   0  0  0  0  0  0  0  0  0  0  0  0
   -0.1797   -3.1899    2.8295 H   0  0  0  0  0  0  0  0  0  0  0  0
    4.0122   -3.3060   -2.3097 H   0  0  0  0  0  0  0  0  0  0  0  0
    4.6009   -4.7306   -1.4248 H   0  0  0  0  0  0  0  0  0  0  0  0
    2.8542   -4.4101   -1.4991 H   0  0  0  0  0  0  0  0  0  0  0  0
   -4.9991   -0.5532   -2.0646 H   0  0  0  0  0  0  0  0  0  0  0  0
   -3.4267   -2.2644   -2.8569 H   0  0  0  0  0  0  0  0  0  0  0  0
   -3.0493   -1.6271   -4.4727 H   0  0  0  0  0  0  0  0  0  0  0  0
   -1.7332   -1.8799   -3.3051 H   0  0  0  0  0  0  0  0  0  0  0  0
   -4.8874   -1.9622    1.4532 H   0  0  0  0  0  0  0  0  0  0  0  0
   -3.7294   -1.4858    2.7380 H   0  0  0  0  0  0  0  0  0  0  0  0
   -5.4602   -1.1181    2.9090 H   0  0  0  0  0  0  0  0  0  0  0  0
  1 15  1  0  0  0  0
  1 43  1  0  0  0  0
  2 16  1  0  0  0  0
  2 44  1  0  0  0  0
  3 18  1  0  0  0  0
  3 27  1  0  0  0  0
  4 23  1  0  0  0  0
  4 28  1  0  0  0  0
  5 22  1  0  0  0  0
  5 45  1  0  0  0  0
  6 24  1  0  0  0  0
  6 29  1  0  0  0  0
  7 25  1  0  0  0  0
  7 30  1  0  0  0  0
  8 26  1  0  0  0  0
  8 52  1  0  0  0  0
  9 10  1  0  0  0  0
  9 11  1  0  0  0  0
  9 15  1  0  0  0  0
  9 31  1  0  0  0  0
 10 12  1  0  0  0  0
 10 16  1  0  0  0  0
 10 32  1  0  0  0  0
 11 13  1  0  0  0  0
 11 17  1  0  0  0  0
 11 33  1  0  0  0  0
 12 14  1  0  0  0  0
 12 34  1  0  0  0  0
 12 35  1  0  0  0  0
 13 14  1  0  0  0  0
 13 18  2  0  0  0  0
 14 19  2  0  0  0  0
 15 36  1  0  0  0  0
 15 37  1  0  0  0  0
 16 38  1  0  0  0  0
 16 39  1  0  0  0  0
 17 20  2  0  0  0  0
 17 21  1  0  0  0  0
 18 22  1  0  0  0  0
 19 23  1  0  0  0  0
 19 40  1  0  0  0  0
 20 25  1  0  0  0  0
 20 41  1  0  0  0  0
 21 24  2  0  0  0  0
 21 42  1  0  0  0  0
 22 23  2  0  0  0  0
 24 26  1  0  0  0  0
 25 26  2  0  0  0  0
 27 46  1  0  0  0  0
 27 47  1  0  0  0  0
 27 48  1  0  0  0  0
 28 49  1  0  0  0  0
 28 50  1  0  0  0  0
 28 51  1  0  0  0  0
 29 53  1  0  0  0  0
 29 54  1  0  0  0  0
 29 55  1  0  0  0  0
 30 56  1  0  0  0  0
 30 57  1  0  0  0  0
 30 58  1  0  0  0  0
M  END
> <PUBCHEM_COMPOUND_CID>
11711453

> <PUBCHEM_CONFORMER_RMSD>
1

> <PUBCHEM_CONFORMER_DIVERSEORDER>
1
3
6
2
4
5
7

> <PUBCHEM_MMFF94_PARTIAL_CHARGES>
35
1 -0.68
11 0.29
12 0.14
13 -0.14
14 -0.14
15 0.28
16 0.28
17 -0.14
18 0.08
19 -0.15
2 -0.68
20 -0.15
21 -0.15
22 0.08
23 0.08
24 0.08
25 0.08
26 0.08
27 0.28
28 0.28
29 0.28
3 -0.36
30 0.28
4 -0.36
40 0.15
41 0.15
42 0.15
43 0.4
44 0.4
45 0.45
5 -0.53
52 0.45
6 -0.36
7 -0.36
8 -0.53

> <PUBCHEM_EFFECTIVE_ROTOR_COUNT>
7.8

> <PUBCHEM_PHARMACOPHORE_FEATURES>
13
1 1 acceptor
1 1 donor
1 2 acceptor
1 2 donor
1 3 acceptor
1 4 acceptor
1 5 donor
1 6 acceptor
1 7 acceptor
1 8 donor
6 13 14 18 19 22 23 rings
6 17 20 21 24 25 26 rings
6 9 10 11 12 13 14 rings

> <PUBCHEM_HEAVY_ATOM_COUNT>
30

> <PUBCHEM_ATOM_DEF_STEREO_COUNT>
3

> <PUBCHEM_ATOM_UDEF_STEREO_COUNT>
0

> <PUBCHEM_BOND_DEF_STEREO_COUNT>
0

> <PUBCHEM_BOND_UDEF_STEREO_COUNT>
0

> <PUBCHEM_ISOTOPIC_ATOM_COUNT>
0

> <PUBCHEM_COMPONENT_COUNT>
1

> <PUBCHEM_CACTVS_TAUTO_COUNT>
18

> <PUBCHEM_CONFORMER_ID>
00B2B3DD00000001

> <PUBCHEM_MMFF94_ENERGY>
131.4457

> <PUBCHEM_FEATURE_SELFOVERLAP>
65.996

> <PUBCHEM_SHAPE_FINGERPRINT>
10165383 225 17754761616132181589
11578080 2 17894347787728886109
12156800 1 15669665095563295170
12160290 23 17260162416614849216
12553582 1 18193833739105883739
12788726 201 17181354916298796900
13009979 54 17632289064824343391
13140716 1 18191596452756532904
13583140 156 18269280239399060513
13642711 20 18122934137486769382
13681431 1 18119777305927077369
13692114 37 17549250884351479811
13911987 19 18115325439929529574
15842332 3 17846213410236497429
1813 80 18058173829975837838
19319366 153 18055088798112381769
20693207 138 17749681722441162371
22182313 1 17530968037954347715
23598288 3 17907877110040001996
238 59 17971723766211285095
513202 73 17552083896151211494
5845 1 11573392736204674369
6287921 2 17824561878860001087
6438718 38 17549823283174475338
70251023 43 18339907239485180919
81228 2 17328553165223140697

> <PUBCHEM_SHAPE_MULTIPOLES>
570.43
7.85
5.04
2.39
5.16
2.36
0.93
-3.16
1.67
-8.2
-0.45
3.16
-1.6
-0.15

> <PUBCHEM_SHAPE_SELFOVERLAP>
1221.015

> <PUBCHEM_SHAPE_VOLUME>
315.3

> <PUBCHEM_COORDINATE_TYPE>
2
5
10

$$$$
