11712263
  -OEChem-03292013303D

 67 70  0     0  0  0  0  0  0999 V2000
   -7.9755   -1.0096   -0.7518 O   0  0  0  0  0  0  0  0  0  0  0  0
   -4.7428   -1.0813    2.5208 O   0  0  0  0  0  0  0  0  0  0  0  0
   -4.4823   -2.2628    0.5889 O   0  0  0  0  0  0  0  0  0  0  0  0
    2.6026    2.6441   -0.2891 O   0  0  0  0  0  0  0  0  0  0  0  0
    2.7697   -1.5439   -1.3895 O   0  0  0  0  0  0  0  0  0  0  0  0
   -3.5250    1.2050   -0.0636 N   0  0  0  0  0  0  0  0  0  0  0  0
    1.4992    0.9660   -1.4061 N   0  0  0  0  0  0  0  0  0  0  0  0
    3.5487    0.4933   -0.3644 N   0  0  0  0  0  0  0  0  0  0  0  0
    4.8012   -1.4302   -0.1901 N   0  0  0  0  0  0  0  0  0  0  0  0
   -5.5507   -0.0843    0.5425 C   0  0  0  0  0  0  0  0  0  0  0  0
   -4.6719    1.1357    0.8417 C   0  0  0  0  0  0  0  0  0  0  0  0
   -0.7347    1.7622   -0.7699 C   0  0  0  0  0  0  0  0  0  0  0  0
   -3.0526    2.5902   -0.1899 C   0  0  0  0  0  0  0  0  0  0  0  0
   -2.4496    0.3183    0.4006 C   0  0  0  0  0  0  0  0  0  0  0  0
   -1.8866    2.6877   -1.1759 C   0  0  0  0  0  0  0  0  0  0  0  0
   -1.2626    0.3383   -0.5647 C   0  0  0  0  0  0  0  0  0  0  0  0
   -6.9505    0.1016    1.1517 C   0  0  0  0  0  0  0  0  0  0  0  0
   -5.6592   -0.3068   -0.9753 C   0  0  0  0  0  0  0  0  0  0  0  0
    0.3827    1.7886   -1.8090 C   0  0  0  0  0  0  0  0  0  0  0  0
   -7.9258   -0.9702    0.6728 C   0  0  0  0  0  0  0  0  0  0  0  0
   -6.7146   -1.3532   -1.3223 C   0  0  0  0  0  0  0  0  0  0  0  0
   -4.8687   -1.2680    1.1841 C   0  0  0  0  0  0  0  0  0  0  0  0
    2.5602    1.4677   -0.6529 C   0  0  0  0  0  0  0  0  0  0  0  0
    4.7266    0.7620    0.3891 C   0  0  0  0  0  0  0  0  0  0  0  0
    3.5969   -0.9197   -0.7374 C   0  0  0  0  0  0  0  0  0  0  0  0
    5.4768   -0.4111    0.4877 C   0  0  0  0  0  0  0  0  0  0  0  0
    5.2788   -2.7862   -0.2997 C   0  0  0  0  0  0  0  0  0  0  0  0
    5.1769    1.9307    0.9794 C   0  0  0  0  0  0  0  0  0  0  0  0
    6.6819   -0.4668    1.1651 C   0  0  0  0  0  0  0  0  0  0  0  0
    4.3007   -3.7522    0.3571 C   0  0  0  0  0  0  0  0  0  0  0  0
    5.5150   -3.1478   -1.7603 C   0  0  0  0  0  0  0  0  0  0  0  0
    6.3949    1.8949    1.6689 C   0  0  0  0  0  0  0  0  0  0  0  0
    7.1403    0.7077    1.7612 C   0  0  0  0  0  0  0  0  0  0  0  0
   -4.3659    1.2147    1.8932 H   0  0  0  0  0  0  0  0  0  0  0  0
   -5.2972    2.0228    0.6647 H   0  0  0  0  0  0  0  0  0  0  0  0
   -0.3320    2.1165    0.1894 H   0  0  0  0  0  0  0  0  0  0  0  0
   -3.8608    3.2295   -0.5660 H   0  0  0  0  0  0  0  0  0  0  0  0
   -2.7467    2.9895    0.7861 H   0  0  0  0  0  0  0  0  0  0  0  0
   -2.1099    0.6044    1.4048 H   0  0  0  0  0  0  0  0  0  0  0  0
   -2.7412   -0.7254    0.4404 H   0  0  0  0  0  0  0  0  0  0  0  0
   -1.5345    3.7253   -1.2199 H   0  0  0  0  0  0  0  0  0  0  0  0
   -2.2392    2.4284   -2.1830 H   0  0  0  0  0  0  0  0  0  0  0  0
   -1.5692   -0.0919   -1.5275 H   0  0  0  0  0  0  0  0  0  0  0  0
   -0.4743   -0.3096   -0.1631 H   0  0  0  0  0  0  0  0  0  0  0  0
   -7.3480    1.0747    0.8333 H   0  0  0  0  0  0  0  0  0  0  0  0
   -6.9274    0.1130    2.2474 H   0  0  0  0  0  0  0  0  0  0  0  0
   -4.7108   -0.6194   -1.4283 H   0  0  0  0  0  0  0  0  0  0  0  0
   -5.9557    0.6378   -1.4516 H   0  0  0  0  0  0  0  0  0  0  0  0
    0.7319    2.8150   -1.9685 H   0  0  0  0  0  0  0  0  0  0  0  0
    0.0314    1.4035   -2.7727 H   0  0  0  0  0  0  0  0  0  0  0  0
   -7.6593   -1.9611    1.0584 H   0  0  0  0  0  0  0  0  0  0  0  0
   -8.9334   -0.7397    1.0335 H   0  0  0  0  0  0  0  0  0  0  0  0
   -6.8461   -1.3903   -2.4089 H   0  0  0  0  0  0  0  0  0  0  0  0
   -6.4325   -2.3612   -1.0012 H   0  0  0  0  0  0  0  0  0  0  0  0
    1.4988   -0.0086   -1.6864 H   0  0  0  0  0  0  0  0  0  0  0  0
   -4.3007   -1.8409    2.9564 H   0  0  0  0  0  0  0  0  0  0  0  0
    6.2356   -2.8908    0.2192 H   0  0  0  0  0  0  0  0  0  0  0  0
    4.6316    2.8645    0.9304 H   0  0  0  0  0  0  0  0  0  0  0  0
    7.2728   -1.3702    1.2489 H   0  0  0  0  0  0  0  0  0  0  0  0
    4.6994   -4.7724    0.3436 H   0  0  0  0  0  0  0  0  0  0  0  0
    4.1224   -3.4755    1.4021 H   0  0  0  0  0  0  0  0  0  0  0  0
    3.3311   -3.7706   -0.1510 H   0  0  0  0  0  0  0  0  0  0  0  0
    5.9540   -4.1480   -1.8429 H   0  0  0  0  0  0  0  0  0  0  0  0
    6.2055   -2.4390   -2.2307 H   0  0  0  0  0  0  0  0  0  0  0  0
    4.5888   -3.1456   -2.3439 H   0  0  0  0  0  0  0  0  0  0  0  0
    6.7705    2.7992    2.1410 H   0  0  0  0  0  0  0  0  0  0  0  0
    8.0825    0.7071    2.3026 H   0  0  0  0  0  0  0  0  0  0  0  0
  1 20  1  0  0  0  0
  1 21  1  0  0  0  0
  2 22  1  0  0  0  0
  2 56  1  0  0  0  0
  3 22  2  0  0  0  0
  4 23  2  0  0  0  0
  5 25  2  0  0  0  0
  6 11  1  0  0  0  0
  6 13  1  0  0  0  0
  6 14  1  0  0  0  0
  7 19  1  0  0  0  0
  7 23  1  0  0  0  0
  7 55  1  0  0  0  0
  8 23  1  0  0  0  0
  8 24  1  0  0  0  0
  8 25  1  0  0  0  0
  9 25  1  0  0  0  0
  9 26  1  0  0  0  0
  9 27  1  0  0  0  0
 10 11  1  0  0  0  0
 10 17  1  0  0  0  0
 10 18  1  0  0  0  0
 10 22  1  0  0  0  0
 11 34  1  0  0  0  0
 11 35  1  0  0  0  0
 12 15  1  0  0  0  0
 12 16  1  0  0  0  0
 12 19  1  0  0  0  0
 12 36  1  0  0  0  0
 13 15  1  0  0  0  0
 13 37  1  0  0  0  0
 13 38  1  0  0  0  0
 14 16  1  0  0  0  0
 14 39  1  0  0  0  0
 14 40  1  0  0  0  0
 15 41  1  0  0  0  0
 15 42  1  0  0  0  0
 16 43  1  0  0  0  0
 16 44  1  0  0  0  0
 17 20  1  0  0  0  0
 17 45  1  0  0  0  0
 17 46  1  0  0  0  0
 18 21  1  0  0  0  0
 18 47  1  0  0  0  0
 18 48  1  0  0  0  0
 19 49  1  0  0  0  0
 19 50  1  0  0  0  0
 20 51  1  0  0  0  0
 20 52  1  0  0  0  0
 21 53  1  0  0  0  0
 21 54  1  0  0  0  0
 24 26  1  0  0  0  0
 24 28  2  0  0  0  0
 26 29  2  0  0  0  0
 27 30  1  0  0  0  0
 27 31  1  0  0  0  0
 27 57  1  0  0  0  0
 28 32  1  0  0  0  0
 28 58  1  0  0  0  0
 29 33  1  0  0  0  0
 29 59  1  0  0  0  0
 30 60  1  0  0  0  0
 30 61  1  0  0  0  0
 30 62  1  0  0  0  0
 31 63  1  0  0  0  0
 31 64  1  0  0  0  0
 31 65  1  0  0  0  0
 32 33  2  0  0  0  0
 32 66  1  0  0  0  0
 33 67  1  0  0  0  0
M  END
> <PUBCHEM_COMPOUND_CID>
11712263

> <PUBCHEM_CONFORMER_RMSD>
1.2

> <PUBCHEM_CONFORMER_DIVERSEORDER>
1
10
32
79
24
85
42
46
60
55
75
17
14
64
66
61
92
36
86
93
15
83
27
38
74
2
48
77
59
69
90
57
25
88
22
84
31
65
45
7
50
71
63
11
52
81
72
41
4
68
78
76
91
5
34
89
53
82
35
67
70
18
28
39
19
26
47
87
30
73
6
9
54
56
58
37
49
40
23
3
8
80
13
29
51
44
16
62
20
43
12
21
33

> <PUBCHEM_MMFF94_PARTIAL_CHARGES>
32
1 -0.56
10 0.06
11 0.27
13 0.27
14 0.27
19 0.3
2 -0.65
20 0.28
21 0.28
22 0.66
23 0.69
24 0.12
25 0.69
26 0.12
27 0.3
28 -0.15
29 -0.15
3 -0.57
32 -0.15
33 -0.15
4 -0.57
5 -0.57
55 0.37
56 0.5
58 0.15
59 0.15
6 -0.81
66 0.15
67 0.15
7 -0.73
8 -0.24
9 -0.48

> <PUBCHEM_EFFECTIVE_ROTOR_COUNT>
10.4

> <PUBCHEM_PHARMACOPHORE_FEATURES>
13
1 1 acceptor
1 2 acceptor
1 3 acceptor
1 4 acceptor
1 5 acceptor
1 6 cation
1 7 donor
3 2 3 22 anion
3 27 30 31 hydrophobe
5 8 9 24 25 26 rings
6 1 10 17 18 20 21 rings
6 24 26 28 29 32 33 rings
6 6 12 13 14 15 16 rings

> <PUBCHEM_HEAVY_ATOM_COUNT>
33

> <PUBCHEM_ATOM_DEF_STEREO_COUNT>
0

> <PUBCHEM_ATOM_UDEF_STEREO_COUNT>
0

> <PUBCHEM_BOND_DEF_STEREO_COUNT>
0

> <PUBCHEM_BOND_UDEF_STEREO_COUNT>
0

> <PUBCHEM_ISOTOPIC_ATOM_COUNT>
0

> <PUBCHEM_COMPONENT_COUNT>
1

> <PUBCHEM_CACTVS_TAUTO_COUNT>
2

> <PUBCHEM_CONFORMER_ID>
00B2B70700000001

> <PUBCHEM_MMFF94_ENERGY>
87.852

> <PUBCHEM_FEATURE_SELFOVERLAP>
66.122

> <PUBCHEM_SHAPE_FINGERPRINT>
10 15 14836408047354124581
10372059 70 17703515373566933761
10981352 41 18411980248066204126
11103572 95 18342176618990372495
11399510 152 18059283267621428808
11828532 37 17532380940212735993
11991303 11 12757440487698163049
12342043 65 18196658385373971902
12422481 6 18271814501335628807
12596602 18 17704073966919185584
13533116 47 18411704296011124236
13627167 48 9583250430779829431
13782708 43 18339925900770169078
13811026 1 18335414638878807950
14211702 104 18261396624209000445
14556957 393 13984942874811481222
15183329 4 11314302841209402485
15188451 53 17967809453171806196
15510800 12 18113625585861971219
1768 124 18411979178329125574
19377110 9 17275102847064714965
20105231 36 17989210310053001534
2026 5 17458058292599014827
20691028 202 9655577414067688263
21130935 74 18272934877814171395
21197605 99 18413102879861662990
21585480 29 18199179758113976286
23559900 14 17677336168522071421
23572383 38 18187088385767101555
25222932 49 17895183373826884304
312425 54 18340211765056029665
3383291 50 18040722493822468675
3504750 166 18201722796150876685
354706 109 18338219476162218803
3663271 9 17846218843232996225
38570 142 9871754602717762677
397830 11 18201436943637315612
4046055 4 17968095279125085757
50009960 94 17753590370694195570
5104073 3 18200032828792221592
613672 6 17967257515466520057
6698420 124 8070030008628443501
86090 222 18113623357101375770
8863177 126 18265337218639329094
9937071 3 18334299808321623035

> <PUBCHEM_SHAPE_MULTIPOLES>
629.85
24.18
3.38
1.69
15.42
1.52
0.2
10.03
8.22
-4.45
-0.77
-0.19
0.06
2.58

> <PUBCHEM_SHAPE_SELFOVERLAP>
1333.557

> <PUBCHEM_SHAPE_VOLUME>
348.1

> <PUBCHEM_COORDINATE_TYPE>
2
5
10

$$$$
