11712581
  -OEChem-03292013303D

 60 62  0     1  0  0  0  0  0999 V2000
    3.0075   -0.3180    0.2523 O   0  0  0  0  0  0  0  0  0  0  0  0
    5.5709   -2.7447   -0.7243 O   0  0  0  0  0  0  0  0  0  0  0  0
    7.0995   -0.3737   -0.0937 O   0  0  0  0  0  0  0  0  0  0  0  0
    2.9680    2.0147    0.2815 O   0  0  0  0  0  0  0  0  0  0  0  0
    5.5821    2.0505   -0.8019 O   0  0  0  0  0  0  0  0  0  0  0  0
    1.4071   -2.5388    0.0014 O   0  0  0  0  0  0  0  0  0  0  0  0
    1.1129   -1.3577    1.9651 O   0  0  0  0  0  0  0  0  0  0  0  0
   -3.3354    2.5759    0.8394 O   0  0  0  0  0  0  0  0  0  0  0  0
   -5.2141   -1.2357   -2.0699 O   0  0  0  0  0  0  0  0  0  0  0  0
   -7.0835   -0.6659   -0.0934 O   0  0  0  0  0  0  0  0  0  0  0  0
    5.0421   -1.5964   -0.0662 C   0  0  1  0  0  0  0  0  0  0  0  0
    5.7564   -0.3459   -0.5794 C   0  0  1  0  0  0  0  0  0  0  0  0
    3.5373   -1.5095   -0.3313 C   0  0  1  0  0  0  0  0  0  0  0  0
    5.0645    0.9265   -0.0905 C   0  0  2  0  0  0  0  0  0  0  0  0
    3.5553    0.8644   -0.3260 C   0  0  1  0  0  0  0  0  0  0  0  0
    2.7878   -2.6914    0.2757 C   0  0  0  0  0  0  0  0  0  0  0  0
    1.6100    2.1386    0.1727 C   0  0  0  0  0  0  0  0  0  0  0  0
    0.8872    2.7917    1.1709 C   0  0  0  0  0  0  0  0  0  0  0  0
    0.9485    1.6138   -0.9376 C   0  0  0  0  0  0  0  0  0  0  0  0
    0.6832   -1.8479    0.9330 C   0  0  0  0  0  0  0  0  0  0  0  0
   -0.4971    2.9200    1.0590 C   0  0  0  0  0  0  0  0  0  0  0  0
   -0.4358    1.7421   -1.0494 C   0  0  0  0  0  0  0  0  0  0  0  0
   -1.1587    2.3951   -0.0511 C   0  0  0  0  0  0  0  0  0  0  0  0
   -0.7245   -1.7941    0.4774 C   0  0  0  0  0  0  0  0  0  0  0  0
   -2.6021    2.5293   -0.1684 C   0  0  0  0  0  0  0  0  0  0  0  0
   -1.6387   -1.1646    1.2294 C   0  0  0  0  0  0  0  0  0  0  0  0
   -3.0641   -1.0346    0.8795 C   0  0  0  0  0  0  0  0  0  0  0  0
   -3.2569    2.6162   -1.5427 C   0  0  0  0  0  0  0  0  0  0  0  0
   -3.4753   -1.1976   -0.4434 C   0  0  0  0  0  0  0  0  0  0  0  0
   -4.0023   -0.7483    1.8712 C   0  0  0  0  0  0  0  0  0  0  0  0
   -4.8246   -1.0745   -0.7745 C   0  0  0  0  0  0  0  0  0  0  0  0
   -5.3516   -0.6251    1.5402 C   0  0  0  0  0  0  0  0  0  0  0  0
   -5.7627   -0.7882    0.2173 C   0  0  0  0  0  0  0  0  0  0  0  0
   -4.1929   -1.5264   -3.0223 C   0  0  0  0  0  0  0  0  0  0  0  0
    5.2351   -1.7164    1.0068 H   0  0  0  0  0  0  0  0  0  0  0  0
    5.8275   -0.3580   -1.6733 H   0  0  0  0  0  0  0  0  0  0  0  0
    3.3267   -1.4920   -1.4094 H   0  0  0  0  0  0  0  0  0  0  0  0
    5.2801    1.0974    0.9709 H   0  0  0  0  0  0  0  0  0  0  0  0
    3.3936    0.8837   -1.4108 H   0  0  0  0  0  0  0  0  0  0  0  0
    2.9695   -2.7769    1.3541 H   0  0  0  0  0  0  0  0  0  0  0  0
    3.1131   -3.6318   -0.1814 H   0  0  0  0  0  0  0  0  0  0  0  0
    5.3922   -2.6544   -1.6759 H   0  0  0  0  0  0  0  0  0  0  0  0
    7.0704   -0.3462    0.8778 H   0  0  0  0  0  0  0  0  0  0  0  0
    5.4103    1.9143   -1.7493 H   0  0  0  0  0  0  0  0  0  0  0  0
    1.3976    3.2028    2.0376 H   0  0  0  0  0  0  0  0  0  0  0  0
    1.4530    1.1139   -1.7561 H   0  0  0  0  0  0  0  0  0  0  0  0
   -1.0433    3.4349    1.8451 H   0  0  0  0  0  0  0  0  0  0  0  0
   -0.9275    1.3162   -1.9198 H   0  0  0  0  0  0  0  0  0  0  0  0
   -0.9554   -2.2920   -0.4568 H   0  0  0  0  0  0  0  0  0  0  0  0
   -1.3494   -0.7042    2.1714 H   0  0  0  0  0  0  0  0  0  0  0  0
   -3.4608    1.6125   -1.9199 H   0  0  0  0  0  0  0  0  0  0  0  0
   -2.6156    3.1613   -2.2407 H   0  0  0  0  0  0  0  0  0  0  0  0
   -4.1962    3.1706   -1.4564 H   0  0  0  0  0  0  0  0  0  0  0  0
   -2.7230   -1.3887   -1.1977 H   0  0  0  0  0  0  0  0  0  0  0  0
   -3.6996   -0.6182    2.9074 H   0  0  0  0  0  0  0  0  0  0  0  0
   -6.0719   -0.4015    2.3226 H   0  0  0  0  0  0  0  0  0  0  0  0
   -7.5825   -0.4667    0.7174 H   0  0  0  0  0  0  0  0  0  0  0  0
   -3.4780   -0.7019   -3.1149 H   0  0  0  0  0  0  0  0  0  0  0  0
   -3.7043   -2.4842   -2.8129 H   0  0  0  0  0  0  0  0  0  0  0  0
   -4.6829   -1.6289   -3.9963 H   0  0  0  0  0  0  0  0  0  0  0  0
  1 13  1  0  0  0  0
  1 15  1  0  0  0  0
  2 11  1  0  0  0  0
  2 42  1  0  0  0  0
  3 12  1  0  0  0  0
  3 43  1  0  0  0  0
  4 15  1  0  0  0  0
  4 17  1  0  0  0  0
  5 14  1  0  0  0  0
  5 44  1  0  0  0  0
  6 16  1  0  0  0  0
  6 20  1  0  0  0  0
  7 20  2  0  0  0  0
  8 25  2  0  0  0  0
  9 31  1  0  0  0  0
  9 34  1  0  0  0  0
 10 33  1  0  0  0  0
 10 57  1  0  0  0  0
 11 12  1  0  0  0  0
 11 13  1  0  0  0  0
 11 35  1  0  0  0  0
 12 14  1  0  0  0  0
 12 36  1  0  0  0  0
 13 16  1  0  0  0  0
 13 37  1  0  0  0  0
 14 15  1  0  0  0  0
 14 38  1  0  0  0  0
 15 39  1  0  0  0  0
 16 40  1  0  0  0  0
 16 41  1  0  0  0  0
 17 18  2  0  0  0  0
 17 19  1  0  0  0  0
 18 21  1  0  0  0  0
 18 45  1  0  0  0  0
 19 22  2  0  0  0  0
 19 46  1  0  0  0  0
 20 24  1  0  0  0  0
 21 23  2  0  0  0  0
 21 47  1  0  0  0  0
 22 23  1  0  0  0  0
 22 48  1  0  0  0  0
 23 25  1  0  0  0  0
 24 26  2  0  0  0  0
 24 49  1  0  0  0  0
 25 28  1  0  0  0  0
 26 27  1  0  0  0  0
 26 50  1  0  0  0  0
 27 29  2  0  0  0  0
 27 30  1  0  0  0  0
 28 51  1  0  0  0  0
 28 52  1  0  0  0  0
 28 53  1  0  0  0  0
 29 31  1  0  0  0  0
 29 54  1  0  0  0  0
 30 32  2  0  0  0  0
 30 55  1  0  0  0  0
 31 33  2  0  0  0  0
 32 33  1  0  0  0  0
 32 56  1  0  0  0  0
 34 58  1  0  0  0  0
 34 59  1  0  0  0  0
 34 60  1  0  0  0  0
M  END
> <PUBCHEM_COMPOUND_CID>
11712581

> <PUBCHEM_CONFORMER_RMSD>
1

> <PUBCHEM_CONFORMER_DIVERSEORDER>
2
12
31
64
21
68
56
88
5
44
51
45
104
62
72
36
33
92
94
82
76
83
39
91
50
99
57
43
38
18
93
96
97
8
4
61
74
95
75
52
54
41
66
47
34
49
67
28
79
63
37
87
70
27
46
102
65
59
81
98
32
15
20
58
89
16
19
14
69
78
85
101
90
80
53
30
55
3
35
24
77
84
23
13
86
26
17
100
10
40
71
11
60
48
1
29
9
103
25
42
22
73
7
6

> <PUBCHEM_MMFF94_PARTIAL_CHARGES>
47
1 -0.56
10 -0.53
11 0.28
12 0.28
13 0.28
14 0.28
15 0.56
16 0.28
17 0.08
18 -0.15
19 -0.15
2 -0.68
20 0.71
21 -0.15
22 -0.15
23 0.09
24 -0.14
25 0.42
26 -0.18
27 0.03
28 0.06
29 -0.15
3 -0.68
30 -0.15
31 0.08
32 -0.15
33 0.08
34 0.28
4 -0.36
42 0.4
43 0.4
44 0.4
45 0.15
46 0.15
47 0.15
48 0.15
49 0.15
5 -0.68
50 0.15
54 0.15
55 0.15
56 0.15
57 0.45
6 -0.43
7 -0.57
8 -0.57
9 -0.36

> <PUBCHEM_EFFECTIVE_ROTOR_COUNT>
10.2

> <PUBCHEM_PHARMACOPHORE_FEATURES>
15
1 1 acceptor
1 10 donor
1 2 acceptor
1 2 donor
1 3 acceptor
1 3 donor
1 4 acceptor
1 5 acceptor
1 5 donor
1 7 acceptor
1 8 acceptor
1 9 acceptor
6 1 11 12 13 14 15 rings
6 17 18 19 21 22 23 rings
6 27 29 30 31 32 33 rings

> <PUBCHEM_HEAVY_ATOM_COUNT>
34

> <PUBCHEM_ATOM_DEF_STEREO_COUNT>
5

> <PUBCHEM_ATOM_UDEF_STEREO_COUNT>
0

> <PUBCHEM_BOND_DEF_STEREO_COUNT>
1

> <PUBCHEM_BOND_UDEF_STEREO_COUNT>
0

> <PUBCHEM_ISOTOPIC_ATOM_COUNT>
0

> <PUBCHEM_COMPONENT_COUNT>
1

> <PUBCHEM_CACTVS_TAUTO_COUNT>
6

> <PUBCHEM_CONFORMER_ID>
00B2B84500000002

> <PUBCHEM_MMFF94_ENERGY>
112.669

> <PUBCHEM_FEATURE_SELFOVERLAP>
76.188

> <PUBCHEM_SHAPE_FINGERPRINT>
11513181 2 18199753535616933510
11578080 2 16444171038209288655
12107698 1 18411422770180738254
12596602 18 16629962251861906848
13402501 40 18261396675611445083
14068700 675 17846498157862412185
14681490 219 18411134745025154801
14840074 17 18272092716627372935
14931854 50 18261391122266340758
15183329 4 18410579504606796650
15276724 80 18263926532578557517
15968369 153 18268407110970698989
17357779 13 18334010597032158211
20721686 56 18334583459912913643
21236236 1 18336268955102869712
21279426 13 18334292029217665965
221357 26 18409730655485601962
23559900 14 18190741040757232121
463206 1 18270118053636052239
469060 322 16588319245371340879
508706 21 18041001708954946569
5171179 24 18201707496486124433
57527295 17 17969759966274035023
59755656 215 18335706052283110891

> <PUBCHEM_SHAPE_MULTIPOLES>
641.01
14.81
3.75
1.68
4.34
1.71
-0.64
-6.26
-3.28
1.02
0.07
-2.73
-0.43
-0.2

> <PUBCHEM_SHAPE_SELFOVERLAP>
1365.424

> <PUBCHEM_SHAPE_VOLUME>
353.7

> <PUBCHEM_COORDINATE_TYPE>
2
5
10

$$$$
