11729714
  -OEChem-03292013303D

 59 62  0     1  0  0  0  0  0999 V2000
    3.8594   -1.2373   -0.4211 O   0  0  0  0  0  0  0  0  0  0  0  0
   -1.2644    1.2441   -2.2017 O   0  0  0  0  0  0  0  0  0  0  0  0
   -2.7950    2.7663   -0.6035 O   0  0  0  0  0  0  0  0  0  0  0  0
    3.2166   -3.3833   -0.6297 O   0  0  0  0  0  0  0  0  0  0  0  0
   -3.5303   -1.9496    1.9807 O   0  0  0  0  0  0  0  0  0  0  0  0
   -4.6968   -1.9987   -0.0183 O   0  0  0  0  0  0  0  0  0  0  0  0
    5.8507    2.5577    1.1068 O   0  0  0  0  0  0  0  0  0  0  0  0
   -4.1074    3.0550    1.2756 O   0  0  0  0  0  0  0  0  0  0  0  0
    1.1033   -0.4653   -0.8205 C   0  0  2  0  0  0  0  0  0  0  0  0
   -0.3524   -0.0781   -0.3456 C   0  0  2  0  0  0  0  0  0  0  0  0
   -1.4563   -1.2170   -0.4406 C   0  0  1  0  0  0  0  0  0  0  0  0
    1.5143   -1.7593   -0.0814 C   0  0  1  0  0  0  0  0  0  0  0  0
   -0.8880   -2.4676    0.2820 C   0  0  0  0  0  0  0  0  0  0  0  0
    0.4920   -2.8882   -0.2331 C   0  0  0  0  0  0  0  0  0  0  0  0
   -0.8883    1.2907   -0.8323 C   0  0  2  0  0  0  0  0  0  0  0  0
    2.1204    0.5930   -0.3185 C   0  0  0  0  0  0  0  0  0  0  0  0
    1.2456   -0.5743   -2.3524 C   0  0  0  0  0  0  0  0  0  0  0  0
   -2.7324   -0.6965    0.2329 C   0  0  0  0  0  0  0  0  0  0  0  0
   -2.0785    1.7203    0.0460 C   0  0  2  0  0  0  0  0  0  0  0  0
   -1.9056   -1.6444   -1.8578 C   0  0  0  0  0  0  0  0  0  0  0  0
    3.5854    0.1848   -0.5474 C   0  0  1  0  0  0  0  0  0  0  0  0
    2.9159   -2.2093   -0.4351 C   0  0  0  0  0  0  0  0  0  0  0  0
   -3.0070    0.6046    0.4286 C   0  0  0  0  0  0  0  0  0  0  0  0
   -3.7803   -1.6221    0.6897 C   0  0  0  0  0  0  0  0  0  0  0  0
    4.4988    0.9465    0.3367 C   0  0  0  0  0  0  0  0  0  0  0  0
    4.9485    0.5635    1.6173 C   0  0  0  0  0  0  0  0  0  0  0  0
    5.0705    2.1626    0.0667 C   0  0  0  0  0  0  0  0  0  0  0  0
   -3.7882    3.3492    0.1316 C   0  0  0  0  0  0  0  0  0  0  0  0
    5.7709    1.5791    2.0463 C   0  0  0  0  0  0  0  0  0  0  0  0
   -4.4709   -2.8521    2.5720 C   0  0  0  0  0  0  0  0  0  0  0  0
   -4.4504    4.4257   -0.6739 C   0  0  0  0  0  0  0  0  0  0  0  0
   -0.2187    0.0712    0.7418 H   0  0  0  0  0  0  0  0  0  0  0  0
    1.5658   -1.5492    0.9990 H   0  0  0  0  0  0  0  0  0  0  0  0
   -1.5730   -3.3192    0.1790 H   0  0  0  0  0  0  0  0  0  0  0  0
   -0.8095   -2.2687    1.3596 H   0  0  0  0  0  0  0  0  0  0  0  0
    0.8194   -3.7623    0.3447 H   0  0  0  0  0  0  0  0  0  0  0  0
    0.4359   -3.2260   -1.2736 H   0  0  0  0  0  0  0  0  0  0  0  0
   -0.1229    2.0683   -0.7540 H   0  0  0  0  0  0  0  0  0  0  0  0
    1.9550    0.7606    0.7556 H   0  0  0  0  0  0  0  0  0  0  0  0
    1.9557    1.5661   -0.7969 H   0  0  0  0  0  0  0  0  0  0  0  0
    0.6440   -1.3672   -2.7869 H   0  0  0  0  0  0  0  0  0  0  0  0
    0.9819    0.3655   -2.8461 H   0  0  0  0  0  0  0  0  0  0  0  0
    2.2720   -0.8006   -2.6589 H   0  0  0  0  0  0  0  0  0  0  0  0
   -1.6614    2.1222    0.9807 H   0  0  0  0  0  0  0  0  0  0  0  0
   -2.6842   -2.4166   -1.8015 H   0  0  0  0  0  0  0  0  0  0  0  0
   -2.3390   -0.8249   -2.4362 H   0  0  0  0  0  0  0  0  0  0  0  0
   -1.1134   -2.0958   -2.4500 H   0  0  0  0  0  0  0  0  0  0  0  0
    3.8512    0.4255   -1.5850 H   0  0  0  0  0  0  0  0  0  0  0  0
   -3.9426    0.8355    0.9277 H   0  0  0  0  0  0  0  0  0  0  0  0
   -1.6438    2.1095   -2.4310 H   0  0  0  0  0  0  0  0  0  0  0  0
    4.7082   -0.3347    2.1683 H   0  0  0  0  0  0  0  0  0  0  0  0
    5.0289    2.8443   -0.7705 H   0  0  0  0  0  0  0  0  0  0  0  0
    6.3433    1.7479    2.9467 H   0  0  0  0  0  0  0  0  0  0  0  0
   -4.4726   -3.8039    2.0322 H   0  0  0  0  0  0  0  0  0  0  0  0
   -4.1630   -3.0351    3.6049 H   0  0  0  0  0  0  0  0  0  0  0  0
   -5.4709   -2.4080    2.5766 H   0  0  0  0  0  0  0  0  0  0  0  0
   -5.2452    4.8862   -0.0801 H   0  0  0  0  0  0  0  0  0  0  0  0
   -3.7198    5.1954   -0.9349 H   0  0  0  0  0  0  0  0  0  0  0  0
   -4.8941    3.9941   -1.5745 H   0  0  0  0  0  0  0  0  0  0  0  0
  1 21  1  0  0  0  0
  1 22  1  0  0  0  0
  2 15  1  0  0  0  0
  2 50  1  0  0  0  0
  3 19  1  0  0  0  0
  3 28  1  0  0  0  0
  4 22  2  0  0  0  0
  5 24  1  0  0  0  0
  5 30  1  0  0  0  0
  6 24  2  0  0  0  0
  7 27  1  0  0  0  0
  7 29  1  0  0  0  0
  8 28  2  0  0  0  0
  9 10  1  0  0  0  0
  9 12  1  0  0  0  0
  9 16  1  0  0  0  0
  9 17  1  0  0  0  0
 10 11  1  0  0  0  0
 10 15  1  0  0  0  0
 10 32  1  0  0  0  0
 11 13  1  0  0  0  0
 11 18  1  0  0  0  0
 11 20  1  0  0  0  0
 12 14  1  0  0  0  0
 12 22  1  0  0  0  0
 12 33  1  0  0  0  0
 13 14  1  0  0  0  0
 13 34  1  0  0  0  0
 13 35  1  0  0  0  0
 14 36  1  0  0  0  0
 14 37  1  0  0  0  0
 15 19  1  0  0  0  0
 15 38  1  0  0  0  0
 16 21  1  0  0  0  0
 16 39  1  0  0  0  0
 16 40  1  0  0  0  0
 17 41  1  0  0  0  0
 17 42  1  0  0  0  0
 17 43  1  0  0  0  0
 18 23  2  0  0  0  0
 18 24  1  0  0  0  0
 19 23  1  0  0  0  0
 19 44  1  0  0  0  0
 20 45  1  0  0  0  0
 20 46  1  0  0  0  0
 20 47  1  0  0  0  0
 21 25  1  0  0  0  0
 21 48  1  0  0  0  0
 23 49  1  0  0  0  0
 25 26  1  0  0  0  0
 25 27  2  0  0  0  0
 26 29  2  0  0  0  0
 26 51  1  0  0  0  0
 27 52  1  0  0  0  0
 28 31  1  0  0  0  0
 29 53  1  0  0  0  0
 30 54  1  0  0  0  0
 30 55  1  0  0  0  0
 30 56  1  0  0  0  0
 31 57  1  0  0  0  0
 31 58  1  0  0  0  0
 31 59  1  0  0  0  0
M  END
> <PUBCHEM_COMPOUND_CID>
11729714

> <PUBCHEM_CONFORMER_RMSD>
0.8

> <PUBCHEM_CONFORMER_DIVERSEORDER>
1
7
6
8
5
3
4
2

> <PUBCHEM_MMFF94_PARTIAL_CHARGES>
29
1 -0.43
11 0.14
12 0.06
15 0.28
18 -0.12
19 0.42
2 -0.68
21 0.46
22 0.66
23 -0.29
24 0.71
25 -0.18
26 -0.15
27 -0.01
28 0.66
29 -0.01
3 -0.43
30 0.28
31 0.06
4 -0.57
49 0.15
5 -0.43
50 0.4
51 0.15
52 0.15
53 0.15
6 -0.57
7 -0.28
8 -0.57

> <PUBCHEM_EFFECTIVE_ROTOR_COUNT>
6.4

> <PUBCHEM_PHARMACOPHORE_FEATURES>
10
1 2 acceptor
1 2 donor
1 4 acceptor
1 6 acceptor
1 7 acceptor
1 8 acceptor
5 7 25 26 27 29 rings
6 1 9 12 16 21 22 rings
6 10 11 15 18 19 23 rings
6 9 10 11 12 13 14 rings

> <PUBCHEM_HEAVY_ATOM_COUNT>
31

> <PUBCHEM_ATOM_DEF_STEREO_COUNT>
7

> <PUBCHEM_ATOM_UDEF_STEREO_COUNT>
0

> <PUBCHEM_BOND_DEF_STEREO_COUNT>
0

> <PUBCHEM_BOND_UDEF_STEREO_COUNT>
0

> <PUBCHEM_ISOTOPIC_ATOM_COUNT>
0

> <PUBCHEM_COMPONENT_COUNT>
1

> <PUBCHEM_CACTVS_TAUTO_COUNT>
1

> <PUBCHEM_CONFORMER_ID>
00B2FB3200000001

> <PUBCHEM_MMFF94_ENERGY>
99.4127

> <PUBCHEM_FEATURE_SELFOVERLAP>
50.782

> <PUBCHEM_SHAPE_FINGERPRINT>
10074138 170 18113621162515460217
10319926 262 18335979788562457730
10670039 82 18263378009346762556
10675989 125 17619343204714217113
10930396 42 17977355537567121833
1100329 8 17977103457383676282
11578080 2 18272376330297226641
12107183 9 18120074114838712800
12390115 104 18342749515645459252
12403259 415 18272660038978560604
12422481 6 18188482476770365456
12596602 18 17313937666788327224
12741549 16 17606105424544627479
12788726 201 18118139179678136596
12892183 10 18409455794822207454
12925494 130 18341043021832898248
12930653 34 18410293601096589710
13140716 1 18264764355590216958
13540713 4 18341060613944667326
13583140 156 18272091552390373174
13965767 371 17752200596026698060
14028597 1 17530677728414422433
14068700 686 18411426128191055263
14142880 1 18335973212535166925
14178342 30 18187094931455282031
15392192 29 11675978322839209656
18393751 57 18051122890088686178
21033648 144 18266168435870208861
21033648 29 18130775785955657840
21049683 118 17824536366870509337
21307412 95 7780977184377392560
21344244 78 17977978952982785283
21756936 100 18200863081052807084
21859007 373 17245818252439001500
23559900 14 18055070965587347822
255183 451 9725618521161312217
283562 15 18337945779624514455
3117164 225 18045490933617032122
3380486 77 15792017838853597106
376196 1 18268989778527892343
392239 28 18193560201312983042
469060 322 18197205069437053006
5104073 3 18336547123213290874
6004065 56 18122340457285717087
613672 6 18116725199694382715
6371380 46 17903073331153786630
653340 110 18335990817495206771
9981440 41 18339350890754179067

> <PUBCHEM_SHAPE_MULTIPOLES>
591.01
11.65
4.62
1.81
9.77
2.55
0.32
7.05
6.75
-5.12
0.51
-0.35
-0.51
3.21

> <PUBCHEM_SHAPE_SELFOVERLAP>
1272.39

> <PUBCHEM_SHAPE_VOLUME>
322.4

> <PUBCHEM_COORDINATE_TYPE>
2
5
10

$$$$
