11722553
  -OEChem-03292013303D

 41 40  0     1  0  0  0  0  0999 V2000
    2.4814    2.3156   -1.3243 O   0  0  0  0  0  0  0  0  0  0  0  0
    4.0878    2.7096    0.2172 O   0  0  0  0  0  0  0  0  0  0  0  0
    0.3168   -0.2132    2.0154 O   0  0  0  0  0  0  0  0  0  0  0  0
   -3.3921   -3.0498    0.0723 O   0  0  0  0  0  0  0  0  0  0  0  0
   -1.8532   -2.5644   -1.5234 O   0  0  0  0  0  0  0  0  0  0  0  0
   -5.0140    2.2580   -1.2578 O   0  0  0  0  0  0  0  0  0  0  0  0
   -5.0032    1.8868    0.9805 O   0  0  0  0  0  0  0  0  0  0  0  0
    1.3814    0.3122    0.0213 N   0  0  0  0  0  0  0  0  0  0  0  0
   -0.7092   -0.6511   -0.0208 N   0  0  0  0  0  0  0  0  0  0  0  0
    3.6314   -0.2282    0.8902 C   0  0  0  0  0  0  0  0  0  0  0  0
    3.9533   -1.2335   -0.2389 C   0  0  0  0  0  0  0  0  0  0  0  0
    2.5814    0.8556    0.6029 C   0  0  1  0  0  0  0  0  0  0  0  0
    4.9608   -2.3091    0.1611 C   0  0  0  0  0  0  0  0  0  0  0  0
    4.4807   -0.4699   -1.4596 C   0  0  0  0  0  0  0  0  0  0  0  0
   -1.9269   -1.2216    0.5070 C   0  0  1  0  0  0  0  0  0  0  0  0
   -3.0074   -0.1669    0.7751 C   0  0  0  0  0  0  0  0  0  0  0  0
    3.1436    2.0335   -0.1770 C   0  0  0  0  0  0  0  0  0  0  0  0
    0.3267   -0.1871    0.7854 C   0  0  0  0  0  0  0  0  0  0  0  0
   -3.5087    0.6035   -0.4532 C   0  0  0  0  0  0  0  0  0  0  0  0
   -2.3663   -2.3201   -0.4392 C   0  0  0  0  0  0  0  0  0  0  0  0
   -4.5642    1.6402   -0.1341 C   0  0  0  0  0  0  0  0  0  0  0  0
    4.5639    0.2453    1.2248 H   0  0  0  0  0  0  0  0  0  0  0  0
    3.2739   -0.8163    1.7470 H   0  0  0  0  0  0  0  0  0  0  0  0
    3.0302   -1.7498   -0.5303 H   0  0  0  0  0  0  0  0  0  0  0  0
    2.2887    1.2927    1.5676 H   0  0  0  0  0  0  0  0  0  0  0  0
   -1.6704   -1.7090    1.4563 H   0  0  0  0  0  0  0  0  0  0  0  0
    4.5946   -2.8767    1.0230 H   0  0  0  0  0  0  0  0  0  0  0  0
    5.1291   -3.0158   -0.6584 H   0  0  0  0  0  0  0  0  0  0  0  0
    5.9247   -1.8663    0.4334 H   0  0  0  0  0  0  0  0  0  0  0  0
    5.2992    0.2067   -1.1922 H   0  0  0  0  0  0  0  0  0  0  0  0
    4.8625   -1.1680   -2.2135 H   0  0  0  0  0  0  0  0  0  0  0  0
    3.6892    0.1013   -1.9496 H   0  0  0  0  0  0  0  0  0  0  0  0
    1.3056    0.2765   -0.9907 H   0  0  0  0  0  0  0  0  0  0  0  0
   -3.8682   -0.6511    1.2546 H   0  0  0  0  0  0  0  0  0  0  0  0
   -2.6232    0.5562    1.5068 H   0  0  0  0  0  0  0  0  0  0  0  0
   -0.6128   -0.5571   -1.0277 H   0  0  0  0  0  0  0  0  0  0  0  0
   -3.9423   -0.0987   -1.1736 H   0  0  0  0  0  0  0  0  0  0  0  0
   -2.6703    1.1236   -0.9295 H   0  0  0  0  0  0  0  0  0  0  0  0
    2.8606    3.0944   -1.7847 H   0  0  0  0  0  0  0  0  0  0  0  0
   -3.6653   -3.7711   -0.5340 H   0  0  0  0  0  0  0  0  0  0  0  0
   -5.7115    2.9182   -1.0574 H   0  0  0  0  0  0  0  0  0  0  0  0
  1 17  1  0  0  0  0
  1 39  1  0  0  0  0
  2 17  2  0  0  0  0
  3 18  2  0  0  0  0
  4 20  1  0  0  0  0
  4 40  1  0  0  0  0
  5 20  2  0  0  0  0
  6 21  1  0  0  0  0
  6 41  1  0  0  0  0
  7 21  2  0  0  0  0
  8 12  1  0  0  0  0
  8 18  1  0  0  0  0
  8 33  1  0  0  0  0
  9 15  1  0  0  0  0
  9 18  1  0  0  0  0
  9 36  1  0  0  0  0
 10 11  1  0  0  0  0
 10 12  1  0  0  0  0
 10 22  1  0  0  0  0
 10 23  1  0  0  0  0
 11 13  1  0  0  0  0
 11 14  1  0  0  0  0
 11 24  1  0  0  0  0
 12 17  1  0  0  0  0
 12 25  1  0  0  0  0
 13 27  1  0  0  0  0
 13 28  1  0  0  0  0
 13 29  1  0  0  0  0
 14 30  1  0  0  0  0
 14 31  1  0  0  0  0
 14 32  1  0  0  0  0
 15 16  1  0  0  0  0
 15 20  1  0  0  0  0
 15 26  1  0  0  0  0
 16 19  1  0  0  0  0
 16 34  1  0  0  0  0
 16 35  1  0  0  0  0
 19 21  1  0  0  0  0
 19 37  1  0  0  0  0
 19 38  1  0  0  0  0
M  END
> <PUBCHEM_COMPOUND_CID>
11722553

> <PUBCHEM_CONFORMER_RMSD>
1

> <PUBCHEM_CONFORMER_DIVERSEORDER>
1
2
28
29
47
16
42
38
3
44
12
32
35
21
22
40
20
43
19
26
46
14
41
7
45
37
36
4
25
27
10
8
39
11
17
33
34
13
6
23
15
24
9
5
30
18
31

> <PUBCHEM_MMFF94_PARTIAL_CHARGES>
21
1 -0.65
12 0.36
15 0.36
17 0.66
18 0.69
19 0.06
2 -0.57
20 0.66
21 0.66
3 -0.57
33 0.37
36 0.37
39 0.5
4 -0.65
40 0.5
41 0.5
5 -0.57
6 -0.65
7 -0.57
8 -0.73
9 -0.73

> <PUBCHEM_EFFECTIVE_ROTOR_COUNT>
11

> <PUBCHEM_PHARMACOPHORE_FEATURES>
13
1 1 acceptor
1 2 acceptor
1 3 acceptor
1 4 acceptor
1 5 acceptor
1 6 acceptor
1 7 acceptor
1 8 donor
1 9 donor
3 1 2 17 anion
3 11 13 14 hydrophobe
3 4 5 20 anion
3 6 7 21 anion

> <PUBCHEM_HEAVY_ATOM_COUNT>
21

> <PUBCHEM_ATOM_DEF_STEREO_COUNT>
2

> <PUBCHEM_ATOM_UDEF_STEREO_COUNT>
0

> <PUBCHEM_BOND_DEF_STEREO_COUNT>
0

> <PUBCHEM_BOND_UDEF_STEREO_COUNT>
0

> <PUBCHEM_ISOTOPIC_ATOM_COUNT>
0

> <PUBCHEM_COMPONENT_COUNT>
1

> <PUBCHEM_CACTVS_TAUTO_COUNT>
3

> <PUBCHEM_CONFORMER_ID>
00B2DF3900000001

> <PUBCHEM_MMFF94_ENERGY>
30.6176

> <PUBCHEM_FEATURE_SELFOVERLAP>
66.205

> <PUBCHEM_SHAPE_FINGERPRINT>
10763959 59 17823414903628226293
11405975 8 18411136943895397402
11578080 2 17916572275879059432
13583140 156 17560227167329125856
14251751 93 18410290333101621091
15099037 51 18340769230462437283
17349148 13 17131559349021158706
17492 89 18337954613971848442
17818456 19 18271248218445491520
17834072 8 18341614763530950946
17844677 252 18336553810239947971
18186145 218 17385718136419182978
20286276 3 18337398248266355026
20645477 70 18059870497135438086
20832881 197 18042405738549684538
21503847 285 17894632543475086968
21618674 54 18268709583662127138
21864079 5 17895186740279709289
22393880 68 18271257130961157468
23557571 272 18270118066346835408
23558518 356 18043251438494564778
23559900 14 18202561766145326242
2838139 119 18043233675248319925
340366 18 18410578366197519470
5281201 14 18336269041170819230
543358 83 18409452475397510842
559249 180 18341607071145089626
58051976 100 18410857663547066287
633830 44 17676204701746146090
7399639 24 17480567678529489481
7832392 63 18334009514431692508
90127 26 18186809092586181257

> <PUBCHEM_SHAPE_MULTIPOLES>
381.12
11.71
3.22
1.27
2.25
0.35
-0.03
-3
-1.66
0.81
-0.83
-0.08
-0.03
-0.11

> <PUBCHEM_SHAPE_SELFOVERLAP>
743.164

> <PUBCHEM_SHAPE_VOLUME>
227.6

> <PUBCHEM_COORDINATE_TYPE>
2
5
10

$$$$
