11729291
  -OEChem-03292013303D

 43 43  0     1  0  0  0  0  0999 V2000
   -1.8063    3.8664    0.3075 Br  0  0  0  0  0  0  0  0  0  0  0  0
   -0.1806    1.8972    1.3710 O   0  0  0  0  0  0  0  0  0  0  0  0
   -0.8275   -1.0298    1.5047 O   0  0  0  0  0  0  0  0  0  0  0  0
    0.4247    0.1175   -1.7004 O   0  0  0  0  0  0  0  0  0  0  0  0
   -2.5949    0.8190    0.1920 O   0  0  0  0  0  0  0  0  0  0  0  0
    2.9975    0.1439    0.9451 O   0  0  0  0  0  0  0  0  0  0  0  0
   -0.3480   -3.1096    0.6208 O   0  0  0  0  0  0  0  0  0  0  0  0
    0.4036   -2.1382   -2.1986 O   0  0  0  0  0  0  0  0  0  0  0  0
   -3.7013    0.1480   -1.7218 O   0  0  0  0  0  0  0  0  0  0  0  0
    4.6838    1.3945   -0.0189 O   0  0  0  0  0  0  0  0  0  0  0  0
    0.1284   -0.4266    0.6270 C   0  0  1  0  0  0  0  0  0  0  0  0
   -0.5671   -0.0877   -0.6991 C   0  0  1  0  0  0  0  0  0  0  0  0
    0.7330    0.7931    1.3445 C   0  0  1  0  0  0  0  0  0  0  0  0
   -1.4452    1.1631   -0.5807 C   0  0  2  0  0  0  0  0  0  0  0  0
   -0.6668    2.2901    0.0932 C   0  0  1  0  0  0  0  0  0  0  0  0
    2.0910    1.2201    0.7912 C   0  0  0  0  0  0  0  0  0  0  0  0
   -0.9618   -2.3843    1.3916 C   0  0  0  0  0  0  0  0  0  0  0  0
    0.8188   -1.0008   -2.3752 C   0  0  0  0  0  0  0  0  0  0  0  0
   -3.6559    0.3203   -0.5112 C   0  0  0  0  0  0  0  0  0  0  0  0
   -1.9897   -2.8741    2.3660 C   0  0  0  0  0  0  0  0  0  0  0  0
    1.8584   -0.6351   -3.3908 C   0  0  0  0  0  0  0  0  0  0  0  0
    4.2731    0.3631    0.4953 C   0  0  0  0  0  0  0  0  0  0  0  0
   -4.7834    0.0048    0.4243 C   0  0  0  0  0  0  0  0  0  0  0  0
    5.1163   -0.8549    0.7226 C   0  0  0  0  0  0  0  0  0  0  0  0
    0.9425   -1.1402    0.4512 H   0  0  0  0  0  0  0  0  0  0  0  0
   -1.2227   -0.9191   -0.9891 H   0  0  0  0  0  0  0  0  0  0  0  0
    0.8835    0.5137    2.3956 H   0  0  0  0  0  0  0  0  0  0  0  0
   -1.7405    1.5118   -1.5797 H   0  0  0  0  0  0  0  0  0  0  0  0
    0.1575    2.6427   -0.5343 H   0  0  0  0  0  0  0  0  0  0  0  0
    2.0316    1.5057   -0.2636 H   0  0  0  0  0  0  0  0  0  0  0  0
    2.4512    2.0941    1.3479 H   0  0  0  0  0  0  0  0  0  0  0  0
   -2.9688   -2.4637    2.1097 H   0  0  0  0  0  0  0  0  0  0  0  0
   -2.0434   -3.9655    2.3178 H   0  0  0  0  0  0  0  0  0  0  0  0
   -1.7052   -2.5873    3.3815 H   0  0  0  0  0  0  0  0  0  0  0  0
    1.4400    0.0721   -4.1113 H   0  0  0  0  0  0  0  0  0  0  0  0
    2.1740   -1.5345   -3.9272 H   0  0  0  0  0  0  0  0  0  0  0  0
    2.7294   -0.2050   -2.8895 H   0  0  0  0  0  0  0  0  0  0  0  0
   -4.4532   -0.7165    1.1751 H   0  0  0  0  0  0  0  0  0  0  0  0
   -5.6104   -0.4358   -0.1397 H   0  0  0  0  0  0  0  0  0  0  0  0
   -5.1345    0.9230    0.9017 H   0  0  0  0  0  0  0  0  0  0  0  0
    4.6975   -1.7019    0.1733 H   0  0  0  0  0  0  0  0  0  0  0  0
    6.1299   -0.6684    0.3563 H   0  0  0  0  0  0  0  0  0  0  0  0
    5.1667   -1.0759    1.7916 H   0  0  0  0  0  0  0  0  0  0  0  0
  1 15  1  0  0  0  0
  2 13  1  0  0  0  0
  2 15  1  0  0  0  0
  3 11  1  0  0  0  0
  3 17  1  0  0  0  0
  4 12  1  0  0  0  0
  4 18  1  0  0  0  0
  5 14  1  0  0  0  0
  5 19  1  0  0  0  0
  6 16  1  0  0  0  0
  6 22  1  0  0  0  0
  7 17  2  0  0  0  0
  8 18  2  0  0  0  0
  9 19  2  0  0  0  0
 10 22  2  0  0  0  0
 11 12  1  0  0  0  0
 11 13  1  0  0  0  0
 11 25  1  0  0  0  0
 12 14  1  0  0  0  0
 12 26  1  0  0  0  0
 13 16  1  0  0  0  0
 13 27  1  0  0  0  0
 14 15  1  0  0  0  0
 14 28  1  0  0  0  0
 15 29  1  0  0  0  0
 16 30  1  0  0  0  0
 16 31  1  0  0  0  0
 17 20  1  0  0  0  0
 18 21  1  0  0  0  0
 19 23  1  0  0  0  0
 20 32  1  0  0  0  0
 20 33  1  0  0  0  0
 20 34  1  0  0  0  0
 21 35  1  0  0  0  0
 21 36  1  0  0  0  0
 21 37  1  0  0  0  0
 22 24  1  0  0  0  0
 23 38  1  0  0  0  0
 23 39  1  0  0  0  0
 23 40  1  0  0  0  0
 24 41  1  0  0  0  0
 24 42  1  0  0  0  0
 24 43  1  0  0  0  0
M  END
> <PUBCHEM_COMPOUND_CID>
11729291

> <PUBCHEM_CONFORMER_RMSD>
1

> <PUBCHEM_CONFORMER_DIVERSEORDER>
3
27
18
22
17
25
4
28
15
34
21
10
33
13
30
2
32
35
9
24
12
29
6
11
36
14
8
26
7
19
20
23
5
31
1
16

> <PUBCHEM_MMFF94_PARTIAL_CHARGES>
24
1 -0.23
10 -0.57
11 0.28
12 0.28
13 0.28
14 0.28
15 0.51
16 0.28
17 0.66
18 0.66
19 0.66
2 -0.56
20 0.06
21 0.06
22 0.66
23 0.06
24 0.06
3 -0.43
4 -0.43
5 -0.43
6 -0.43
7 -0.57
8 -0.57
9 -0.57

> <PUBCHEM_EFFECTIVE_ROTOR_COUNT>
10.2

> <PUBCHEM_PHARMACOPHORE_FEATURES>
7
1 1 hydrophobe
1 10 acceptor
1 2 acceptor
1 7 acceptor
1 8 acceptor
1 9 acceptor
6 2 11 12 13 14 15 rings

> <PUBCHEM_HEAVY_ATOM_COUNT>
24

> <PUBCHEM_ATOM_DEF_STEREO_COUNT>
4

> <PUBCHEM_ATOM_UDEF_STEREO_COUNT>
1

> <PUBCHEM_BOND_DEF_STEREO_COUNT>
0

> <PUBCHEM_BOND_UDEF_STEREO_COUNT>
0

> <PUBCHEM_ISOTOPIC_ATOM_COUNT>
0

> <PUBCHEM_COMPONENT_COUNT>
1

> <PUBCHEM_CACTVS_TAUTO_COUNT>
1

> <PUBCHEM_CONFORMER_ID>
00B2F98B00000003

> <PUBCHEM_MMFF94_ENERGY>
45.8028

> <PUBCHEM_FEATURE_SELFOVERLAP>
35.525

> <PUBCHEM_SHAPE_FINGERPRINT>
107951 10 18194127313622099954
10906281 52 18270981110134671577
11578080 2 17201942331200571065
12293681 25 18127998410334792167
12592029 89 17632857508193709142
12788726 201 18340196419464928960
14787075 74 18335127713789078083
16945 1 18055885819213829817
20600515 1 18261122901854481293
20691752 17 18192450583648271117
21330990 113 17418089927435973429
23227448 37 17823974735366786092
23402539 116 18411691080597318345
23419403 2 17627555693026086663
23558518 356 18196946465108744945
23559900 14 18335414721280070824
465052 167 18343017839157522189
5845 1 15955360195628035447
59755656 215 17845649240423134749
81228 2 13708064028767455276

> <PUBCHEM_SHAPE_MULTIPOLES>
447.03
7
3.33
2.48
4.8
0.34
-2.24
1.01
0.93
-2.27
1.74
0.8
-1.55
1.03

> <PUBCHEM_SHAPE_SELFOVERLAP>
886.197

> <PUBCHEM_SHAPE_VOLUME>
268.1

> <PUBCHEM_COORDINATE_TYPE>
2
5
10

$$$$
