11724682
  -OEChem-03292013303D

 46 48  0     1  0  0  0  0  0999 V2000
    1.9487    0.8915   -1.1238 O   0  0  0  0  0  0  0  0  0  0  0  0
    0.4021    3.3744    0.1941 O   0  0  0  0  0  0  0  0  0  0  0  0
    2.5747    2.9180    1.7763 O   0  0  0  0  0  0  0  0  0  0  0  0
    4.7573    0.7943   -1.4030 O   0  0  0  0  0  0  0  0  0  0  0  0
   -0.0998   -0.1302   -0.4957 N   0  0  0  0  0  0  0  0  0  0  0  0
   -2.2338    0.5805   -1.1851 N   0  0  0  0  0  0  0  0  0  0  0  0
   -1.7362   -1.6496   -0.4336 N   0  0  0  0  0  0  0  0  0  0  0  0
    1.7482   -1.4837    0.3154 N   0  0  0  0  0  0  0  0  0  0  0  0
    1.0332   -3.7650    0.8060 N   0  0  0  0  0  0  0  0  0  0  0  0
   -1.2252   -4.4968    0.5026 N   0  0  0  0  0  0  0  0  0  0  0  0
    0.5916    1.1437   -0.7008 C   0  0  1  0  0  0  0  0  0  0  0  0
    0.6529    2.0169    0.5537 C   0  0  1  0  0  0  0  0  0  0  0  0
    2.0825    1.8288    1.0257 C   0  0  1  0  0  0  0  0  0  0  0  0
    2.8332    1.6496   -0.2825 C   0  0  1  0  0  0  0  0  0  0  0  0
    4.1520    0.9136   -0.1277 C   0  0  0  0  0  0  0  0  0  0  0  0
   -1.4264   -0.4024   -0.7201 C   0  0  0  0  0  0  0  0  0  0  0  0
    0.4680   -1.2868   -0.0341 C   0  0  0  0  0  0  0  0  0  0  0  0
   -0.5615   -2.2140   -0.0037 C   0  0  0  0  0  0  0  0  0  0  0  0
   -3.6486    0.4184   -1.4607 C   0  0  0  0  0  0  0  0  0  0  0  0
   -0.2419   -3.4944    0.4364 C   0  0  0  0  0  0  0  0  0  0  0  0
   -4.4779    0.6805   -0.2064 C   0  0  0  0  0  0  0  0  0  0  0  0
   -4.3206    2.1105    0.3169 C   0  0  0  0  0  0  0  0  0  0  0  0
    1.9356   -2.7576    0.7238 C   0  0  0  0  0  0  0  0  0  0  0  0
   -5.2081    2.3600    1.5265 C   0  0  0  0  0  0  0  0  0  0  0  0
    0.1123    1.6522   -1.5426 H   0  0  0  0  0  0  0  0  0  0  0  0
   -0.0759    1.7489    1.3255 H   0  0  0  0  0  0  0  0  0  0  0  0
    2.1443    0.9218    1.6384 H   0  0  0  0  0  0  0  0  0  0  0  0
    3.0109    2.6130   -0.7777 H   0  0  0  0  0  0  0  0  0  0  0  0
    4.0207   -0.0943    0.2746 H   0  0  0  0  0  0  0  0  0  0  0  0
    4.8373    1.4615    0.5255 H   0  0  0  0  0  0  0  0  0  0  0  0
   -0.5114    3.4223   -0.1362 H   0  0  0  0  0  0  0  0  0  0  0  0
    3.5024    2.7300    1.9976 H   0  0  0  0  0  0  0  0  0  0  0  0
   -1.8871    1.5253   -1.3225 H   0  0  0  0  0  0  0  0  0  0  0  0
   -3.9381    1.1221   -2.2494 H   0  0  0  0  0  0  0  0  0  0  0  0
   -3.8552   -0.5875   -1.8452 H   0  0  0  0  0  0  0  0  0  0  0  0
    4.1408    0.3070   -1.9759 H   0  0  0  0  0  0  0  0  0  0  0  0
   -4.1972   -0.0290    0.5819 H   0  0  0  0  0  0  0  0  0  0  0  0
   -5.5331    0.4946   -0.4412 H   0  0  0  0  0  0  0  0  0  0  0  0
   -4.5799    2.8259   -0.4722 H   0  0  0  0  0  0  0  0  0  0  0  0
   -3.2794    2.3020    0.6002 H   0  0  0  0  0  0  0  0  0  0  0  0
    2.9462   -3.0092    1.0274 H   0  0  0  0  0  0  0  0  0  0  0  0
   -2.1777   -4.2968    0.2289 H   0  0  0  0  0  0  0  0  0  0  0  0
   -0.9687   -5.4192    0.8273 H   0  0  0  0  0  0  0  0  0  0  0  0
   -4.9538    1.6803    2.3460 H   0  0  0  0  0  0  0  0  0  0  0  0
   -5.0811    3.3865    1.8844 H   0  0  0  0  0  0  0  0  0  0  0  0
   -6.2638    2.2162    1.2751 H   0  0  0  0  0  0  0  0  0  0  0  0
  1 11  1  0  0  0  0
  1 14  1  0  0  0  0
  2 12  1  0  0  0  0
  2 31  1  0  0  0  0
  3 13  1  0  0  0  0
  3 32  1  0  0  0  0
  4 15  1  0  0  0  0
  4 36  1  0  0  0  0
  5 11  1  0  0  0  0
  5 16  1  0  0  0  0
  5 17  1  0  0  0  0
  6 16  1  0  0  0  0
  6 19  1  0  0  0  0
  6 33  1  0  0  0  0
  7 16  2  0  0  0  0
  7 18  1  0  0  0  0
  8 17  2  0  0  0  0
  8 23  1  0  0  0  0
  9 20  1  0  0  0  0
  9 23  2  0  0  0  0
 10 20  1  0  0  0  0
 10 42  1  0  0  0  0
 10 43  1  0  0  0  0
 11 12  1  0  0  0  0
 11 25  1  0  0  0  0
 12 13  1  0  0  0  0
 12 26  1  0  0  0  0
 13 14  1  0  0  0  0
 13 27  1  0  0  0  0
 14 15  1  0  0  0  0
 14 28  1  0  0  0  0
 15 29  1  0  0  0  0
 15 30  1  0  0  0  0
 17 18  1  0  0  0  0
 18 20  2  0  0  0  0
 19 21  1  0  0  0  0
 19 34  1  0  0  0  0
 19 35  1  0  0  0  0
 21 22  1  0  0  0  0
 21 37  1  0  0  0  0
 21 38  1  0  0  0  0
 22 24  1  0  0  0  0
 22 39  1  0  0  0  0
 22 40  1  0  0  0  0
 23 41  1  0  0  0  0
 24 44  1  0  0  0  0
 24 45  1  0  0  0  0
 24 46  1  0  0  0  0
M  END
> <PUBCHEM_COMPOUND_CID>
11724682

> <PUBCHEM_CONFORMER_RMSD>
0.8

> <PUBCHEM_CONFORMER_DIVERSEORDER>
1
29
42
48
69
19
30
23
26
62
3
53
59
41
16
10
39
13
54
22
55
14
65
33
46
64
45
15
67
25
8
66
50
68
2
51
43
21
49
28
60
5
44
58
31
18
27
6
32
56
40
24
17
63
35
57
36
11
20
52
4
34
61
7
9
12
37
38
47

> <PUBCHEM_MMFF94_PARTIAL_CHARGES>
28
1 -0.56
10 -0.9
11 0.54
12 0.28
13 0.28
14 0.28
15 0.28
16 0.27
17 0.11
18 0.23
19 0.37
2 -0.68
20 0.41
23 0.47
3 -0.68
31 0.4
32 0.4
33 0.4
36 0.4
4 -0.68
41 0.15
42 0.4
43 0.4
5 0.05
6 -0.85
7 -0.57
8 -0.57
9 -0.62

> <PUBCHEM_EFFECTIVE_ROTOR_COUNT>
7

> <PUBCHEM_PHARMACOPHORE_FEATURES>
16
1 1 acceptor
1 10 cation
1 10 donor
1 2 acceptor
1 2 donor
1 24 hydrophobe
1 3 acceptor
1 3 donor
1 4 acceptor
1 4 donor
1 6 donor
3 8 9 23 cation
4 5 6 7 16 cation
5 1 11 12 13 14 rings
5 5 7 16 17 18 rings
6 8 9 17 18 20 23 rings

> <PUBCHEM_HEAVY_ATOM_COUNT>
24

> <PUBCHEM_ATOM_DEF_STEREO_COUNT>
4

> <PUBCHEM_ATOM_UDEF_STEREO_COUNT>
0

> <PUBCHEM_BOND_DEF_STEREO_COUNT>
0

> <PUBCHEM_BOND_UDEF_STEREO_COUNT>
0

> <PUBCHEM_ISOTOPIC_ATOM_COUNT>
0

> <PUBCHEM_COMPONENT_COUNT>
1

> <PUBCHEM_CACTVS_TAUTO_COUNT>
6

> <PUBCHEM_CONFORMER_ID>
00B2E78A00000001

> <PUBCHEM_MMFF94_ENERGY>
50.3923

> <PUBCHEM_FEATURE_SELFOVERLAP>
81.345

> <PUBCHEM_SHAPE_FINGERPRINT>
10064457 181 18336831986692402629
10165383 225 18261117382615505101
10906281 52 18201731690865025508
1100329 8 18337382747750599770
11578080 2 13490758465929555374
12160290 23 17755846860004992919
12549972 3 17986670587635771680
12553582 1 17834385723291836119
12644460 14 18188207585429724411
12788726 201 17323792748010150210
13140716 1 18336257951476129515
13464514 151 18343304764257860220
13533116 47 18338230454858113493
13878862 14 17975959987784296605
14178342 30 17974829976954564352
14790565 3 18409174289960262212
14955137 171 17983017752252609399
15475509 84 17547580275660810561
16945 1 17757537930584712910
18785283 64 18115033991495444703
19049666 15 17981884460822685584
19591789 44 18408318891098161830
19784866 9 18337676308517069049
20510252 161 17616805974062690643
20739085 24 18189060784962685557
20832881 197 18130512933719550924
21041028 32 17762617287873798533
21421861 104 18051137990534471553
21524375 3 18341327877196076317
23419403 2 17389981913436021450
23558518 356 18126281089499917229
23598291 2 18058147480773385823
23845131 108 18407759240644994635
3091708 16 9839800552577802039
350125 39 18263365948677635431
352729 6 17831005098561137463
458136 41 18334578992961951949
57527295 17 18059580225949433950
5895379 119 16772394994253928665
59755656 215 18335979891483813519
633830 44 18201430419608600741
7097593 13 17908420261090584639
7226269 152 18343863325467368032
81228 2 17394720022635965319
84936 182 18271233972138950465
9981440 41 16335224029489294857

> <PUBCHEM_SHAPE_MULTIPOLES>
440.55
7.59
4.99
1.26
7.43
4.74
0.05
-6.91
0.22
-1.58
2.22
0.26
-0.6
-0.94

> <PUBCHEM_SHAPE_SELFOVERLAP>
932.905

> <PUBCHEM_SHAPE_VOLUME>
242.2

> <PUBCHEM_COORDINATE_TYPE>
2
5
10

$$$$
