11729521
  -OEChem-03292013303D

 61 63  0     0  0  0  0  0  0999 V2000
   -3.5591    1.0093   -1.2895 O   0  0  0  0  0  0  0  0  0  0  0  0
    2.6185    2.5515   -1.3043 O   0  0  0  0  0  0  0  0  0  0  0  0
    0.8698   -3.5340   -1.2907 O   0  0  0  0  0  0  0  0  0  0  0  0
   -0.0298    0.0194   -0.9039 N   0  0  0  0  0  0  0  0  0  0  0  0
   -8.0755    1.1907    1.9503 N   0  0  0  0  0  0  0  0  0  0  0  0
    5.1626    6.2776    1.9467 N   0  0  0  0  0  0  0  0  0  0  0  0
    3.0322   -7.5216    1.9263 N   0  0  0  0  0  0  0  0  0  0  0  0
   -1.1776    0.8004   -1.3637 C   0  0  0  0  0  0  0  0  0  0  0  0
    1.2177    0.6141   -1.3820 C   0  0  0  0  0  0  0  0  0  0  0  0
   -0.1411   -1.3672   -1.3555 C   0  0  0  0  0  0  0  0  0  0  0  0
   -2.4748    0.2112   -0.8332 C   0  0  0  0  0  0  0  0  0  0  0  0
    1.3887    2.0201   -0.8292 C   0  0  0  0  0  0  0  0  0  0  0  0
    1.0277   -2.1939   -0.8435 C   0  0  0  0  0  0  0  0  0  0  0  0
   -4.6721    1.0541   -0.4910 C   0  0  0  0  0  0  0  0  0  0  0  0
    3.2455    3.4697   -0.5031 C   0  0  0  0  0  0  0  0  0  0  0  0
    1.4026   -4.5167   -0.4978 C   0  0  0  0  0  0  0  0  0  0  0  0
   -4.9945   -0.0412    0.3021 C   0  0  0  0  0  0  0  0  0  0  0  0
    2.4888    4.2923    0.3233 C   0  0  0  0  0  0  0  0  0  0  0  0
    2.5273   -4.2448    0.2727 C   0  0  0  0  0  0  0  0  0  0  0  0
   -5.4674    2.1942   -0.4828 C   0  0  0  0  0  0  0  0  0  0  0  0
    4.6319    3.5691   -0.5254 C   0  0  0  0  0  0  0  0  0  0  0  0
    0.8130   -5.7753   -0.4726 C   0  0  0  0  0  0  0  0  0  0  0  0
   -6.1275    0.0043    1.1146 C   0  0  0  0  0  0  0  0  0  0  0  0
    3.1270    5.2271    1.1386 C   0  0  0  0  0  0  0  0  0  0  0  0
    3.0698   -5.2452    1.0794 C   0  0  0  0  0  0  0  0  0  0  0  0
   -6.6002    2.2399    0.3297 C   0  0  0  0  0  0  0  0  0  0  0  0
    5.2702    4.5037    0.2899 C   0  0  0  0  0  0  0  0  0  0  0  0
    1.3553   -6.7757    0.3342 C   0  0  0  0  0  0  0  0  0  0  0  0
   -6.9303    1.1449    1.1284 C   0  0  0  0  0  0  0  0  0  0  0  0
    4.5177    5.3327    1.1218 C   0  0  0  0  0  0  0  0  0  0  0  0
    2.4837   -6.5106    1.1102 C   0  0  0  0  0  0  0  0  0  0  0  0
   -1.1557    1.8294   -0.9926 H   0  0  0  0  0  0  0  0  0  0  0  0
   -1.2172    0.8661   -2.4593 H   0  0  0  0  0  0  0  0  0  0  0  0
    2.1025    0.0727   -1.0358 H   0  0  0  0  0  0  0  0  0  0  0  0
    1.2729    0.6295   -2.4788 H   0  0  0  0  0  0  0  0  0  0  0  0
   -1.0321   -1.8637   -0.9599 H   0  0  0  0  0  0  0  0  0  0  0  0
   -0.2015   -1.4403   -2.4496 H   0  0  0  0  0  0  0  0  0  0  0  0
   -2.6632   -0.7935   -1.2199 H   0  0  0  0  0  0  0  0  0  0  0  0
   -2.4197    0.1863    0.2635 H   0  0  0  0  0  0  0  0  0  0  0  0
    0.6101    2.7015   -1.1810 H   0  0  0  0  0  0  0  0  0  0  0  0
    1.3660    1.9636    0.2677 H   0  0  0  0  0  0  0  0  0  0  0  0
    1.9849   -1.8599   -1.2508 H   0  0  0  0  0  0  0  0  0  0  0  0
    1.0433   -2.1285    0.2528 H   0  0  0  0  0  0  0  0  0  0  0  0
   -4.4137   -0.9583    0.3001 H   0  0  0  0  0  0  0  0  0  0  0  0
    1.4038    4.2629    0.3461 H   0  0  0  0  0  0  0  0  0  0  0  0
    3.0312   -3.2834    0.2567 H   0  0  0  0  0  0  0  0  0  0  0  0
   -5.2136    3.0490   -1.1032 H   0  0  0  0  0  0  0  0  0  0  0  0
    5.2214    2.9251   -1.1719 H   0  0  0  0  0  0  0  0  0  0  0  0
   -0.0660   -5.9855   -1.0754 H   0  0  0  0  0  0  0  0  0  0  0  0
   -6.3779   -0.8575    1.7280 H   0  0  0  0  0  0  0  0  0  0  0  0
    2.5295    5.8718    1.7782 H   0  0  0  0  0  0  0  0  0  0  0  0
    3.9530   -5.0285    1.6750 H   0  0  0  0  0  0  0  0  0  0  0  0
   -7.2177    3.1345    0.3318 H   0  0  0  0  0  0  0  0  0  0  0  0
    6.3546    4.5762    0.2680 H   0  0  0  0  0  0  0  0  0  0  0  0
    0.8893   -7.7577    0.3495 H   0  0  0  0  0  0  0  0  0  0  0  0
   -8.6584    2.0169    1.9606 H   0  0  0  0  0  0  0  0  0  0  0  0
   -8.3154    0.3968    2.5290 H   0  0  0  0  0  0  0  0  0  0  0  0
    6.1708    6.3553    1.9348 H   0  0  0  0  0  0  0  0  0  0  0  0
    4.6173    6.8791    2.5496 H   0  0  0  0  0  0  0  0  0  0  0  0
    2.6085   -8.4396    1.9485 H   0  0  0  0  0  0  0  0  0  0  0  0
    3.8507   -7.3300    2.4885 H   0  0  0  0  0  0  0  0  0  0  0  0
  1 11  1  0  0  0  0
  1 14  1  0  0  0  0
  2 12  1  0  0  0  0
  2 15  1  0  0  0  0
  3 13  1  0  0  0  0
  3 16  1  0  0  0  0
  4  8  1  0  0  0  0
  4  9  1  0  0  0  0
  4 10  1  0  0  0  0
  5 29  1  0  0  0  0
  5 56  1  0  0  0  0
  5 57  1  0  0  0  0
  6 30  1  0  0  0  0
  6 58  1  0  0  0  0
  6 59  1  0  0  0  0
  7 31  1  0  0  0  0
  7 60  1  0  0  0  0
  7 61  1  0  0  0  0
  8 11  1  0  0  0  0
  8 32  1  0  0  0  0
  8 33  1  0  0  0  0
  9 12  1  0  0  0  0
  9 34  1  0  0  0  0
  9 35  1  0  0  0  0
 10 13  1  0  0  0  0
 10 36  1  0  0  0  0
 10 37  1  0  0  0  0
 11 38  1  0  0  0  0
 11 39  1  0  0  0  0
 12 40  1  0  0  0  0
 12 41  1  0  0  0  0
 13 42  1  0  0  0  0
 13 43  1  0  0  0  0
 14 17  2  0  0  0  0
 14 20  1  0  0  0  0
 15 18  2  0  0  0  0
 15 21  1  0  0  0  0
 16 19  2  0  0  0  0
 16 22  1  0  0  0  0
 17 23  1  0  0  0  0
 17 44  1  0  0  0  0
 18 24  1  0  0  0  0
 18 45  1  0  0  0  0
 19 25  1  0  0  0  0
 19 46  1  0  0  0  0
 20 26  2  0  0  0  0
 20 47  1  0  0  0  0
 21 27  2  0  0  0  0
 21 48  1  0  0  0  0
 22 28  2  0  0  0  0
 22 49  1  0  0  0  0
 23 29  2  0  0  0  0
 23 50  1  0  0  0  0
 24 30  2  0  0  0  0
 24 51  1  0  0  0  0
 25 31  2  0  0  0  0
 25 52  1  0  0  0  0
 26 29  1  0  0  0  0
 26 53  1  0  0  0  0
 27 30  1  0  0  0  0
 27 54  1  0  0  0  0
 28 31  1  0  0  0  0
 28 55  1  0  0  0  0
M  END
> <PUBCHEM_COMPOUND_CID>
11729521

> <PUBCHEM_CONFORMER_RMSD>
1.4

> <PUBCHEM_CONFORMER_DIVERSEORDER>
1
37
15
32
27
19
3
9
24
4
17
12
21
29
33
28
25
42
41
40
10
38
14
31
2
11
34
23
26
20
18
39
36
8
35
22
6
13
16
5
7
30

> <PUBCHEM_MMFF94_PARTIAL_CHARGES>
49
1 -0.36
10 0.27
11 0.28
12 0.28
13 0.28
14 0.08
15 0.08
16 0.08
17 -0.15
18 -0.15
19 -0.15
2 -0.36
20 -0.15
21 -0.15
22 -0.15
23 -0.15
24 -0.15
25 -0.15
26 -0.15
27 -0.15
28 -0.15
29 0.1
3 -0.36
30 0.1
31 0.1
4 -0.81
44 0.15
45 0.15
46 0.15
47 0.15
48 0.15
49 0.15
5 -0.9
50 0.15
51 0.15
52 0.15
53 0.15
54 0.15
55 0.15
56 0.4
57 0.4
58 0.4
59 0.4
6 -0.9
60 0.4
61 0.4
7 -0.9
8 0.27
9 0.27

> <PUBCHEM_EFFECTIVE_ROTOR_COUNT>
12

> <PUBCHEM_PHARMACOPHORE_FEATURES>
13
1 1 acceptor
1 2 acceptor
1 3 acceptor
1 4 cation
1 5 cation
1 5 donor
1 6 cation
1 6 donor
1 7 cation
1 7 donor
6 14 17 20 23 26 29 rings
6 15 18 21 24 27 30 rings
6 16 19 22 25 28 31 rings

> <PUBCHEM_HEAVY_ATOM_COUNT>
31

> <PUBCHEM_ATOM_DEF_STEREO_COUNT>
0

> <PUBCHEM_ATOM_UDEF_STEREO_COUNT>
0

> <PUBCHEM_BOND_DEF_STEREO_COUNT>
0

> <PUBCHEM_BOND_UDEF_STEREO_COUNT>
0

> <PUBCHEM_ISOTOPIC_ATOM_COUNT>
0

> <PUBCHEM_COMPONENT_COUNT>
1

> <PUBCHEM_CACTVS_TAUTO_COUNT>
1

> <PUBCHEM_CONFORMER_ID>
00B2FA7100000001

> <PUBCHEM_MMFF94_ENERGY>
134.9198

> <PUBCHEM_FEATURE_SELFOVERLAP>
65.972

> <PUBCHEM_SHAPE_FINGERPRINT>
10074138 170 17618222144780796951
11136131 41 18411136909520529689
11297750 10 17826232887716619229
12342043 65 17678756535881369415
12988421 55 18266443494482550173
13008946 335 18269281333729536720
13955234 65 18338806628335324829
14565420 104 18342465884737558413
15198563 99 9221584789362501721
15878777 1 13207689549625051133
16090146 7 17690514927222932934
16096371 109 18411410696637357153
16114785 44 17909270522158929711
18393751 57 18193560193456686989
21033648 29 18196380440001522605
21639891 77 16752389817756360903
24180151 214 17693619982704394015
283562 15 17908975845054184071
3418910 222 17613721419616403510
376196 1 17916312812498834644
4046055 4 17185876090900461239
4144715 1 17620473945392125856
4408954 87 17693968549556216987
4561138 5 18199200495092054785
6376802 137 17540263046783149915
6695519 79 18052289416090961483
6697151 62 17978497651756157085
79837 15 17906452482261842724
9658208 31 18051992590669747164
9896288 288 17903359552064286290

> <PUBCHEM_SHAPE_MULTIPOLES>
600.43
15.39
14.96
1.62
36.34
23.06
0.34
-23.34
8.85
-35.89
8.49
0
-0.05
0.01

> <PUBCHEM_SHAPE_SELFOVERLAP>
1266.759

> <PUBCHEM_SHAPE_VOLUME>
339

> <PUBCHEM_COORDINATE_TYPE>
2
5
10

$$$$
