11724428
  -OEChem-03292013303D

 46 47  0     1  0  0  0  0  0999 V2000
   -4.0131    1.8536   -1.5128 O   0  0  0  0  0  0  0  0  0  0  0  0
   -4.9283    0.2625    0.8041 O   0  0  0  0  0  0  0  0  0  0  0  0
    0.7518   -2.1052    0.2585 O   0  0  0  0  0  0  0  0  0  0  0  0
    3.4462   -1.8411   -0.8366 O   0  0  0  0  0  0  0  0  0  0  0  0
    0.0468   -0.9513   -1.6290 O   0  0  0  0  0  0  0  0  0  0  0  0
    4.9274    2.4209    0.6619 O   0  0  0  0  0  0  0  0  0  0  0  0
   -3.1611    1.2162   -0.5559 C   0  0  1  0  0  0  0  0  0  0  0  0
   -2.8447    2.2262    0.5640 C   0  0  0  0  0  0  0  0  0  0  0  0
   -3.8470   -0.0709   -0.0655 C   0  0  1  0  0  0  0  0  0  0  0  0
   -1.7807    3.2635    0.1624 C   0  0  0  0  0  0  0  0  0  0  0  0
   -0.1396   -3.2225    0.0348 C   0  0  2  0  0  0  0  0  0  0  0  0
   -1.4410   -3.0281    0.8288 C   0  0  0  0  0  0  0  0  0  0  0  0
   -2.8888   -0.9787    0.6573 C   0  0  0  0  0  0  0  0  0  0  0  0
   -2.4074   -2.1137    0.1293 C   0  0  0  0  0  0  0  0  0  0  0  0
   -0.3608    2.7809   -0.0046 C   0  0  0  0  0  0  0  0  0  0  0  0
    1.5156    1.1495    0.1643 C   0  0  0  0  0  0  0  0  0  0  0  0
    0.6068   -4.4581    0.5310 C   0  0  0  0  0  0  0  0  0  0  0  0
    0.1243    1.5845    0.3633 C   0  0  0  0  0  0  0  0  0  0  0  0
    1.8170   -0.1563   -0.2628 C   0  0  0  0  0  0  0  0  0  0  0  0
    0.7573   -1.1014   -0.6510 C   0  0  0  0  0  0  0  0  0  0  0  0
    2.5833    2.0040    0.4805 C   0  0  0  0  0  0  0  0  0  0  0  0
    3.1429   -0.5885   -0.3926 C   0  0  0  0  0  0  0  0  0  0  0  0
    3.9072    1.5737    0.3531 C   0  0  0  0  0  0  0  0  0  0  0  0
    4.1860    0.2803   -0.0826 C   0  0  0  0  0  0  0  0  0  0  0  0
   -2.2483    0.9451   -1.0976 H   0  0  0  0  0  0  0  0  0  0  0  0
   -2.5227    1.7202    1.4805 H   0  0  0  0  0  0  0  0  0  0  0  0
   -3.7610    2.7766    0.8147 H   0  0  0  0  0  0  0  0  0  0  0  0
   -4.2908   -0.5993   -0.9184 H   0  0  0  0  0  0  0  0  0  0  0  0
   -1.7688    4.0575    0.9196 H   0  0  0  0  0  0  0  0  0  0  0  0
   -2.0896    3.7379   -0.7774 H   0  0  0  0  0  0  0  0  0  0  0  0
   -0.3377   -3.3475   -1.0373 H   0  0  0  0  0  0  0  0  0  0  0  0
   -1.2116   -2.6472    1.8317 H   0  0  0  0  0  0  0  0  0  0  0  0
   -1.9472   -3.9933    0.9520 H   0  0  0  0  0  0  0  0  0  0  0  0
   -2.5705   -0.6805    1.6530 H   0  0  0  0  0  0  0  0  0  0  0  0
   -2.7269   -2.4139   -0.8659 H   0  0  0  0  0  0  0  0  0  0  0  0
    0.3053    3.5006   -0.4772 H   0  0  0  0  0  0  0  0  0  0  0  0
    0.8574   -4.3655    1.5937 H   0  0  0  0  0  0  0  0  0  0  0  0
    0.0140   -5.3664    0.3871 H   0  0  0  0  0  0  0  0  0  0  0  0
    1.5543   -4.5724   -0.0070 H   0  0  0  0  0  0  0  0  0  0  0  0
   -0.5189    0.8501    0.8352 H   0  0  0  0  0  0  0  0  0  0  0  0
   -4.1516    1.2291   -2.2451 H   0  0  0  0  0  0  0  0  0  0  0  0
   -5.5245    0.8538    0.3133 H   0  0  0  0  0  0  0  0  0  0  0  0
    2.3873    3.0117    0.8424 H   0  0  0  0  0  0  0  0  0  0  0  0
    5.2173   -0.0485   -0.1827 H   0  0  0  0  0  0  0  0  0  0  0  0
    2.6389   -2.3500   -1.0122 H   0  0  0  0  0  0  0  0  0  0  0  0
    4.5557    3.2738    0.9456 H   0  0  0  0  0  0  0  0  0  0  0  0
  1  7  1  0  0  0  0
  1 41  1  0  0  0  0
  2  9  1  0  0  0  0
  2 42  1  0  0  0  0
  3 11  1  0  0  0  0
  3 20  1  0  0  0  0
  4 22  1  0  0  0  0
  4 45  1  0  0  0  0
  5 20  2  0  0  0  0
  6 23  1  0  0  0  0
  6 46  1  0  0  0  0
  7  8  1  0  0  0  0
  7  9  1  0  0  0  0
  7 25  1  0  0  0  0
  8 10  1  0  0  0  0
  8 26  1  0  0  0  0
  8 27  1  0  0  0  0
  9 13  1  0  0  0  0
  9 28  1  0  0  0  0
 10 15  1  0  0  0  0
 10 29  1  0  0  0  0
 10 30  1  0  0  0  0
 11 12  1  0  0  0  0
 11 17  1  0  0  0  0
 11 31  1  0  0  0  0
 12 14  1  0  0  0  0
 12 32  1  0  0  0  0
 12 33  1  0  0  0  0
 13 14  2  0  0  0  0
 13 34  1  0  0  0  0
 14 35  1  0  0  0  0
 15 18  2  0  0  0  0
 15 36  1  0  0  0  0
 16 18  1  0  0  0  0
 16 19  2  0  0  0  0
 16 21  1  0  0  0  0
 17 37  1  0  0  0  0
 17 38  1  0  0  0  0
 17 39  1  0  0  0  0
 18 40  1  0  0  0  0
 19 20  1  0  0  0  0
 19 22  1  0  0  0  0
 21 23  2  0  0  0  0
 21 43  1  0  0  0  0
 22 24  2  0  0  0  0
 23 24  1  0  0  0  0
 24 44  1  0  0  0  0
M  END
> <PUBCHEM_COMPOUND_CID>
11724428

> <PUBCHEM_CONFORMER_RMSD>
0.6

> <PUBCHEM_CONFORMER_DIVERSEORDER>
1

> <PUBCHEM_MMFF94_PARTIAL_CHARGES>
32
1 -0.68
10 0.14
11 0.28
12 0.14
13 -0.29
14 -0.29
15 -0.29
16 0.03
18 -0.18
19 0.09
2 -0.68
20 0.63
21 -0.15
22 0.08
23 0.08
24 -0.15
3 -0.43
34 0.15
35 0.15
36 0.15
4 -0.53
40 0.15
41 0.4
42 0.4
43 0.15
44 0.15
45 0.45
46 0.45
5 -0.57
6 -0.53
7 0.28
9 0.42

> <PUBCHEM_EFFECTIVE_ROTOR_COUNT>
1.4

> <PUBCHEM_PHARMACOPHORE_FEATURES>
8
1 1 acceptor
1 1 donor
1 2 acceptor
1 2 donor
1 4 donor
1 5 acceptor
1 6 donor
6 16 19 21 22 23 24 rings

> <PUBCHEM_HEAVY_ATOM_COUNT>
24

> <PUBCHEM_ATOM_DEF_STEREO_COUNT>
3

> <PUBCHEM_ATOM_UDEF_STEREO_COUNT>
0

> <PUBCHEM_BOND_DEF_STEREO_COUNT>
2

> <PUBCHEM_BOND_UDEF_STEREO_COUNT>
0

> <PUBCHEM_ISOTOPIC_ATOM_COUNT>
0

> <PUBCHEM_COMPONENT_COUNT>
1

> <PUBCHEM_CACTVS_TAUTO_COUNT>
12

> <PUBCHEM_CONFORMER_ID>
00B2E68C00000001

> <PUBCHEM_MMFF94_ENERGY>
58.4398

> <PUBCHEM_FEATURE_SELFOVERLAP>
40.6

> <PUBCHEM_SHAPE_FINGERPRINT>
10074138 170 17907260559643599296
10675989 125 17686882935606982469
10759866 29 18041003968418954476
108634 29 18340775922211453886
10967382 1 18411141333151383609
11014199 57 17257374566470802642
11370993 70 18335977593232717445
12293681 4 17682963554604873290
12553582 1 16467279211406090069
12633257 1 17978524348935329907
12839892 36 18192976154859589848
13140716 1 18411423881964916002
13402501 40 18339364166650974201
138480 1 17473543551770017875
14178342 30 17765985104769610064
14251745 187 18343015592773764129
14251757 5 18047773751663118004
14466204 15 18194116314227179634
14765038 42 18128558083454708561
15196674 1 18413390921505603085
16728300 4 17823390795586514667
17093844 170 18410855460318397344
19591789 44 18339082566977747982
19930381 70 18337674101526092075
20775438 99 16473141309601559063
20905425 154 18053106125228165135
21796203 349 16755260062895827522
221490 88 18270405967011378140
23559900 14 18194958544133227698
2871803 45 18340763728852359717
9709674 26 18342741780113765300
9981440 41 18335412465905016019

> <PUBCHEM_SHAPE_MULTIPOLES>
458.69
7.93
4.84
0.95
1.06
3.27
0.21
-4.44
-0.33
-0.72
-0.86
-0.32
0.03
1.16

> <PUBCHEM_SHAPE_SELFOVERLAP>
954.994

> <PUBCHEM_SHAPE_VOLUME>
258.5

> <PUBCHEM_COORDINATE_TYPE>
2
5
10

$$$$
