11743862
  -OEChem-03292013303D

 52 55  0     1  0  0  0  0  0999 V2000
   -3.3813   -3.1052    0.1842 S   0  0  0  0  0  0  0  0  0  0  0  0
    4.9130   -1.2081   -1.5812 S   0  0  0  0  0  0  0  0  0  0  0  0
    7.3225   -2.3698   -1.1281 F   0  0  0  0  0  0  0  0  0  0  0  0
   -3.3810   -3.7649   -1.1102 O   0  0  0  0  0  0  0  0  0  0  0  0
   -3.2826   -3.8666    1.4186 O   0  0  0  0  0  0  0  0  0  0  0  0
   -2.0975    5.4190   -0.8459 O   0  0  0  0  0  0  0  0  0  0  0  0
    2.4756    0.7372    1.8755 O   0  0  0  0  0  0  0  0  0  0  0  0
    2.9616    0.0531   -0.3217 N   0  0  0  0  0  0  0  0  0  0  0  0
    4.8949   -0.6979    0.9530 N   0  0  0  0  0  0  0  0  0  0  0  0
   -4.9834   -2.1813    0.3098 C   0  0  0  0  0  0  0  0  0  0  0  0
   -6.1190   -2.9485   -0.3010 C   0  0  0  0  0  0  0  0  0  0  0  0
   -5.5115   -1.7925   -1.0400 C   0  0  0  0  0  0  0  0  0  0  0  0
   -0.8039    3.1135    0.3075 C   0  0  0  0  0  0  0  0  0  0  0  0
   -2.1524   -1.8653    0.1670 C   0  0  0  0  0  0  0  0  0  0  0  0
    0.4531    2.4682    0.8840 C   0  0  0  0  0  0  0  0  0  0  0  0
    0.8793    1.1969    0.1228 C   0  0  2  0  0  0  0  0  0  0  0  0
   -0.5886    3.5395   -1.1491 C   0  0  0  0  0  0  0  0  0  0  0  0
   -1.2384    4.3223    1.1441 C   0  0  0  0  0  0  0  0  0  0  0  0
   -0.1903    0.1177    0.1386 C   0  0  0  0  0  0  0  0  0  0  0  0
   -1.8037    4.2946   -1.6742 C   0  0  0  0  0  0  0  0  0  0  0  0
   -2.4169    5.0338    0.4906 C   0  0  0  0  0  0  0  0  0  0  0  0
   -1.7280   -1.3214   -1.0454 C   0  0  0  0  0  0  0  0  0  0  0  0
   -1.5957   -1.4178    1.3651 C   0  0  0  0  0  0  0  0  0  0  0  0
   -0.7471   -0.3299   -1.0596 C   0  0  0  0  0  0  0  0  0  0  0  0
   -0.6146   -0.4264    1.3509 C   0  0  0  0  0  0  0  0  0  0  0  0
    2.2002    0.6452    0.6827 C   0  0  0  0  0  0  0  0  0  0  0  0
    4.2063   -0.5596   -0.1582 C   0  0  0  0  0  0  0  0  0  0  0  0
    6.2583   -1.7214   -0.6495 C   0  0  0  0  0  0  0  0  0  0  0  0
    6.0709   -1.3644    0.6695 C   0  0  0  0  0  0  0  0  0  0  0  0
   -5.1594   -1.5453    1.1643 H   0  0  0  0  0  0  0  0  0  0  0  0
   -7.1052   -2.8065    0.1264 H   0  0  0  0  0  0  0  0  0  0  0  0
   -5.9550   -3.9459   -0.6878 H   0  0  0  0  0  0  0  0  0  0  0  0
   -4.9483   -2.0008   -1.9396 H   0  0  0  0  0  0  0  0  0  0  0  0
   -6.0922   -0.8787   -1.1026 H   0  0  0  0  0  0  0  0  0  0  0  0
   -1.6313    2.3926    0.3356 H   0  0  0  0  0  0  0  0  0  0  0  0
    0.2851    2.2403    1.9447 H   0  0  0  0  0  0  0  0  0  0  0  0
    1.2826    3.1883    0.8652 H   0  0  0  0  0  0  0  0  0  0  0  0
    1.0878    1.4821   -0.9155 H   0  0  0  0  0  0  0  0  0  0  0  0
    0.2906    4.1932   -1.2099 H   0  0  0  0  0  0  0  0  0  0  0  0
   -0.4139    2.6834   -1.8060 H   0  0  0  0  0  0  0  0  0  0  0  0
   -1.5060    4.0114    2.1601 H   0  0  0  0  0  0  0  0  0  0  0  0
   -0.3996    5.0255    1.2237 H   0  0  0  0  0  0  0  0  0  0  0  0
   -2.6840    3.6435   -1.7320 H   0  0  0  0  0  0  0  0  0  0  0  0
   -1.6023    4.6682   -2.6833 H   0  0  0  0  0  0  0  0  0  0  0  0
   -2.6595    5.9426    1.0506 H   0  0  0  0  0  0  0  0  0  0  0  0
   -3.3118    4.4005    0.4842 H   0  0  0  0  0  0  0  0  0  0  0  0
   -2.1514   -1.6502   -1.9903 H   0  0  0  0  0  0  0  0  0  0  0  0
   -1.9157   -1.8234    2.3207 H   0  0  0  0  0  0  0  0  0  0  0  0
   -0.4263    0.0832   -2.0120 H   0  0  0  0  0  0  0  0  0  0  0  0
   -0.1942   -0.0927    2.2953 H   0  0  0  0  0  0  0  0  0  0  0  0
    2.6064    0.0397   -1.2741 H   0  0  0  0  0  0  0  0  0  0  0  0
    6.7677   -1.5684    1.4711 H   0  0  0  0  0  0  0  0  0  0  0  0
  1  4  2  0  0  0  0
  1  5  2  0  0  0  0
  1 10  1  0  0  0  0
  1 14  1  0  0  0  0
  2 27  1  0  0  0  0
  2 28  1  0  0  0  0
  3 28  1  0  0  0  0
  6 20  1  0  0  0  0
  6 21  1  0  0  0  0
  7 26  2  0  0  0  0
  8 26  1  0  0  0  0
  8 27  1  0  0  0  0
  8 51  1  0  0  0  0
  9 27  2  0  0  0  0
  9 29  1  0  0  0  0
 10 11  1  0  0  0  0
 10 12  1  0  0  0  0
 10 30  1  0  0  0  0
 11 12  1  0  0  0  0
 11 31  1  0  0  0  0
 11 32  1  0  0  0  0
 12 33  1  0  0  0  0
 12 34  1  0  0  0  0
 13 15  1  0  0  0  0
 13 17  1  0  0  0  0
 13 18  1  0  0  0  0
 13 35  1  0  0  0  0
 14 22  2  0  0  0  0
 14 23  1  0  0  0  0
 15 16  1  0  0  0  0
 15 36  1  0  0  0  0
 15 37  1  0  0  0  0
 16 19  1  0  0  0  0
 16 26  1  0  0  0  0
 16 38  1  0  0  0  0
 17 20  1  0  0  0  0
 17 39  1  0  0  0  0
 17 40  1  0  0  0  0
 18 21  1  0  0  0  0
 18 41  1  0  0  0  0
 18 42  1  0  0  0  0
 19 24  2  0  0  0  0
 19 25  1  0  0  0  0
 20 43  1  0  0  0  0
 20 44  1  0  0  0  0
 21 45  1  0  0  0  0
 21 46  1  0  0  0  0
 22 24  1  0  0  0  0
 22 47  1  0  0  0  0
 23 25  2  0  0  0  0
 23 48  1  0  0  0  0
 24 49  1  0  0  0  0
 25 50  1  0  0  0  0
 28 29  2  0  0  0  0
 29 52  1  0  0  0  0
M  END
> <PUBCHEM_COMPOUND_CID>
11743862

> <PUBCHEM_CONFORMER_RMSD>
1

> <PUBCHEM_CONFORMER_DIVERSEORDER>
1
86
28
26
56
94
14
96
65
57
3
68
25
46
54
63
59
89
19
75
70
85
32
37
58
66
90
74
44
73
34
81
78
55
23
64
92
38
49
10
33
91
67
39
50
13
11
18
69
21
88
79
6
27
87
71
83
12
76
15
62
7
93
95
36
35
16
29
61
51
72
77
8
84
80
53
52
43
9
22
17
4
60
45
24
30
40
2
20
42
47
48
31
82
41
5

> <PUBCHEM_MMFF94_PARTIAL_CHARGES>
36
1 1.29
10 -0.08
11 -0.2
12 -0.2
14 -0.01
16 0.2
19 -0.14
2 -0.08
20 0.28
21 0.28
22 -0.15
23 -0.15
24 -0.15
25 -0.15
26 0.57
27 0.44
28 0.18
29 0.08
3 -0.14
30 0.1
31 0.1
32 0.1
33 0.1
34 0.1
4 -0.65
47 0.15
48 0.15
49 0.15
5 -0.65
50 0.15
51 0.37
52 0.15
6 -0.56
7 -0.57
8 -0.49
9 -0.57

> <PUBCHEM_EFFECTIVE_ROTOR_COUNT>
9.8

> <PUBCHEM_PHARMACOPHORE_FEATURES>
8
1 4 acceptor
1 5 acceptor
1 6 acceptor
1 7 acceptor
1 8 donor
5 2 9 27 28 29 rings
6 14 19 22 23 24 25 rings
6 6 13 17 18 20 21 rings

> <PUBCHEM_HEAVY_ATOM_COUNT>
29

> <PUBCHEM_ATOM_DEF_STEREO_COUNT>
1

> <PUBCHEM_ATOM_UDEF_STEREO_COUNT>
0

> <PUBCHEM_BOND_DEF_STEREO_COUNT>
0

> <PUBCHEM_BOND_UDEF_STEREO_COUNT>
0

> <PUBCHEM_ISOTOPIC_ATOM_COUNT>
0

> <PUBCHEM_COMPONENT_COUNT>
1

> <PUBCHEM_CACTVS_TAUTO_COUNT>
3

> <PUBCHEM_CONFORMER_ID>
00B3327600000001

> <PUBCHEM_MMFF94_ENERGY>
54.54

> <PUBCHEM_FEATURE_SELFOVERLAP>
40.614

> <PUBCHEM_SHAPE_FINGERPRINT>
105312 117 17977673009308590724
10815517 723 18340778052990207337
10985338 1 16379707582132864781
11297750 10 18271800242323956352
11331351 85 18201156667620599057
11809386 21 18335980849504224010
11991303 11 18046071453880792836
12633046 712 17608116443664403731
12645989 146 18270113656244039639
12788726 201 18261945259047357419
131258 43 18122929752341140052
13540713 4 18130493160186051376
13590594 115 18336551616234476353
13690498 29 18341901784012191118
13757389 114 18047201756657089564
13911987 19 17250079260066850060
13955234 65 17473555027933163139
14068700 675 18259983799465850478
14713325 29 18269271270557729013
14866123 147 18267024964165470963
15042514 8 18413109446349499017
15927050 60 17978795601431271171
17492 89 17835239318077793931
17539 30 18410293579806518828
1813 80 18270973469456001510
19301676 85 16831232996804292606
21120745 212 18336846263401532908
21365058 113 18188773989095969247
21703447 108 18339070588868120760
23536364 44 18334842914718631911
23559900 14 18123183782646114843
24771750 20 17034450787067817245
255183 313 18124336920913834737
3004659 81 18114180878390402566
3103668 31 18335132052307856517
3388396 114 17826827968521089228
394222 165 10810990446060800481
437815 12 18411134783558833599
4409770 3 18265333911245745345
504843 32 17973729073409666341
5080951 261 17916006989536962950
508180 173 18188480376979601385
57307002 103 17687473773046313739
59755656 520 17980480058051726612
6669772 16 17620758284620282758
6677587 24 15316514398873341573
70251023 43 18410293648921362050
77188 2 18267305511350448753

> <PUBCHEM_SHAPE_MULTIPOLES>
563.79
13.01
7.22
1.52
16.64
11.37
-0.04
-19.94
-3.07
-10.05
-0.92
0.26
0.24
1.17

> <PUBCHEM_SHAPE_SELFOVERLAP>
1167.352

> <PUBCHEM_SHAPE_VOLUME>
324

> <PUBCHEM_COORDINATE_TYPE>
2
5
10

$$$$
