11744644
  -OEChem-03292013303D

 64 65  0     1  0  0  0  0  0999 V2000
    0.9574   -1.0525   -0.0077 O   0  0  0  0  0  0  0  0  0  0  0  0
    2.6293    1.5192   -1.5824 O   0  0  0  0  0  0  0  0  0  0  0  0
    4.2887   -2.5081   -3.0502 O   0  0  0  0  0  0  0  0  0  0  0  0
    1.1559    2.6425    1.2598 O   0  0  0  0  0  0  0  0  0  0  0  0
   -4.3724    0.4630    0.2077 O   0  0  0  0  0  0  0  0  0  0  0  0
    0.7211    0.5619    2.1952 N   0  0  0  0  0  0  0  0  0  0  0  0
    3.4657   -0.3833   -2.6146 N   0  0  0  0  0  0  0  0  0  0  0  0
   -2.1358    0.5258    0.8381 N   0  0  0  0  0  0  0  0  0  0  0  0
    3.2448   -0.4446   -0.3041 C   0  0  2  0  0  0  0  0  0  0  0  0
    2.0051   -0.0303    1.9214 C   0  0  2  0  0  0  0  0  0  0  0  0
    3.7019   -1.8225   -0.7936 C   0  0  1  0  0  0  0  0  0  0  0  0
    1.9726   -0.5707    0.4956 C   0  0  0  0  0  0  0  0  0  0  0  0
    2.4183   -1.1062    2.9429 C   0  0  0  0  0  0  0  0  0  0  0  0
    3.0632    0.3766   -1.5471 C   0  0  0  0  0  0  0  0  0  0  0  0
    3.8698   -1.6513   -2.2852 C   0  0  0  0  0  0  0  0  0  0  0  0
    5.0109   -2.2589   -0.1509 C   0  0  0  0  0  0  0  0  0  0  0  0
    1.4776   -2.3133    2.8768 C   0  0  0  0  0  0  0  0  0  0  0  0
    2.4898   -0.5836    4.3814 C   0  0  0  0  0  0  0  0  0  0  0  0
    0.3998    1.8660    1.8367 C   0  0  0  0  0  0  0  0  0  0  0  0
   -1.0251    2.2235    2.2362 C   0  0  0  0  0  0  0  0  0  0  0  0
   -2.0588    1.9397    1.1358 C   0  0  1  0  0  0  0  0  0  0  0  0
   -1.7667    2.7310   -0.1230 C   0  0  0  0  0  0  0  0  0  0  0  0
   -2.3173    4.0015   -0.2918 C   0  0  0  0  0  0  0  0  0  0  0  0
   -0.9466    2.1893   -1.1129 C   0  0  0  0  0  0  0  0  0  0  0  0
   -3.2940   -0.0901    0.3975 C   0  0  0  0  0  0  0  0  0  0  0  0
   -2.0482    4.7301   -1.4504 C   0  0  0  0  0  0  0  0  0  0  0  0
   -0.6774    2.9180   -2.2715 C   0  0  0  0  0  0  0  0  0  0  0  0
   -1.2283    4.1884   -2.4402 C   0  0  0  0  0  0  0  0  0  0  0  0
   -3.0913   -1.5483    0.1685 C   0  0  0  0  0  0  0  0  0  0  0  0
   -4.1067   -2.3103   -0.2611 C   0  0  0  0  0  0  0  0  0  0  0  0
   -3.9710   -3.7305   -0.4994 C   0  0  0  0  0  0  0  0  0  0  0  0
   -4.9799   -4.5024   -0.9291 C   0  0  0  0  0  0  0  0  0  0  0  0
   -4.8522   -5.9693   -1.1782 C   0  0  0  0  0  0  0  0  0  0  0  0
    4.0209    0.0390    0.2995 H   0  0  0  0  0  0  0  0  0  0  0  0
    2.7397    0.7839    1.9527 H   0  0  0  0  0  0  0  0  0  0  0  0
    2.9442   -2.5975   -0.6275 H   0  0  0  0  0  0  0  0  0  0  0  0
    3.4212   -1.4611    2.6733 H   0  0  0  0  0  0  0  0  0  0  0  0
    5.8183   -1.5495   -0.3642 H   0  0  0  0  0  0  0  0  0  0  0  0
    4.9050   -2.3439    0.9347 H   0  0  0  0  0  0  0  0  0  0  0  0
    5.3256   -3.2345   -0.5369 H   0  0  0  0  0  0  0  0  0  0  0  0
    0.0041   -0.0167    2.6214 H   0  0  0  0  0  0  0  0  0  0  0  0
    3.4606   -0.0382   -3.5680 H   0  0  0  0  0  0  0  0  0  0  0  0
    0.4419   -2.0495    3.1113 H   0  0  0  0  0  0  0  0  0  0  0  0
    1.4984   -2.7938    1.8942 H   0  0  0  0  0  0  0  0  0  0  0  0
    1.7894   -3.0737    3.6023 H   0  0  0  0  0  0  0  0  0  0  0  0
    1.5056   -0.2725    4.7470 H   0  0  0  0  0  0  0  0  0  0  0  0
    3.1644    0.2765    4.4450 H   0  0  0  0  0  0  0  0  0  0  0  0
    2.8697   -1.3578    5.0565 H   0  0  0  0  0  0  0  0  0  0  0  0
   -1.0288    3.2892    2.4979 H   0  0  0  0  0  0  0  0  0  0  0  0
   -1.2934    1.6785    3.1501 H   0  0  0  0  0  0  0  0  0  0  0  0
   -3.0464    2.2392    1.5106 H   0  0  0  0  0  0  0  0  0  0  0  0
   -1.2825   -0.0212    0.9094 H   0  0  0  0  0  0  0  0  0  0  0  0
   -2.9559    4.4354    0.4729 H   0  0  0  0  0  0  0  0  0  0  0  0
   -0.4943    1.2075   -1.0100 H   0  0  0  0  0  0  0  0  0  0  0  0
   -2.4764    5.7196   -1.5816 H   0  0  0  0  0  0  0  0  0  0  0  0
   -0.0369    2.4973   -3.0413 H   0  0  0  0  0  0  0  0  0  0  0  0
   -1.0179    4.7560   -3.3419 H   0  0  0  0  0  0  0  0  0  0  0  0
   -2.1093   -1.9703    0.3589 H   0  0  0  0  0  0  0  0  0  0  0  0
   -5.0849   -1.8743   -0.4471 H   0  0  0  0  0  0  0  0  0  0  0  0
   -2.9964   -4.1762   -0.3156 H   0  0  0  0  0  0  0  0  0  0  0  0
   -5.9584   -4.0663   -1.1158 H   0  0  0  0  0  0  0  0  0  0  0  0
   -3.8435   -6.3400   -0.9702 H   0  0  0  0  0  0  0  0  0  0  0  0
   -5.5546   -6.5174   -0.5429 H   0  0  0  0  0  0  0  0  0  0  0  0
   -5.0883   -6.1915   -2.2234 H   0  0  0  0  0  0  0  0  0  0  0  0
  1 12  2  0  0  0  0
  2 14  2  0  0  0  0
  3 15  2  0  0  0  0
  4 19  2  0  0  0  0
  5 25  2  0  0  0  0
  6 10  1  0  0  0  0
  6 19  1  0  0  0  0
  6 41  1  0  0  0  0
  7 14  1  0  0  0  0
  7 15  1  0  0  0  0
  7 42  1  0  0  0  0
  8 21  1  0  0  0  0
  8 25  1  0  0  0  0
  8 52  1  0  0  0  0
  9 11  1  0  0  0  0
  9 12  1  0  0  0  0
  9 14  1  0  0  0  0
  9 34  1  0  0  0  0
 10 12  1  0  0  0  0
 10 13  1  0  0  0  0
 10 35  1  0  0  0  0
 11 15  1  0  0  0  0
 11 16  1  0  0  0  0
 11 36  1  0  0  0  0
 13 17  1  0  0  0  0
 13 18  1  0  0  0  0
 13 37  1  0  0  0  0
 16 38  1  0  0  0  0
 16 39  1  0  0  0  0
 16 40  1  0  0  0  0
 17 43  1  0  0  0  0
 17 44  1  0  0  0  0
 17 45  1  0  0  0  0
 18 46  1  0  0  0  0
 18 47  1  0  0  0  0
 18 48  1  0  0  0  0
 19 20  1  0  0  0  0
 20 21  1  0  0  0  0
 20 49  1  0  0  0  0
 20 50  1  0  0  0  0
 21 22  1  0  0  0  0
 21 51  1  0  0  0  0
 22 23  2  0  0  0  0
 22 24  1  0  0  0  0
 23 26  1  0  0  0  0
 23 53  1  0  0  0  0
 24 27  2  0  0  0  0
 24 54  1  0  0  0  0
 25 29  1  0  0  0  0
 26 28  2  0  0  0  0
 26 55  1  0  0  0  0
 27 28  1  0  0  0  0
 27 56  1  0  0  0  0
 28 57  1  0  0  0  0
 29 30  2  0  0  0  0
 29 58  1  0  0  0  0
 30 31  1  0  0  0  0
 30 59  1  0  0  0  0
 31 32  2  0  0  0  0
 31 60  1  0  0  0  0
 32 33  1  0  0  0  0
 32 61  1  0  0  0  0
 33 62  1  0  0  0  0
 33 63  1  0  0  0  0
 33 64  1  0  0  0  0
M  END
> <PUBCHEM_COMPOUND_CID>
11744644

> <PUBCHEM_CONFORMER_RMSD>
1.2

> <PUBCHEM_CONFORMER_DIVERSEORDER>
1
134
162
86
148
81
191
120
40
83
32
197
101
127
173
105
79
47
149
140
166
95
67
128
136
178
98
163
184
94
29
119
104
137
188
115
177
80
84
4
22
9
139
164
160
118
189
190
42
132
151
97
31
57
175
106
153
159
61
102
12
46
195
122
27
165
16
161
126
45
201
145
171
8
63
129
78
179
20
123
113
38
13
6
109
24
183
76
138
82
100
192
146
2
158
23
30
174
71
51
15
196
111
58
17
43
87
185
11
200
133
93
152
176
85
53
125
172
88
116
34
167
135
92
60
18
19
198
55
170
108
25
142
121
54
7
39
155
69
103
10
154
107
147
21
180
36
99
194
141
168
62
193
91
90
52
65
5
41
181
49
26
199
131
117
130
14
186
33
169
112
144
143
66
150
89
28
73
187
37
3
50
70
96
64
48
157
124
74
110
35
75
68
72
114
56
44
182
59
156
77

> <PUBCHEM_MMFF94_PARTIAL_CHARGES>
41
1 -0.57
10 0.36
11 0.06
12 0.45
14 0.57
15 0.57
19 0.57
2 -0.57
20 0.06
21 0.44
22 -0.14
23 -0.15
24 -0.15
25 0.62
26 -0.15
27 -0.15
28 -0.15
29 -0.14
3 -0.57
30 -0.15
31 -0.15
32 -0.29
33 0.14
4 -0.57
41 0.37
42 0.37
5 -0.57
52 0.37
53 0.15
54 0.15
55 0.15
56 0.15
57 0.15
58 0.15
59 0.15
6 -0.73
60 0.15
61 0.15
7 -0.49
8 -0.73
9 0.12

> <PUBCHEM_EFFECTIVE_ROTOR_COUNT>
12.6

> <PUBCHEM_PHARMACOPHORE_FEATURES>
13
1 1 acceptor
1 2 acceptor
1 3 acceptor
1 33 hydrophobe
1 4 acceptor
1 5 acceptor
1 6 donor
1 7 donor
1 8 donor
1 9 anion
3 13 17 18 hydrophobe
5 7 9 11 14 15 rings
6 22 23 24 26 27 28 rings

> <PUBCHEM_HEAVY_ATOM_COUNT>
33

> <PUBCHEM_ATOM_DEF_STEREO_COUNT>
4

> <PUBCHEM_ATOM_UDEF_STEREO_COUNT>
0

> <PUBCHEM_BOND_DEF_STEREO_COUNT>
2

> <PUBCHEM_BOND_UDEF_STEREO_COUNT>
0

> <PUBCHEM_ISOTOPIC_ATOM_COUNT>
0

> <PUBCHEM_COMPONENT_COUNT>
1

> <PUBCHEM_CACTVS_TAUTO_COUNT>
84

> <PUBCHEM_CONFORMER_ID>
00B3358400000001

> <PUBCHEM_MMFF94_ENERGY>
61.5522

> <PUBCHEM_FEATURE_SELFOVERLAP>
65.972

> <PUBCHEM_SHAPE_FINGERPRINT>
10721379 63 17681821145217946057
107951 10 16551741603050898561
11285246 1 18191613949863095818
12147406 95 18125703824273181887
12788726 201 17896600592385544353
13636023 20 17897994961891367301
14114206 34 18040716974346394043
14863182 85 17336182041006267433
15484559 13 16602924398332121133
15664445 248 18045496680104302213
20587220 46 16839405056652886807
20775530 9 18196672884682656319
21796203 349 15123523523021073958
340366 18 16886379049221812585
376196 1 11170173372799687531
4017518 198 17184718335417447291
4394409 98 17113264338803151326
508180 173 12542069128757941962
633830 44 16446475567262717474
9831232 110 17905882931994785887

> <PUBCHEM_SHAPE_MULTIPOLES>
634.83
9.18
7.01
3.64
3.53
0.63
1.87
14.74
-4.51
12.07
-4.56
-5.02
0.45
-0.49

> <PUBCHEM_SHAPE_SELFOVERLAP>
1313.598

> <PUBCHEM_SHAPE_VOLUME>
361.9

> <PUBCHEM_COORDINATE_TYPE>
2
5
10

$$$$
