11743072
  -OEChem-03292013303D

 54 56  0     1  0  0  0  0  0999 V2000
   -1.9609    0.0304   -0.4351 O   0  0  0  0  0  0  0  0  0  0  0  0
   -1.2921   -1.3343    1.3352 O   0  0  0  0  0  0  0  0  0  0  0  0
   -5.8774   -0.0703    0.7967 O   0  0  0  0  0  0  0  0  0  0  0  0
   -5.2370    0.7789   -1.8912 O   0  0  0  0  0  0  0  0  0  0  0  0
   -3.9812   -2.1338    1.7060 O   0  0  0  0  0  0  0  0  0  0  0  0
   -1.1224    1.0925   -2.8279 O   0  0  0  0  0  0  0  0  0  0  0  0
    2.9607   -2.2480   -0.5763 O   0  0  0  0  0  0  0  0  0  0  0  0
    2.0117    2.0964    1.3360 O   0  0  0  0  0  0  0  0  0  0  0  0
    4.3333    1.4979    0.2520 O   0  0  0  0  0  0  0  0  0  0  0  0
    1.2300    2.8041   -0.7539 O   0  0  0  0  0  0  0  0  0  0  0  0
   -4.7328   -0.5243    0.0727 C   0  0  1  0  0  0  0  0  0  0  0  0
   -4.2785    0.6062   -0.8508 C   0  0  1  0  0  0  0  0  0  0  0  0
   -3.6291   -0.9124    1.0567 C   0  0  2  0  0  0  0  0  0  0  0  0
   -2.9142    0.2885   -1.4675 C   0  0  1  0  0  0  0  0  0  0  0  0
   -2.2937   -1.1178    0.3418 C   0  0  1  0  0  0  0  0  0  0  0  0
   -2.3863    1.4524   -2.3005 C   0  0  0  0  0  0  0  0  0  0  0  0
   -0.0345   -0.9146    1.0186 C   0  0  0  0  0  0  0  0  0  0  0  0
    0.8508   -1.7827    0.3773 C   0  0  0  0  0  0  0  0  0  0  0  0
    0.3670    0.3852    1.3342 C   0  0  0  0  0  0  0  0  0  0  0  0
    2.1366   -1.3493    0.0527 C   0  0  0  0  0  0  0  0  0  0  0  0
    1.6523    0.8219    1.0109 C   0  0  0  0  0  0  0  0  0  0  0  0
    2.5342   -0.0509    0.3693 C   0  0  0  0  0  0  0  0  0  0  0  0
    0.4149   -3.1733    0.0400 C   0  0  0  0  0  0  0  0  0  0  0  0
   -0.5867    1.3096    2.0231 C   0  0  0  0  0  0  0  0  0  0  0  0
    3.8958    0.3802    0.0163 C   0  0  0  0  0  0  0  0  0  0  0  0
    4.2436   -1.8441   -0.9093 C   0  0  0  0  0  0  0  0  0  0  0  0
    4.7408   -0.6242   -0.6579 C   0  0  0  0  0  0  0  0  0  0  0  0
    5.0467   -2.9087   -1.5880 C   0  0  0  0  0  0  0  0  0  0  0  0
    1.7393    3.0402    0.3336 C   0  0  0  0  0  0  0  0  0  0  0  0
    2.1690    4.4045    0.7852 C   0  0  0  0  0  0  0  0  0  0  0  0
   -5.0585   -1.3976   -0.5056 H   0  0  0  0  0  0  0  0  0  0  0  0
   -4.2361    1.5446   -0.2843 H   0  0  0  0  0  0  0  0  0  0  0  0
   -3.5384   -0.1525    1.8413 H   0  0  0  0  0  0  0  0  0  0  0  0
   -2.9710   -0.5955   -2.1172 H   0  0  0  0  0  0  0  0  0  0  0  0
   -2.3209   -2.0072   -0.3009 H   0  0  0  0  0  0  0  0  0  0  0  0
   -2.2491    2.3515   -1.6905 H   0  0  0  0  0  0  0  0  0  0  0  0
   -3.0531    1.6895   -3.1343 H   0  0  0  0  0  0  0  0  0  0  0  0
   -6.5536    0.1809    0.1443 H   0  0  0  0  0  0  0  0  0  0  0  0
   -5.2758   -0.0465   -2.4038 H   0  0  0  0  0  0  0  0  0  0  0  0
   -4.0666   -2.8232    1.0254 H   0  0  0  0  0  0  0  0  0  0  0  0
   -0.5392    0.8844   -2.0778 H   0  0  0  0  0  0  0  0  0  0  0  0
    1.2429   -3.8860    0.1182 H   0  0  0  0  0  0  0  0  0  0  0  0
   -0.3565   -3.5407    0.7249 H   0  0  0  0  0  0  0  0  0  0  0  0
    0.0200   -3.2041   -0.9805 H   0  0  0  0  0  0  0  0  0  0  0  0
   -0.0658    1.9593    2.7351 H   0  0  0  0  0  0  0  0  0  0  0  0
   -1.1039    1.9389    1.2922 H   0  0  0  0  0  0  0  0  0  0  0  0
   -1.3336    0.7701    2.6136 H   0  0  0  0  0  0  0  0  0  0  0  0
    5.7501   -0.3399   -0.9317 H   0  0  0  0  0  0  0  0  0  0  0  0
    6.0561   -2.5681   -1.8409 H   0  0  0  0  0  0  0  0  0  0  0  0
    4.5544   -3.2195   -2.5151 H   0  0  0  0  0  0  0  0  0  0  0  0
    5.1404   -3.7837   -0.9366 H   0  0  0  0  0  0  0  0  0  0  0  0
    1.6182    4.6847    1.6865 H   0  0  0  0  0  0  0  0  0  0  0  0
    1.9481    5.1329   -0.0001 H   0  0  0  0  0  0  0  0  0  0  0  0
    3.2452    4.4088    0.9738 H   0  0  0  0  0  0  0  0  0  0  0  0
  1 14  1  0  0  0  0
  1 15  1  0  0  0  0
  2 15  1  0  0  0  0
  2 17  1  0  0  0  0
  3 11  1  0  0  0  0
  3 38  1  0  0  0  0
  4 12  1  0  0  0  0
  4 39  1  0  0  0  0
  5 13  1  0  0  0  0
  5 40  1  0  0  0  0
  6 16  1  0  0  0  0
  6 41  1  0  0  0  0
  7 20  1  0  0  0  0
  7 26  1  0  0  0  0
  8 21  1  0  0  0  0
  8 29  1  0  0  0  0
  9 25  2  0  0  0  0
 10 29  2  0  0  0  0
 11 12  1  0  0  0  0
 11 13  1  0  0  0  0
 11 31  1  0  0  0  0
 12 14  1  0  0  0  0
 12 32  1  0  0  0  0
 13 15  1  0  0  0  0
 13 33  1  0  0  0  0
 14 16  1  0  0  0  0
 14 34  1  0  0  0  0
 15 35  1  0  0  0  0
 16 36  1  0  0  0  0
 16 37  1  0  0  0  0
 17 18  1  0  0  0  0
 17 19  2  0  0  0  0
 18 20  2  0  0  0  0
 18 23  1  0  0  0  0
 19 21  1  0  0  0  0
 19 24  1  0  0  0  0
 20 22  1  0  0  0  0
 21 22  2  0  0  0  0
 22 25  1  0  0  0  0
 23 42  1  0  0  0  0
 23 43  1  0  0  0  0
 23 44  1  0  0  0  0
 24 45  1  0  0  0  0
 24 46  1  0  0  0  0
 24 47  1  0  0  0  0
 25 27  1  0  0  0  0
 26 27  2  0  0  0  0
 26 28  1  0  0  0  0
 27 48  1  0  0  0  0
 28 49  1  0  0  0  0
 28 50  1  0  0  0  0
 28 51  1  0  0  0  0
 29 30  1  0  0  0  0
 30 52  1  0  0  0  0
 30 53  1  0  0  0  0
 30 54  1  0  0  0  0
M  END
> <PUBCHEM_COMPOUND_CID>
11743072

> <PUBCHEM_CONFORMER_RMSD>
0.8

> <PUBCHEM_CONFORMER_DIVERSEORDER>
2
50
12
59
32
24
15
38
25
8
16
37
51
6
54
48
45
47
28
55
49
30
20
35
14
5
52
33
43
60
40
39
57
46
11
31
23
53
36
42
44
13
34
10
7
27
19
18
56
9
22
17
29
1
41
26
4
58
21
3

> <PUBCHEM_MMFF94_PARTIAL_CHARGES>
35
1 -0.56
10 -0.57
11 0.28
12 0.28
13 0.28
14 0.28
15 0.56
16 0.28
17 0.08
18 -0.14
19 -0.14
2 -0.36
20 0.08
21 0.08
22 0.09
23 0.14
24 0.14
25 0.47
26 -0.06
27 -0.14
28 0.14
29 0.66
3 -0.68
30 0.06
38 0.4
39 0.4
4 -0.68
40 0.4
41 0.4
48 0.15
5 -0.68
6 -0.68
7 -0.16
8 -0.23
9 -0.57

> <PUBCHEM_EFFECTIVE_ROTOR_COUNT>
6.2

> <PUBCHEM_PHARMACOPHORE_FEATURES>
16
1 1 acceptor
1 10 acceptor
1 2 acceptor
1 3 acceptor
1 3 donor
1 4 acceptor
1 4 donor
1 5 acceptor
1 5 donor
1 6 acceptor
1 6 donor
1 7 acceptor
1 9 acceptor
6 1 11 12 13 14 15 rings
6 17 18 19 20 21 22 rings
6 7 20 22 25 26 27 rings

> <PUBCHEM_HEAVY_ATOM_COUNT>
30

> <PUBCHEM_ATOM_DEF_STEREO_COUNT>
5

> <PUBCHEM_ATOM_UDEF_STEREO_COUNT>
0

> <PUBCHEM_BOND_DEF_STEREO_COUNT>
0

> <PUBCHEM_BOND_UDEF_STEREO_COUNT>
0

> <PUBCHEM_ISOTOPIC_ATOM_COUNT>
0

> <PUBCHEM_COMPONENT_COUNT>
1

> <PUBCHEM_CACTVS_TAUTO_COUNT>
3

> <PUBCHEM_CONFORMER_ID>
00B32F6000000002

> <PUBCHEM_MMFF94_ENERGY>
100.3243

> <PUBCHEM_FEATURE_SELFOVERLAP>
81.294

> <PUBCHEM_SHAPE_FINGERPRINT>
10366900 7 18187636960881727567
10369192 42 17761496193767322124
10498660 4 17240754043920463791
11513181 2 17972608954686722663
11595378 159 15791999078810254055
12035758 1 18264473126990821048
12156800 1 17623893078076213309
12236239 1 16774080670138512027
12422481 6 17901642063752957208
12623949 98 17836112300060938843
12788726 201 17620185434751594864
13134695 92 17775565351334745128
13140716 1 17768815608903597666
13402501 40 18187078472824307244
13782708 43 18333454252929310531
13911987 19 18339098020650485366
14251757 17 18335133172544928736
14508225 48 18270411469207024788
15081414 286 18341619234972006776
15324884 4 17969790863683174203
15806764 133 18260834816933216241
17357779 13 18271243820683368434
1813 80 17632025147879277580
20511986 3 16199854142394438512
21033650 10 17023757693348623828
21792961 116 18261683571718422870
221357 26 18339356375406336373
22182313 1 18409440389196113704
22907989 373 17974597731399312084
23114952 82 18264212581094246584
23175994 123 18341058432064279499
23536364 44 18121782716784325622
23557571 272 17749670796244451355
23559900 14 18412266155143137995
23598288 3 17274272630112901185
238 59 17978185570214520085
3524813 1 18260261962479151247
46194498 28 18262237849525633981
5080951 261 17125628416551941758
5081480 168 18413114947991914389
508706 21 17894903049474199423
6287921 2 18117844532300167957
6823239 73 17748825237237627837
7808743 9 17023178271952919261
9862522 239 17471826561543032752

> <PUBCHEM_SHAPE_MULTIPOLES>
558.69
10.21
3.69
1.92
5.42
2.54
0.86
-3.68
3.06
-4.51
-0.28
1.66
0.41
2.71

> <PUBCHEM_SHAPE_SELFOVERLAP>
1200.964

> <PUBCHEM_SHAPE_VOLUME>
304.2

> <PUBCHEM_COORDINATE_TYPE>
2
5
10

$$$$
