11742629
  -OEChem-03292013303D

 54 57  0     1  0  0  0  0  0999 V2000
   -3.8879   -1.0565   -0.8696 O   0  0  0  0  0  0  0  0  0  0  0  0
   -2.3793   -0.0429    0.6562 O   0  0  0  0  0  0  0  0  0  0  0  0
   -6.3163    1.7086    1.0432 O   0  0  0  0  0  0  0  0  0  0  0  0
   -5.5886    2.1103   -1.6873 O   0  0  0  0  0  0  0  0  0  0  0  0
   -5.8265   -1.0229    1.2519 O   0  0  0  0  0  0  0  0  0  0  0  0
   -0.7958   -0.1408    2.9533 O   0  0  0  0  0  0  0  0  0  0  0  0
   -0.1893    1.0769   -0.2969 O   0  0  0  0  0  0  0  0  0  0  0  0
    2.6989    1.2692    0.1175 N   0  0  0  0  0  0  0  0  0  0  0  0
    1.2155   -2.0779   -0.3324 N   0  0  0  0  0  0  0  0  0  0  0  0
   -5.1351    1.1607    0.4622 C   0  0  2  0  0  0  0  0  0  0  0  0
   -5.3906    0.8679   -1.0168 C   0  0  2  0  0  0  0  0  0  0  0  0
   -4.7283   -0.1102    1.2097 C   0  0  2  0  0  0  0  0  0  0  0  0
   -4.1926    0.1226   -1.6214 C   0  0  2  0  0  0  0  0  0  0  0  0
   -3.5683   -0.8104    0.5041 C   0  0  1  0  0  0  0  0  0  0  0  0
   -4.4604   -0.3210   -3.0569 C   0  0  0  0  0  0  0  0  0  0  0  0
   -1.2250   -0.8706    0.6736 C   0  0  1  0  0  0  0  0  0  0  0  0
   -0.0634   -0.0939    0.0586 C   0  0  0  0  0  0  0  0  0  0  0  0
    2.4293   -0.0631   -0.0805 C   0  0  0  0  0  0  0  0  0  0  0  0
    1.2568   -0.7613   -0.1248 C   0  0  0  0  0  0  0  0  0  0  0  0
   -0.9651   -1.2826    2.1188 C   0  0  0  0  0  0  0  0  0  0  0  0
    3.6503   -0.7137   -0.2546 C   0  0  0  0  0  0  0  0  0  0  0  0
    4.6780    0.2771   -0.1555 C   0  0  0  0  0  0  0  0  0  0  0  0
    4.0536    1.5032    0.0768 C   0  0  0  0  0  0  0  0  0  0  0  0
    3.6430   -2.1000   -0.4757 C   0  0  0  0  0  0  0  0  0  0  0  0
    2.3974   -2.7127   -0.5018 C   0  0  0  0  0  0  0  0  0  0  0  0
    6.0856    0.2428   -0.2423 C   0  0  0  0  0  0  0  0  0  0  0  0
    4.7656    2.6987    0.2270 C   0  0  0  0  0  0  0  0  0  0  0  0
    4.8682   -2.9265   -0.6785 C   0  0  0  0  0  0  0  0  0  0  0  0
    6.8113    1.4302   -0.0945 C   0  0  0  0  0  0  0  0  0  0  0  0
    6.1588    2.6389    0.1365 C   0  0  0  0  0  0  0  0  0  0  0  0
   -4.3494    1.9198    0.5633 H   0  0  0  0  0  0  0  0  0  0  0  0
   -6.3150    0.2870   -1.1223 H   0  0  0  0  0  0  0  0  0  0  0  0
   -4.4726    0.1380    2.2455 H   0  0  0  0  0  0  0  0  0  0  0  0
   -3.3096    0.7745   -1.6392 H   0  0  0  0  0  0  0  0  0  0  0  0
   -3.4537   -1.7994    0.9651 H   0  0  0  0  0  0  0  0  0  0  0  0
   -5.3369   -0.9765   -3.1061 H   0  0  0  0  0  0  0  0  0  0  0  0
   -4.6203    0.5308   -3.7238 H   0  0  0  0  0  0  0  0  0  0  0  0
   -3.6133   -0.9013   -3.4393 H   0  0  0  0  0  0  0  0  0  0  0  0
   -1.3829   -1.7524    0.0389 H   0  0  0  0  0  0  0  0  0  0  0  0
   -6.5541    2.4989    0.5288 H   0  0  0  0  0  0  0  0  0  0  0  0
   -5.9095    1.9158   -2.5838 H   0  0  0  0  0  0  0  0  0  0  0  0
   -5.9688   -1.3733    0.3565 H   0  0  0  0  0  0  0  0  0  0  0  0
   -1.8094   -1.8462    2.5262 H   0  0  0  0  0  0  0  0  0  0  0  0
   -0.0715   -1.9073    2.2120 H   0  0  0  0  0  0  0  0  0  0  0  0
    1.9989    1.9817    0.2721 H   0  0  0  0  0  0  0  0  0  0  0  0
    2.3020   -3.7824   -0.6669 H   0  0  0  0  0  0  0  0  0  0  0  0
    6.6185   -0.6858   -0.4216 H   0  0  0  0  0  0  0  0  0  0  0  0
    4.2582    3.6406    0.4069 H   0  0  0  0  0  0  0  0  0  0  0  0
    4.6289   -3.9840   -0.8335 H   0  0  0  0  0  0  0  0  0  0  0  0
    5.4167   -2.5802   -1.5602 H   0  0  0  0  0  0  0  0  0  0  0  0
    5.5185   -2.8613    0.1996 H   0  0  0  0  0  0  0  0  0  0  0  0
    0.0044    0.3252    2.6573 H   0  0  0  0  0  0  0  0  0  0  0  0
    7.8958    1.4074   -0.1609 H   0  0  0  0  0  0  0  0  0  0  0  0
    6.7409    3.5500    0.2485 H   0  0  0  0  0  0  0  0  0  0  0  0
  1 13  1  0  0  0  0
  1 14  1  0  0  0  0
  2 14  1  0  0  0  0
  2 16  1  0  0  0  0
  3 10  1  0  0  0  0
  3 40  1  0  0  0  0
  4 11  1  0  0  0  0
  4 41  1  0  0  0  0
  5 12  1  0  0  0  0
  5 42  1  0  0  0  0
  6 20  1  0  0  0  0
  6 52  1  0  0  0  0
  7 17  2  0  0  0  0
  8 18  1  0  0  0  0
  8 23  1  0  0  0  0
  8 45  1  0  0  0  0
  9 19  2  0  0  0  0
  9 25  1  0  0  0  0
 10 11  1  0  0  0  0
 10 12  1  0  0  0  0
 10 31  1  0  0  0  0
 11 13  1  0  0  0  0
 11 32  1  0  0  0  0
 12 14  1  0  0  0  0
 12 33  1  0  0  0  0
 13 15  1  0  0  0  0
 13 34  1  0  0  0  0
 14 35  1  0  0  0  0
 15 36  1  0  0  0  0
 15 37  1  0  0  0  0
 15 38  1  0  0  0  0
 16 17  1  0  0  0  0
 16 20  1  0  0  0  0
 16 39  1  0  0  0  0
 17 19  1  0  0  0  0
 18 19  1  0  0  0  0
 18 21  2  0  0  0  0
 20 43  1  0  0  0  0
 20 44  1  0  0  0  0
 21 22  1  0  0  0  0
 21 24  1  0  0  0  0
 22 23  1  0  0  0  0
 22 26  2  0  0  0  0
 23 27  2  0  0  0  0
 24 25  2  0  0  0  0
 24 28  1  0  0  0  0
 25 46  1  0  0  0  0
 26 29  1  0  0  0  0
 26 47  1  0  0  0  0
 27 30  1  0  0  0  0
 27 48  1  0  0  0  0
 28 49  1  0  0  0  0
 28 50  1  0  0  0  0
 28 51  1  0  0  0  0
 29 30  2  0  0  0  0
 29 53  1  0  0  0  0
 30 54  1  0  0  0  0
M  END
> <PUBCHEM_COMPOUND_CID>
11742629

> <PUBCHEM_CONFORMER_RMSD>
1

> <PUBCHEM_CONFORMER_DIVERSEORDER>
1
235
52
435
460
276
16
313
472
526
444
243
174
292
353
401
454
151
464
65
13
309
177
391
81
67
297
130
519
528
107
415
74
157
59
15
105
202
153
23
219
20
479
145
62
3
438
312
42
229
356
33
207
392
307
44
150
39
123
268
355
56
156
231
254
82
168
48
315
98
102
225
289
9
331
360
414
185
103
182
448
26
320
534
284
115
6
382
296
179
17
78
96
43
230
140
274
90
514
36
11
246
482
147
507
310
30
406
377
372
426
14
122
25
40
317
175
220
288
88
260
61
71
368
8
261
341
38
411
50
18
75
198
324
133
12
388
446
474
395
118
104
68
155
208
4
237
258
55
66
370
28
282
232
173
203
251
273
2
516
409
79
95
41
354
10
538
21
136
127
418
134
376
22
548

> <PUBCHEM_MMFF94_PARTIAL_CHARGES>
37
1 -0.56
10 0.28
11 0.28
12 0.28
13 0.28
14 0.56
16 0.34
17 0.42
18 -0.15
19 0.4
2 -0.56
20 0.28
23 -0.15
24 -0.14
25 0.16
26 -0.15
27 -0.15
28 0.14
29 -0.15
3 -0.68
30 -0.15
4 -0.68
40 0.4
41 0.4
42 0.4
45 0.27
46 0.15
47 0.15
48 0.15
5 -0.68
52 0.4
53 0.15
54 0.15
6 -0.68
7 -0.57
8 0.03
9 -0.62

> <PUBCHEM_EFFECTIVE_ROTOR_COUNT>
6.2

> <PUBCHEM_PHARMACOPHORE_FEATURES>
18
1 1 acceptor
1 2 acceptor
1 3 acceptor
1 3 donor
1 4 acceptor
1 4 donor
1 5 acceptor
1 5 donor
1 6 acceptor
1 6 donor
1 7 acceptor
1 8 cation
1 8 donor
1 9 acceptor
5 8 18 21 22 23 rings
6 1 10 11 12 13 14 rings
6 22 23 26 27 29 30 rings
6 9 18 19 21 24 25 rings

> <PUBCHEM_HEAVY_ATOM_COUNT>
30

> <PUBCHEM_ATOM_DEF_STEREO_COUNT>
5

> <PUBCHEM_ATOM_UDEF_STEREO_COUNT>
1

> <PUBCHEM_BOND_DEF_STEREO_COUNT>
0

> <PUBCHEM_BOND_UDEF_STEREO_COUNT>
0

> <PUBCHEM_ISOTOPIC_ATOM_COUNT>
0

> <PUBCHEM_COMPONENT_COUNT>
1

> <PUBCHEM_CACTVS_TAUTO_COUNT>
7

> <PUBCHEM_CONFORMER_ID>
00B32DA500000001

> <PUBCHEM_MMFF94_ENERGY>
78.3556

> <PUBCHEM_FEATURE_SELFOVERLAP>
91.606

> <PUBCHEM_SHAPE_FINGERPRINT>
10411042 1 17908431256508543406
10595046 47 18273496784317269699
10763959 59 18260267486630533748
10835480 77 18409729539142439901
10906281 52 18041576813924538196
11497681 19 18270397339002842687
12236239 1 17489872643925283326
12403259 415 17967536739965010351
12616971 3 17989207010368377591
12730499 353 18410299125194665558
12788726 201 16845304782580171331
12838862 33 18271232912263508920
13402501 40 18260546749234921412
13631057 29 17772183369653740119
13690498 29 16915647293472176863
14528608 73 18131348644002510948
15064981 113 16414352235493445037
15081414 286 18334862718586506516
15183329 4 18343578538437492613
15238133 3 15502375617221042350
15274700 147 15879847111496807612
15276724 80 18198628735770454761
15840311 113 18268159673662400765
18222031 100 14261344748011161611
19304671 126 17827047664313382061
20157964 124 18341618105194998402
20511986 3 17775275054278722250
21033648 144 18409731776467025575
21033648 29 17603308133086387823
22393880 68 16845281778808984785
23559900 14 17749117651775778318
2838139 119 18408878555697137308
2916195 48 18040715879028960849
335352 9 18342464768873684724
3459 39 16732971046539683540
4073 2 18261402194761036970
4098825 35 18413393129324470019
4340502 62 17240481421145786802
5104073 3 18260555506614885147
7226269 152 17530960302064581029

> <PUBCHEM_SHAPE_MULTIPOLES>
566.34
17.74
2.68
1.76
3.71
0.3
-0.08
-9.2
-2.91
-4.29
-0.33
3.77
0.22
1.09

> <PUBCHEM_SHAPE_SELFOVERLAP>
1235.479

> <PUBCHEM_SHAPE_VOLUME>
307

> <PUBCHEM_COORDINATE_TYPE>
2
5
10

$$$$
