11742283
  -OEChem-03292013303D

 48 50  0     0  0  0  0  0  0999 V2000
    1.6663    2.1997   -0.3191 O   0  0  0  0  0  0  0  0  0  0  0  0
   -1.6687   -2.1996   -0.3193 O   0  0  0  0  0  0  0  0  0  0  0  0
   -1.0429    2.5561   -0.3209 O   0  0  0  0  0  0  0  0  0  0  0  0
    1.0405   -2.5560   -0.3197 O   0  0  0  0  0  0  0  0  0  0  0  0
    6.9361   -0.9163   -0.3207 O   0  0  0  0  0  0  0  0  0  0  0  0
   -6.9331    0.9163   -0.3208 O   0  0  0  0  0  0  0  0  0  0  0  0
    1.6370    2.1652    2.0214 O   0  0  0  0  0  0  0  0  0  0  0  0
   -1.6404   -2.1646    2.0212 O   0  0  0  0  0  0  0  0  0  0  0  0
    1.3870   -0.1826   -0.3191 C   0  0  0  0  0  0  0  0  0  0  0  0
   -1.3841    0.1819   -0.3197 C   0  0  0  0  0  0  0  0  0  0  0  0
    0.8479    1.1067   -0.3194 C   0  0  0  0  0  0  0  0  0  0  0  0
   -0.8502   -1.1067   -0.3194 C   0  0  0  0  0  0  0  0  0  0  0  0
   -0.5350    1.2886   -0.3197 C   0  0  0  0  0  0  0  0  0  0  0  0
    0.5327   -1.2886   -0.3191 C   0  0  0  0  0  0  0  0  0  0  0  0
    2.8215   -0.3712   -0.3198 C   0  0  0  0  0  0  0  0  0  0  0  0
   -2.8237    0.3713   -0.3203 C   0  0  0  0  0  0  0  0  0  0  0  0
    3.5125   -0.4616   -1.5279 C   0  0  0  0  0  0  0  0  0  0  0  0
    3.5131   -0.4636    0.8880 C   0  0  0  0  0  0  0  0  0  0  0  0
   -3.5098    0.4613   -1.5284 C   0  0  0  0  0  0  0  0  0  0  0  0
   -3.5100    0.4631    0.8876 C   0  0  0  0  0  0  0  0  0  0  0  0
    4.8955   -0.6444   -1.5283 C   0  0  0  0  0  0  0  0  0  0  0  0
    4.8960   -0.6464    0.8877 C   0  0  0  0  0  0  0  0  0  0  0  0
   -4.8925    0.6444   -1.5285 C   0  0  0  0  0  0  0  0  0  0  0  0
   -4.8928    0.6459    0.8873 C   0  0  0  0  0  0  0  0  0  0  0  0
    5.5871   -0.7368   -0.3204 C   0  0  0  0  0  0  0  0  0  0  0  0
   -5.5841    0.7367   -0.3208 C   0  0  0  0  0  0  0  0  0  0  0  0
    2.0072    2.6557    0.9630 C   0  0  0  0  0  0  0  0  0  0  0  0
   -2.0101   -2.6553    0.9627 C   0  0  0  0  0  0  0  0  0  0  0  0
    2.9039    3.8533    0.8564 C   0  0  0  0  0  0  0  0  0  0  0  0
   -2.9070   -3.8528    0.8560 C   0  0  0  0  0  0  0  0  0  0  0  0
    2.9885   -0.3918   -2.4782 H   0  0  0  0  0  0  0  0  0  0  0  0
    2.9900   -0.4007    1.8391 H   0  0  0  0  0  0  0  0  0  0  0  0
   -2.9851    0.3915   -2.4781 H   0  0  0  0  0  0  0  0  0  0  0  0
   -2.9859    0.4001    1.8380 H   0  0  0  0  0  0  0  0  0  0  0  0
    5.4223   -0.7136   -2.4762 H   0  0  0  0  0  0  0  0  0  0  0  0
    5.4290   -0.7189    1.8318 H   0  0  0  0  0  0  0  0  0  0  0  0
   -5.4255    0.7145   -2.4728 H   0  0  0  0  0  0  0  0  0  0  0  0
   -5.4196    0.7176    1.8351 H   0  0  0  0  0  0  0  0  0  0  0  0
   -2.0125    2.5519   -0.3192 H   0  0  0  0  0  0  0  0  0  0  0  0
    2.0102   -2.5520   -0.3174 H   0  0  0  0  0  0  0  0  0  0  0  0
    3.8213    3.5805    0.3291 H   0  0  0  0  0  0  0  0  0  0  0  0
    3.1673    4.1997    1.8598 H   0  0  0  0  0  0  0  0  0  0  0  0
    2.3830    4.6590    0.3334 H   0  0  0  0  0  0  0  0  0  0  0  0
   -3.8245   -3.5798    0.3288 H   0  0  0  0  0  0  0  0  0  0  0  0
   -3.1703   -4.1994    1.8593 H   0  0  0  0  0  0  0  0  0  0  0  0
   -2.3863   -4.6585    0.3328 H   0  0  0  0  0  0  0  0  0  0  0  0
    7.2484   -0.9568   -1.2410 H   0  0  0  0  0  0  0  0  0  0  0  0
   -7.2454    0.9582    0.5994 H   0  0  0  0  0  0  0  0  0  0  0  0
  1 11  1  0  0  0  0
  1 27  1  0  0  0  0
  2 12  1  0  0  0  0
  2 28  1  0  0  0  0
  3 13  1  0  0  0  0
  3 39  1  0  0  0  0
  4 14  1  0  0  0  0
  4 40  1  0  0  0  0
  5 25  1  0  0  0  0
  5 47  1  0  0  0  0
  6 26  1  0  0  0  0
  6 48  1  0  0  0  0
  7 27  2  0  0  0  0
  8 28  2  0  0  0  0
  9 11  2  0  0  0  0
  9 14  1  0  0  0  0
  9 15  1  0  0  0  0
 10 12  1  0  0  0  0
 10 13  2  0  0  0  0
 10 16  1  0  0  0  0
 11 13  1  0  0  0  0
 12 14  2  0  0  0  0
 15 17  2  0  0  0  0
 15 18  1  0  0  0  0
 16 19  2  0  0  0  0
 16 20  1  0  0  0  0
 17 21  1  0  0  0  0
 17 31  1  0  0  0  0
 18 22  2  0  0  0  0
 18 32  1  0  0  0  0
 19 23  1  0  0  0  0
 19 33  1  0  0  0  0
 20 24  2  0  0  0  0
 20 34  1  0  0  0  0
 21 25  2  0  0  0  0
 21 35  1  0  0  0  0
 22 25  1  0  0  0  0
 22 36  1  0  0  0  0
 23 26  2  0  0  0  0
 23 37  1  0  0  0  0
 24 26  1  0  0  0  0
 24 38  1  0  0  0  0
 27 29  1  0  0  0  0
 28 30  1  0  0  0  0
 29 41  1  0  0  0  0
 29 42  1  0  0  0  0
 29 43  1  0  0  0  0
 30 44  1  0  0  0  0
 30 45  1  0  0  0  0
 30 46  1  0  0  0  0
M  END
> <PUBCHEM_COMPOUND_CID>
11742283

> <PUBCHEM_CONFORMER_RMSD>
0.8

> <PUBCHEM_CONFORMER_DIVERSEORDER>
1
6
3
4
2
5

> <PUBCHEM_MMFF94_PARTIAL_CHARGES>
38
1 -0.23
11 0.08
12 0.08
13 0.08
14 0.08
17 -0.15
18 -0.15
19 -0.15
2 -0.23
20 -0.15
21 -0.15
22 -0.15
23 -0.15
24 -0.15
25 0.08
26 0.08
27 0.66
28 0.66
29 0.06
3 -0.53
30 0.06
31 0.15
32 0.15
33 0.15
34 0.15
35 0.15
36 0.15
37 0.15
38 0.15
39 0.45
4 -0.53
40 0.45
47 0.45
48 0.45
5 -0.53
6 -0.53
7 -0.57
8 -0.57

> <PUBCHEM_EFFECTIVE_ROTOR_COUNT>
6

> <PUBCHEM_PHARMACOPHORE_FEATURES>
9
1 3 donor
1 4 donor
1 5 donor
1 6 donor
1 7 acceptor
1 8 acceptor
6 15 17 18 21 22 25 rings
6 16 19 20 23 24 26 rings
6 9 10 11 12 13 14 rings

> <PUBCHEM_HEAVY_ATOM_COUNT>
30

> <PUBCHEM_ATOM_DEF_STEREO_COUNT>
0

> <PUBCHEM_ATOM_UDEF_STEREO_COUNT>
0

> <PUBCHEM_BOND_DEF_STEREO_COUNT>
0

> <PUBCHEM_BOND_UDEF_STEREO_COUNT>
0

> <PUBCHEM_ISOTOPIC_ATOM_COUNT>
0

> <PUBCHEM_COMPONENT_COUNT>
1

> <PUBCHEM_CACTVS_TAUTO_COUNT>
96

> <PUBCHEM_CONFORMER_ID>
00B32C4B00000001

> <PUBCHEM_MMFF94_ENERGY>
105.0365

> <PUBCHEM_FEATURE_SELFOVERLAP>
45.673

> <PUBCHEM_SHAPE_FINGERPRINT>
10050765 1 18266177429478341791
10165383 225 18113622244788754711
10906281 52 18340785748758939004
1100329 8 18410574006626287777
11578080 2 18191311683028521484
11646440 116 18130794438275456993
11680986 33 18267862959550821756
12011746 2 18410856520985083999
12035758 1 18410855464423129592
12166972 35 16200426979067052817
12403259 415 18260256448422151765
12549972 3 18266458891564883168
12553582 1 18411133602447757620
12788726 201 18265892462930941000
13140716 1 18338797930514743449
13540713 4 18194402414218444851
13692114 37 18340477976679403631
140371 6 18271258131388116484
15295992 7 18342460391199593113
18681886 176 17346021325823763711
19319366 153 17676763185150494578
20600515 1 18267607757179205284
20642791 105 17827907435230434620
20691752 17 17314215834518757128
21033648 144 18337661031339522797
21033648 29 18041262314981465693
22182313 1 18194683906375024853
22311459 1 18411136900935096814
23558518 356 17972036105129316219
23559900 14 18338512044902479968
23569914 2 15360477185808872397
23569943 247 17557157098757872223
23576562 1 17895764014281048135
2748010 2 18266460003961405765
283562 15 18194684770138795969
3178227 256 18411149017290962169
335352 9 18410575080368112197
3411729 13 18269826687993718112
350125 39 18265906937007696867
4015057 19 18201429333129255777
404807 14 15549418045605127431
4340502 62 15213592152228841681
460360 51 18267589198403660648
474 4 18272643589201426777
5104073 3 18338797943399645880
5265222 85 17604728753934334414
59755656 215 18340199683961508693
6086070 43 18342451560599769866
7226269 152 18408603630339467396
9709674 26 18194957667891197717
9981440 41 16837657928480915049

> <PUBCHEM_SHAPE_MULTIPOLES>
570.43
12.58
3.39
1.42
0.04
0
0.14
-0.01
-2.16
0
1.62
0
0
1.88

> <PUBCHEM_SHAPE_SELFOVERLAP>
1258.509

> <PUBCHEM_SHAPE_VOLUME>
303.6

> <PUBCHEM_COORDINATE_TYPE>
2
5
10

$$$$
