11740108
  -OEChem-03292013303D

 45 48  0     1  0  0  0  0  0999 V2000
    1.3775   -1.4238    1.0343 O   0  0  0  0  0  0  0  0  0  0  0  0
   -1.2779   -2.2843    1.5830 O   0  0  0  0  0  0  0  0  0  0  0  0
   -0.6416    1.0446    2.8791 O   0  0  0  0  0  0  0  0  0  0  0  0
    0.7077    2.6216    1.1752 O   0  0  0  0  0  0  0  0  0  0  0  0
   -3.6398    1.5746   -1.5780 O   0  0  0  0  0  0  0  0  0  0  0  0
   -4.5576   -1.0474   -1.5777 O   0  0  0  0  0  0  0  0  0  0  0  0
    2.6159    3.0062   -0.5240 O   0  0  0  0  0  0  0  0  0  0  0  0
    4.9912   -0.8387   -1.9668 O   0  0  0  0  0  0  0  0  0  0  0  0
   -0.1415    0.4180    1.6966 C   0  0  1  0  0  0  0  0  0  0  0  0
    0.6381   -0.8310    2.1121 C   0  0  1  0  0  0  0  0  0  0  0  0
   -1.3141    0.0434    0.8159 C   0  0  0  0  0  0  0  0  0  0  0  0
   -0.3493   -1.8900    2.5995 C   0  0  0  0  0  0  0  0  0  0  0  0
    0.8252    1.4051    1.0695 C   0  0  0  0  0  0  0  0  0  0  0  0
   -1.8088   -1.2707    0.8276 C   0  0  0  0  0  0  0  0  0  0  0  0
    1.9404    0.8280    0.2955 C   0  0  0  0  0  0  0  0  0  0  0  0
    2.1439   -0.5508    0.3162 C   0  0  0  0  0  0  0  0  0  0  0  0
   -1.9577    0.9918    0.0040 C   0  0  0  0  0  0  0  0  0  0  0  0
   -2.8884   -1.6315    0.0147 C   0  0  0  0  0  0  0  0  0  0  0  0
    2.7718    1.6537   -0.4676 C   0  0  0  0  0  0  0  0  0  0  0  0
   -3.0415    0.6307   -0.7984 C   0  0  0  0  0  0  0  0  0  0  0  0
    3.1639   -1.1105   -0.4560 C   0  0  0  0  0  0  0  0  0  0  0  0
   -3.5037   -0.6815   -0.7967 C   0  0  0  0  0  0  0  0  0  0  0  0
    3.9928   -0.2904   -1.2217 C   0  0  0  0  0  0  0  0  0  0  0  0
    3.7994    1.0903   -1.2240 C   0  0  0  0  0  0  0  0  0  0  0  0
   -4.7191    2.3046   -0.9983 C   0  0  0  0  0  0  0  0  0  0  0  0
   -4.2602   -1.5046   -2.8958 C   0  0  0  0  0  0  0  0  0  0  0  0
    5.1334   -2.2575   -1.9183 C   0  0  0  0  0  0  0  0  0  0  0  0
    1.3412   -0.6115    2.9276 H   0  0  0  0  0  0  0  0  0  0  0  0
    0.1947   -2.7970    2.8860 H   0  0  0  0  0  0  0  0  0  0  0  0
   -0.9110   -1.5517    3.4782 H   0  0  0  0  0  0  0  0  0  0  0  0
   -1.6193    2.0248   -0.0079 H   0  0  0  0  0  0  0  0  0  0  0  0
    0.0998    1.1728    3.4952 H   0  0  0  0  0  0  0  0  0  0  0  0
   -3.2539   -2.6560    0.0201 H   0  0  0  0  0  0  0  0  0  0  0  0
    3.2680   -2.1901   -0.4147 H   0  0  0  0  0  0  0  0  0  0  0  0
    4.4521    1.7185   -1.8255 H   0  0  0  0  0  0  0  0  0  0  0  0
    3.2915    3.3871   -1.1107 H   0  0  0  0  0  0  0  0  0  0  0  0
   -4.3759    2.8664   -0.1237 H   0  0  0  0  0  0  0  0  0  0  0  0
   -5.5333    1.6297   -0.7160 H   0  0  0  0  0  0  0  0  0  0  0  0
   -5.0937    3.0117   -1.7434 H   0  0  0  0  0  0  0  0  0  0  0  0
   -3.6369   -2.4036   -2.8580 H   0  0  0  0  0  0  0  0  0  0  0  0
   -3.7562   -0.7214   -3.4707 H   0  0  0  0  0  0  0  0  0  0  0  0
   -5.2019   -1.7523   -3.3931 H   0  0  0  0  0  0  0  0  0  0  0  0
    5.9740   -2.5201   -2.5690 H   0  0  0  0  0  0  0  0  0  0  0  0
    4.2492   -2.7648   -2.3191 H   0  0  0  0  0  0  0  0  0  0  0  0
    5.3899   -2.6023   -0.9109 H   0  0  0  0  0  0  0  0  0  0  0  0
  1 10  1  0  0  0  0
  1 16  1  0  0  0  0
  2 12  1  0  0  0  0
  2 14  1  0  0  0  0
  3  9  1  0  0  0  0
  3 32  1  0  0  0  0
  4 13  2  0  0  0  0
  5 20  1  0  0  0  0
  5 25  1  0  0  0  0
  6 22  1  0  0  0  0
  6 26  1  0  0  0  0
  7 19  1  0  0  0  0
  7 36  1  0  0  0  0
  8 23  1  0  0  0  0
  8 27  1  0  0  0  0
  9 10  1  0  0  0  0
  9 11  1  0  0  0  0
  9 13  1  0  0  0  0
 10 12  1  0  0  0  0
 10 28  1  0  0  0  0
 11 14  1  0  0  0  0
 11 17  2  0  0  0  0
 12 29  1  0  0  0  0
 12 30  1  0  0  0  0
 13 15  1  0  0  0  0
 14 18  2  0  0  0  0
 15 16  1  0  0  0  0
 15 19  2  0  0  0  0
 16 21  2  0  0  0  0
 17 20  1  0  0  0  0
 17 31  1  0  0  0  0
 18 22  1  0  0  0  0
 18 33  1  0  0  0  0
 19 24  1  0  0  0  0
 20 22  2  0  0  0  0
 21 23  1  0  0  0  0
 21 34  1  0  0  0  0
 23 24  2  0  0  0  0
 24 35  1  0  0  0  0
 25 37  1  0  0  0  0
 25 38  1  0  0  0  0
 25 39  1  0  0  0  0
 26 40  1  0  0  0  0
 26 41  1  0  0  0  0
 26 42  1  0  0  0  0
 27 43  1  0  0  0  0
 27 44  1  0  0  0  0
 27 45  1  0  0  0  0
M  END
> <PUBCHEM_COMPOUND_CID>
11740108

> <PUBCHEM_CONFORMER_RMSD>
0.8

> <PUBCHEM_CONFORMER_DIVERSEORDER>
2
3
4
1

> <PUBCHEM_MMFF94_PARTIAL_CHARGES>
33
1 -0.36
10 0.28
11 -0.14
12 0.28
13 0.42
14 0.08
15 0.09
16 0.08
17 -0.15
18 -0.15
19 0.08
2 -0.36
20 0.08
21 -0.15
22 0.08
23 0.08
24 -0.15
25 0.28
26 0.28
27 0.28
3 -0.68
31 0.15
32 0.4
33 0.15
34 0.15
35 0.15
36 0.45
4 -0.57
5 -0.36
6 -0.36
7 -0.53
8 -0.36
9 0.48

> <PUBCHEM_EFFECTIVE_ROTOR_COUNT>
3.6

> <PUBCHEM_PHARMACOPHORE_FEATURES>
13
1 1 acceptor
1 2 acceptor
1 3 acceptor
1 3 donor
1 4 acceptor
1 5 acceptor
1 6 acceptor
1 7 donor
1 8 acceptor
6 1 9 10 13 15 16 rings
6 11 14 17 18 20 22 rings
6 15 16 19 21 23 24 rings
6 2 9 10 11 12 14 rings

> <PUBCHEM_HEAVY_ATOM_COUNT>
27

> <PUBCHEM_ATOM_DEF_STEREO_COUNT>
2

> <PUBCHEM_ATOM_UDEF_STEREO_COUNT>
0

> <PUBCHEM_BOND_DEF_STEREO_COUNT>
0

> <PUBCHEM_BOND_UDEF_STEREO_COUNT>
0

> <PUBCHEM_ISOTOPIC_ATOM_COUNT>
0

> <PUBCHEM_COMPONENT_COUNT>
1

> <PUBCHEM_CACTVS_TAUTO_COUNT>
5

> <PUBCHEM_CONFORMER_ID>
00B323CC00000002

> <PUBCHEM_MMFF94_ENERGY>
116.0742

> <PUBCHEM_FEATURE_SELFOVERLAP>
66.156

> <PUBCHEM_SHAPE_FINGERPRINT>
10165383 225 17169003200435801941
10498660 4 17459172127594029887
10764073 3 17613772163947338883
10871710 139 16457136234100256290
11582403 64 17262400382544836904
11640471 11 14780371513825789120
12363563 72 15267339621704587646
12788726 201 18053385401007865392
12824470 246 16271655580055834651
12892183 10 8646768897837838117
13083527 12 11815311820275851633
13544653 18 15051724287707014706
13911987 19 17482278514797762432
13994607 96 14490769982329092815
14713325 29 16444216211915789586
14848178 5 16845292696711161190
15163728 17 15502650464736362463
15210252 30 15515290171067596429
15475509 35 15480120574431524271
15534591 1 15213306373483936402
15664445 248 16975574104706702341
1813 80 15482677921848332233
18186145 218 18187937200248625624
20465049 17 18262239907152897069
20775438 99 17411867937327302175
20775530 9 16413495960299871871
21285901 2 17323249580613603074
21421861 104 12966281807839635115
21475661 188 11894093984601566927
21731516 1 16271939236912699344
21756936 100 13407373914331155574
221357 26 18408889563750733151
22182313 1 18117293655737173136
22393880 68 18333734624119803782
22907989 373 16736105870154869182
23114952 82 17975713979950637792
23557571 272 17317052659974556386
23559900 14 18336561460584140580
23598288 3 17056724427376951168
238 59 18124309677761591652
2637199 183 18040714723735525129
2838139 119 15357701915998691678
3027735 51 16772121219773576823
392239 28 10954616325502627821
46194498 28 18199454644816317069
463206 1 17632857559491321879
474 4 15647324234794182475
5252454 2 17095521764588680591
633830 44 18187358831526252413
7808743 9 14273748373043867214

> <PUBCHEM_SHAPE_MULTIPOLES>
508.69
9.22
2.68
2.63
1.19
0.83
0.16
-0.84
-10.12
0.06
0.07
-0.64
-1.15
0.76

> <PUBCHEM_SHAPE_SELFOVERLAP>
1133.392

> <PUBCHEM_SHAPE_VOLUME>
268.2

> <PUBCHEM_COORDINATE_TYPE>
2
5
10

$$$$
