11750196
  -OEChem-03292013303D

 44 45  0     1  0  0  0  0  0999 V2000
    3.4335   -3.3206    0.0928 Cl  0  0  0  0  0  0  0  0  0  0  0  0
    0.7658    1.0688    0.2819 O   0  0  0  0  0  0  0  0  0  0  0  0
   -0.5654   -1.4170    1.4644 O   0  0  0  0  0  0  0  0  0  0  0  0
   -3.4346    2.2335    0.4483 O   0  0  0  0  0  0  0  0  0  0  0  0
   -2.3314   -2.9526   -0.0029 O   0  0  0  0  0  0  0  0  0  0  0  0
    1.7252    2.5120   -1.2332 O   0  0  0  0  0  0  0  0  0  0  0  0
    4.4243    2.3731   -0.9771 O   0  0  0  0  0  0  0  0  0  0  0  0
    6.1033   -2.0352   -0.4091 O   0  0  0  0  0  0  0  0  0  0  0  0
   -6.0527   -1.2616   -1.9926 O   0  0  0  0  0  0  0  0  0  0  0  0
   -5.1641    0.6648   -0.9988 N   0  0  0  0  0  0  0  0  0  0  0  0
   -1.0944    1.4262    1.7631 C   0  0  0  0  0  0  0  0  0  0  0  0
   -0.0527    2.0834    0.8611 C   0  0  1  0  0  0  0  0  0  0  0  0
   -1.9529    0.4597    1.0000 C   0  0  0  0  0  0  0  0  0  0  0  0
    0.8384    3.0250    1.6611 C   0  0  0  0  0  0  0  0  0  0  0  0
   -1.6818   -0.8534    0.8792 C   0  0  0  0  0  0  0  0  0  0  0  0
   -3.1732    1.0369    0.3504 C   0  0  0  0  0  0  0  0  0  0  0  0
   -4.0556    0.1237   -0.4140 C   0  0  0  0  0  0  0  0  0  0  0  0
   -2.5762   -1.7550    0.1089 C   0  0  0  0  0  0  0  0  0  0  0  0
   -3.7733   -1.1750   -0.5232 C   0  0  0  0  0  0  0  0  0  0  0  0
    1.7535    1.5036   -0.5449 C   0  0  0  0  0  0  0  0  0  0  0  0
    2.9100    0.5731   -0.5108 C   0  0  0  0  0  0  0  0  0  0  0  0
    4.1857    1.0546   -0.7281 C   0  0  0  0  0  0  0  0  0  0  0  0
    2.6642   -0.7625   -0.2585 C   0  0  0  0  0  0  0  0  0  0  0  0
   -0.8585   -1.8665    2.7726 C   0  0  0  0  0  0  0  0  0  0  0  0
    5.2594    0.1653   -0.6918 C   0  0  0  0  0  0  0  0  0  0  0  0
    3.7381   -1.6521   -0.2223 C   0  0  0  0  0  0  0  0  0  0  0  0
    5.0356   -1.1882   -0.4391 C   0  0  0  0  0  0  0  0  0  0  0  0
   -6.0704   -0.0638   -1.7375 C   0  0  0  0  0  0  0  0  0  0  0  0
   -1.7130    2.1869    2.2546 H   0  0  0  0  0  0  0  0  0  0  0  0
   -0.5772    0.9073    2.5783 H   0  0  0  0  0  0  0  0  0  0  0  0
   -0.5592    2.6393    0.0616 H   0  0  0  0  0  0  0  0  0  0  0  0
    0.2368    3.7446    2.2263 H   0  0  0  0  0  0  0  0  0  0  0  0
    1.5146    3.6025    1.0236 H   0  0  0  0  0  0  0  0  0  0  0  0
    1.4657    2.4686    2.3669 H   0  0  0  0  0  0  0  0  0  0  0  0
   -4.3358   -1.9286   -1.0486 H   0  0  0  0  0  0  0  0  0  0  0  0
   -5.3232    1.6614   -0.8784 H   0  0  0  0  0  0  0  0  0  0  0  0
    1.6576   -1.1411   -0.1095 H   0  0  0  0  0  0  0  0  0  0  0  0
   -1.5488   -2.7167    2.7460 H   0  0  0  0  0  0  0  0  0  0  0  0
   -1.2742   -1.0768    3.4071 H   0  0  0  0  0  0  0  0  0  0  0  0
    0.0747   -2.2084    3.2306 H   0  0  0  0  0  0  0  0  0  0  0  0
    6.2706    0.5271   -0.8607 H   0  0  0  0  0  0  0  0  0  0  0  0
   -6.8787    0.5896   -2.1064 H   0  0  0  0  0  0  0  0  0  0  0  0
    3.6053    2.8883   -0.9045 H   0  0  0  0  0  0  0  0  0  0  0  0
    5.7757   -2.9321   -0.2224 H   0  0  0  0  0  0  0  0  0  0  0  0
  1 26  1  0  0  0  0
  2 12  1  0  0  0  0
  2 20  1  0  0  0  0
  3 15  1  0  0  0  0
  3 24  1  0  0  0  0
  4 16  2  0  0  0  0
  5 18  2  0  0  0  0
  6 20  2  0  0  0  0
  7 22  1  0  0  0  0
  7 43  1  0  0  0  0
  8 27  1  0  0  0  0
  8 44  1  0  0  0  0
  9 28  2  0  0  0  0
 10 17  1  0  0  0  0
 10 28  1  0  0  0  0
 10 36  1  0  0  0  0
 11 12  1  0  0  0  0
 11 13  1  0  0  0  0
 11 29  1  0  0  0  0
 11 30  1  0  0  0  0
 12 14  1  0  0  0  0
 12 31  1  0  0  0  0
 13 15  2  0  0  0  0
 13 16  1  0  0  0  0
 14 32  1  0  0  0  0
 14 33  1  0  0  0  0
 14 34  1  0  0  0  0
 15 18  1  0  0  0  0
 16 17  1  0  0  0  0
 17 19  2  0  0  0  0
 18 19  1  0  0  0  0
 19 35  1  0  0  0  0
 20 21  1  0  0  0  0
 21 22  1  0  0  0  0
 21 23  2  0  0  0  0
 22 25  2  0  0  0  0
 23 26  1  0  0  0  0
 23 37  1  0  0  0  0
 24 38  1  0  0  0  0
 24 39  1  0  0  0  0
 24 40  1  0  0  0  0
 25 27  1  0  0  0  0
 25 41  1  0  0  0  0
 26 27  2  0  0  0  0
 28 42  1  0  0  0  0
M  END
> <PUBCHEM_COMPOUND_CID>
11750196

> <PUBCHEM_CONFORMER_RMSD>
1

> <PUBCHEM_CONFORMER_DIVERSEORDER>
1
118
139
149
62
238
171
67
66
265
55
129
89
177
175
199
99
100
43
261
172
267
133
245
45
159
80
123
78
127
14
83
248
162
131
195
163
260
180
122
227
46
28
136
194
165
215
56
141
138
51
32
220
126
258
101
137
26
196
134
198
266
94
72
222
236
173
128
119
22
240
87
25
216
191
17
27
13
121
197
190
77
252
20
71
54
142
75
251
226
239
213
170
232
3
161
5
48
140
70
96
93
10
158
29
64
18
189
74
144
234
156
176
112
229
241
259
174
146
84
111
183
24
107
6
148
30
88
108
110
208
254
164
224
269
7
257
184
23
92
203
103
228
21
90
39
168
242
82
69
8
154
145
52
178
85
58
206
35
188
221
49
37
167
207
230
205
247
47
65
33
16
193
204
44
253
102
182
169
152
12
186
132
231
63
114
113
106
53
237
36
120
116
104
255
68
60
214
256
50
61
246
57
31
125
233
91
151
124
130
235
2
79
147
42
41
97
209
200
76
192
86
244
115
263
98
219
166
210
135
38
117
250
40
202
105
95
181
179
81
155
262
34
212
268
225
185
19
109
249
157
217
143
4
150
264
211
201
187
59
153
223
11
9
15
73
243
218
160

> <PUBCHEM_MMFF94_PARTIAL_CHARGES>
34
1 -0.18
10 -0.54
11 0.14
12 0.28
13 -0.12
15 0.09
16 0.54
17 0.12
18 0.54
19 -0.14
2 -0.43
20 0.63
21 0.09
22 0.08
23 -0.15
24 0.28
25 -0.15
26 0.18
27 0.08
28 0.57
3 -0.36
35 0.15
36 0.37
37 0.15
4 -0.57
41 0.15
42 0.06
43 0.45
44 0.45
5 -0.57
6 -0.57
7 -0.53
8 -0.53
9 -0.57

> <PUBCHEM_EFFECTIVE_ROTOR_COUNT>
8

> <PUBCHEM_PHARMACOPHORE_FEATURES>
10
1 10 donor
1 3 acceptor
1 4 acceptor
1 5 acceptor
1 6 acceptor
1 7 donor
1 8 donor
1 9 acceptor
6 13 15 16 17 18 19 rings
6 21 22 23 25 26 27 rings

> <PUBCHEM_HEAVY_ATOM_COUNT>
28

> <PUBCHEM_ATOM_DEF_STEREO_COUNT>
0

> <PUBCHEM_ATOM_UDEF_STEREO_COUNT>
1

> <PUBCHEM_BOND_DEF_STEREO_COUNT>
0

> <PUBCHEM_BOND_UDEF_STEREO_COUNT>
0

> <PUBCHEM_ISOTOPIC_ATOM_COUNT>
0

> <PUBCHEM_COMPONENT_COUNT>
1

> <PUBCHEM_CACTVS_TAUTO_COUNT>
132

> <PUBCHEM_CONFORMER_ID>
00B34B3400000001

> <PUBCHEM_MMFF94_ENERGY>
83.2272

> <PUBCHEM_FEATURE_SELFOVERLAP>
50.753

> <PUBCHEM_SHAPE_FINGERPRINT>
105312 117 16226046695743910091
10764073 3 17755064944672225947
11135926 11 18263944262024571364
11513181 2 17699859418744622678
11578080 2 12902987261814668806
12555020 224 18409166602094889735
12788726 201 17559975250322946393
13383668 262 17241598585063529827
14251757 17 17969210157865069694
14931854 50 18336828602163306286
15163728 17 14996837685899445389
15183329 4 18334571313834720413
15238133 3 13623521372579349076
15420108 30 16754661881684639240
17349148 13 18131078107927773052
18222031 100 17060627723921130748
20511986 3 18342447111224173092
20775438 99 17410456164776811751
21756936 100 12540989529062753690
21781051 124 18114459072333710099
23559900 14 18268144430043012152
255183 313 17627253177158224505
3004659 81 18335417946351791870
339767 52 18411416194480195962
3729539 64 18409162182805864951
392239 28 11743831469731918517
4015057 19 18410016567322343824
439807 62 18199742700326906583
46194498 28 17533509081908078461
463206 1 18130504244679217863
5283173 99 18336263440518303700
6669772 16 17913753183841656057
9709674 26 18188786070601667250

> <PUBCHEM_SHAPE_MULTIPOLES>
526.16
12.78
3.36
1.71
1.11
0.2
0.71
4.39
-8.54
-2.13
0.73
1.69
0.05
-0.91

> <PUBCHEM_SHAPE_SELFOVERLAP>
1119.268

> <PUBCHEM_SHAPE_VOLUME>
292

> <PUBCHEM_COORDINATE_TYPE>
2
5
10

$$$$
