11750881
  -OEChem-03292013303D

 61 62  0     1  0  0  0  0  0999 V2000
    2.8842    0.6088    0.5293 O   0  0  0  0  0  0  0  0  0  0  0  0
    0.0411    1.5417    0.6443 O   0  0  0  0  0  0  0  0  0  0  0  0
   -2.3817    0.4000    0.9634 O   0  0  0  0  0  0  0  0  0  0  0  0
   -2.1462   -1.4289   -1.3775 O   0  0  0  0  0  0  0  0  0  0  0  0
    3.6745    2.1034   -1.0324 O   0  0  0  0  0  0  0  0  0  0  0  0
   -0.6310   -3.5740   -1.0694 O   0  0  0  0  0  0  0  0  0  0  0  0
   -2.6676    1.0138   -1.2414 O   0  0  0  0  0  0  0  0  0  0  0  0
    0.8616    2.7529   -1.1329 O   0  0  0  0  0  0  0  0  0  0  0  0
    1.0242   -0.2999   -0.6310 C   0  0  1  0  0  0  0  0  0  0  0  0
    2.0228   -0.5546    0.5036 C   0  0  1  0  0  0  0  0  0  0  0  0
   -0.2789    0.4072   -0.1782 C   0  0  1  0  0  0  0  0  0  0  0  0
   -1.2647   -0.4565    0.6519 C   0  0  2  0  0  0  0  0  0  0  0  0
    2.9340   -1.7889    0.3380 C   0  0  0  0  0  0  0  0  0  0  0  0
   -1.8181   -1.7403   -0.0235 C   0  0  2  0  0  0  0  0  0  0  0  0
    1.8559    0.5857   -1.5029 C   0  0  0  0  0  0  0  0  0  0  0  0
    2.2116   -3.1412    0.1954 C   0  0  2  0  0  0  0  0  0  0  0  0
    2.9213    1.2085   -0.6953 C   0  0  0  0  0  0  0  0  0  0  0  0
   -0.8235   -2.9083   -0.0523 C   0  0  0  0  0  0  0  0  0  0  0  0
   -3.1031   -2.2446    0.6541 C   0  0  0  0  0  0  0  0  0  0  0  0
    1.2051   -3.3607    1.2992 C   0  0  0  0  0  0  0  0  0  0  0  0
    3.2285   -4.2872    0.1875 C   0  0  0  0  0  0  0  0  0  0  0  0
   -0.1291   -3.2634    1.2142 C   0  0  0  0  0  0  0  0  0  0  0  0
    1.7401    0.7954   -2.8160 C   0  0  0  0  0  0  0  0  0  0  0  0
   -3.1004    0.8272   -0.1117 C   0  0  0  0  0  0  0  0  0  0  0  0
    0.8250    2.4847    0.0597 C   0  0  0  0  0  0  0  0  0  0  0  0
   -4.5409    1.0522    0.3131 C   0  0  0  0  0  0  0  0  0  0  0  0
    1.6496    3.1564    1.1025 C   0  0  0  0  0  0  0  0  0  0  0  0
   -4.7131    2.4823    0.8109 C   0  0  0  0  0  0  0  0  0  0  0  0
   -5.4976    0.7555   -0.8389 C   0  0  0  0  0  0  0  0  0  0  0  0
    1.5282    2.7515    2.5396 C   0  0  0  0  0  0  0  0  0  0  0  0
    2.4882    4.1211    0.6969 C   0  0  0  0  0  0  0  0  0  0  0  0
    0.7707   -1.2072   -1.1804 H   0  0  0  0  0  0  0  0  0  0  0  0
    1.5249   -0.6052    1.4771 H   0  0  0  0  0  0  0  0  0  0  0  0
   -0.7005    0.7857   -1.1030 H   0  0  0  0  0  0  0  0  0  0  0  0
   -0.8181   -0.6920    1.6236 H   0  0  0  0  0  0  0  0  0  0  0  0
    3.6134   -1.8200    1.2017 H   0  0  0  0  0  0  0  0  0  0  0  0
    3.5947   -1.6451   -0.5279 H   0  0  0  0  0  0  0  0  0  0  0  0
    1.7279   -3.1616   -0.7848 H   0  0  0  0  0  0  0  0  0  0  0  0
   -3.9871   -1.6754    0.3621 H   0  0  0  0  0  0  0  0  0  0  0  0
   -3.3170   -3.2785    0.3539 H   0  0  0  0  0  0  0  0  0  0  0  0
   -3.0145   -2.2385    1.7456 H   0  0  0  0  0  0  0  0  0  0  0  0
    1.6190   -3.5756    2.2835 H   0  0  0  0  0  0  0  0  0  0  0  0
    3.7932   -4.3325    1.1256 H   0  0  0  0  0  0  0  0  0  0  0  0
    2.7295   -5.2526    0.0472 H   0  0  0  0  0  0  0  0  0  0  0  0
    3.9463   -4.1612   -0.6304 H   0  0  0  0  0  0  0  0  0  0  0  0
   -0.7433   -3.3719    2.1014 H   0  0  0  0  0  0  0  0  0  0  0  0
    0.9553    0.3088   -3.3856 H   0  0  0  0  0  0  0  0  0  0  0  0
    2.4177    1.4500   -3.3535 H   0  0  0  0  0  0  0  0  0  0  0  0
   -2.6008   -2.1969   -1.7640 H   0  0  0  0  0  0  0  0  0  0  0  0
   -4.7789    0.3597    1.1294 H   0  0  0  0  0  0  0  0  0  0  0  0
   -5.7403    2.6597    1.1456 H   0  0  0  0  0  0  0  0  0  0  0  0
   -4.4787    3.2080    0.0241 H   0  0  0  0  0  0  0  0  0  0  0  0
   -4.0424    2.6848    1.6531 H   0  0  0  0  0  0  0  0  0  0  0  0
   -6.5389    0.8510   -0.5140 H   0  0  0  0  0  0  0  0  0  0  0  0
   -5.3513   -0.2623   -1.2161 H   0  0  0  0  0  0  0  0  0  0  0  0
   -5.3397    1.4428   -1.6776 H   0  0  0  0  0  0  0  0  0  0  0  0
    0.5090    2.9270    2.8999 H   0  0  0  0  0  0  0  0  0  0  0  0
    1.7672    1.6934    2.6783 H   0  0  0  0  0  0  0  0  0  0  0  0
    2.2050    3.3250    3.1823 H   0  0  0  0  0  0  0  0  0  0  0  0
    3.1172    4.6455    1.4097 H   0  0  0  0  0  0  0  0  0  0  0  0
    2.5692    4.4342   -0.3386 H   0  0  0  0  0  0  0  0  0  0  0  0
  1 10  1  0  0  0  0
  1 17  1  0  0  0  0
  2 11  1  0  0  0  0
  2 25  1  0  0  0  0
  3 12  1  0  0  0  0
  3 24  1  0  0  0  0
  4 14  1  0  0  0  0
  4 49  1  0  0  0  0
  5 17  2  0  0  0  0
  6 18  2  0  0  0  0
  7 24  2  0  0  0  0
  8 25  2  0  0  0  0
  9 10  1  0  0  0  0
  9 11  1  0  0  0  0
  9 15  1  0  0  0  0
  9 32  1  0  0  0  0
 10 13  1  0  0  0  0
 10 33  1  0  0  0  0
 11 12  1  0  0  0  0
 11 34  1  0  0  0  0
 12 14  1  0  0  0  0
 12 35  1  0  0  0  0
 13 16  1  0  0  0  0
 13 36  1  0  0  0  0
 13 37  1  0  0  0  0
 14 18  1  0  0  0  0
 14 19  1  0  0  0  0
 15 17  1  0  0  0  0
 15 23  2  0  0  0  0
 16 20  1  0  0  0  0
 16 21  1  0  0  0  0
 16 38  1  0  0  0  0
 18 22  1  0  0  0  0
 19 39  1  0  0  0  0
 19 40  1  0  0  0  0
 19 41  1  0  0  0  0
 20 22  2  0  0  0  0
 20 42  1  0  0  0  0
 21 43  1  0  0  0  0
 21 44  1  0  0  0  0
 21 45  1  0  0  0  0
 22 46  1  0  0  0  0
 23 47  1  0  0  0  0
 23 48  1  0  0  0  0
 24 26  1  0  0  0  0
 25 27  1  0  0  0  0
 26 28  1  0  0  0  0
 26 29  1  0  0  0  0
 26 50  1  0  0  0  0
 27 30  1  0  0  0  0
 27 31  2  0  0  0  0
 28 51  1  0  0  0  0
 28 52  1  0  0  0  0
 28 53  1  0  0  0  0
 29 54  1  0  0  0  0
 29 55  1  0  0  0  0
 29 56  1  0  0  0  0
 30 57  1  0  0  0  0
 30 58  1  0  0  0  0
 30 59  1  0  0  0  0
 31 60  1  0  0  0  0
 31 61  1  0  0  0  0
M  END
> <PUBCHEM_COMPOUND_CID>
11750881

> <PUBCHEM_CONFORMER_RMSD>
1

> <PUBCHEM_CONFORMER_DIVERSEORDER>
2
1
3
4

> <PUBCHEM_MMFF94_PARTIAL_CHARGES>
33
1 -0.43
10 0.28
11 0.28
12 0.28
14 0.34
15 -0.12
16 0.14
17 0.71
18 0.49
2 -0.43
20 -0.29
22 -0.14
23 -0.3
24 0.66
25 0.71
26 0.06
27 -0.12
3 -0.43
30 0.14
31 -0.3
4 -0.68
42 0.15
46 0.15
47 0.15
48 0.15
49 0.4
5 -0.57
6 -0.57
60 0.15
61 0.15
7 -0.57
8 -0.57
9 0.14

> <PUBCHEM_EFFECTIVE_ROTOR_COUNT>
7.2

> <PUBCHEM_PHARMACOPHORE_FEATURES>
8
1 4 acceptor
1 4 donor
1 5 acceptor
1 6 acceptor
1 7 acceptor
1 8 acceptor
3 26 28 29 hydrophobe
5 1 9 10 15 17 rings

> <PUBCHEM_HEAVY_ATOM_COUNT>
31

> <PUBCHEM_ATOM_DEF_STEREO_COUNT>
6

> <PUBCHEM_ATOM_UDEF_STEREO_COUNT>
0

> <PUBCHEM_BOND_DEF_STEREO_COUNT>
1

> <PUBCHEM_BOND_UDEF_STEREO_COUNT>
0

> <PUBCHEM_ISOTOPIC_ATOM_COUNT>
0

> <PUBCHEM_COMPONENT_COUNT>
1

> <PUBCHEM_CACTVS_TAUTO_COUNT>
3

> <PUBCHEM_CONFORMER_ID>
00B34DE100000002

> <PUBCHEM_MMFF94_ENERGY>
122.742

> <PUBCHEM_FEATURE_SELFOVERLAP>
40.628

> <PUBCHEM_SHAPE_FINGERPRINT>
10165383 225 18046096940375008473
10675989 125 18410848876498049153
1100329 8 18409167671457642818
11115154 58 16830325959967377317
11513181 2 16114284306703160469
11582403 64 16769548641795425512
12156800 1 15176636793236148974
12507560 14 18198056971889351575
12553582 1 17975966566661038322
12788726 201 17909841933461427982
13004483 165 17978219462097247850
13140716 1 18339357594913674681
13533116 47 18410570670417919445
13583140 156 18410860984126115115
14068700 675 17979916008507211906
14081887 123 17402890519422341104
14178342 30 18194388112019742401
14223421 5 17623857128993866024
14955137 171 18196936565657611467
16945 1 17829603212587428006
17980427 26 18199729449572186637
20600515 1 18129664093404887296
20691752 17 17616249625205348267
23419403 2 15820908542118863451
23558518 356 18051412061134919293
23559900 14 18411693305279231328
350125 39 18265060308996329353
35225 105 16966566917909575554
463206 1 18265897956447508163
484985 159 15316236244259511938
513532 50 17845655833071145550
5265222 85 17900564546852540636
6443956 14 17976824181487879639
9981440 41 17979336883474657729

> <PUBCHEM_SHAPE_MULTIPOLES>
591.01
7.02
5.6
1.68
10
1.07
-0.37
-1.12
-0.41
-4.81
1.86
-0.7
-0.9
-0.47

> <PUBCHEM_SHAPE_SELFOVERLAP>
1248.334

> <PUBCHEM_SHAPE_VOLUME>
326

> <PUBCHEM_COORDINATE_TYPE>
2
5
10

$$$$
