11755199
  -OEChem-03292013303D

 68 72  0     1  0  0  0  0  0999 V2000
    0.3777   -0.0564   -1.7754 O   0  0  0  0  0  0  0  0  0  0  0  0
   -3.1196   -0.7139    0.7232 O   0  0  0  0  0  0  0  0  0  0  0  0
    6.0225   -0.5994    0.9144 O   0  0  0  0  0  0  0  0  0  0  0  0
   -4.6079    0.6860   -0.4206 O   0  0  0  0  0  0  0  0  0  0  0  0
    5.2233    2.1304    0.4551 O   0  0  0  0  0  0  0  0  0  0  0  0
    4.3508   -2.3000   -0.8052 O   0  0  0  0  0  0  0  0  0  0  0  0
    0.3682   -4.3813    0.4127 O   0  0  0  0  0  0  0  0  0  0  0  0
   -7.3213    1.0384    0.6012 O   0  0  0  0  0  0  0  0  0  0  0  0
    2.9504   -0.4371   -0.2475 N   0  0  0  0  0  0  0  0  0  0  0  0
    0.1239    1.0519    0.4003 C   0  0  1  0  0  0  0  0  0  0  0  0
    0.4124   -0.3038   -0.3536 C   0  0  1  0  0  0  0  0  0  0  0  0
   -1.3641    0.9610    0.8834 C   0  0  2  0  0  0  0  0  0  0  0  0
   -2.0031   -0.1529    0.0556 C   0  0  1  0  0  0  0  0  0  0  0  0
   -0.8454   -1.0976   -0.0482 C   0  0  0  0  0  0  0  0  0  0  0  0
    3.1102    1.0228   -0.0828 C   0  0  1  0  0  0  0  0  0  0  0  0
    1.7029   -1.0895   -0.1260 C   0  0  0  0  0  0  0  0  0  0  0  0
    1.1419    1.4767    1.4515 C   0  0  0  0  0  0  0  0  0  0  0  0
    2.4640    1.4779    1.1939 C   0  0  0  0  0  0  0  0  0  0  0  0
   -2.1310    2.2751    0.7185 C   0  0  0  0  0  0  0  0  0  0  0  0
    4.6227    1.1154    0.1179 C   0  0  0  0  0  0  0  0  0  0  0  0
    5.3034   -0.1766   -0.2195 C   0  0  2  0  0  0  0  0  0  0  0  0
   -0.8874   -2.4049    0.2205 C   0  0  0  0  0  0  0  0  0  0  0  0
    2.8455    1.8550   -1.3438 C   0  0  0  0  0  0  0  0  0  0  0  0
    4.1699   -1.1344   -0.4770 C   0  0  0  0  0  0  0  0  0  0  0  0
    1.6384   -2.4080    0.1551 C   0  0  0  0  0  0  0  0  0  0  0  0
    0.6782    1.9510    2.8042 C   0  0  0  0  0  0  0  0  0  0  0  0
    0.3695   -3.1642    0.2600 C   0  0  0  0  0  0  0  0  0  0  0  0
   -4.2944   -0.6642   -0.0803 C   0  0  2  0  0  0  0  0  0  0  0  0
    6.2132   -0.0338   -1.4272 C   0  0  0  0  0  0  0  0  0  0  0  0
    3.3541    3.2717   -1.1801 C   0  0  0  0  0  0  0  0  0  0  0  0
   -5.4368   -1.2822    0.7199 C   0  0  0  0  0  0  0  0  0  0  0  0
   -6.7514   -1.1895   -0.0487 C   0  0  0  0  0  0  0  0  0  0  0  0
   -5.7656    0.7877   -1.2595 C   0  0  1  0  0  0  0  0  0  0  0  0
   -7.0032    0.2369   -0.5357 C   0  0  2  0  0  0  0  0  0  0  0  0
   -5.9119    2.2518   -1.6562 C   0  0  0  0  0  0  0  0  0  0  0  0
    0.1244    1.8604   -0.3443 H   0  0  0  0  0  0  0  0  0  0  0  0
   -1.4186    0.6764    1.9415 H   0  0  0  0  0  0  0  0  0  0  0  0
   -2.2492    0.1975   -0.9567 H   0  0  0  0  0  0  0  0  0  0  0  0
    3.1298    1.8114    1.9891 H   0  0  0  0  0  0  0  0  0  0  0  0
   -1.6208    3.1036    1.2168 H   0  0  0  0  0  0  0  0  0  0  0  0
   -2.2420    2.5431   -0.3377 H   0  0  0  0  0  0  0  0  0  0  0  0
   -3.1310    2.1964    1.1561 H   0  0  0  0  0  0  0  0  0  0  0  0
   -1.8055   -2.9293    0.4564 H   0  0  0  0  0  0  0  0  0  0  0  0
    1.7871    1.9026   -1.5953 H   0  0  0  0  0  0  0  0  0  0  0  0
    3.3321    1.4022   -2.2175 H   0  0  0  0  0  0  0  0  0  0  0  0
    2.5127   -3.0164    0.3506 H   0  0  0  0  0  0  0  0  0  0  0  0
    0.4345   -0.9099   -2.2391 H   0  0  0  0  0  0  0  0  0  0  0  0
   -0.0065    2.7972    2.7110 H   0  0  0  0  0  0  0  0  0  0  0  0
    1.5092    2.2903    3.4333 H   0  0  0  0  0  0  0  0  0  0  0  0
    0.1838    1.1417    3.3496 H   0  0  0  0  0  0  0  0  0  0  0  0
   -4.1192   -1.2458   -0.9955 H   0  0  0  0  0  0  0  0  0  0  0  0
    7.0064    0.6976   -1.2356 H   0  0  0  0  0  0  0  0  0  0  0  0
    6.7085   -0.9839   -1.6571 H   0  0  0  0  0  0  0  0  0  0  0  0
    5.6613    0.2869   -2.3171 H   0  0  0  0  0  0  0  0  0  0  0  0
    3.1123    3.7142   -0.2094 H   0  0  0  0  0  0  0  0  0  0  0  0
    4.4278    3.3579   -1.3708 H   0  0  0  0  0  0  0  0  0  0  0  0
    2.8786    3.9062   -1.9382 H   0  0  0  0  0  0  0  0  0  0  0  0
   -5.5375   -0.7554    1.6777 H   0  0  0  0  0  0  0  0  0  0  0  0
   -5.2085   -2.3253    0.9674 H   0  0  0  0  0  0  0  0  0  0  0  0
    5.4040   -0.6812    1.6607 H   0  0  0  0  0  0  0  0  0  0  0  0
   -6.7122   -1.8669   -0.9103 H   0  0  0  0  0  0  0  0  0  0  0  0
   -7.5699   -1.5232    0.5993 H   0  0  0  0  0  0  0  0  0  0  0  0
   -5.5840    0.2030   -2.1708 H   0  0  0  0  0  0  0  0  0  0  0  0
   -7.8742    0.2469   -1.2006 H   0  0  0  0  0  0  0  0  0  0  0  0
   -5.9538    2.9049   -0.7780 H   0  0  0  0  0  0  0  0  0  0  0  0
   -5.0376    2.5730   -2.2333 H   0  0  0  0  0  0  0  0  0  0  0  0
   -6.8067    2.4124   -2.2648 H   0  0  0  0  0  0  0  0  0  0  0  0
   -7.6737    1.8842    0.2772 H   0  0  0  0  0  0  0  0  0  0  0  0
  1 11  1  0  0  0  0
  1 47  1  0  0  0  0
  2 13  1  0  0  0  0
  2 28  1  0  0  0  0
  3 21  1  0  0  0  0
  3 60  1  0  0  0  0
  4 28  1  0  0  0  0
  4 33  1  0  0  0  0
  5 20  2  0  0  0  0
  6 24  2  0  0  0  0
  7 27  2  0  0  0  0
  8 34  1  0  0  0  0
  8 68  1  0  0  0  0
  9 15  1  0  0  0  0
  9 16  1  0  0  0  0
  9 24  1  0  0  0  0
 10 11  1  0  0  0  0
 10 12  1  0  0  0  0
 10 17  1  0  0  0  0
 10 36  1  0  0  0  0
 11 14  1  0  0  0  0
 11 16  1  0  0  0  0
 12 13  1  0  0  0  0
 12 19  1  0  0  0  0
 12 37  1  0  0  0  0
 13 14  1  0  0  0  0
 13 38  1  0  0  0  0
 14 22  2  0  0  0  0
 15 18  1  0  0  0  0
 15 20  1  0  0  0  0
 15 23  1  0  0  0  0
 16 25  2  0  0  0  0
 17 18  2  0  0  0  0
 17 26  1  0  0  0  0
 18 39  1  0  0  0  0
 19 40  1  0  0  0  0
 19 41  1  0  0  0  0
 19 42  1  0  0  0  0
 20 21  1  0  0  0  0
 21 24  1  0  0  0  0
 21 29  1  0  0  0  0
 22 27  1  0  0  0  0
 22 43  1  0  0  0  0
 23 30  1  0  0  0  0
 23 44  1  0  0  0  0
 23 45  1  0  0  0  0
 25 27  1  0  0  0  0
 25 46  1  0  0  0  0
 26 48  1  0  0  0  0
 26 49  1  0  0  0  0
 26 50  1  0  0  0  0
 28 31  1  0  0  0  0
 28 51  1  0  0  0  0
 29 52  1  0  0  0  0
 29 53  1  0  0  0  0
 29 54  1  0  0  0  0
 30 55  1  0  0  0  0
 30 56  1  0  0  0  0
 30 57  1  0  0  0  0
 31 32  1  0  0  0  0
 31 58  1  0  0  0  0
 31 59  1  0  0  0  0
 32 34  1  0  0  0  0
 32 61  1  0  0  0  0
 32 62  1  0  0  0  0
 33 34  1  0  0  0  0
 33 35  1  0  0  0  0
 33 63  1  0  0  0  0
 34 64  1  0  0  0  0
 35 65  1  0  0  0  0
 35 66  1  0  0  0  0
 35 67  1  0  0  0  0
M  END
> <PUBCHEM_COMPOUND_CID>
11755199

> <PUBCHEM_CONFORMER_RMSD>
0.8

> <PUBCHEM_CONFORMER_DIVERSEORDER>
2
14
10
15
3
20
6
7
5
12
9
16
18
11
13
4
17
1
19
8

> <PUBCHEM_MMFF94_PARTIAL_CHARGES>
33
1 -0.68
10 0.14
11 0.56
13 0.42
14 -0.28
15 0.5
16 -0.03
17 -0.28
18 -0.29
2 -0.56
20 0.45
21 0.4
22 -0.14
24 0.57
25 -0.14
26 0.14
27 0.54
28 0.56
3 -0.68
33 0.28
34 0.28
39 0.15
4 -0.56
43 0.15
46 0.15
47 0.4
5 -0.57
6 -0.57
60 0.4
68 0.4
7 -0.57
8 -0.68
9 -0.47

> <PUBCHEM_EFFECTIVE_ROTOR_COUNT>
4.8

> <PUBCHEM_PHARMACOPHORE_FEATURES>
17
1 1 acceptor
1 1 donor
1 2 acceptor
1 3 acceptor
1 3 donor
1 30 hydrophobe
1 4 acceptor
1 5 acceptor
1 6 acceptor
1 7 acceptor
1 8 acceptor
1 8 donor
5 10 11 12 13 14 rings
5 9 15 20 21 24 rings
6 11 14 16 22 25 27 rings
6 4 28 31 32 33 34 rings
7 9 10 11 15 16 17 18 rings

> <PUBCHEM_HEAVY_ATOM_COUNT>
35

> <PUBCHEM_ATOM_DEF_STEREO_COUNT>
9

> <PUBCHEM_ATOM_UDEF_STEREO_COUNT>
0

> <PUBCHEM_BOND_DEF_STEREO_COUNT>
0

> <PUBCHEM_BOND_UDEF_STEREO_COUNT>
0

> <PUBCHEM_ISOTOPIC_ATOM_COUNT>
0

> <PUBCHEM_COMPONENT_COUNT>
1

> <PUBCHEM_CACTVS_TAUTO_COUNT>
1

> <PUBCHEM_CONFORMER_ID>
00B35EBF00000002

> <PUBCHEM_MMFF94_ENERGY>
111.3816

> <PUBCHEM_FEATURE_SELFOVERLAP>
86.486

> <PUBCHEM_SHAPE_FINGERPRINT>
10411042 1 17833268619457585610
10675989 125 18341614832530503208
11135926 11 18340484470637397191
11578080 2 18053373594596670032
11719270 70 18409721833618059987
12011746 2 18341897398059206306
12166972 35 18342744009508045744
12838862 33 18341316860958422064
13402501 40 18411136952791260859
14787075 74 18202568379962380290
14790565 3 18337958986527649789
14931854 50 18342469106110392566
15131766 46 16953113191302396276
15183329 4 18412548695509069065
18608769 82 18262522606812719331
18681886 176 18261671566435381048
19319366 153 18341887489638850167
20028762 73 18130227043464323430
20197701 30 18408039628140586151
20715895 44 18408040718966814100
21033648 29 18337662126687928361
21267235 1 18131080320595481750
21279426 13 18343304802997234478
21521721 280 18341615940388848785
21859007 373 18115006555440232124
221357 26 18131352990282710552
22149856 69 18341066189724639707
23559900 14 18409724058980279361
23569914 152 16906932199159135021
23576562 1 17824841154976896310
24893992 56 18412262866126610387
27425 322 17096368526276654288
3004659 81 18411420622570132328
3178227 256 18341342166747819299
335352 9 18410859876330715966
350125 39 18409450284352442100
3633792 109 18412552002760649804
4058900 60 18187651258532567347
4073 2 17968101979257554035
4340502 62 18410290324247597918
484989 97 18339651143080390555
5265222 85 18189907585257411950
59755656 215 18411419492524417007
6669772 16 17844510305232422992
6679774 75 18188188966958669794

> <PUBCHEM_SHAPE_MULTIPOLES>
668.35
15.9
3.33
1.46
19.03
1.74
0.35
-3.3
-4.38
-1.38
0.12
-0.24
-1.05
0.89

> <PUBCHEM_SHAPE_SELFOVERLAP>
1455.848

> <PUBCHEM_SHAPE_VOLUME>
360.3

> <PUBCHEM_COORDINATE_TYPE>
2
5
10

$$$$
