11762312
  -OEChem-03292013303D

 68 70  0     1  0  0  0  0  0999 V2000
   -5.7638   -2.7057    0.2884 O   0  0  0  0  0  0  0  0  0  0  0  0
   -0.6239    1.5758   -1.2945 O   0  0  0  0  0  0  0  0  0  0  0  0
   -3.3347    1.1128   -2.6781 O   0  0  0  0  0  0  0  0  0  0  0  0
    0.6082    0.5638    2.1703 O   0  0  0  0  0  0  0  0  0  0  0  0
    3.1363    1.3263    2.3519 O   0  0  0  0  0  0  0  0  0  0  0  0
    8.8274    0.6935   -0.9543 O   0  0  0  0  0  0  0  0  0  0  0  0
   -2.5358    0.8820   -0.1910 N   0  0  0  0  0  0  0  0  0  0  0  0
   -4.4040    3.1268   -2.3708 N   0  0  0  0  0  0  0  0  0  0  0  0
    0.8245   -0.1542   -0.0304 N   0  0  0  0  0  0  0  0  0  0  0  0
   -4.1370    1.0538    1.5148 C   0  0  1  0  0  0  0  0  0  0  0  0
   -3.2358    0.0425    0.7920 C   0  0  1  0  0  0  0  0  0  0  0  0
   -4.5612    1.9990    0.3860 C   0  0  0  0  0  0  0  0  0  0  0  0
   -3.3133    2.0840   -0.4958 C   0  0  2  0  0  0  0  0  0  0  0  0
   -5.2904    0.4382    2.3013 C   0  0  0  0  0  0  0  0  0  0  0  0
   -4.0143   -1.0831    0.0991 C   0  0  0  0  0  0  0  0  0  0  0  0
   -5.0466   -1.7192    1.0231 C   0  0  1  0  0  0  0  0  0  0  0  0
   -6.0200   -0.6712    1.5540 C   0  0  0  0  0  0  0  0  0  0  0  0
   -1.2270    0.7310   -0.6286 C   0  0  0  0  0  0  0  0  0  0  0  0
   -3.6781    2.0387   -1.9473 C   0  0  0  0  0  0  0  0  0  0  0  0
   -0.5364   -0.5517   -0.2415 C   0  0  1  0  0  0  0  0  0  0  0  0
   -0.6877   -1.5877   -1.3492 C   0  0  0  0  0  0  0  0  0  0  0  0
   -0.5281   -3.0465   -0.8757 C   0  0  0  0  0  0  0  0  0  0  0  0
    1.2950    0.3768    1.1685 C   0  0  0  0  0  0  0  0  0  0  0  0
    0.8447   -3.3121   -0.2564 C   0  0  0  0  0  0  0  0  0  0  0  0
   -0.7559   -3.9998   -2.0521 C   0  0  0  0  0  0  0  0  0  0  0  0
    2.7761    0.7301    1.1141 C   0  0  2  0  0  0  0  0  0  0  0  0
    3.6220   -0.5298    0.9034 C   0  0  0  0  0  0  0  0  0  0  0  0
    5.0106   -0.2037    0.4073 C   0  0  0  0  0  0  0  0  0  0  0  0
    5.2617   -0.1243   -0.9625 C   0  0  0  0  0  0  0  0  0  0  0  0
    6.0421    0.0183    1.3196 C   0  0  0  0  0  0  0  0  0  0  0  0
    6.5444    0.1771   -1.4201 C   0  0  0  0  0  0  0  0  0  0  0  0
    7.3249    0.3197    0.8620 C   0  0  0  0  0  0  0  0  0  0  0  0
    7.5760    0.3990   -0.5077 C   0  0  0  0  0  0  0  0  0  0  0  0
   -3.5209    1.6393    2.2129 H   0  0  0  0  0  0  0  0  0  0  0  0
   -2.5494   -0.3820    1.5284 H   0  0  0  0  0  0  0  0  0  0  0  0
   -5.4217    1.5996   -0.1637 H   0  0  0  0  0  0  0  0  0  0  0  0
   -4.8508    2.9832    0.7695 H   0  0  0  0  0  0  0  0  0  0  0  0
   -2.7051    2.9698   -0.2824 H   0  0  0  0  0  0  0  0  0  0  0  0
   -4.8864    0.0155    3.2304 H   0  0  0  0  0  0  0  0  0  0  0  0
   -6.0034    1.2163    2.5977 H   0  0  0  0  0  0  0  0  0  0  0  0
   -3.3293   -1.8580   -0.2584 H   0  0  0  0  0  0  0  0  0  0  0  0
   -4.5167   -0.7163   -0.8059 H   0  0  0  0  0  0  0  0  0  0  0  0
   -4.5392   -2.2232    1.8541 H   0  0  0  0  0  0  0  0  0  0  0  0
   -6.6072   -0.2539    0.7265 H   0  0  0  0  0  0  0  0  0  0  0  0
   -6.7513   -1.1472    2.2187 H   0  0  0  0  0  0  0  0  0  0  0  0
   -0.8981   -0.9516    0.7036 H   0  0  0  0  0  0  0  0  0  0  0  0
   -6.4145   -3.1042    0.8911 H   0  0  0  0  0  0  0  0  0  0  0  0
   -1.6781   -1.4903   -1.8123 H   0  0  0  0  0  0  0  0  0  0  0  0
    0.0310   -1.3855   -2.1555 H   0  0  0  0  0  0  0  0  0  0  0  0
   -4.7051    3.2098   -3.3361 H   0  0  0  0  0  0  0  0  0  0  0  0
   -4.6634    3.8835   -1.7459 H   0  0  0  0  0  0  0  0  0  0  0  0
    1.4549   -0.1805   -0.8270 H   0  0  0  0  0  0  0  0  0  0  0  0
   -1.2920   -3.2590   -0.1174 H   0  0  0  0  0  0  0  0  0  0  0  0
    0.9655   -4.3762   -0.0249 H   0  0  0  0  0  0  0  0  0  0  0  0
    0.9713   -2.7671    0.6834 H   0  0  0  0  0  0  0  0  0  0  0  0
    1.6518   -3.0238   -0.9381 H   0  0  0  0  0  0  0  0  0  0  0  0
   -1.7499   -3.8503   -2.4868 H   0  0  0  0  0  0  0  0  0  0  0  0
   -0.6894   -5.0433   -1.7263 H   0  0  0  0  0  0  0  0  0  0  0  0
   -0.0126   -3.8430   -2.8413 H   0  0  0  0  0  0  0  0  0  0  0  0
    2.9253    1.4693    0.3190 H   0  0  0  0  0  0  0  0  0  0  0  0
    3.1636   -1.2164    0.1825 H   0  0  0  0  0  0  0  0  0  0  0  0
    3.7017   -1.1025    1.8372 H   0  0  0  0  0  0  0  0  0  0  0  0
    3.0339    0.6597    3.0525 H   0  0  0  0  0  0  0  0  0  0  0  0
    4.4654   -0.2930   -1.6826 H   0  0  0  0  0  0  0  0  0  0  0  0
    5.8592   -0.0401    2.3892 H   0  0  0  0  0  0  0  0  0  0  0  0
    6.7338    0.2383   -2.4883 H   0  0  0  0  0  0  0  0  0  0  0  0
    8.1198    0.4907    1.5829 H   0  0  0  0  0  0  0  0  0  0  0  0
    9.4145    0.8160   -0.1886 H   0  0  0  0  0  0  0  0  0  0  0  0
  1 16  1  0  0  0  0
  1 47  1  0  0  0  0
  2 18  2  0  0  0  0
  3 19  2  0  0  0  0
  4 23  2  0  0  0  0
  5 26  1  0  0  0  0
  5 63  1  0  0  0  0
  6 33  1  0  0  0  0
  6 68  1  0  0  0  0
  7 11  1  0  0  0  0
  7 13  1  0  0  0  0
  7 18  1  0  0  0  0
  8 19  1  0  0  0  0
  8 50  1  0  0  0  0
  8 51  1  0  0  0  0
  9 20  1  0  0  0  0
  9 23  1  0  0  0  0
  9 52  1  0  0  0  0
 10 11  1  0  0  0  0
 10 12  1  0  0  0  0
 10 14  1  0  0  0  0
 10 34  1  0  0  0  0
 11 15  1  0  0  0  0
 11 35  1  0  0  0  0
 12 13  1  0  0  0  0
 12 36  1  0  0  0  0
 12 37  1  0  0  0  0
 13 19  1  0  0  0  0
 13 38  1  0  0  0  0
 14 17  1  0  0  0  0
 14 39  1  0  0  0  0
 14 40  1  0  0  0  0
 15 16  1  0  0  0  0
 15 41  1  0  0  0  0
 15 42  1  0  0  0  0
 16 17  1  0  0  0  0
 16 43  1  0  0  0  0
 17 44  1  0  0  0  0
 17 45  1  0  0  0  0
 18 20  1  0  0  0  0
 20 21  1  0  0  0  0
 20 46  1  0  0  0  0
 21 22  1  0  0  0  0
 21 48  1  0  0  0  0
 21 49  1  0  0  0  0
 22 24  1  0  0  0  0
 22 25  1  0  0  0  0
 22 53  1  0  0  0  0
 23 26  1  0  0  0  0
 24 54  1  0  0  0  0
 24 55  1  0  0  0  0
 24 56  1  0  0  0  0
 25 57  1  0  0  0  0
 25 58  1  0  0  0  0
 25 59  1  0  0  0  0
 26 27  1  0  0  0  0
 26 60  1  0  0  0  0
 27 28  1  0  0  0  0
 27 61  1  0  0  0  0
 27 62  1  0  0  0  0
 28 29  2  0  0  0  0
 28 30  1  0  0  0  0
 29 31  1  0  0  0  0
 29 64  1  0  0  0  0
 30 32  2  0  0  0  0
 30 65  1  0  0  0  0
 31 33  2  0  0  0  0
 31 66  1  0  0  0  0
 32 33  1  0  0  0  0
 32 67  1  0  0  0  0
M  END
> <PUBCHEM_COMPOUND_CID>
11762312

> <PUBCHEM_CONFORMER_RMSD>
1.2

> <PUBCHEM_CONFORMER_DIVERSEORDER>
1
14
96
92
48
128
102
5
7
74
122
13
94
27
35
127
93
100
120
97
101
88
84
112
6
104
59
95
53
29
82
2
60
114
20
67
107
129
56
77
118
115
125
124
61
65
41
117
83
81
87
78
52
73
4
42
51
111
79
25
98
37
85
31
110
46
91
89
47
113
49
116
16
33
3
22
108
99
66
11
43
15
50
75
76
19
123
45
32
44
72
103
68
64
26
126
57
58
17
28
70
105
30
40
119
69
39
8
54
90
21
86
71
55
10
12
121
23
36
109
62
38
24
106
34
63
80
18
9

> <PUBCHEM_MMFF94_PARTIAL_CHARGES>
34
1 -0.68
11 0.3
13 0.36
16 0.28
18 0.57
19 0.57
2 -0.57
20 0.36
23 0.57
26 0.34
27 0.14
28 -0.14
29 -0.15
3 -0.57
30 -0.15
31 -0.15
32 -0.15
33 0.08
4 -0.57
47 0.4
5 -0.68
50 0.37
51 0.37
52 0.37
6 -0.53
63 0.4
64 0.15
65 0.15
66 0.15
67 0.15
68 0.45
7 -0.66
8 -0.8
9 -0.73

> <PUBCHEM_EFFECTIVE_ROTOR_COUNT>
11.4

> <PUBCHEM_PHARMACOPHORE_FEATURES>
14
1 1 acceptor
1 1 donor
1 2 acceptor
1 3 acceptor
1 4 acceptor
1 5 acceptor
1 5 donor
1 6 donor
1 8 donor
1 9 donor
3 22 24 25 hydrophobe
5 7 10 11 12 13 rings
6 10 11 14 15 16 17 rings
6 28 29 30 31 32 33 rings

> <PUBCHEM_HEAVY_ATOM_COUNT>
33

> <PUBCHEM_ATOM_DEF_STEREO_COUNT>
6

> <PUBCHEM_ATOM_UDEF_STEREO_COUNT>
0

> <PUBCHEM_BOND_DEF_STEREO_COUNT>
0

> <PUBCHEM_BOND_UDEF_STEREO_COUNT>
0

> <PUBCHEM_ISOTOPIC_ATOM_COUNT>
0

> <PUBCHEM_COMPONENT_COUNT>
1

> <PUBCHEM_CACTVS_TAUTO_COUNT>
8

> <PUBCHEM_CONFORMER_ID>
00B37A8800000001

> <PUBCHEM_MMFF94_ENERGY>
79.8435

> <PUBCHEM_FEATURE_SELFOVERLAP>
71.217

> <PUBCHEM_SHAPE_FINGERPRINT>
10165383 225 18273222980210107371
10369192 42 18343028778370575605
10815517 723 18199463449594947031
10906281 52 17972024848110140149
11007060 377 17774705541742022744
11036077 3 17917999368709424618
11101153 10 16950855798375921093
11135609 99 16299814120473123115
11135926 11 17774999056393214446
11315181 36 15864074282135260273
11578080 2 18119532042631756177
12107698 1 17749113317868751876
13914758 101 9727364506632703032
14202776 33 18040154032497032748
14856354 85 17895482530208740514
15183329 4 14836121023100429672
1577012 14 16515683309040252208
15876981 60 16370728097642325973
17980427 23 15502665853809678423
18608769 82 18272938262502024022
21033648 29 18130488786875590193
21756936 100 17060339613330327875
23559900 14 17318177116962954215
3383291 50 17775565381579500270
4280585 95 8358260315254023955
4325135 7 16515688866400457162
437795 51 17703241628280732462
444769 64 15769781234389139812
497634 4 16153699925457192606
5265222 85 18270687601281478990
57527293 21 18042400232048312899
58260988 521 18269854128001546139
59755656 520 17846498144835214879
6523845 18 18202280316484641139
7226269 152 17203613674894741640

> <PUBCHEM_SHAPE_MULTIPOLES>
628.97
19.02
3.12
2.25
34.59
3.44
0.54
-5.12
-2.1
-4.29
1.81
-2.02
-1.02
1.94

> <PUBCHEM_SHAPE_SELFOVERLAP>
1314.16

> <PUBCHEM_SHAPE_VOLUME>
354.9

> <PUBCHEM_COORDINATE_TYPE>
2
5
10

$$$$
