11762505
  -OEChem-03292013303D

 60 64  0     1  0  0  0  0  0999 V2000
   -0.4653   -0.2347   -1.5658 O   0  0  0  0  0  0  0  0  0  0  0  0
   -4.2655    0.5382    1.2906 O   0  0  0  0  0  0  0  0  0  0  0  0
    1.9611   -1.5828   -2.1635 O   0  0  0  0  0  0  0  0  0  0  0  0
   -2.1839   -2.3091   -0.1100 O   0  0  0  0  0  0  0  0  0  0  0  0
    2.3173    2.0162   -2.4211 O   0  0  0  0  0  0  0  0  0  0  0  0
   -5.1580   -0.6505   -1.2470 O   0  0  0  0  0  0  0  0  0  0  0  0
    1.1258    3.3619   -0.4289 O   0  0  0  0  0  0  0  0  0  0  0  0
   -0.8674    3.7655    1.1458 O   0  0  0  0  0  0  0  0  0  0  0  0
    4.6356    0.4697    2.2066 O   0  0  0  0  0  0  0  0  0  0  0  0
    4.9097   -2.1950    1.4709 O   0  0  0  0  0  0  0  0  0  0  0  0
    1.5129    1.2450   -1.5278 C   0  0  2  0  0  0  0  0  0  0  0  0
   -4.6906   -0.8292    1.1453 C   0  0  0  0  0  0  0  0  0  0  0  0
    0.5358    0.4158   -2.3595 C   0  0  1  0  0  0  0  0  0  0  0  0
   -4.3956   -1.3695   -0.2720 C   0  0  2  0  0  0  0  0  0  0  0  0
   -2.9236   -1.2191   -0.6557 C   0  0  1  0  0  0  0  0  0  0  0  0
   -2.3577    0.0996   -0.1834 C   0  0  0  0  0  0  0  0  0  0  0  0
   -1.1233    0.5702   -0.6752 C   0  0  0  0  0  0  0  0  0  0  0  0
   -0.6057    1.7877   -0.2285 C   0  0  0  0  0  0  0  0  0  0  0  0
    0.7161    2.2390   -0.7058 C   0  0  0  0  0  0  0  0  0  0  0  0
   -3.0578    0.8823    0.7448 C   0  0  0  0  0  0  0  0  0  0  0  0
    2.4180    0.3427   -0.7173 C   0  0  0  0  0  0  0  0  0  0  0  0
    1.3100   -0.6899   -3.0748 C   0  0  0  0  0  0  0  0  0  0  0  0
   -4.0269   -1.6684    2.2517 C   0  0  0  0  0  0  0  0  0  0  0  0
   -6.2058   -0.8153    1.4151 C   0  0  0  0  0  0  0  0  0  0  0  0
   -1.3217    2.5687    0.6793 C   0  0  0  0  0  0  0  0  0  0  0  0
    2.5900   -0.9990   -1.0942 C   0  0  0  0  0  0  0  0  0  0  0  0
   -2.5480    2.1160    1.1592 C   0  0  0  0  0  0  0  0  0  0  0  0
    3.1307    0.8209    0.3943 C   0  0  0  0  0  0  0  0  0  0  0  0
    3.4178   -1.8462   -0.3499 C   0  0  0  0  0  0  0  0  0  0  0  0
    3.9638   -0.0246    1.1291 C   0  0  0  0  0  0  0  0  0  0  0  0
    4.1035   -1.3588    0.7600 C   0  0  0  0  0  0  0  0  0  0  0  0
   -2.7029   -3.5578   -0.5442 C   0  0  0  0  0  0  0  0  0  0  0  0
    3.9781    0.3948    3.4700 C   0  0  0  0  0  0  0  0  0  0  0  0
    6.2734   -2.2841    1.0620 C   0  0  0  0  0  0  0  0  0  0  0  0
    0.0284    1.0301   -3.1159 H   0  0  0  0  0  0  0  0  0  0  0  0
   -4.7744   -2.3918   -0.3313 H   0  0  0  0  0  0  0  0  0  0  0  0
   -2.8285   -1.2468   -1.7504 H   0  0  0  0  0  0  0  0  0  0  0  0
    0.6178   -1.3034   -3.6623 H   0  0  0  0  0  0  0  0  0  0  0  0
    2.0582   -0.2841   -3.7659 H   0  0  0  0  0  0  0  0  0  0  0  0
   -2.9347   -1.6151    2.2172 H   0  0  0  0  0  0  0  0  0  0  0  0
   -4.3050   -1.2877    3.2419 H   0  0  0  0  0  0  0  0  0  0  0  0
   -4.3289   -2.7189    2.1937 H   0  0  0  0  0  0  0  0  0  0  0  0
   -6.6401   -1.8162    1.3221 H   0  0  0  0  0  0  0  0  0  0  0  0
   -6.4209   -0.4368    2.4214 H   0  0  0  0  0  0  0  0  0  0  0  0
   -6.7269   -0.1428    0.7244 H   0  0  0  0  0  0  0  0  0  0  0  0
   -3.1053    2.7201    1.8721 H   0  0  0  0  0  0  0  0  0  0  0  0
    1.7280    2.5011   -3.0239 H   0  0  0  0  0  0  0  0  0  0  0  0
    3.0441    1.8618    0.6960 H   0  0  0  0  0  0  0  0  0  0  0  0
   -5.0266   -1.0884   -2.1053 H   0  0  0  0  0  0  0  0  0  0  0  0
    3.5307   -2.8883   -0.6405 H   0  0  0  0  0  0  0  0  0  0  0  0
   -1.8828   -4.2819   -0.5050 H   0  0  0  0  0  0  0  0  0  0  0  0
   -3.0672   -3.5296   -1.5767 H   0  0  0  0  0  0  0  0  0  0  0  0
   -3.4716   -3.9238    0.1418 H   0  0  0  0  0  0  0  0  0  0  0  0
    0.0114    3.9627    0.7885 H   0  0  0  0  0  0  0  0  0  0  0  0
    3.7709   -0.6466    3.7355 H   0  0  0  0  0  0  0  0  0  0  0  0
    3.0474    0.9708    3.4525 H   0  0  0  0  0  0  0  0  0  0  0  0
    4.6406    0.8234    4.2268 H   0  0  0  0  0  0  0  0  0  0  0  0
    6.7622   -1.3074    1.1345 H   0  0  0  0  0  0  0  0  0  0  0  0
    6.3424   -2.6641    0.0377 H   0  0  0  0  0  0  0  0  0  0  0  0
    6.7861   -2.9821    1.7294 H   0  0  0  0  0  0  0  0  0  0  0  0
  1 13  1  0  0  0  0
  1 17  1  0  0  0  0
  2 12  1  0  0  0  0
  2 20  1  0  0  0  0
  3 22  1  0  0  0  0
  3 26  1  0  0  0  0
  4 15  1  0  0  0  0
  4 32  1  0  0  0  0
  5 11  1  0  0  0  0
  5 47  1  0  0  0  0
  6 14  1  0  0  0  0
  6 49  1  0  0  0  0
  7 19  2  0  0  0  0
  8 25  1  0  0  0  0
  8 54  1  0  0  0  0
  9 30  1  0  0  0  0
  9 33  1  0  0  0  0
 10 31  1  0  0  0  0
 10 34  1  0  0  0  0
 11 13  1  0  0  0  0
 11 19  1  0  0  0  0
 11 21  1  0  0  0  0
 12 14  1  0  0  0  0
 12 23  1  0  0  0  0
 12 24  1  0  0  0  0
 13 22  1  0  0  0  0
 13 35  1  0  0  0  0
 14 15  1  0  0  0  0
 14 36  1  0  0  0  0
 15 16  1  0  0  0  0
 15 37  1  0  0  0  0
 16 17  1  0  0  0  0
 16 20  2  0  0  0  0
 17 18  2  0  0  0  0
 18 19  1  0  0  0  0
 18 25  1  0  0  0  0
 20 27  1  0  0  0  0
 21 26  1  0  0  0  0
 21 28  2  0  0  0  0
 22 38  1  0  0  0  0
 22 39  1  0  0  0  0
 23 40  1  0  0  0  0
 23 41  1  0  0  0  0
 23 42  1  0  0  0  0
 24 43  1  0  0  0  0
 24 44  1  0  0  0  0
 24 45  1  0  0  0  0
 25 27  2  0  0  0  0
 26 29  2  0  0  0  0
 27 46  1  0  0  0  0
 28 30  1  0  0  0  0
 28 48  1  0  0  0  0
 29 31  1  0  0  0  0
 29 50  1  0  0  0  0
 30 31  2  0  0  0  0
 32 51  1  0  0  0  0
 32 52  1  0  0  0  0
 32 53  1  0  0  0  0
 33 55  1  0  0  0  0
 33 56  1  0  0  0  0
 33 57  1  0  0  0  0
 34 58  1  0  0  0  0
 34 59  1  0  0  0  0
 34 60  1  0  0  0  0
M  END
> <PUBCHEM_COMPOUND_CID>
11762505

> <PUBCHEM_CONFORMER_RMSD>
0.8

> <PUBCHEM_CONFORMER_DIVERSEORDER>
5
7
6
1
3
8
4
2

> <PUBCHEM_MMFF94_PARTIAL_CHARGES>
38
1 -0.36
10 -0.36
11 0.48
12 0.28
13 0.28
14 0.28
15 0.42
16 -0.14
17 0.08
18 0.09
19 0.42
2 -0.36
20 0.08
21 -0.14
22 0.28
25 0.08
26 0.08
27 -0.15
28 -0.15
29 -0.15
3 -0.36
30 0.08
31 0.08
32 0.28
33 0.28
34 0.28
4 -0.56
46 0.15
47 0.4
48 0.15
49 0.4
5 -0.68
50 0.15
54 0.45
6 -0.68
7 -0.57
8 -0.53
9 -0.36

> <PUBCHEM_EFFECTIVE_ROTOR_COUNT>
4.4

> <PUBCHEM_PHARMACOPHORE_FEATURES>
18
1 1 acceptor
1 10 acceptor
1 2 acceptor
1 3 acceptor
1 4 acceptor
1 5 acceptor
1 5 donor
1 6 acceptor
1 6 donor
1 7 acceptor
1 8 donor
1 9 acceptor
3 12 23 24 hydrophobe
6 1 11 13 17 18 19 rings
6 16 17 18 20 25 27 rings
6 2 12 14 15 16 20 rings
6 21 26 28 29 30 31 rings
6 3 11 13 21 22 26 rings

> <PUBCHEM_HEAVY_ATOM_COUNT>
34

> <PUBCHEM_ATOM_DEF_STEREO_COUNT>
2

> <PUBCHEM_ATOM_UDEF_STEREO_COUNT>
2

> <PUBCHEM_BOND_DEF_STEREO_COUNT>
0

> <PUBCHEM_BOND_UDEF_STEREO_COUNT>
0

> <PUBCHEM_ISOTOPIC_ATOM_COUNT>
0

> <PUBCHEM_COMPONENT_COUNT>
1

> <PUBCHEM_CACTVS_TAUTO_COUNT>
5

> <PUBCHEM_CONFORMER_ID>
00B37B4900000005

> <PUBCHEM_MMFF94_ENERGY>
145.6809

> <PUBCHEM_FEATURE_SELFOVERLAP>
91.566

> <PUBCHEM_SHAPE_FINGERPRINT>
10319926 262 17914621557810188606
11578080 2 16200165248661851625
11796584 16 17240475910075063139
12166972 35 17458070360549682763
12422481 6 17917711270876890497
12553582 1 18128839580127561093
12633257 1 18269280221696770159
12788726 201 18268455519098543561
131258 38 17680148761398223875
13140716 1 17699018589055239189
13224815 77 17203063949325141421
13583140 156 17701805610402336256
13692114 37 17696771965152517145
14081887 123 18130511812294905503
14178342 30 18195256507141130836
14251757 17 11963666673738345074
14537116 161 13118277114606578707
14705955 166 17632016325636644123
14848178 5 17894910728411591939
14950920 106 18199731580249966562
15475509 35 17681857411816715291
15775530 1 17486785073403788316
17349148 13 18187377518923656211
1813 80 17530964674699536404
18603816 31 14930087335846872978
1979834 28 17703246065203365199
20775438 99 14781250083972765441
20775530 9 17822559543663859858
21033648 29 17131278934874970321
21421861 104 18265633111256905629
21458453 9 17984119729338839872
21756936 100 13254495571089410214
21792934 111 17987813912936863225
23559900 14 15338303193552682989
25222932 49 17831319545917610455
2838139 119 12103546581985246698
3680242 22 18338250340082096443
3886686 26 17543354852274540995
392239 28 17346309393174431722
394222 165 17838063954395119388
4098825 35 8141791846622590672
469060 322 16981190276714971680
474 4 12463576144791815085
484985 159 17172911848530273570
57527293 21 17846775230318035820
6823239 73 17700727109459108956
7970288 3 17677053438982433450

> <PUBCHEM_SHAPE_MULTIPOLES>
641.01
11.49
3.35
2.66
0.92
0.89
-0.14
-8.45
-7.9
0.2
-0.25
-2.28
-0.06
-0.87

> <PUBCHEM_SHAPE_SELFOVERLAP>
1426.252

> <PUBCHEM_SHAPE_VOLUME>
338.9

> <PUBCHEM_COORDINATE_TYPE>
2
5
10

$$$$
