117646079
  -OEChem-03292013293D

 51 52  0     1  0  0  0  0  0999 V2000
   -3.5152    0.5249    0.4612 F   0  0  0  0  0  0  0  0  0  0  0  0
   -2.1138   -3.1214    1.6247 F   0  0  0  0  0  0  0  0  0  0  0  0
   -1.5205   -4.3795   -0.0459 F   0  0  0  0  0  0  0  0  0  0  0  0
    0.9986   -0.2766    1.6980 O   0  0  0  0  0  0  0  0  0  0  0  0
    3.9828   -0.9694    1.3043 O   0  0  0  0  0  0  0  0  0  0  0  0
    5.1629   -0.6616   -1.4937 O   0  0  0  0  0  0  0  0  0  0  0  0
   -0.6821   -2.1612   -1.3816 O   0  0  0  0  0  0  0  0  0  0  0  0
    1.6287    0.9516   -0.1639 N   0  0  0  0  0  0  0  0  0  0  0  0
   -1.3593   -0.8874    0.4430 N   0  0  0  0  0  0  0  0  0  0  0  0
    3.0753   -1.6940   -1.5455 N   0  0  0  0  0  0  0  0  0  0  0  0
    3.0507    1.0731    0.1883 C   0  0  0  0  0  0  0  0  0  0  0  0
   -2.8582    1.6687    0.1186 C   0  0  0  0  0  0  0  0  0  0  0  0
    3.2879    2.0542    1.3765 C   0  0  0  0  0  0  0  0  0  0  0  0
    3.7969    2.1165   -0.6979 C   0  0  0  0  0  0  0  0  0  0  0  0
    3.4606    3.1894    0.3522 C   0  0  0  0  0  0  0  0  0  0  0  0
   -3.6330    2.8556    0.6720 C   0  0  0  0  0  0  0  0  0  0  0  0
   -2.9705    1.8587   -1.3869 C   0  0  0  0  0  0  0  0  0  0  0  0
   -1.4339    1.5714    0.6241 C   0  0  0  0  0  0  0  0  0  0  0  0
   -4.4065    2.3373   -1.5878 C   0  0  0  0  0  0  0  0  0  0  0  0
   -4.8332    2.9745   -0.2639 C   0  0  0  0  0  0  0  0  0  0  0  0
   -0.7016    0.3416    0.0812 C   0  0  1  0  0  0  0  0  0  0  0  0
    0.7157    0.2759    0.6369 C   0  0  0  0  0  0  0  0  0  0  0  0
    3.7072   -0.3190    0.3066 C   0  0  0  0  0  0  0  0  0  0  0  0
    4.0661   -0.9080   -1.0208 C   0  0  0  0  0  0  0  0  0  0  0  0
   -1.2940   -2.0417   -0.3227 C   0  0  0  0  0  0  0  0  0  0  0  0
   -2.0917   -3.1836    0.2653 C   0  0  0  0  0  0  0  0  0  0  0  0
   -3.5201   -3.1898   -0.2423 C   0  0  0  0  0  0  0  0  0  0  0  0
    4.1979    1.8458    1.9523 H   0  0  0  0  0  0  0  0  0  0  0  0
    2.4620    2.1912    2.0807 H   0  0  0  0  0  0  0  0  0  0  0  0
    3.3860    2.2972   -1.6956 H   0  0  0  0  0  0  0  0  0  0  0  0
    4.8754    1.9430   -0.7955 H   0  0  0  0  0  0  0  0  0  0  0  0
    2.5347    3.7367    0.1415 H   0  0  0  0  0  0  0  0  0  0  0  0
    4.2553    3.9075    0.5691 H   0  0  0  0  0  0  0  0  0  0  0  0
   -2.2720    2.6253   -1.7427 H   0  0  0  0  0  0  0  0  0  0  0  0
   -3.9539    2.6996    1.7064 H   0  0  0  0  0  0  0  0  0  0  0  0
   -3.0353    3.7736    0.6251 H   0  0  0  0  0  0  0  0  0  0  0  0
   -2.7931    0.9350   -1.9461 H   0  0  0  0  0  0  0  0  0  0  0  0
   -0.8732    2.4796    0.3686 H   0  0  0  0  0  0  0  0  0  0  0  0
   -1.4512    1.5176    1.7211 H   0  0  0  0  0  0  0  0  0  0  0  0
   -5.1352    4.0188   -0.3929 H   0  0  0  0  0  0  0  0  0  0  0  0
   -5.6930    2.4330    0.1474 H   0  0  0  0  0  0  0  0  0  0  0  0
   -5.0628    1.4904   -1.8197 H   0  0  0  0  0  0  0  0  0  0  0  0
   -4.4768    3.0437   -2.4211 H   0  0  0  0  0  0  0  0  0  0  0  0
   -0.6439    0.3864   -1.0128 H   0  0  0  0  0  0  0  0  0  0  0  0
    1.2854    1.3837   -1.0185 H   0  0  0  0  0  0  0  0  0  0  0  0
   -1.8471   -0.9239    1.3338 H   0  0  0  0  0  0  0  0  0  0  0  0
    2.1913   -1.8431   -1.0693 H   0  0  0  0  0  0  0  0  0  0  0  0
    3.1942   -2.1576   -2.4401 H   0  0  0  0  0  0  0  0  0  0  0  0
   -4.0696   -4.0333    0.1875 H   0  0  0  0  0  0  0  0  0  0  0  0
   -4.0437   -2.2705    0.0387 H   0  0  0  0  0  0  0  0  0  0  0  0
   -3.5502   -3.2896   -1.3320 H   0  0  0  0  0  0  0  0  0  0  0  0
  1 12  1  0  0  0  0
  2 26  1  0  0  0  0
  3 26  1  0  0  0  0
  4 22  2  0  0  0  0
  5 23  2  0  0  0  0
  6 24  2  0  0  0  0
  7 25  2  0  0  0  0
  8 11  1  0  0  0  0
  8 22  1  0  0  0  0
  8 45  1  0  0  0  0
  9 21  1  0  0  0  0
  9 25  1  0  0  0  0
  9 46  1  0  0  0  0
 10 24  1  0  0  0  0
 10 47  1  0  0  0  0
 10 48  1  0  0  0  0
 11 13  1  0  0  0  0
 11 14  1  0  0  0  0
 11 23  1  0  0  0  0
 12 16  1  0  0  0  0
 12 17  1  0  0  0  0
 12 18  1  0  0  0  0
 13 15  1  0  0  0  0
 13 28  1  0  0  0  0
 13 29  1  0  0  0  0
 14 15  1  0  0  0  0
 14 30  1  0  0  0  0
 14 31  1  0  0  0  0
 15 32  1  0  0  0  0
 15 33  1  0  0  0  0
 16 20  1  0  0  0  0
 16 35  1  0  0  0  0
 16 36  1  0  0  0  0
 17 19  1  0  0  0  0
 17 34  1  0  0  0  0
 17 37  1  0  0  0  0
 18 21  1  0  0  0  0
 18 38  1  0  0  0  0
 18 39  1  0  0  0  0
 19 20  1  0  0  0  0
 19 42  1  0  0  0  0
 19 43  1  0  0  0  0
 20 40  1  0  0  0  0
 20 41  1  0  0  0  0
 21 22  1  0  0  0  0
 21 44  1  0  0  0  0
 23 24  1  0  0  0  0
 25 26  1  0  0  0  0
 26 27  1  0  0  0  0
 27 49  1  0  0  0  0
 27 50  1  0  0  0  0
 27 51  1  0  0  0  0
M  END
> <PUBCHEM_COMPOUND_CID>
117646079

> <PUBCHEM_CONFORMER_RMSD>
1

> <PUBCHEM_CONFORMER_DIVERSEORDER>
1
100
95
61
37
67
120
102
116
58
84
81
14
137
29
45
99
52
138
91
16
126
130
74
96
33
103
13
88
65
82
105
56
111
22
131
42
43
66
129
128
117
118
121
132
134
97
35
24
23
31
38
17
86
47
72
124
89
69
115
101
19
57
98
46
8
107
139
119
54
79
114
55
15
122
27
106
59
110
109
49
51
93
12
36
78
80
135
3
48
76
6
136
25
127
73
141
83
64
63
75
20
44
104
70
112
39
28
92
9
32
108
26
60
87
5
30
123
18
41
53
140
113
85
94
10
77
7
62
21
90
50
40
68
133
71
125
34
4
2
11

> <PUBCHEM_MMFF94_PARTIAL_CHARGES>
22
1 -0.34
10 -0.8
11 0.28
12 0.34
2 -0.34
21 0.36
22 0.57
23 0.52
24 0.63
25 0.57
26 0.74
3 -0.34
4 -0.57
45 0.37
46 0.37
47 0.37
48 0.37
5 -0.57
6 -0.57
7 -0.57
8 -0.65
9 -0.73

> <PUBCHEM_EFFECTIVE_ROTOR_COUNT>
11.8

> <PUBCHEM_PHARMACOPHORE_FEATURES>
9
1 10 donor
1 4 acceptor
1 5 acceptor
1 6 acceptor
1 7 acceptor
1 8 donor
1 9 donor
4 11 13 14 15 rings
5 12 16 17 19 20 rings

> <PUBCHEM_HEAVY_ATOM_COUNT>
27

> <PUBCHEM_ATOM_DEF_STEREO_COUNT>
1

> <PUBCHEM_ATOM_UDEF_STEREO_COUNT>
0

> <PUBCHEM_BOND_DEF_STEREO_COUNT>
0

> <PUBCHEM_BOND_UDEF_STEREO_COUNT>
0

> <PUBCHEM_ISOTOPIC_ATOM_COUNT>
0

> <PUBCHEM_COMPONENT_COUNT>
1

> <PUBCHEM_CACTVS_TAUTO_COUNT>
8

> <PUBCHEM_CONFORMER_ID>
070322FF00000001

> <PUBCHEM_MMFF94_ENERGY>
53.7817

> <PUBCHEM_FEATURE_SELFOVERLAP>
45.674

> <PUBCHEM_SHAPE_FINGERPRINT>
12422481 6 18195837213328436091
12553582 1 17693370457625867822
12788726 201 18118108406611780115
13140716 1 18411973676971735864
13540713 4 18200878482610143888
13583140 156 17822296751425368417
13690498 29 18196113216300559774
14178342 30 18265037215026315832
14251751 93 18410571773686619867
15420108 30 15542650418782719152
15775530 1 17697287944947456801
18186145 218 18337669711426547744
21033648 29 18335974264412497964
21285901 2 18128260184612936439
21307412 95 17914072918888433902
2255824 54 17764582124106487693
22907989 373 18268425909709731565
23557571 272 18267016340055893040
23558518 356 18189052160852555768
23559900 14 18201438060998640952
23598288 3 18269262620752128958
283562 15 17901094536329918985
3060560 45 18192987119631735404
3298306 158 18120372060408529855
340366 18 18334583408484088820
352729 6 18272654527950009480
3729539 64 17834128441496833982
59025328 239 17053554733218494127
633830 44 18128809760059309733
7164475 11 18192429894727366476
7399639 24 17695901520682212552
81228 2 18118121596471975265
9709674 26 18343301500430829198
9981440 41 16552224636579375489

> <PUBCHEM_SHAPE_MULTIPOLES>
495.41
9.95
4.85
1.4
3.09
3.43
0.14
-5.47
2.32
-5.07
-0.15
0.44
0.07
1.55

> <PUBCHEM_SHAPE_SELFOVERLAP>
1027.644

> <PUBCHEM_SHAPE_VOLUME>
282.7

> <PUBCHEM_COORDINATE_TYPE>
2
5
10

$$$$
