11778868
  -OEChem-03292013303D

 48 47  0     1  0  0  0  0  0999 V2000
   -0.3151   -3.3495    0.6565 O   0  0  0  0  0  0  0  0  0  0  0  0
    0.7281   -1.2384    1.8548 O   0  0  0  0  0  0  0  0  0  0  0  0
    1.6280    1.6822   -1.7040 O   0  0  0  0  0  0  0  0  0  0  0  0
    3.1132    2.7292   -0.3658 O   0  0  0  0  0  0  0  0  0  0  0  0
    1.4221   -0.4514   -0.2172 N   0  0  0  0  0  0  0  0  0  0  0  0
   -2.5519   -2.5860   -0.9690 N   0  0  0  0  0  0  0  0  0  0  0  0
   -3.1009    0.3547   -1.2791 C   0  0  0  0  0  0  0  0  0  0  0  0
   -1.7151   -0.2759   -1.0627 C   0  0  0  0  0  0  0  0  0  0  0  0
   -3.8514    0.8074   -0.0071 C   0  0  1  0  0  0  0  0  0  0  0  0
   -1.7055   -1.6038   -0.2790 C   0  0  2  0  0  0  0  0  0  0  0  0
   -0.2779   -2.1660   -0.1400 C   0  0  1  0  0  0  0  0  0  0  0  0
   -2.9884    1.7392    0.8662 C   0  0  0  0  0  0  0  0  0  0  0  0
   -5.1674    1.4775   -0.4226 C   0  0  0  0  0  0  0  0  0  0  0  0
    2.4124    0.4883    0.2575 C   0  0  1  0  0  0  0  0  0  0  0  0
    3.7779   -0.2133    0.4202 C   0  0  0  0  0  0  0  0  0  0  0  0
    0.6575   -1.2416    0.6280 C   0  0  0  0  0  0  0  0  0  0  0  0
   -3.6654    2.1721    2.1598 C   0  0  0  0  0  0  0  0  0  0  0  0
    4.8045    0.6750    1.1284 C   0  0  0  0  0  0  0  0  0  0  0  0
    4.3503   -0.7338   -0.9018 C   0  0  0  0  0  0  0  0  0  0  0  0
    2.4450    1.7342   -0.6234 C   0  0  0  0  0  0  0  0  0  0  0  0
   -3.7364   -0.3266   -1.8574 H   0  0  0  0  0  0  0  0  0  0  0  0
   -2.9559    1.2331   -1.9233 H   0  0  0  0  0  0  0  0  0  0  0  0
   -1.0632    0.4602   -0.5837 H   0  0  0  0  0  0  0  0  0  0  0  0
   -1.2755   -0.4507   -2.0549 H   0  0  0  0  0  0  0  0  0  0  0  0
   -4.1031   -0.0848    0.5797 H   0  0  0  0  0  0  0  0  0  0  0  0
   -2.1242   -1.4415    0.7215 H   0  0  0  0  0  0  0  0  0  0  0  0
    0.1537   -2.4305   -1.1118 H   0  0  0  0  0  0  0  0  0  0  0  0
   -2.0639    1.2274    1.1537 H   0  0  0  0  0  0  0  0  0  0  0  0
   -2.6976    2.6292    0.2954 H   0  0  0  0  0  0  0  0  0  0  0  0
   -5.8026    1.6801    0.4450 H   0  0  0  0  0  0  0  0  0  0  0  0
   -4.9844    2.4242   -0.9421 H   0  0  0  0  0  0  0  0  0  0  0  0
   -5.7392    0.8277   -1.0940 H   0  0  0  0  0  0  0  0  0  0  0  0
    2.0704    0.8340    1.2420 H   0  0  0  0  0  0  0  0  0  0  0  0
    3.6241   -1.0895    1.0657 H   0  0  0  0  0  0  0  0  0  0  0  0
    1.2975   -0.5390   -1.2217 H   0  0  0  0  0  0  0  0  0  0  0  0
   -3.5280   -2.2991   -0.9149 H   0  0  0  0  0  0  0  0  0  0  0  0
   -2.4961   -3.4807   -0.4833 H   0  0  0  0  0  0  0  0  0  0  0  0
   -4.0131    1.3055    2.7309 H   0  0  0  0  0  0  0  0  0  0  0  0
   -2.9586    2.7279    2.7846 H   0  0  0  0  0  0  0  0  0  0  0  0
   -4.5186    2.8287    1.9673 H   0  0  0  0  0  0  0  0  0  0  0  0
    5.1457    1.4975    0.4929 H   0  0  0  0  0  0  0  0  0  0  0  0
    5.6890    0.0885    1.4011 H   0  0  0  0  0  0  0  0  0  0  0  0
    4.3905    1.0962    2.0503 H   0  0  0  0  0  0  0  0  0  0  0  0
    4.5447    0.0836   -1.6039 H   0  0  0  0  0  0  0  0  0  0  0  0
    5.2963   -1.2592   -0.7310 H   0  0  0  0  0  0  0  0  0  0  0  0
    3.6656   -1.4399   -1.3822 H   0  0  0  0  0  0  0  0  0  0  0  0
   -0.7866   -3.1455    1.4824 H   0  0  0  0  0  0  0  0  0  0  0  0
    1.6614    2.5102   -2.2290 H   0  0  0  0  0  0  0  0  0  0  0  0
  1 11  1  0  0  0  0
  1 47  1  0  0  0  0
  2 16  2  0  0  0  0
  3 20  1  0  0  0  0
  3 48  1  0  0  0  0
  4 20  2  0  0  0  0
  5 14  1  0  0  0  0
  5 16  1  0  0  0  0
  5 35  1  0  0  0  0
  6 10  1  0  0  0  0
  6 36  1  0  0  0  0
  6 37  1  0  0  0  0
  7  8  1  0  0  0  0
  7  9  1  0  0  0  0
  7 21  1  0  0  0  0
  7 22  1  0  0  0  0
  8 10  1  0  0  0  0
  8 23  1  0  0  0  0
  8 24  1  0  0  0  0
  9 12  1  0  0  0  0
  9 13  1  0  0  0  0
  9 25  1  0  0  0  0
 10 11  1  0  0  0  0
 10 26  1  0  0  0  0
 11 16  1  0  0  0  0
 11 27  1  0  0  0  0
 12 17  1  0  0  0  0
 12 28  1  0  0  0  0
 12 29  1  0  0  0  0
 13 30  1  0  0  0  0
 13 31  1  0  0  0  0
 13 32  1  0  0  0  0
 14 15  1  0  0  0  0
 14 20  1  0  0  0  0
 14 33  1  0  0  0  0
 15 18  1  0  0  0  0
 15 19  1  0  0  0  0
 15 34  1  0  0  0  0
 17 38  1  0  0  0  0
 17 39  1  0  0  0  0
 17 40  1  0  0  0  0
 18 41  1  0  0  0  0
 18 42  1  0  0  0  0
 18 43  1  0  0  0  0
 19 44  1  0  0  0  0
 19 45  1  0  0  0  0
 19 46  1  0  0  0  0
M  END
> <PUBCHEM_COMPOUND_CID>
11778868

> <PUBCHEM_CONFORMER_RMSD>
1

> <PUBCHEM_CONFORMER_DIVERSEORDER>
1
58
40
44
97
84
35
19
74
21
6
90
11
32
75
99
96
65
61
78
80
16
5
64
81
12
36
109
46
59
37
100
3
95
70
110
10
79
94
77
38
87
105
25
53
34
2
17
60
42
26
88
47
72
106
43
14
82
62
33
15
93
69
85
98
30
50
103
91
89
7
20
54
101
56
63
83
48
28
107
4
66
71
29
102
52
9
67
31
57
24
41
104
55
86
51
23
49
111
92
39
13
73
76
8
45
108
22
27
18
68

> <PUBCHEM_MMFF94_PARTIAL_CHARGES>
16
1 -0.68
10 0.27
11 0.34
14 0.36
16 0.57
2 -0.57
20 0.66
3 -0.65
35 0.37
36 0.36
37 0.36
4 -0.57
47 0.4
48 0.5
5 -0.73
6 -0.99

> <PUBCHEM_EFFECTIVE_ROTOR_COUNT>
10

> <PUBCHEM_PHARMACOPHORE_FEATURES>
13
1 1 acceptor
1 1 donor
1 13 hydrophobe
1 17 hydrophobe
1 2 acceptor
1 3 acceptor
1 4 acceptor
1 5 donor
1 6 cation
1 6 donor
3 15 18 19 hydrophobe
3 3 4 20 anion
4 7 8 9 12 hydrophobe

> <PUBCHEM_HEAVY_ATOM_COUNT>
20

> <PUBCHEM_ATOM_DEF_STEREO_COUNT>
3

> <PUBCHEM_ATOM_UDEF_STEREO_COUNT>
1

> <PUBCHEM_BOND_DEF_STEREO_COUNT>
0

> <PUBCHEM_BOND_UDEF_STEREO_COUNT>
0

> <PUBCHEM_ISOTOPIC_ATOM_COUNT>
0

> <PUBCHEM_COMPONENT_COUNT>
1

> <PUBCHEM_CACTVS_TAUTO_COUNT>
2

> <PUBCHEM_CONFORMER_ID>
00B3BB3400000001

> <PUBCHEM_MMFF94_ENERGY>
23.4763

> <PUBCHEM_FEATURE_SELFOVERLAP>
66.078

> <PUBCHEM_SHAPE_FINGERPRINT>
10366900 7 16515402945969285533
10382601 240 18121224173156113427
11640471 11 18342455903127716585
12596599 1 18336542802264947566
12633257 1 18335132099119616180
12788726 201 18051697947101604439
14123250 116 18267873971878766745
14123255 52 18409724024414780061
14251757 17 14764067801212537561
15295992 7 17821730576162439184
17357779 13 11671778247769945099
18186145 218 18335693958008633526
18219364 16 17968363572867146133
20261772 1 18113614569255175476
20510252 161 18120934168611917847
20671657 1 18195806271893716967
21250096 35 9079113350143623037
21524375 3 18341613694300443671
22182937 141 18336269045376343267
235170 7 15482672402963530469
23557571 272 18058156413757000922
23558518 356 17825107262149527906
23559900 14 18130783469825814002
2637199 183 18341340980888198711
46194498 28 13973379371705779193
474 4 18337391548227636273
5104073 3 18115575089156554504
6328613 192 18410581708531888788
7164475 11 18197218259355608614
7832392 63 18409441501376462982

> <PUBCHEM_SHAPE_MULTIPOLES>
378.15
9.5
3.06
1.52
0.11
1.17
0.36
-5.88
0.32
0.99
0.35
0.47
-0.49
-1.38

> <PUBCHEM_SHAPE_SELFOVERLAP>
721.556

> <PUBCHEM_SHAPE_VOLUME>
231.8

> <PUBCHEM_COORDINATE_TYPE>
2
5
10

$$$$
