11779021
  -OEChem-03292013303D

 34 36  0     1  0  0  0  0  0999 V2000
    1.4140    0.8641    1.2077 O   0  0  0  0  0  0  0  0  0  0  0  0
    3.0970   -1.6826    1.1289 O   0  0  0  0  0  0  0  0  0  0  0  0
    1.0202   -2.2294   -0.5572 O   0  0  0  0  0  0  0  0  0  0  0  0
    3.0081    3.0498    0.5911 O   0  0  0  0  0  0  0  0  0  0  0  0
   -0.6846    0.3438    0.2261 N   0  0  0  0  0  0  0  0  0  0  0  0
   -2.1483    1.7860   -0.6425 N   0  0  0  0  0  0  0  0  0  0  0  0
   -2.1741   -1.5099    0.7233 N   0  0  0  0  0  0  0  0  0  0  0  0
   -4.4735   -0.9965    0.0867 N   0  0  0  0  0  0  0  0  0  0  0  0
   -5.0977    1.0928   -0.8995 N   0  0  0  0  0  0  0  0  0  0  0  0
    2.8308   -0.7148    0.1112 C   0  0  1  0  0  0  0  0  0  0  0  0
    1.4076   -0.8750   -0.4080 C   0  0  2  0  0  0  0  0  0  0  0  0
    0.5942   -0.1966    0.6856 C   0  0  1  0  0  0  0  0  0  0  0  0
    2.7802    0.6778    0.7575 C   0  0  1  0  0  0  0  0  0  0  0  0
    3.1128    1.8532   -0.1579 C   0  0  0  0  0  0  0  0  0  0  0  0
    3.8406   -0.8632   -0.9398 C   0  0  0  0  0  0  0  0  0  0  0  0
   -1.9001   -0.2803    0.2621 C   0  0  0  0  0  0  0  0  0  0  0  0
   -0.8867    1.5824   -0.3253 C   0  0  0  0  0  0  0  0  0  0  0  0
   -2.7929    0.6298   -0.2808 C   0  0  0  0  0  0  0  0  0  0  0  0
   -4.1242    0.2336   -0.3611 C   0  0  0  0  0  0  0  0  0  0  0  0
    4.6676   -0.9847   -1.8014 C   0  0  0  0  0  0  0  0  0  0  0  0
   -3.4912   -1.7802    0.5937 C   0  0  0  0  0  0  0  0  0  0  0  0
    1.2731   -0.3694   -1.3725 H   0  0  0  0  0  0  0  0  0  0  0  0
    0.3682   -0.8771    1.5156 H   0  0  0  0  0  0  0  0  0  0  0  0
    3.4050    0.7317    1.6572 H   0  0  0  0  0  0  0  0  0  0  0  0
    2.4221    1.9249   -1.0039 H   0  0  0  0  0  0  0  0  0  0  0  0
    4.1360    1.7946   -0.5383 H   0  0  0  0  0  0  0  0  0  0  0  0
    3.9666   -1.4826    1.5163 H   0  0  0  0  0  0  0  0  0  0  0  0
    1.2007   -2.6873    0.2814 H   0  0  0  0  0  0  0  0  0  0  0  0
   -0.0852    2.2922   -0.4768 H   0  0  0  0  0  0  0  0  0  0  0  0
    2.0983    3.1055    0.9300 H   0  0  0  0  0  0  0  0  0  0  0  0
    5.4012   -1.0920   -2.5658 H   0  0  0  0  0  0  0  0  0  0  0  0
   -3.8066   -2.7577    0.9424 H   0  0  0  0  0  0  0  0  0  0  0  0
   -4.8393    2.0108   -1.2354 H   0  0  0  0  0  0  0  0  0  0  0  0
   -6.0582    0.7815   -0.9481 H   0  0  0  0  0  0  0  0  0  0  0  0
  1 12  1  0  0  0  0
  1 13  1  0  0  0  0
  2 10  1  0  0  0  0
  2 27  1  0  0  0  0
  3 11  1  0  0  0  0
  3 28  1  0  0  0  0
  4 14  1  0  0  0  0
  4 30  1  0  0  0  0
  5 12  1  0  0  0  0
  5 16  1  0  0  0  0
  5 17  1  0  0  0  0
  6 17  2  0  0  0  0
  6 18  1  0  0  0  0
  7 16  2  0  0  0  0
  7 21  1  0  0  0  0
  8 19  1  0  0  0  0
  8 21  2  0  0  0  0
  9 19  1  0  0  0  0
  9 33  1  0  0  0  0
  9 34  1  0  0  0  0
 10 11  1  0  0  0  0
 10 13  1  0  0  0  0
 10 15  1  0  0  0  0
 11 12  1  0  0  0  0
 11 22  1  0  0  0  0
 12 23  1  0  0  0  0
 13 14  1  0  0  0  0
 13 24  1  0  0  0  0
 14 25  1  0  0  0  0
 14 26  1  0  0  0  0
 15 20  3  0  0  0  0
 16 18  1  0  0  0  0
 17 29  1  0  0  0  0
 18 19  2  0  0  0  0
 20 31  1  0  0  0  0
 21 32  1  0  0  0  0
M  END
> <PUBCHEM_COMPOUND_CID>
11779021

> <PUBCHEM_CONFORMER_RMSD>
0.6

> <PUBCHEM_CONFORMER_DIVERSEORDER>
1
9
6
5
10
11
2
3
7
12
8
4

> <PUBCHEM_MMFF94_PARTIAL_CHARGES>
29
1 -0.56
10 0.48
11 0.28
12 0.54
13 0.28
14 0.28
15 -0.2
16 0.11
17 0.04
18 0.23
19 0.41
2 -0.68
20 -0.18
21 0.47
27 0.4
28 0.4
29 0.15
3 -0.68
30 0.4
31 0.18
32 0.15
33 0.4
34 0.4
4 -0.68
5 0.05
6 -0.57
7 -0.57
8 -0.62
9 -0.9

> <PUBCHEM_EFFECTIVE_ROTOR_COUNT>
3

> <PUBCHEM_PHARMACOPHORE_FEATURES>
16
1 1 acceptor
1 2 acceptor
1 2 donor
1 20 hydrophobe
1 3 acceptor
1 3 donor
1 4 acceptor
1 4 donor
1 9 cation
1 9 donor
3 5 6 17 cation
3 5 7 16 cation
3 7 8 21 cation
5 1 10 11 12 13 rings
5 5 6 16 17 18 rings
6 7 8 16 18 19 21 rings

> <PUBCHEM_HEAVY_ATOM_COUNT>
21

> <PUBCHEM_ATOM_DEF_STEREO_COUNT>
4

> <PUBCHEM_ATOM_UDEF_STEREO_COUNT>
0

> <PUBCHEM_BOND_DEF_STEREO_COUNT>
0

> <PUBCHEM_BOND_UDEF_STEREO_COUNT>
0

> <PUBCHEM_ISOTOPIC_ATOM_COUNT>
0

> <PUBCHEM_COMPONENT_COUNT>
1

> <PUBCHEM_CACTVS_TAUTO_COUNT>
3

> <PUBCHEM_CONFORMER_ID>
00B3BBCD00000001

> <PUBCHEM_MMFF94_ENERGY>
50.0468

> <PUBCHEM_FEATURE_SELFOVERLAP>
81.818

> <PUBCHEM_SHAPE_FINGERPRINT>
10366900 7 18410858724504059295
10498660 4 18186518812900211213
10608611 8 18408597063440233089
10759866 29 17967537835371958138
11578080 2 15122361222643737899
11615757 297 17918278653400208667
12236239 1 16515687719090463239
12633257 1 18338798892772079865
13224815 77 18411699910981143355
13296908 3 18335698373235117659
15196674 1 18408318917416273379
15219456 202 18411134770694608505
15375358 24 18336256916773548251
15375462 6 18335137635100137392
15536298 74 18409449227727378605
16945 1 18267587905671200328
1813 80 15482684442215381088
18186145 218 18411703170745224760
19784866 240 16200433528897447404
200 152 17418370268936586491
20645477 70 18201717374915452030
20871999 31 18335992951872250820
221490 88 18411426137107797186
22393880 68 18408324401631035902
23402539 116 18040992925583438759
23557571 272 18189056558677689673
23559900 14 18409159996229310738
2748010 2 18411411851951651112
2871803 45 18408885144013334883
3060560 45 18272088267157253398
312423 11 17774737414567933944
3286 77 18187355494441956710
4280585 95 17401778415363177022
474 4 15647919122425188822
495365 180 18058993056427731049
5104073 3 18335136510119517033
5281201 14 18341618126474727500
633830 44 18341323444705391551
7364860 26 18343021133835651952
9709674 26 18336546135302130011

> <PUBCHEM_SHAPE_MULTIPOLES>
383.79
9.34
2.28
1.1
3.83
0.8
0.14
-0.86
2.63
-1.05
-0.16
-0.9
-0.16
1.4

> <PUBCHEM_SHAPE_SELFOVERLAP>
836.259

> <PUBCHEM_SHAPE_VOLUME>
204.9

> <PUBCHEM_COORDINATE_TYPE>
2
5
10

$$$$
