11778706
  -OEChem-03292013303D

 31 33  0     1  0  0  0  0  0999 V2000
    0.4055   -3.6314   -0.3808 Cl  0  0  0  0  0  0  0  0  0  0  0  0
   -1.7243    0.2223   -0.9337 O   0  0  0  0  0  0  0  0  0  0  0  0
   -4.1504   -1.3397    0.1640 O   0  0  0  0  0  0  0  0  0  0  0  0
   -2.2938    2.9512   -0.7240 O   0  0  0  0  0  0  0  0  0  0  0  0
    0.1818   -0.9689   -0.1752 N   0  0  0  0  0  0  0  0  0  0  0  0
    2.2875   -1.7159   -0.1095 N   0  0  0  0  0  0  0  0  0  0  0  0
    0.5873    1.4166    0.0493 N   0  0  0  0  0  0  0  0  0  0  0  0
    2.9717    1.9027    0.2345 N   0  0  0  0  0  0  0  0  0  0  0  0
    4.6398    0.1871    0.1898 N   0  0  0  0  0  0  0  0  0  0  0  0
   -1.2740   -0.9658   -0.2600 C   0  0  1  0  0  0  0  0  0  0  0  0
   -3.3054   -0.3541    0.7538 C   0  0  1  0  0  0  0  0  0  0  0  0
   -1.9798   -0.9994    1.0879 C   0  0  0  0  0  0  0  0  0  0  0  0
   -2.9303    0.6896   -0.2930 C   0  0  1  0  0  0  0  0  0  0  0  0
   -2.6420    2.0547    0.3163 C   0  0  0  0  0  0  0  0  0  0  0  0
    0.9785    0.1361   -0.0344 C   0  0  0  0  0  0  0  0  0  0  0  0
    1.0200   -2.0564   -0.2146 C   0  0  0  0  0  0  0  0  0  0  0  0
    2.2762   -0.3483    0.0036 C   0  0  0  0  0  0  0  0  0  0  0  0
    3.2939    0.5898    0.1437 C   0  0  0  0  0  0  0  0  0  0  0  0
    1.6578    2.2297    0.1824 C   0  0  0  0  0  0  0  0  0  0  0  0
   -1.5758   -1.8072   -0.8924 H   0  0  0  0  0  0  0  0  0  0  0  0
   -3.8261    0.0525    1.6246 H   0  0  0  0  0  0  0  0  0  0  0  0
   -1.4428   -0.3918    1.8259 H   0  0  0  0  0  0  0  0  0  0  0  0
   -2.0656   -2.0197    1.4740 H   0  0  0  0  0  0  0  0  0  0  0  0
   -3.6907    0.7831   -1.0767 H   0  0  0  0  0  0  0  0  0  0  0  0
   -1.8123    2.0167    1.0276 H   0  0  0  0  0  0  0  0  0  0  0  0
   -3.5284    2.4435    0.8275 H   0  0  0  0  0  0  0  0  0  0  0  0
   -3.7761   -1.6059   -0.6922 H   0  0  0  0  0  0  0  0  0  0  0  0
   -2.1169    3.8139   -0.3117 H   0  0  0  0  0  0  0  0  0  0  0  0
    1.4361    3.2889    0.2579 H   0  0  0  0  0  0  0  0  0  0  0  0
    4.8827   -0.7919    0.1213 H   0  0  0  0  0  0  0  0  0  0  0  0
    5.3614    0.8877    0.2912 H   0  0  0  0  0  0  0  0  0  0  0  0
  1 16  1  0  0  0  0
  2 10  1  0  0  0  0
  2 13  1  0  0  0  0
  3 11  1  0  0  0  0
  3 27  1  0  0  0  0
  4 14  1  0  0  0  0
  4 28  1  0  0  0  0
  5 10  1  0  0  0  0
  5 15  1  0  0  0  0
  5 16  1  0  0  0  0
  6 16  2  0  0  0  0
  6 17  1  0  0  0  0
  7 15  2  0  0  0  0
  7 19  1  0  0  0  0
  8 18  1  0  0  0  0
  8 19  2  0  0  0  0
  9 18  1  0  0  0  0
  9 30  1  0  0  0  0
  9 31  1  0  0  0  0
 10 12  1  0  0  0  0
 10 20  1  0  0  0  0
 11 12  1  0  0  0  0
 11 13  1  0  0  0  0
 11 21  1  0  0  0  0
 12 22  1  0  0  0  0
 12 23  1  0  0  0  0
 13 14  1  0  0  0  0
 13 24  1  0  0  0  0
 14 25  1  0  0  0  0
 14 26  1  0  0  0  0
 15 17  1  0  0  0  0
 17 18  2  0  0  0  0
 19 29  1  0  0  0  0
M  END
> <PUBCHEM_COMPOUND_CID>
11778706

> <PUBCHEM_CONFORMER_RMSD>
0.6

> <PUBCHEM_CONFORMER_DIVERSEORDER>
1
9
14
12
10
13
6
11
4
5
2
8
3
7

> <PUBCHEM_MMFF94_PARTIAL_CHARGES>
23
1 -0.12
10 0.54
11 0.28
13 0.28
14 0.28
15 0.11
16 0.31
17 0.23
18 0.41
19 0.47
2 -0.56
27 0.4
28 0.4
29 0.15
3 -0.68
30 0.4
31 0.4
4 -0.68
5 0.05
6 -0.57
7 -0.57
8 -0.62
9 -0.9

> <PUBCHEM_EFFECTIVE_ROTOR_COUNT>
3

> <PUBCHEM_PHARMACOPHORE_FEATURES>
13
1 2 acceptor
1 3 acceptor
1 3 donor
1 4 acceptor
1 4 donor
1 9 cation
1 9 donor
3 5 6 16 cation
3 5 7 15 cation
3 7 8 19 cation
5 2 10 11 12 13 rings
5 5 6 15 16 17 rings
6 7 8 15 17 18 19 rings

> <PUBCHEM_HEAVY_ATOM_COUNT>
19

> <PUBCHEM_ATOM_DEF_STEREO_COUNT>
3

> <PUBCHEM_ATOM_UDEF_STEREO_COUNT>
0

> <PUBCHEM_BOND_DEF_STEREO_COUNT>
0

> <PUBCHEM_BOND_UDEF_STEREO_COUNT>
0

> <PUBCHEM_ISOTOPIC_ATOM_COUNT>
0

> <PUBCHEM_COMPONENT_COUNT>
1

> <PUBCHEM_CACTVS_TAUTO_COUNT>
3

> <PUBCHEM_CONFORMER_ID>
00B3BA9200000001

> <PUBCHEM_MMFF94_ENERGY>
43.2249

> <PUBCHEM_FEATURE_SELFOVERLAP>
66.58

> <PUBCHEM_SHAPE_FINGERPRINT>
10366900 7 18187936126290556275
10608611 8 18337110060191989421
10967382 1 18267304407448362442
10980938 120 18412267216068540434
11680986 33 18052256194075924578
12403259 226 18340766064960634136
12403260 363 18338507633786060986
13140716 1 17978788235910005146
13583140 156 17097462501638799352
14223421 5 18409735023820600865
14648413 74 18194120711867138251
14790565 3 18410582777883799828
15042514 8 18121780788186182530
15196674 1 18411138026396110144
15219456 202 18337112267578423667
15309172 13 18340491157068280563
15375462 6 18411139138934980231
15442244 35 18051975818325927281
15775835 57 18059580251392247769
16945 1 18339356487096519958
17802600 8 18412260674748939713
18186145 218 18131361803745505950
19049666 15 18190467043402291323
19591789 44 18411420588199974374
200 152 18201147841452386215
20510252 161 18343022228551120377
21501502 16 18336548209781721001
21524375 3 18201158866101055142
2334 1 18411699842340735910
23402539 116 18339354279678723095
23419403 2 15897796007163970066
23558518 356 18187653445008257945
23559900 14 18266453217918385075
238 59 18195498507368804013
2748010 2 18339925896638543574
350125 39 18410579517143629657
7364860 26 18268713800988105150
7832392 63 18053101727139345417
81228 2 17405129107753606690
8809292 202 18118127969791946624
9709674 26 18409733924277733819

> <PUBCHEM_SHAPE_MULTIPOLES>
350.37
6.36
3.26
0.78
0.48
0.96
-0.04
-1.71
-0.75
0
0.45
-0.37
0.02
0.58

> <PUBCHEM_SHAPE_SELFOVERLAP>
753.406

> <PUBCHEM_SHAPE_VOLUME>
193.9

> <PUBCHEM_COORDINATE_TYPE>
2
5
10

$$$$
