117762967
  -OEChem-03292013293D

 27 27  0     0  0  0  0  0  0999 V2000
    1.3771    0.6693    1.3143 O   0  0  0  0  0  0  0  0  0  0  0  0
   -1.4920    0.4054    1.3168 O   0  0  0  0  0  0  0  0  0  0  0  0
    0.2490   -2.6026   -1.3585 O   0  0  0  0  0  0  0  0  0  0  0  0
    3.1702    2.1665    0.2273 O   0  0  0  0  0  0  0  0  0  0  0  0
   -3.5054    1.6000    0.2437 O   0  0  0  0  0  0  0  0  0  0  0  0
    0.3726   -3.2810    1.0581 O   0  0  0  0  0  0  0  0  0  0  0  0
    0.1257   -1.4647   -0.5015 C   0  0  0  0  0  0  0  0  0  0  0  0
    1.1967    0.8251   -0.0873 C   0  0  0  0  0  0  0  0  0  0  0  0
   -1.3452    0.5911   -0.0853 C   0  0  0  0  0  0  0  0  0  0  0  0
    1.3188   -0.5409   -0.7702 C   0  0  0  0  0  0  0  0  0  0  0  0
   -0.1470    1.4970   -0.3956 C   0  0  0  0  0  0  0  0  0  0  0  0
   -1.2177   -0.7747   -0.7676 C   0  0  0  0  0  0  0  0  0  0  0  0
   -2.6104    1.2700   -0.5273 C   0  0  0  0  0  0  0  0  0  0  0  0
    2.3161    1.7228   -0.5328 C   0  0  0  0  0  0  0  0  0  0  0  0
    0.1914   -2.0832    0.8658 C   0  0  0  0  0  0  0  0  0  0  0  0
    2.2456   -1.0389   -0.4516 H   0  0  0  0  0  0  0  0  0  0  0  0
    1.4227   -0.4041   -1.8560 H   0  0  0  0  0  0  0  0  0  0  0  0
   -0.1764    1.8029   -1.4503 H   0  0  0  0  0  0  0  0  0  0  0  0
   -0.2310    2.4145    0.2033 H   0  0  0  0  0  0  0  0  0  0  0  0
   -2.0337   -1.4373   -0.4469 H   0  0  0  0  0  0  0  0  0  0  0  0
   -1.3465   -0.6617   -1.8533 H   0  0  0  0  0  0  0  0  0  0  0  0
   -2.7010    1.4706   -1.6092 H   0  0  0  0  0  0  0  0  0  0  0  0
    0.0813   -1.4124    1.7296 H   0  0  0  0  0  0  0  0  0  0  0  0
    2.3411    1.9697   -1.6086 H   0  0  0  0  0  0  0  0  0  0  0  0
   -2.2156   -0.2263    1.4694 H   0  0  0  0  0  0  0  0  0  0  0  0
    1.1510   -2.9566   -1.2720 H   0  0  0  0  0  0  0  0  0  0  0  0
    2.2029    0.1782    1.4657 H   0  0  0  0  0  0  0  0  0  0  0  0
  1  8  1  0  0  0  0
  1 27  1  0  0  0  0
  2  9  1  0  0  0  0
  2 25  1  0  0  0  0
  3  7  1  0  0  0  0
  3 26  1  0  0  0  0
  4 14  2  0  0  0  0
  5 13  2  0  0  0  0
  6 15  2  0  0  0  0
  7 10  1  0  0  0  0
  7 12  1  0  0  0  0
  7 15  1  0  0  0  0
  8 10  1  0  0  0  0
  8 11  1  0  0  0  0
  8 14  1  0  0  0  0
  9 11  1  0  0  0  0
  9 12  1  0  0  0  0
  9 13  1  0  0  0  0
 10 16  1  0  0  0  0
 10 17  1  0  0  0  0
 11 18  1  0  0  0  0
 11 19  1  0  0  0  0
 12 20  1  0  0  0  0
 12 21  1  0  0  0  0
 13 22  1  0  0  0  0
 14 24  1  0  0  0  0
 15 23  1  0  0  0  0
M  END
> <PUBCHEM_COMPOUND_CID>
117762967

> <PUBCHEM_CONFORMER_RMSD>
0.6

> <PUBCHEM_CONFORMER_DIVERSEORDER>
1
15
17
18
11
13
14
4
8
2
16
12
3
10
5
7
9
6

> <PUBCHEM_MMFF94_PARTIAL_CHARGES>
18
1 -0.68
13 0.45
14 0.45
15 0.45
2 -0.68
22 0.06
23 0.06
24 0.06
25 0.4
26 0.4
27 0.4
3 -0.68
4 -0.57
5 -0.57
6 -0.57
7 0.34
8 0.34
9 0.34

> <PUBCHEM_EFFECTIVE_ROTOR_COUNT>
4.2

> <PUBCHEM_PHARMACOPHORE_FEATURES>
10
1 1 acceptor
1 1 donor
1 2 acceptor
1 2 donor
1 3 acceptor
1 3 donor
1 4 acceptor
1 5 acceptor
1 6 acceptor
6 7 8 9 10 11 12 rings

> <PUBCHEM_HEAVY_ATOM_COUNT>
15

> <PUBCHEM_ATOM_DEF_STEREO_COUNT>
0

> <PUBCHEM_ATOM_UDEF_STEREO_COUNT>
0

> <PUBCHEM_BOND_DEF_STEREO_COUNT>
0

> <PUBCHEM_BOND_UDEF_STEREO_COUNT>
0

> <PUBCHEM_ISOTOPIC_ATOM_COUNT>
0

> <PUBCHEM_COMPONENT_COUNT>
1

> <PUBCHEM_CACTVS_TAUTO_COUNT>
1

> <PUBCHEM_CONFORMER_ID>
0704EB9700000001

> <PUBCHEM_MMFF94_ENERGY>
30.8551

> <PUBCHEM_FEATURE_SELFOVERLAP>
50.798

> <PUBCHEM_SHAPE_FINGERPRINT>
1 1 18337107865221134260
10702982 57 18262792003359737192
11129358 1 17406827861665640770
11357001 24 17831016093576947976
12138202 97 18128824234003801092
12326174 3 18195531380800638551
12423570 1 17979609291812322437
12532896 13 18338517555229268524
13024252 1 15649559675066959188
14181834 199 17695591131848073301
14817 1 17829072122395778678
15906896 17 18121778593188394670
16945 1 17985289390171497316
20645476 183 17968955204759973500
20645477 70 18268708308568757885
20711985 344 17763448909195132834
20871998 184 17836941357301588764
21524375 3 18412256268038712485
22344851 341 18411700971912113355
2334 1 18339360871883667445
23419403 2 17476981939072593430
241688 4 17115513935207961633
25 1 18343030960172283652
257057 1 17253702785885917879
2748010 2 18339096963338930837
305870 269 18334850602219669236
3071541 236 18048298222619658952
430814 3 18261663857005741720
528862 383 18195521498249604589
7364860 26 18198060266145111525
81228 2 17834387204564559353
81539 233 18334009471998997453

> <PUBCHEM_SHAPE_MULTIPOLES>
273.48
3.42
3.09
1.14
0.82
2.39
0.12
-3.66
0.13
-0.73
0.24
-0.04
0.47
-0.03

> <PUBCHEM_SHAPE_SELFOVERLAP>
567.509

> <PUBCHEM_SHAPE_VOLUME>
152.5

> <PUBCHEM_COORDINATE_TYPE>
2
5
10

$$$$
