11777784
  -OEChem-03292013303D

 35 36  0     1  0  0  0  0  0999 V2000
   -2.9483    1.0983   -0.5477 O   0  0  0  0  0  0  0  0  0  0  0  0
   -1.6056    2.5621    0.7256 O   0  0  0  0  0  0  0  0  0  0  0  0
    1.1029    2.3898   -0.3476 O   0  0  0  0  0  0  0  0  0  0  0  0
    2.5518   -2.1157    0.2677 O   0  0  0  0  0  0  0  0  0  0  0  0
    4.0477   -0.1762    0.7430 O   0  0  0  0  0  0  0  0  0  0  0  0
    3.6342    1.5771   -0.6265 O   0  0  0  0  0  0  0  0  0  0  0  0
   -2.2629   -1.2006   -0.1375 C   0  0  2  0  0  0  0  0  0  0  0  0
   -3.2311   -0.0632    0.2365 C   0  0  1  0  0  0  0  0  0  0  0  0
   -0.8290   -0.7235   -0.0800 C   0  0  0  0  0  0  0  0  0  0  0  0
   -0.5363    0.6431   -0.2222 C   0  0  0  0  0  0  0  0  0  0  0  0
   -1.6432    1.6611   -0.3790 C   0  0  1  0  0  0  0  0  0  0  0  0
    0.2170   -1.6439    0.0841 C   0  0  0  0  0  0  0  0  0  0  0  0
   -2.5645   -1.7272   -1.5471 C   0  0  0  0  0  0  0  0  0  0  0  0
   -3.2721    0.2363    1.7361 C   0  0  0  0  0  0  0  0  0  0  0  0
    0.8019    1.0649   -0.2013 C   0  0  0  0  0  0  0  0  0  0  0  0
    1.5422   -1.2114    0.1070 C   0  0  0  0  0  0  0  0  0  0  0  0
    1.8347    0.1420   -0.0373 C   0  0  0  0  0  0  0  0  0  0  0  0
   -0.0612   -3.1069    0.2448 C   0  0  0  0  0  0  0  0  0  0  0  0
    3.2218    0.5942   -0.0189 C   0  0  0  0  0  0  0  0  0  0  0  0
   -2.4388   -2.0097    0.5788 H   0  0  0  0  0  0  0  0  0  0  0  0
   -4.2484   -0.3659   -0.0417 H   0  0  0  0  0  0  0  0  0  0  0  0
   -1.4573    2.2526   -1.2818 H   0  0  0  0  0  0  0  0  0  0  0  0
   -2.4280   -0.9484   -2.3065 H   0  0  0  0  0  0  0  0  0  0  0  0
   -1.9244   -2.5670   -1.8282 H   0  0  0  0  0  0  0  0  0  0  0  0
   -3.6014   -2.0752   -1.6111 H   0  0  0  0  0  0  0  0  0  0  0  0
   -3.7109   -0.6058    2.2815 H   0  0  0  0  0  0  0  0  0  0  0  0
   -2.2793    0.4129    2.1584 H   0  0  0  0  0  0  0  0  0  0  0  0
   -3.8743    1.1294    1.9325 H   0  0  0  0  0  0  0  0  0  0  0  0
   -0.8459   -3.2913    0.9839 H   0  0  0  0  0  0  0  0  0  0  0  0
   -0.3377   -3.5582   -0.7114 H   0  0  0  0  0  0  0  0  0  0  0  0
    0.8067   -3.6620    0.6165 H   0  0  0  0  0  0  0  0  0  0  0  0
   -1.1459    2.1464    1.4735 H   0  0  0  0  0  0  0  0  0  0  0  0
    2.0440    2.5573   -0.1848 H   0  0  0  0  0  0  0  0  0  0  0  0
    3.3988   -1.7379   -0.0166 H   0  0  0  0  0  0  0  0  0  0  0  0
    4.9703    0.1571    0.7316 H   0  0  0  0  0  0  0  0  0  0  0  0
  1  8  1  0  0  0  0
  1 11  1  0  0  0  0
  2 11  1  0  0  0  0
  2 32  1  0  0  0  0
  3 15  1  0  0  0  0
  3 33  1  0  0  0  0
  4 16  1  0  0  0  0
  4 34  1  0  0  0  0
  5 19  1  0  0  0  0
  5 35  1  0  0  0  0
  6 19  2  0  0  0  0
  7  8  1  0  0  0  0
  7  9  1  0  0  0  0
  7 13  1  0  0  0  0
  7 20  1  0  0  0  0
  8 14  1  0  0  0  0
  8 21  1  0  0  0  0
  9 10  1  0  0  0  0
  9 12  2  0  0  0  0
 10 11  1  0  0  0  0
 10 15  2  0  0  0  0
 11 22  1  0  0  0  0
 12 16  1  0  0  0  0
 12 18  1  0  0  0  0
 13 23  1  0  0  0  0
 13 24  1  0  0  0  0
 13 25  1  0  0  0  0
 14 26  1  0  0  0  0
 14 27  1  0  0  0  0
 14 28  1  0  0  0  0
 15 17  1  0  0  0  0
 16 17  2  0  0  0  0
 17 19  1  0  0  0  0
 18 29  1  0  0  0  0
 18 30  1  0  0  0  0
 18 31  1  0  0  0  0
M  END
> <PUBCHEM_COMPOUND_CID>
11777784

> <PUBCHEM_CONFORMER_RMSD>
0.6

> <PUBCHEM_CONFORMER_DIVERSEORDER>
2
3
1

> <PUBCHEM_MMFF94_PARTIAL_CHARGES>
21
1 -0.56
10 -0.14
11 0.7
12 -0.14
15 0.08
16 0.08
17 0.09
18 0.14
19 0.63
2 -0.68
3 -0.53
32 0.4
33 0.45
34 0.45
35 0.5
4 -0.53
5 -0.65
6 -0.57
7 0.14
8 0.28
9 -0.14

> <PUBCHEM_EFFECTIVE_ROTOR_COUNT>
1.8

> <PUBCHEM_PHARMACOPHORE_FEATURES>
10
1 1 acceptor
1 2 acceptor
1 2 donor
1 3 donor
1 4 donor
1 5 acceptor
1 6 acceptor
3 5 6 19 anion
6 1 7 8 9 10 11 rings
6 9 10 12 15 16 17 rings

> <PUBCHEM_HEAVY_ATOM_COUNT>
19

> <PUBCHEM_ATOM_DEF_STEREO_COUNT>
2

> <PUBCHEM_ATOM_UDEF_STEREO_COUNT>
1

> <PUBCHEM_BOND_DEF_STEREO_COUNT>
0

> <PUBCHEM_BOND_UDEF_STEREO_COUNT>
0

> <PUBCHEM_ISOTOPIC_ATOM_COUNT>
0

> <PUBCHEM_COMPONENT_COUNT>
1

> <PUBCHEM_CACTVS_TAUTO_COUNT>
25

> <PUBCHEM_CONFORMER_ID>
00B3B6F800000002

> <PUBCHEM_MMFF94_ENERGY>
63.353

> <PUBCHEM_FEATURE_SELFOVERLAP>
50.869

> <PUBCHEM_SHAPE_FINGERPRINT>
10062212 137 18337658789292597738
10411042 1 17328586636447149114
10967382 1 18409448089597715078
11132069 177 18413099559403114968
11471102 22 18187944871002057699
11680986 33 17905045854787163435
12382932 28 18410860996404498475
12423570 1 8138768112225999629
12553582 1 18337954605317947676
13140716 1 17976823404288638482
13172582 1 18337111262545403611
13221675 6 18410859879649561398
13583140 156 16371551739304910720
14144814 61 18336543919019792962
14614273 12 18115298973834779317
14790565 3 18192735507431525205
15196674 1 18409165523656996310
15209294 21 18059860562422298248
15309172 13 18410299115971656955
15442244 35 18266455395878501146
15536298 74 18342736265776618766
15775835 57 18272094898248914043
16945 1 18336263564961039790
18186145 218 18272660008655430614
193761 8 17832983841375464006
200 152 18270103721561976039
20510252 161 18342458183481187344
20525323 117 18409444782435882919
21267235 1 18409736148817631054
21501502 16 18411411791663840470
2334 1 18409164381464863830
23388829 49 18410289237462571037
23402539 116 18341037597578697510
23463225 33 18334289830225870298
23493267 7 17168410623903708217
23559900 14 18055069866603507270
2748010 2 18264488377928746942
335352 9 17833265316373332534
34934 24 18411974754707826989
63268167 104 18411980252181478955
7364860 26 18125156031127199878
90525 40 18200591380741005039

> <PUBCHEM_SHAPE_MULTIPOLES>
355.8
5.67
2.78
1
2.51
0.58
-0.09
-0.94
-0.59
-0.02
0.07
-0.83
0.07
-0.79

> <PUBCHEM_SHAPE_SELFOVERLAP>
768.724

> <PUBCHEM_SHAPE_VOLUME>
192.6

> <PUBCHEM_COORDINATE_TYPE>
2
5
10

$$$$
