117831302
  -OEChem-03292013293D

 33 32  0     1  0  0  0  0  0999 V2000
    0.6624   -0.4789    0.2496 O   0  0  0  0  0  0  0  0  0  0  0  0
   -1.6105    0.3617    1.4295 O   0  0  0  0  0  0  0  0  0  0  0  0
    0.4752    2.1165    1.3935 O   0  0  0  0  0  0  0  0  0  0  0  0
   -1.7787   -1.8402   -0.3779 O   0  0  0  0  0  0  0  0  0  0  0  0
    1.0674    4.1688   -0.6656 O   0  0  0  0  0  0  0  0  0  0  0  0
   -4.3051   -1.5960    0.4232 O   0  0  0  0  0  0  0  0  0  0  0  0
    3.9378   -1.8188   -0.3664 O   0  0  0  0  0  0  0  0  0  0  0  0
    2.7973   -1.4411    1.5594 O   0  0  0  0  0  0  0  0  0  0  0  0
   -0.0592    0.5856   -0.3792 C   0  0  1  0  0  0  0  0  0  0  0  0
   -1.5470    0.5106    0.0058 C   0  0  1  0  0  0  0  0  0  0  0  0
    0.6525    1.8965   -0.0136 C   0  0  1  0  0  0  0  0  0  0  0  0
   -2.3853   -0.5850   -0.6663 C   0  0  2  0  0  0  0  0  0  0  0  0
    0.1002    3.1241   -0.7300 C   0  0  0  0  0  0  0  0  0  0  0  0
    1.7364   -0.9192   -0.5639 C   0  0  2  0  0  0  0  0  0  0  0  0
   -3.8190   -0.6447   -0.1807 C   0  0  0  0  0  0  0  0  0  0  0  0
    1.2227   -2.0368   -1.4546 C   0  0  0  0  0  0  0  0  0  0  0  0
    2.8532   -1.4032    0.3372 C   0  0  0  0  0  0  0  0  0  0  0  0
   -0.0143    0.4799   -1.4720 H   0  0  0  0  0  0  0  0  0  0  0  0
   -2.0256    1.4680   -0.2310 H   0  0  0  0  0  0  0  0  0  0  0  0
    1.7330    1.8184   -0.1742 H   0  0  0  0  0  0  0  0  0  0  0  0
   -2.3968   -0.4558   -1.7528 H   0  0  0  0  0  0  0  0  0  0  0  0
   -0.8203    3.4914   -0.2657 H   0  0  0  0  0  0  0  0  0  0  0  0
   -0.0795    2.9114   -1.7883 H   0  0  0  0  0  0  0  0  0  0  0  0
    2.1537   -0.1043   -1.1677 H   0  0  0  0  0  0  0  0  0  0  0  0
   -2.5325    0.5017    1.7033 H   0  0  0  0  0  0  0  0  0  0  0  0
    0.9414    2.9395    1.6200 H   0  0  0  0  0  0  0  0  0  0  0  0
   -4.4296    0.2455   -0.4108 H   0  0  0  0  0  0  0  0  0  0  0  0
    0.8277   -2.8643   -0.8542 H   0  0  0  0  0  0  0  0  0  0  0  0
    2.0175   -2.4378   -2.0920 H   0  0  0  0  0  0  0  0  0  0  0  0
    0.4113   -1.6948   -2.1043 H   0  0  0  0  0  0  0  0  0  0  0  0
   -1.6897   -1.9145    0.5878 H   0  0  0  0  0  0  0  0  0  0  0  0
    0.6921    4.9334   -1.1347 H   0  0  0  0  0  0  0  0  0  0  0  0
    4.6540   -2.1402    0.2218 H   0  0  0  0  0  0  0  0  0  0  0  0
  1  9  1  0  0  0  0
  1 14  1  0  0  0  0
  2 10  1  0  0  0  0
  2 25  1  0  0  0  0
  3 11  1  0  0  0  0
  3 26  1  0  0  0  0
  4 12  1  0  0  0  0
  4 31  1  0  0  0  0
  5 13  1  0  0  0  0
  5 32  1  0  0  0  0
  6 15  2  0  0  0  0
  7 17  1  0  0  0  0
  7 33  1  0  0  0  0
  8 17  2  0  0  0  0
  9 10  1  0  0  0  0
  9 11  1  0  0  0  0
  9 18  1  0  0  0  0
 10 12  1  0  0  0  0
 10 19  1  0  0  0  0
 11 13  1  0  0  0  0
 11 20  1  0  0  0  0
 12 15  1  0  0  0  0
 12 21  1  0  0  0  0
 13 22  1  0  0  0  0
 13 23  1  0  0  0  0
 14 16  1  0  0  0  0
 14 17  1  0  0  0  0
 14 24  1  0  0  0  0
 15 27  1  0  0  0  0
 16 28  1  0  0  0  0
 16 29  1  0  0  0  0
 16 30  1  0  0  0  0
M  END
> <PUBCHEM_COMPOUND_CID>
117831302

> <PUBCHEM_CONFORMER_RMSD>
0.8

> <PUBCHEM_CONFORMER_DIVERSEORDER>
1
56
63
73
15
62
59
60
20
75
29
46
80
11
58
25
51
27
17
71
26
61
64
74
65
19
72
47
24
35
34
9
68
57
42
50
53
49
55
22
79
54
36
43
33
69
12
4
41
39
21
37
45
10
38
76
66
78
30
5
44
8
6
23
70
77
40
7
13
48
52
14
67
32
3
16
28
18
2
31

> <PUBCHEM_MMFF94_PARTIAL_CHARGES>
22
1 -0.56
10 0.28
11 0.28
12 0.34
13 0.28
14 0.34
15 0.45
17 0.66
2 -0.68
25 0.4
26 0.4
27 0.06
3 -0.68
31 0.4
32 0.4
33 0.5
4 -0.68
5 -0.68
6 -0.57
7 -0.65
8 -0.57
9 0.28

> <PUBCHEM_EFFECTIVE_ROTOR_COUNT>
8

> <PUBCHEM_PHARMACOPHORE_FEATURES>
13
1 1 acceptor
1 2 acceptor
1 2 donor
1 3 acceptor
1 3 donor
1 4 acceptor
1 4 donor
1 5 acceptor
1 5 donor
1 6 acceptor
1 7 acceptor
1 8 acceptor
3 7 8 17 anion

> <PUBCHEM_HEAVY_ATOM_COUNT>
17

> <PUBCHEM_ATOM_DEF_STEREO_COUNT>
5

> <PUBCHEM_ATOM_UDEF_STEREO_COUNT>
0

> <PUBCHEM_BOND_DEF_STEREO_COUNT>
0

> <PUBCHEM_BOND_UDEF_STEREO_COUNT>
0

> <PUBCHEM_ISOTOPIC_ATOM_COUNT>
0

> <PUBCHEM_COMPONENT_COUNT>
1

> <PUBCHEM_CACTVS_TAUTO_COUNT>
1

> <PUBCHEM_CONFORMER_ID>
0705F68600000001

> <PUBCHEM_MMFF94_ENERGY>
34.7564

> <PUBCHEM_FEATURE_SELFOVERLAP>
66.084

> <PUBCHEM_SHAPE_FINGERPRINT>
1 1 17976821213618349909
10989021 7 18411982463857514749
12138202 97 17547001936654145548
12532896 13 17186993199078268340
12592029 89 18046629189685991776
12644460 14 18265911330896053211
14817 1 17108411236258814136
15906896 17 17465955851854175569
16945 1 18046326798402873541
18380122 1 17915728791736525734
20097449 115 18410571764822281189
20361792 2 18410009914406971863
20600515 1 18343028765443781094
20645476 183 17037819703516901436
20645477 70 18266169720851322503
20671657 1 18193563487215749605
20671657 53 18410294705235584971
21029758 27 18411423903371408071
21061003 4 17988633069466830659
21296965 67 18409727335618241887
21426921 1 18048879589994232390
21524375 3 17619067678076521277
22112679 90 18195832711427177804
2255824 54 18267027343624676063
23402539 116 18271233920336073071
23419403 2 17913172495779186889
23532345 88 18196359536890538871
23557571 272 18055073164330561078
23598294 1 18120364363668925578
2748010 2 18268123436300534132
3250762 1 17755312501612009467
458136 41 17760381272043937553
5845 1 18193857949841332021
5902787 121 18408039632641314331
7364860 26 18268712894929067989
81228 2 18053389790416637561
81539 233 17901944471935466373
90316 7 18265044726427711552

> <PUBCHEM_SHAPE_MULTIPOLES>
302.9
5.4
3.67
1.17
2.16
4.84
-0.23
-5.52
-0.66
-1.41
0.93
-0.38
-0.08
-0.06

> <PUBCHEM_SHAPE_SELFOVERLAP>
588.991

> <PUBCHEM_SHAPE_VOLUME>
181.3

> <PUBCHEM_COORDINATE_TYPE>
2
5
10

$$$$
