11794029
  -OEChem-03292013303D

 46 49  0     1  0  0  0  0  0999 V2000
    1.5379    1.1385    0.2334 O   0  0  0  0  0  0  0  0  0  0  0  0
   -0.8410    2.0230    0.1279 O   0  0  0  0  0  0  0  0  0  0  0  0
    4.0962   -2.0165    0.3071 O   0  0  0  0  0  0  0  0  0  0  0  0
   -2.8548   -2.9204   -0.0481 O   0  0  0  0  0  0  0  0  0  0  0  0
    2.4303   -4.1662   -1.1502 O   0  0  0  0  0  0  0  0  0  0  0  0
   -3.1771    3.0655    0.0245 O   0  0  0  0  0  0  0  0  0  0  0  0
    3.3344    2.7389    0.3468 C   0  0  1  0  0  0  0  0  0  0  0  0
    1.0126   -0.1309    0.1871 C   0  0  0  0  0  0  0  0  0  0  0  0
   -0.3856   -0.2864    0.1154 C   0  0  0  0  0  0  0  0  0  0  0  0
    1.8379   -1.2601    0.2100 C   0  0  0  0  0  0  0  0  0  0  0  0
   -0.9284   -1.5771    0.0681 C   0  0  0  0  0  0  0  0  0  0  0  0
    2.9091    1.3051    0.3028 C   0  0  0  0  0  0  0  0  0  0  0  0
    1.2918   -2.5426    0.1629 C   0  0  0  0  0  0  0  0  0  0  0  0
    2.8900    3.5211   -0.9021 C   0  0  0  0  0  0  0  0  0  0  0  0
   -0.0902   -2.6998    0.0921 C   0  0  0  0  0  0  0  0  0  0  0  0
   -1.2984    0.8877    0.0880 C   0  0  0  0  0  0  0  0  0  0  0  0
    3.2986   -1.0892    0.2842 C   0  0  0  0  0  0  0  0  0  0  0  0
   -2.7582    0.6724    0.0109 C   0  0  0  0  0  0  0  0  0  0  0  0
    3.7915    0.2979    0.3303 C   0  0  0  0  0  0  0  0  0  0  0  0
   -2.3894   -1.7879   -0.0079 C   0  0  0  0  0  0  0  0  0  0  0  0
   -3.2845   -0.6176   -0.0355 C   0  0  0  0  0  0  0  0  0  0  0  0
    2.7806    3.3989    1.6107 C   0  0  0  0  0  0  0  0  0  0  0  0
    2.1082   -3.7948    0.1832 C   0  0  0  0  0  0  0  0  0  0  0  0
    3.5051    2.9914   -2.1918 C   0  0  0  0  0  0  0  0  0  0  0  0
   -3.6206    1.7761   -0.0161 C   0  0  0  0  0  0  0  0  0  0  0  0
   -4.6704   -0.8070   -0.1088 C   0  0  0  0  0  0  0  0  0  0  0  0
   -5.0008    1.5847   -0.0895 C   0  0  0  0  0  0  0  0  0  0  0  0
   -5.5248    0.2952   -0.1356 C   0  0  0  0  0  0  0  0  0  0  0  0
    4.4298    2.7992    0.4059 H   0  0  0  0  0  0  0  0  0  0  0  0
    1.7969    3.5148   -0.9971 H   0  0  0  0  0  0  0  0  0  0  0  0
    3.1852    4.5720   -0.7893 H   0  0  0  0  0  0  0  0  0  0  0  0
   -0.5154   -3.7002    0.0510 H   0  0  0  0  0  0  0  0  0  0  0  0
    4.8616    0.4600    0.3847 H   0  0  0  0  0  0  0  0  0  0  0  0
    3.1531    4.4252    1.7024 H   0  0  0  0  0  0  0  0  0  0  0  0
    1.6856    3.4445    1.6033 H   0  0  0  0  0  0  0  0  0  0  0  0
    3.0904    2.8542    2.5098 H   0  0  0  0  0  0  0  0  0  0  0  0
    2.9910   -3.7761    0.8233 H   0  0  0  0  0  0  0  0  0  0  0  0
    1.5057   -4.6122    0.6016 H   0  0  0  0  0  0  0  0  0  0  0  0
    4.5978    2.9785   -2.1292 H   0  0  0  0  0  0  0  0  0  0  0  0
    3.1584    1.9783   -2.4170 H   0  0  0  0  0  0  0  0  0  0  0  0
    3.2223    3.6329   -3.0325 H   0  0  0  0  0  0  0  0  0  0  0  0
   -5.1035   -1.8029   -0.1460 H   0  0  0  0  0  0  0  0  0  0  0  0
   -5.6745    2.4374   -0.1112 H   0  0  0  0  0  0  0  0  0  0  0  0
   -6.5993    0.1474   -0.1926 H   0  0  0  0  0  0  0  0  0  0  0  0
    2.9162   -5.0072   -1.1032 H   0  0  0  0  0  0  0  0  0  0  0  0
   -2.2103    3.0958    0.0745 H   0  0  0  0  0  0  0  0  0  0  0  0
  1  8  1  0  0  0  0
  1 12  1  0  0  0  0
  2 16  2  0  0  0  0
  3 17  2  0  0  0  0
  4 20  2  0  0  0  0
  5 23  1  0  0  0  0
  5 45  1  0  0  0  0
  6 25  1  0  0  0  0
  6 46  1  0  0  0  0
  7 12  1  0  0  0  0
  7 14  1  0  0  0  0
  7 22  1  0  0  0  0
  7 29  1  0  0  0  0
  8  9  1  0  0  0  0
  8 10  2  0  0  0  0
  9 11  2  0  0  0  0
  9 16  1  0  0  0  0
 10 13  1  0  0  0  0
 10 17  1  0  0  0  0
 11 15  1  0  0  0  0
 11 20  1  0  0  0  0
 12 19  2  0  0  0  0
 13 15  2  0  0  0  0
 13 23  1  0  0  0  0
 14 24  1  0  0  0  0
 14 30  1  0  0  0  0
 14 31  1  0  0  0  0
 15 32  1  0  0  0  0
 16 18  1  0  0  0  0
 17 19  1  0  0  0  0
 18 21  2  0  0  0  0
 18 25  1  0  0  0  0
 19 33  1  0  0  0  0
 20 21  1  0  0  0  0
 21 26  1  0  0  0  0
 22 34  1  0  0  0  0
 22 35  1  0  0  0  0
 22 36  1  0  0  0  0
 23 37  1  0  0  0  0
 23 38  1  0  0  0  0
 24 39  1  0  0  0  0
 24 40  1  0  0  0  0
 24 41  1  0  0  0  0
 25 27  2  0  0  0  0
 26 28  2  0  0  0  0
 26 42  1  0  0  0  0
 27 28  1  0  0  0  0
 27 43  1  0  0  0  0
 28 44  1  0  0  0  0
M  END
> <PUBCHEM_COMPOUND_CID>
11794029

> <PUBCHEM_CONFORMER_RMSD>
0.8

> <PUBCHEM_CONFORMER_DIVERSEORDER>
1
3
4
2

> <PUBCHEM_MMFF94_PARTIAL_CHARGES>
32
1 -0.16
10 0.09
11 0.09
12 -0.06
13 -0.14
15 -0.15
16 0.4
17 0.47
18 0.09
19 -0.14
2 -0.57
20 0.4
21 0.09
23 0.42
25 0.08
26 -0.15
27 -0.15
28 -0.15
3 -0.57
32 0.15
33 0.15
4 -0.57
42 0.15
43 0.15
44 0.15
45 0.4
46 0.45
5 -0.68
6 -0.53
7 0.14
8 0.08
9 0.09

> <PUBCHEM_EFFECTIVE_ROTOR_COUNT>
3

> <PUBCHEM_PHARMACOPHORE_FEATURES>
13
1 1 acceptor
1 2 acceptor
1 22 hydrophobe
1 24 hydrophobe
1 3 acceptor
1 4 acceptor
1 5 acceptor
1 5 donor
1 6 donor
6 1 8 10 12 17 19 rings
6 18 21 25 26 27 28 rings
6 8 9 10 11 13 15 rings
6 9 11 16 18 20 21 rings

> <PUBCHEM_HEAVY_ATOM_COUNT>
28

> <PUBCHEM_ATOM_DEF_STEREO_COUNT>
1

> <PUBCHEM_ATOM_UDEF_STEREO_COUNT>
0

> <PUBCHEM_BOND_DEF_STEREO_COUNT>
0

> <PUBCHEM_BOND_UDEF_STEREO_COUNT>
0

> <PUBCHEM_ISOTOPIC_ATOM_COUNT>
0

> <PUBCHEM_COMPONENT_COUNT>
1

> <PUBCHEM_CACTVS_TAUTO_COUNT>
15

> <PUBCHEM_CONFORMER_ID>
00B3F66D00000001

> <PUBCHEM_MMFF94_ENERGY>
83.2029

> <PUBCHEM_FEATURE_SELFOVERLAP>
66.056

> <PUBCHEM_SHAPE_FINGERPRINT>
10411042 1 17835237848629272970
10616163 171 18338516451475459827
10670039 82 18045789154597766588
10967382 1 18267019462117263586
1100329 8 18411132502957437018
11513181 2 18126574641924749342
11582403 64 16699183175189771016
12173636 292 18195240255005988308
12403259 226 18047466729952009005
12788726 201 17489038076193581481
13140716 1 18338225063719388186
138480 1 18195525879026855058
13911987 19 17614555265192012759
13965767 371 17972574827293917080
14114211 68 18192738784728455253
14466204 15 18338224978263147634
14790565 3 18121504810777874285
14955137 171 17548165254463894147
15196674 1 18410852175116587859
15297060 5 18195827364262044104
18681886 176 18271515430115536402
19591789 44 17689718988078424171
20642791 178 18334019415075056284
21133410 127 18040991886202549572
21267235 1 18339647733187632731
21860390 5 18270963432196578606
22149856 69 18339372959134948851
22393880 68 18270125750248822596
23227448 37 18412821400231107143
23366157 5 18260266313297197147
23558518 356 18261670471202883618
23559900 14 18341325626322203874
245318 6 17533511272236307884
335352 9 18339077073435417542
338550 245 18335419127420637356
350125 39 18409165545601662480
474 4 17968094282459712352
5104073 3 18408884057892745827
5312544 6 18335983163705158109
6287921 2 18334298660462658885
6443956 14 18267023843484850950
7808743 9 17616814774768061872
9709674 26 18339362968318785795
9981440 41 18192706967351893954

> <PUBCHEM_SHAPE_MULTIPOLES>
541.01
9.45
5.11
0.97
7.95
1.45
-0.28
-4.83
-0.6
-4.73
-0.68
-1.19
-0.77
-0.31

> <PUBCHEM_SHAPE_SELFOVERLAP>
1212.43

> <PUBCHEM_SHAPE_VOLUME>
284.3

> <PUBCHEM_COORDINATE_TYPE>
2
5
10

$$$$
