117991913
  -OEChem-03292013293D

 47 49  0     0  0  0  0  0  0999 V2000
   -3.5828   -2.0047    0.2919 S   0  0  0  0  0  0  0  0  0  0  0  0
    6.7950   -1.2376    0.7704 S   0  0  0  0  0  0  0  0  0  0  0  0
   -6.9138    1.7255    1.2534 F   0  0  0  0  0  0  0  0  0  0  0  0
   -8.1274    1.4166   -1.1778 F   0  0  0  0  0  0  0  0  0  0  0  0
   -3.5034   -2.0801    1.7451 O   0  0  0  0  0  0  0  0  0  0  0  0
   -3.6845   -3.2355   -0.4810 O   0  0  0  0  0  0  0  0  0  0  0  0
    3.8862    2.4001   -0.8307 O   0  0  0  0  0  0  0  0  0  0  0  0
   -2.2458   -1.1090   -0.2830 N   0  0  0  0  0  0  0  0  0  0  0  0
   -0.1575    1.4512   -0.7975 N   0  0  0  0  0  0  0  0  0  0  0  0
    1.6700    0.4238    1.0656 N   0  0  0  0  0  0  0  0  0  0  0  0
    4.2889    1.0488    1.0100 N   0  0  0  0  0  0  0  0  0  0  0  0
    7.8298   -0.4820   -1.4748 N   0  0  0  0  0  0  0  0  0  0  0  0
   -1.9938    0.2441    0.2334 C   0  0  0  0  0  0  0  0  0  0  0  0
   -0.5368    0.6097    0.1847 C   0  0  0  0  0  0  0  0  0  0  0  0
   -4.9329   -0.9874   -0.1447 C   0  0  0  0  0  0  0  0  0  0  0  0
    0.3608    0.1051    1.0998 C   0  0  0  0  0  0  0  0  0  0  0  0
    2.0492    1.2652    0.0834 C   0  0  0  0  0  0  0  0  0  0  0  0
   -5.3925   -0.0177    0.7463 C   0  0  0  0  0  0  0  0  0  0  0  0
   -5.5523   -1.1450   -1.3847 C   0  0  0  0  0  0  0  0  0  0  0  0
   -0.0720   -0.8267    2.1794 C   0  0  0  0  0  0  0  0  0  0  0  0
    5.7058    1.3166    1.1080 C   0  0  0  0  0  0  0  0  0  0  0  0
    1.1516    1.7698   -0.8317 C   0  0  0  0  0  0  0  0  0  0  0  0
    3.4563    1.6140    0.0347 C   0  0  0  0  0  0  0  0  0  0  0  0
   -6.4716    0.7946    0.3977 C   0  0  0  0  0  0  0  0  0  0  0  0
   -6.6315   -0.3328   -1.7333 C   0  0  0  0  0  0  0  0  0  0  0  0
    6.5223    0.3783    0.2643 C   0  0  0  0  0  0  0  0  0  0  0  0
   -7.0911    0.6370   -0.8423 C   0  0  0  0  0  0  0  0  0  0  0  0
    7.1459    0.5953   -0.9464 C   0  0  0  0  0  0  0  0  0  0  0  0
    7.7135   -1.5027   -0.6548 C   0  0  0  0  0  0  0  0  0  0  0  0
    8.3144   -2.8345   -0.8855 C   0  0  0  0  0  0  0  0  0  0  0  0
   -2.5547    0.9513   -0.3897 H   0  0  0  0  0  0  0  0  0  0  0  0
   -2.3686    0.3604    1.2550 H   0  0  0  0  0  0  0  0  0  0  0  0
   -1.9149   -1.2947   -1.2382 H   0  0  0  0  0  0  0  0  0  0  0  0
   -4.9246    0.1246    1.7162 H   0  0  0  0  0  0  0  0  0  0  0  0
   -5.2069   -1.8885   -2.0974 H   0  0  0  0  0  0  0  0  0  0  0  0
   -0.4579   -1.7603    1.7603 H   0  0  0  0  0  0  0  0  0  0  0  0
    0.7750   -1.0872    2.8240 H   0  0  0  0  0  0  0  0  0  0  0  0
   -0.8322   -0.3660    2.8174 H   0  0  0  0  0  0  0  0  0  0  0  0
    5.9856    1.2296    2.1636 H   0  0  0  0  0  0  0  0  0  0  0  0
    5.8932    2.3518    0.8007 H   0  0  0  0  0  0  0  0  0  0  0  0
    1.4380    2.4465   -1.6282 H   0  0  0  0  0  0  0  0  0  0  0  0
    3.8823    0.4079    1.6856 H   0  0  0  0  0  0  0  0  0  0  0  0
   -7.1131   -0.4540   -2.6991 H   0  0  0  0  0  0  0  0  0  0  0  0
    7.1340    1.5287   -1.4934 H   0  0  0  0  0  0  0  0  0  0  0  0
    9.0163   -3.0929   -0.0860 H   0  0  0  0  0  0  0  0  0  0  0  0
    7.5433   -3.6097   -0.9393 H   0  0  0  0  0  0  0  0  0  0  0  0
    8.8668   -2.8481   -1.8308 H   0  0  0  0  0  0  0  0  0  0  0  0
  1  5  2  0  0  0  0
  1  6  2  0  0  0  0
  1  8  1  0  0  0  0
  1 15  1  0  0  0  0
  2 26  1  0  0  0  0
  2 29  1  0  0  0  0
  3 24  1  0  0  0  0
  4 27  1  0  0  0  0
  7 23  2  0  0  0  0
  8 13  1  0  0  0  0
  8 33  1  0  0  0  0
  9 14  2  0  0  0  0
  9 22  1  0  0  0  0
 10 16  2  0  0  0  0
 10 17  1  0  0  0  0
 11 21  1  0  0  0  0
 11 23  1  0  0  0  0
 11 42  1  0  0  0  0
 12 28  1  0  0  0  0
 12 29  2  0  0  0  0
 13 14  1  0  0  0  0
 13 31  1  0  0  0  0
 13 32  1  0  0  0  0
 14 16  1  0  0  0  0
 15 18  2  0  0  0  0
 15 19  1  0  0  0  0
 16 20  1  0  0  0  0
 17 22  2  0  0  0  0
 17 23  1  0  0  0  0
 18 24  1  0  0  0  0
 18 34  1  0  0  0  0
 19 25  2  0  0  0  0
 19 35  1  0  0  0  0
 20 36  1  0  0  0  0
 20 37  1  0  0  0  0
 20 38  1  0  0  0  0
 21 26  1  0  0  0  0
 21 39  1  0  0  0  0
 21 40  1  0  0  0  0
 22 41  1  0  0  0  0
 24 27  2  0  0  0  0
 25 27  1  0  0  0  0
 25 43  1  0  0  0  0
 26 28  2  0  0  0  0
 28 44  1  0  0  0  0
 29 30  1  0  0  0  0
 30 45  1  0  0  0  0
 30 46  1  0  0  0  0
 30 47  1  0  0  0  0
M  END
> <PUBCHEM_COMPOUND_CID>
117991913

> <PUBCHEM_CONFORMER_RMSD>
1.4

> <PUBCHEM_CONFORMER_DIVERSEORDER>
1
75
51
43
24
65
53
36
45
40
29
63
23
88
47
26
57
34
49
31
18
78
80
79
48
76
13
55
17
68
41
61
72
42
82
6
21
60
46
19
15
9
86
39
58
73
12
67
25
33
83
71
22
37
8
85
52
38
4
89
56
10
66
14
20
90
44
5
54
87
32
59
69
77
35
81
16
3
7
84
74
62
28
50
11
30
64
27
2
70

> <PUBCHEM_MMFF94_PARTIAL_CHARGES>
37
1 1.45
10 -0.62
11 -0.73
12 -0.57
13 0.5
14 0.17
15 -0.01
16 0.17
17 0.4
18 -0.15
19 -0.15
2 -0.08
20 0.14
21 0.48
22 0.16
23 0.54
24 0.19
25 -0.15
26 -0.14
27 0.19
28 0.08
29 0.2
3 -0.19
30 0.18
33 0.42
34 0.15
35 0.15
4 -0.19
41 0.15
42 0.37
43 0.15
44 0.15
5 -0.65
6 -0.65
7 -0.57
8 -0.91
9 -0.62

> <PUBCHEM_EFFECTIVE_ROTOR_COUNT>
8

> <PUBCHEM_PHARMACOPHORE_FEATURES>
11
1 10 acceptor
1 11 donor
1 12 acceptor
1 5 acceptor
1 6 acceptor
1 7 acceptor
1 8 donor
1 9 acceptor
5 2 12 26 28 29 rings
6 15 18 19 24 25 27 rings
6 9 10 14 16 17 22 rings

> <PUBCHEM_HEAVY_ATOM_COUNT>
30

> <PUBCHEM_ATOM_DEF_STEREO_COUNT>
0

> <PUBCHEM_ATOM_UDEF_STEREO_COUNT>
0

> <PUBCHEM_BOND_DEF_STEREO_COUNT>
0

> <PUBCHEM_BOND_UDEF_STEREO_COUNT>
0

> <PUBCHEM_ISOTOPIC_ATOM_COUNT>
0

> <PUBCHEM_COMPONENT_COUNT>
1

> <PUBCHEM_CACTVS_TAUTO_COUNT>
26

> <PUBCHEM_CONFORMER_ID>
070869E900000001

> <PUBCHEM_MMFF94_ENERGY>
43.0901

> <PUBCHEM_FEATURE_SELFOVERLAP>
55.847

> <PUBCHEM_SHAPE_FINGERPRINT>
10 15 11671778287168540022
10119406 146 18409452470997464347
10319688 67 12679172804851957716
10369192 42 14345792751747162619
10670039 82 18202280287332967465
10674148 151 18040712576500096184
10930396 42 13973671786159747738
11719270 70 16774081778350454916
12373685 5 15984836874124308787
12539765 74 13551463727334142696
12717326 25 18261408731991444875
13533116 47 18202284754035418024
13782708 43 18060415854791817622
13914758 101 17988926660472424160
14168556 18 9295280647193955317
14294032 229 17169261542603606925
14347424 109 17704066318579749328
14461889 52 11312057669057919052
14849402 71 10881692303449259182
14856354 85 15864075403649375339
15064981 113 17845076412735678901
15183329 4 18334290976549589147
15352257 5 18412826880836184758
15361156 5 17967818292161461703
15439362 3 18198905813148599071
15475509 8 18040715874860905732
16126227 98 10953746603246952168
18603816 31 17560788957720739727
18608769 82 9151166554324126061
20105231 36 17530688692796197715
21307412 95 18187094953453001514
21521721 280 7853576824810553236
21814621 53 18271523225021743154
22224240 67 11167941364153389876
23524908 199 18341886351709250719
23559900 14 18268423710301711472
3418910 222 11314311611517459887
3552219 110 13407072557502472031
4144715 1 17679590205205999233
439807 62 18334577898726953830
444769 64 18408327687781794147
445580 167 10809346662928175672
474113 269 17203611441738678750
5085150 59 16702301277821683518
5109719 28 9007053591769498638
5265222 85 13045951213022751489
5381727 24 18411134754622709903
5758199 1 8574713515734863468
59682541 35 10375864199614622607
59755656 215 18113610179882825978
6204607 403 12180136332508860686
6394761 36 18341894082312798956
9689198 14 14779266406103656350
9831232 110 18410859884915492542

> <PUBCHEM_SHAPE_MULTIPOLES>
568.02
27.25
2.5
1.53
13.09
1.23
-0.22
6.07
9
1.41
0.32
-0.53
0.22
0.79

> <PUBCHEM_SHAPE_SELFOVERLAP>
1188.435

> <PUBCHEM_SHAPE_VOLUME>
323.9

> <PUBCHEM_COORDINATE_TYPE>
2
5
10

$$$$
