117949357
  -OEChem-03292013293D

 50 52  0     1  0  0  0  0  0999 V2000
   -4.4101    0.4810   -2.2055 F   0  0  0  0  0  0  0  0  0  0  0  0
   -5.9136   -3.3545   -1.3277 F   0  0  0  0  0  0  0  0  0  0  0  0
   -5.5163   -3.2862    0.8202 F   0  0  0  0  0  0  0  0  0  0  0  0
   -3.8647   -3.0540   -0.6297 F   0  0  0  0  0  0  0  0  0  0  0  0
   -0.5938    4.3375    1.7055 O   0  0  0  0  0  0  0  0  0  0  0  0
    0.8592    0.2074    1.6523 O   0  0  0  0  0  0  0  0  0  0  0  0
    3.4916    2.0832   -3.4224 O   0  0  0  0  0  0  0  0  0  0  0  0
   -5.3870   -1.3613   -0.4086 O   0  0  0  0  0  0  0  0  0  0  0  0
    6.1232   -2.9479    0.7880 O   0  0  0  0  0  0  0  0  0  0  0  0
    2.0890    0.7349   -0.2852 N   0  0  0  0  0  0  0  0  0  0  0  0
    0.0442    1.8185    0.2426 N   0  0  0  0  0  0  0  0  0  0  0  0
    4.3127    0.4624   -2.0429 N   0  0  0  0  0  0  0  0  0  0  0  0
    3.0682   -0.9928    1.0932 N   0  0  0  0  0  0  0  0  0  0  0  0
   -1.1313    2.0843    1.0414 C   0  0  2  0  0  0  0  0  0  0  0  0
   -2.2684    1.1639    0.6532 C   0  0  0  0  0  0  0  0  0  0  0  0
   -1.5141    3.5634    0.9431 C   0  0  0  0  0  0  0  0  0  0  0  0
    2.1854    1.5476   -1.4994 C   0  0  0  0  0  0  0  0  0  0  0  0
    3.1347   -0.2126   -0.0170 C   0  0  0  0  0  0  0  0  0  0  0  0
    0.9941    0.8639    0.6153 C   0  0  0  0  0  0  0  0  0  0  0  0
    4.2083   -0.3245   -0.8950 C   0  0  0  0  0  0  0  0  0  0  0  0
    3.3829    1.3956   -2.4056 C   0  0  0  0  0  0  0  0  0  0  0  0
   -2.8283    1.2458   -0.6218 C   0  0  0  0  0  0  0  0  0  0  0  0
   -2.7566    0.2338    1.5709 C   0  0  0  0  0  0  0  0  0  0  0  0
    5.2242   -1.2482   -0.6297 C   0  0  0  0  0  0  0  0  0  0  0  0
   -3.8763    0.3973   -0.9792 C   0  0  0  0  0  0  0  0  0  0  0  0
   -3.8047   -0.6144    1.2136 C   0  0  0  0  0  0  0  0  0  0  0  0
   -4.3646   -0.5327   -0.0615 C   0  0  0  0  0  0  0  0  0  0  0  0
    5.1553   -2.0441    0.5024 C   0  0  0  0  0  0  0  0  0  0  0  0
    4.0630   -1.8786    1.3272 C   0  0  0  0  0  0  0  0  0  0  0  0
   -0.9131    5.7205    1.6562 C   0  0  0  0  0  0  0  0  0  0  0  0
   -5.1582   -2.7657   -0.3728 C   0  0  0  0  0  0  0  0  0  0  0  0
    5.9650   -3.7237    1.9786 C   0  0  0  0  0  0  0  0  0  0  0  0
   -0.8608    1.8872    2.0874 H   0  0  0  0  0  0  0  0  0  0  0  0
    0.1045    2.2798   -0.6570 H   0  0  0  0  0  0  0  0  0  0  0  0
   -1.5115    3.9097   -0.0981 H   0  0  0  0  0  0  0  0  0  0  0  0
   -2.5191    3.7186    1.3558 H   0  0  0  0  0  0  0  0  0  0  0  0
    2.1485    2.6011   -1.1957 H   0  0  0  0  0  0  0  0  0  0  0  0
    1.2990    1.3321   -2.1086 H   0  0  0  0  0  0  0  0  0  0  0  0
    5.1256    0.3346   -2.6391 H   0  0  0  0  0  0  0  0  0  0  0  0
   -2.4587    1.9615   -1.3510 H   0  0  0  0  0  0  0  0  0  0  0  0
   -2.3318    0.1584    2.5682 H   0  0  0  0  0  0  0  0  0  0  0  0
    6.0703   -1.3473   -1.3057 H   0  0  0  0  0  0  0  0  0  0  0  0
   -4.1798   -1.3295    1.9406 H   0  0  0  0  0  0  0  0  0  0  0  0
    3.8998   -2.4416    2.2386 H   0  0  0  0  0  0  0  0  0  0  0  0
   -1.9072    5.9010    2.0765 H   0  0  0  0  0  0  0  0  0  0  0  0
   -0.8659    6.0893    0.6270 H   0  0  0  0  0  0  0  0  0  0  0  0
   -0.1780    6.2649    2.2550 H   0  0  0  0  0  0  0  0  0  0  0  0
    6.8289   -4.3925    2.0477 H   0  0  0  0  0  0  0  0  0  0  0  0
    5.0701   -4.3531    1.9288 H   0  0  0  0  0  0  0  0  0  0  0  0
    5.9727   -3.0899    2.8717 H   0  0  0  0  0  0  0  0  0  0  0  0
  1 25  1  0  0  0  0
  2 31  1  0  0  0  0
  3 31  1  0  0  0  0
  4 31  1  0  0  0  0
  5 16  1  0  0  0  0
  5 30  1  0  0  0  0
  6 19  2  0  0  0  0
  7 21  2  0  0  0  0
  8 27  1  0  0  0  0
  8 31  1  0  0  0  0
  9 28  1  0  0  0  0
  9 32  1  0  0  0  0
 10 17  1  0  0  0  0
 10 18  1  0  0  0  0
 10 19  1  0  0  0  0
 11 14  1  0  0  0  0
 11 19  1  0  0  0  0
 11 34  1  0  0  0  0
 12 20  1  0  0  0  0
 12 21  1  0  0  0  0
 12 39  1  0  0  0  0
 13 18  1  0  0  0  0
 13 29  2  0  0  0  0
 14 15  1  0  0  0  0
 14 16  1  0  0  0  0
 14 33  1  0  0  0  0
 15 22  2  0  0  0  0
 15 23  1  0  0  0  0
 16 35  1  0  0  0  0
 16 36  1  0  0  0  0
 17 21  1  0  0  0  0
 17 37  1  0  0  0  0
 17 38  1  0  0  0  0
 18 20  2  0  0  0  0
 20 24  1  0  0  0  0
 22 25  1  0  0  0  0
 22 40  1  0  0  0  0
 23 26  2  0  0  0  0
 23 41  1  0  0  0  0
 24 28  2  0  0  0  0
 24 42  1  0  0  0  0
 25 27  2  0  0  0  0
 26 27  1  0  0  0  0
 26 43  1  0  0  0  0
 28 29  1  0  0  0  0
 29 44  1  0  0  0  0
 30 45  1  0  0  0  0
 30 46  1  0  0  0  0
 30 47  1  0  0  0  0
 32 48  1  0  0  0  0
 32 49  1  0  0  0  0
 32 50  1  0  0  0  0
M  END
> <PUBCHEM_COMPOUND_CID>
117949357

> <PUBCHEM_CONFORMER_RMSD>
1

> <PUBCHEM_CONFORMER_DIVERSEORDER>
5
9
93
63
86
62
95
8
90
53
44
51
99
48
49
89
24
54
104
39
73
26
76
59
38
37
60
74
98
65
50
56
78
31
23
83
46
40
27
79
101
71
32
77
52
103
21
18
33
35
30
100
58
57
81
80
88
96
22
102
72
85
43
29
64
55
2
75
97
47
10
84
91
7
17
70
14
15
36
61
13
68
67
45
94
41
34
4
16
92
12
1
20
69
42
66
82
3
25
6
87
11
19
28

> <PUBCHEM_MMFF94_PARTIAL_CHARGES>
39
1 -0.19
10 -0.48
11 -0.73
12 -0.55
13 -0.62
14 0.44
15 -0.14
16 0.28
17 0.36
18 0.43
19 0.69
2 -0.34
20 0.12
21 0.57
22 -0.15
23 -0.15
24 -0.15
25 0.19
26 -0.15
27 0.08
28 0.08
29 0.16
3 -0.34
30 0.28
31 1.3
32 0.28
34 0.37
39 0.37
4 -0.34
40 0.15
41 0.15
42 0.15
43 0.15
44 0.15
5 -0.56
6 -0.57
7 -0.57
8 -0.36
9 -0.36

> <PUBCHEM_EFFECTIVE_ROTOR_COUNT>
9.6

> <PUBCHEM_PHARMACOPHORE_FEATURES>
11
1 11 donor
1 12 donor
1 13 acceptor
1 5 acceptor
1 6 acceptor
1 7 acceptor
1 8 acceptor
1 9 acceptor
6 10 12 17 18 20 21 rings
6 13 18 20 24 28 29 rings
6 15 22 23 25 26 27 rings

> <PUBCHEM_HEAVY_ATOM_COUNT>
32

> <PUBCHEM_ATOM_DEF_STEREO_COUNT>
0

> <PUBCHEM_ATOM_UDEF_STEREO_COUNT>
1

> <PUBCHEM_BOND_DEF_STEREO_COUNT>
0

> <PUBCHEM_BOND_UDEF_STEREO_COUNT>
0

> <PUBCHEM_ISOTOPIC_ATOM_COUNT>
0

> <PUBCHEM_COMPONENT_COUNT>
1

> <PUBCHEM_CACTVS_TAUTO_COUNT>
10

> <PUBCHEM_CONFORMER_ID>
0707C3AD00000005

> <PUBCHEM_MMFF94_ENERGY>
103.3594

> <PUBCHEM_FEATURE_SELFOVERLAP>
55.868

> <PUBCHEM_SHAPE_FINGERPRINT>
10074138 170 17844259419435119129
10622 236 18187360987452440810
10928967 22 18270965768722597391
11763715 3 18340221734034163880
12166972 35 18186799175607135566
12342043 65 16342605867554077900
12788726 201 18195832707364839217
12892183 10 13183018523169488341
13009979 54 18410011005455064244
13583140 156 16985727729417071664
14068700 675 18336538327014623896
14347329 18 11314302828451224950
15163728 17 10881670309142697505
15250474 111 18192150400195050106
15484559 13 14601341639185700550
15842332 3 18046091301336611204
17349148 13 18263937557379687882
1813 80 17846229894374402065
19315092 285 18335708281730367084
19319366 153 17975141147419426092
20775438 99 17750511974090202146
21223535 225 15936673883834296679
21304303 282 17693366747006817485
22393880 68 16225774025159817792
23522609 53 18120409590329173529
23559900 14 18040432174896087072
23569914 2 12975590303425137686
25222932 49 17984977356576348476
3004659 81 18187359926415780651
3504750 166 17686610252875933714
4017518 198 17039786171667734540
439807 62 18260831527379216079
44062 13 18335695040783601215
46194498 28 15359134622155887252
463206 1 18409730707495240979
59025328 239 17603868880149069244
6058803 2 18118710767454790676
613672 6 18060135431966271493
6679774 75 11366209514178964940
6691757 9 17839180706021765120
6697151 62 17988349482368874589
7970288 3 18342738533298227279

> <PUBCHEM_SHAPE_MULTIPOLES>
580.18
14.68
5.43
2.28
4.21
3.55
-1.26
-19.42
-1.55
-4.19
2.82
1.91
1.24
-5.28

> <PUBCHEM_SHAPE_SELFOVERLAP>
1242.266

> <PUBCHEM_SHAPE_VOLUME>
320.5

> <PUBCHEM_COORDINATE_TYPE>
2
5
10

$$$$
