11809239
  -OEChem-03292013303D

 42 43  0     1  0  0  0  0  0999 V2000
    1.5257   -0.4909    0.4098 O   0  0  0  0  0  0  0  0  0  0  0  0
    0.4435    1.5672    0.2178 O   0  0  0  0  0  0  0  0  0  0  0  0
    5.2198    1.2753    0.0915 O   0  0  0  0  0  0  0  0  0  0  0  0
    4.9478   -1.5730   -0.3196 O   0  0  0  0  0  0  0  0  0  0  0  0
    2.8121    2.6881   -0.8508 O   0  0  0  0  0  0  0  0  0  0  0  0
    1.1044   -3.2068    0.3620 O   0  0  0  0  0  0  0  0  0  0  0  0
   -4.2408    2.1965    0.8293 O   0  0  0  0  0  0  0  0  0  0  0  0
   -4.3941   -2.5530   -0.9456 O   0  0  0  0  0  0  0  0  0  0  0  0
    4.0314    0.6548   -0.4015 C   0  0  1  0  0  0  0  0  0  0  0  0
    3.9300   -0.7365    0.2241 C   0  0  1  0  0  0  0  0  0  0  0  0
    2.8203    1.5142   -0.0388 C   0  0  2  0  0  0  0  0  0  0  0  0
    2.5602   -1.3593   -0.0557 C   0  0  1  0  0  0  0  0  0  0  0  0
    1.5120    0.7595   -0.2750 C   0  0  1  0  0  0  0  0  0  0  0  0
    2.3923   -2.6977    0.6566 C   0  0  0  0  0  0  0  0  0  0  0  0
   -0.8114    0.9310    0.0335 C   0  0  0  0  0  0  0  0  0  0  0  0
   -1.9081    1.8459    0.5568 C   0  0  0  0  0  0  0  0  0  0  0  0
   -3.2838    1.2221    0.4059 C   0  0  0  0  0  0  0  0  0  0  0  0
   -3.5456    0.8988   -1.0420 C   0  0  0  0  0  0  0  0  0  0  0  0
   -3.4053    0.0190    1.3018 C   0  0  0  0  0  0  0  0  0  0  0  0
   -3.9016   -0.3104   -1.4898 C   0  0  0  0  0  0  0  0  0  0  0  0
   -3.7594   -1.2003    0.8802 C   0  0  0  0  0  0  0  0  0  0  0  0
   -4.0494   -1.4443   -0.5504 C   0  0  0  0  0  0  0  0  0  0  0  0
    4.1464    0.5852   -1.4903 H   0  0  0  0  0  0  0  0  0  0  0  0
    4.1065   -0.6534    1.3045 H   0  0  0  0  0  0  0  0  0  0  0  0
    2.8907    1.8497    1.0027 H   0  0  0  0  0  0  0  0  0  0  0  0
    2.4183   -1.5274   -1.1320 H   0  0  0  0  0  0  0  0  0  0  0  0
    1.3504    0.5959   -1.3493 H   0  0  0  0  0  0  0  0  0  0  0  0
    2.4676   -2.5863    1.7433 H   0  0  0  0  0  0  0  0  0  0  0  0
    3.1289   -3.4343    0.3250 H   0  0  0  0  0  0  0  0  0  0  0  0
   -0.8222   -0.0189    0.5778 H   0  0  0  0  0  0  0  0  0  0  0  0
   -0.9417    0.7274   -1.0349 H   0  0  0  0  0  0  0  0  0  0  0  0
   -1.7072    2.1070    1.6056 H   0  0  0  0  0  0  0  0  0  0  0  0
   -1.8551    2.8106    0.0320 H   0  0  0  0  0  0  0  0  0  0  0  0
    5.9675    0.6985   -0.1411 H   0  0  0  0  0  0  0  0  0  0  0  0
    5.0266   -2.3554    0.2514 H   0  0  0  0  0  0  0  0  0  0  0  0
    2.7519    2.4110   -1.7809 H   0  0  0  0  0  0  0  0  0  0  0  0
   -3.4585    1.7087   -1.7633 H   0  0  0  0  0  0  0  0  0  0  0  0
   -3.2122    0.1599    2.3630 H   0  0  0  0  0  0  0  0  0  0  0  0
    0.4528   -2.5469    0.6550 H   0  0  0  0  0  0  0  0  0  0  0  0
   -4.1608    2.9768    0.2540 H   0  0  0  0  0  0  0  0  0  0  0  0
   -4.0918   -0.4903   -2.5413 H   0  0  0  0  0  0  0  0  0  0  0  0
   -3.8456   -2.0333    1.5680 H   0  0  0  0  0  0  0  0  0  0  0  0
  1 12  1  0  0  0  0
  1 13  1  0  0  0  0
  2 13  1  0  0  0  0
  2 15  1  0  0  0  0
  3  9  1  0  0  0  0
  3 34  1  0  0  0  0
  4 10  1  0  0  0  0
  4 35  1  0  0  0  0
  5 11  1  0  0  0  0
  5 36  1  0  0  0  0
  6 14  1  0  0  0  0
  6 39  1  0  0  0  0
  7 17  1  0  0  0  0
  7 40  1  0  0  0  0
  8 22  2  0  0  0  0
  9 10  1  0  0  0  0
  9 11  1  0  0  0  0
  9 23  1  0  0  0  0
 10 12  1  0  0  0  0
 10 24  1  0  0  0  0
 11 13  1  0  0  0  0
 11 25  1  0  0  0  0
 12 14  1  0  0  0  0
 12 26  1  0  0  0  0
 13 27  1  0  0  0  0
 14 28  1  0  0  0  0
 14 29  1  0  0  0  0
 15 16  1  0  0  0  0
 15 30  1  0  0  0  0
 15 31  1  0  0  0  0
 16 17  1  0  0  0  0
 16 32  1  0  0  0  0
 16 33  1  0  0  0  0
 17 18  1  0  0  0  0
 17 19  1  0  0  0  0
 18 20  2  0  0  0  0
 18 37  1  0  0  0  0
 19 21  2  0  0  0  0
 19 38  1  0  0  0  0
 20 22  1  0  0  0  0
 20 41  1  0  0  0  0
 21 22  1  0  0  0  0
 21 42  1  0  0  0  0
M  END
> <PUBCHEM_COMPOUND_CID>
11809239

> <PUBCHEM_CONFORMER_RMSD>
0.8

> <PUBCHEM_CONFORMER_DIVERSEORDER>
1
45
47
38
28
16
7
41
35
23
12
36
46
3
8
27
14
48
15
54
40
2
51
6
13
32
26
39
18
25
5
21
19
24
49
11
50
31
42
52
43
37
34
17
30
33
29
20
22
44
53
4
10
9

> <PUBCHEM_MMFF94_PARTIAL_CHARGES>
30
1 -0.56
10 0.28
11 0.28
12 0.28
13 0.56
14 0.28
15 0.28
17 0.56
18 -0.29
19 -0.29
2 -0.56
20 -0.14
21 -0.14
22 0.54
3 -0.68
34 0.4
35 0.4
36 0.4
37 0.15
38 0.15
39 0.4
4 -0.68
40 0.4
41 0.15
42 0.15
5 -0.68
6 -0.68
7 -0.68
8 -0.57
9 0.28

> <PUBCHEM_EFFECTIVE_ROTOR_COUNT>
6.4

> <PUBCHEM_PHARMACOPHORE_FEATURES>
15
1 1 acceptor
1 2 acceptor
1 3 acceptor
1 3 donor
1 4 acceptor
1 4 donor
1 5 acceptor
1 5 donor
1 6 acceptor
1 6 donor
1 7 acceptor
1 7 donor
1 8 acceptor
6 1 9 10 11 12 13 rings
6 17 18 19 20 21 22 rings

> <PUBCHEM_HEAVY_ATOM_COUNT>
22

> <PUBCHEM_ATOM_DEF_STEREO_COUNT>
5

> <PUBCHEM_ATOM_UDEF_STEREO_COUNT>
0

> <PUBCHEM_BOND_DEF_STEREO_COUNT>
0

> <PUBCHEM_BOND_UDEF_STEREO_COUNT>
0

> <PUBCHEM_ISOTOPIC_ATOM_COUNT>
0

> <PUBCHEM_COMPONENT_COUNT>
1

> <PUBCHEM_CACTVS_TAUTO_COUNT>
1

> <PUBCHEM_CONFORMER_ID>
00B431D700000001

> <PUBCHEM_MMFF94_ENERGY>
51.8427

> <PUBCHEM_FEATURE_SELFOVERLAP>
76.189

> <PUBCHEM_SHAPE_FINGERPRINT>
10074138 170 17044257310270535960
10616163 171 18342458114951640479
12107183 9 17764311635144736281
12553582 1 18119247259744192234
12596599 1 17916322561942544930
12788726 201 17632016335071084225
13167823 11 18413672408992584869
13224815 77 18261111872219650753
13583140 156 18131057251783439505
13631057 29 18199462337013040559
14117953 113 17547562687336716559
14787075 74 18130227189508555000
15196674 1 18411140225324186346
15537594 2 18342190976375043833
17349148 13 18187082871118738312
18186145 218 17240768380120812721
19050596 39 18341615875743215272
200 152 18341890814180497981
20028762 73 18343015584880856798
20281475 54 18413107268817066553
20645477 70 18259984842636254032
20681651 13 18131354098790221563
21054139 6 18338510954223087846
21673915 165 18411980295136569518
21709351 56 18260550021931208628
221490 88 18334866017152453456
22393880 68 18410575041998398814
235170 7 17385436648488992391
23559900 14 18339348747613503641
23598288 3 17988924427617327533
2838139 119 15286795523820751358
4280585 95 17765438643433541022
4283 87 18409726227337734330
4409770 3 14451314407599838965
4921388 177 17022627494284863753
5104073 3 18413107243073442488
602551 16 15984813878652849476
6913067 236 17968642917725064212
9709674 26 18334304170684029962

> <PUBCHEM_SHAPE_MULTIPOLES>
405.8
11.28
3.05
1.05
1.79
1.32
0.09
1.16
1.12
0.63
-0.1
-1.24
0.05
-1.22

> <PUBCHEM_SHAPE_SELFOVERLAP>
839.882

> <PUBCHEM_SHAPE_VOLUME>
227.8

> <PUBCHEM_COORDINATE_TYPE>
2
5
10

$$$$
