118086034
  -OEChem-03292013293D

 67 72  0     0  0  0  0  0  0999 V2000
    9.4479    0.2630   -1.7706 O   0  0  0  0  0  0  0  0  0  0  0  0
   -6.3951    2.1860    1.0530 O   0  0  0  0  0  0  0  0  0  0  0  0
    1.1783   -3.0080    0.0938 O   0  0  0  0  0  0  0  0  0  0  0  0
    4.3635    0.4412    0.3271 N   0  0  0  0  0  0  0  0  0  0  0  0
   -6.3414    1.1340   -1.0110 N   0  0  0  0  0  0  0  0  0  0  0  0
    2.0401    0.8778    0.2916 N   0  0  0  0  0  0  0  0  0  0  0  0
    2.1244    2.2373    0.3550 N   0  0  0  0  0  0  0  0  0  0  0  0
    0.3658   -0.8545    0.1730 N   0  0  0  0  0  0  0  0  0  0  0  0
   -2.1735   -3.6566   -1.2747 N   0  0  0  0  0  0  0  0  0  0  0  0
    6.7996    0.4614    0.3473 C   0  0  0  0  0  0  0  0  0  0  0  0
    8.6931    0.7820   -0.6549 C   0  0  0  0  0  0  0  0  0  0  0  0
    8.1466   -0.2977    0.3209 C   0  0  0  0  0  0  0  0  0  0  0  0
    7.2141    1.1254   -0.9865 C   0  0  0  0  0  0  0  0  0  0  0  0
    5.5453   -0.3884    0.3174 C   0  0  0  0  0  0  0  0  0  0  0  0
    9.4750    1.9118    0.0035 C   0  0  0  0  0  0  0  0  0  0  0  0
   -7.7649    1.0780   -1.1973 C   0  0  0  0  0  0  0  0  0  0  0  0
   -8.3969    0.0446   -2.0891 C   0  0  0  0  0  0  0  0  0  0  0  0
   -8.5852   -0.0342   -0.6032 C   0  0  0  0  0  0  0  0  0  0  0  0
    3.0997   -0.0501    0.2748 C   0  0  0  0  0  0  0  0  0  0  0  0
   -5.7375    1.6935    0.1206 C   0  0  0  0  0  0  0  0  0  0  0  0
    2.8066   -1.3604    0.2082 C   0  0  0  0  0  0  0  0  0  0  0  0
    0.7036    0.4641    0.2412 C   0  0  0  0  0  0  0  0  0  0  0  0
   -4.2825    1.6593    0.1785 C   0  0  0  0  0  0  0  0  0  0  0  0
   -0.0625    1.6066    0.2754 C   0  0  0  0  0  0  0  0  0  0  0  0
    1.3659   -1.6725    0.1595 C   0  0  0  0  0  0  0  0  0  0  0  0
   -1.4937    1.6240    0.2426 C   0  0  0  0  0  0  0  0  0  0  0  0
   -3.6171    1.0000    1.2119 C   0  0  0  0  0  0  0  0  0  0  0  0
    0.8606    2.6566    0.3447 C   0  0  0  0  0  0  0  0  0  0  0  0
   -3.5536    2.3008   -0.8229 C   0  0  0  0  0  0  0  0  0  0  0  0
   -2.2225    0.9823    1.2439 C   0  0  0  0  0  0  0  0  0  0  0  0
   -2.1593    2.2833   -0.7908 C   0  0  0  0  0  0  0  0  0  0  0  0
   -4.3735    0.3048    2.2967 C   0  0  0  0  0  0  0  0  0  0  0  0
   -0.1829   -3.2932    0.0482 C   0  0  0  0  0  0  0  0  0  0  0  0
   -0.9124   -3.4946    1.2146 C   0  0  0  0  0  0  0  0  0  0  0  0
   -0.8542   -3.3844   -1.1605 C   0  0  0  0  0  0  0  0  0  0  0  0
   -2.2717   -3.7770    1.1378 C   0  0  0  0  0  0  0  0  0  0  0  0
   -2.8496   -3.8464   -0.1196 C   0  0  0  0  0  0  0  0  0  0  0  0
    6.7730    1.1813    1.1790 H   0  0  0  0  0  0  0  0  0  0  0  0
    6.9730    2.1898   -1.0661 H   0  0  0  0  0  0  0  0  0  0  0  0
    6.8384    0.6198   -1.8845 H   0  0  0  0  0  0  0  0  0  0  0  0
    8.0942   -1.3003   -0.1207 H   0  0  0  0  0  0  0  0  0  0  0  0
    8.6539   -0.3736    1.2874 H   0  0  0  0  0  0  0  0  0  0  0  0
    5.5391   -1.0377    1.2016 H   0  0  0  0  0  0  0  0  0  0  0  0
    5.5519   -1.0356   -0.5684 H   0  0  0  0  0  0  0  0  0  0  0  0
    9.6587    2.7238   -0.7083 H   0  0  0  0  0  0  0  0  0  0  0  0
    8.9404    2.3355    0.8601 H   0  0  0  0  0  0  0  0  0  0  0  0
   10.4453    1.5518    0.3617 H   0  0  0  0  0  0  0  0  0  0  0  0
    9.4906    0.9926   -2.4123 H   0  0  0  0  0  0  0  0  0  0  0  0
   -8.2156    2.0655   -1.2170 H   0  0  0  0  0  0  0  0  0  0  0  0
   -7.7583   -0.6959   -2.5549 H   0  0  0  0  0  0  0  0  0  0  0  0
   -9.5595    0.2174   -0.2029 H   0  0  0  0  0  0  0  0  0  0  0  0
   -8.0719   -0.8264   -0.0721 H   0  0  0  0  0  0  0  0  0  0  0  0
   -9.2453    0.3479   -2.6901 H   0  0  0  0  0  0  0  0  0  0  0  0
    4.4713    1.4496    0.3744 H   0  0  0  0  0  0  0  0  0  0  0  0
   -5.7575    0.7364   -1.7422 H   0  0  0  0  0  0  0  0  0  0  0  0
    3.5328   -2.1619    0.1903 H   0  0  0  0  0  0  0  0  0  0  0  0
    0.6708    3.7199    0.3891 H   0  0  0  0  0  0  0  0  0  0  0  0
   -4.0569    2.8228   -1.6330 H   0  0  0  0  0  0  0  0  0  0  0  0
   -1.7075    0.4725    2.0559 H   0  0  0  0  0  0  0  0  0  0  0  0
   -1.6082    2.7880   -1.5810 H   0  0  0  0  0  0  0  0  0  0  0  0
   -4.8357    1.0348    2.9688 H   0  0  0  0  0  0  0  0  0  0  0  0
   -5.1468   -0.3490    1.8796 H   0  0  0  0  0  0  0  0  0  0  0  0
   -3.7176   -0.3325    2.9004 H   0  0  0  0  0  0  0  0  0  0  0  0
   -0.4280   -3.4330    2.1850 H   0  0  0  0  0  0  0  0  0  0  0  0
   -0.3351   -3.2370   -2.1024 H   0  0  0  0  0  0  0  0  0  0  0  0
   -2.8604   -3.9364    2.0339 H   0  0  0  0  0  0  0  0  0  0  0  0
   -3.9068   -4.0626   -0.2336 H   0  0  0  0  0  0  0  0  0  0  0  0
  1 11  1  0  0  0  0
  1 48  1  0  0  0  0
  2 20  2  0  0  0  0
  3 25  1  0  0  0  0
  3 33  1  0  0  0  0
  4 14  1  0  0  0  0
  4 19  1  0  0  0  0
  4 54  1  0  0  0  0
  5 16  1  0  0  0  0
  5 20  1  0  0  0  0
  5 55  1  0  0  0  0
  6  7  1  0  0  0  0
  6 19  1  0  0  0  0
  6 22  1  0  0  0  0
  7 28  2  0  0  0  0
  8 22  1  0  0  0  0
  8 25  2  0  0  0  0
  9 35  1  0  0  0  0
  9 37  2  0  0  0  0
 10 12  1  0  0  0  0
 10 13  1  0  0  0  0
 10 14  1  0  0  0  0
 10 38  1  0  0  0  0
 11 12  1  0  0  0  0
 11 13  1  0  0  0  0
 11 15  1  0  0  0  0
 12 41  1  0  0  0  0
 12 42  1  0  0  0  0
 13 39  1  0  0  0  0
 13 40  1  0  0  0  0
 14 43  1  0  0  0  0
 14 44  1  0  0  0  0
 15 45  1  0  0  0  0
 15 46  1  0  0  0  0
 15 47  1  0  0  0  0
 16 17  1  0  0  0  0
 16 18  1  0  0  0  0
 16 49  1  0  0  0  0
 17 18  1  0  0  0  0
 17 50  1  0  0  0  0
 17 53  1  0  0  0  0
 18 51  1  0  0  0  0
 18 52  1  0  0  0  0
 19 21  2  0  0  0  0
 20 23  1  0  0  0  0
 21 25  1  0  0  0  0
 21 56  1  0  0  0  0
 22 24  2  0  0  0  0
 23 27  2  0  0  0  0
 23 29  1  0  0  0  0
 24 26  1  0  0  0  0
 24 28  1  0  0  0  0
 26 30  2  0  0  0  0
 26 31  1  0  0  0  0
 27 30  1  0  0  0  0
 27 32  1  0  0  0  0
 28 57  1  0  0  0  0
 29 31  2  0  0  0  0
 29 58  1  0  0  0  0
 30 59  1  0  0  0  0
 31 60  1  0  0  0  0
 32 61  1  0  0  0  0
 32 62  1  0  0  0  0
 32 63  1  0  0  0  0
 33 34  1  0  0  0  0
 33 35  2  0  0  0  0
 34 36  2  0  0  0  0
 34 64  1  0  0  0  0
 35 65  1  0  0  0  0
 36 37  1  0  0  0  0
 36 66  1  0  0  0  0
 37 67  1  0  0  0  0
M  END
> <PUBCHEM_COMPOUND_CID>
118086034

> <PUBCHEM_CONFORMER_RMSD>
1.2

> <PUBCHEM_CONFORMER_DIVERSEORDER>
1
38
37
27
40
45
7
17
44
9
18
24
43
42
26
46
39
41
30
22
13
33
12
35
36
21
32
29
16
31
11
28
15
14
19
3
34
20
6
10
25
5
4
2
23
8

> <PUBCHEM_MMFF94_PARTIAL_CHARGES>
50
1 -0.66
11 0.26
14 0.37
16 0.05
17 -0.2
18 -0.2
19 0.07
2 -0.57
20 0.54
21 -0.14
22 -0.03
23 0.09
24 -0.05
25 0.59
26 0.05
27 -0.14
28 0.14
29 -0.15
3 -0.23
30 -0.15
31 -0.15
32 0.14
33 0.08
34 -0.15
35 0.16
36 -0.15
37 0.16
4 -0.87
48 0.4
49 0.1
5 -0.58
50 0.1
51 0.1
52 0.1
53 0.1
54 0.4
55 0.37
56 0.15
57 0.15
58 0.15
59 0.15
6 0.6
60 0.15
64 0.15
65 0.15
66 0.15
67 0.15
7 -0.71
8 -0.58
9 -0.62

> <PUBCHEM_EFFECTIVE_ROTOR_COUNT>
10.4

> <PUBCHEM_PHARMACOPHORE_FEATURES>
13
1 1 acceptor
1 1 donor
1 2 acceptor
1 4 cation
1 4 donor
1 5 donor
1 7 acceptor
1 9 acceptor
4 10 11 12 13 rings
5 6 7 22 24 28 rings
6 23 26 27 29 30 31 rings
6 6 8 19 21 22 25 rings
6 9 33 34 35 36 37 rings

> <PUBCHEM_HEAVY_ATOM_COUNT>
37

> <PUBCHEM_ATOM_DEF_STEREO_COUNT>
0

> <PUBCHEM_ATOM_UDEF_STEREO_COUNT>
0

> <PUBCHEM_BOND_DEF_STEREO_COUNT>
0

> <PUBCHEM_BOND_UDEF_STEREO_COUNT>
0

> <PUBCHEM_ISOTOPIC_ATOM_COUNT>
0

> <PUBCHEM_COMPONENT_COUNT>
1

> <PUBCHEM_CACTVS_TAUTO_COUNT>
57

> <PUBCHEM_CONFORMER_ID>
0709D99200000001

> <PUBCHEM_MMFF94_ENERGY>
114.3827

> <PUBCHEM_FEATURE_SELFOVERLAP>
66.102

> <PUBCHEM_SHAPE_FINGERPRINT>
10050765 1 18195528323670731904
11135609 187 18265896865821298961
11136131 41 18189329070295940331
12522641 33 18335134251357011085
12539745 222 16443915006308246963
1361 2 18410004409123821385
13692114 37 18058712697884385471
13911987 19 18338508638951411396
14040222 383 18341608235085651137
1454969 45 18409164385575474592
14937079 2 18410577318870285608
15276724 80 17981615076511196708
15849732 13 17967820436157348548
15890870 6 18335415769204721839
16087824 20 18410571774034792525
17138139 8 17772724257156110247
21133410 62 18116410589577344215
21133410 90 17346031303286182579
21236236 1 18340491170660181250
21360443 126 18408605868661110838
22311459 1 18411420588590741352
23569943 247 16770442240244252582
23576562 1 18188777283178376948
249057 3 18335421296342367572
335352 9 18411700998188553284
4017518 198 18343866614847964199
4258327 124 18115039579875988908
484989 97 18268989951038636947
5171179 24 17914047870681043040
5486654 2 18341051839780233608
563151 97 18196940959034804289
6669772 16 18199757964229271622

> <PUBCHEM_SHAPE_MULTIPOLES>
713.95
25.32
4.41
1.38
33.28
5.81
0.03
-15.68
10.58
-3.99
-0.04
-1.9
0.12
-0.36

> <PUBCHEM_SHAPE_SELFOVERLAP>
1563.581

> <PUBCHEM_SHAPE_VOLUME>
387

> <PUBCHEM_COORDINATE_TYPE>
2
5
10

$$$$
