118253852
  -OEChem-03292013293D

 55 58  0     1  0  0  0  0  0999 V2000
    2.4029   -2.2273   -0.7035 O   0  0  0  0  0  0  0  0  0  0  0  0
    3.1607   -0.0472   -1.8242 O   0  0  0  0  0  0  0  0  0  0  0  0
   -6.5341   -0.1153   -0.4739 O   0  0  0  0  0  0  0  0  0  0  0  0
   -7.2262   -2.2354    0.1161 O   0  0  0  0  0  0  0  0  0  0  0  0
    4.9279   -3.2895    0.7936 N   0  0  0  0  0  0  0  0  0  0  0  0
    3.6908    0.8280    0.2668 N   0  0  0  0  0  0  0  0  0  0  0  0
   -5.0042   -1.5722    0.4234 N   0  0  0  0  0  0  0  0  0  0  0  0
    6.2075    3.1114    0.2842 N   0  0  0  0  0  0  0  0  0  0  0  0
    3.4086   -1.5333    0.0219 C   0  0  1  0  0  0  0  0  0  0  0  0
    4.7980   -2.1527   -0.1093 C   0  0  0  0  0  0  0  0  0  0  0  0
    3.1902   -4.5174   -0.6410 C   0  0  0  0  0  0  0  0  0  0  0  0
    4.4206   -4.5550    0.2712 C   0  0  0  0  0  0  0  0  0  0  0  0
    2.1165   -3.5311   -0.2037 C   0  0  0  0  0  0  0  0  0  0  0  0
    3.3945   -0.1872   -0.6266 C   0  0  0  0  0  0  0  0  0  0  0  0
    3.7632    2.2201   -0.1140 C   0  0  1  0  0  0  0  0  0  0  0  0
    2.7470    3.0649    0.6686 C   0  0  0  0  0  0  0  0  0  0  0  0
    1.3231    2.5950    0.4866 C   0  0  0  0  0  0  0  0  0  0  0  0
   -1.3065    1.7266    0.1502 C   0  0  0  0  0  0  0  0  0  0  0  0
   -2.6707    1.2764   -0.0241 C   0  0  0  0  0  0  0  0  0  0  0  0
   -4.3389   -0.3936    0.1645 C   0  0  0  0  0  0  0  0  0  0  0  0
    0.5446    3.1131   -0.5484 C   0  0  0  0  0  0  0  0  0  0  0  0
    0.7868    1.6429    1.3536 C   0  0  0  0  0  0  0  0  0  0  0  0
   -0.7702    2.6789   -0.7166 C   0  0  0  0  0  0  0  0  0  0  0  0
   -0.5280    1.2087    1.1854 C   0  0  0  0  0  0  0  0  0  0  0  0
   -3.0242   -0.0217    0.3539 C   0  0  0  0  0  0  0  0  0  0  0  0
   -5.2778    0.4636   -0.3724 C   0  0  0  0  0  0  0  0  0  0  0  0
   -3.6265    2.1544   -0.5725 C   0  0  0  0  0  0  0  0  0  0  0  0
   -4.9519    1.7486   -0.7521 C   0  0  0  0  0  0  0  0  0  0  0  0
    5.1295    2.7189    0.1100 C   0  0  0  0  0  0  0  0  0  0  0  0
   -6.3254   -1.4084    0.0404 C   0  0  0  0  0  0  0  0  0  0  0  0
   -4.4275   -2.7643    0.9918 C   0  0  0  0  0  0  0  0  0  0  0  0
    3.0928   -1.4328    1.0686 H   0  0  0  0  0  0  0  0  0  0  0  0
    5.0295   -2.4350   -1.1434 H   0  0  0  0  0  0  0  0  0  0  0  0
    5.5548   -1.4172    0.1883 H   0  0  0  0  0  0  0  0  0  0  0  0
    3.5078   -4.2817   -1.6644 H   0  0  0  0  0  0  0  0  0  0  0  0
    2.7617   -5.5267   -0.6623 H   0  0  0  0  0  0  0  0  0  0  0  0
    4.2010   -5.2012    1.1302 H   0  0  0  0  0  0  0  0  0  0  0  0
    5.2327   -5.0557   -0.2698 H   0  0  0  0  0  0  0  0  0  0  0  0
    1.9662   -3.5161    0.8819 H   0  0  0  0  0  0  0  0  0  0  0  0
    1.1651   -3.8272   -0.6585 H   0  0  0  0  0  0  0  0  0  0  0  0
    4.4761   -3.0788    1.6830 H   0  0  0  0  0  0  0  0  0  0  0  0
    3.5378    2.3031   -1.1844 H   0  0  0  0  0  0  0  0  0  0  0  0
    2.9875    3.0547    1.7414 H   0  0  0  0  0  0  0  0  0  0  0  0
    2.8217    4.1191    0.3681 H   0  0  0  0  0  0  0  0  0  0  0  0
    3.8980    0.5929    1.2337 H   0  0  0  0  0  0  0  0  0  0  0  0
    0.9553    3.8484   -1.2352 H   0  0  0  0  0  0  0  0  0  0  0  0
    1.3796    1.2376    2.1694 H   0  0  0  0  0  0  0  0  0  0  0  0
   -1.3261    3.0864   -1.5564 H   0  0  0  0  0  0  0  0  0  0  0  0
   -0.9117    0.4891    1.9033 H   0  0  0  0  0  0  0  0  0  0  0  0
   -2.3171   -0.7399    0.7530 H   0  0  0  0  0  0  0  0  0  0  0  0
   -3.3832    3.1788   -0.8431 H   0  0  0  0  0  0  0  0  0  0  0  0
   -5.6913    2.4236   -1.1670 H   0  0  0  0  0  0  0  0  0  0  0  0
   -4.0250   -2.5324    1.9820 H   0  0  0  0  0  0  0  0  0  0  0  0
   -3.6251   -3.1217    0.3400 H   0  0  0  0  0  0  0  0  0  0  0  0
   -5.1865   -3.5456    1.0872 H   0  0  0  0  0  0  0  0  0  0  0  0
  1  9  1  0  0  0  0
  1 13  1  0  0  0  0
  2 14  2  0  0  0  0
  3 26  1  0  0  0  0
  3 30  1  0  0  0  0
  4 30  2  0  0  0  0
  5 10  1  0  0  0  0
  5 12  1  0  0  0  0
  5 41  1  0  0  0  0
  6 14  1  0  0  0  0
  6 15  1  0  0  0  0
  6 45  1  0  0  0  0
  7 20  1  0  0  0  0
  7 30  1  0  0  0  0
  7 31  1  0  0  0  0
  8 29  3  0  0  0  0
  9 10  1  0  0  0  0
  9 14  1  0  0  0  0
  9 32  1  0  0  0  0
 10 33  1  0  0  0  0
 10 34  1  0  0  0  0
 11 12  1  0  0  0  0
 11 13  1  0  0  0  0
 11 35  1  0  0  0  0
 11 36  1  0  0  0  0
 12 37  1  0  0  0  0
 12 38  1  0  0  0  0
 13 39  1  0  0  0  0
 13 40  1  0  0  0  0
 15 16  1  0  0  0  0
 15 29  1  0  0  0  0
 15 42  1  0  0  0  0
 16 17  1  0  0  0  0
 16 43  1  0  0  0  0
 16 44  1  0  0  0  0
 17 21  2  0  0  0  0
 17 22  1  0  0  0  0
 18 19  1  0  0  0  0
 18 23  2  0  0  0  0
 18 24  1  0  0  0  0
 19 25  2  0  0  0  0
 19 27  1  0  0  0  0
 20 25  1  0  0  0  0
 20 26  2  0  0  0  0
 21 23  1  0  0  0  0
 21 46  1  0  0  0  0
 22 24  2  0  0  0  0
 22 47  1  0  0  0  0
 23 48  1  0  0  0  0
 24 49  1  0  0  0  0
 25 50  1  0  0  0  0
 26 28  1  0  0  0  0
 27 28  2  0  0  0  0
 27 51  1  0  0  0  0
 28 52  1  0  0  0  0
 31 53  1  0  0  0  0
 31 54  1  0  0  0  0
 31 55  1  0  0  0  0
M  END
> <PUBCHEM_COMPOUND_CID>
118253852

> <PUBCHEM_CONFORMER_RMSD>
1

> <PUBCHEM_CONFORMER_DIVERSEORDER>
1
20
99
4
73
27
91
104
78
112
74
17
60
42
26
94
81
70
53
33
96
66
45
6
22
95
77
69
16
36
110
8
113
7
10
38
12
19
59
105
86
18
101
21
103
71
24
47
49
108
56
68
40
39
100
5
13
89
80
83
58
82
50
15
32
90
28
23
46
67
62
97
43
76
92
75
3
102
54
29
109
55
88
30
98
31
87
34
2
79
48
93
64
37
9
63
84
41
106
25
61
11
14
111
72
52
107
44
57
51
35
65
85

> <PUBCHEM_MMFF94_PARTIAL_CHARGES>
37
1 -0.56
10 0.27
12 0.27
13 0.28
14 0.57
15 0.5
16 0.14
17 -0.14
2 -0.57
20 0.12
21 -0.15
22 -0.15
23 -0.15
24 -0.15
25 -0.15
26 0.08
27 -0.15
28 -0.15
29 0.36
3 -0.23
30 0.78
31 0.3
4 -0.57
41 0.36
45 0.37
46 0.15
47 0.15
48 0.15
49 0.15
5 -0.9
50 0.15
51 0.15
52 0.15
6 -0.73
7 -0.48
8 -0.56
9 0.34

> <PUBCHEM_EFFECTIVE_ROTOR_COUNT>
7.4

> <PUBCHEM_PHARMACOPHORE_FEATURES>
11
1 1 acceptor
1 2 acceptor
1 4 acceptor
1 5 cation
1 5 donor
1 6 donor
1 8 acceptor
5 3 7 20 26 30 rings
6 17 18 21 22 23 24 rings
6 19 20 25 26 27 28 rings
7 1 5 9 10 11 12 13 rings

> <PUBCHEM_HEAVY_ATOM_COUNT>
31

> <PUBCHEM_ATOM_DEF_STEREO_COUNT>
2

> <PUBCHEM_ATOM_UDEF_STEREO_COUNT>
0

> <PUBCHEM_BOND_DEF_STEREO_COUNT>
0

> <PUBCHEM_BOND_UDEF_STEREO_COUNT>
0

> <PUBCHEM_ISOTOPIC_ATOM_COUNT>
0

> <PUBCHEM_COMPONENT_COUNT>
1

> <PUBCHEM_CACTVS_TAUTO_COUNT>
10

> <PUBCHEM_CONFORMER_ID>
070C691C00000001

> <PUBCHEM_MMFF94_ENERGY>
86.5815

> <PUBCHEM_FEATURE_SELFOVERLAP>
55.949

> <PUBCHEM_SHAPE_FINGERPRINT>
10838868 158 17752221727614610923
11135926 11 18339347669655489652
11136131 41 18335129917730228930
117089 54 18411986819340085331
11719270 70 18339636845819967120
11963148 33 18266450095651955295
12107183 9 17983869878238737705
12293681 25 17968678105980333128
1361 2 18338517550881404362
14675020 138 18129649937609567616
14910302 57 18113330886918619029
15019793 15 18268425914253618791
15320467 1 17905890627837292131
15419008 42 18117251732398438685
15537594 2 17846215617623237021
17492 89 18339078164652210768
17909252 39 18411700976038211281
19315092 285 18059857238254943184
19319366 153 18271240651071792676
20567600 70 18265610979796935658
21033650 10 16660924344845462437
21267235 1 17824258431595787369
21344244 181 17559977540289504188
22956985 138 18265889161039768850
23516275 137 16699242496734530782
23559900 14 18193830453481749881
23569914 152 17835203816314995365
23572383 38 18259988188495145907
25222932 49 18271804678655485900
32027 91 18192984916102464045
345986 75 17561367253412928729
404807 78 17897743186672095426
4073 2 18410015468100820801
4280585 95 18119239567579299090
437795 96 17974297817601473083
4394409 98 16743653627059325983
439807 62 18335706010030069023
463206 1 17976549316661185506
50009960 94 18116693167337730842
5104073 3 18060140908044805889
5265222 85 17977671140808230900
59755656 215 18339080518073106689
6433294 58 18411703187904468871
7970288 3 17978508637908394778
9831232 110 18263084478560147919

> <PUBCHEM_SHAPE_MULTIPOLES>
594.56
16.17
6.04
0.99
15.99
4.85
-0.01
8.37
-0.43
-9.43
0.16
-0.17
-0.11
1.45

> <PUBCHEM_SHAPE_SELFOVERLAP>
1285.033

> <PUBCHEM_SHAPE_VOLUME>
323

> <PUBCHEM_COORDINATE_TYPE>
2
5
10

$$$$
