11821378
  -OEChem-03292013303D

 34 36  0     1  0  0  0  0  0999 V2000
   -2.8019   -1.9008    2.0741 O   0  0  0  0  0  0  0  0  0  0  0  0
   -5.3657    0.1058   -0.9474 O   0  0  0  0  0  0  0  0  0  0  0  0
    0.4168    0.4907    0.0374 N   0  0  0  0  0  0  0  0  0  0  0  0
    2.0787    1.4108    1.2046 N   0  0  0  0  0  0  0  0  0  0  0  0
    1.6767   -1.0988   -1.2992 N   0  0  0  0  0  0  0  0  0  0  0  0
    4.0621   -0.9860   -0.7958 N   0  0  0  0  0  0  0  0  0  0  0  0
    4.9630    0.5266    0.8251 N   0  0  0  0  0  0  0  0  0  0  0  0
   -1.9349   -0.1590    0.6870 C   0  0  1  0  0  0  0  0  0  0  0  0
   -0.9449    0.2335   -0.4364 C   0  0  1  0  0  0  0  0  0  0  0  0
   -3.3052    0.3971    0.2260 C   0  0  1  0  0  0  0  0  0  0  0  0
   -1.6084    1.4315   -1.0478 C   0  0  0  0  0  0  0  0  0  0  0  0
   -2.8912    1.5215   -0.6809 C   0  0  0  0  0  0  0  0  0  0  0  0
   -1.8947   -1.6468    1.0162 C   0  0  0  0  0  0  0  0  0  0  0  0
   -4.2084   -0.5849   -0.5130 C   0  0  0  0  0  0  0  0  0  0  0  0
    1.5601   -0.1308   -0.3778 C   0  0  0  0  0  0  0  0  0  0  0  0
    0.7800    1.4084    0.9875 C   0  0  0  0  0  0  0  0  0  0  0  0
    2.5787    0.4534    0.3580 C   0  0  0  0  0  0  0  0  0  0  0  0
    3.8696   -0.0087    0.1224 C   0  0  0  0  0  0  0  0  0  0  0  0
    2.9698   -1.4634   -1.4401 C   0  0  0  0  0  0  0  0  0  0  0  0
   -1.6851    0.3794    1.6140 H   0  0  0  0  0  0  0  0  0  0  0  0
   -0.8826   -0.5544   -1.1973 H   0  0  0  0  0  0  0  0  0  0  0  0
   -3.8455    0.8160    1.0842 H   0  0  0  0  0  0  0  0  0  0  0  0
   -1.1219    2.1193   -1.7249 H   0  0  0  0  0  0  0  0  0  0  0  0
   -3.5623    2.2972   -1.0223 H   0  0  0  0  0  0  0  0  0  0  0  0
   -0.8921   -1.9372    1.3474 H   0  0  0  0  0  0  0  0  0  0  0  0
   -2.1623   -2.2676    0.1556 H   0  0  0  0  0  0  0  0  0  0  0  0
   -4.5311   -1.3982    0.1431 H   0  0  0  0  0  0  0  0  0  0  0  0
   -3.7120   -1.0153   -1.3899 H   0  0  0  0  0  0  0  0  0  0  0  0
    0.0648    2.0497    1.4846 H   0  0  0  0  0  0  0  0  0  0  0  0
   -2.7546   -2.8521    2.2700 H   0  0  0  0  0  0  0  0  0  0  0  0
   -5.9261   -0.5377   -1.4136 H   0  0  0  0  0  0  0  0  0  0  0  0
    3.1609   -2.2447   -2.1679 H   0  0  0  0  0  0  0  0  0  0  0  0
    5.8915    0.1741    0.6363 H   0  0  0  0  0  0  0  0  0  0  0  0
    4.8220    1.2559    1.5110 H   0  0  0  0  0  0  0  0  0  0  0  0
  1 13  1  0  0  0  0
  1 30  1  0  0  0  0
  2 14  1  0  0  0  0
  2 31  1  0  0  0  0
  3  9  1  0  0  0  0
  3 15  1  0  0  0  0
  3 16  1  0  0  0  0
  4 16  2  0  0  0  0
  4 17  1  0  0  0  0
  5 15  2  0  0  0  0
  5 19  1  0  0  0  0
  6 18  1  0  0  0  0
  6 19  2  0  0  0  0
  7 18  1  0  0  0  0
  7 33  1  0  0  0  0
  7 34  1  0  0  0  0
  8  9  1  0  0  0  0
  8 10  1  0  0  0  0
  8 13  1  0  0  0  0
  8 20  1  0  0  0  0
  9 11  1  0  0  0  0
  9 21  1  0  0  0  0
 10 12  1  0  0  0  0
 10 14  1  0  0  0  0
 10 22  1  0  0  0  0
 11 12  2  0  0  0  0
 11 23  1  0  0  0  0
 12 24  1  0  0  0  0
 13 25  1  0  0  0  0
 13 26  1  0  0  0  0
 14 27  1  0  0  0  0
 14 28  1  0  0  0  0
 15 17  1  0  0  0  0
 16 29  1  0  0  0  0
 17 18  2  0  0  0  0
 19 32  1  0  0  0  0
M  END
> <PUBCHEM_COMPOUND_CID>
11821378

> <PUBCHEM_CONFORMER_RMSD>
0.6

> <PUBCHEM_CONFORMER_DIVERSEORDER>
5
102
46
87
128
13
133
136
119
122
130
94
117
81
34
27
132
88
26
116
85
50
109
113
4
112
115
93
99
84
69
53
56
96
131
105
114
12
21
121
118
107
31
75
125
135
71
62
120
36
103
2
127
83
43
68
124
35
74
106
100
64
110
1
41
63
70
89
123
10
126
86
28
8
111
134
40
32
25
44
76
49
17
82
22
65
14
66
52
104
29
67
51
16
60
11
37
42
23
58
55
95
129
92
30
19
73
80
18
3
108
97
59
7
79
48
91
15
45
98
20
90
9
24
72
78
33
6
61
101
54
47
38
77
57
39

> <PUBCHEM_MMFF94_PARTIAL_CHARGES>
26
1 -0.68
10 0.14
11 -0.29
12 -0.29
13 0.28
14 0.28
15 0.11
16 0.04
17 0.23
18 0.41
19 0.47
2 -0.68
23 0.15
24 0.15
29 0.15
3 0.05
30 0.4
31 0.4
32 0.15
33 0.4
34 0.4
4 -0.57
5 -0.57
6 -0.62
7 -0.9
9 0.39

> <PUBCHEM_EFFECTIVE_ROTOR_COUNT>
3.6

> <PUBCHEM_PHARMACOPHORE_FEATURES>
12
1 1 acceptor
1 1 donor
1 2 acceptor
1 2 donor
1 7 cation
1 7 donor
3 3 4 16 cation
3 3 5 15 cation
3 5 6 19 cation
5 3 4 15 16 17 rings
5 8 9 10 11 12 rings
6 5 6 15 17 18 19 rings

> <PUBCHEM_HEAVY_ATOM_COUNT>
19

> <PUBCHEM_ATOM_DEF_STEREO_COUNT>
0

> <PUBCHEM_ATOM_UDEF_STEREO_COUNT>
3

> <PUBCHEM_BOND_DEF_STEREO_COUNT>
0

> <PUBCHEM_BOND_UDEF_STEREO_COUNT>
0

> <PUBCHEM_ISOTOPIC_ATOM_COUNT>
0

> <PUBCHEM_COMPONENT_COUNT>
1

> <PUBCHEM_CACTVS_TAUTO_COUNT>
3

> <PUBCHEM_CONFORMER_ID>
00B4614200000005

> <PUBCHEM_MMFF94_ENERGY>
41.7384

> <PUBCHEM_FEATURE_SELFOVERLAP>
61.501

> <PUBCHEM_SHAPE_FINGERPRINT>
10366900 7 18412827992599458068
11471102 20 17917709098103603572
11615757 297 16917069970664561862
12236239 1 15791447127851489201
12596602 18 15626220247070345626
13296908 3 18130229259502923678
13538477 17 16805323322852927617
14115302 16 17313106366871842103
14386348 63 18412547617171447818
15219456 202 18343581815655730084
15375358 24 18412825780907636922
15375462 189 16200423650694212172
15635459 17 18201725015936955094
16752209 62 17385994045397995853
16945 1 17822016393535637065
19049666 15 18268153054310253912
19862831 5 15791733018128329319
200 152 17275381015195779541
20279233 1 18410859858359458130
20600515 1 18040154032777218061
20645476 183 15719396148696167827
20645477 70 17917712349499426598
21267235 1 17489874804446807886
23402539 116 18187070759437440733
23526113 38 18341613681230964706
23557571 272 17751369588379219913
23559900 14 18187089438508732126
3286 77 17989484130485516397
33824 294 18060135423429259502
4175511 318 16515682243529465495
474 4 16055452050793178768
5104073 3 17775003427715048818
69090 78 18273207612838481095
77492 1 15626224606625479940
9709674 26 18411985745207377679

> <PUBCHEM_SHAPE_MULTIPOLES>
354.37
8.96
1.64
1.4
0.04
0.2
-0.24
1.04
0.98
-0.31
-0.23
-0.24
0.43
1.85

> <PUBCHEM_SHAPE_SELFOVERLAP>
769.81

> <PUBCHEM_SHAPE_VOLUME>
191.3

> <PUBCHEM_COORDINATE_TYPE>
2
5
10

$$$$
