11820542
  -OEChem-03292013303D

 25 25  0     0  0  0  0  0  0999 V2000
    2.9610    0.3245    1.4269 O   0  0  0  0  0  0  0  0  0  0  0  0
   -1.8634   -2.6974    0.3302 O   0  5  0  0  0  0  0  0  0  0  0  0
   -0.0780   -1.5982   -0.3342 O   0  0  0  0  0  0  0  0  0  0  0  0
    4.1152   -1.4778   -0.2228 O   0  0  0  0  0  0  0  0  0  0  0  0
   -1.5168    0.8086    0.2272 N   0  0  0  0  0  0  0  0  0  0  0  0
   -3.3244   -0.3674   -0.2465 N   0  0  0  0  0  0  0  0  0  0  0  0
   -1.2979   -1.6174   -0.0037 N   0  3  0  0  0  0  0  0  0  0  0  0
    3.4685   -0.3408   -0.7254 N   0  0  0  0  0  0  0  0  0  0  0  0
   -0.1241    1.1253    0.5208 C   0  0  0  0  0  0  0  0  0  0  0  0
    0.7263    1.4081   -0.7231 C   0  0  0  0  0  0  0  0  0  0  0  0
    2.2042    1.6740   -0.4331 C   0  0  0  0  0  0  0  0  0  0  0  0
   -2.0329   -0.4262   -0.0084 C   0  0  0  0  0  0  0  0  0  0  0  0
   -2.5225    1.7175    0.1377 C   0  0  0  0  0  0  0  0  0  0  0  0
    2.9206    0.5012    0.2120 C   0  0  0  0  0  0  0  0  0  0  0  0
   -3.6358    0.9662   -0.1575 C   0  0  0  0  0  0  0  0  0  0  0  0
   -0.1359    2.0171    1.1608 H   0  0  0  0  0  0  0  0  0  0  0  0
    0.2837    0.3213    1.1401 H   0  0  0  0  0  0  0  0  0  0  0  0
    0.6462    0.5765   -1.4323 H   0  0  0  0  0  0  0  0  0  0  0  0
    0.3124    2.2823   -1.2420 H   0  0  0  0  0  0  0  0  0  0  0  0
    2.3061    2.5352    0.2380 H   0  0  0  0  0  0  0  0  0  0  0  0
    2.7148    1.9448   -1.3652 H   0  0  0  0  0  0  0  0  0  0  0  0
   -2.3759    2.7789    0.2815 H   0  0  0  0  0  0  0  0  0  0  0  0
   -4.6456    1.3180   -0.3107 H   0  0  0  0  0  0  0  0  0  0  0  0
    3.5415   -0.1717   -1.7220 H   0  0  0  0  0  0  0  0  0  0  0  0
    3.3964   -2.1289   -0.2922 H   0  0  0  0  0  0  0  0  0  0  0  0
  1 14  2  0  0  0  0
  2  7  1  0  0  0  0
  3  7  2  0  0  0  0
  4  8  1  0  0  0  0
  4 25  1  0  0  0  0
  5  9  1  0  0  0  0
  5 12  1  0  0  0  0
  5 13  1  0  0  0  0
  6 12  2  0  0  0  0
  6 15  1  0  0  0  0
  7 12  1  0  0  0  0
  8 14  1  0  0  0  0
  8 24  1  0  0  0  0
  9 10  1  0  0  0  0
  9 16  1  0  0  0  0
  9 17  1  0  0  0  0
 10 11  1  0  0  0  0
 10 18  1  0  0  0  0
 10 19  1  0  0  0  0
 11 14  1  0  0  0  0
 11 20  1  0  0  0  0
 11 21  1  0  0  0  0
 13 15  2  0  0  0  0
 13 22  1  0  0  0  0
 15 23  1  0  0  0  0
M  CHG  2   2  -1   7   1
M  END
> <PUBCHEM_COMPOUND_CID>
11820542

> <PUBCHEM_CONFORMER_RMSD>
0.6

> <PUBCHEM_CONFORMER_DIVERSEORDER>
4
56
49
38
81
92
55
94
91
105
27
63
71
87
68
34
79
103
99
98
86
77
90
41
19
48
89
85
76
96
54
43
84
47
80
20
9
25
67
59
70
23
69
10
95
5
83
66
24
8
40
82
72
12
57
28
26
18
36
78
75
50
1
100
17
29
65
93
73
14
42
22
61
53
3
11
35
13
88
74
31
101
15
37
32
52
64
21
44
97
60
102
51
104
7
39
58
30
2
33
16
46
45
62
6

> <PUBCHEM_MMFF94_PARTIAL_CHARGES>
18
1 -0.57
11 0.06
12 0.27
13 -0.3
14 0.57
15 0.08
2 -0.52
22 0.15
23 0.15
24 0.37
25 0.4
3 -0.52
4 -0.44
5 0.05
6 -0.57
7 0.96
8 -0.39
9 0.26

> <PUBCHEM_EFFECTIVE_ROTOR_COUNT>
6

> <PUBCHEM_PHARMACOPHORE_FEATURES>
6
1 1 acceptor
1 2 acceptor
1 3 acceptor
1 8 donor
4 5 6 7 12 cation
5 5 6 12 13 15 rings

> <PUBCHEM_HEAVY_ATOM_COUNT>
15

> <PUBCHEM_ATOM_DEF_STEREO_COUNT>
0

> <PUBCHEM_ATOM_UDEF_STEREO_COUNT>
0

> <PUBCHEM_BOND_DEF_STEREO_COUNT>
0

> <PUBCHEM_BOND_UDEF_STEREO_COUNT>
0

> <PUBCHEM_ISOTOPIC_ATOM_COUNT>
0

> <PUBCHEM_COMPONENT_COUNT>
1

> <PUBCHEM_CACTVS_TAUTO_COUNT>
3

> <PUBCHEM_CONFORMER_ID>
00B45DFE00000004

> <PUBCHEM_MMFF94_ENERGY>
24.8627

> <PUBCHEM_FEATURE_SELFOVERLAP>
30.526

> <PUBCHEM_SHAPE_FINGERPRINT>
10062212 137 18201149984414402055
11458722 379 18338241440540678222
12500047 106 18341888615094029856
12592029 89 18188493471807333865
12716758 59 18341610447184030617
13380535 76 18412826872124768335
14144814 61 18335702762370252432
14993402 34 18260827077122710365
17804303 29 18341618088036189180
18511873 20 18334859407008036612
18522853 266 18336830908629172748
20645476 183 17749682881723382951
23402539 116 18271798021931417541
23463225 33 18407760322116760476
23552423 10 17755864469476316989
23559900 14 18272366495244436344
2748010 2 17836076046362350913
57812782 119 17346315968859188212
74978 22 18335987561767642852
9709674 26 18342175626161947590

> <PUBCHEM_SHAPE_MULTIPOLES>
265.29
6.69
2.23
0.81
3.18
1.14
-0.12
0.41
0.17
-0.66
0.06
0.48
-0.12
0.08

> <PUBCHEM_SHAPE_SELFOVERLAP>
538.489

> <PUBCHEM_SHAPE_VOLUME>
154.1

> <PUBCHEM_COORDINATE_TYPE>
2
5
10

$$$$
