11821571
  -OEChem-03292013303D

 32 34  0     1  0  0  0  0  0999 V2000
   -2.2911   -0.1918    0.8942 O   0  0  0  0  0  0  0  0  0  0  0  0
   -3.3258    2.5544   -0.0644 O   0  0  0  0  0  0  0  0  0  0  0  0
   -4.3931   -2.0227    0.6831 O   0  0  0  0  0  0  0  0  0  0  0  0
    4.2270   -1.8874   -0.2900 O   0  0  0  0  0  0  0  0  0  0  0  0
    3.5433    2.6574    0.3759 O   0  0  0  0  0  0  0  0  0  0  0  0
   -0.0781   -0.3541    0.0551 N   0  0  0  0  0  0  0  0  0  0  0  0
    1.6841    1.3040    0.2388 N   0  0  0  0  0  0  0  0  0  0  0  0
    3.8716    0.3887    0.0441 N   0  0  0  0  0  0  0  0  0  0  0  0
   -1.2397    0.5135    0.2121 C   0  0  1  0  0  0  0  0  0  0  0  0
   -1.8277    1.0159   -1.0986 C   0  0  0  0  0  0  0  0  0  0  0  0
   -3.2629    1.2826   -0.7062 C   0  0  1  0  0  0  0  0  0  0  0  0
   -3.5561    0.1831    0.3092 C   0  0  1  0  0  0  0  0  0  0  0  0
   -4.1666   -1.0572   -0.3287 C   0  0  0  0  0  0  0  0  0  0  0  0
    1.2350    0.0216    0.0700 C   0  0  0  0  0  0  0  0  0  0  0  0
   -0.1305   -1.7183   -0.1379 C   0  0  0  0  0  0  0  0  0  0  0  0
    2.0265   -1.0839   -0.1105 C   0  0  0  0  0  0  0  0  0  0  0  0
    1.1626   -2.1952   -0.2435 C   0  0  0  0  0  0  0  0  0  0  0  0
    3.4609   -0.9431   -0.1332 C   0  0  0  0  0  0  0  0  0  0  0  0
    3.0605    1.5324    0.2303 C   0  0  0  0  0  0  0  0  0  0  0  0
   -0.9476    1.3427    0.8657 H   0  0  0  0  0  0  0  0  0  0  0  0
   -1.7883    0.2365   -1.8689 H   0  0  0  0  0  0  0  0  0  0  0  0
   -1.2948    1.8974   -1.4682 H   0  0  0  0  0  0  0  0  0  0  0  0
   -3.9520    1.3037   -1.5545 H   0  0  0  0  0  0  0  0  0  0  0  0
   -4.1936    0.5343    1.1285 H   0  0  0  0  0  0  0  0  0  0  0  0
   -3.4909   -1.5007   -1.0669 H   0  0  0  0  0  0  0  0  0  0  0  0
   -5.1212   -0.8206   -0.8086 H   0  0  0  0  0  0  0  0  0  0  0  0
   -1.0759   -2.2409   -0.1912 H   0  0  0  0  0  0  0  0  0  0  0  0
   -2.8362    2.5101    0.7738 H   0  0  0  0  0  0  0  0  0  0  0  0
    1.4399   -3.2283   -0.4004 H   0  0  0  0  0  0  0  0  0  0  0  0
    1.0310    2.0701    0.3611 H   0  0  0  0  0  0  0  0  0  0  0  0
   -4.7832   -2.8027    0.2531 H   0  0  0  0  0  0  0  0  0  0  0  0
    4.8749    0.5514    0.0376 H   0  0  0  0  0  0  0  0  0  0  0  0
  1  9  1  0  0  0  0
  1 12  1  0  0  0  0
  2 11  1  0  0  0  0
  2 28  1  0  0  0  0
  3 13  1  0  0  0  0
  3 31  1  0  0  0  0
  4 18  2  0  0  0  0
  5 19  2  0  0  0  0
  6  9  1  0  0  0  0
  6 14  1  0  0  0  0
  6 15  1  0  0  0  0
  7 14  1  0  0  0  0
  7 19  1  0  0  0  0
  7 30  1  0  0  0  0
  8 18  1  0  0  0  0
  8 19  1  0  0  0  0
  8 32  1  0  0  0  0
  9 10  1  0  0  0  0
  9 20  1  0  0  0  0
 10 11  1  0  0  0  0
 10 21  1  0  0  0  0
 10 22  1  0  0  0  0
 11 12  1  0  0  0  0
 11 23  1  0  0  0  0
 12 13  1  0  0  0  0
 12 24  1  0  0  0  0
 13 25  1  0  0  0  0
 13 26  1  0  0  0  0
 14 16  2  0  0  0  0
 15 17  2  0  0  0  0
 15 27  1  0  0  0  0
 16 17  1  0  0  0  0
 16 18  1  0  0  0  0
 17 29  1  0  0  0  0
M  END
> <PUBCHEM_COMPOUND_CID>
11821571

> <PUBCHEM_CONFORMER_RMSD>
0.6

> <PUBCHEM_CONFORMER_DIVERSEORDER>
1
12
6
13
11
5
8
10
9
2
3
4
7

> <PUBCHEM_MMFF94_PARTIAL_CHARGES>
24
1 -0.56
11 0.28
12 0.28
13 0.28
14 -0.09
15 -0.3
16 -0.09
17 -0.15
18 0.72
19 0.69
2 -0.68
27 0.15
28 0.4
29 0.15
3 -0.68
30 0.37
31 0.4
32 0.37
4 -0.57
5 -0.57
6 0.05
7 -0.49
8 -0.49
9 0.54

> <PUBCHEM_EFFECTIVE_ROTOR_COUNT>
3

> <PUBCHEM_PHARMACOPHORE_FEATURES>
13
1 1 acceptor
1 2 acceptor
1 2 donor
1 3 acceptor
1 3 donor
1 4 acceptor
1 5 acceptor
1 6 cation
1 7 donor
1 8 donor
5 1 9 10 11 12 rings
5 6 14 15 16 17 rings
6 7 8 14 16 18 19 rings

> <PUBCHEM_HEAVY_ATOM_COUNT>
19

> <PUBCHEM_ATOM_DEF_STEREO_COUNT>
3

> <PUBCHEM_ATOM_UDEF_STEREO_COUNT>
0

> <PUBCHEM_BOND_DEF_STEREO_COUNT>
0

> <PUBCHEM_BOND_UDEF_STEREO_COUNT>
0

> <PUBCHEM_ISOTOPIC_ATOM_COUNT>
0

> <PUBCHEM_COMPONENT_COUNT>
1

> <PUBCHEM_CACTVS_TAUTO_COUNT>
9

> <PUBCHEM_CONFORMER_ID>
00B4620300000001

> <PUBCHEM_MMFF94_ENERGY>
39.0853

> <PUBCHEM_FEATURE_SELFOVERLAP>
66.118

> <PUBCHEM_SHAPE_FINGERPRINT>
10366900 7 17822016388961244690
10608611 8 18336543833036278381
11405975 8 18338234860597819097
11471102 20 18340483362040040628
11615757 297 18202286887584195835
12403259 226 18408318861312809660
12403259 415 18408041814189061260
12403260 363 18409438189771970306
12500047 106 18116711803659075277
12507557 5 18341045220924023872
12916754 54 18413110558840889763
13140716 1 18337386045994988544
13583140 156 17459725125712684730
13675066 3 17988915639934385074
14289901 80 18413665816486603147
15196674 1 18411136926525500380
15219456 202 18408321068778274157
16945 1 18270684156359102326
18175812 5 18334294236561616439
18186145 218 18202571657069815168
19591789 44 18411136948138084638
19930381 70 18195523920706956193
200 152 18131343099442363935
20449540 30 18272371949715537953
20645477 70 18272083851371645398
20681677 76 18335696148299717853
21065198 57 18337953389889643117
21524375 3 18341330114763397170
21709351 56 18341325600541694974
221490 88 18410860953534180434
22854114 111 18412262835328239204
22854114 59 18411982489695844937
23402539 116 17095526140960089990
23557571 272 17603867763393937237
23559900 14 18266733593542100378
25 1 18337388215206368710
2748010 2 18339931527609797758
2838139 119 15194703754198290376
2871803 45 18334850637191538719
3286 77 18408040697766336494
350125 39 18411142454153685070
4214541 1 18338517439481299233
5104073 3 18410573968013832857
5283173 99 18041825248234604613
6333272 397 18337388356840088624
77779 3 18411419501240802557
81228 2 17333909341507303370
9709674 26 18410859824126827055

> <PUBCHEM_SHAPE_MULTIPOLES>
346.72
8.57
2.53
0.77
1.45
0.46
0.06
0.02
-0.24
-0.54
-0.03
0.39
0.04
0.91

> <PUBCHEM_SHAPE_SELFOVERLAP>
753.808

> <PUBCHEM_SHAPE_VOLUME>
187.4

> <PUBCHEM_COORDINATE_TYPE>
2
5
10

$$$$
