118328
  -OEChem-03292013323D

 48 50  0     1  0  0  0  0  0999 V2000
   -1.3408   -0.7375   -0.7209 O   0  0  0  0  0  0  0  0  0  0  0  0
   -0.6322    1.2293    0.3532 O   0  0  0  0  0  0  0  0  0  0  0  0
   -3.4535   -1.5524    2.0870 O   0  0  0  0  0  0  0  0  0  0  0  0
   -4.2246   -2.9623   -0.1518 O   0  0  0  0  0  0  0  0  0  0  0  0
   -0.3987   -2.9264   -2.0813 O   0  0  0  0  0  0  0  0  0  0  0  0
   -4.8015    2.5190    1.2701 O   0  0  0  0  0  0  0  0  0  0  0  0
    3.6467   -0.5118    1.5460 O   0  0  0  0  0  0  0  0  0  0  0  0
    5.6908   -1.3530    2.1316 O   0  0  0  0  0  0  0  0  0  0  0  0
   -3.3895    1.3457   -0.1608 N   0  0  0  0  0  0  0  0  0  0  0  0
   -2.8579    0.4107    0.8097 C   0  0  1  0  0  0  0  0  0  0  0  0
   -3.7396   -0.8417    0.8804 C   0  0  1  0  0  0  0  0  0  0  0  0
   -3.5216   -1.7412   -0.3450 C   0  0  1  0  0  0  0  0  0  0  0  0
   -2.0292   -1.9889   -0.6077 C   0  0  1  0  0  0  0  0  0  0  0  0
   -1.4036    0.0366    0.4771 C   0  0  1  0  0  0  0  0  0  0  0  0
   -1.7930   -2.7498   -1.9092 C   0  0  0  0  0  0  0  0  0  0  0  0
   -4.3180    2.3203    0.1587 C   0  0  0  0  0  0  0  0  0  0  0  0
    0.6972    1.0735    0.0679 C   0  0  0  0  0  0  0  0  0  0  0  0
    1.5116    0.3646    0.9383 C   0  0  0  0  0  0  0  0  0  0  0  0
    1.2239    1.6268   -1.0932 C   0  0  0  0  0  0  0  0  0  0  0  0
   -4.6812    3.1709   -1.0289 C   0  0  0  0  0  0  0  0  0  0  0  0
    2.8647    0.2177    0.6281 C   0  0  0  0  0  0  0  0  0  0  0  0
    3.4276    0.7596   -0.5284 C   0  0  0  0  0  0  0  0  0  0  0  0
    2.5825    1.4710   -1.3906 C   0  0  0  0  0  0  0  0  0  0  0  0
    4.8614    0.5557   -0.7752 C   0  0  0  0  0  0  0  0  0  0  0  0
    5.5806   -0.1421    0.1151 C   0  0  0  0  0  0  0  0  0  0  0  0
    5.4966    1.1259   -2.0096 C   0  0  0  0  0  0  0  0  0  0  0  0
    5.0013   -0.7203    1.3394 C   0  0  0  0  0  0  0  0  0  0  0  0
   -2.8614    0.9172    1.7836 H   0  0  0  0  0  0  0  0  0  0  0  0
   -4.7988   -0.5635    0.9432 H   0  0  0  0  0  0  0  0  0  0  0  0
   -3.9532   -1.2417   -1.2219 H   0  0  0  0  0  0  0  0  0  0  0  0
   -1.5795   -2.5639    0.2127 H   0  0  0  0  0  0  0  0  0  0  0  0
   -1.0057   -0.5630    1.3063 H   0  0  0  0  0  0  0  0  0  0  0  0
   -2.1578   -2.1793   -2.7693 H   0  0  0  0  0  0  0  0  0  0  0  0
   -2.2771   -3.7310   -1.9054 H   0  0  0  0  0  0  0  0  0  0  0  0
   -3.0938    1.2452   -1.1278 H   0  0  0  0  0  0  0  0  0  0  0  0
   -3.9928   -2.3615    2.0821 H   0  0  0  0  0  0  0  0  0  0  0  0
   -5.1628   -2.7437   -0.0187 H   0  0  0  0  0  0  0  0  0  0  0  0
   -0.0733   -3.4571   -1.3343 H   0  0  0  0  0  0  0  0  0  0  0  0
    1.1211   -0.0599    1.8583 H   0  0  0  0  0  0  0  0  0  0  0  0
    0.5860    2.1816   -1.7760 H   0  0  0  0  0  0  0  0  0  0  0  0
   -5.5051    3.8399   -0.7657 H   0  0  0  0  0  0  0  0  0  0  0  0
   -3.8162    3.7683   -1.3301 H   0  0  0  0  0  0  0  0  0  0  0  0
   -4.9957    2.5372   -1.8631 H   0  0  0  0  0  0  0  0  0  0  0  0
    2.9574    1.9178   -2.3078 H   0  0  0  0  0  0  0  0  0  0  0  0
    6.6425   -0.3122   -0.0353 H   0  0  0  0  0  0  0  0  0  0  0  0
    6.5668    0.8963   -2.0618 H   0  0  0  0  0  0  0  0  0  0  0  0
    5.3995    2.2166   -2.0287 H   0  0  0  0  0  0  0  0  0  0  0  0
    5.0337    0.7122   -2.9119 H   0  0  0  0  0  0  0  0  0  0  0  0
  1 13  1  0  0  0  0
  1 14  1  0  0  0  0
  2 14  1  0  0  0  0
  2 17  1  0  0  0  0
  3 11  1  0  0  0  0
  3 36  1  0  0  0  0
  4 12  1  0  0  0  0
  4 37  1  0  0  0  0
  5 15  1  0  0  0  0
  5 38  1  0  0  0  0
  6 16  2  0  0  0  0
  7 21  1  0  0  0  0
  7 27  1  0  0  0  0
  8 27  2  0  0  0  0
  9 10  1  0  0  0  0
  9 16  1  0  0  0  0
  9 35  1  0  0  0  0
 10 11  1  0  0  0  0
 10 14  1  0  0  0  0
 10 28  1  0  0  0  0
 11 12  1  0  0  0  0
 11 29  1  0  0  0  0
 12 13  1  0  0  0  0
 12 30  1  0  0  0  0
 13 15  1  0  0  0  0
 13 31  1  0  0  0  0
 14 32  1  0  0  0  0
 15 33  1  0  0  0  0
 15 34  1  0  0  0  0
 16 20  1  0  0  0  0
 17 18  2  0  0  0  0
 17 19  1  0  0  0  0
 18 21  1  0  0  0  0
 18 39  1  0  0  0  0
 19 23  2  0  0  0  0
 19 40  1  0  0  0  0
 20 41  1  0  0  0  0
 20 42  1  0  0  0  0
 20 43  1  0  0  0  0
 21 22  2  0  0  0  0
 22 23  1  0  0  0  0
 22 24  1  0  0  0  0
 23 44  1  0  0  0  0
 24 25  2  0  0  0  0
 24 26  1  0  0  0  0
 25 27  1  0  0  0  0
 25 45  1  0  0  0  0
 26 46  1  0  0  0  0
 26 47  1  0  0  0  0
 26 48  1  0  0  0  0
M  END
> <PUBCHEM_COMPOUND_CID>
118328

> <PUBCHEM_CONFORMER_RMSD>
1

> <PUBCHEM_CONFORMER_DIVERSEORDER>
4
234
136
73
155
177
298
315
164
346
102
96
112
344
252
307
120
85
75
331
103
266
243
295
268
74
347
69
116
263
81
200
173
48
301
50
271
192
52
34
286
65
299
176
321
329
71
171
288
285
64
308
119
68
297
238
128
152
101
349
265
351
94
55
257
95
44
22
246
82
205
133
51
36
186
245
111
239
115
110
174
137
284
208
316
341
13
135
46
225
354
43
226
144
62
147
320
227
269
317
89
343
35
327
291
214
335
32
3
122
165
106
333
338
251
70
261
273
113
63
290
159
163
33
117
66
206
309
233
276
303
248
312
131
197
274
39
222
323
260
141
91
187
262
229
294
189
154
157
29
259
79
267
49
202
272
325
24
129
83
158
278
97
134
105
199
26
11
175
241
2
5
142
293
151
12
18
203
270
340
28
311
232
92
162
107
125
302
40
314
16
61
305
84
256
168
1
219
47
280
104
201
210
149
8
190
236
300
153
60
30
58
78
53
9
150
23
15
247
356
345
193
138
218
207
124
230
21
7
118
204
67
224
17
145
254
182
181
160
328
108
100
72
282
156
54
169
336
27
143
76
42
195
235
109
277
198
126
342
14
87
183
318
250
242
90
306
161
196
313
20
99
38
130
279
244
194
146
296
123
31
170
184
319
213
223
98
188
19
10
339
211
264
330
59
337
139
127
228
166
216
93
25
287
221
45
6
334
191
80
57
178
140
172
326
56
121
283
253
281
88
217
148
332
352
231
275
41
132
249
167
185
114
37
77
220
255
292
215
212
209
237
310
86
289
179
350
322
258
324
240
180
353
304
355
348

> <PUBCHEM_MMFF94_PARTIAL_CHARGES>
35
1 -0.56
10 0.3
11 0.28
12 0.28
13 0.28
14 0.56
15 0.28
16 0.57
17 0.08
18 -0.15
19 -0.15
2 -0.36
20 0.06
21 0.08
22 0.03
23 -0.15
24 -0.17
25 -0.14
26 0.14
27 0.71
3 -0.68
35 0.37
36 0.4
37 0.4
38 0.4
39 0.15
4 -0.68
40 0.15
44 0.15
45 0.15
5 -0.68
6 -0.57
7 -0.23
8 -0.57
9 -0.73

> <PUBCHEM_EFFECTIVE_ROTOR_COUNT>
6.2

> <PUBCHEM_PHARMACOPHORE_FEATURES>
14
1 1 acceptor
1 2 acceptor
1 3 acceptor
1 3 donor
1 4 acceptor
1 4 donor
1 5 acceptor
1 5 donor
1 6 acceptor
1 8 acceptor
1 9 donor
6 1 10 11 12 13 14 rings
6 17 18 19 21 22 23 rings
6 7 21 22 24 25 27 rings

> <PUBCHEM_HEAVY_ATOM_COUNT>
27

> <PUBCHEM_ATOM_DEF_STEREO_COUNT>
0

> <PUBCHEM_ATOM_UDEF_STEREO_COUNT>
5

> <PUBCHEM_BOND_DEF_STEREO_COUNT>
0

> <PUBCHEM_BOND_UDEF_STEREO_COUNT>
0

> <PUBCHEM_ISOTOPIC_ATOM_COUNT>
0

> <PUBCHEM_COMPONENT_COUNT>
1

> <PUBCHEM_CACTVS_TAUTO_COUNT>
2

> <PUBCHEM_CONFORMER_ID>
0001CE3800000004

> <PUBCHEM_MMFF94_ENERGY>
84.4802

> <PUBCHEM_FEATURE_SELFOVERLAP>
71.134

> <PUBCHEM_SHAPE_FINGERPRINT>
105312 117 18341332185138432037
11135926 11 17095242532555576282
11796584 16 18341615880744687362
12107183 9 17751636550846372280
12236239 1 18186526492312526216
12422481 6 18341324480088629742
12597179 24 18270963419691140199
12616971 3 17603581899024096224
12633257 1 17417259877798142283
13073987 5 17967537904201841208
13167823 11 18261678159652921716
13583140 156 17203033158514529624
13726171 33 18055099746015946844
14294032 229 18343029853178614017
15250474 111 18186797011102056250
15439362 3 17837775526361975501
15484559 13 15441526187103216892
16752209 62 18271796969490051151
17844677 252 18341615974933807528
1813 80 18260547849067841758
20511986 3 18260536810838789296
20554085 129 17702090379798545441
20600515 1 17775010072051133016
21033648 29 17704356545713378632
22182313 1 17916606270734870775
23559900 14 17632308860966738868
23598288 3 18409167753135510471
268830 7 16877940538471936960
4015057 19 15195275456625316042
497634 4 17095808818965467155
508706 21 18272943738495481119
5104073 3 18260831514130233728
5281201 14 15068617193732161318
5385378 56 17914629263144723323
559249 180 18336539430589155730
59755656 520 16845026636735721259
602551 16 17846502594990902902
633830 44 17095242501720756576
9862522 239 18342457028567280431
9981440 41 18129382601606549017

> <PUBCHEM_SHAPE_MULTIPOLES>
503.71
13.08
3.14
1.84
9.5
0.42
0.12
-2.34
-2.11
-5.73
1.34
1.15
0.8
-2.07

> <PUBCHEM_SHAPE_SELFOVERLAP>
1071.704

> <PUBCHEM_SHAPE_VOLUME>
277.7

> <PUBCHEM_COORDINATE_TYPE>
2
5
10

$$$$
