11834379
  -OEChem-03292013303D

 28 29  0     1  0  0  0  0  0999 V2000
    0.4642    1.2372    0.5444 S   0  0  0  0  0  0  0  0  0  0  0  0
    0.4755    2.5890    0.0144 O   0  0  0  0  0  0  0  0  0  0  0  0
    0.7898    0.9928    1.9382 O   0  0  0  0  0  0  0  0  0  0  0  0
    2.8256   -2.9267    0.0120 O   0  0  0  0  0  0  0  0  0  0  0  0
    1.4100    0.2304   -0.4432 N   0  0  2  0  0  0  0  0  0  0  0  0
    1.2771   -1.1844   -0.2063 N   0  0  0  0  0  0  0  0  0  0  0  0
    3.3211    1.7635   -0.5781 N   0  0  0  0  0  0  0  0  0  0  0  0
   -1.1431    0.5642    0.2458 C   0  0  0  0  0  0  0  0  0  0  0  0
    2.8189    0.5128   -0.4364 C   0  0  0  0  0  0  0  0  0  0  0  0
   -1.9057    1.0728   -0.7912 C   0  0  0  0  0  0  0  0  0  0  0  0
   -1.6089   -0.4581    1.0543 C   0  0  0  0  0  0  0  0  0  0  0  0
    3.4810   -0.6464   -0.3029 C   0  0  0  0  0  0  0  0  0  0  0  0
    2.5216   -1.7579   -0.1446 C   0  0  0  0  0  0  0  0  0  0  0  0
   -3.6598   -0.4879   -0.2226 C   0  0  0  0  0  0  0  0  0  0  0  0
   -3.1741    0.5426   -1.0271 C   0  0  0  0  0  0  0  0  0  0  0  0
   -2.8773   -0.9883    0.8182 C   0  0  0  0  0  0  0  0  0  0  0  0
   -5.0159   -1.0554   -0.4749 C   0  0  0  0  0  0  0  0  0  0  0  0
    0.3802   -1.6506   -0.1881 H   0  0  0  0  0  0  0  0  0  0  0  0
   -1.5422    1.8695   -1.4328 H   0  0  0  0  0  0  0  0  0  0  0  0
   -1.0147   -0.8632    1.8676 H   0  0  0  0  0  0  0  0  0  0  0  0
    4.5507   -0.7798   -0.2756 H   0  0  0  0  0  0  0  0  0  0  0  0
   -3.7744    0.9408   -1.8409 H   0  0  0  0  0  0  0  0  0  0  0  0
   -3.2453   -1.7904    1.4526 H   0  0  0  0  0  0  0  0  0  0  0  0
    2.6921    2.5441   -0.7144 H   0  0  0  0  0  0  0  0  0  0  0  0
    4.3227    1.9089   -0.5849 H   0  0  0  0  0  0  0  0  0  0  0  0
   -5.7658   -0.5084    0.1051 H   0  0  0  0  0  0  0  0  0  0  0  0
   -5.2792   -0.9933   -1.5364 H   0  0  0  0  0  0  0  0  0  0  0  0
   -5.0594   -2.1138   -0.1959 H   0  0  0  0  0  0  0  0  0  0  0  0
  1  2  2  0  0  0  0
  1  3  2  0  0  0  0
  1  5  1  0  0  0  0
  1  8  1  0  0  0  0
  4 13  2  0  0  0  0
  5  6  1  0  0  0  0
  5  9  1  0  0  0  0
  6 13  1  0  0  0  0
  6 18  1  0  0  0  0
  7  9  1  0  0  0  0
  7 24  1  0  0  0  0
  7 25  1  0  0  0  0
  8 10  2  0  0  0  0
  8 11  1  0  0  0  0
  9 12  2  0  0  0  0
 10 15  1  0  0  0  0
 10 19  1  0  0  0  0
 11 16  2  0  0  0  0
 11 20  1  0  0  0  0
 12 13  1  0  0  0  0
 12 21  1  0  0  0  0
 14 15  2  0  0  0  0
 14 16  1  0  0  0  0
 14 17  1  0  0  0  0
 15 22  1  0  0  0  0
 16 23  1  0  0  0  0
 17 26  1  0  0  0  0
 17 27  1  0  0  0  0
 17 28  1  0  0  0  0
M  END
> <PUBCHEM_COMPOUND_CID>
11834379

> <PUBCHEM_CONFORMER_RMSD>
0.6

> <PUBCHEM_CONFORMER_DIVERSEORDER>
3
4
1
2
5

> <PUBCHEM_MMFF94_PARTIAL_CHARGES>
25
1 1.45
10 -0.15
11 -0.15
12 -0.14
13 0.62
14 -0.14
15 -0.15
16 -0.15
17 0.14
18 0.37
19 0.15
2 -0.65
20 0.15
21 0.15
22 0.15
23 0.15
24 0.4
25 0.4
3 -0.65
4 -0.57
5 -0.41
6 -0.35
7 -0.9
8 -0.01
9 0.29

> <PUBCHEM_EFFECTIVE_ROTOR_COUNT>
2

> <PUBCHEM_PHARMACOPHORE_FEATURES>
8
1 2 acceptor
1 3 acceptor
1 4 acceptor
1 6 donor
1 7 cation
1 7 donor
5 5 6 9 12 13 rings
6 8 10 11 14 15 16 rings

> <PUBCHEM_HEAVY_ATOM_COUNT>
17

> <PUBCHEM_ATOM_DEF_STEREO_COUNT>
0

> <PUBCHEM_ATOM_UDEF_STEREO_COUNT>
0

> <PUBCHEM_BOND_DEF_STEREO_COUNT>
0

> <PUBCHEM_BOND_UDEF_STEREO_COUNT>
0

> <PUBCHEM_ISOTOPIC_ATOM_COUNT>
0

> <PUBCHEM_COMPONENT_COUNT>
1

> <PUBCHEM_CACTVS_TAUTO_COUNT>
5

> <PUBCHEM_CONFORMER_ID>
00B4940B00000003

> <PUBCHEM_MMFF94_ENERGY>
33.4033

> <PUBCHEM_FEATURE_SELFOVERLAP>
40.614

> <PUBCHEM_SHAPE_FINGERPRINT>
12251169 10 10519984859325858277
12616999 72 18334859458621315524
13083527 12 18263631906216801466
13296908 3 18411699846482767999
13675066 3 13542469787017645775
13705890 14 18333449833190768676
14251717 144 18412545443949755071
15375358 24 18113899415712362193
15375462 189 17989201564296806391
16945 1 18339370763325316264
18186145 218 17240770540473115841
200 152 18343864398512398510
20201158 50 18334861623089822619
20279233 1 18114185262818152091
20281475 54 18342459218705221651
20361792 2 17418087698389949921
20645477 70 18411419505477988255
20671657 53 18263932025319619774
21452121 199 18264193743425449154
21501502 16 18340775831816849241
2255824 54 17916021450386029913
22802520 49 18113624494998377945
23402539 116 17603855698266573020
23526113 38 18259704497388890851
23557571 272 17530958086082866485
23559900 14 18263354811900913162
2871803 45 18408044017591595750
3323516 105 18335699464209538671
33824 294 18339079397175981882
4990 188 17967526896421947403
7364860 26 18266738176362109705
83771 10 18343584053512961273
94968 8 18272933846869013726
9709674 26 18260553303054178695

> <PUBCHEM_SHAPE_MULTIPOLES>
321.15
7.52
2.19
1.07
4.24
0.39
0.35
2.97
-1.94
-1.99
-0.04
0.3
-0.22
0.25

> <PUBCHEM_SHAPE_SELFOVERLAP>
673.513

> <PUBCHEM_SHAPE_VOLUME>
181.9

> <PUBCHEM_COORDINATE_TYPE>
2
5
10

$$$$
