11844239
  -OEChem-03292013303D

 46 47  0     0  0  0  0  0  0999 V2000
   -0.4354   -0.4249   -0.7246 O   0  0  0  0  0  0  0  0  0  0  0  0
   -0.5198    4.1116    0.8161 O   0  0  0  0  0  0  0  0  0  0  0  0
    2.0368    1.3957   -2.3980 O   0  0  0  0  0  0  0  0  0  0  0  0
    1.6026    2.8187    0.5938 O   0  0  0  0  0  0  0  0  0  0  0  0
    3.0933   -2.3937    1.4704 O   0  0  0  0  0  0  0  0  0  0  0  0
    1.7669   -0.9830    3.0942 O   0  0  0  0  0  0  0  0  0  0  0  0
   -2.5076    0.7455   -0.5386 C   0  0  0  0  0  0  0  0  0  0  0  0
   -0.4498    1.8396    0.0465 C   0  0  0  0  0  0  0  0  0  0  0  0
    1.8143    0.6083   -0.1412 C   0  0  0  0  0  0  0  0  0  0  0  0
   -1.1268    0.7085   -0.4097 C   0  0  0  0  0  0  0  0  0  0  0  0
   -3.2586   -0.4669   -1.0298 C   0  0  0  0  0  0  0  0  0  0  0  0
    1.0018    1.8155    0.1881 C   0  0  0  0  0  0  0  0  0  0  0  0
    2.0660   -0.3262    0.8410 C   0  0  0  0  0  0  0  0  0  0  0  0
   -1.1610    2.9954    0.3686 C   0  0  0  0  0  0  0  0  0  0  0  0
   -3.2263    1.8893   -0.2214 C   0  0  0  0  0  0  0  0  0  0  0  0
    2.2883    0.4704   -1.4291 C   0  0  0  0  0  0  0  0  0  0  0  0
    3.3181   -1.6146   -0.7744 C   0  0  0  0  0  0  0  0  0  0  0  0
    2.8267   -1.4507    0.5208 C   0  0  0  0  0  0  0  0  0  0  0  0
   -2.5493    3.0202    0.2346 C   0  0  0  0  0  0  0  0  0  0  0  0
    3.0489   -0.6539   -1.7493 C   0  0  0  0  0  0  0  0  0  0  0  0
   -3.6774   -1.3738    0.0930 C   0  0  0  0  0  0  0  0  0  0  0  0
   -3.8246   -2.7122    0.0646 C   0  0  0  0  0  0  0  0  0  0  0  0
    4.1335   -2.8119   -1.1374 C   0  0  0  0  0  0  0  0  0  0  0  0
    1.5571   -0.1637    2.1996 C   0  0  0  0  0  0  0  0  0  0  0  0
   -4.2483   -3.5634    1.2278 C   0  0  0  0  0  0  0  0  0  0  0  0
   -3.5698   -3.4796   -1.2056 C   0  0  0  0  0  0  0  0  0  0  0  0
   -4.1699   -0.1258   -1.5401 H   0  0  0  0  0  0  0  0  0  0  0  0
   -2.6782   -0.9740   -1.8065 H   0  0  0  0  0  0  0  0  0  0  0  0
   -4.3078    1.9210   -0.3193 H   0  0  0  0  0  0  0  0  0  0  0  0
   -3.1094    3.9173    0.4844 H   0  0  0  0  0  0  0  0  0  0  0  0
    3.4270   -0.7727   -2.7618 H   0  0  0  0  0  0  0  0  0  0  0  0
   -3.9065   -0.8791    1.0371 H   0  0  0  0  0  0  0  0  0  0  0  0
    3.5561   -3.7311   -0.9930 H   0  0  0  0  0  0  0  0  0  0  0  0
    4.4401   -2.7880   -2.1891 H   0  0  0  0  0  0  0  0  0  0  0  0
    5.0490   -2.8525   -0.5378 H   0  0  0  0  0  0  0  0  0  0  0  0
    0.9646    0.7348    2.4302 H   0  0  0  0  0  0  0  0  0  0  0  0
   -1.0128   -1.2030   -0.6824 H   0  0  0  0  0  0  0  0  0  0  0  0
   -4.4043   -2.9632    2.1302 H   0  0  0  0  0  0  0  0  0  0  0  0
   -5.1869   -4.0799    1.0031 H   0  0  0  0  0  0  0  0  0  0  0  0
   -3.4807   -4.3109    1.4521 H   0  0  0  0  0  0  0  0  0  0  0  0
   -3.5525   -2.8627   -2.1067 H   0  0  0  0  0  0  0  0  0  0  0  0
   -2.6179   -4.0159   -1.1346 H   0  0  0  0  0  0  0  0  0  0  0  0
   -4.3645   -4.2182   -1.3615 H   0  0  0  0  0  0  0  0  0  0  0  0
    0.3711    3.8975    1.1306 H   0  0  0  0  0  0  0  0  0  0  0  0
    1.5330    2.1425   -2.0372 H   0  0  0  0  0  0  0  0  0  0  0  0
    3.6291   -3.1175    1.1116 H   0  0  0  0  0  0  0  0  0  0  0  0
  1 10  1  0  0  0  0
  1 37  1  0  0  0  0
  2 14  1  0  0  0  0
  2 44  1  0  0  0  0
  3 16  1  0  0  0  0
  3 45  1  0  0  0  0
  4 12  2  0  0  0  0
  5 18  1  0  0  0  0
  5 46  1  0  0  0  0
  6 24  2  0  0  0  0
  7 10  2  0  0  0  0
  7 11  1  0  0  0  0
  7 15  1  0  0  0  0
  8 10  1  0  0  0  0
  8 12  1  0  0  0  0
  8 14  2  0  0  0  0
  9 12  1  0  0  0  0
  9 13  1  0  0  0  0
  9 16  2  0  0  0  0
 11 21  1  0  0  0  0
 11 27  1  0  0  0  0
 11 28  1  0  0  0  0
 13 18  2  0  0  0  0
 13 24  1  0  0  0  0
 14 19  1  0  0  0  0
 15 19  2  0  0  0  0
 15 29  1  0  0  0  0
 16 20  1  0  0  0  0
 17 18  1  0  0  0  0
 17 20  2  0  0  0  0
 17 23  1  0  0  0  0
 19 30  1  0  0  0  0
 20 31  1  0  0  0  0
 21 22  2  0  0  0  0
 21 32  1  0  0  0  0
 22 25  1  0  0  0  0
 22 26  1  0  0  0  0
 23 33  1  0  0  0  0
 23 34  1  0  0  0  0
 23 35  1  0  0  0  0
 24 36  1  0  0  0  0
 25 38  1  0  0  0  0
 25 39  1  0  0  0  0
 25 40  1  0  0  0  0
 26 41  1  0  0  0  0
 26 42  1  0  0  0  0
 26 43  1  0  0  0  0
M  END
> <PUBCHEM_COMPOUND_CID>
11844239

> <PUBCHEM_CONFORMER_RMSD>
0.8

> <PUBCHEM_CONFORMER_DIVERSEORDER>
2
71
53
23
73
61
45
63
34
30
67
58
66
40
16
44
43
57
11
31
8
15
72
62
22
5
9
48
37
69
70
65
19
20
52
49
32
68
54
4
41
1
42
10
24
56
60
13
50
39
59
33
17
46
6
18
25
28
35
3
7
64
14
36
55
12
21
51
26
29
47
27
38

> <PUBCHEM_MMFF94_PARTIAL_CHARGES>
35
1 -0.53
10 0.08
11 0.28
12 0.4
13 0.09
14 0.08
15 -0.15
16 0.08
17 -0.14
18 0.08
19 -0.15
2 -0.53
20 -0.15
21 -0.29
22 -0.28
23 0.14
24 0.42
25 0.14
26 0.14
29 0.15
3 -0.53
30 0.15
31 0.15
32 0.15
36 0.06
37 0.45
4 -0.57
44 0.45
45 0.45
46 0.45
5 -0.53
6 -0.57
7 -0.14
8 0.09
9 0.09

> <PUBCHEM_EFFECTIVE_ROTOR_COUNT>
5

> <PUBCHEM_PHARMACOPHORE_FEATURES>
9
1 1 donor
1 2 donor
1 3 donor
1 4 acceptor
1 5 donor
1 6 acceptor
3 22 25 26 hydrophobe
6 7 8 10 14 15 19 rings
6 9 13 16 17 18 20 rings

> <PUBCHEM_HEAVY_ATOM_COUNT>
26

> <PUBCHEM_ATOM_DEF_STEREO_COUNT>
0

> <PUBCHEM_ATOM_UDEF_STEREO_COUNT>
0

> <PUBCHEM_BOND_DEF_STEREO_COUNT>
0

> <PUBCHEM_BOND_UDEF_STEREO_COUNT>
0

> <PUBCHEM_ISOTOPIC_ATOM_COUNT>
0

> <PUBCHEM_COMPONENT_COUNT>
1

> <PUBCHEM_CACTVS_TAUTO_COUNT>
315

> <PUBCHEM_CONFORMER_ID>
00B4BA8F00000002

> <PUBCHEM_MMFF94_ENERGY>
91.0748

> <PUBCHEM_FEATURE_SELFOVERLAP>
45.672

> <PUBCHEM_SHAPE_FINGERPRINT>
10928967 22 18263370351030397619
11421498 54 18046079403828081557
114674 6 17686058696996157275
12236239 1 17682978595601669548
12553582 1 18196090169405965231
12633257 1 15841544167684825326
12788726 201 18336275565363584291
13140716 1 18343584027738292105
14251757 5 18267311923730879519
14787075 74 17973726075622623188
14863182 85 17472986572032362237
15003188 105 17682378588454537219
15664445 248 17315633173874365005
16752209 62 17977653213556617677
17909252 39 18267320870517424634
20567600 347 17973441302406408772
20600515 1 18195785415358292280
20645477 70 17692237957008133663
20775530 9 18333731346907159463
21197605 99 15958652434174768851
21421861 104 18264483073955502801
23184049 29 18411688894474730445
23379529 103 18270979946298930518
23559900 14 18342448214709248869
238 59 17534068741721378587
2818148 4 18267892586377401193
3737641 26 18194702559724258167
86090 222 16594504269541763659

> <PUBCHEM_SHAPE_MULTIPOLES>
499.85
7.64
4.77
1.88
2.94
0.47
-0.77
-8.38
1.11
3.91
-0.6
-1.67
-0.76
0.16

> <PUBCHEM_SHAPE_SELFOVERLAP>
1084.762

> <PUBCHEM_SHAPE_VOLUME>
273.3

> <PUBCHEM_COORDINATE_TYPE>
2
5
10

$$$$
