118598754
  -OEChem-03292013293D

 45 48  0     0  0  0  0  0  0999 V2000
   -3.1969   -3.1877   -0.0331 O   0  0  0  0  0  0  0  0  0  0  0  0
   -0.4424    1.9559   -0.1625 O   0  0  0  0  0  0  0  0  0  0  0  0
   -1.5373   -0.0919   -0.1099 N   0  0  0  0  0  0  0  0  0  0  0  0
   -3.6805   -0.9015    0.0701 N   0  0  0  0  0  0  0  0  0  0  0  0
    2.0125    0.7856   -0.4185 N   0  0  0  0  0  0  0  0  0  0  0  0
    3.4843   -0.3353    1.0575 N   0  0  0  0  0  0  0  0  0  0  0  0
    5.8651   -0.0628    0.8021 N   0  0  0  0  0  0  0  0  0  0  0  0
    6.7182    1.3326   -0.9295 N   0  0  0  0  0  0  0  0  0  0  0  0
   -2.9450    0.3580    0.0330 C   0  0  0  0  0  0  0  0  0  0  0  0
   -3.1577    1.1264    1.3518 C   0  0  0  0  0  0  0  0  0  0  0  0
   -3.3949    1.1901   -1.1838 C   0  0  0  0  0  0  0  0  0  0  0  0
   -4.8135    1.7398   -1.0264 C   0  0  0  0  0  0  0  0  0  0  0  0
   -4.5781    1.6771    1.4877 C   0  0  0  0  0  0  0  0  0  0  0  0
   -4.9762    2.5149    0.2771 C   0  0  0  0  0  0  0  0  0  0  0  0
   -1.4817   -1.4751   -0.1496 C   0  0  0  0  0  0  0  0  0  0  0  0
   -2.8609   -2.0179   -0.0346 C   0  0  0  0  0  0  0  0  0  0  0  0
   -0.4185    0.7265   -0.1943 C   0  0  0  0  0  0  0  0  0  0  0  0
   -0.3212   -2.1340   -0.2742 C   0  0  0  0  0  0  0  0  0  0  0  0
    0.8972    0.0049   -0.3344 C   0  0  0  0  0  0  0  0  0  0  0  0
    0.8923   -1.3388   -0.3674 C   0  0  0  0  0  0  0  0  0  0  0  0
   -0.1232   -3.6186   -0.3296 C   0  0  0  0  0  0  0  0  0  0  0  0
    3.3141    0.4909    0.0045 C   0  0  0  0  0  0  0  0  0  0  0  0
    4.3554    1.0711   -0.6908 C   0  0  0  0  0  0  0  0  0  0  0  0
    5.6219    0.7552   -0.2430 C   0  0  0  0  0  0  0  0  0  0  0  0
    4.7668   -0.5656    1.3977 C   0  0  0  0  0  0  0  0  0  0  0  0
   -2.4589    1.9692    1.4150 H   0  0  0  0  0  0  0  0  0  0  0  0
   -2.9375    0.4811    2.2120 H   0  0  0  0  0  0  0  0  0  0  0  0
   -2.7162    2.0384   -1.3332 H   0  0  0  0  0  0  0  0  0  0  0  0
   -3.3408    0.5894   -2.1008 H   0  0  0  0  0  0  0  0  0  0  0  0
   -4.6468    2.2887    2.3948 H   0  0  0  0  0  0  0  0  0  0  0  0
   -5.2879    0.8506    1.6118 H   0  0  0  0  0  0  0  0  0  0  0  0
   -5.5376    0.9170   -1.0574 H   0  0  0  0  0  0  0  0  0  0  0  0
   -5.0465    2.3951   -1.8736 H   0  0  0  0  0  0  0  0  0  0  0  0
   -6.0165    2.8429    0.3826 H   0  0  0  0  0  0  0  0  0  0  0  0
   -4.3583    3.4207    0.2418 H   0  0  0  0  0  0  0  0  0  0  0  0
   -4.6895   -0.9646    0.1627 H   0  0  0  0  0  0  0  0  0  0  0  0
    1.8215   -1.8906   -0.4850 H   0  0  0  0  0  0  0  0  0  0  0  0
    0.5236   -3.9475    0.4915 H   0  0  0  0  0  0  0  0  0  0  0  0
    0.3509   -3.9047   -1.2751 H   0  0  0  0  0  0  0  0  0  0  0  0
   -1.0525   -4.1851   -0.2522 H   0  0  0  0  0  0  0  0  0  0  0  0
    1.8487    1.7610   -0.6484 H   0  0  0  0  0  0  0  0  0  0  0  0
    4.1890    1.7321   -1.5338 H   0  0  0  0  0  0  0  0  0  0  0  0
    4.9326   -1.2259    2.2400 H   0  0  0  0  0  0  0  0  0  0  0  0
    6.6040    1.5698   -1.9073 H   0  0  0  0  0  0  0  0  0  0  0  0
    7.6449    1.0925   -0.5997 H   0  0  0  0  0  0  0  0  0  0  0  0
  1 16  2  0  0  0  0
  2 17  2  0  0  0  0
  3  9  1  0  0  0  0
  3 15  1  0  0  0  0
  3 17  1  0  0  0  0
  4  9  1  0  0  0  0
  4 16  1  0  0  0  0
  4 36  1  0  0  0  0
  5 19  1  0  0  0  0
  5 22  1  0  0  0  0
  5 41  1  0  0  0  0
  6 22  2  0  0  0  0
  6 25  1  0  0  0  0
  7 24  1  0  0  0  0
  7 25  2  0  0  0  0
  8 24  1  0  0  0  0
  8 44  1  0  0  0  0
  8 45  1  0  0  0  0
  9 10  1  0  0  0  0
  9 11  1  0  0  0  0
 10 13  1  0  0  0  0
 10 26  1  0  0  0  0
 10 27  1  0  0  0  0
 11 12  1  0  0  0  0
 11 28  1  0  0  0  0
 11 29  1  0  0  0  0
 12 14  1  0  0  0  0
 12 32  1  0  0  0  0
 12 33  1  0  0  0  0
 13 14  1  0  0  0  0
 13 30  1  0  0  0  0
 13 31  1  0  0  0  0
 14 34  1  0  0  0  0
 14 35  1  0  0  0  0
 15 16  1  0  0  0  0
 15 18  2  0  0  0  0
 17 19  1  0  0  0  0
 18 20  1  0  0  0  0
 18 21  1  0  0  0  0
 19 20  2  0  0  0  0
 20 37  1  0  0  0  0
 21 38  1  0  0  0  0
 21 39  1  0  0  0  0
 21 40  1  0  0  0  0
 22 23  1  0  0  0  0
 23 24  2  0  0  0  0
 23 42  1  0  0  0  0
 25 43  1  0  0  0  0
M  END
> <PUBCHEM_COMPOUND_CID>
118598754

> <PUBCHEM_CONFORMER_RMSD>
0.6

> <PUBCHEM_CONFORMER_DIVERSEORDER>
1
26
33
28
38
17
32
42
4
19
15
39
27
11
25
2
37
41
14
31
40
16
13
36
10
34
3
8
20
18
23
9
5
24
12
21
35
6
7
22
29
30

> <PUBCHEM_MMFF94_PARTIAL_CHARGES>
27
1 -0.57
15 0.12
16 0.62
17 0.62
18 -0.14
19 0.11
2 -0.57
20 -0.15
21 0.14
22 0.41
23 -0.15
24 0.41
25 0.47
3 -0.47
36 0.37
37 0.15
4 -0.73
41 0.4
42 0.15
43 0.15
44 0.4
45 0.4
5 -0.6
6 -0.62
7 -0.62
8 -0.9
9 0.6

> <PUBCHEM_EFFECTIVE_ROTOR_COUNT>
3.2

> <PUBCHEM_PHARMACOPHORE_FEATURES>
12
1 1 acceptor
1 2 acceptor
1 4 donor
1 5 donor
1 8 cation
1 8 donor
3 5 6 22 cation
3 6 7 25 cation
5 3 4 9 15 16 rings
6 3 15 17 18 19 20 rings
6 6 7 22 23 24 25 rings
6 9 10 11 12 13 14 rings

> <PUBCHEM_HEAVY_ATOM_COUNT>
25

> <PUBCHEM_ATOM_DEF_STEREO_COUNT>
0

> <PUBCHEM_ATOM_UDEF_STEREO_COUNT>
0

> <PUBCHEM_BOND_DEF_STEREO_COUNT>
0

> <PUBCHEM_BOND_UDEF_STEREO_COUNT>
0

> <PUBCHEM_ISOTOPIC_ATOM_COUNT>
0

> <PUBCHEM_COMPONENT_COUNT>
1

> <PUBCHEM_CACTVS_TAUTO_COUNT>
43

> <PUBCHEM_CONFORMER_ID>
0711AC6200000001

> <PUBCHEM_MMFF94_ENERGY>
79.0798

> <PUBCHEM_FEATURE_SELFOVERLAP>
61.127

> <PUBCHEM_SHAPE_FINGERPRINT>
10 15 18187938265643426505
10366900 7 17703782596354006464
10411042 1 17835241529922673943
10493431 412 18340778048600047329
11315181 36 18338799022064424400
12107183 9 18190733142765685738
12236239 1 18113616807539583548
12390115 104 18342749515207239099
12403259 415 18059854021308406056
12422481 6 17895749583001035118
12616971 3 17603862300353830800
12633257 1 18410854352322544260
12788726 201 18120650494422600090
13140716 1 18340486767801907129
13540713 4 18196394562491970343
14068700 675 18127116697157395063
14178342 30 18412554201868022099
14790565 3 18408890659089050668
15042514 8 18050853522303886655
15196674 1 18409165515626601158
17093844 174 18413105087326854968
17980427 23 17822015319556346183
19489759 90 17632572738660746713
19784866 170 18337114470912464277
204376 136 18410856521301601527
20554085 129 17987215773498773273
20600515 1 18200889429939215972
21033648 29 17131825495744841602
21065198 48 18187921811760696450
21236236 1 18411417345383536967
21279426 13 18200606804406609982
21756936 100 17417544527346333865
22182313 1 18058469684603633199
23402539 116 18343576352483742532
23559900 14 18200888283788921446
23569917 315 18412823556258159087
25147074 1 18116164444041332237
283562 15 18339078319598873531
350125 39 18338802329252298985
4214541 1 18409165549801443932
5104073 3 18334288808282273400
5385378 56 18197222455691410347
559249 180 18335132099314892066
58807428 26 18337111172341067282
59755656 215 18198346161291938550
6327066 14 18262232227777947597
7226269 152 18131072614833874560
9981440 41 18411700963691873195

> <PUBCHEM_SHAPE_MULTIPOLES>
472.86
13.11
3.02
1.1
16.15
2.76
-0.24
-8.82
-0.95
-3.29
0.28
-0.14
-0.39
-0.9

> <PUBCHEM_SHAPE_SELFOVERLAP>
1032.724

> <PUBCHEM_SHAPE_VOLUME>
252.9

> <PUBCHEM_COORDINATE_TYPE>
2
5
10

$$$$
