118701545
  -OEChem-03292013293D

 53 55  0     1  0  0  0  0  0999 V2000
    3.9085    0.4368    0.6493 O   0  0  0  0  0  0  0  0  0  0  0  0
    1.9058    2.3351    0.7196 O   0  0  0  0  0  0  0  0  0  0  0  0
    3.8317   -1.6661    2.7857 O   0  0  0  0  0  0  0  0  0  0  0  0
   -1.4031    0.1353   -0.3417 O   0  0  0  0  0  0  0  0  0  0  0  0
    1.0406    4.4575    0.7850 O   0  0  0  0  0  0  0  0  0  0  0  0
   -3.1608   -0.0481   -1.8178 O   0  0  0  0  0  0  0  0  0  0  0  0
   -6.8739   -1.0020    1.0741 O   0  0  0  0  0  0  0  0  0  0  0  0
    3.2891   -0.8547    0.6177 C   0  0  1  0  0  0  0  0  0  0  0  0
    2.7630    0.3215   -0.2086 C   0  0  1  0  0  0  0  0  0  0  0  0
    1.5150    1.0606    0.1675 C   0  0  2  0  0  0  0  0  0  0  0  0
    0.6172    1.3775   -1.0460 C   0  0  1  0  0  0  0  0  0  0  0  0
    4.0037   -1.9325   -0.1649 C   0  0  0  0  0  0  0  0  0  0  0  0
    2.7579   -1.2342    1.9670 C   0  0  0  0  0  0  0  0  0  0  0  0
   -0.5095    0.3768   -1.4248 C   0  0  1  0  0  0  0  0  0  0  0  0
    3.0094   -2.9262   -0.8008 C   0  0  0  0  0  0  0  0  0  0  0  0
    0.1250    2.7392   -0.6427 C   0  0  0  0  0  0  0  0  0  0  0  0
   -0.1041   -0.9526   -2.1075 C   0  0  0  0  0  0  0  0  0  0  0  0
    1.0372    3.3159    0.3615 C   0  0  0  0  0  0  0  0  0  0  0  0
    1.9878   -2.1894   -1.6271 C   0  0  0  0  0  0  0  0  0  0  0  0
    0.7001   -1.9532   -1.3040 C   0  0  0  0  0  0  0  0  0  0  0  0
   -0.9528    3.4247   -1.0370 C   0  0  0  0  0  0  0  0  0  0  0  0
   -0.0247   -2.6429   -0.1817 C   0  0  0  0  0  0  0  0  0  0  0  0
   -2.7082   -0.0621   -0.6818 C   0  0  0  0  0  0  0  0  0  0  0  0
   -3.5175   -0.2946    0.5530 C   0  0  0  0  0  0  0  0  0  0  0  0
   -3.0496    0.3249    1.8365 C   0  0  0  0  0  0  0  0  0  0  0  0
   -4.6010   -1.0798    0.4058 C   0  0  0  0  0  0  0  0  0  0  0  0
   -5.5868   -1.4674    1.4639 C   0  0  0  0  0  0  0  0  0  0  0  0
    2.9973    0.3940   -1.2632 H   0  0  0  0  0  0  0  0  0  0  0  0
    0.9473    0.5292    0.9386 H   0  0  0  0  0  0  0  0  0  0  0  0
    1.2418    1.5281   -1.9378 H   0  0  0  0  0  0  0  0  0  0  0  0
    4.7001   -2.4796    0.4808 H   0  0  0  0  0  0  0  0  0  0  0  0
    4.6160   -1.4801   -0.9564 H   0  0  0  0  0  0  0  0  0  0  0  0
    2.0323   -2.0477    1.8871 H   0  0  0  0  0  0  0  0  0  0  0  0
    2.2768   -0.3915    2.4725 H   0  0  0  0  0  0  0  0  0  0  0  0
   -1.0678    0.9008   -2.2145 H   0  0  0  0  0  0  0  0  0  0  0  0
    2.5510   -3.5287   -0.0128 H   0  0  0  0  0  0  0  0  0  0  0  0
    3.5538   -3.6246   -1.4467 H   0  0  0  0  0  0  0  0  0  0  0  0
    0.4417   -0.6941   -3.0253 H   0  0  0  0  0  0  0  0  0  0  0  0
   -1.0079   -1.4732   -2.4507 H   0  0  0  0  0  0  0  0  0  0  0  0
    2.4033   -1.6825   -2.4975 H   0  0  0  0  0  0  0  0  0  0  0  0
    3.4537   -1.9176    3.6455 H   0  0  0  0  0  0  0  0  0  0  0  0
   -1.6410    3.0268   -1.7737 H   0  0  0  0  0  0  0  0  0  0  0  0
   -1.1811    4.4088   -0.6406 H   0  0  0  0  0  0  0  0  0  0  0  0
   -0.1364   -1.9716    0.6744 H   0  0  0  0  0  0  0  0  0  0  0  0
    0.4734   -3.5529    0.1601 H   0  0  0  0  0  0  0  0  0  0  0  0
   -1.0243   -2.9481   -0.5103 H   0  0  0  0  0  0  0  0  0  0  0  0
   -2.1992   -0.2335    2.2410 H   0  0  0  0  0  0  0  0  0  0  0  0
   -3.8262    0.3655    2.6034 H   0  0  0  0  0  0  0  0  0  0  0  0
   -2.7319    1.3595    1.6644 H   0  0  0  0  0  0  0  0  0  0  0  0
   -4.8244   -1.4950   -0.5764 H   0  0  0  0  0  0  0  0  0  0  0  0
   -5.3585   -1.0627    2.4513 H   0  0  0  0  0  0  0  0  0  0  0  0
   -5.6240   -2.5588    1.5420 H   0  0  0  0  0  0  0  0  0  0  0  0
   -7.5023   -1.2989    1.7543 H   0  0  0  0  0  0  0  0  0  0  0  0
  1  8  1  0  0  0  0
  1  9  1  0  0  0  0
  2 10  1  0  0  0  0
  2 18  1  0  0  0  0
  3 13  1  0  0  0  0
  3 41  1  0  0  0  0
  4 14  1  0  0  0  0
  4 23  1  0  0  0  0
  5 18  2  0  0  0  0
  6 23  2  0  0  0  0
  7 27  1  0  0  0  0
  7 53  1  0  0  0  0
  8  9  1  0  0  0  0
  8 12  1  0  0  0  0
  8 13  1  0  0  0  0
  9 10  1  0  0  0  0
  9 28  1  0  0  0  0
 10 11  1  0  0  0  0
 10 29  1  0  0  0  0
 11 14  1  0  0  0  0
 11 16  1  0  0  0  0
 11 30  1  0  0  0  0
 12 15  1  0  0  0  0
 12 31  1  0  0  0  0
 12 32  1  0  0  0  0
 13 33  1  0  0  0  0
 13 34  1  0  0  0  0
 14 17  1  0  0  0  0
 14 35  1  0  0  0  0
 15 19  1  0  0  0  0
 15 36  1  0  0  0  0
 15 37  1  0  0  0  0
 16 18  1  0  0  0  0
 16 21  2  0  0  0  0
 17 20  1  0  0  0  0
 17 38  1  0  0  0  0
 17 39  1  0  0  0  0
 19 20  2  0  0  0  0
 19 40  1  0  0  0  0
 20 22  1  0  0  0  0
 21 42  1  0  0  0  0
 21 43  1  0  0  0  0
 22 44  1  0  0  0  0
 22 45  1  0  0  0  0
 22 46  1  0  0  0  0
 23 24  1  0  0  0  0
 24 25  1  0  0  0  0
 24 26  2  0  0  0  0
 25 47  1  0  0  0  0
 25 48  1  0  0  0  0
 25 49  1  0  0  0  0
 26 27  1  0  0  0  0
 26 50  1  0  0  0  0
 27 51  1  0  0  0  0
 27 52  1  0  0  0  0
M  END
> <PUBCHEM_COMPOUND_CID>
118701545

> <PUBCHEM_CONFORMER_RMSD>
0.8

> <PUBCHEM_CONFORMER_DIVERSEORDER>
1
11
49
18
17
54
9
10
33
30
21
55
40
57
12
32
19
44
6
50
16
28
48
35
41
8
42
56
23
24
13
53
38
22
47
51
31
7
5
26
14
45
34
27
37
25
43
46
39
3
52
20
15
4
36
2
29

> <PUBCHEM_MMFF94_PARTIAL_CHARGES>
34
1 -0.3
10 0.38
11 0.14
12 0.09
13 0.38
14 0.28
15 0.14
16 -0.12
17 0.14
18 0.71
19 -0.29
2 -0.43
20 -0.28
21 -0.3
22 0.14
23 0.71
24 -0.12
25 0.14
26 -0.29
27 0.42
28 0.1
3 -0.68
4 -0.43
40 0.15
41 0.4
42 0.15
43 0.15
5 -0.57
50 0.15
53 0.4
6 -0.57
7 -0.68
8 -0.04
9 -0.05

> <PUBCHEM_EFFECTIVE_ROTOR_COUNT>
6.2

> <PUBCHEM_PHARMACOPHORE_FEATURES>
9
1 1 acceptor
1 25 hydrophobe
1 3 acceptor
1 3 donor
1 5 acceptor
1 6 acceptor
1 7 acceptor
1 7 donor
5 2 10 11 16 18 rings

> <PUBCHEM_HEAVY_ATOM_COUNT>
27

> <PUBCHEM_ATOM_DEF_STEREO_COUNT>
4

> <PUBCHEM_ATOM_UDEF_STEREO_COUNT>
1

> <PUBCHEM_BOND_DEF_STEREO_COUNT>
2

> <PUBCHEM_BOND_UDEF_STEREO_COUNT>
0

> <PUBCHEM_ISOTOPIC_ATOM_COUNT>
0

> <PUBCHEM_COMPONENT_COUNT>
1

> <PUBCHEM_CACTVS_TAUTO_COUNT>
1

> <PUBCHEM_CONFORMER_ID>
07133DE900000001

> <PUBCHEM_MMFF94_ENERGY>
60.8724

> <PUBCHEM_FEATURE_SELFOVERLAP>
45.674

> <PUBCHEM_SHAPE_FINGERPRINT>
1100329 8 15384997669635285063
12156800 1 13681287351924639420
12422481 6 18129393605397625209
12553582 1 18341320154860754124
12633257 1 18410007779877219955
12661589 4 15866345998366633707
12788726 201 18263077726438749482
12824470 246 17386842812159982960
13140716 1 17981605175910128444
13533116 47 18262527026022148561
14363568 33 18340487867503464900
14787075 74 17968105269365831390
14790565 3 18196653128113331948
14955137 171 18269567172814721020
15420108 30 17911791685420865840
19319366 153 17969216914750595288
20739085 24 18202014191758054150
21033648 29 17560231406725662867
21304303 94 14057006044154666241
21796203 349 18411701019504881480
22182313 1 17771328783252485110
22393880 68 10881693441799513715
23559900 14 18199209406874574575
25222932 49 17968653942463365491
2748010 2 17769638825089900100
3380486 145 17842805920586011028
5283268 108 18339931415339183398
57527358 35 14907318910703926894
9981440 41 16976408212872369882

> <PUBCHEM_SHAPE_MULTIPOLES>
514.56
8.96
4.15
1.98
14.05
4.44
-0.48
-7.35
-5.43
-2.3
0.17
-0.41
-0.79
0.93

> <PUBCHEM_SHAPE_SELFOVERLAP>
1069.554

> <PUBCHEM_SHAPE_VOLUME>
290

> <PUBCHEM_COORDINATE_TYPE>
2
5
10

$$$$
