118701596
  -OEChem-03292013293D

 59 60  0     1  0  0  0  0  0999 V2000
    2.9019   -0.9572   -0.0726 O   0  0  0  0  0  0  0  0  0  0  0  0
   -0.9706    1.0345   -0.5238 O   0  0  0  0  0  0  0  0  0  0  0  0
   -4.0134   -0.7250   -1.1269 O   0  0  0  0  0  0  0  0  0  0  0  0
   -3.0240    1.0451    1.8949 O   0  0  0  0  0  0  0  0  0  0  0  0
   -3.2328   -1.9168    1.4332 O   0  0  0  0  0  0  0  0  0  0  0  0
   -2.2574    0.7004   -2.3965 O   0  0  0  0  0  0  0  0  0  0  0  0
    1.2388   -1.5074   -1.5667 O   0  0  0  0  0  0  0  0  0  0  0  0
    2.8543    2.1080    1.1644 N   0  0  1  0  0  0  0  0  0  0  0  0
    1.9710    1.2434    0.3209 C   0  0  2  0  0  0  0  0  0  0  0  0
    2.9022    0.3872   -0.5463 C   0  0  1  0  0  0  0  0  0  0  0  0
    4.2841    0.9983   -0.3764 C   0  0  0  0  0  0  0  0  0  0  0  0
    4.2256    1.6098    1.0118 C   0  0  0  0  0  0  0  0  0  0  0  0
    1.1205    2.1965   -0.4650 C   0  0  0  0  0  0  0  0  0  0  0  0
    2.6827    3.4916    0.6669 C   0  0  0  0  0  0  0  0  0  0  0  0
    1.5178    3.4543   -0.2606 C   0  0  0  0  0  0  0  0  0  0  0  0
   -0.0085    1.7389   -1.3152 C   0  0  0  0  0  0  0  0  0  0  0  0
   -3.0191   -0.1670   -0.2411 C   0  0  2  0  0  0  0  0  0  0  0  0
   -3.7780    0.8268    0.7001 C   0  0  0  0  0  0  0  0  0  0  0  0
   -2.0593    0.5623   -1.1945 C   0  0  0  0  0  0  0  0  0  0  0  0
   -2.3375   -1.3835    0.4473 C   0  0  2  0  0  0  0  0  0  0  0  0
    2.0155   -1.8093   -0.6719 C   0  0  0  0  0  0  0  0  0  0  0  0
   -3.9876    2.1977    0.0340 C   0  0  0  0  0  0  0  0  0  0  0  0
   -5.1555    0.2827    1.1230 C   0  0  0  0  0  0  0  0  0  0  0  0
   -1.8646   -2.5351   -0.4309 C   0  0  0  0  0  0  0  0  0  0  0  0
    2.1284   -3.1718   -0.0678 C   0  0  0  0  0  0  0  0  0  0  0  0
    2.4622   -4.3241   -0.9681 C   0  0  0  0  0  0  0  0  0  0  0  0
    1.8854   -3.2502    1.2535 C   0  0  0  0  0  0  0  0  0  0  0  0
    1.5178   -2.1302    2.1745 C   0  0  0  0  0  0  0  0  0  0  0  0
    1.3421    0.6432    0.9836 H   0  0  0  0  0  0  0  0  0  0  0  0
    2.6513    0.4115   -1.6139 H   0  0  0  0  0  0  0  0  0  0  0  0
    4.4444    1.7855   -1.1227 H   0  0  0  0  0  0  0  0  0  0  0  0
    5.0894    0.2621   -0.4587 H   0  0  0  0  0  0  0  0  0  0  0  0
    4.3938    0.8291    1.7638 H   0  0  0  0  0  0  0  0  0  0  0  0
    4.9910    2.3767    1.1716 H   0  0  0  0  0  0  0  0  0  0  0  0
    3.5615    3.8718    0.1331 H   0  0  0  0  0  0  0  0  0  0  0  0
    2.4778    4.1554    1.5127 H   0  0  0  0  0  0  0  0  0  0  0  0
    1.0721    4.3297   -0.7097 H   0  0  0  0  0  0  0  0  0  0  0  0
    0.3653    1.0811   -2.1075 H   0  0  0  0  0  0  0  0  0  0  0  0
   -0.5010    2.5981   -1.7868 H   0  0  0  0  0  0  0  0  0  0  0  0
   -1.4681   -1.0120    1.0027 H   0  0  0  0  0  0  0  0  0  0  0  0
   -5.0986   -0.6360    1.7086 H   0  0  0  0  0  0  0  0  0  0  0  0
   -3.0412    2.7276   -0.1176 H   0  0  0  0  0  0  0  0  0  0  0  0
   -4.5795    2.8537    0.6843 H   0  0  0  0  0  0  0  0  0  0  0  0
   -4.5131    2.1185   -0.9226 H   0  0  0  0  0  0  0  0  0  0  0  0
   -5.8255    0.1195    0.2732 H   0  0  0  0  0  0  0  0  0  0  0  0
   -5.6532    1.0023    1.7863 H   0  0  0  0  0  0  0  0  0  0  0  0
   -2.7157   -3.0681   -0.8684 H   0  0  0  0  0  0  0  0  0  0  0  0
   -1.2215   -2.1856   -1.2407 H   0  0  0  0  0  0  0  0  0  0  0  0
   -1.3120   -3.2699    0.1642 H   0  0  0  0  0  0  0  0  0  0  0  0
   -4.4448    0.0034   -1.6049 H   0  0  0  0  0  0  0  0  0  0  0  0
   -3.5128    1.6733    2.4534 H   0  0  0  0  0  0  0  0  0  0  0  0
   -2.7581   -2.6167    1.9133 H   0  0  0  0  0  0  0  0  0  0  0  0
    3.4339   -4.1618   -1.4452 H   0  0  0  0  0  0  0  0  0  0  0  0
    2.5101   -5.2678   -0.4155 H   0  0  0  0  0  0  0  0  0  0  0  0
    1.7033   -4.4284   -1.7499 H   0  0  0  0  0  0  0  0  0  0  0  0
    1.9652   -4.2273    1.7264 H   0  0  0  0  0  0  0  0  0  0  0  0
    2.4126   -1.6533    2.5844 H   0  0  0  0  0  0  0  0  0  0  0  0
    0.9392   -2.5315    3.0138 H   0  0  0  0  0  0  0  0  0  0  0  0
    0.8806   -1.3865    1.6931 H   0  0  0  0  0  0  0  0  0  0  0  0
  1 10  1  0  0  0  0
  1 21  1  0  0  0  0
  2 16  1  0  0  0  0
  2 19  1  0  0  0  0
  3 17  1  0  0  0  0
  3 50  1  0  0  0  0
  4 18  1  0  0  0  0
  4 51  1  0  0  0  0
  5 20  1  0  0  0  0
  5 52  1  0  0  0  0
  6 19  2  0  0  0  0
  7 21  2  0  0  0  0
  8  9  1  0  0  0  0
  8 12  1  0  0  0  0
  8 14  1  0  0  0  0
  9 10  1  0  0  0  0
  9 13  1  0  0  0  0
  9 29  1  0  0  0  0
 10 11  1  0  0  0  0
 10 30  1  0  0  0  0
 11 12  1  0  0  0  0
 11 31  1  0  0  0  0
 11 32  1  0  0  0  0
 12 33  1  0  0  0  0
 12 34  1  0  0  0  0
 13 15  2  0  0  0  0
 13 16  1  0  0  0  0
 14 15  1  0  0  0  0
 14 35  1  0  0  0  0
 14 36  1  0  0  0  0
 15 37  1  0  0  0  0
 16 38  1  0  0  0  0
 16 39  1  0  0  0  0
 17 18  1  0  0  0  0
 17 19  1  0  0  0  0
 17 20  1  0  0  0  0
 18 22  1  0  0  0  0
 18 23  1  0  0  0  0
 20 24  1  0  0  0  0
 20 40  1  0  0  0  0
 21 25  1  0  0  0  0
 22 42  1  0  0  0  0
 22 43  1  0  0  0  0
 22 44  1  0  0  0  0
 23 41  1  0  0  0  0
 23 45  1  0  0  0  0
 23 46  1  0  0  0  0
 24 47  1  0  0  0  0
 24 48  1  0  0  0  0
 24 49  1  0  0  0  0
 25 26  1  0  0  0  0
 25 27  2  0  0  0  0
 26 53  1  0  0  0  0
 26 54  1  0  0  0  0
 26 55  1  0  0  0  0
 27 28  1  0  0  0  0
 27 56  1  0  0  0  0
 28 57  1  0  0  0  0
 28 58  1  0  0  0  0
 28 59  1  0  0  0  0
M  END
> <PUBCHEM_COMPOUND_CID>
118701596

> <PUBCHEM_CONFORMER_RMSD>
1.2

> <PUBCHEM_CONFORMER_DIVERSEORDER>
2
149
32
22
144
61
156
63
34
125
35
28
133
86
113
131
69
9
157
50
16
128
7
80
118
77
58
120
104
67
93
3
94
114
105
98
47
15
108
36
25
100
14
96
152
42
130
23
37
71
88
24
72
97
99
135
38
76
111
4
85
165
51
17
11
83
137
141
122
60
124
20
155
121
92
8
146
29
43
57
103
54
40
139
26
154
48
44
115
126
21
30
116
158
33
163
59
91
106
142
161
70
109
101
95
46
12
160
64
164
89
75
10
90
159
136
73
151
87
53
129
117
66
102
13
82
74
140
62
49
84
147
55
45
112
143
27
145
138
39
134
81
123
5
150
41
110
119
127
18
107
6
1
56
31
148
78
79
162
52
19
153
65
132
68

> <PUBCHEM_MMFF94_PARTIAL_CHARGES>
29
1 -0.43
10 0.28
12 0.27
13 -0.28
14 0.41
15 -0.29
16 0.42
17 0.34
18 0.28
19 0.66
2 -0.43
20 0.28
21 0.71
25 -0.12
26 0.14
27 -0.29
28 0.14
3 -0.68
37 0.15
4 -0.68
5 -0.68
50 0.4
51 0.4
52 0.4
56 0.15
6 -0.57
7 -0.57
8 -0.81
9 0.41

> <PUBCHEM_EFFECTIVE_ROTOR_COUNT>
9.8

> <PUBCHEM_PHARMACOPHORE_FEATURES>
14
1 26 hydrophobe
1 28 hydrophobe
1 3 acceptor
1 3 donor
1 4 acceptor
1 4 donor
1 5 acceptor
1 5 donor
1 6 acceptor
1 7 acceptor
1 8 cation
3 18 22 23 hydrophobe
5 8 9 10 11 12 rings
5 8 9 13 14 15 rings

> <PUBCHEM_HEAVY_ATOM_COUNT>
28

> <PUBCHEM_ATOM_DEF_STEREO_COUNT>
3

> <PUBCHEM_ATOM_UDEF_STEREO_COUNT>
1

> <PUBCHEM_BOND_DEF_STEREO_COUNT>
1

> <PUBCHEM_BOND_UDEF_STEREO_COUNT>
0

> <PUBCHEM_ISOTOPIC_ATOM_COUNT>
0

> <PUBCHEM_COMPONENT_COUNT>
1

> <PUBCHEM_CACTVS_TAUTO_COUNT>
1

> <PUBCHEM_CONFORMER_ID>
07133E1C00000002

> <PUBCHEM_MMFF94_ENERGY>
66.6559

> <PUBCHEM_FEATURE_SELFOVERLAP>
71.57

> <PUBCHEM_SHAPE_FINGERPRINT>
10064457 181 18053385680454935428
10675989 125 16460763540519986028
11370993 70 18269272546178820617
114674 6 18259990348726656363
11578080 2 17315062260740119780
12422481 6 18266997524278845730
12553582 1 18196084439787333710
12633257 1 18261385689180268384
12788726 201 17545330674543170406
13140716 1 18266458891670916532
13402501 40 18187090567663241866
13533116 47 18411705357706491401
13583140 156 18343586257095506369
14178342 30 18337392767739982981
14466204 15 18411974793737072880
14790565 3 18265622172561356692
15420108 30 18200294611718510578
15635459 17 18334005086367597415
17138139 8 16907462648683590311
17909252 39 17839755764268858382
19930381 70 18338519617130140131
21421861 104 18191307061838753552
21756936 100 17412183544715282464
35225 105 17334781271471016504
3737641 26 18267595606721590076
6287921 2 18120951747591060302
7097593 13 18342182128832578613

> <PUBCHEM_SHAPE_MULTIPOLES>
530.16
8.42
4.83
1.65
6.43
2.34
0.12
-2.02
1.91
-5.05
0.22
0.5
0.4
0.64

> <PUBCHEM_SHAPE_SELFOVERLAP>
1091.33

> <PUBCHEM_SHAPE_VOLUME>
306.3

> <PUBCHEM_COORDINATE_TYPE>
2
5
10

$$$$
