118705496
  -OEChem-03292013293D

 44 47  0     1  0  0  0  0  0999 V2000
   -2.9480   -0.8663   -1.0233 O   0  0  0  0  0  0  0  0  0  0  0  0
   -1.3717   -2.6176    1.1905 O   0  0  0  0  0  0  0  0  0  0  0  0
   -4.1072   -0.3231    1.6872 O   0  0  0  0  0  0  0  0  0  0  0  0
   -5.4621   -1.5388   -2.0658 O   0  0  0  0  0  0  0  0  0  0  0  0
   -1.3516    0.7520   -0.1490 N   0  0  0  0  0  0  0  0  0  0  0  0
   -1.5712    2.9674   -0.0342 N   0  0  0  0  0  0  0  0  0  0  0  0
    1.0694    0.5689   -0.0817 N   0  0  0  0  0  0  0  0  0  0  0  0
    2.1204    2.7662    0.0728 N   0  0  0  0  0  0  0  0  0  0  0  0
    3.3961    0.8028    0.0055 N   0  0  0  0  0  0  0  0  0  0  0  0
    0.8529    4.7946    0.1437 N   0  0  0  0  0  0  0  0  0  0  0  0
   -2.0065   -1.3421    1.1278 C   0  0  1  0  0  0  0  0  0  0  0  0
   -1.7461   -0.7058   -0.2433 C   0  0  1  0  0  0  0  0  0  0  0  0
   -3.5129   -1.5095    1.1756 C   0  0  2  0  0  0  0  0  0  0  0  0
   -3.8670   -1.6953   -0.2937 C   0  0  1  0  0  0  0  0  0  0  0  0
   -5.2887   -1.3235   -0.6745 C   0  0  0  0  0  0  0  0  0  0  0  0
   -0.0835    1.2545   -0.0808 C   0  0  0  0  0  0  0  0  0  0  0  0
   -2.2099    1.8191   -0.1180 C   0  0  0  0  0  0  0  0  0  0  0  0
   -0.2415    2.6294   -0.0102 C   0  0  0  0  0  0  0  0  0  0  0  0
    0.9191    3.3926    0.0689 C   0  0  0  0  0  0  0  0  0  0  0  0
    2.1209    1.4133   -0.0016 C   0  0  0  0  0  0  0  0  0  0  0  0
    3.8072   -0.5406   -0.0555 C   0  0  0  0  0  0  0  0  0  0  0  0
    5.0299   -0.8700   -0.6402 C   0  0  0  0  0  0  0  0  0  0  0  0
    2.9921   -1.5436    0.4689 C   0  0  0  0  0  0  0  0  0  0  0  0
    5.4376   -2.2026   -0.7008 C   0  0  0  0  0  0  0  0  0  0  0  0
    3.3997   -2.8762    0.4084 C   0  0  0  0  0  0  0  0  0  0  0  0
    4.6225   -3.2058   -0.1765 C   0  0  0  0  0  0  0  0  0  0  0  0
   -1.6183   -0.7396    1.9560 H   0  0  0  0  0  0  0  0  0  0  0  0
   -0.9271   -1.1889   -0.7888 H   0  0  0  0  0  0  0  0  0  0  0  0
   -3.8497   -2.3584    1.7788 H   0  0  0  0  0  0  0  0  0  0  0  0
   -3.6550   -2.7255   -0.6076 H   0  0  0  0  0  0  0  0  0  0  0  0
   -6.0139   -1.9335   -0.1275 H   0  0  0  0  0  0  0  0  0  0  0  0
   -5.4875   -0.2638   -0.4858 H   0  0  0  0  0  0  0  0  0  0  0  0
   -0.4138   -2.4689    1.1113 H   0  0  0  0  0  0  0  0  0  0  0  0
   -3.8122   -0.2232    2.6083 H   0  0  0  0  0  0  0  0  0  0  0  0
   -3.2842    1.7043   -0.1601 H   0  0  0  0  0  0  0  0  0  0  0  0
   -6.3791   -1.2970   -2.2809 H   0  0  0  0  0  0  0  0  0  0  0  0
    4.1500    1.4790   -0.0707 H   0  0  0  0  0  0  0  0  0  0  0  0
   -0.0422    5.2646    0.1409 H   0  0  0  0  0  0  0  0  0  0  0  0
    1.7105    5.3269    0.2004 H   0  0  0  0  0  0  0  0  0  0  0  0
    5.6740   -0.0978   -1.0532 H   0  0  0  0  0  0  0  0  0  0  0  0
    2.0560   -1.3319    0.9745 H   0  0  0  0  0  0  0  0  0  0  0  0
    6.3898   -2.4592   -1.1559 H   0  0  0  0  0  0  0  0  0  0  0  0
    2.7701   -3.6566    0.8260 H   0  0  0  0  0  0  0  0  0  0  0  0
    4.9409   -4.2431   -0.2215 H   0  0  0  0  0  0  0  0  0  0  0  0
  1 12  1  0  0  0  0
  1 14  1  0  0  0  0
  2 11  1  0  0  0  0
  2 33  1  0  0  0  0
  3 13  1  0  0  0  0
  3 34  1  0  0  0  0
  4 15  1  0  0  0  0
  4 36  1  0  0  0  0
  5 12  1  0  0  0  0
  5 16  1  0  0  0  0
  5 17  1  0  0  0  0
  6 17  2  0  0  0  0
  6 18  1  0  0  0  0
  7 16  2  0  0  0  0
  7 20  1  0  0  0  0
  8 19  1  0  0  0  0
  8 20  2  0  0  0  0
  9 20  1  0  0  0  0
  9 21  1  0  0  0  0
  9 37  1  0  0  0  0
 10 19  1  0  0  0  0
 10 38  1  0  0  0  0
 10 39  1  0  0  0  0
 11 12  1  0  0  0  0
 11 13  1  0  0  0  0
 11 27  1  0  0  0  0
 12 28  1  0  0  0  0
 13 14  1  0  0  0  0
 13 29  1  0  0  0  0
 14 15  1  0  0  0  0
 14 30  1  0  0  0  0
 15 31  1  0  0  0  0
 15 32  1  0  0  0  0
 16 18  1  0  0  0  0
 17 35  1  0  0  0  0
 18 19  2  0  0  0  0
 21 22  2  0  0  0  0
 21 23  1  0  0  0  0
 22 24  1  0  0  0  0
 22 40  1  0  0  0  0
 23 25  2  0  0  0  0
 23 41  1  0  0  0  0
 24 26  2  0  0  0  0
 24 42  1  0  0  0  0
 25 26  1  0  0  0  0
 25 43  1  0  0  0  0
 26 44  1  0  0  0  0
M  END
> <PUBCHEM_COMPOUND_CID>
118705496

> <PUBCHEM_CONFORMER_RMSD>
0.8

> <PUBCHEM_CONFORMER_DIVERSEORDER>
1
51
60
77
14
20
57
69
56
62
16
71
3
9
67
89
21
5
72
45
22
73
8
53
59
10
84
33
50
86
11
19
35
36
80
70
78
13
52
61
15
48
91
23
64
58
31
42
54
83
88
90
18
25
26
63
39
75
29
74
76
32
55
87
46
4
37
34
40
7
43
66
79
49
6
41
47
82
85
17
81
65
24
12
68
38
44
30
2
28
27

> <PUBCHEM_MMFF94_PARTIAL_CHARGES>
38
1 -0.56
10 -0.9
11 0.28
12 0.54
13 0.28
14 0.28
15 0.28
16 0.11
17 0.04
18 0.23
19 0.41
2 -0.68
20 0.72
21 0.1
22 -0.15
23 -0.15
24 -0.15
25 -0.15
26 -0.15
3 -0.68
33 0.4
34 0.4
35 0.15
36 0.4
37 0.4
38 0.4
39 0.4
4 -0.68
40 0.15
41 0.15
42 0.15
43 0.15
44 0.15
5 0.05
6 -0.57
7 -0.57
8 -0.62
9 -0.6

> <PUBCHEM_EFFECTIVE_ROTOR_COUNT>
5

> <PUBCHEM_PHARMACOPHORE_FEATURES>
16
1 1 acceptor
1 10 cation
1 10 donor
1 2 acceptor
1 2 donor
1 3 acceptor
1 3 donor
1 4 acceptor
1 4 donor
1 9 donor
3 5 6 17 cation
4 7 8 9 20 cation
5 1 11 12 13 14 rings
5 5 6 16 17 18 rings
6 21 22 23 24 25 26 rings
6 7 8 16 18 19 20 rings

> <PUBCHEM_HEAVY_ATOM_COUNT>
26

> <PUBCHEM_ATOM_DEF_STEREO_COUNT>
3

> <PUBCHEM_ATOM_UDEF_STEREO_COUNT>
1

> <PUBCHEM_BOND_DEF_STEREO_COUNT>
0

> <PUBCHEM_BOND_UDEF_STEREO_COUNT>
0

> <PUBCHEM_ISOTOPIC_ATOM_COUNT>
0

> <PUBCHEM_COMPONENT_COUNT>
1

> <PUBCHEM_CACTVS_TAUTO_COUNT>
17

> <PUBCHEM_CONFORMER_ID>
07134D5800000001

> <PUBCHEM_MMFF94_ENERGY>
77.0751

> <PUBCHEM_FEATURE_SELFOVERLAP>
81.337

> <PUBCHEM_SHAPE_FINGERPRINT>
10411042 1 18411417289206291534
10616163 171 18122910828879114542
10622 236 17629741617016872791
10693767 8 18198602493615287247
1100329 8 18265897947794400169
11135926 11 18119259599639427644
114674 6 18263358247806263122
11578080 2 17559935732265630473
12107183 9 18270978860146386721
12553582 1 18408608063025512762
12623949 98 17030814646733939723
12760667 363 18410577249458919654
12788726 201 18046903775582262480
13140716 1 18268153067501559352
13533116 47 18198345263649152195
13544653 18 18408326587927307270
1361 2 18341604975306680807
13631057 29 18340771434687956558
138480 1 14734511455478744096
14363568 33 18048342181973872298
14767858 380 18262536874598410508
14790565 3 17545606647783092320
14866123 147 18194968444196278137
14931854 50 18114745936993541862
15042514 8 18194409887535971128
15352361 1 18410293588654968270
17818456 19 17774458100466136737
1813 80 18201451271948408430
20645477 70 18118673555482753485
20775438 99 17693341814674191943
20775530 9 18334862671488941914
20832881 197 18335417959352777291
21279426 13 18261943082184292293
21478907 32 18339359669329903557
23536364 44 18190721065222366309
23559900 14 18263920119295715769
329604 57 18261683606120112470
3421961 26 18340486776380921816
46194498 28 17169559720744261727
463206 1 18336833090689460298
5104073 3 18269271258648682642
5309563 4 18410019865683303098
59682541 52 18195785575084388135
613672 6 18336538400145495826
70251023 43 18339355361878353059
7970288 3 18412823573400923110
9709674 26 18336263543349033778

> <PUBCHEM_SHAPE_MULTIPOLES>
481.7
10.9
4.82
1.07
1.94
4.82
-0.05
-12.27
-2.87
1.94
0.29
-1.43
-0.71
-0.12

> <PUBCHEM_SHAPE_SELFOVERLAP>
1053.428

> <PUBCHEM_SHAPE_VOLUME>
258.6

> <PUBCHEM_COORDINATE_TYPE>
2
5
10

$$$$
