118701356
  -OEChem-03292013293D

 40 44  0     1  0  0  0  0  0999 V2000
    2.8048    1.9398    0.2820 O   0  0  0  0  0  0  0  0  0  0  0  0
    3.2381   -1.2350   -0.4509 O   0  0  0  0  0  0  0  0  0  0  0  0
    0.2496    1.6232    1.9625 O   0  0  0  0  0  0  0  0  0  0  0  0
   -0.8395   -0.9526   -1.3532 O   0  0  0  0  0  0  0  0  0  0  0  0
    0.6367   -2.8071    0.4869 O   0  0  0  0  0  0  0  0  0  0  0  0
   -2.0225    0.0317    1.9130 O   0  0  0  0  0  0  0  0  0  0  0  0
   -0.4503    1.0149   -2.4867 O   0  0  0  0  0  0  0  0  0  0  0  0
    1.1849   -0.3915    0.7475 C   0  0  1  0  0  0  0  0  0  0  0  0
    2.1100   -0.3459   -0.4990 C   0  0  1  0  0  0  0  0  0  0  0  0
    0.4713    1.0616    0.6725 C   0  0  2  0  0  0  0  0  0  0  0  0
    2.4102    1.1067   -0.8194 C   0  0  1  0  0  0  0  0  0  0  0  0
    1.4265    1.9714   -0.0893 C   0  0  2  0  0  0  0  0  0  0  0  0
   -0.8974    1.0153   -0.0773 C   0  0  2  0  0  0  0  0  0  0  0  0
    0.1174   -1.5254    0.8219 C   0  0  1  0  0  0  0  0  0  0  0  0
    2.3164   -1.4528   -1.5192 C   0  0  0  0  0  0  0  0  0  0  0  0
   -1.8731   -0.0090    0.5050 C   0  0  1  0  0  0  0  0  0  0  0  0
   -1.1676   -1.2712    0.0118 C   0  0  1  0  0  0  0  0  0  0  0  0
    2.0712   -0.5188    2.0206 C   0  0  0  0  0  0  0  0  0  0  0  0
   -0.7111    0.4128   -1.4583 C   0  0  0  0  0  0  0  0  0  0  0  0
   -3.2602    0.1349   -0.0603 C   0  0  0  0  0  0  0  0  0  0  0  0
   -4.0747   -1.1220   -0.1426 C   0  0  0  0  0  0  0  0  0  0  0  0
   -3.7409    1.3190   -0.4675 C   0  0  0  0  0  0  0  0  0  0  0  0
    2.7238    1.3915   -1.8135 H   0  0  0  0  0  0  0  0  0  0  0  0
    1.0220    2.8655   -0.5342 H   0  0  0  0  0  0  0  0  0  0  0  0
   -1.2876    2.0320   -0.1376 H   0  0  0  0  0  0  0  0  0  0  0  0
   -0.1919   -1.6235    1.8708 H   0  0  0  0  0  0  0  0  0  0  0  0
    1.7217   -2.3517   -1.5067 H   0  0  0  0  0  0  0  0  0  0  0  0
    2.6346   -1.1706   -2.5166 H   0  0  0  0  0  0  0  0  0  0  0  0
   -1.7821   -2.1756    0.0262 H   0  0  0  0  0  0  0  0  0  0  0  0
    2.8556    0.2418    2.0655 H   0  0  0  0  0  0  0  0  0  0  0  0
    2.5691   -1.4948    2.0538 H   0  0  0  0  0  0  0  0  0  0  0  0
    1.4725   -0.4286    2.9337 H   0  0  0  0  0  0  0  0  0  0  0  0
   -0.1575    2.4985    1.8448 H   0  0  0  0  0  0  0  0  0  0  0  0
   -0.0616   -3.4646    0.6462 H   0  0  0  0  0  0  0  0  0  0  0  0
   -2.1762    0.9569    2.1710 H   0  0  0  0  0  0  0  0  0  0  0  0
   -5.1301   -0.9017   -0.3397 H   0  0  0  0  0  0  0  0  0  0  0  0
   -4.0393   -1.6751    0.8018 H   0  0  0  0  0  0  0  0  0  0  0  0
   -3.7274   -1.7680   -0.9547 H   0  0  0  0  0  0  0  0  0  0  0  0
   -4.7459    1.3818   -0.8766 H   0  0  0  0  0  0  0  0  0  0  0  0
   -3.2200    2.2628   -0.3962 H   0  0  0  0  0  0  0  0  0  0  0  0
  1 11  1  0  0  0  0
  1 12  1  0  0  0  0
  2  9  1  0  0  0  0
  2 15  1  0  0  0  0
  3 10  1  0  0  0  0
  3 33  1  0  0  0  0
  4 17  1  0  0  0  0
  4 19  1  0  0  0  0
  5 14  1  0  0  0  0
  5 34  1  0  0  0  0
  6 16  1  0  0  0  0
  6 35  1  0  0  0  0
  7 19  2  0  0  0  0
  8  9  1  0  0  0  0
  8 10  1  0  0  0  0
  8 14  1  0  0  0  0
  8 18  1  0  0  0  0
  9 11  1  0  0  0  0
  9 15  1  0  0  0  0
 10 12  1  0  0  0  0
 10 13  1  0  0  0  0
 11 12  1  0  0  0  0
 11 23  1  0  0  0  0
 12 24  1  0  0  0  0
 13 16  1  0  0  0  0
 13 19  1  0  0  0  0
 13 25  1  0  0  0  0
 14 17  1  0  0  0  0
 14 26  1  0  0  0  0
 15 27  1  0  0  0  0
 15 28  1  0  0  0  0
 16 17  1  0  0  0  0
 16 20  1  0  0  0  0
 17 29  1  0  0  0  0
 18 30  1  0  0  0  0
 18 31  1  0  0  0  0
 18 32  1  0  0  0  0
 20 21  1  0  0  0  0
 20 22  2  0  0  0  0
 21 36  1  0  0  0  0
 21 37  1  0  0  0  0
 21 38  1  0  0  0  0
 22 39  1  0  0  0  0
 22 40  1  0  0  0  0
M  END
> <PUBCHEM_COMPOUND_CID>
118701356

> <PUBCHEM_CONFORMER_RMSD>
0.6

> <PUBCHEM_CONFORMER_DIVERSEORDER>
1
4
3
2

> <PUBCHEM_MMFF94_PARTIAL_CHARGES>
30
1 -0.3
10 0.38
11 0.05
12 -0.05
13 0.06
14 0.28
15 -0.05
16 0.42
17 0.28
19 0.66
2 -0.3
20 -0.28
21 0.14
22 -0.3
23 0.1
24 0.1
27 0.1
28 0.1
3 -0.68
33 0.4
34 0.4
35 0.4
39 0.15
4 -0.43
40 0.15
5 -0.68
6 -0.68
7 -0.57
8 0.09
9 0.05

> <PUBCHEM_EFFECTIVE_ROTOR_COUNT>
2.2

> <PUBCHEM_PHARMACOPHORE_FEATURES>
11
1 1 acceptor
1 2 acceptor
1 3 acceptor
1 3 donor
1 5 acceptor
1 5 donor
1 6 acceptor
1 6 donor
1 7 acceptor
6 1 8 9 10 11 12 rings
8 4 8 10 13 14 16 17 19 rings

> <PUBCHEM_HEAVY_ATOM_COUNT>
22

> <PUBCHEM_ATOM_DEF_STEREO_COUNT>
7

> <PUBCHEM_ATOM_UDEF_STEREO_COUNT>
2

> <PUBCHEM_BOND_DEF_STEREO_COUNT>
0

> <PUBCHEM_BOND_UDEF_STEREO_COUNT>
0

> <PUBCHEM_ISOTOPIC_ATOM_COUNT>
0

> <PUBCHEM_COMPONENT_COUNT>
1

> <PUBCHEM_CACTVS_TAUTO_COUNT>
2

> <PUBCHEM_CONFORMER_ID>
07133D2C00000001

> <PUBCHEM_MMFF94_ENERGY>
92.6057

> <PUBCHEM_FEATURE_SELFOVERLAP>
55.858

> <PUBCHEM_SHAPE_FINGERPRINT>
10863032 1 18201728400085886230
10948715 1 18267020737870262948
12423570 1 17986931047020828744
12491281 212 17915767398817429521
13134695 92 17203040768811761561
13299463 15 17677339290408667262
13581323 91 16343698815970456967
14142880 1 17253975967186484356
144361 1 17604729775840605836
14817 1 17186138307671122688
16945 1 18263648372625405603
18186145 218 18260545602541489253
20691752 17 17240758489058581939
23419403 2 16547279024708361222
23493267 7 16009041557241305411
23559900 14 18343019960760616342
2748010 2 18188784970747323387
296302 2 16630516354414657378
3060560 45 18260828189630165815
3286 77 18040988536074004194
4340502 62 18267300018355750683
54276843 12 18129948853883398840
5845 1 16768124482200511640

> <PUBCHEM_SHAPE_MULTIPOLES>
411.66
4.98
2.07
1.74
3.42
0.3
0.03
0
-0.5
-0.76
0.03
-0.44
-0.14
0.29

> <PUBCHEM_SHAPE_SELFOVERLAP>
921.358

> <PUBCHEM_SHAPE_VOLUME>
215.9

> <PUBCHEM_COORDINATE_TYPE>
2
5
10

$$$$
