118797884
  -OEChem-03292013293D

 55 57  0     1  0  0  0  0  0999 V2000
   -8.1035    1.5154   -0.1476 Cl  0  0  0  0  0  0  0  0  0  0  0  0
   -6.9661   -0.7195    1.4343 F   0  0  0  0  0  0  0  0  0  0  0  0
   -0.3192   -2.9920   -0.5814 O   0  0  0  0  0  0  0  0  0  0  0  0
   -2.5300   -2.3683    1.0812 O   0  0  0  0  0  0  0  0  0  0  0  0
    0.2062   -0.8138    0.1224 N   0  0  0  0  0  0  0  0  0  0  0  0
    3.2673   -3.2538    0.0017 N   0  0  0  0  0  0  0  0  0  0  0  0
    3.0154    5.4313    0.4531 N   0  0  0  0  0  0  0  0  0  0  0  0
   -2.5816   -0.6040   -0.4987 N   0  0  0  0  0  0  0  0  0  0  0  0
    5.5668   -3.8974   -0.2596 N   0  0  0  0  0  0  0  0  0  0  0  0
    3.8968   -5.1996   -1.1028 N   0  0  0  0  0  0  0  0  0  0  0  0
    2.4266   -1.2759    1.1253 C   0  0  2  0  0  0  0  0  0  0  0  0
    1.6260   -0.8240   -0.1250 C   0  0  2  0  0  0  0  0  0  0  0  0
    2.7992    0.0157    1.8915 C   0  0  0  0  0  0  0  0  0  0  0  0
    2.1553    0.5629   -0.3423 C   0  0  0  0  0  0  0  0  0  0  0  0
    2.8223    1.0331    0.7944 C   0  0  0  0  0  0  0  0  0  0  0  0
    3.6834   -2.0579    0.7208 C   0  0  0  0  0  0  0  0  0  0  0  0
    3.3672    2.3060    0.8289 C   0  0  0  0  0  0  0  0  0  0  0  0
    2.0294    1.3556   -1.4724 C   0  0  0  0  0  0  0  0  0  0  0  0
    3.2493    3.1084   -0.3079 C   0  0  0  0  0  0  0  0  0  0  0  0
    2.5859    2.6362   -1.4508 C   0  0  0  0  0  0  0  0  0  0  0  0
   -0.6102   -1.8953   -0.1317 C   0  0  0  0  0  0  0  0  0  0  0  0
    3.8307    4.4831   -0.3070 C   0  0  0  0  0  0  0  0  0  0  0  0
    4.2070   -4.0493   -0.4161 C   0  0  0  0  0  0  0  0  0  0  0  0
   -2.0424   -1.6417    0.2316 C   0  0  0  0  0  0  0  0  0  0  0  0
    3.6185    6.7545    0.4396 C   0  0  0  0  0  0  0  0  0  0  0  0
   -3.8997   -0.0994   -0.4139 C   0  0  0  0  0  0  0  0  0  0  0  0
   -4.8064   -0.6641    0.4833 C   0  0  0  0  0  0  0  0  0  0  0  0
   -4.2935    0.9630   -1.2275 C   0  0  0  0  0  0  0  0  0  0  0  0
   -6.1066   -0.1663    0.5670 C   0  0  0  0  0  0  0  0  0  0  0  0
   -5.5937    1.4609   -1.1438 C   0  0  0  0  0  0  0  0  0  0  0  0
   -6.5003    0.8963   -0.2465 C   0  0  0  0  0  0  0  0  0  0  0  0
    1.8233   -1.9293    1.7697 H   0  0  0  0  0  0  0  0  0  0  0  0
    1.8254   -1.4518   -0.9999 H   0  0  0  0  0  0  0  0  0  0  0  0
    3.7618   -0.0624    2.4055 H   0  0  0  0  0  0  0  0  0  0  0  0
    2.0169    0.2762    2.6129 H   0  0  0  0  0  0  0  0  0  0  0  0
    4.2373   -2.3323    1.6272 H   0  0  0  0  0  0  0  0  0  0  0  0
    4.3344   -1.4372    0.0927 H   0  0  0  0  0  0  0  0  0  0  0  0
   -0.2054    0.0206    0.5322 H   0  0  0  0  0  0  0  0  0  0  0  0
    3.8724    2.6643    1.7203 H   0  0  0  0  0  0  0  0  0  0  0  0
    1.5098    0.9960   -2.3541 H   0  0  0  0  0  0  0  0  0  0  0  0
    2.4912    3.2652   -2.3327 H   0  0  0  0  0  0  0  0  0  0  0  0
    3.9518    4.8359   -1.3397 H   0  0  0  0  0  0  0  0  0  0  0  0
    4.8421    4.4311    0.1174 H   0  0  0  0  0  0  0  0  0  0  0  0
    2.0854    5.4864    0.0376 H   0  0  0  0  0  0  0  0  0  0  0  0
    4.6111    6.7436    0.9017 H   0  0  0  0  0  0  0  0  0  0  0  0
    2.9959    7.4447    1.0175 H   0  0  0  0  0  0  0  0  0  0  0  0
    3.7016    7.1499   -0.5781 H   0  0  0  0  0  0  0  0  0  0  0  0
   -1.9789   -0.1388   -1.1742 H   0  0  0  0  0  0  0  0  0  0  0  0
    2.9333   -5.4497   -1.2969 H   0  0  0  0  0  0  0  0  0  0  0  0
    4.6183   -5.8299   -1.4350 H   0  0  0  0  0  0  0  0  0  0  0  0
    5.9704   -3.1036    0.2248 H   0  0  0  0  0  0  0  0  0  0  0  0
    6.2152   -4.5846   -0.6288 H   0  0  0  0  0  0  0  0  0  0  0  0
   -4.5688   -1.4874    1.1432 H   0  0  0  0  0  0  0  0  0  0  0  0
   -3.5967    1.4120   -1.9307 H   0  0  0  0  0  0  0  0  0  0  0  0
   -5.8863    2.2893   -1.7840 H   0  0  0  0  0  0  0  0  0  0  0  0
  1 31  1  0  0  0  0
  2 29  1  0  0  0  0
  3 21  2  0  0  0  0
  4 24  2  0  0  0  0
  5 12  1  0  0  0  0
  5 21  1  0  0  0  0
  5 38  1  0  0  0  0
  6 16  1  0  0  0  0
  6 23  2  0  0  0  0
  7 22  1  0  0  0  0
  7 25  1  0  0  0  0
  7 44  1  0  0  0  0
  8 24  1  0  0  0  0
  8 26  1  0  0  0  0
  8 48  1  0  0  0  0
  9 23  1  0  0  0  0
  9 51  1  0  0  0  0
  9 52  1  0  0  0  0
 10 23  1  0  0  0  0
 10 49  1  0  0  0  0
 10 50  1  0  0  0  0
 11 12  1  0  0  0  0
 11 13  1  0  0  0  0
 11 16  1  0  0  0  0
 11 32  1  0  0  0  0
 12 14  1  0  0  0  0
 12 33  1  0  0  0  0
 13 15  1  0  0  0  0
 13 34  1  0  0  0  0
 13 35  1  0  0  0  0
 14 15  2  0  0  0  0
 14 18  1  0  0  0  0
 15 17  1  0  0  0  0
 16 36  1  0  0  0  0
 16 37  1  0  0  0  0
 17 19  2  0  0  0  0
 17 39  1  0  0  0  0
 18 20  2  0  0  0  0
 18 40  1  0  0  0  0
 19 20  1  0  0  0  0
 19 22  1  0  0  0  0
 20 41  1  0  0  0  0
 21 24  1  0  0  0  0
 22 42  1  0  0  0  0
 22 43  1  0  0  0  0
 25 45  1  0  0  0  0
 25 46  1  0  0  0  0
 25 47  1  0  0  0  0
 26 27  2  0  0  0  0
 26 28  1  0  0  0  0
 27 29  1  0  0  0  0
 27 53  1  0  0  0  0
 28 30  2  0  0  0  0
 28 54  1  0  0  0  0
 29 31  2  0  0  0  0
 30 31  1  0  0  0  0
 30 55  1  0  0  0  0
M  END
> <PUBCHEM_COMPOUND_CID>
118797884

> <PUBCHEM_CONFORMER_RMSD>
1

> <PUBCHEM_CONFORMER_DIVERSEORDER>
1
29
33
25
49
42
69
23
22
60
19
38
55
63
76
77
45
20
16
27
11
40
70
83
5
51
52
10
39
53
30
79
54
43
2
61
28
3
68
18
57
21
72
74
44
66
73
12
82
71
31
26
65
75
37
32
8
34
67
80
35
9
46
50
4
14
15
6
62
59
64
81
58
13
36
17
24
47
78
56
7
48
41

> <PUBCHEM_MMFF94_PARTIAL_CHARGES>
43
1 -0.18
10 -0.85
12 0.44
13 0.14
14 -0.14
15 -0.14
16 0.25
17 -0.15
18 -0.15
19 -0.14
2 -0.19
20 -0.15
21 0.63
22 0.41
23 0.55
24 0.63
25 0.27
26 0.12
27 -0.15
28 -0.15
29 0.19
3 -0.57
30 -0.15
31 0.18
38 0.37
39 0.15
4 -0.57
40 0.15
41 0.15
44 0.36
48 0.37
49 0.4
5 -0.73
50 0.4
51 0.4
52 0.4
53 0.15
54 0.15
55 0.15
6 -0.7
7 -0.9
8 -0.55
9 -0.85

> <PUBCHEM_EFFECTIVE_ROTOR_COUNT>
9.6

> <PUBCHEM_PHARMACOPHORE_FEATURES>
12
1 10 donor
1 3 acceptor
1 4 acceptor
1 5 donor
1 7 cation
1 7 donor
1 8 donor
1 9 donor
4 6 9 10 23 cation
5 11 12 13 14 15 rings
6 14 15 17 18 19 20 rings
6 26 27 28 29 30 31 rings

> <PUBCHEM_HEAVY_ATOM_COUNT>
31

> <PUBCHEM_ATOM_DEF_STEREO_COUNT>
2

> <PUBCHEM_ATOM_UDEF_STEREO_COUNT>
0

> <PUBCHEM_BOND_DEF_STEREO_COUNT>
0

> <PUBCHEM_BOND_UDEF_STEREO_COUNT>
0

> <PUBCHEM_ISOTOPIC_ATOM_COUNT>
0

> <PUBCHEM_COMPONENT_COUNT>
1

> <PUBCHEM_CACTVS_TAUTO_COUNT>
80

> <PUBCHEM_CONFORMER_ID>
0714B63C00000001

> <PUBCHEM_MMFF94_ENERGY>
77.3296

> <PUBCHEM_FEATURE_SELFOVERLAP>
61.039

> <PUBCHEM_SHAPE_FINGERPRINT>
10763959 59 18337106744709482023
11059845 2 17549790706671410856
11135609 201 17905323288426716721
11297750 10 17840009755934302442
11386260 185 18267571438946176389
11475781 23 13829570857622741587
11720765 8 18339927013641335268
12166972 35 18270397175144550347
12633257 1 15142071282821363368
12758862 56 18261951821947959210
12788726 201 17846508045252297817
13757389 114 17254008957426033580
13965767 371 17896584271309411564
14068700 686 17977390756510536035
14114211 68 18044116728375970372
14251764 75 18195529422623229465
14849402 71 18411706456358263139
15081414 286 18338791226624883586
15198563 99 17908720436439532830
15419008 47 17897730860084100167
15420108 30 18048862294287499368
15439362 3 18266181807052232326
16988056 13 18337386046480051388
19304671 126 17772209731773066932
19309040 13 18270681003768614269
20238998 120 18338515215263181386
21133410 127 17968371355233018453
21365058 113 18267594498430572030
23559900 14 18336544924232629011
24771750 20 18263097655250982086
3103668 31 17616535060431985100
376196 1 18117835736470740776
4144715 1 18187654574742730683
4625314 4 18410289174430791207
5104073 3 17751908366425732392
5219985 13 17978513366630503604
57307002 103 18409738382422275339
57724786 102 18410006646184688481
7808743 9 17978506760691026017
9896288 288 17469883746213422218

> <PUBCHEM_SHAPE_MULTIPOLES>
590.94
16.46
7.57
1.25
38.34
6.75
-0.07
3.92
-0.71
-20.19
0.71
-0.22
0.06
1.88

> <PUBCHEM_SHAPE_SELFOVERLAP>
1250.95

> <PUBCHEM_SHAPE_VOLUME>
331.1

> <PUBCHEM_COORDINATE_TYPE>
2
5
10

$$$$
