118701141
  -OEChem-03292013293D

 62 65  0     1  0  0  0  0  0999 V2000
   -2.0483    0.1908   -1.2738 F   0  0  0  0  0  0  0  0  0  0  0  0
    2.3501   -0.3413   -1.4960 O   0  0  0  0  0  0  0  0  0  0  0  0
   -1.0809    2.0371    1.6655 O   0  0  0  0  0  0  0  0  0  0  0  0
    3.5689    0.6370    1.5079 O   0  0  0  0  0  0  0  0  0  0  0  0
    5.8022    0.7852    0.0215 O   0  0  0  0  0  0  0  0  0  0  0  0
   -6.8598    0.5238   -2.0077 O   0  0  0  0  0  0  0  0  0  0  0  0
    7.0596    0.4079   -1.8794 O   0  0  0  0  0  0  0  0  0  0  0  0
    0.9601   -0.0134    0.5305 C   0  0  1  0  0  0  0  0  0  0  0  0
    0.0012   -1.1617    0.1454 C   0  0  2  0  0  0  0  0  0  0  0  0
   -1.4280   -0.9719    0.6792 C   0  0  1  0  0  0  0  0  0  0  0  0
   -2.0213    0.3589    0.1020 C   0  0  1  0  0  0  0  0  0  0  0  0
    2.2770   -0.5637   -0.0928 C   0  0  1  0  0  0  0  0  0  0  0  0
    0.7665   -2.4250    0.5387 C   0  0  0  0  0  0  0  0  0  0  0  0
    0.3937    1.2811   -0.0882 C   0  0  0  0  0  0  0  0  0  0  0  0
    2.2552   -2.0780    0.2774 C   0  0  1  0  0  0  0  0  0  0  0  0
   -1.0672    1.5702    0.3267 C   0  0  2  0  0  0  0  0  0  0  0  0
   -3.5262    0.5730    0.5324 C   0  0  1  0  0  0  0  0  0  0  0  0
   -2.3051   -2.1808    0.3033 C   0  0  0  0  0  0  0  0  0  0  0  0
    1.1343    0.1487    2.0672 C   0  0  0  0  0  0  0  0  0  0  0  0
   -3.7604   -1.9884    0.7129 C   0  0  0  0  0  0  0  0  0  0  0  0
   -4.2972   -0.6967    0.1517 C   0  0  0  0  0  0  0  0  0  0  0  0
    3.5195    0.1176    0.3940 C   0  0  0  0  0  0  0  0  0  0  0  0
    2.8842   -3.0014   -0.7621 C   0  0  0  0  0  0  0  0  0  0  0  0
   -3.7255    0.8054    2.0480 C   0  0  0  0  0  0  0  0  0  0  0  0
   -4.1031    1.7961   -0.1663 C   0  0  0  0  0  0  0  0  0  0  0  0
   -5.3622   -0.7062   -0.6651 C   0  0  0  0  0  0  0  0  0  0  0  0
    4.6959    0.1273   -0.5589 C   0  0  0  0  0  0  0  0  0  0  0  0
   -5.1624    1.7929   -0.9812 C   0  0  0  0  0  0  0  0  0  0  0  0
   -5.8761    0.5370   -1.2754 C   0  0  0  0  0  0  0  0  0  0  0  0
    6.9347    0.8591   -0.7490 C   0  0  0  0  0  0  0  0  0  0  0  0
    8.0203    1.5794   -0.0082 C   0  0  0  0  0  0  0  0  0  0  0  0
   -0.0910   -1.1952   -0.9511 H   0  0  0  0  0  0  0  0  0  0  0  0
   -1.4095   -0.9202    1.7716 H   0  0  0  0  0  0  0  0  0  0  0  0
    0.6178   -2.6578    1.5997 H   0  0  0  0  0  0  0  0  0  0  0  0
    0.4313   -3.2935   -0.0381 H   0  0  0  0  0  0  0  0  0  0  0  0
    0.4177    1.2105   -1.1829 H   0  0  0  0  0  0  0  0  0  0  0  0
    1.0373    2.1269    0.1840 H   0  0  0  0  0  0  0  0  0  0  0  0
    2.8002   -2.2370    1.2178 H   0  0  0  0  0  0  0  0  0  0  0  0
   -1.4049    2.4020   -0.3022 H   0  0  0  0  0  0  0  0  0  0  0  0
   -1.9233   -3.0870    0.7881 H   0  0  0  0  0  0  0  0  0  0  0  0
   -2.2530   -2.3575   -0.7792 H   0  0  0  0  0  0  0  0  0  0  0  0
    1.7535   -0.6297    2.5242 H   0  0  0  0  0  0  0  0  0  0  0  0
    0.1795    0.0928    2.5961 H   0  0  0  0  0  0  0  0  0  0  0  0
    1.5376    1.1320    2.3325 H   0  0  0  0  0  0  0  0  0  0  0  0
   -3.8484   -1.9857    1.8053 H   0  0  0  0  0  0  0  0  0  0  0  0
   -4.3429   -2.8494    0.3629 H   0  0  0  0  0  0  0  0  0  0  0  0
    2.3608   -2.9556   -1.7222 H   0  0  0  0  0  0  0  0  0  0  0  0
    2.8356   -4.0406   -0.4175 H   0  0  0  0  0  0  0  0  0  0  0  0
    3.9371   -2.7679   -0.9307 H   0  0  0  0  0  0  0  0  0  0  0  0
   -3.1770    0.0850    2.6620 H   0  0  0  0  0  0  0  0  0  0  0  0
   -4.7849    0.7232    2.3252 H   0  0  0  0  0  0  0  0  0  0  0  0
   -3.4067    1.8061    2.3592 H   0  0  0  0  0  0  0  0  0  0  0  0
    1.6791   -0.8833   -1.9408 H   0  0  0  0  0  0  0  0  0  0  0  0
   -3.6336    2.7568    0.0334 H   0  0  0  0  0  0  0  0  0  0  0  0
   -0.5164    2.8273    1.7120 H   0  0  0  0  0  0  0  0  0  0  0  0
   -5.8777   -1.6257   -0.9215 H   0  0  0  0  0  0  0  0  0  0  0  0
    4.4246    0.6733   -1.4680 H   0  0  0  0  0  0  0  0  0  0  0  0
    4.9794   -0.9005   -0.7930 H   0  0  0  0  0  0  0  0  0  0  0  0
   -5.5281    2.7069   -1.4344 H   0  0  0  0  0  0  0  0  0  0  0  0
    7.6974    2.5975    0.2231 H   0  0  0  0  0  0  0  0  0  0  0  0
    8.9151    1.6310   -0.6349 H   0  0  0  0  0  0  0  0  0  0  0  0
    8.2666    1.0359    0.9074 H   0  0  0  0  0  0  0  0  0  0  0  0
  1 11  1  0  0  0  0
  2 12  1  0  0  0  0
  2 53  1  0  0  0  0
  3 16  1  0  0  0  0
  3 55  1  0  0  0  0
  4 22  2  0  0  0  0
  5 27  1  0  0  0  0
  5 30  1  0  0  0  0
  6 29  2  0  0  0  0
  7 30  2  0  0  0  0
  8  9  1  0  0  0  0
  8 12  1  0  0  0  0
  8 14  1  0  0  0  0
  8 19  1  0  0  0  0
  9 10  1  0  0  0  0
  9 13  1  0  0  0  0
  9 32  1  0  0  0  0
 10 11  1  0  0  0  0
 10 18  1  0  0  0  0
 10 33  1  0  0  0  0
 11 16  1  0  0  0  0
 11 17  1  0  0  0  0
 12 15  1  0  0  0  0
 12 22  1  0  0  0  0
 13 15  1  0  0  0  0
 13 34  1  0  0  0  0
 13 35  1  0  0  0  0
 14 16  1  0  0  0  0
 14 36  1  0  0  0  0
 14 37  1  0  0  0  0
 15 23  1  0  0  0  0
 15 38  1  0  0  0  0
 16 39  1  0  0  0  0
 17 21  1  0  0  0  0
 17 24  1  0  0  0  0
 17 25  1  0  0  0  0
 18 20  1  0  0  0  0
 18 40  1  0  0  0  0
 18 41  1  0  0  0  0
 19 42  1  0  0  0  0
 19 43  1  0  0  0  0
 19 44  1  0  0  0  0
 20 21  1  0  0  0  0
 20 45  1  0  0  0  0
 20 46  1  0  0  0  0
 21 26  2  0  0  0  0
 22 27  1  0  0  0  0
 23 47  1  0  0  0  0
 23 48  1  0  0  0  0
 23 49  1  0  0  0  0
 24 50  1  0  0  0  0
 24 51  1  0  0  0  0
 24 52  1  0  0  0  0
 25 28  2  0  0  0  0
 25 54  1  0  0  0  0
 26 29  1  0  0  0  0
 26 56  1  0  0  0  0
 27 57  1  0  0  0  0
 27 58  1  0  0  0  0
 28 29  1  0  0  0  0
 28 59  1  0  0  0  0
 30 31  1  0  0  0  0
 31 60  1  0  0  0  0
 31 61  1  0  0  0  0
 31 62  1  0  0  0  0
M  END
> <PUBCHEM_COMPOUND_CID>
118701141

> <PUBCHEM_CONFORMER_RMSD>
0.8

> <PUBCHEM_CONFORMER_DIVERSEORDER>
1
20
30
28
12
8
21
31
24
16
2
25
17
15
5
27
19
29
23
10
7
18
6
3
26
14
11
13
22
4
9

> <PUBCHEM_MMFF94_PARTIAL_CHARGES>
26
1 -0.34
11 0.34
12 0.34
16 0.28
17 0.28
2 -0.68
20 0.14
21 -0.28
22 0.45
25 -0.29
26 -0.14
27 0.34
28 -0.14
29 0.54
3 -0.68
30 0.66
31 0.06
4 -0.57
5 -0.43
53 0.4
54 0.15
55 0.4
56 0.15
59 0.15
6 -0.57
7 -0.57

> <PUBCHEM_EFFECTIVE_ROTOR_COUNT>
5.4

> <PUBCHEM_PHARMACOPHORE_FEATURES>
11
1 2 acceptor
1 2 donor
1 3 acceptor
1 3 donor
1 4 acceptor
1 6 acceptor
1 7 acceptor
5 8 9 12 13 15 rings
6 10 11 17 18 20 21 rings
6 17 21 25 26 28 29 rings
6 8 9 10 11 14 16 rings

> <PUBCHEM_HEAVY_ATOM_COUNT>
31

> <PUBCHEM_ATOM_DEF_STEREO_COUNT>
7

> <PUBCHEM_ATOM_UDEF_STEREO_COUNT>
1

> <PUBCHEM_BOND_DEF_STEREO_COUNT>
0

> <PUBCHEM_BOND_UDEF_STEREO_COUNT>
0

> <PUBCHEM_ISOTOPIC_ATOM_COUNT>
0

> <PUBCHEM_COMPONENT_COUNT>
1

> <PUBCHEM_CACTVS_TAUTO_COUNT>
20

> <PUBCHEM_CONFORMER_ID>
07133C5500000001

> <PUBCHEM_MMFF94_ENERGY>
109.733

> <PUBCHEM_FEATURE_SELFOVERLAP>
55.922

> <PUBCHEM_SHAPE_FINGERPRINT>
10076449 9 18410578431450229659
10290309 65 18335148566046263659
10366900 7 17988639687990146987
10411042 1 17685782719731183603
11135609 187 18337669716506939913
11135926 11 18412551993822425658
11315181 36 18272655683338611537
11578080 2 17824252718170776796
11719270 70 18341887464655081490
12011746 2 18273492390185826913
12236239 1 17385720314131080442
12616971 3 11025808590999169643
12633257 1 11386376936485015603
12788726 201 17774724130471438561
13224815 77 18272367538673225195
13540713 5 17913494536484086250
13631057 29 18269275823745769587
13673619 4 12607402191622334714
13685833 64 10952047862319241652
13782708 43 13973960995965993772
14931854 50 18272366443261418253
15183329 4 16559035991455106364
15238133 3 14635154469381568535
15961568 22 17967813825569833636
17980427 23 17095531729176792166
18608769 82 18262806284822783739
18681886 176 18337951311410614040
20511986 3 17895181216919994418
20554085 129 18271791446779203210
21130935 74 13695873658047549640
21150785 3 17632856442830894780
21267235 1 18271532008778722699
22122407 14 16371021723519775940
23559900 14 18341326785821196025
23569914 152 16837136317149777140
23569943 247 14115867210037949388
2838139 119 16877943866549118852
3103668 31 18053940937658609790
34934 24 18260263027858082451
4093350 32 15936677186986056368
5104073 3 18261399888474135355
57527295 17 17417532415158984699
59755656 215 18343302557314660950
999808 66 11095884882295661868

> <PUBCHEM_SHAPE_MULTIPOLES>
595.48
16.37
2.35
1.52
18.52
1.28
-0.16
-8.14
7.7
0.01
-0.04
-0.65
-0.38
0.52

> <PUBCHEM_SHAPE_SELFOVERLAP>
1287.164

> <PUBCHEM_SHAPE_VOLUME>
324.7

> <PUBCHEM_COORDINATE_TYPE>
2
5
10

$$$$
