118701560
  -OEChem-03292013293D

 56 58  0     1  0  0  0  0  0999 V2000
   -3.3376   -0.4566    0.6092 O   0  0  0  0  0  0  0  0  0  0  0  0
    0.0698    2.3820   -0.7265 O   0  0  0  0  0  0  0  0  0  0  0  0
    0.6186   -0.7719    0.2972 O   0  0  0  0  0  0  0  0  0  0  0  0
   -5.0319   -0.4537   -1.0194 O   0  0  0  0  0  0  0  0  0  0  0  0
    1.6277    3.6590    0.3697 O   0  0  0  0  0  0  0  0  0  0  0  0
    1.8459   -2.0153    1.7945 O   0  0  0  0  0  0  0  0  0  0  0  0
    4.0654   -0.2025   -0.3559 O   0  0  0  0  0  0  0  0  0  0  0  0
    4.7713    1.2122   -2.0403 O   0  0  0  0  0  0  0  0  0  0  0  0
   -2.4911   -1.6297    0.5916 C   0  0  2  0  0  0  0  0  0  0  0  0
   -0.7930    1.0721    1.0954 C   0  0  2  0  0  0  0  0  0  0  0  0
   -0.2556   -0.3586    1.3454 C   0  0  1  0  0  0  0  0  0  0  0  0
   -1.3357   -1.4361    1.5968 C   0  0  0  0  0  0  0  0  0  0  0  0
   -0.9703    1.4354   -0.3850 C   0  0  1  0  0  0  0  0  0  0  0  0
   -3.6704   -0.1036   -0.7548 C   0  0  1  0  0  0  0  0  0  0  0  0
   -2.0969   -1.8041   -0.8372 C   0  0  0  0  0  0  0  0  0  0  0  0
    0.1844    2.1183    1.5291 C   0  0  0  0  0  0  0  0  0  0  0  0
   -3.4696    1.4010   -0.9165 C   0  0  0  0  0  0  0  0  0  0  0  0
   -2.3020    2.0523   -0.7189 C   0  0  0  0  0  0  0  0  0  0  0  0
   -3.3570   -2.8161    1.0421 C   0  0  0  0  0  0  0  0  0  0  0  0
   -2.7733   -0.9473   -1.6035 C   0  0  0  0  0  0  0  0  0  0  0  0
    0.7382    2.8274    0.3681 C   0  0  0  0  0  0  0  0  0  0  0  0
   -4.6928    2.2139   -1.2701 C   0  0  0  0  0  0  0  0  0  0  0  0
    0.5203    2.4575    2.7772 C   0  0  0  0  0  0  0  0  0  0  0  0
    1.6341   -1.6055    0.6618 C   0  0  0  0  0  0  0  0  0  0  0  0
    2.4584   -1.9553   -0.5362 C   0  0  0  0  0  0  0  0  0  0  0  0
    3.1904   -0.8620   -1.2606 C   0  0  0  0  0  0  0  0  0  0  0  0
    2.5197   -3.2653   -0.8409 C   0  0  0  0  0  0  0  0  0  0  0  0
    1.8566   -4.3923   -0.1139 C   0  0  0  0  0  0  0  0  0  0  0  0
    4.8024    0.8235   -0.8805 C   0  0  0  0  0  0  0  0  0  0  0  0
    5.6741    1.4213    0.1819 C   0  0  0  0  0  0  0  0  0  0  0  0
   -1.7176    1.2122    1.6693 H   0  0  0  0  0  0  0  0  0  0  0  0
    0.3178   -0.3139    2.2825 H   0  0  0  0  0  0  0  0  0  0  0  0
   -0.8287   -2.4028    1.7155 H   0  0  0  0  0  0  0  0  0  0  0  0
   -1.7868   -1.1977    2.5707 H   0  0  0  0  0  0  0  0  0  0  0  0
   -0.7919    0.5940   -1.0543 H   0  0  0  0  0  0  0  0  0  0  0  0
   -1.3960   -2.5398   -1.2028 H   0  0  0  0  0  0  0  0  0  0  0  0
   -2.2963    3.1368   -0.8215 H   0  0  0  0  0  0  0  0  0  0  0  0
   -3.7494   -2.6474    2.0517 H   0  0  0  0  0  0  0  0  0  0  0  0
   -2.7902   -3.7536    1.0424 H   0  0  0  0  0  0  0  0  0  0  0  0
   -4.2319   -2.9458    0.3940 H   0  0  0  0  0  0  0  0  0  0  0  0
   -2.6980   -0.8887   -2.6794 H   0  0  0  0  0  0  0  0  0  0  0  0
   -5.0988    1.8907   -2.2344 H   0  0  0  0  0  0  0  0  0  0  0  0
   -5.4644    2.0967   -0.5019 H   0  0  0  0  0  0  0  0  0  0  0  0
   -4.4765    3.2846   -1.3524 H   0  0  0  0  0  0  0  0  0  0  0  0
   -5.0657   -1.3484   -1.3976 H   0  0  0  0  0  0  0  0  0  0  0  0
    0.0848    1.9414    3.6265 H   0  0  0  0  0  0  0  0  0  0  0  0
    1.2296    3.2511    2.9859 H   0  0  0  0  0  0  0  0  0  0  0  0
    2.4667   -0.1442   -1.6651 H   0  0  0  0  0  0  0  0  0  0  0  0
    3.7734   -1.2739   -2.0931 H   0  0  0  0  0  0  0  0  0  0  0  0
    3.1360   -3.5641   -1.6869 H   0  0  0  0  0  0  0  0  0  0  0  0
    2.5919   -4.9331    0.4893 H   0  0  0  0  0  0  0  0  0  0  0  0
    1.4395   -5.0934   -0.8448 H   0  0  0  0  0  0  0  0  0  0  0  0
    1.0289   -4.0831    0.5287 H   0  0  0  0  0  0  0  0  0  0  0  0
    5.0531    1.8239    0.9862 H   0  0  0  0  0  0  0  0  0  0  0  0
    6.2614    2.2380   -0.2474 H   0  0  0  0  0  0  0  0  0  0  0  0
    6.3607    0.6635    0.5675 H   0  0  0  0  0  0  0  0  0  0  0  0
  1  9  1  0  0  0  0
  1 14  1  0  0  0  0
  2 13  1  0  0  0  0
  2 21  1  0  0  0  0
  3 11  1  0  0  0  0
  3 24  1  0  0  0  0
  4 14  1  0  0  0  0
  4 45  1  0  0  0  0
  5 21  2  0  0  0  0
  6 24  2  0  0  0  0
  7 26  1  0  0  0  0
  7 29  1  0  0  0  0
  8 29  2  0  0  0  0
  9 12  1  0  0  0  0
  9 15  1  0  0  0  0
  9 19  1  0  0  0  0
 10 11  1  0  0  0  0
 10 13  1  0  0  0  0
 10 16  1  0  0  0  0
 10 31  1  0  0  0  0
 11 12  1  0  0  0  0
 11 32  1  0  0  0  0
 12 33  1  0  0  0  0
 12 34  1  0  0  0  0
 13 18  1  0  0  0  0
 13 35  1  0  0  0  0
 14 17  1  0  0  0  0
 14 20  1  0  0  0  0
 15 20  2  0  0  0  0
 15 36  1  0  0  0  0
 16 21  1  0  0  0  0
 16 23  2  0  0  0  0
 17 18  2  0  0  0  0
 17 22  1  0  0  0  0
 18 37  1  0  0  0  0
 19 38  1  0  0  0  0
 19 39  1  0  0  0  0
 19 40  1  0  0  0  0
 20 41  1  0  0  0  0
 22 42  1  0  0  0  0
 22 43  1  0  0  0  0
 22 44  1  0  0  0  0
 23 46  1  0  0  0  0
 23 47  1  0  0  0  0
 24 25  1  0  0  0  0
 25 26  1  0  0  0  0
 25 27  2  0  0  0  0
 26 48  1  0  0  0  0
 26 49  1  0  0  0  0
 27 28  1  0  0  0  0
 27 50  1  0  0  0  0
 28 51  1  0  0  0  0
 28 52  1  0  0  0  0
 28 53  1  0  0  0  0
 29 30  1  0  0  0  0
 30 54  1  0  0  0  0
 30 55  1  0  0  0  0
 30 56  1  0  0  0  0
M  END
> <PUBCHEM_COMPOUND_CID>
118701560

> <PUBCHEM_CONFORMER_RMSD>
1

> <PUBCHEM_CONFORMER_DIVERSEORDER>
1
130
104
82
36
17
136
78
144
11
168
100
92
178
7
139
163
181
15
128
118
89
69
123
61
122
171
84
41
99
119
161
158
74
97
102
154
32
182
107
57
35
68
170
110
31
150
70
153
21
132
131
9
152
55
85
142
157
44
10
93
23
6
45
73
115
5
79
30
33
2
14
101
137
120
148
164
39
184
59
87
155
16
141
51
20
138
124
50
64
145
65
72
94
76
83
112
8
109
140
162
47
134
22
167
24
75
12
173
125
179
146
156
111
62
4
38
176
103
113
106
108
135
29
53
129
46
169
67
26
88
86
48
52
13
25
42
105
90
166
3
95
117
172
77
160
27
91
98
133
19
121
56
149
180
174
49
127
175
40
96
80
60
37
66
54
71
147
114
34
116
63
143
28
58
43
81
18
126
177
183
159
165
151
185

> <PUBCHEM_MMFF94_PARTIAL_CHARGES>
35
1 -0.56
10 0.14
11 0.28
13 0.42
14 0.84
15 -0.29
16 -0.12
17 -0.28
18 -0.29
2 -0.43
20 -0.29
21 0.71
22 0.14
23 -0.3
24 0.71
25 -0.12
26 0.42
27 -0.29
28 0.14
29 0.66
3 -0.43
30 0.06
36 0.15
37 0.15
4 -0.68
41 0.15
45 0.4
46 0.15
47 0.15
5 -0.57
50 0.15
6 -0.57
7 -0.43
8 -0.57
9 0.42

> <PUBCHEM_EFFECTIVE_ROTOR_COUNT>
6.8

> <PUBCHEM_PHARMACOPHORE_FEATURES>
9
1 1 acceptor
1 28 hydrophobe
1 4 acceptor
1 4 donor
1 5 acceptor
1 6 acceptor
1 8 acceptor
5 1 9 14 15 20 rings
5 2 10 13 16 21 rings

> <PUBCHEM_HEAVY_ATOM_COUNT>
30

> <PUBCHEM_ATOM_DEF_STEREO_COUNT>
4

> <PUBCHEM_ATOM_UDEF_STEREO_COUNT>
1

> <PUBCHEM_BOND_DEF_STEREO_COUNT>
2

> <PUBCHEM_BOND_UDEF_STEREO_COUNT>
0

> <PUBCHEM_ISOTOPIC_ATOM_COUNT>
0

> <PUBCHEM_COMPONENT_COUNT>
1

> <PUBCHEM_CACTVS_TAUTO_COUNT>
2

> <PUBCHEM_CONFORMER_ID>
07133DF800000001

> <PUBCHEM_MMFF94_ENERGY>
72.2435

> <PUBCHEM_FEATURE_SELFOVERLAP>
45.713

> <PUBCHEM_SHAPE_FINGERPRINT>
10675989 125 17975408014985613101
11112241 14 16627977706789506240
12788726 201 17558836074450736305
13149001 5 18338502055124696865
13617811 41 17968085414096604269
13911987 19 18267040520995771110
14251757 17 18408322172516615845
14790565 3 17906173945602977077
17980427 23 17900510460139802642
1813 80 15051437293881899704
20715895 44 17896591787159086900
22907989 373 17841447929020253038
23557571 272 18127676146459457330
23558518 356 17766565655266667698
23559900 14 18194395594333287418
350125 39 18410011010536482709
35225 105 15981470066018565395
469060 322 17243051004935471435
57527295 17 18058713746510442869
57527585 103 17607567645802244170
81228 2 18054783984050880347
9981440 41 18259985994199640962

> <PUBCHEM_SHAPE_MULTIPOLES>
570.43
8.87
4.48
1.85
4.17
1.32
-0.64
-1.29
4.87
1.79
-0.66
0.01
-0.56
0.93

> <PUBCHEM_SHAPE_SELFOVERLAP>
1206.535

> <PUBCHEM_SHAPE_VOLUME>
315.8

> <PUBCHEM_COORDINATE_TYPE>
2
5
10

$$$$
