118705472
  -OEChem-03292013293D

 50 53  0     1  0  0  0  0  0999 V2000
    3.8824   -0.2326   -1.2437 O   0  0  0  0  0  0  0  0  0  0  0  0
    3.7321    1.9734    1.5870 O   0  0  0  0  0  0  0  0  0  0  0  0
    5.9704    1.6259    0.0892 O   0  0  0  0  0  0  0  0  0  0  0  0
    4.1155   -2.6300   -0.3618 O   0  0  0  0  0  0  0  0  0  0  0  0
    1.7173    0.4514   -0.3785 N   0  0  0  0  0  0  0  0  0  0  0  0
   -0.1627   -0.7449   -0.3168 N   0  0  0  0  0  0  0  0  0  0  0  0
    6.3241   -2.3556    0.3213 N   0  0  0  0  0  0  0  0  0  0  0  0
    0.7908    2.6920   -0.2309 N   0  0  0  0  0  0  0  0  0  0  0  0
   -2.8859    0.5902   -0.0990 N   0  0  0  0  0  0  0  0  0  0  0  0
   -1.6449    2.6361   -0.0887 N   0  0  0  0  0  0  0  0  0  0  0  0
   -8.3794   -2.5749    0.2402 N   0  0  0  0  0  0  0  0  0  0  0  0
    3.8793    0.7434    0.9068 C   0  0  1  0  0  0  0  0  0  0  0  0
    3.1937    0.7572   -0.4535 C   0  0  1  0  0  0  0  0  0  0  0  0
    5.3176    0.4395    0.5352 C   0  0  1  0  0  0  0  0  0  0  0  0
    5.1573   -0.5051   -0.6435 C   0  0  1  0  0  0  0  0  0  0  0  0
    5.1234   -1.9406   -0.2287 C   0  0  0  0  0  0  0  0  0  0  0  0
    0.6977    1.3547   -0.2807 C   0  0  0  0  0  0  0  0  0  0  0  0
    1.1506   -0.7954   -0.3969 C   0  0  0  0  0  0  0  0  0  0  0  0
   -0.4594    0.5929   -0.2437 C   0  0  0  0  0  0  0  0  0  0  0  0
   -1.6636    1.2826   -0.1436 C   0  0  0  0  0  0  0  0  0  0  0  0
    6.5441   -3.6935    0.8216 C   0  0  0  0  0  0  0  0  0  0  0  0
   -0.4367    3.2477   -0.1351 C   0  0  0  0  0  0  0  0  0  0  0  0
   -4.1541    1.2490    0.0035 C   0  0  0  0  0  0  0  0  0  0  0  0
   -5.2683    0.2413    0.0655 C   0  0  0  0  0  0  0  0  0  0  0  0
   -5.6783   -0.4179   -1.0935 C   0  0  0  0  0  0  0  0  0  0  0  0
   -5.8916   -0.0349    1.2824 C   0  0  0  0  0  0  0  0  0  0  0  0
   -6.7115   -1.3529   -1.0356 C   0  0  0  0  0  0  0  0  0  0  0  0
   -6.9250   -0.9699    1.3403 C   0  0  0  0  0  0  0  0  0  0  0  0
   -7.3350   -1.6290    0.1813 C   0  0  0  0  0  0  0  0  0  0  0  0
    3.4832   -0.0612    1.5387 H   0  0  0  0  0  0  0  0  0  0  0  0
    3.2693    1.7260   -0.9619 H   0  0  0  0  0  0  0  0  0  0  0  0
    5.8869    0.0509    1.3843 H   0  0  0  0  0  0  0  0  0  0  0  0
    5.9289   -0.3713   -1.4096 H   0  0  0  0  0  0  0  0  0  0  0  0
    2.7816    2.1185    1.7304 H   0  0  0  0  0  0  0  0  0  0  0  0
    6.8738    1.3790   -0.1729 H   0  0  0  0  0  0  0  0  0  0  0  0
    1.7314   -1.7027   -0.4680 H   0  0  0  0  0  0  0  0  0  0  0  0
    7.1080   -1.7104    0.3511 H   0  0  0  0  0  0  0  0  0  0  0  0
    7.1731   -4.2266    0.1045 H   0  0  0  0  0  0  0  0  0  0  0  0
    5.5991   -4.2262    0.9515 H   0  0  0  0  0  0  0  0  0  0  0  0
    7.0658   -3.6200    1.7787 H   0  0  0  0  0  0  0  0  0  0  0  0
   -2.8422   -0.4225   -0.1414 H   0  0  0  0  0  0  0  0  0  0  0  0
   -0.4595    4.3312   -0.0888 H   0  0  0  0  0  0  0  0  0  0  0  0
   -4.3178    1.9081   -0.8587 H   0  0  0  0  0  0  0  0  0  0  0  0
   -4.1805    1.8884    0.8949 H   0  0  0  0  0  0  0  0  0  0  0  0
   -5.1998   -0.2108   -2.0472 H   0  0  0  0  0  0  0  0  0  0  0  0
   -5.5810    0.4693    2.1935 H   0  0  0  0  0  0  0  0  0  0  0  0
   -7.0218   -1.8600   -1.9457 H   0  0  0  0  0  0  0  0  0  0  0  0
   -7.4025   -1.1768    2.2947 H   0  0  0  0  0  0  0  0  0  0  0  0
   -8.6777   -3.0525   -0.5998 H   0  0  0  0  0  0  0  0  0  0  0  0
   -8.8322   -2.7748    1.1222 H   0  0  0  0  0  0  0  0  0  0  0  0
  1 13  1  0  0  0  0
  1 15  1  0  0  0  0
  2 12  1  0  0  0  0
  2 34  1  0  0  0  0
  3 14  1  0  0  0  0
  3 35  1  0  0  0  0
  4 16  2  0  0  0  0
  5 13  1  0  0  0  0
  5 17  1  0  0  0  0
  5 18  1  0  0  0  0
  6 18  2  0  0  0  0
  6 19  1  0  0  0  0
  7 16  1  0  0  0  0
  7 21  1  0  0  0  0
  7 37  1  0  0  0  0
  8 17  2  0  0  0  0
  8 22  1  0  0  0  0
  9 20  1  0  0  0  0
  9 23  1  0  0  0  0
  9 41  1  0  0  0  0
 10 20  1  0  0  0  0
 10 22  2  0  0  0  0
 11 29  1  0  0  0  0
 11 49  1  0  0  0  0
 11 50  1  0  0  0  0
 12 13  1  0  0  0  0
 12 14  1  0  0  0  0
 12 30  1  0  0  0  0
 13 31  1  0  0  0  0
 14 15  1  0  0  0  0
 14 32  1  0  0  0  0
 15 16  1  0  0  0  0
 15 33  1  0  0  0  0
 17 19  1  0  0  0  0
 18 36  1  0  0  0  0
 19 20  2  0  0  0  0
 21 38  1  0  0  0  0
 21 39  1  0  0  0  0
 21 40  1  0  0  0  0
 22 42  1  0  0  0  0
 23 24  1  0  0  0  0
 23 43  1  0  0  0  0
 23 44  1  0  0  0  0
 24 25  2  0  0  0  0
 24 26  1  0  0  0  0
 25 27  1  0  0  0  0
 25 45  1  0  0  0  0
 26 28  2  0  0  0  0
 26 46  1  0  0  0  0
 27 29  2  0  0  0  0
 27 47  1  0  0  0  0
 28 29  1  0  0  0  0
 28 48  1  0  0  0  0
M  END
> <PUBCHEM_COMPOUND_CID>
118705472

> <PUBCHEM_CONFORMER_RMSD>
1

> <PUBCHEM_CONFORMER_DIVERSEORDER>
1
101
98
43
47
67
112
116
85
79
3
72
109
75
106
36
51
50
77
44
27
8
81
93
28
99
48
53
113
117
38
118
9
97
92
83
125
95
89
103
107
96
17
26
20
30
32
108
100
80
10
39
46
41
129
123
61
114
104
12
121
66
84
40
23
78
2
54
55
68
58
71
13
120
42
11
119
18
126
37
49
91
22
86
33
74
59
29
14
25
62
34
111
69
45
128
57
105
15
102
64
70
65
24
21
19
52
76
73
82
88
90
124
122
16
4
31
115
63
7
94
56
5
60
87
127
6
35
110

> <PUBCHEM_MMFF94_PARTIAL_CHARGES>
41
1 -0.56
10 -0.62
11 -0.9
12 0.28
13 0.54
14 0.28
15 0.34
16 0.57
17 0.11
18 0.04
19 0.23
2 -0.68
20 0.41
21 0.3
22 0.47
23 0.51
24 -0.14
25 -0.15
26 -0.15
27 -0.15
28 -0.15
29 0.1
3 -0.68
34 0.4
35 0.4
36 0.15
37 0.37
4 -0.57
41 0.4
42 0.15
45 0.15
46 0.15
47 0.15
48 0.15
49 0.4
5 0.05
50 0.4
6 -0.57
7 -0.73
8 -0.57
9 -0.87

> <PUBCHEM_EFFECTIVE_ROTOR_COUNT>
7

> <PUBCHEM_PHARMACOPHORE_FEATURES>
18
1 1 acceptor
1 11 cation
1 11 donor
1 2 acceptor
1 2 donor
1 3 acceptor
1 3 donor
1 4 acceptor
1 7 donor
1 9 cation
1 9 donor
3 5 6 18 cation
3 5 8 17 cation
3 8 10 22 cation
5 1 12 13 14 15 rings
5 5 6 17 18 19 rings
6 24 25 26 27 28 29 rings
6 8 10 17 19 20 22 rings

> <PUBCHEM_HEAVY_ATOM_COUNT>
29

> <PUBCHEM_ATOM_DEF_STEREO_COUNT>
3

> <PUBCHEM_ATOM_UDEF_STEREO_COUNT>
1

> <PUBCHEM_BOND_DEF_STEREO_COUNT>
0

> <PUBCHEM_BOND_UDEF_STEREO_COUNT>
0

> <PUBCHEM_ISOTOPIC_ATOM_COUNT>
0

> <PUBCHEM_COMPONENT_COUNT>
1

> <PUBCHEM_CACTVS_TAUTO_COUNT>
12

> <PUBCHEM_CONFORMER_ID>
07134D4000000001

> <PUBCHEM_MMFF94_ENERGY>
78.457

> <PUBCHEM_FEATURE_SELFOVERLAP>
91.981

> <PUBCHEM_SHAPE_FINGERPRINT>
10066227 112 9295286140763257099
10835480 77 8934706795565193354
11578080 2 16485264365984621970
11963148 33 18408880741830865679
12120059 9 18190999314573323655
12166972 35 18409453595836095933
125118 31 9799693701053960375
12516196 113 18413392055466653009
12623949 98 17988090989149839702
13533116 47 18411135823415218218
13668630 136 17676206883932560019
13685833 64 18410576219215076501
13782708 43 18342456993664196910
13862211 1 18410294700950933509
14251757 52 10592042449058763247
14849402 71 17487899123654604409
15352257 5 18409451384144099387
15510800 12 17896048788378788867
17492 89 18195246607869605278
18335252 98 18408604786128833452
20028762 73 18272374208910819663
2026 5 18335419098068627003
20281389 69 11383839255770226397
21130935 74 18413673491598715339
21197605 99 18342178869031847318
21267235 1 18341619221522635044
21424621 283 10879989164279643949
21585483 132 17605827028622657778
21682296 61 18409451371543391017
21987483 16 18339920527671506883
22149856 69 18341622494620173625
23522609 53 18050604860771945837
23569943 247 18192149304746677755
24771750 20 17608944414501602188
2748736 6 9367342609503675927
3633792 109 7853580127697899950
3663271 9 17917998282588711633
397830 11 12462990191336474143
406291 66 18261954038214159506
4340502 62 15195572294547135356
44880568 143 16877657951040500181
465052 167 18342740693808442150
50009960 94 17753876239222197794
5104073 3 18130222641190968856
5718773 13 18336544923868469658
58083652 198 17417798561788046473
636775 8 18267313036998490638
6898599 12 7997099362933423560

> <PUBCHEM_SHAPE_MULTIPOLES>
538.46
22.19
3.32
1.04
21.79
0.73
0.17
20.52
3.27
-3.42
0.4
0.45
0.1
0.04

> <PUBCHEM_SHAPE_SELFOVERLAP>
1171.118

> <PUBCHEM_SHAPE_VOLUME>
289.8

> <PUBCHEM_COORDINATE_TYPE>
2
5
10

$$$$
