118704580
  -OEChem-03292013293D

 59 59  0     1  0  0  0  0  0999 V2000
   -0.0661    1.4032   -1.6188 O   0  0  0  0  0  0  0  0  0  0  0  0
    3.1474   -1.3450    1.5773 O   0  0  0  0  0  0  0  0  0  0  0  0
    5.6800   -0.8963    0.7718 O   0  0  0  0  0  0  0  0  0  0  0  0
   -2.3837    2.9970    1.1723 O   0  0  0  0  0  0  0  0  0  0  0  0
   -1.0613    0.7382    0.3637 N   0  0  0  0  0  0  0  0  0  0  0  0
    4.5894   -0.5169   -0.0217 N   0  0  0  0  0  0  0  0  0  0  0  0
   -3.6332    2.8764   -0.7817 N   0  0  0  0  0  0  0  0  0  0  0  0
    1.3668    0.7559    0.2475 C   0  0  2  0  0  0  0  0  0  0  0  0
    2.2189    2.0455    0.4856 C   0  0  1  0  0  0  0  0  0  0  0  0
    2.2098   -0.3665   -0.4441 C   0  0  2  0  0  0  0  0  0  0  0  0
    2.6610    2.7629   -0.8077 C   0  0  0  0  0  0  0  0  0  0  0  0
    0.0241    1.0024   -0.4614 C   0  0  0  0  0  0  0  0  0  0  0  0
    1.3822   -1.5774   -0.9284 C   0  0  0  0  0  0  0  0  0  0  0  0
    1.5150    2.9960    1.4664 C   0  0  0  0  0  0  0  0  0  0  0  0
    3.3470   -0.7980    0.4948 C   0  0  0  0  0  0  0  0  0  0  0  0
   -2.4324    0.9092   -0.0581 C   0  0  1  0  0  0  0  0  0  0  0  0
    3.5530    3.9740   -0.5601 C   0  0  0  0  0  0  0  0  0  0  0  0
    2.2412   -2.6280   -1.5789 C   0  0  0  0  0  0  0  0  0  0  0  0
   -3.3878   -0.0334    0.6826 C   0  0  0  0  0  0  0  0  0  0  0  0
   -2.8086    2.3623    0.2093 C   0  0  0  0  0  0  0  0  0  0  0  0
   -3.0453   -1.4892    0.4795 C   0  0  0  0  0  0  0  0  0  0  0  0
    2.3062   -3.8988   -1.1663 C   0  0  0  0  0  0  0  0  0  0  0  0
   -3.6058   -2.1959   -0.5844 C   0  0  0  0  0  0  0  0  0  0  0  0
   -2.1681   -2.1278    1.3560 C   0  0  0  0  0  0  0  0  0  0  0  0
   -3.2892   -3.5415   -0.7718 C   0  0  0  0  0  0  0  0  0  0  0  0
   -1.8514   -3.4732    1.1686 C   0  0  0  0  0  0  0  0  0  0  0  0
   -4.0974    4.2449   -0.7967 C   0  0  0  0  0  0  0  0  0  0  0  0
   -2.4120   -4.1801    0.1047 C   0  0  0  0  0  0  0  0  0  0  0  0
    1.1338    0.3675    1.2502 H   0  0  0  0  0  0  0  0  0  0  0  0
    3.1371    1.7392    1.0039 H   0  0  0  0  0  0  0  0  0  0  0  0
    2.6524    0.0564   -1.3543 H   0  0  0  0  0  0  0  0  0  0  0  0
    1.7864    3.0991   -1.3743 H   0  0  0  0  0  0  0  0  0  0  0  0
    3.2154    2.0755   -1.4531 H   0  0  0  0  0  0  0  0  0  0  0  0
    0.8339   -2.0052   -0.0801 H   0  0  0  0  0  0  0  0  0  0  0  0
    0.6366   -1.2603   -1.6659 H   0  0  0  0  0  0  0  0  0  0  0  0
    0.6511    3.4783    0.9978 H   0  0  0  0  0  0  0  0  0  0  0  0
    2.1924    3.7789    1.8209 H   0  0  0  0  0  0  0  0  0  0  0  0
    1.1633    2.4541    2.3509 H   0  0  0  0  0  0  0  0  0  0  0  0
   -0.8979    0.5083    1.3392 H   0  0  0  0  0  0  0  0  0  0  0  0
   -2.4763    0.7116   -1.1366 H   0  0  0  0  0  0  0  0  0  0  0  0
    4.4148    3.7082    0.0601 H   0  0  0  0  0  0  0  0  0  0  0  0
    3.9290    4.3616   -1.5127 H   0  0  0  0  0  0  0  0  0  0  0  0
    3.0056    4.7854   -0.0716 H   0  0  0  0  0  0  0  0  0  0  0  0
   -4.4207    0.1482    0.3570 H   0  0  0  0  0  0  0  0  0  0  0  0
   -3.3842    0.1892    1.7587 H   0  0  0  0  0  0  0  0  0  0  0  0
    2.8266   -2.3295   -2.4447 H   0  0  0  0  0  0  0  0  0  0  0  0
    4.7914    0.0401   -0.8439 H   0  0  0  0  0  0  0  0  0  0  0  0
    2.9391   -4.6122   -1.6826 H   0  0  0  0  0  0  0  0  0  0  0  0
    1.7353   -4.2480   -0.3131 H   0  0  0  0  0  0  0  0  0  0  0  0
   -3.9239    2.2779   -1.5490 H   0  0  0  0  0  0  0  0  0  0  0  0
   -4.2887   -1.7084   -1.2750 H   0  0  0  0  0  0  0  0  0  0  0  0
   -1.7267   -1.5917    2.1918 H   0  0  0  0  0  0  0  0  0  0  0  0
    5.8841   -1.7626    0.3804 H   0  0  0  0  0  0  0  0  0  0  0  0
   -3.7249   -4.0917   -1.6006 H   0  0  0  0  0  0  0  0  0  0  0  0
   -1.1679   -3.9704    1.8507 H   0  0  0  0  0  0  0  0  0  0  0  0
   -3.8848    4.7465    0.1502 H   0  0  0  0  0  0  0  0  0  0  0  0
   -3.5921    4.7668   -1.6131 H   0  0  0  0  0  0  0  0  0  0  0  0
   -5.1742    4.2390   -0.9815 H   0  0  0  0  0  0  0  0  0  0  0  0
   -2.1647   -5.2275   -0.0416 H   0  0  0  0  0  0  0  0  0  0  0  0
  1 12  2  0  0  0  0
  2 15  2  0  0  0  0
  3  6  1  0  0  0  0
  3 53  1  0  0  0  0
  4 20  2  0  0  0  0
  5 12  1  0  0  0  0
  5 16  1  0  0  0  0
  5 39  1  0  0  0  0
  6 15  1  0  0  0  0
  6 47  1  0  0  0  0
  7 20  1  0  0  0  0
  7 27  1  0  0  0  0
  7 50  1  0  0  0  0
  8  9  1  0  0  0  0
  8 10  1  0  0  0  0
  8 12  1  0  0  0  0
  8 29  1  0  0  0  0
  9 11  1  0  0  0  0
  9 14  1  0  0  0  0
  9 30  1  0  0  0  0
 10 13  1  0  0  0  0
 10 15  1  0  0  0  0
 10 31  1  0  0  0  0
 11 17  1  0  0  0  0
 11 32  1  0  0  0  0
 11 33  1  0  0  0  0
 13 18  1  0  0  0  0
 13 34  1  0  0  0  0
 13 35  1  0  0  0  0
 14 36  1  0  0  0  0
 14 37  1  0  0  0  0
 14 38  1  0  0  0  0
 16 19  1  0  0  0  0
 16 20  1  0  0  0  0
 16 40  1  0  0  0  0
 17 41  1  0  0  0  0
 17 42  1  0  0  0  0
 17 43  1  0  0  0  0
 18 22  2  0  0  0  0
 18 46  1  0  0  0  0
 19 21  1  0  0  0  0
 19 44  1  0  0  0  0
 19 45  1  0  0  0  0
 21 23  2  0  0  0  0
 21 24  1  0  0  0  0
 22 48  1  0  0  0  0
 22 49  1  0  0  0  0
 23 25  1  0  0  0  0
 23 51  1  0  0  0  0
 24 26  2  0  0  0  0
 24 52  1  0  0  0  0
 25 28  2  0  0  0  0
 25 54  1  0  0  0  0
 26 28  1  0  0  0  0
 26 55  1  0  0  0  0
 27 56  1  0  0  0  0
 27 57  1  0  0  0  0
 27 58  1  0  0  0  0
 28 59  1  0  0  0  0
M  END
> <PUBCHEM_COMPOUND_CID>
118704580

> <PUBCHEM_CONFORMER_RMSD>
1.2

> <PUBCHEM_CONFORMER_DIVERSEORDER>
1
42
30
35
53
61
38
17
46
33
63
62
9
13
68
60
40
27
34
28
69
18
59
43
48
44
24
66
22
23
36
64
21
32
58
7
26
65
16
50
2
47
55
37
4
54
45
12
70
51
11
19
67
56
25
57
49
41
10
14
29
8
6
3
52
31
39
20
15
5

> <PUBCHEM_MMFF94_PARTIAL_CHARGES>
36
1 -0.57
10 0.06
12 0.57
13 0.14
15 0.57
16 0.36
18 -0.29
19 0.14
2 -0.57
20 0.57
21 -0.14
22 -0.3
23 -0.15
24 -0.15
25 -0.15
26 -0.15
27 0.3
28 -0.15
3 -0.44
39 0.37
4 -0.57
46 0.15
47 0.37
48 0.15
49 0.15
5 -0.73
50 0.37
51 0.15
52 0.15
53 0.4
54 0.15
55 0.15
59 0.15
6 -0.39
7 -0.73
8 0.06

> <PUBCHEM_EFFECTIVE_ROTOR_COUNT>
14

> <PUBCHEM_PHARMACOPHORE_FEATURES>
12
1 1 acceptor
1 14 hydrophobe
1 17 hydrophobe
1 2 acceptor
1 22 hydrophobe
1 4 acceptor
1 5 donor
1 6 donor
1 7 donor
3 10 13 18 hydrophobe
3 8 9 11 hydrophobe
6 21 23 24 25 26 28 rings

> <PUBCHEM_HEAVY_ATOM_COUNT>
28

> <PUBCHEM_ATOM_DEF_STEREO_COUNT>
3

> <PUBCHEM_ATOM_UDEF_STEREO_COUNT>
1

> <PUBCHEM_BOND_DEF_STEREO_COUNT>
0

> <PUBCHEM_BOND_UDEF_STEREO_COUNT>
0

> <PUBCHEM_ISOTOPIC_ATOM_COUNT>
0

> <PUBCHEM_COMPONENT_COUNT>
1

> <PUBCHEM_CACTVS_TAUTO_COUNT>
48

> <PUBCHEM_CONFORMER_ID>
071349C400000001

> <PUBCHEM_MMFF94_ENERGY>
62.9602

> <PUBCHEM_FEATURE_SELFOVERLAP>
61.154

> <PUBCHEM_SHAPE_FINGERPRINT>
10616163 171 18267309917960215343
10675989 125 18335408081239473527
10940486 97 18261395516498387268
12553582 1 18194418894514972447
12633257 1 18342187664950062363
12788726 201 18335990847886992731
13004483 165 18268142253122073915
13140716 1 18266187316799681707
140371 6 18200038309508218208
14223421 5 18340775960707741349
14725015 67 18338226163458596739
19591789 44 17837781392975824956
20600515 1 18051122606357171800
23558518 356 18334852852930270945
23559900 14 18341038709616849409
3298306 158 17685498646366680517
350125 39 18268148841559643036
469060 322 17120823983959967279
9709674 26 18341336621549413807

> <PUBCHEM_SHAPE_MULTIPOLES>
537.81
8.57
6.6
1.35
3.45
1.9
0.06
-0.8
0.5
-3.41
-1.39
0.24
-0.29
0.74

> <PUBCHEM_SHAPE_SELFOVERLAP>
1076.271

> <PUBCHEM_SHAPE_VOLUME>
315

> <PUBCHEM_COORDINATE_TYPE>
2
5
10

$$$$
