118701222
  -OEChem-03292013293D

 68 72  0     1  0  0  0  0  0999 V2000
    0.2341    2.7893    1.7967 O   0  0  0  0  0  0  0  0  0  0  0  0
    0.1486   -1.8794    1.2688 O   0  0  0  0  0  0  0  0  0  0  0  0
   -1.7189    3.0723   -0.2822 O   0  0  0  0  0  0  0  0  0  0  0  0
    1.4177    1.9951   -1.6036 O   0  0  0  0  0  0  0  0  0  0  0  0
    3.1628   -0.1717    0.3581 O   0  0  0  0  0  0  0  0  0  0  0  0
   -3.3626    1.3322   -2.1857 O   0  0  0  0  0  0  0  0  0  0  0  0
    2.1777   -2.6573    0.6757 O   0  0  0  0  0  0  0  0  0  0  0  0
   -5.3147   -0.4219   -2.6040 O   0  0  0  0  0  0  0  0  0  0  0  0
    3.3649   -1.1448   -1.7236 O   0  0  0  0  0  0  0  0  0  0  0  0
   -0.4184    0.5429    1.2891 C   0  0  2  0  0  0  0  0  0  0  0  0
   -1.1385    0.6846   -0.1122 C   0  0  1  0  0  0  0  0  0  0  0  0
    1.0956    0.7306    1.1668 C   0  0  2  0  0  0  0  0  0  0  0  0
   -2.6543    0.1689   -0.1278 C   0  0  2  0  0  0  0  0  0  0  0  0
    1.1530    2.2173    0.8259 C   0  0  1  0  0  0  0  0  0  0  0  0
   -0.6349   -0.8302    1.9231 C   0  0  1  0  0  0  0  0  0  0  0  0
   -0.8472    2.0642   -0.7814 C   0  0  2  0  0  0  0  0  0  0  0  0
   -0.6856    1.7455    2.2106 C   0  0  0  0  0  0  0  0  0  0  0  0
   -2.6526   -1.2968    0.4548 C   0  0  1  0  0  0  0  0  0  0  0  0
    0.6033    2.5513   -0.5770 C   0  0  2  0  0  0  0  0  0  0  0  0
   -2.0849   -1.3123    1.8911 C   0  0  0  0  0  0  0  0  0  0  0  0
    1.7533   -0.3200    0.2999 C   0  0  2  0  0  0  0  0  0  0  0  0
   -3.1723    0.0543   -1.5957 C   0  0  1  0  0  0  0  0  0  0  0  0
   -3.6383    1.0636    0.6751 C   0  0  0  0  0  0  0  0  0  0  0  0
    2.5267    2.8382    1.0655 C   0  0  0  0  0  0  0  0  0  0  0  0
   -3.9894   -2.0134    0.2865 C   0  0  0  0  0  0  0  0  0  0  0  0
    1.4066   -1.7083    0.7923 C   0  0  0  0  0  0  0  0  0  0  0  0
   -4.5085   -0.6662   -1.7069 C   0  0  0  0  0  0  0  0  0  0  0  0
   -4.8319   -1.7182   -0.7160 C   0  0  0  0  0  0  0  0  0  0  0  0
   -4.3324   -3.1383    1.2248 C   0  0  0  0  0  0  0  0  0  0  0  0
    3.8603   -0.6295   -0.7296 C   0  0  0  0  0  0  0  0  0  0  0  0
    5.3511   -0.4327   -0.5127 C   0  0  1  0  0  0  0  0  0  0  0  0
    6.1700   -1.5308   -1.2066 C   0  0  0  0  0  0  0  0  0  0  0  0
    5.7352    0.9471   -1.0394 C   0  0  0  0  0  0  0  0  0  0  0  0
    5.8246   -2.9255   -0.7004 C   0  0  0  0  0  0  0  0  0  0  0  0
   -0.6339   -0.0332   -0.7731 H   0  0  0  0  0  0  0  0  0  0  0  0
    1.5413    0.6175    2.1715 H   0  0  0  0  0  0  0  0  0  0  0  0
   -0.3013   -0.8299    2.9685 H   0  0  0  0  0  0  0  0  0  0  0  0
   -1.0411    1.9779   -1.8558 H   0  0  0  0  0  0  0  0  0  0  0  0
   -1.6923    2.1550    2.1798 H   0  0  0  0  0  0  0  0  0  0  0  0
   -0.4562    1.5175    3.2580 H   0  0  0  0  0  0  0  0  0  0  0  0
   -1.9584   -1.8938   -0.1577 H   0  0  0  0  0  0  0  0  0  0  0  0
    0.6304    3.6415   -0.7044 H   0  0  0  0  0  0  0  0  0  0  0  0
   -2.7021   -0.7157    2.5703 H   0  0  0  0  0  0  0  0  0  0  0  0
   -2.0955   -2.3375    2.2807 H   0  0  0  0  0  0  0  0  0  0  0  0
    1.4094   -0.2601   -0.7350 H   0  0  0  0  0  0  0  0  0  0  0  0
   -2.4508   -0.4988   -2.2100 H   0  0  0  0  0  0  0  0  0  0  0  0
   -4.6581    0.6648    0.6633 H   0  0  0  0  0  0  0  0  0  0  0  0
   -3.7201    2.0731    0.2684 H   0  0  0  0  0  0  0  0  0  0  0  0
   -3.3754    1.1455    1.7289 H   0  0  0  0  0  0  0  0  0  0  0  0
    2.4726    3.9306    0.9949 H   0  0  0  0  0  0  0  0  0  0  0  0
    3.2640    2.4866    0.3425 H   0  0  0  0  0  0  0  0  0  0  0  0
    2.8899    2.6145    2.0747 H   0  0  0  0  0  0  0  0  0  0  0  0
   -1.5765    3.8765   -0.8098 H   0  0  0  0  0  0  0  0  0  0  0  0
    1.0782    2.3138   -2.4571 H   0  0  0  0  0  0  0  0  0  0  0  0
   -5.7725   -2.2421   -0.8490 H   0  0  0  0  0  0  0  0  0  0  0  0
   -3.5369    1.1967   -3.1328 H   0  0  0  0  0  0  0  0  0  0  0  0
   -3.5414   -3.8953    1.2181 H   0  0  0  0  0  0  0  0  0  0  0  0
   -5.2641   -3.6422    0.9447 H   0  0  0  0  0  0  0  0  0  0  0  0
   -4.4615   -2.7639    2.2451 H   0  0  0  0  0  0  0  0  0  0  0  0
    5.5553   -0.4827    0.5643 H   0  0  0  0  0  0  0  0  0  0  0  0
    6.0112   -1.4996   -2.2916 H   0  0  0  0  0  0  0  0  0  0  0  0
    7.2380   -1.3492   -1.0356 H   0  0  0  0  0  0  0  0  0  0  0  0
    5.4864    1.0524   -2.1013 H   0  0  0  0  0  0  0  0  0  0  0  0
    5.2073    1.7363   -0.4977 H   0  0  0  0  0  0  0  0  0  0  0  0
    6.8093    1.1242   -0.9210 H   0  0  0  0  0  0  0  0  0  0  0  0
    5.9498   -2.9899    0.3853 H   0  0  0  0  0  0  0  0  0  0  0  0
    6.4898   -3.6639   -1.1599 H   0  0  0  0  0  0  0  0  0  0  0  0
    4.7980   -3.2107   -0.9461 H   0  0  0  0  0  0  0  0  0  0  0  0
  1 14  1  0  0  0  0
  1 17  1  0  0  0  0
  2 15  1  0  0  0  0
  2 26  1  0  0  0  0
  3 16  1  0  0  0  0
  3 53  1  0  0  0  0
  4 19  1  0  0  0  0
  4 54  1  0  0  0  0
  5 21  1  0  0  0  0
  5 30  1  0  0  0  0
  6 22  1  0  0  0  0
  6 56  1  0  0  0  0
  7 26  2  0  0  0  0
  8 27  2  0  0  0  0
  9 30  2  0  0  0  0
 10 11  1  0  0  0  0
 10 12  1  0  0  0  0
 10 15  1  0  0  0  0
 10 17  1  0  0  0  0
 11 13  1  0  0  0  0
 11 16  1  0  0  0  0
 11 35  1  0  0  0  0
 12 14  1  0  0  0  0
 12 21  1  0  0  0  0
 12 36  1  0  0  0  0
 13 18  1  0  0  0  0
 13 22  1  0  0  0  0
 13 23  1  0  0  0  0
 14 19  1  0  0  0  0
 14 24  1  0  0  0  0
 15 20  1  0  0  0  0
 15 37  1  0  0  0  0
 16 19  1  0  0  0  0
 16 38  1  0  0  0  0
 17 39  1  0  0  0  0
 17 40  1  0  0  0  0
 18 20  1  0  0  0  0
 18 25  1  0  0  0  0
 18 41  1  0  0  0  0
 19 42  1  0  0  0  0
 20 43  1  0  0  0  0
 20 44  1  0  0  0  0
 21 26  1  0  0  0  0
 21 45  1  0  0  0  0
 22 27  1  0  0  0  0
 22 46  1  0  0  0  0
 23 47  1  0  0  0  0
 23 48  1  0  0  0  0
 23 49  1  0  0  0  0
 24 50  1  0  0  0  0
 24 51  1  0  0  0  0
 24 52  1  0  0  0  0
 25 28  2  0  0  0  0
 25 29  1  0  0  0  0
 27 28  1  0  0  0  0
 28 55  1  0  0  0  0
 29 57  1  0  0  0  0
 29 58  1  0  0  0  0
 29 59  1  0  0  0  0
 30 31  1  0  0  0  0
 31 32  1  0  0  0  0
 31 33  1  0  0  0  0
 31 60  1  0  0  0  0
 32 34  1  0  0  0  0
 32 61  1  0  0  0  0
 32 62  1  0  0  0  0
 33 63  1  0  0  0  0
 33 64  1  0  0  0  0
 33 65  1  0  0  0  0
 34 66  1  0  0  0  0
 34 67  1  0  0  0  0
 34 68  1  0  0  0  0
M  END
> <PUBCHEM_COMPOUND_CID>
118701222

> <PUBCHEM_CONFORMER_RMSD>
0.8

> <PUBCHEM_CONFORMER_DIVERSEORDER>
1
17
5
13
6
8
7
9
12
15
16
14
3
2
10
4
11
18

> <PUBCHEM_MMFF94_PARTIAL_CHARGES>
28
1 -0.56
14 0.28
15 0.28
16 0.28
17 0.28
18 0.14
19 0.28
2 -0.43
21 0.34
22 0.34
25 -0.28
26 0.66
27 0.49
28 -0.14
29 0.14
3 -0.68
30 0.66
31 0.06
4 -0.68
5 -0.43
53 0.4
54 0.4
55 0.15
56 0.4
6 -0.68
7 -0.57
8 -0.57
9 -0.57

> <PUBCHEM_EFFECTIVE_ROTOR_COUNT>
5.6

> <PUBCHEM_PHARMACOPHORE_FEATURES>
16
1 1 acceptor
1 3 acceptor
1 3 donor
1 33 hydrophobe
1 34 hydrophobe
1 4 acceptor
1 4 donor
1 6 acceptor
1 6 donor
1 7 acceptor
1 8 acceptor
1 9 acceptor
6 10 11 13 15 18 20 rings
6 13 18 22 25 27 28 rings
6 2 10 12 15 21 26 rings
8 1 10 11 12 14 16 17 19 rings

> <PUBCHEM_HEAVY_ATOM_COUNT>
34

> <PUBCHEM_ATOM_DEF_STEREO_COUNT>
10

> <PUBCHEM_ATOM_UDEF_STEREO_COUNT>
2

> <PUBCHEM_BOND_DEF_STEREO_COUNT>
0

> <PUBCHEM_BOND_UDEF_STEREO_COUNT>
0

> <PUBCHEM_ISOTOPIC_ATOM_COUNT>
0

> <PUBCHEM_COMPONENT_COUNT>
1

> <PUBCHEM_CACTVS_TAUTO_COUNT>
10

> <PUBCHEM_CONFORMER_ID>
07133CA600000001

> <PUBCHEM_MMFF94_ENERGY>
129.9551

> <PUBCHEM_FEATURE_SELFOVERLAP>
81.368

> <PUBCHEM_SHAPE_FINGERPRINT>
10319926 262 12247413326917774876
10930396 42 18120063287569538504
11115154 58 18201707445943353509
11640471 11 13984649378611555619
11961588 58 16588299548777791964
1200032 147 15575828392825238317
12166972 35 18114477725049407838
12422481 6 10231763258377797200
12553582 1 18336541629918230129
12633257 1 10879982588426146743
12788726 201 17771908220957790537
13544653 18 18060142033288728836
13911987 19 18266477566821293950
14068700 675 17275095128981928055
14790565 3 17759522166911118597
14931854 50 18042106705688645807
15324884 4 17756141542470213555
16945 1 18264191557176670049
17349148 13 18115596937787122450
17357779 13 18411985775599001568
17492 54 17967245377815127350
1813 80 16988854903183631292
18608769 82 17676209113411119755
19958102 18 17967818198258224182
20691752 17 17458339797207634825
20775438 99 17694755794858639951
21033650 10 17095513016167865245
21756936 100 13840274701443764526
22182313 1 18117555351856709873
22393880 68 18114736131166044523
23536364 44 18410013195646019343
23559900 14 18188482592491895885
2838139 119 14851599990540244662
46194498 28 17897730005126982359
463206 1 17987800855076344391
57527585 103 17390836277248011322
6669772 16 17983851465945482472
6823239 73 18042954545006669755
70251023 43 18131060558860128577

> <PUBCHEM_SHAPE_MULTIPOLES>
646.88
11.3
3.49
2.08
9.56
0.48
-0.28
-8.92
-6.92
0.87
0.74
-1.71
0.23
1.3

> <PUBCHEM_SHAPE_SELFOVERLAP>
1403.313

> <PUBCHEM_SHAPE_VOLUME>
345

> <PUBCHEM_COORDINATE_TYPE>
2
5
10

$$$$
