118701744
  -OEChem-03292013293D

 46 47  0     1  0  0  0  0  0999 V2000
   -3.3128    1.2533    0.3683 O   0  0  0  0  0  0  0  0  0  0  0  0
   -3.3834   -2.8846    0.1127 O   0  0  0  0  0  0  0  0  0  0  0  0
   -0.6954    1.8605    1.1365 O   0  0  0  0  0  0  0  0  0  0  0  0
    2.1689    3.5823   -0.8651 O   0  0  0  0  0  0  0  0  0  0  0  0
    2.3095    2.7141    1.2262 O   0  0  0  0  0  0  0  0  0  0  0  0
    2.3378   -0.6888   -1.8376 O   0  0  0  0  0  0  0  0  0  0  0  0
   -4.2844   -0.7512   -0.3356 N   0  0  0  0  0  0  0  0  0  0  0  0
    1.5430    0.2798    0.1137 N   0  0  0  0  0  0  0  0  0  0  0  0
    2.3822   -3.1206   -0.5748 N   0  0  0  0  0  0  0  0  0  0  0  0
   -4.2569    0.2275    0.7568 C   0  0  1  0  0  0  0  0  0  0  0  0
   -2.7722    0.9366   -0.9441 C   0  0  2  0  0  0  0  0  0  0  0  0
   -3.6498   -0.1987   -1.5158 C   0  0  0  0  0  0  0  0  0  0  0  0
   -3.8068   -0.9163    1.6809 C   0  0  0  0  0  0  0  0  0  0  0  0
   -1.3115    0.5332   -0.7794 C   0  0  0  0  0  0  0  0  0  0  0  0
   -3.7855   -1.7818    0.4069 C   0  0  0  0  0  0  0  0  0  0  0  0
   -0.4487    1.6911   -0.2594 C   0  0  2  0  0  0  0  0  0  0  0  0
    1.0584    1.5030   -0.4827 C   0  0  1  0  0  0  0  0  0  0  0  0
    1.8934    2.6427    0.0770 C   0  0  0  0  0  0  0  0  0  0  0  0
    2.5620   -1.9178    0.2420 C   0  0  2  0  0  0  0  0  0  0  0  0
    2.1501   -0.7271   -0.6227 C   0  0  0  0  0  0  0  0  0  0  0  0
    4.0105   -1.8131    0.7748 C   0  0  0  0  0  0  0  0  0  0  0  0
    5.0374   -1.8216   -0.3618 C   0  0  0  0  0  0  0  0  0  0  0  0
    4.2544   -0.6026    1.6831 C   0  0  0  0  0  0  0  0  0  0  0  0
   -5.2444    0.6449    0.9762 H   0  0  0  0  0  0  0  0  0  0  0  0
   -2.8525    1.8262   -1.5784 H   0  0  0  0  0  0  0  0  0  0  0  0
   -4.4444    0.2088   -2.1481 H   0  0  0  0  0  0  0  0  0  0  0  0
   -3.0810   -0.9554   -2.0631 H   0  0  0  0  0  0  0  0  0  0  0  0
   -4.5414   -1.2354    2.4242 H   0  0  0  0  0  0  0  0  0  0  0  0
   -2.8263   -0.7875    2.1457 H   0  0  0  0  0  0  0  0  0  0  0  0
   -1.2366   -0.3161   -0.0897 H   0  0  0  0  0  0  0  0  0  0  0  0
   -0.9301    0.2102   -1.7556 H   0  0  0  0  0  0  0  0  0  0  0  0
   -0.7503    2.6268   -0.7451 H   0  0  0  0  0  0  0  0  0  0  0  0
    1.2488    1.4557   -1.5619 H   0  0  0  0  0  0  0  0  0  0  0  0
    1.4707    0.1812    1.1222 H   0  0  0  0  0  0  0  0  0  0  0  0
   -0.4463    1.0359    1.5872 H   0  0  0  0  0  0  0  0  0  0  0  0
    1.8772   -1.9909    1.0962 H   0  0  0  0  0  0  0  0  0  0  0  0
    4.1987   -2.7069    1.3863 H   0  0  0  0  0  0  0  0  0  0  0  0
    3.5166   -0.5693    2.4913 H   0  0  0  0  0  0  0  0  0  0  0  0
    5.2480   -0.6598    2.1408 H   0  0  0  0  0  0  0  0  0  0  0  0
    4.9528   -2.7175   -0.9846 H   0  0  0  0  0  0  0  0  0  0  0  0
    6.0546   -1.8114    0.0462 H   0  0  0  0  0  0  0  0  0  0  0  0
    4.9369   -0.9429   -1.0071 H   0  0  0  0  0  0  0  0  0  0  0  0
    4.2006    0.3384    1.1268 H   0  0  0  0  0  0  0  0  0  0  0  0
    1.3959   -3.2304   -0.8088 H   0  0  0  0  0  0  0  0  0  0  0  0
    2.6378   -3.9437   -0.0306 H   0  0  0  0  0  0  0  0  0  0  0  0
    2.7216    4.3088   -0.5057 H   0  0  0  0  0  0  0  0  0  0  0  0
  1 10  1  0  0  0  0
  1 11  1  0  0  0  0
  2 15  2  0  0  0  0
  3 16  1  0  0  0  0
  3 35  1  0  0  0  0
  4 18  1  0  0  0  0
  4 46  1  0  0  0  0
  5 18  2  0  0  0  0
  6 20  2  0  0  0  0
  7 10  1  0  0  0  0
  7 12  1  0  0  0  0
  7 15  1  0  0  0  0
  8 17  1  0  0  0  0
  8 20  1  0  0  0  0
  8 34  1  0  0  0  0
  9 19  1  0  0  0  0
  9 44  1  0  0  0  0
  9 45  1  0  0  0  0
 10 13  1  0  0  0  0
 10 24  1  0  0  0  0
 11 12  1  0  0  0  0
 11 14  1  0  0  0  0
 11 25  1  0  0  0  0
 12 26  1  0  0  0  0
 12 27  1  0  0  0  0
 13 15  1  0  0  0  0
 13 28  1  0  0  0  0
 13 29  1  0  0  0  0
 14 16  1  0  0  0  0
 14 30  1  0  0  0  0
 14 31  1  0  0  0  0
 16 17  1  0  0  0  0
 16 32  1  0  0  0  0
 17 18  1  0  0  0  0
 17 33  1  0  0  0  0
 19 20  1  0  0  0  0
 19 21  1  0  0  0  0
 19 36  1  0  0  0  0
 21 22  1  0  0  0  0
 21 23  1  0  0  0  0
 21 37  1  0  0  0  0
 22 40  1  0  0  0  0
 22 41  1  0  0  0  0
 22 42  1  0  0  0  0
 23 38  1  0  0  0  0
 23 39  1  0  0  0  0
 23 43  1  0  0  0  0
M  END
> <PUBCHEM_COMPOUND_CID>
118701744

> <PUBCHEM_CONFORMER_RMSD>
1.2

> <PUBCHEM_CONFORMER_DIVERSEORDER>
2
116
26
74
125
129
64
151
117
111
97
96
49
119
143
31
75
144
58
57
84
110
85
45
104
18
124
32
102
41
53
128
88
87
147
114
40
150
131
23
62
47
81
5
7
98
146
67
21
66
17
120
4
29
36
112
115
30
148
38
94
86
77
1
99
149
69
137
34
100
28
141
101
20
132
10
52
71
139
59
9
142
54
78
138
22
70
33
95
106
126
83
39
61
91
90
50
14
82
24
113
80
135
56
19
89
44
133
109
73
63
76
8
46
122
13
107
92
3
55
72
93
35
16
145
11
25
42
108
68
27
60
15
121
140
134
127
48
43
37
51
118
6
12
103
130
123
105
79
136
65

> <PUBCHEM_MMFF94_PARTIAL_CHARGES>
24
1 -0.54
10 0.48
11 0.28
12 0.3
13 0.05
15 0.58
16 0.28
17 0.36
18 0.66
19 0.33
2 -0.57
20 0.57
3 -0.68
34 0.37
35 0.4
4 -0.65
44 0.36
45 0.36
46 0.5
5 -0.57
6 -0.57
7 -0.59
8 -0.73
9 -0.99

> <PUBCHEM_EFFECTIVE_ROTOR_COUNT>
8.8

> <PUBCHEM_PHARMACOPHORE_FEATURES>
13
1 1 acceptor
1 2 acceptor
1 3 acceptor
1 3 donor
1 4 acceptor
1 5 acceptor
1 6 acceptor
1 8 donor
1 9 cation
1 9 donor
3 21 22 23 hydrophobe
3 4 5 18 anion
7 1 7 10 11 12 13 15 rings

> <PUBCHEM_HEAVY_ATOM_COUNT>
23

> <PUBCHEM_ATOM_DEF_STEREO_COUNT>
1

> <PUBCHEM_ATOM_UDEF_STEREO_COUNT>
4

> <PUBCHEM_BOND_DEF_STEREO_COUNT>
0

> <PUBCHEM_BOND_UDEF_STEREO_COUNT>
0

> <PUBCHEM_ISOTOPIC_ATOM_COUNT>
0

> <PUBCHEM_COMPONENT_COUNT>
1

> <PUBCHEM_CACTVS_TAUTO_COUNT>
4

> <PUBCHEM_CONFORMER_ID>
07133EB000000002

> <PUBCHEM_MMFF94_ENERGY>
53.8134

> <PUBCHEM_FEATURE_SELFOVERLAP>
66.037

> <PUBCHEM_SHAPE_FINGERPRINT>
10675989 125 16603484542934050669
11405975 8 18409450280622295617
11595378 159 16056887948127341601
12363563 72 18335986363445075130
12506688 2 18336549326209584374
12553582 1 18340215076591456599
12596599 1 18129680676410883907
12596602 18 16558453262666168331
12633257 1 18341908385123944515
13533116 47 18270963565915453511
13544653 18 18200582610412381536
14787075 74 18187649081479740770
14955137 171 18131917066140055612
15880784 105 17060041640851873063
20603629 256 18341341096741572433
20626108 58 17313099714310482802
20645477 70 18263347226856832453
20681651 13 17986683764959419379
21421861 104 18270698518213094120
221490 88 18334018323499008026
2255824 54 18338523035744883372
23557571 272 17983293721349830436
23559900 14 18335975437096149613
458136 41 18120665883168777380
5104073 3 18270411589561029443
5486654 36 18263938660917459265
5902787 121 18409448055269605764
6669772 16 18122636217566403932
9709674 26 18115304613411460947

> <PUBCHEM_SHAPE_MULTIPOLES>
423.17
9.96
3.53
1.41
1.18
1.22
-0.11
-6.55
-1.6
-2.48
-0.03
0.03
-0.03
0.53

> <PUBCHEM_SHAPE_SELFOVERLAP>
862.31

> <PUBCHEM_SHAPE_VOLUME>
243.8

> <PUBCHEM_COORDINATE_TYPE>
2
5
10

$$$$
