118705331
  -OEChem-03292013293D

 32 34  0     1  0  0  0  0  0999 V2000
    2.5665   -2.0484   -0.0104 P   0  0  0  0  0  0  0  0  0  0  0  0
    0.7555    1.3001   -1.2950 O   0  0  0  0  0  0  0  0  0  0  0  0
   -1.1475    1.4075    1.2858 O   0  0  0  0  0  0  0  0  0  0  0  0
    1.1019    4.0032    0.1323 O   0  0  0  0  0  0  0  0  0  0  0  0
    2.6851   -0.4553   -0.2695 O   0  0  0  0  0  0  0  0  0  0  0  0
    0.9719   -2.3170    0.0072 O   0  0  0  0  0  0  0  0  0  0  0  0
    2.9852   -2.1924    1.5449 O   0  0  0  0  0  0  0  0  0  0  0  0
    3.3512   -2.9056   -0.9600 O   0  0  0  0  0  0  0  0  0  0  0  0
   -1.4318    0.5286   -0.7585 N   0  0  0  0  0  0  0  0  0  0  0  0
   -2.3702   -0.5763    1.1310 N   0  0  0  0  0  0  0  0  0  0  0  0
   -3.5563   -2.5238    0.8097 N   0  0  0  0  0  0  0  0  0  0  0  0
   -0.6301    2.3708    0.3408 C   0  0  2  0  0  0  0  0  0  0  0  0
   -0.6014    1.6705   -1.0165 C   0  0  1  0  0  0  0  0  0  0  0  0
    0.8176    2.6944    0.6254 C   0  0  1  0  0  0  0  0  0  0  0  0
    1.6010    1.6770   -0.1946 C   0  0  1  0  0  0  0  0  0  0  0  0
    1.9725    0.4233    0.5862 C   0  0  0  0  0  0  0  0  0  0  0  0
   -1.7027    0.3835    0.5731 C   0  0  0  0  0  0  0  0  0  0  0  0
   -1.8910   -0.4179   -1.6287 C   0  0  0  0  0  0  0  0  0  0  0  0
   -2.6040   -1.4633   -1.1899 C   0  0  0  0  0  0  0  0  0  0  0  0
   -2.8734   -1.5587    0.2868 C   0  0  0  0  0  0  0  0  0  0  0  0
   -1.2919    3.2435    0.3496 H   0  0  0  0  0  0  0  0  0  0  0  0
   -0.9725    2.3044   -1.8284 H   0  0  0  0  0  0  0  0  0  0  0  0
    1.0687    2.6713    1.6904 H   0  0  0  0  0  0  0  0  0  0  0  0
    2.5073    2.1101   -0.6332 H   0  0  0  0  0  0  0  0  0  0  0  0
    1.0829   -0.0749    0.9781 H   0  0  0  0  0  0  0  0  0  0  0  0
    2.6209    0.6782    1.4307 H   0  0  0  0  0  0  0  0  0  0  0  0
    2.0431    4.1796    0.3022 H   0  0  0  0  0  0  0  0  0  0  0  0
   -1.6386   -0.2658   -2.6700 H   0  0  0  0  0  0  0  0  0  0  0  0
   -2.9820   -2.2319   -1.8513 H   0  0  0  0  0  0  0  0  0  0  0  0
   -3.8682   -3.1791    0.0851 H   0  0  0  0  0  0  0  0  0  0  0  0
    0.6459   -3.2390    0.0835 H   0  0  0  0  0  0  0  0  0  0  0  0
    3.0813   -3.0897    1.9293 H   0  0  0  0  0  0  0  0  0  0  0  0
  1  5  1  0  0  0  0
  1  6  1  0  0  0  0
  1  7  1  0  0  0  0
  1  8  2  0  0  0  0
  2 13  1  0  0  0  0
  2 15  1  0  0  0  0
  3 12  1  0  0  0  0
  3 17  1  0  0  0  0
  4 14  1  0  0  0  0
  4 27  1  0  0  0  0
  5 16  1  0  0  0  0
  6 31  1  0  0  0  0
  7 32  1  0  0  0  0
  9 13  1  0  0  0  0
  9 17  1  0  0  0  0
  9 18  1  0  0  0  0
 10 17  2  0  0  0  0
 10 20  1  0  0  0  0
 11 20  2  0  0  0  0
 11 30  1  0  0  0  0
 12 13  1  0  0  0  0
 12 14  1  0  0  0  0
 12 21  1  0  0  0  0
 13 22  1  0  0  0  0
 14 15  1  0  0  0  0
 14 23  1  0  0  0  0
 15 16  1  0  0  0  0
 15 24  1  0  0  0  0
 16 25  1  0  0  0  0
 16 26  1  0  0  0  0
 18 19  2  0  0  0  0
 18 28  1  0  0  0  0
 19 20  1  0  0  0  0
 19 29  1  0  0  0  0
M  END
> <PUBCHEM_COMPOUND_CID>
118705331

> <PUBCHEM_CONFORMER_RMSD>
0.6

> <PUBCHEM_CONFORMER_DIVERSEORDER>
1
16
15
24
22
13
28
23
10
3
27
20
12
14
8
21
9
18
26
6
2
11
19
4
25
5
29
7
17

> <PUBCHEM_MMFF94_PARTIAL_CHARGES>
26
1 1.51
10 -0.66
11 -0.85
12 0.28
13 0.65
14 0.28
15 0.28
16 0.28
17 0.65
18 -0.05
19 -0.14
2 -0.56
20 0.65
27 0.4
28 0.15
29 0.15
3 -0.43
30 0.4
31 0.5
32 0.5
4 -0.68
5 -0.55
6 -0.77
7 -0.77
8 -0.7
9 -0.52

> <PUBCHEM_EFFECTIVE_ROTOR_COUNT>
3.8

> <PUBCHEM_PHARMACOPHORE_FEATURES>
13
1 11 donor
1 2 acceptor
1 4 acceptor
1 4 donor
1 6 acceptor
1 7 acceptor
1 8 acceptor
3 10 11 20 cation
3 9 10 17 cation
4 1 6 7 8 anion
5 2 12 13 14 15 rings
5 3 9 12 13 17 rings
6 9 10 17 18 19 20 rings

> <PUBCHEM_HEAVY_ATOM_COUNT>
20

> <PUBCHEM_ATOM_DEF_STEREO_COUNT>
4

> <PUBCHEM_ATOM_UDEF_STEREO_COUNT>
0

> <PUBCHEM_BOND_DEF_STEREO_COUNT>
0

> <PUBCHEM_BOND_UDEF_STEREO_COUNT>
0

> <PUBCHEM_ISOTOPIC_ATOM_COUNT>
0

> <PUBCHEM_COMPONENT_COUNT>
1

> <PUBCHEM_CACTVS_TAUTO_COUNT>
1

> <PUBCHEM_CONFORMER_ID>
07134CB300000001

> <PUBCHEM_MMFF94_ENERGY>
19.195

> <PUBCHEM_FEATURE_SELFOVERLAP>
66.887

> <PUBCHEM_SHAPE_FINGERPRINT>
10064457 181 17114953742929460523
107951 10 16828988888975463894
12553582 1 18339645546800982398
13027679 85 18339923693062072196
13140716 1 18266453218287793370
13583140 156 17978260423658896737
14817 1 12930102295674589575
15209289 33 18054802942347884028
16945 1 17619338149368430237
17138139 8 16043628129996987175
17859628 97 16320345962370799826
20645477 70 18048860090658118455
21421861 104 18196670677164048187
21731516 1 18341898471869602286
22445834 79 18127984202809115441
22802520 49 18043509785536395773
23419403 2 16819884108105877180
23526113 38 18045750534156180605
23557571 272 18123732193971494650
23728640 28 17472125185949077506
2748010 2 18268974437089009060
4340502 62 17260478483769825635
598444 67 16975070025110533606
6443956 14 18409731772609589503
81228 2 17980746148175559912
8272917 22 18123759918122306075

> <PUBCHEM_SHAPE_MULTIPOLES>
359.41
4.88
4.08
1.32
1.25
0.59
0.12
-4.81
-0.48
-3.14
-0.33
0.41
-0.22
0.18

> <PUBCHEM_SHAPE_SELFOVERLAP>
758.743

> <PUBCHEM_SHAPE_VOLUME>
204.5

> <PUBCHEM_COORDINATE_TYPE>
2
5
10

$$$$
