118701337
  -OEChem-03292013293D

 52 54  0     1  0  0  0  0  0999 V2000
   -5.8088   -0.2886    1.3578 Cl  0  0  0  0  0  0  0  0  0  0  0  0
    6.4253    1.1082   -2.0243 Cl  0  0  0  0  0  0  0  0  0  0  0  0
   -1.7837   -2.1147   -0.1122 O   0  0  0  0  0  0  0  0  0  0  0  0
   -4.2662   -0.9270   -1.0916 O   0  0  0  0  0  0  0  0  0  0  0  0
   -4.2064    1.6023   -2.1572 O   0  0  0  0  0  0  0  0  0  0  0  0
    2.3940    0.1064   -0.1486 O   0  0  0  0  0  0  0  0  0  0  0  0
   -0.8933   -4.2325   -0.0994 O   0  0  0  0  0  0  0  0  0  0  0  0
    3.2790    0.8083    1.8586 O   0  0  0  0  0  0  0  0  0  0  0  0
    5.7551    0.5437    0.9849 O   0  0  0  0  0  0  0  0  0  0  0  0
   -2.1734    0.2287   -0.5698 C   0  0  2  0  0  0  0  0  0  0  0  0
   -1.8448    1.7380   -0.3620 C   0  0  1  0  0  0  0  0  0  0  0  0
   -3.6986    0.1068   -0.2932 C   0  0  1  0  0  0  0  0  0  0  0  0
   -1.2886   -0.7874    0.1717 C   0  0  2  0  0  0  0  0  0  0  0  0
   -4.2321    1.4754   -0.7376 C   0  0  1  0  0  0  0  0  0  0  0  0
   -3.2112    2.4404   -0.1478 C   0  0  0  0  0  0  0  0  0  0  0  0
    0.1742   -0.8119   -0.2784 C   0  0  1  0  0  0  0  0  0  0  0  0
   -0.7328    2.0415    0.6206 C   0  0  0  0  0  0  0  0  0  0  0  0
    1.0731    0.2388    0.3910 C   0  0  2  0  0  0  0  0  0  0  0  0
    0.6528    1.6905    0.1372 C   0  0  0  0  0  0  0  0  0  0  0  0
   -4.0520   -0.1837    1.1712 C   0  0  0  0  0  0  0  0  0  0  0  0
    0.4838   -2.2481    0.0321 C   0  0  0  0  0  0  0  0  0  0  0  0
   -0.7713   -3.0220   -0.0579 C   0  0  0  0  0  0  0  0  0  0  0  0
   -0.8837    2.6265    1.8200 C   0  0  0  0  0  0  0  0  0  0  0  0
    1.6175   -2.8565    0.3915 C   0  0  0  0  0  0  0  0  0  0  0  0
    3.4128    0.4270    0.7020 C   0  0  0  0  0  0  0  0  0  0  0  0
    4.7601    0.2409    0.0077 C   0  0  1  0  0  0  0  0  0  0  0  0
    4.8897    1.2614   -1.1292 C   0  0  0  0  0  0  0  0  0  0  0  0
    4.9293   -1.2122   -0.4370 C   0  0  0  0  0  0  0  0  0  0  0  0
   -2.0362    0.0149   -1.6420 H   0  0  0  0  0  0  0  0  0  0  0  0
   -1.4902    2.1109   -1.3358 H   0  0  0  0  0  0  0  0  0  0  0  0
   -1.3639   -0.6420    1.2578 H   0  0  0  0  0  0  0  0  0  0  0  0
   -5.2522    1.6965   -0.4155 H   0  0  0  0  0  0  0  0  0  0  0  0
   -3.4437    2.6053    0.9069 H   0  0  0  0  0  0  0  0  0  0  0  0
   -3.2210    3.4151   -0.6483 H   0  0  0  0  0  0  0  0  0  0  0  0
    0.2412   -0.7073   -1.3707 H   0  0  0  0  0  0  0  0  0  0  0  0
    1.0774    0.0425    1.4725 H   0  0  0  0  0  0  0  0  0  0  0  0
    0.7444    1.9200   -0.9334 H   0  0  0  0  0  0  0  0  0  0  0  0
    1.3857    2.3624    0.6054 H   0  0  0  0  0  0  0  0  0  0  0  0
   -3.6731    0.5685    1.8677 H   0  0  0  0  0  0  0  0  0  0  0  0
   -3.6730   -1.1604    1.4833 H   0  0  0  0  0  0  0  0  0  0  0  0
   -4.1276   -0.6971   -2.0261 H   0  0  0  0  0  0  0  0  0  0  0  0
   -4.4931    2.5054   -2.3756 H   0  0  0  0  0  0  0  0  0  0  0  0
   -1.8463    2.9163    2.2199 H   0  0  0  0  0  0  0  0  0  0  0  0
   -0.0247    2.8237    2.4544 H   0  0  0  0  0  0  0  0  0  0  0  0
    2.5443   -2.3181    0.5074 H   0  0  0  0  0  0  0  0  0  0  0  0
    1.6492   -3.9213    0.6000 H   0  0  0  0  0  0  0  0  0  0  0  0
    4.0833    1.1530   -1.8615 H   0  0  0  0  0  0  0  0  0  0  0  0
    4.8572    2.2842   -0.7388 H   0  0  0  0  0  0  0  0  0  0  0  0
    5.9454   -1.4111   -0.7939 H   0  0  0  0  0  0  0  0  0  0  0  0
    4.2238   -1.4844   -1.2284 H   0  0  0  0  0  0  0  0  0  0  0  0
    4.7792   -1.8912    0.4099 H   0  0  0  0  0  0  0  0  0  0  0  0
    6.6220    0.5143    0.5447 H   0  0  0  0  0  0  0  0  0  0  0  0
  1 20  1  0  0  0  0
  2 27  1  0  0  0  0
  3 13  1  0  0  0  0
  3 22  1  0  0  0  0
  4 12  1  0  0  0  0
  4 41  1  0  0  0  0
  5 14  1  0  0  0  0
  5 42  1  0  0  0  0
  6 18  1  0  0  0  0
  6 25  1  0  0  0  0
  7 22  2  0  0  0  0
  8 25  2  0  0  0  0
  9 26  1  0  0  0  0
  9 52  1  0  0  0  0
 10 11  1  0  0  0  0
 10 12  1  0  0  0  0
 10 13  1  0  0  0  0
 10 29  1  0  0  0  0
 11 15  1  0  0  0  0
 11 17  1  0  0  0  0
 11 30  1  0  0  0  0
 12 14  1  0  0  0  0
 12 20  1  0  0  0  0
 13 16  1  0  0  0  0
 13 31  1  0  0  0  0
 14 15  1  0  0  0  0
 14 32  1  0  0  0  0
 15 33  1  0  0  0  0
 15 34  1  0  0  0  0
 16 18  1  0  0  0  0
 16 21  1  0  0  0  0
 16 35  1  0  0  0  0
 17 19  1  0  0  0  0
 17 23  2  0  0  0  0
 18 19  1  0  0  0  0
 18 36  1  0  0  0  0
 19 37  1  0  0  0  0
 19 38  1  0  0  0  0
 20 39  1  0  0  0  0
 20 40  1  0  0  0  0
 21 22  1  0  0  0  0
 21 24  2  0  0  0  0
 23 43  1  0  0  0  0
 23 44  1  0  0  0  0
 24 45  1  0  0  0  0
 24 46  1  0  0  0  0
 25 26  1  0  0  0  0
 26 27  1  0  0  0  0
 26 28  1  0  0  0  0
 27 47  1  0  0  0  0
 27 48  1  0  0  0  0
 28 49  1  0  0  0  0
 28 50  1  0  0  0  0
 28 51  1  0  0  0  0
M  END
> <PUBCHEM_COMPOUND_CID>
118701337

> <PUBCHEM_CONFORMER_RMSD>
0.8

> <PUBCHEM_CONFORMER_DIVERSEORDER>
4
269
131
428
114
294
318
232
429
22
198
208
147
111
355
384
398
250
237
296
64
430
19
278
148
354
301
248
295
351
390
49
98
144
331
128
303
146
214
20
23
339
300
197
311
184
255
236
226
173
25
133
263
289
425
421
258
170
426
270
420
115
8
169
358
17
254
299
241
224
416
204
229
381
321
13
143
394
402
405
275
122
259
257
141
219
167
84
399
256
183
38
41
357
81
281
432
404
51
178
92
223
70
411
407
247
327
324
377
16
344
209
120
274
116
401
57
286
100
187
309
113
252
292
414
308
330
191
155
107
227
134
261
287
190
333
235
102
418
244
320
60
279
352
78
218
290
314
246
97
319
379
369
385
142
372
367
136
130
362
33
163
340
59
346
77
215
417
341
396
28
272
210
332
280
288
243
72
66
154
328
117
338
195
322
364
212
108
424
409
2
325
106
353
112
21
342
348
389
376
139
228
62
5
125
343
391
152
199
231
150
249
168
312
89
206
293
266
138
161
27
395
356
361
400
52
298
40
422
202
175
323
188
61
99
87
46
90
273
350
93
80
30
118
32
12
326
310
50
313
336
307
283
171
284
37
397
166
55
406
3
56
193
82
413
217
378
156
260
222
68
6
221
251
63
34
419
433
10
242
101
74
374
382
277
176
253
85
31
88
48
264
213
91
15
127
24
149
305
75
302
276
35
205
67
73
174
189
434
145
282
179
43
375
329
291
123
165
365
431
14
18
304
234
370
26
403
386
410
335
435
317
345
207
153
96
239
349
347
265
383
297
180
380
408
110
42
196
192
65
334
151
95
373
211
36
240
371
267
225
315
436
363
233
109
388
119
185
159
366
393
182
415
121
45
359
79
412
157
337
203
86
29
105
94
360
137
83
54
124
135
44
9
245
216
177
285
262
140
103
76
58
392
47
268
186
69
220
387
194
71
427
104
7
158
230
306
129
126
368
181
53
1
11
201
238
160
423
39
172
132
200
162
164
316
271

> <PUBCHEM_MMFF94_PARTIAL_CHARGES>
32
1 -0.29
11 0.14
12 0.28
13 0.28
14 0.28
16 0.14
17 -0.28
18 0.28
19 0.14
2 -0.29
20 0.29
21 -0.12
22 0.71
23 -0.3
24 -0.3
25 0.66
26 0.34
27 0.29
3 -0.43
4 -0.68
41 0.4
42 0.4
43 0.15
44 0.15
45 0.15
46 0.15
5 -0.68
52 0.4
6 -0.43
7 -0.57
8 -0.57
9 -0.68

> <PUBCHEM_EFFECTIVE_ROTOR_COUNT>
6.2

> <PUBCHEM_PHARMACOPHORE_FEATURES>
11
1 4 acceptor
1 4 donor
1 5 acceptor
1 5 donor
1 7 acceptor
1 8 acceptor
1 9 acceptor
1 9 donor
5 10 11 12 14 15 rings
5 3 13 16 21 22 rings
7 10 11 13 16 17 18 19 rings

> <PUBCHEM_HEAVY_ATOM_COUNT>
28

> <PUBCHEM_ATOM_DEF_STEREO_COUNT>
5

> <PUBCHEM_ATOM_UDEF_STEREO_COUNT>
3

> <PUBCHEM_BOND_DEF_STEREO_COUNT>
0

> <PUBCHEM_BOND_UDEF_STEREO_COUNT>
0

> <PUBCHEM_ISOTOPIC_ATOM_COUNT>
0

> <PUBCHEM_COMPONENT_COUNT>
1

> <PUBCHEM_CACTVS_TAUTO_COUNT>
1

> <PUBCHEM_CONFORMER_ID>
07133D1900000004

> <PUBCHEM_MMFF94_ENERGY>
86.0279

> <PUBCHEM_FEATURE_SELFOVERLAP>
55.887

> <PUBCHEM_SHAPE_FINGERPRINT>
10006869 2 17484816918068916305
10366900 7 17775290461017639460
10411042 1 17689430911743280594
10674148 151 17202783509551632440
10675989 125 17181074541456953845
10759866 29 18113333085931032562
1100329 8 18269276931546132201
11112241 14 16699459126310947560
11578080 2 17316753271137738565
12236239 1 17676203572671069240
12390115 104 18200326419913943729
12403259 415 18342171176396825296
12596602 18 16877944957713508400
12788726 201 18131076991769318712
13140716 1 18195246856760982571
13583140 156 16877930659603576739
13911987 19 18409448085598439669
14251757 5 18338526364507704094
14787075 74 18272085036935592997
14790565 3 18339932527757409897
14955137 171 18340780329027273809
15042514 8 18263928920085093203
15209289 33 18272368698261563065
15575132 122 18113339699700997540
16752209 62 18337382833691494098
17349148 13 18343867714623101908
17980427 23 17313111843361424573
19591789 44 18339358690457077291
20028762 73 17914615197323079839
20511986 3 17749937952069755116
20642791 178 17978231556809276642
20775438 99 16762495347913411647
21033648 29 18341316842951014881
21279426 13 18198060283746941518
22182313 1 18337402530295852223
23366157 5 17827920620405324506
23402539 116 18273205396239710860
23559900 14 17835224667326688315
283562 15 18272366417486710345
3004659 81 18336264545231798710
3178227 256 18337686307954912539
350125 39 18335707182466268709
394222 165 17896310320825097666
4058900 60 18044095661808815617
469060 322 18336847324490466473
484989 97 18119802771695809775
5104073 3 18190743025252922715
5265222 85 18336836397734865028
5486654 2 18412269445193256477
59755656 215 18411414008389302199
59755656 520 18060430118267827635
7226269 152 18272927233083699280
9981440 41 18335698287262133563

> <PUBCHEM_SHAPE_MULTIPOLES>
538.88
12.17
3.37
1.44
10.78
2.88
0.08
-4.23
2.57
-1.19
-0.09
0.14
-0.85
-0.01

> <PUBCHEM_SHAPE_SELFOVERLAP>
1122.93

> <PUBCHEM_SHAPE_VOLUME>
306.2

> <PUBCHEM_COORDINATE_TYPE>
2
5
10

$$$$
