118714758
  -OEChem-03292013293D

 33 34  0     0  0  0  0  0  0999 V2000
    0.6052    2.1087    1.2358 O   0  0  0  0  0  0  0  0  0  0  0  0
    2.2830   -2.9684    1.1102 O   0  0  0  0  0  0  0  0  0  0  0  0
    4.6016    1.5343   -1.2954 O   0  0  0  0  0  0  0  0  0  0  0  0
   -4.5172    1.0415    1.0396 O   0  0  0  0  0  0  0  0  0  0  0  0
   -4.7696    0.1596   -1.5841 O   0  0  0  0  0  0  0  0  0  0  0  0
    1.2639   -0.0951    0.5580 C   0  0  0  0  0  0  0  0  0  0  0  0
    0.0442   -0.6844    1.2376 C   0  0  0  0  0  0  0  0  0  0  0  0
    2.1704   -0.9251   -0.1016 C   0  0  0  0  0  0  0  0  0  0  0  0
   -1.2296   -0.4607    0.4948 C   0  0  0  0  0  0  0  0  0  0  0  0
    1.4791    1.2826    0.5950 C   0  0  0  0  0  0  0  0  0  0  0  0
    3.2919   -0.3775   -0.7245 C   0  0  0  0  0  0  0  0  0  0  0  0
    1.9632   -2.4033   -0.1544 C   0  0  0  0  0  0  0  0  0  0  0  0
   -2.2944    0.1913    1.1169 C   0  0  0  0  0  0  0  0  0  0  0  0
    2.6008    1.8301   -0.0276 C   0  0  0  0  0  0  0  0  0  0  0  0
   -1.3557   -0.9025   -0.8221 C   0  0  0  0  0  0  0  0  0  0  0  0
    3.5071    1.0002   -0.6875 C   0  0  0  0  0  0  0  0  0  0  0  0
   -3.4855    0.4015    0.4218 C   0  0  0  0  0  0  0  0  0  0  0  0
   -2.5469   -0.6924   -1.5171 C   0  0  0  0  0  0  0  0  0  0  0  0
   -3.6116   -0.0404   -0.8952 C   0  0  0  0  0  0  0  0  0  0  0  0
   -0.0154   -0.2401    2.2416 H   0  0  0  0  0  0  0  0  0  0  0  0
    0.1377   -1.7541    1.4461 H   0  0  0  0  0  0  0  0  0  0  0  0
    4.0057   -1.0156   -1.2399 H   0  0  0  0  0  0  0  0  0  0  0  0
    0.9449   -2.6849   -0.4295 H   0  0  0  0  0  0  0  0  0  0  0  0
    2.6219   -2.8623   -0.9008 H   0  0  0  0  0  0  0  0  0  0  0  0
   -2.1980    0.5370    2.1433 H   0  0  0  0  0  0  0  0  0  0  0  0
    2.7699    2.9039    0.0007 H   0  0  0  0  0  0  0  0  0  0  0  0
   -0.5469   -1.4055   -1.3391 H   0  0  0  0  0  0  0  0  0  0  0  0
   -2.6313   -1.0401   -2.5433 H   0  0  0  0  0  0  0  0  0  0  0  0
    0.9169    3.0264    1.1547 H   0  0  0  0  0  0  0  0  0  0  0  0
    2.1475   -3.9285    1.0365 H   0  0  0  0  0  0  0  0  0  0  0  0
    4.5923    2.4989   -1.1711 H   0  0  0  0  0  0  0  0  0  0  0  0
   -4.2496    1.2744    1.9452 H   0  0  0  0  0  0  0  0  0  0  0  0
   -4.6744   -0.2117   -2.4781 H   0  0  0  0  0  0  0  0  0  0  0  0
  1 10  1  0  0  0  0
  1 29  1  0  0  0  0
  2 12  1  0  0  0  0
  2 30  1  0  0  0  0
  3 16  1  0  0  0  0
  3 31  1  0  0  0  0
  4 17  1  0  0  0  0
  4 32  1  0  0  0  0
  5 19  1  0  0  0  0
  5 33  1  0  0  0  0
  6  7  1  0  0  0  0
  6  8  2  0  0  0  0
  6 10  1  0  0  0  0
  7  9  1  0  0  0  0
  7 20  1  0  0  0  0
  7 21  1  0  0  0  0
  8 11  1  0  0  0  0
  8 12  1  0  0  0  0
  9 13  2  0  0  0  0
  9 15  1  0  0  0  0
 10 14  2  0  0  0  0
 11 16  2  0  0  0  0
 11 22  1  0  0  0  0
 12 23  1  0  0  0  0
 12 24  1  0  0  0  0
 13 17  1  0  0  0  0
 13 25  1  0  0  0  0
 14 16  1  0  0  0  0
 14 26  1  0  0  0  0
 15 18  2  0  0  0  0
 15 27  1  0  0  0  0
 17 19  2  0  0  0  0
 18 19  1  0  0  0  0
 18 28  1  0  0  0  0
M  END
> <PUBCHEM_COMPOUND_CID>
118714758

> <PUBCHEM_CONFORMER_RMSD>
0.6

> <PUBCHEM_CONFORMER_DIVERSEORDER>
2
26
9
29
23
24
19
14
17
8
28
22
6
16
25
21
18
27
3
13
5
11
10
1
7
12
4
15
20

> <PUBCHEM_MMFF94_PARTIAL_CHARGES>
29
1 -0.53
10 0.08
11 -0.15
12 0.42
13 -0.15
14 -0.15
15 -0.15
16 0.08
17 0.08
18 -0.15
19 0.08
2 -0.68
22 0.15
25 0.15
26 0.15
27 0.15
28 0.15
29 0.45
3 -0.53
30 0.4
31 0.45
32 0.45
33 0.45
4 -0.53
5 -0.53
6 -0.14
7 0.29
8 -0.14
9 -0.14

> <PUBCHEM_EFFECTIVE_ROTOR_COUNT>
3

> <PUBCHEM_PHARMACOPHORE_FEATURES>
8
1 1 donor
1 2 acceptor
1 2 donor
1 3 donor
1 4 donor
1 5 donor
6 6 8 10 11 14 16 rings
6 9 13 15 17 18 19 rings

> <PUBCHEM_HEAVY_ATOM_COUNT>
19

> <PUBCHEM_ATOM_DEF_STEREO_COUNT>
0

> <PUBCHEM_ATOM_UDEF_STEREO_COUNT>
0

> <PUBCHEM_BOND_DEF_STEREO_COUNT>
0

> <PUBCHEM_BOND_UDEF_STEREO_COUNT>
0

> <PUBCHEM_ISOTOPIC_ATOM_COUNT>
0

> <PUBCHEM_COMPONENT_COUNT>
1

> <PUBCHEM_CACTVS_TAUTO_COUNT>
202

> <PUBCHEM_CONFORMER_ID>
0713718600000002

> <PUBCHEM_MMFF94_ENERGY>
51.2007

> <PUBCHEM_FEATURE_SELFOVERLAP>
40.603

> <PUBCHEM_SHAPE_FINGERPRINT>
10465860 71 17060626619750122864
10498660 4 17095512977407580581
10751810 167 17561366192708739975
10980938 120 18413387609721632706
11031198 65 18334017206839256994
11132069 177 14056715730214406911
11265709 11 17902505992071492906
11471102 20 18408606959276686276
11796584 16 14692027824956482212
12730499 353 18259990396324581291
13296908 3 14045736041300963971
13693222 15 9223234039729667643
13764800 53 16370719314703184637
15210252 30 18113334219402479300
16752209 62 16701745930418902155
16945 1 18407759240048557722
1813 80 17981041917115389198
18186145 218 18186525397042780322
19784866 34 18337678615309879648
19786989 88 17968095343448366890
19862831 5 17704075126613154581
20645476 183 17988641921811257047
20645477 70 18411145696917836234
20715895 44 11459793510575641487
2255824 54 18342171189508255434
23114952 82 18041271067781384086
231179 274 17748825245795712188
23402655 69 18272940405268562241
23419403 2 10802852097594921362
23557571 272 16371021693022006707
23559900 14 14346627182309476419
23598291 2 18059014969292859135
25 1 18336271218761488466
2748010 2 17908144630963133424
2838139 119 17169557530991845684
3060560 45 18340762741083195678
3082319 5 17988923392281659077
34934 24 17988927773290979296
474 4 18262520410981643860
6442390 28 17458921421536694643
74978 22 17917425479764015383
7832392 63 18059857285462796241
81228 2 17255953477846324922
9981440 41 16550284127832676456

> <PUBCHEM_SHAPE_MULTIPOLES>
361.66
8.13
2.12
1.41
4.42
0.79
-0.15
-2.39
-3.05
-2.41
0.53
0.66
0.02
-1.1

> <PUBCHEM_SHAPE_SELFOVERLAP>
783.295

> <PUBCHEM_SHAPE_VOLUME>
197.3

> <PUBCHEM_COORDINATE_TYPE>
2
5
10

$$$$
