118734973
  -OEChem-03292013293D

 65 67  0     1  0  0  0  0  0999 V2000
    6.4398    0.3086   -0.7113 O   0  0  0  0  0  0  0  0  0  0  0  0
    4.7018   -1.7147   -1.2862 O   0  0  0  0  0  0  0  0  0  0  0  0
   -4.7299    1.5297   -1.6406 O   0  0  0  0  0  0  0  0  0  0  0  0
   -4.4129   -2.1913    2.1932 O   0  0  0  0  0  0  0  0  0  0  0  0
    1.1644    0.6542    0.5001 N   0  0  0  0  0  0  0  0  0  0  0  0
   -3.3426   -0.7444    0.7731 N   0  0  0  0  0  0  0  0  0  0  0  0
   -5.7412   -0.0350   -0.3023 N   0  0  0  0  0  0  0  0  0  0  0  0
   -0.1689    2.7360    0.5912 C   0  0  0  0  0  0  0  0  0  0  0  0
   -0.0132    1.3070    0.2518 C   0  0  0  0  0  0  0  0  0  0  0  0
    1.0712   -0.6605    0.1023 C   0  0  0  0  0  0  0  0  0  0  0  0
    4.3322   -0.7730   -0.2707 C   0  0  1  0  0  0  0  0  0  0  0  0
    3.4077   -1.4977    0.7203 C   0  0  0  0  0  0  0  0  0  0  0  0
    5.6223   -0.1893    0.3593 C   0  0  0  0  0  0  0  0  0  0  0  0
    2.0156   -1.6915    0.1610 C   0  0  0  0  0  0  0  0  0  0  0  0
   -0.2128   -0.8434   -0.4156 C   0  0  0  0  0  0  0  0  0  0  0  0
   -0.8854    0.4066   -0.3150 C   0  0  0  0  0  0  0  0  0  0  0  0
    1.1074    3.4412    1.1867 C   0  0  0  0  0  0  0  0  0  0  0  0
   -1.2601    2.9181    1.7051 C   0  0  0  0  0  0  0  0  0  0  0  0
    1.6347   -2.9456   -0.3246 C   0  0  0  0  0  0  0  0  0  0  0  0
   -0.5740   -2.1166   -0.8993 C   0  0  0  0  0  0  0  0  0  0  0  0
    6.4448   -1.2524    1.0939 C   0  0  0  0  0  0  0  0  0  0  0  0
    5.3525    0.9983    1.2869 C   0  0  0  0  0  0  0  0  0  0  0  0
   -0.4926    3.5889   -0.6642 C   0  0  0  0  0  0  0  0  0  0  0  0
   -2.2082    0.7053   -0.7133 C   0  0  0  0  0  0  0  0  0  0  0  0
    0.3605   -3.1572   -0.8469 C   0  0  0  0  0  0  0  0  0  0  0  0
   -3.3443    0.1612   -0.2583 C   0  0  0  0  0  0  0  0  0  0  0  0
   -1.5675    4.3500   -0.9069 C   0  0  0  0  0  0  0  0  0  0  0  0
    5.7559    1.3036   -1.4509 C   0  0  0  0  0  0  0  0  0  0  0  0
   -4.6451    0.6122   -0.8287 C   0  0  0  0  0  0  0  0  0  0  0  0
   -5.6803   -1.3289    0.3479 C   0  0  2  0  0  0  0  0  0  0  0  0
   -4.4543   -1.4192    1.2345 C   0  0  0  0  0  0  0  0  0  0  0  0
   -5.6779   -2.4603   -0.6725 C   0  0  0  0  0  0  0  0  0  0  0  0
    3.7567    0.0174   -0.7626 H   0  0  0  0  0  0  0  0  0  0  0  0
    3.3145   -0.9251    1.6504 H   0  0  0  0  0  0  0  0  0  0  0  0
    3.8262   -2.4746    0.9927 H   0  0  0  0  0  0  0  0  0  0  0  0
    1.9907    1.0617    0.9145 H   0  0  0  0  0  0  0  0  0  0  0  0
   -2.2491    2.5836    1.3756 H   0  0  0  0  0  0  0  0  0  0  0  0
   -1.3522    3.9657    2.0153 H   0  0  0  0  0  0  0  0  0  0  0  0
    1.9555    3.3834    0.4931 H   0  0  0  0  0  0  0  0  0  0  0  0
   -1.0012    2.3316    2.5953 H   0  0  0  0  0  0  0  0  0  0  0  0
    1.4153    2.9674    2.1267 H   0  0  0  0  0  0  0  0  0  0  0  0
    0.9219    4.5019    1.3961 H   0  0  0  0  0  0  0  0  0  0  0  0
    2.3352   -3.7775   -0.3028 H   0  0  0  0  0  0  0  0  0  0  0  0
   -1.5613   -2.3012   -1.3132 H   0  0  0  0  0  0  0  0  0  0  0  0
    6.7047   -2.0821    0.4272 H   0  0  0  0  0  0  0  0  0  0  0  0
    5.9176   -1.6559    1.9637 H   0  0  0  0  0  0  0  0  0  0  0  0
    7.3963   -0.8308    1.4391 H   0  0  0  0  0  0  0  0  0  0  0  0
    4.5306    1.6331    0.9391 H   0  0  0  0  0  0  0  0  0  0  0  0
    6.2403    1.6296    1.4077 H   0  0  0  0  0  0  0  0  0  0  0  0
    5.0535    0.6517    2.2831 H   0  0  0  0  0  0  0  0  0  0  0  0
    0.2640    3.5531   -1.4490 H   0  0  0  0  0  0  0  0  0  0  0  0
   -2.2819    1.4539   -1.4995 H   0  0  0  0  0  0  0  0  0  0  0  0
    0.0876   -4.1409   -1.2197 H   0  0  0  0  0  0  0  0  0  0  0  0
    3.8981   -1.9521   -1.7785 H   0  0  0  0  0  0  0  0  0  0  0  0
   -1.6502    4.8903   -1.8442 H   0  0  0  0  0  0  0  0  0  0  0  0
   -2.3802    4.4535   -0.1987 H   0  0  0  0  0  0  0  0  0  0  0  0
    5.0100    0.8800   -2.1287 H   0  0  0  0  0  0  0  0  0  0  0  0
    5.3428    2.1263   -0.8656 H   0  0  0  0  0  0  0  0  0  0  0  0
    6.5044    1.7626   -2.1074 H   0  0  0  0  0  0  0  0  0  0  0  0
   -6.5687   -1.3984    0.9851 H   0  0  0  0  0  0  0  0  0  0  0  0
   -2.4671   -0.9158    1.2592 H   0  0  0  0  0  0  0  0  0  0  0  0
   -6.6562    0.2892   -0.6006 H   0  0  0  0  0  0  0  0  0  0  0  0
   -4.8018   -2.4131   -1.3291 H   0  0  0  0  0  0  0  0  0  0  0  0
   -6.5699   -2.4134   -1.3063 H   0  0  0  0  0  0  0  0  0  0  0  0
   -5.6631   -3.4351   -0.1734 H   0  0  0  0  0  0  0  0  0  0  0  0
  1 13  1  0  0  0  0
  1 28  1  0  0  0  0
  2 11  1  0  0  0  0
  2 54  1  0  0  0  0
  3 29  2  0  0  0  0
  4 31  2  0  0  0  0
  5  9  1  0  0  0  0
  5 10  1  0  0  0  0
  5 36  1  0  0  0  0
  6 26  1  0  0  0  0
  6 31  1  0  0  0  0
  6 61  1  0  0  0  0
  7 29  1  0  0  0  0
  7 30  1  0  0  0  0
  7 62  1  0  0  0  0
  8  9  1  0  0  0  0
  8 17  1  0  0  0  0
  8 18  1  0  0  0  0
  8 23  1  0  0  0  0
  9 16  2  0  0  0  0
 10 14  2  0  0  0  0
 10 15  1  0  0  0  0
 11 12  1  0  0  0  0
 11 13  1  0  0  0  0
 11 33  1  0  0  0  0
 12 14  1  0  0  0  0
 12 34  1  0  0  0  0
 12 35  1  0  0  0  0
 13 21  1  0  0  0  0
 13 22  1  0  0  0  0
 14 19  1  0  0  0  0
 15 16  1  0  0  0  0
 15 20  2  0  0  0  0
 16 24  1  0  0  0  0
 17 39  1  0  0  0  0
 17 41  1  0  0  0  0
 17 42  1  0  0  0  0
 18 37  1  0  0  0  0
 18 38  1  0  0  0  0
 18 40  1  0  0  0  0
 19 25  2  0  0  0  0
 19 43  1  0  0  0  0
 20 25  1  0  0  0  0
 20 44  1  0  0  0  0
 21 45  1  0  0  0  0
 21 46  1  0  0  0  0
 21 47  1  0  0  0  0
 22 48  1  0  0  0  0
 22 49  1  0  0  0  0
 22 50  1  0  0  0  0
 23 27  2  0  0  0  0
 23 51  1  0  0  0  0
 24 26  2  0  0  0  0
 24 52  1  0  0  0  0
 25 53  1  0  0  0  0
 26 29  1  0  0  0  0
 27 55  1  0  0  0  0
 27 56  1  0  0  0  0
 28 57  1  0  0  0  0
 28 58  1  0  0  0  0
 28 59  1  0  0  0  0
 30 31  1  0  0  0  0
 30 32  1  0  0  0  0
 30 60  1  0  0  0  0
 32 63  1  0  0  0  0
 32 64  1  0  0  0  0
 32 65  1  0  0  0  0
M  END
> <PUBCHEM_COMPOUND_CID>
118734973

> <PUBCHEM_CONFORMER_RMSD>
1

> <PUBCHEM_CONFORMER_DIVERSEORDER>
1
49
101
84
78
89
20
56
62
8
68
22
85
76
69
50
60
83
53
93
9
59
63
96
73
94
87
39
27
25
65
43
97
75
51
45
11
19
33
99
38
67
81
66
44
10
61
88
5
21
95
24
7
14
13
23
92
77
54
46
2
80
31
48
29
26
55
74
15
98
32
52
47
64
37
36
34
42
6
41
58
90
72
71
79
12
30
70
3
100
91
4
82
18
16
86
28
17
57
35
40

> <PUBCHEM_MMFF94_PARTIAL_CHARGES>
37
1 -0.56
10 -0.15
11 0.28
12 0.14
13 0.28
14 -0.14
16 -0.05
19 -0.15
2 -0.68
20 -0.15
23 -0.29
24 -0.1
25 -0.15
26 0.12
27 -0.3
28 0.28
29 0.62
3 -0.57
30 0.36
31 0.57
36 0.27
4 -0.57
43 0.15
44 0.15
5 0.03
51 0.15
52 0.15
53 0.15
54 0.4
55 0.15
56 0.15
6 -0.54
61 0.37
62 0.37
7 -0.73
8 0.32
9 -0.33

> <PUBCHEM_EFFECTIVE_ROTOR_COUNT>
7.6

> <PUBCHEM_PHARMACOPHORE_FEATURES>
15
1 1 acceptor
1 2 acceptor
1 2 donor
1 27 hydrophobe
1 3 acceptor
1 4 acceptor
1 5 cation
1 5 donor
1 6 donor
1 7 donor
3 13 21 22 hydrophobe
3 8 17 18 hydrophobe
5 5 9 10 15 16 rings
6 10 14 15 19 20 25 rings
6 6 7 26 29 30 31 rings

> <PUBCHEM_HEAVY_ATOM_COUNT>
32

> <PUBCHEM_ATOM_DEF_STEREO_COUNT>
2

> <PUBCHEM_ATOM_UDEF_STEREO_COUNT>
0

> <PUBCHEM_BOND_DEF_STEREO_COUNT>
1

> <PUBCHEM_BOND_UDEF_STEREO_COUNT>
0

> <PUBCHEM_ISOTOPIC_ATOM_COUNT>
0

> <PUBCHEM_COMPONENT_COUNT>
1

> <PUBCHEM_CACTVS_TAUTO_COUNT>
106

> <PUBCHEM_CONFORMER_ID>
0713C07D00000001

> <PUBCHEM_MMFF94_ENERGY>
102.4808

> <PUBCHEM_FEATURE_SELFOVERLAP>
76.227

> <PUBCHEM_SHAPE_FINGERPRINT>
10462674 369 17388850700866124059
10670039 82 18339939108696483268
10675989 125 17324912665608253093
10906281 52 18197783202738286125
1100329 8 18270678813045278738
12166972 35 17894914014873943764
12516196 113 18341894103998794299
12596602 18 17603586335830736498
12788726 201 18119518843870201945
13140716 1 18198614613643107314
13911987 19 18412261731289698630
140371 6 18335428907066367221
14363568 33 18266746963881028321
14705955 166 13695853854026558518
14787075 74 18261111885025944658
14790565 3 18343585118575641360
14840074 17 17989488515377899167
14955137 171 18342459299956107651
15183329 4 12391516377706663578
15927050 60 17694499652062718380
19319366 153 18113889494913850826
21049683 271 18335707199551627877
21641784 216 18263095352758381148
21792964 463 17241626055784481692
21796203 349 18048630237035880579
23558518 356 17548413704920074907
23559900 14 18189328130356575405
24771293 8 17987790942755652696
24771750 20 17978516660970744236
283562 15 18340769221745811536
3178227 256 18339934817565549659
329604 57 18407760331023303592
3493558 16 17458641045760239093
392239 28 18412831265480888018
469060 322 18339654338678432040
5486654 2 18412545414185722982
550186 72 18410293579875915732
6669772 16 17980766261682214780
77296 10 17023178259084055554
9962374 69 18267584792754444763

> <PUBCHEM_SHAPE_MULTIPOLES>
620.12
14.26
4.4
1.41
7.27
3.56
0.28
-6.12
0.02
-1.71
-0.21
-0.21
0.24
0.96

> <PUBCHEM_SHAPE_SELFOVERLAP>
1319.418

> <PUBCHEM_SHAPE_VOLUME>
347

> <PUBCHEM_COORDINATE_TYPE>
2
5
10

$$$$
