118734972
  -OEChem-03292013293D

 62 64  0     1  0  0  0  0  0999 V2000
    4.8968   -1.5837   -1.4169 O   0  0  0  0  0  0  0  0  0  0  0  0
    5.4200    1.0590    1.0562 O   0  0  0  0  0  0  0  0  0  0  0  0
   -4.6162    1.4282   -1.6145 O   0  0  0  0  0  0  0  0  0  0  0  0
   -4.1218   -2.2066    2.2826 O   0  0  0  0  0  0  0  0  0  0  0  0
    1.3449    0.7359    0.4048 N   0  0  0  0  0  0  0  0  0  0  0  0
   -3.1195   -0.7635    0.8100 N   0  0  0  0  0  0  0  0  0  0  0  0
   -5.5585   -0.1329   -0.2228 N   0  0  0  0  0  0  0  0  0  0  0  0
   -0.0360    2.7869    0.4864 C   0  0  0  0  0  0  0  0  0  0  0  0
    0.1465    1.3555    0.1714 C   0  0  0  0  0  0  0  0  0  0  0  0
    1.2744   -0.5884    0.0350 C   0  0  0  0  0  0  0  0  0  0  0  0
   -0.7164    0.4235   -0.3573 C   0  0  0  0  0  0  0  0  0  0  0  0
   -0.0162   -0.8120   -0.4492 C   0  0  0  0  0  0  0  0  0  0  0  0
    2.2446   -1.5953    0.0918 C   0  0  0  0  0  0  0  0  0  0  0  0
    3.6440   -1.3573    0.6145 C   0  0  0  0  0  0  0  0  0  0  0  0
    4.5278   -0.6309   -0.4117 C   0  0  1  0  0  0  0  0  0  0  0  0
    5.8175   -0.0042    0.1765 C   0  0  0  0  0  0  0  0  0  0  0  0
    1.2362    3.5339    1.0382 C   0  0  0  0  0  0  0  0  0  0  0  0
   -1.1055    2.9653    1.6217 C   0  0  0  0  0  0  0  0  0  0  0  0
   -0.3576   -2.1028   -0.8994 C   0  0  0  0  0  0  0  0  0  0  0  0
    1.8832   -2.8675   -0.3603 C   0  0  0  0  0  0  0  0  0  0  0  0
   -0.4087    3.6066   -0.7775 C   0  0  0  0  0  0  0  0  0  0  0  0
   -2.0548    0.6827   -0.7304 C   0  0  0  0  0  0  0  0  0  0  0  0
    6.6294   -0.9873    1.0240 C   0  0  0  0  0  0  0  0  0  0  0  0
    6.7084    0.6173   -0.9036 C   0  0  0  0  0  0  0  0  0  0  0  0
    0.6028   -3.1197   -0.8486 C   0  0  0  0  0  0  0  0  0  0  0  0
   -3.1667    0.1210   -0.2385 C   0  0  0  0  0  0  0  0  0  0  0  0
   -1.5070    4.3369   -1.0098 C   0  0  0  0  0  0  0  0  0  0  0  0
   -5.4516   -1.4117    0.4510 C   0  0  2  0  0  0  0  0  0  0  0  0
   -4.4907    0.5294   -0.7870 C   0  0  0  0  0  0  0  0  0  0  0  0
   -4.2038   -1.4551    1.3103 C   0  0  0  0  0  0  0  0  0  0  0  0
   -5.4451   -2.5630   -0.5470 C   0  0  0  0  0  0  0  0  0  0  0  0
    3.5600   -0.7671    1.5351 H   0  0  0  0  0  0  0  0  0  0  0  0
    4.0914   -2.3189    0.8958 H   0  0  0  0  0  0  0  0  0  0  0  0
    3.9580    0.1661   -0.9062 H   0  0  0  0  0  0  0  0  0  0  0  0
    2.1705    1.1712    0.7914 H   0  0  0  0  0  0  0  0  0  0  0  0
   -0.8122    2.4030    2.5169 H   0  0  0  0  0  0  0  0  0  0  0  0
    2.0692    3.4828    0.3261 H   0  0  0  0  0  0  0  0  0  0  0  0
    1.5768    3.0865    1.9797 H   0  0  0  0  0  0  0  0  0  0  0  0
   -2.0934    2.6009    1.3219 H   0  0  0  0  0  0  0  0  0  0  0  0
   -1.2158    4.0165    1.9135 H   0  0  0  0  0  0  0  0  0  0  0  0
    1.0297    4.5939    1.2313 H   0  0  0  0  0  0  0  0  0  0  0  0
   -1.3493   -2.3191   -1.2865 H   0  0  0  0  0  0  0  0  0  0  0  0
    2.6038   -3.6820   -0.3386 H   0  0  0  0  0  0  0  0  0  0  0  0
    0.3302    3.5730   -1.5789 H   0  0  0  0  0  0  0  0  0  0  0  0
   -2.1646    1.4134   -1.5291 H   0  0  0  0  0  0  0  0  0  0  0  0
    6.1503    1.3616   -1.4828 H   0  0  0  0  0  0  0  0  0  0  0  0
    7.0998   -0.1372   -1.5933 H   0  0  0  0  0  0  0  0  0  0  0  0
    7.5581    1.1475   -0.4581 H   0  0  0  0  0  0  0  0  0  0  0  0
    6.0702   -1.3167    1.9063 H   0  0  0  0  0  0  0  0  0  0  0  0
    7.5394   -0.5117    1.4087 H   0  0  0  0  0  0  0  0  0  0  0  0
    6.9258   -1.8684    0.4461 H   0  0  0  0  0  0  0  0  0  0  0  0
    0.3454   -4.1169   -1.1957 H   0  0  0  0  0  0  0  0  0  0  0  0
    4.0889   -1.8406   -1.8925 H   0  0  0  0  0  0  0  0  0  0  0  0
    6.2232    1.4594    1.4308 H   0  0  0  0  0  0  0  0  0  0  0  0
   -6.3233   -1.4895    1.1099 H   0  0  0  0  0  0  0  0  0  0  0  0
   -1.6242    4.8562   -1.9553 H   0  0  0  0  0  0  0  0  0  0  0  0
   -2.3056    4.4353   -0.2850 H   0  0  0  0  0  0  0  0  0  0  0  0
   -2.2293   -0.9043    1.2789 H   0  0  0  0  0  0  0  0  0  0  0  0
   -6.4877    0.1635   -0.5059 H   0  0  0  0  0  0  0  0  0  0  0  0
   -4.5857   -2.5081   -1.2247 H   0  0  0  0  0  0  0  0  0  0  0  0
   -6.3522   -2.5500   -1.1606 H   0  0  0  0  0  0  0  0  0  0  0  0
   -5.3954   -3.5270   -0.0295 H   0  0  0  0  0  0  0  0  0  0  0  0
  1 15  1  0  0  0  0
  1 53  1  0  0  0  0
  2 16  1  0  0  0  0
  2 54  1  0  0  0  0
  3 29  2  0  0  0  0
  4 30  2  0  0  0  0
  5  9  1  0  0  0  0
  5 10  1  0  0  0  0
  5 35  1  0  0  0  0
  6 26  1  0  0  0  0
  6 30  1  0  0  0  0
  6 58  1  0  0  0  0
  7 28  1  0  0  0  0
  7 29  1  0  0  0  0
  7 59  1  0  0  0  0
  8  9  1  0  0  0  0
  8 17  1  0  0  0  0
  8 18  1  0  0  0  0
  8 21  1  0  0  0  0
  9 11  2  0  0  0  0
 10 12  1  0  0  0  0
 10 13  2  0  0  0  0
 11 12  1  0  0  0  0
 11 22  1  0  0  0  0
 12 19  2  0  0  0  0
 13 14  1  0  0  0  0
 13 20  1  0  0  0  0
 14 15  1  0  0  0  0
 14 32  1  0  0  0  0
 14 33  1  0  0  0  0
 15 16  1  0  0  0  0
 15 34  1  0  0  0  0
 16 23  1  0  0  0  0
 16 24  1  0  0  0  0
 17 37  1  0  0  0  0
 17 38  1  0  0  0  0
 17 41  1  0  0  0  0
 18 36  1  0  0  0  0
 18 39  1  0  0  0  0
 18 40  1  0  0  0  0
 19 25  1  0  0  0  0
 19 42  1  0  0  0  0
 20 25  2  0  0  0  0
 20 43  1  0  0  0  0
 21 27  2  0  0  0  0
 21 44  1  0  0  0  0
 22 26  2  0  0  0  0
 22 45  1  0  0  0  0
 23 49  1  0  0  0  0
 23 50  1  0  0  0  0
 23 51  1  0  0  0  0
 24 46  1  0  0  0  0
 24 47  1  0  0  0  0
 24 48  1  0  0  0  0
 25 52  1  0  0  0  0
 26 29  1  0  0  0  0
 27 56  1  0  0  0  0
 27 57  1  0  0  0  0
 28 30  1  0  0  0  0
 28 31  1  0  0  0  0
 28 55  1  0  0  0  0
 31 60  1  0  0  0  0
 31 61  1  0  0  0  0
 31 62  1  0  0  0  0
M  END
> <PUBCHEM_COMPOUND_CID>
118734972

> <PUBCHEM_CONFORMER_RMSD>
0.8

> <PUBCHEM_CONFORMER_DIVERSEORDER>
1
237
150
163
204
259
281
198
241
291
89
287
138
274
211
258
160
288
285
272
107
215
271
139
171
263
182
131
260
199
290
289
262
269
116
248
233
235
234
214
132
282
93
264
294
255
297
98
277
97
184
208
194
197
244
143
92
109
146
278
252
249
124
246
226
247
222
183
130
123
158
99
292
103
273
245
230
137
152
217
284
164
118
257
170
51
105
36
231
94
67
127
188
232
180
195
179
240
148
80
95
276
70
192
201
69
46
178
172
134
65
202
256
87
210
225
207
62
251
8
141
35
187
165
82
167
174
113
100
266
71
261
73
213
267
229
37
17
280
205
218
120
173
47
200
176
112
224
296
125
283
13
142
242
50
156
39
206
239
270
106
191
169
34
63
186
56
209
298
177
79
12
135
196
81
203
74
228
2
41
128
38
185
253
181
175
21
129
111
161
55
117
115
236
223
221
227
59
29
53
254
279
243
153
265
14
6
168
91
52
144
286
102
42
101
145
33
10
250
151
90
293
219
75
88
96
136
295
24
68
220
23
57
122
119
157
275
4
268
15
155
159
18
61
238
114
193
19
149
162
7
190
32
11
44
20
78
5
121
126
26
154
83
16
49
147
3
86
22
9
212
31
189
110
54
133
27
48
60
25
72
140
108
77
66
84
104
166
58
28
85
40
216
45
64
76
43
30

> <PUBCHEM_MMFF94_PARTIAL_CHARGES>
37
1 -0.68
10 -0.15
11 -0.05
13 -0.14
14 0.14
15 0.28
16 0.28
19 -0.15
2 -0.68
20 -0.15
21 -0.29
22 -0.1
25 -0.15
26 0.12
27 -0.3
28 0.36
29 0.62
3 -0.57
30 0.57
35 0.27
4 -0.57
42 0.15
43 0.15
44 0.15
45 0.15
5 0.03
52 0.15
53 0.4
54 0.4
56 0.15
57 0.15
58 0.37
59 0.37
6 -0.54
7 -0.73
8 0.32
9 -0.33

> <PUBCHEM_EFFECTIVE_ROTOR_COUNT>
6.6

> <PUBCHEM_PHARMACOPHORE_FEATURES>
16
1 1 acceptor
1 1 donor
1 2 acceptor
1 2 donor
1 27 hydrophobe
1 3 acceptor
1 4 acceptor
1 5 cation
1 5 donor
1 6 donor
1 7 donor
3 16 23 24 hydrophobe
3 8 17 18 hydrophobe
5 5 9 10 11 12 rings
6 10 12 13 19 20 25 rings
6 6 7 26 28 29 30 rings

> <PUBCHEM_HEAVY_ATOM_COUNT>
31

> <PUBCHEM_ATOM_DEF_STEREO_COUNT>
2

> <PUBCHEM_ATOM_UDEF_STEREO_COUNT>
0

> <PUBCHEM_BOND_DEF_STEREO_COUNT>
1

> <PUBCHEM_BOND_UDEF_STEREO_COUNT>
0

> <PUBCHEM_ISOTOPIC_ATOM_COUNT>
0

> <PUBCHEM_COMPONENT_COUNT>
1

> <PUBCHEM_CACTVS_TAUTO_COUNT>
106

> <PUBCHEM_CONFORMER_ID>
0713C07C00000001

> <PUBCHEM_MMFF94_ENERGY>
88.0822

> <PUBCHEM_FEATURE_SELFOVERLAP>
81.298

> <PUBCHEM_SHAPE_FINGERPRINT>
10670039 82 18339377258296848852
10675989 125 17324349719902280877
10906281 52 18197500623849517893
10930396 42 18192123071671099960
1100329 8 18270398442007012394
12035758 1 18342456001806671266
12166972 35 17894351069299872836
12516196 113 18412827997105727291
12596602 18 17603585236429852538
12788726 201 18118956993344005833
13140716 1 18198335346385062298
13911987 19 18412537700186940158
140371 6 18262809471065856093
14363568 33 18266745859984762401
14787075 74 18260830410144192482
14790565 3 18343303656573613760
14840074 17 17989487415708061351
14955137 171 18342461499084897154
15183329 4 12679465274650007374
15927050 60 17694219280982280132
19591789 44 18267582588253995356
20028762 73 17917147333467107695
21049683 271 18335425724411412917
21641784 216 18262814968745529300
21796203 349 18048068386435811995
23558518 356 17476635382461467931
23559900 14 18261667199344820733
24771293 8 18059569256618991696
283562 15 18340488850728715664
3178227 256 18339933713627105243
3380486 145 18336841835559211075
3493558 16 17313965119612732676
392239 28 18412832373719574402
469060 322 18339092492647656808
5486654 2 18412545410006787278
550186 72 18410013200316319196
6669772 16 17908150120053410652

> <PUBCHEM_SHAPE_MULTIPOLES>
599.55
13.71
4.45
1.35
10.21
3.99
0.32
-6.76
0.57
-1.96
-0.25
-0.62
0.1
1.43

> <PUBCHEM_SHAPE_SELFOVERLAP>
1278.401

> <PUBCHEM_SHAPE_VOLUME>
334.5

> <PUBCHEM_COORDINATE_TYPE>
2
5
10

$$$$
