11880
  -OEChem-03292013323D

 19 19  0     0  0  0  0  0  0999 V2000
    2.8961    1.1529    1.2089 O   0  0  0  0  0  0  0  0  0  0  0  0
    3.0718    1.1673   -1.0572 O   0  0  0  0  0  0  0  0  0  0  0  0
    0.9149   -2.8459    0.0060 O   0  5  0  0  0  0  0  0  0  0  0  0
    2.6162   -1.4589   -0.0202 O   0  0  0  0  0  0  0  0  0  0  0  0
   -3.9808    0.9551    0.0006 O   0  5  0  0  0  0  0  0  0  0  0  0
   -3.5907   -1.2051    0.0208 O   0  0  0  0  0  0  0  0  0  0  0  0
    1.3831   -1.6833   -0.0088 N   0  3  0  0  0  0  0  0  0  0  0  0
   -3.1874   -0.0170    0.0057 N   0  3  0  0  0  0  0  0  0  0  0  0
    0.4840   -0.5805   -0.0134 C   0  0  0  0  0  0  0  0  0  0  0  0
    0.9549    0.7324   -0.0308 C   0  0  0  0  0  0  0  0  0  0  0  0
   -1.7900    0.2353   -0.0065 C   0  0  0  0  0  0  0  0  0  0  0  0
   -0.8884   -0.8290   -0.0012 C   0  0  0  0  0  0  0  0  0  0  0  0
    0.0534    1.7967   -0.0359 C   0  0  0  0  0  0  0  0  0  0  0  0
   -1.3191    1.5482   -0.0238 C   0  0  0  0  0  0  0  0  0  0  0  0
    2.3818    1.0318   -0.0441 C   0  0  0  0  0  0  0  0  0  0  0  0
   -1.2598   -1.8510    0.0123 H   0  0  0  0  0  0  0  0  0  0  0  0
    0.4082    2.8242   -0.0495 H   0  0  0  0  0  0  0  0  0  0  0  0
   -1.9919    2.4019   -0.0284 H   0  0  0  0  0  0  0  0  0  0  0  0
    3.8561    1.3542    1.1918 H   0  0  0  0  0  0  0  0  0  0  0  0
  1 15  1  0  0  0  0
  1 19  1  0  0  0  0
  2 15  2  0  0  0  0
  3  7  1  0  0  0  0
  4  7  2  0  0  0  0
  5  8  1  0  0  0  0
  6  8  2  0  0  0  0
  7  9  1  0  0  0  0
  8 11  1  0  0  0  0
  9 10  2  0  0  0  0
  9 12  1  0  0  0  0
 10 13  1  0  0  0  0
 10 15  1  0  0  0  0
 11 12  2  0  0  0  0
 11 14  1  0  0  0  0
 12 16  1  0  0  0  0
 13 14  2  0  0  0  0
 13 17  1  0  0  0  0
 14 18  1  0  0  0  0
M  CHG  4   3  -1   5  -1   7   1   8   1
M  END
> <PUBCHEM_COMPOUND_CID>
11880

> <PUBCHEM_CONFORMER_RMSD>
0.6

> <PUBCHEM_CONFORMER_DIVERSEORDER>
1

> <PUBCHEM_MMFF94_PARTIAL_CHARGES>
19
1 -0.65
10 0.09
11 0.13
12 -0.15
13 -0.15
14 -0.15
15 0.63
16 0.15
17 0.15
18 0.15
19 0.5
2 -0.57
3 -0.52
4 -0.52
5 -0.52
6 -0.52
7 0.91
8 0.91
9 0.13

> <PUBCHEM_EFFECTIVE_ROTOR_COUNT>
3

> <PUBCHEM_PHARMACOPHORE_FEATURES>
10
1 1 acceptor
1 2 acceptor
1 3 acceptor
1 3 anion
1 4 acceptor
1 5 acceptor
1 5 anion
1 6 acceptor
3 1 2 15 anion
6 9 10 11 12 13 14 rings

> <PUBCHEM_HEAVY_ATOM_COUNT>
15

> <PUBCHEM_ATOM_DEF_STEREO_COUNT>
0

> <PUBCHEM_ATOM_UDEF_STEREO_COUNT>
0

> <PUBCHEM_BOND_DEF_STEREO_COUNT>
0

> <PUBCHEM_BOND_UDEF_STEREO_COUNT>
0

> <PUBCHEM_ISOTOPIC_ATOM_COUNT>
0

> <PUBCHEM_COMPONENT_COUNT>
1

> <PUBCHEM_CACTVS_TAUTO_COUNT>
1

> <PUBCHEM_CONFORMER_ID>
00002E6800000001

> <PUBCHEM_MMFF94_ENERGY>
57.5872

> <PUBCHEM_FEATURE_SELFOVERLAP>
50.976

> <PUBCHEM_SHAPE_FINGERPRINT>
10967382 1 18410575132087184183
10980938 120 18410855460407827595
11132069 177 18408597089194102257
11471102 20 18410007715584124509
12932764 1 17774998012072426813
13380535 21 18410302393353456977
13380535 76 18334856164223494675
14251717 144 18410849988677696815
14325111 11 18410575106438790645
14576447 43 18056744641597024983
14787075 74 17270589515078323129
15219456 202 18262791870326683381
15536298 74 18343582915019502262
15775835 57 18272932756126629484
161256 15 18338516318262733004
16945 1 18338796822571741821
18186145 218 17917721231027668185
19021347 11 18409731785025032023
193761 8 18050286968450196221
20588541 1 18334580186973493937
20645476 183 17751653280023032332
20645477 70 18340765945387592623
21501502 16 18267028254036696161
21650355 55 17036672376229151026
2334 1 18410575054856913621
23402539 116 18270956959865609380
23402655 69 18340754967815285053
23463225 33 18334289864358898312
23552423 10 18263085413813030661
2748010 2 18337387119826359901
3312278 4 18412550933392667601
449060 62 18412550890110639661
528886 8 18338514247977700592
53812653 166 18272083950129642704
581208 293 18410852183073539165
7364860 26 18199748055348978222

> <PUBCHEM_SHAPE_MULTIPOLES>
263.52
5.29
2.23
0.71
3.27
1.15
0.03
-0.64
0.01
-0.87
-0.01
-0.43
-0.18
0.02

> <PUBCHEM_SHAPE_SELFOVERLAP>
564.96

> <PUBCHEM_SHAPE_VOLUME>
145.7

> <PUBCHEM_COORDINATE_TYPE>
2
5
10

$$$$
