118855455
  -OEChem-03292013293D

 33 35  0     1  0  0  0  0  0999 V2000
    0.0840    0.8709    0.1082 O   0  0  0  0  0  0  0  0  0  0  0  0
   -0.4537   -1.5376    1.6155 O   0  0  0  0  0  0  0  0  0  0  0  0
    1.7625   -2.8737   -0.0252 O   0  0  0  0  0  0  0  0  0  0  0  0
    4.1254   -1.8057   -0.2198 O   0  0  0  0  0  0  0  0  0  0  0  0
    4.3498    2.9328   -0.0573 O   0  0  0  0  0  0  0  0  0  0  0  0
   -6.2115    0.7050    0.1016 O   0  0  0  0  0  0  0  0  0  0  0  0
   -0.6488   -0.2380   -0.4365 C   0  0  1  0  0  0  0  0  0  0  0  0
   -0.2321   -1.5595    0.2152 C   0  0  1  0  0  0  0  0  0  0  0  0
   -2.1377    0.0145   -0.2930 C   0  0  0  0  0  0  0  0  0  0  0  0
    1.2507   -1.7610    0.0183 C   0  0  0  0  0  0  0  0  0  0  0  0
    2.0715   -0.5338   -0.0522 C   0  0  0  0  0  0  0  0  0  0  0  0
    1.4428    0.7128    0.0182 C   0  0  0  0  0  0  0  0  0  0  0  0
    3.4631   -0.6177   -0.1438 C   0  0  0  0  0  0  0  0  0  0  0  0
    2.2111    1.8775    0.0307 C   0  0  0  0  0  0  0  0  0  0  0  0
   -2.6226    0.7154    0.8113 C   0  0  0  0  0  0  0  0  0  0  0  0
   -3.0220   -0.4541   -1.2647 C   0  0  0  0  0  0  0  0  0  0  0  0
    4.2249    0.5513   -0.1509 C   0  0  0  0  0  0  0  0  0  0  0  0
    3.6010    1.7959   -0.0591 C   0  0  0  0  0  0  0  0  0  0  0  0
   -3.9915    0.9478    0.9438 C   0  0  0  0  0  0  0  0  0  0  0  0
   -4.3910   -0.2219   -1.1323 C   0  0  0  0  0  0  0  0  0  0  0  0
   -4.8757    0.4791   -0.0280 C   0  0  0  0  0  0  0  0  0  0  0  0
   -0.4237   -0.2675   -1.5136 H   0  0  0  0  0  0  0  0  0  0  0  0
   -0.7792   -2.3988   -0.2288 H   0  0  0  0  0  0  0  0  0  0  0  0
    1.7288    2.8494    0.1005 H   0  0  0  0  0  0  0  0  0  0  0  0
   -1.9546    1.0821    1.5858 H   0  0  0  0  0  0  0  0  0  0  0  0
   -2.6569   -1.0035   -2.1283 H   0  0  0  0  0  0  0  0  0  0  0  0
   -0.2628   -2.4279    1.9570 H   0  0  0  0  0  0  0  0  0  0  0  0
    5.3082    0.4866   -0.2210 H   0  0  0  0  0  0  0  0  0  0  0  0
   -4.3569    1.4932    1.8098 H   0  0  0  0  0  0  0  0  0  0  0  0
   -5.0749   -0.5900   -1.8921 H   0  0  0  0  0  0  0  0  0  0  0  0
    3.4977   -2.5418   -0.2800 H   0  0  0  0  0  0  0  0  0  0  0  0
    5.2896    2.6918   -0.1260 H   0  0  0  0  0  0  0  0  0  0  0  0
   -6.3687    1.2029    0.9222 H   0  0  0  0  0  0  0  0  0  0  0  0
  1  7  1  0  0  0  0
  1 12  1  0  0  0  0
  2  8  1  0  0  0  0
  2 27  1  0  0  0  0
  3 10  2  0  0  0  0
  4 13  1  0  0  0  0
  4 31  1  0  0  0  0
  5 18  1  0  0  0  0
  5 32  1  0  0  0  0
  6 21  1  0  0  0  0
  6 33  1  0  0  0  0
  7  8  1  0  0  0  0
  7  9  1  0  0  0  0
  7 22  1  0  0  0  0
  8 10  1  0  0  0  0
  8 23  1  0  0  0  0
  9 15  2  0  0  0  0
  9 16  1  0  0  0  0
 10 11  1  0  0  0  0
 11 12  1  0  0  0  0
 11 13  2  0  0  0  0
 12 14  2  0  0  0  0
 13 17  1  0  0  0  0
 14 18  1  0  0  0  0
 14 24  1  0  0  0  0
 15 19  1  0  0  0  0
 15 25  1  0  0  0  0
 16 20  2  0  0  0  0
 16 26  1  0  0  0  0
 17 18  2  0  0  0  0
 17 28  1  0  0  0  0
 19 21  2  0  0  0  0
 19 29  1  0  0  0  0
 20 21  1  0  0  0  0
 20 30  1  0  0  0  0
M  END
> <PUBCHEM_COMPOUND_CID>
118855455

> <PUBCHEM_CONFORMER_RMSD>
0.6

> <PUBCHEM_CONFORMER_DIVERSEORDER>
1
4
3
5
2
6

> <PUBCHEM_MMFF94_PARTIAL_CHARGES>
31
1 -0.36
10 0.42
11 0.09
12 0.08
13 0.08
14 -0.15
15 -0.15
16 -0.15
17 -0.15
18 0.08
19 -0.15
2 -0.68
20 -0.15
21 0.08
24 0.15
25 0.15
26 0.15
27 0.4
28 0.15
29 0.15
3 -0.57
30 0.15
31 0.45
32 0.45
33 0.45
4 -0.53
5 -0.53
6 -0.53
7 0.42
8 0.34
9 -0.14

> <PUBCHEM_EFFECTIVE_ROTOR_COUNT>
1.6

> <PUBCHEM_PHARMACOPHORE_FEATURES>
10
1 1 acceptor
1 2 acceptor
1 2 donor
1 3 acceptor
1 4 donor
1 5 donor
1 6 donor
6 1 7 8 10 11 12 rings
6 11 12 13 14 17 18 rings
6 9 15 16 19 20 21 rings

> <PUBCHEM_HEAVY_ATOM_COUNT>
21

> <PUBCHEM_ATOM_DEF_STEREO_COUNT>
1

> <PUBCHEM_ATOM_UDEF_STEREO_COUNT>
1

> <PUBCHEM_BOND_DEF_STEREO_COUNT>
0

> <PUBCHEM_BOND_UDEF_STEREO_COUNT>
0

> <PUBCHEM_ISOTOPIC_ATOM_COUNT>
0

> <PUBCHEM_COMPONENT_COUNT>
1

> <PUBCHEM_CACTVS_TAUTO_COUNT>
24

> <PUBCHEM_CONFORMER_ID>
0715971F00000001

> <PUBCHEM_MMFF94_ENERGY>
60.2229

> <PUBCHEM_FEATURE_SELFOVERLAP>
50.78

> <PUBCHEM_SHAPE_FINGERPRINT>
10411042 1 17834114148209877014
11471102 20 18410012117846332078
11796584 16 15051739672364304804
12107183 9 17551239463236818865
12236239 1 18131631167309911885
12403259 415 17822286864642612077
12616971 3 18271801303059136543
12644460 14 18261108534951187674
12730499 353 18333740113024854003
12788726 201 17203620254958998321
13009979 54 17414437186536603658
13140716 1 18334856160424406226
13167823 11 18201999919787457815
14528608 73 18341612641891115997
15196674 1 18410574028270176063
15342168 16 18189057658168530612
15848702 151 18129102229703548143
16945 1 18336823096368582126
17834072 33 18343299271654071535
1813 80 17769664100630370606
18186145 218 18334009493009376302
19784866 240 15984558698030381982
200 152 18202279200146519815
204376 136 18261956357126421965
20612939 158 18411981347176645420
20645477 70 18410572859975781174
21033648 144 18334568087934460228
21033648 29 17385712595721616909
21267235 1 18270971141335865647
22079108 93 18259989305708602883
22182313 1 18120676844426138698
2255824 54 18340767031302531998
23402655 69 18272649090521451852
23558518 356 17538281031160479816
23559900 14 18411981390938578074
25 1 18408321103290960846
2748010 2 18191319358472409934
29717793 49 17775002341489145445
335352 9 18410858781240428676
34797466 226 15267059302174663865
42630746 31 18412261727005241254
4340502 62 18113907061471717107
474 4 18410293648388865033
495365 180 18343013428563719656
5104073 3 18335136535382931483
602551 16 15338537428015001389
6034566 193 17610074716675712524
633830 44 18411135835767448231
8272917 22 18341334413693325366
84936 182 18059571446989217200
9981440 41 17336444806646975808
9999458 23 18334014978141789726

> <PUBCHEM_SHAPE_MULTIPOLES>
396.95
10.51
2.28
0.94
8.23
0.18
0.06
-4.23
-0.92
-3.29
0.18
0.83
0.14
-0.46

> <PUBCHEM_SHAPE_SELFOVERLAP>
882.532

> <PUBCHEM_SHAPE_VOLUME>
210.2

> <PUBCHEM_COORDINATE_TYPE>
2
5
10

$$$$
