118984435
  -OEChem-03292013293D

 52 57  0     1  0  0  0  0  0999 V2000
    1.5093   -0.6213    1.5228 O   0  0  0  0  0  0  0  0  0  0  0  0
   -1.3358    2.5553   -0.1671 O   0  0  0  0  0  0  0  0  0  0  0  0
    3.0502    2.9259    1.3144 O   0  0  0  0  0  0  0  0  0  0  0  0
    2.2144   -3.4440    1.2490 O   0  0  0  0  0  0  0  0  0  0  0  0
    4.9862   -0.5111   -1.0103 O   0  0  0  0  0  0  0  0  0  0  0  0
   -3.2649    0.5990   -0.0888 N   0  0  2  0  0  0  0  0  0  0  0  0
    2.7649    0.1729   -0.7799 N   0  0  0  0  0  0  0  0  0  0  0  0
    4.3487    1.3092    0.2853 N   0  0  0  0  0  0  0  0  0  0  0  0
   -0.4235    0.4117    0.4982 C   0  0  1  0  0  0  0  0  0  0  0  0
   -0.9624    1.2567   -0.6634 C   0  0  1  0  0  0  0  0  0  0  0  0
    1.0190    0.6649    0.9894 C   0  0  2  0  0  0  0  0  0  0  0  0
   -2.2528    0.5327   -1.1758 C   0  0  1  0  0  0  0  0  0  0  0  0
    2.0076    1.2072   -0.0897 C   0  0  2  0  0  0  0  0  0  0  0  0
   -1.4622    0.4109    1.6494 C   0  0  0  0  0  0  0  0  0  0  0  0
    0.1003    1.5140   -1.7417 C   0  0  0  0  0  0  0  0  0  0  0  0
   -0.2155   -0.9982    0.0690 C   0  0  0  0  0  0  0  0  0  0  0  0
    1.3546    2.1410   -1.1161 C   0  0  0  0  0  0  0  0  0  0  0  0
   -1.9553   -0.9153   -1.7016 C   0  0  0  0  0  0  0  0  0  0  0  0
   -2.8582   -0.0340    1.1703 C   0  0  0  0  0  0  0  0  0  0  0  0
   -0.9379   -1.6761   -0.8934 C   0  0  0  0  0  0  0  0  0  0  0  0
    0.8444   -1.5547    0.7579 C   0  0  0  0  0  0  0  0  0  0  0  0
    3.1703    1.9381    0.6012 C   0  0  0  0  0  0  0  0  0  0  0  0
   -4.5959    0.1668   -0.5002 C   0  0  0  0  0  0  0  0  0  0  0  0
   -0.6014   -3.0133   -1.1019 C   0  0  0  0  0  0  0  0  0  0  0  0
    1.1812   -2.8766    0.5805 C   0  0  0  0  0  0  0  0  0  0  0  0
    4.1371    0.2396   -0.5502 C   0  0  0  0  0  0  0  0  0  0  0  0
    0.4386   -3.6111   -0.3558 C   0  0  0  0  0  0  0  0  0  0  0  0
   -5.6687    0.9024    0.2423 C   0  0  0  0  0  0  0  0  0  0  0  0
   -6.5922    0.3075    1.0061 C   0  0  0  0  0  0  0  0  0  0  0  0
    0.9886    1.3650    1.8342 H   0  0  0  0  0  0  0  0  0  0  0  0
   -2.6534    1.1214   -2.0125 H   0  0  0  0  0  0  0  0  0  0  0  0
   -1.5344    1.4193    2.0775 H   0  0  0  0  0  0  0  0  0  0  0  0
   -1.1508   -0.2443    2.4737 H   0  0  0  0  0  0  0  0  0  0  0  0
   -0.2934    2.2131   -2.4901 H   0  0  0  0  0  0  0  0  0  0  0  0
    0.3726    0.5987   -2.2772 H   0  0  0  0  0  0  0  0  0  0  0  0
    2.0641    2.3859   -1.9178 H   0  0  0  0  0  0  0  0  0  0  0  0
    1.0964    3.0979   -0.6450 H   0  0  0  0  0  0  0  0  0  0  0  0
   -1.5619   -0.8266   -2.7227 H   0  0  0  0  0  0  0  0  0  0  0  0
   -2.8785   -1.5003   -1.7750 H   0  0  0  0  0  0  0  0  0  0  0  0
   -2.8808   -1.1274    1.0810 H   0  0  0  0  0  0  0  0  0  0  0  0
   -3.5687    0.2195    1.9666 H   0  0  0  0  0  0  0  0  0  0  0  0
   -1.7731    3.0352   -0.8911 H   0  0  0  0  0  0  0  0  0  0  0  0
    2.3422   -0.5262   -1.3827 H   0  0  0  0  0  0  0  0  0  0  0  0
   -4.7141   -0.9206   -0.4103 H   0  0  0  0  0  0  0  0  0  0  0  0
   -4.7577    0.4007   -1.5608 H   0  0  0  0  0  0  0  0  0  0  0  0
   -1.1277   -3.6023   -1.8482 H   0  0  0  0  0  0  0  0  0  0  0  0
    5.2598    1.6012    0.6199 H   0  0  0  0  0  0  0  0  0  0  0  0
    0.6771   -4.6561   -0.5419 H   0  0  0  0  0  0  0  0  0  0  0  0
   -5.6973    1.9848    0.1426 H   0  0  0  0  0  0  0  0  0  0  0  0
    2.2925   -4.3739    0.9748 H   0  0  0  0  0  0  0  0  0  0  0  0
   -7.3465    0.8971    1.5155 H   0  0  0  0  0  0  0  0  0  0  0  0
   -6.6116   -0.7686    1.1373 H   0  0  0  0  0  0  0  0  0  0  0  0
  1 11  1  0  0  0  0
  1 21  1  0  0  0  0
  2 10  1  0  0  0  0
  2 42  1  0  0  0  0
  3 22  2  0  0  0  0
  4 25  1  0  0  0  0
  4 50  1  0  0  0  0
  5 26  2  0  0  0  0
  6 12  1  0  0  0  0
  6 19  1  0  0  0  0
  6 23  1  0  0  0  0
  7 13  1  0  0  0  0
  7 26  1  0  0  0  0
  7 43  1  0  0  0  0
  8 22  1  0  0  0  0
  8 26  1  0  0  0  0
  8 47  1  0  0  0  0
  9 10  1  0  0  0  0
  9 11  1  0  0  0  0
  9 14  1  0  0  0  0
  9 16  1  0  0  0  0
 10 12  1  0  0  0  0
 10 15  1  0  0  0  0
 11 13  1  0  0  0  0
 11 30  1  0  0  0  0
 12 18  1  0  0  0  0
 12 31  1  0  0  0  0
 13 17  1  0  0  0  0
 13 22  1  0  0  0  0
 14 19  1  0  0  0  0
 14 32  1  0  0  0  0
 14 33  1  0  0  0  0
 15 17  1  0  0  0  0
 15 34  1  0  0  0  0
 15 35  1  0  0  0  0
 16 20  2  0  0  0  0
 16 21  1  0  0  0  0
 17 36  1  0  0  0  0
 17 37  1  0  0  0  0
 18 20  1  0  0  0  0
 18 38  1  0  0  0  0
 18 39  1  0  0  0  0
 19 40  1  0  0  0  0
 19 41  1  0  0  0  0
 20 24  1  0  0  0  0
 21 25  2  0  0  0  0
 23 28  1  0  0  0  0
 23 44  1  0  0  0  0
 23 45  1  0  0  0  0
 24 27  2  0  0  0  0
 24 46  1  0  0  0  0
 25 27  1  0  0  0  0
 27 48  1  0  0  0  0
 28 29  2  0  0  0  0
 28 49  1  0  0  0  0
 29 51  1  0  0  0  0
 29 52  1  0  0  0  0
M  END
> <PUBCHEM_COMPOUND_CID>
118984435

> <PUBCHEM_CONFORMER_RMSD>
0.8

> <PUBCHEM_CONFORMER_DIVERSEORDER>
1
7
6
4
5
3
2

> <PUBCHEM_MMFF94_PARTIAL_CHARGES>
35
1 -0.36
10 0.28
11 0.28
12 0.27
13 0.36
16 -0.14
18 0.14
19 0.27
2 -0.68
20 -0.14
21 0.08
22 0.57
23 0.41
24 -0.15
25 0.08
26 0.69
27 -0.15
28 -0.29
29 -0.3
3 -0.57
4 -0.53
42 0.4
43 0.37
46 0.15
47 0.37
48 0.15
49 0.15
5 -0.57
50 0.45
51 0.15
52 0.15
6 -0.81
7 -0.73
8 -0.49
9 0.14

> <PUBCHEM_EFFECTIVE_ROTOR_COUNT>
3.8

> <PUBCHEM_PHARMACOPHORE_FEATURES>
16
1 1 acceptor
1 2 acceptor
1 2 donor
1 29 hydrophobe
1 3 acceptor
1 4 donor
1 5 acceptor
1 6 cation
1 7 donor
1 8 donor
5 1 9 11 16 21 rings
5 7 8 13 22 26 rings
6 16 20 21 24 25 27 rings
6 6 9 10 12 14 19 rings
6 9 10 11 13 15 17 rings
6 9 10 12 16 18 20 rings

> <PUBCHEM_HEAVY_ATOM_COUNT>
29

> <PUBCHEM_ATOM_DEF_STEREO_COUNT>
4

> <PUBCHEM_ATOM_UDEF_STEREO_COUNT>
1

> <PUBCHEM_BOND_DEF_STEREO_COUNT>
0

> <PUBCHEM_BOND_UDEF_STEREO_COUNT>
0

> <PUBCHEM_ISOTOPIC_ATOM_COUNT>
0

> <PUBCHEM_COMPONENT_COUNT>
1

> <PUBCHEM_CACTVS_TAUTO_COUNT>
25

> <PUBCHEM_CONFORMER_ID>
07178EF300000001

> <PUBCHEM_MMFF94_ENERGY>
103.0647

> <PUBCHEM_FEATURE_SELFOVERLAP>
83.317

> <PUBCHEM_SHAPE_FINGERPRINT>
10165383 225 18408890650372431068
10863032 1 17702381947631799132
10906281 52 17677355839108173317
10948715 1 18201719599940678341
11578080 2 13325985885530339019
11963148 33 17894914074766934643
12011746 2 17894920611231501485
12035759 4 18201436956580077127
12236239 1 17989490727813713289
12293681 25 17169578258192402939
12422481 6 18045190830886941777
12592029 89 18335702719451942227
12633257 1 18268129033408033232
12644460 14 18338237059800552603
12788726 201 16845028878128849960
12969540 114 18336530703579763325
13140716 1 18264761228785207106
133893 2 18046376070278132441
14790565 3 18339078323682558493
14955137 171 18334585680500786493
1601671 61 18260829293647608005
16945 1 18268124540017081494
19591789 44 18337951323847259215
19930381 70 17556602949634986918
20197701 30 18342459287445933747
20600515 1 16319722049492999275
20691752 17 18188472666606249014
20739085 24 18262803947922393277
20905425 154 17972035834456205886
21033648 29 18268145546829455152
21421861 104 18056494850541003857
22182313 1 17677882458054154837
23419403 2 16749075336012818936
23558518 356 17689987255899110168
23559900 14 17168430346140525579
3060560 45 18408603660567697222
3178227 256 18336841852358966921
3380486 145 16539604644374857058
350125 39 18338513015416993128
404807 14 14829422643513023134
4340502 62 18342186587525174283
465052 167 16805611394994792193
59755656 215 18260832562291722197
81228 2 17687744256821470354
8272917 22 18339647733461426171
9999458 23 18412267245964565093

> <PUBCHEM_SHAPE_MULTIPOLES>
552.52
8.53
3.37
1.51
8.85
2.82
-0.05
-3.88
1.32
-2.52
0.07
0.14
-0.02
-0.24

> <PUBCHEM_SHAPE_SELFOVERLAP>
1252.506

> <PUBCHEM_SHAPE_VOLUME>
285.5

> <PUBCHEM_COORDINATE_TYPE>
2
5
10

$$$$
