118989091
  -OEChem-03292013293D

 51 53  0     0  0  0  0  0  0999 V2000
   -4.7092   -2.4620    1.4285 F   0  0  0  0  0  0  0  0  0  0  0  0
   -2.4478    4.3075   -1.5570 F   0  0  0  0  0  0  0  0  0  0  0  0
   -0.1595   -0.1831   -0.1215 O   0  0  0  0  0  0  0  0  0  0  0  0
    5.3899    1.0838    0.7342 O   0  0  0  0  0  0  0  0  0  0  0  0
   -3.9889   -1.6646   -2.4712 O   0  5  0  0  0  0  0  0  0  0  0  0
   -5.4154   -1.8123   -0.8092 O   0  0  0  0  0  0  0  0  0  0  0  0
   -2.7493    3.0356    2.2710 O   0  5  0  0  0  0  0  0  0  0  0  0
   -3.6447    4.0611    0.5489 O   0  0  0  0  0  0  0  0  0  0  0  0
    4.1671   -0.8849    0.5064 N   0  0  0  0  0  0  0  0  0  0  0  0
   -4.2512   -1.9031   -1.2677 N   0  3  0  0  0  0  0  0  0  0  0  0
   -2.6932    3.4448    1.0863 N   0  3  0  0  0  0  0  0  0  0  0  0
    3.9040   -2.1697   -0.1558 C   0  0  0  0  0  0  0  0  0  0  0  0
    2.7850   -2.0477   -1.1865 C   0  0  0  0  0  0  0  0  0  0  0  0
    3.1501   -0.4506    1.4648 C   0  0  0  0  0  0  0  0  0  0  0  0
    1.4273   -1.8946   -0.5552 C   0  0  0  0  0  0  0  0  0  0  0  0
    2.0252    0.2256    0.7328 C   0  0  0  0  0  0  0  0  0  0  0  0
    0.9964   -0.5802    0.0068 C   0  0  0  0  0  0  0  0  0  0  0  0
    0.5158   -2.8786   -0.5454 C   0  0  0  0  0  0  0  0  0  0  0  0
    1.8367    1.5535    0.7727 C   0  0  0  0  0  0  0  0  0  0  0  0
    5.2342   -0.0287    0.2277 C   0  0  0  0  0  0  0  0  0  0  0  0
   -0.8579   -2.7699   -0.0323 C   0  0  0  0  0  0  0  0  0  0  0  0
    0.7102    2.2777    0.1661 C   0  0  0  0  0  0  0  0  0  0  0  0
    6.2405   -0.4812   -0.7541 C   0  0  0  0  0  0  0  0  0  0  0  0
   -1.8949   -2.3935   -0.8859 C   0  0  0  0  0  0  0  0  0  0  0  0
   -0.4467    2.5179    0.9076 C   0  0  0  0  0  0  0  0  0  0  0  0
   -1.1231   -3.0406    1.3102 C   0  0  0  0  0  0  0  0  0  0  0  0
    0.7979    2.7224   -1.1531 C   0  0  0  0  0  0  0  0  0  0  0  0
   -3.1971   -2.2880   -0.3971 C   0  0  0  0  0  0  0  0  0  0  0  0
   -1.5157    3.2027    0.3300 C   0  0  0  0  0  0  0  0  0  0  0  0
   -2.4251   -2.9352    1.7990 C   0  0  0  0  0  0  0  0  0  0  0  0
   -0.2711    3.4072   -1.7309 C   0  0  0  0  0  0  0  0  0  0  0  0
   -3.4621   -2.5588    0.9453 C   0  0  0  0  0  0  0  0  0  0  0  0
   -1.4279    3.6474   -0.9892 C   0  0  0  0  0  0  0  0  0  0  0  0
    7.5004   -0.0598   -0.6263 C   0  0  0  0  0  0  0  0  0  0  0  0
    3.6513   -2.9053    0.6182 H   0  0  0  0  0  0  0  0  0  0  0  0
    4.8062   -2.5472   -0.6413 H   0  0  0  0  0  0  0  0  0  0  0  0
    2.7973   -2.9480   -1.8142 H   0  0  0  0  0  0  0  0  0  0  0  0
    2.9726   -1.2037   -1.8621 H   0  0  0  0  0  0  0  0  0  0  0  0
    3.6062    0.2336    2.1903 H   0  0  0  0  0  0  0  0  0  0  0  0
    2.7902   -1.3136    2.0369 H   0  0  0  0  0  0  0  0  0  0  0  0
    0.7604   -3.8494   -0.9701 H   0  0  0  0  0  0  0  0  0  0  0  0
    2.5356    2.1854    1.3158 H   0  0  0  0  0  0  0  0  0  0  0  0
    5.9578   -1.1068   -1.5903 H   0  0  0  0  0  0  0  0  0  0  0  0
   -1.6659   -2.1872   -1.9296 H   0  0  0  0  0  0  0  0  0  0  0  0
   -0.4938    2.1621    1.9350 H   0  0  0  0  0  0  0  0  0  0  0  0
   -0.3250   -3.3340    1.9879 H   0  0  0  0  0  0  0  0  0  0  0  0
    1.6928    2.5420   -1.7438 H   0  0  0  0  0  0  0  0  0  0  0  0
   -2.6318   -3.1456    2.8441 H   0  0  0  0  0  0  0  0  0  0  0  0
   -0.2033    3.7533   -2.7580 H   0  0  0  0  0  0  0  0  0  0  0  0
    8.2486   -0.3634   -1.3512 H   0  0  0  0  0  0  0  0  0  0  0  0
    7.8278    0.5787    0.1870 H   0  0  0  0  0  0  0  0  0  0  0  0
  1 32  1  0  0  0  0
  2 33  1  0  0  0  0
  3 17  2  0  0  0  0
  4 20  2  0  0  0  0
  5 10  1  0  0  0  0
  6 10  2  0  0  0  0
  7 11  1  0  0  0  0
  8 11  2  0  0  0  0
  9 12  1  0  0  0  0
  9 14  1  0  0  0  0
  9 20  1  0  0  0  0
 10 28  1  0  0  0  0
 11 29  1  0  0  0  0
 12 13  1  0  0  0  0
 12 35  1  0  0  0  0
 12 36  1  0  0  0  0
 13 15  1  0  0  0  0
 13 37  1  0  0  0  0
 13 38  1  0  0  0  0
 14 16  1  0  0  0  0
 14 39  1  0  0  0  0
 14 40  1  0  0  0  0
 15 17  1  0  0  0  0
 15 18  2  0  0  0  0
 16 17  1  0  0  0  0
 16 19  2  0  0  0  0
 18 21  1  0  0  0  0
 18 41  1  0  0  0  0
 19 22  1  0  0  0  0
 19 42  1  0  0  0  0
 20 23  1  0  0  0  0
 21 24  2  0  0  0  0
 21 26  1  0  0  0  0
 22 25  2  0  0  0  0
 22 27  1  0  0  0  0
 23 34  2  0  0  0  0
 23 43  1  0  0  0  0
 24 28  1  0  0  0  0
 24 44  1  0  0  0  0
 25 29  1  0  0  0  0
 25 45  1  0  0  0  0
 26 30  2  0  0  0  0
 26 46  1  0  0  0  0
 27 31  2  0  0  0  0
 27 47  1  0  0  0  0
 28 32  2  0  0  0  0
 29 33  2  0  0  0  0
 30 32  1  0  0  0  0
 30 48  1  0  0  0  0
 31 33  1  0  0  0  0
 31 49  1  0  0  0  0
 34 50  1  0  0  0  0
 34 51  1  0  0  0  0
M  CHG  4   5  -1   7  -1  10   1  11   1
M  END
> <PUBCHEM_COMPOUND_CID>
118989091

> <PUBCHEM_CONFORMER_RMSD>
1

> <PUBCHEM_CONFORMER_DIVERSEORDER>
1
5
59
9
41
50
24
62
29
35
25
72
23
60
61
55
67
4
27
21
68
42
63
15
49
48
14
47
66
54
8
45
36
34
10
22
39
31
53
70
71
51
69
11
13
12
40
64
37
65
3
18
43
56
44
28
6
52
58
57
46
7
26
19
17
2
20
32
38
30
16
33

> <PUBCHEM_MMFF94_PARTIAL_CHARGES>
45
1 -0.19
10 0.91
11 0.91
12 0.3
13 0.14
14 0.44
15 -0.12
16 -0.12
17 0.54
18 -0.18
19 -0.18
2 -0.19
20 0.62
21 0.03
22 0.03
23 -0.14
24 -0.15
25 -0.15
26 -0.15
27 -0.15
28 0.13
29 0.13
3 -0.57
30 -0.15
31 -0.15
32 0.19
33 0.19
34 -0.3
4 -0.57
41 0.15
42 0.15
43 0.15
44 0.15
45 0.15
46 0.15
47 0.15
48 0.15
49 0.15
5 -0.52
50 0.15
51 0.15
6 -0.52
7 -0.52
8 -0.52
9 -0.66

> <PUBCHEM_EFFECTIVE_ROTOR_COUNT>
6.8

> <PUBCHEM_PHARMACOPHORE_FEATURES>
12
1 3 acceptor
1 34 hydrophobe
1 4 acceptor
1 5 acceptor
1 5 anion
1 6 acceptor
1 7 acceptor
1 7 anion
1 8 acceptor
6 21 24 26 28 30 32 rings
6 22 25 27 29 31 33 rings
7 9 12 13 14 15 16 17 rings

> <PUBCHEM_HEAVY_ATOM_COUNT>
34

> <PUBCHEM_ATOM_DEF_STEREO_COUNT>
0

> <PUBCHEM_ATOM_UDEF_STEREO_COUNT>
0

> <PUBCHEM_BOND_DEF_STEREO_COUNT>
2

> <PUBCHEM_BOND_UDEF_STEREO_COUNT>
0

> <PUBCHEM_ISOTOPIC_ATOM_COUNT>
0

> <PUBCHEM_COMPONENT_COUNT>
1

> <PUBCHEM_CACTVS_TAUTO_COUNT>
1

> <PUBCHEM_CONFORMER_ID>
0717A12300000001

> <PUBCHEM_MMFF94_ENERGY>
114.3346

> <PUBCHEM_FEATURE_SELFOVERLAP>
61.063

> <PUBCHEM_SHAPE_FINGERPRINT>
10074138 170 18117255018295618938
10190206 1 18259991487974099334
10815517 723 18412833477715975753
12156800 1 18125472780506425964
12160290 23 18195214807778427032
12166972 35 17914048969861010395
12293681 4 18335420209509971931
12788726 201 18261663831742574386
140371 6 18335430118247268022
14363568 33 17758686928535451572
14466204 15 17114651372705441688
14955137 171 18049733107011862666
150020 26 17541941331228859793
151778 21 17326341425091385003
15276724 80 18270685385263042276
15484559 13 16972231068923461207
17138139 8 17624085544509228669
20587220 17 16547805317533592073
20642791 13 18341610399707093158
21133410 62 17972586707869498277
21641784 216 18262252087817052596
238 59 17112688190577849737
3052486 1 18335425603845957390
3493558 16 17241894383475636316
4058900 60 17762904260441128208
469060 322 17678183694244128605
46939830 39 17531524394658515893
513202 73 18336277756193012330
5171179 24 17916854833324379776

> <PUBCHEM_SHAPE_MULTIPOLES>
635
11.06
6.19
1.68
14.66
5.69
-0.06
-4.8
-1.1
-8.39
-0.22
-1.53
0.21
0.01

> <PUBCHEM_SHAPE_SELFOVERLAP>
1382.471

> <PUBCHEM_SHAPE_VOLUME>
343.3

> <PUBCHEM_COORDINATE_TYPE>
2
5
10

$$$$
