118987259
  -OEChem-03292013293D

 71 76  0     1  0  0  0  0  0999 V2000
   -0.3017   -1.0170    0.7810 O   0  0  0  0  0  0  0  0  0  0  0  0
    2.2945    1.4516    0.9405 O   0  0  0  0  0  0  0  0  0  0  0  0
   -0.7475   -3.0152   -0.2637 O   0  0  0  0  0  0  0  0  0  0  0  0
    1.8618   -0.3981    2.3412 O   0  0  0  0  0  0  0  0  0  0  0  0
    4.0529   -0.5898    0.3650 O   0  0  0  0  0  0  0  0  0  0  0  0
   -4.4430    2.4740   -0.6201 O   0  0  0  0  0  0  0  0  0  0  0  0
    5.4619   -2.1497    1.1803 O   0  0  0  0  0  0  0  0  0  0  0  0
    0.3513    0.1948    0.4748 C   0  0  1  0  0  0  0  0  0  0  0  0
    1.3958   -0.1252   -0.5801 C   0  0  2  0  0  0  0  0  0  0  0  0
   -1.0183   -1.6034   -0.3122 C   0  0  1  0  0  0  0  0  0  0  0  0
   -2.5327   -1.3617   -0.0203 C   0  0  1  0  0  0  0  0  0  0  0  0
    2.4324    0.9934   -0.4331 C   0  0  2  0  0  0  0  0  0  0  0  0
   -2.9870    0.1374   -0.0276 C   0  0  2  0  0  0  0  0  0  0  0  0
   -0.6760    1.3028    0.1379 C   0  0  0  0  0  0  0  0  0  0  0  0
    0.7787   -0.4796   -1.9162 C   0  0  0  0  0  0  0  0  0  0  0  0
    1.2732    0.6711    1.6050 C   0  0  2  0  0  0  0  0  0  0  0  0
   -2.0498    1.0736    0.7893 C   0  0  0  0  0  0  0  0  0  0  0  0
   -0.5930   -1.1583   -1.7492 C   0  0  0  0  0  0  0  0  0  0  0  0
   -4.4959    0.2622    0.4324 C   0  0  1  0  0  0  0  0  0  0  0  0
   -3.4328   -2.2035   -0.9465 C   0  0  0  0  0  0  0  0  0  0  0  0
    3.8572    0.4571   -0.6017 C   0  0  1  0  0  0  0  0  0  0  0  0
    2.2441    2.2013   -1.3512 C   0  0  0  0  0  0  0  0  0  0  0  0
   -5.3845   -0.7843   -0.2456 C   0  0  0  0  0  0  0  0  0  0  0  0
   -4.8880   -1.8764   -0.8497 C   0  0  0  0  0  0  0  0  0  0  0  0
   -4.6243    0.1510    1.9688 C   0  0  0  0  0  0  0  0  0  0  0  0
   -5.0953    1.6153   -0.0250 C   0  0  0  0  0  0  0  0  0  0  0  0
    4.8920    1.5475   -0.3882 C   0  0  0  0  0  0  0  0  0  0  0  0
   -6.8222   -0.5492   -0.2632 C   0  0  0  0  0  0  0  0  0  0  0  0
   -6.5583    1.8702    0.3036 C   0  0  0  0  0  0  0  0  0  0  0  0
    6.2648    0.9333   -0.4002 C   0  0  0  0  0  0  0  0  0  0  0  0
   -7.3629    0.6470    0.0068 C   0  0  0  0  0  0  0  0  0  0  0  0
    5.2948   -1.1075    0.5539 C   0  0  0  0  0  0  0  0  0  0  0  0
    6.4482   -0.3426   -0.0054 C   0  0  0  0  0  0  0  0  0  0  0  0
    7.3547    1.8610   -0.8610 C   0  0  0  0  0  0  0  0  0  0  0  0
    7.7549   -1.0829   -0.0203 C   0  0  0  0  0  0  0  0  0  0  0  0
    1.8592   -1.0719   -0.2595 H   0  0  0  0  0  0  0  0  0  0  0  0
   -2.7019   -1.7365    0.9999 H   0  0  0  0  0  0  0  0  0  0  0  0
   -2.9493    0.4835   -1.0702 H   0  0  0  0  0  0  0  0  0  0  0  0
   -0.8168    1.4225   -0.9405 H   0  0  0  0  0  0  0  0  0  0  0  0
   -0.2952    2.2760    0.4745 H   0  0  0  0  0  0  0  0  0  0  0  0
    1.4564   -1.1455   -2.4646 H   0  0  0  0  0  0  0  0  0  0  0  0
    0.6558    0.4030   -2.5532 H   0  0  0  0  0  0  0  0  0  0  0  0
    0.7485    1.3106    2.3232 H   0  0  0  0  0  0  0  0  0  0  0  0
   -1.9236    0.7028    1.8136 H   0  0  0  0  0  0  0  0  0  0  0  0
   -2.5189    2.0591    0.8839 H   0  0  0  0  0  0  0  0  0  0  0  0
   -0.6416   -2.0146   -2.4356 H   0  0  0  0  0  0  0  0  0  0  0  0
   -1.3314   -0.4562   -2.1516 H   0  0  0  0  0  0  0  0  0  0  0  0
   -3.3074   -3.2660   -0.7061 H   0  0  0  0  0  0  0  0  0  0  0  0
   -3.1370   -2.0803   -1.9944 H   0  0  0  0  0  0  0  0  0  0  0  0
    3.9634    0.0127   -1.6013 H   0  0  0  0  0  0  0  0  0  0  0  0
    2.7974    3.0778   -0.9972 H   0  0  0  0  0  0  0  0  0  0  0  0
    1.2010    2.5278   -1.3755 H   0  0  0  0  0  0  0  0  0  0  0  0
    2.5420    1.9805   -2.3815 H   0  0  0  0  0  0  0  0  0  0  0  0
   -5.5590   -2.5779   -1.3416 H   0  0  0  0  0  0  0  0  0  0  0  0
   -4.2063    1.0322    2.4681 H   0  0  0  0  0  0  0  0  0  0  0  0
   -4.1142   -0.7352    2.3590 H   0  0  0  0  0  0  0  0  0  0  0  0
   -5.6662    0.0802    2.3007 H   0  0  0  0  0  0  0  0  0  0  0  0
   -1.2890   -3.4015    0.4447 H   0  0  0  0  0  0  0  0  0  0  0  0
    4.7598    2.0673    0.5681 H   0  0  0  0  0  0  0  0  0  0  0  0
    4.8335    2.2885   -1.1926 H   0  0  0  0  0  0  0  0  0  0  0  0
    2.1395   -0.0357    3.1995 H   0  0  0  0  0  0  0  0  0  0  0  0
   -7.4768   -1.3755   -0.5264 H   0  0  0  0  0  0  0  0  0  0  0  0
   -6.9136    2.6955   -0.3227 H   0  0  0  0  0  0  0  0  0  0  0  0
   -6.6548    2.1630    1.3527 H   0  0  0  0  0  0  0  0  0  0  0  0
   -8.4438    0.7538   -0.0156 H   0  0  0  0  0  0  0  0  0  0  0  0
    7.2755    2.8205   -0.3379 H   0  0  0  0  0  0  0  0  0  0  0  0
    8.3605    1.4831   -0.6649 H   0  0  0  0  0  0  0  0  0  0  0  0
    7.2626    2.0467   -1.9359 H   0  0  0  0  0  0  0  0  0  0  0  0
    8.1776   -1.1279    0.9884 H   0  0  0  0  0  0  0  0  0  0  0  0
    8.4948   -0.6312   -0.6858 H   0  0  0  0  0  0  0  0  0  0  0  0
    7.6105   -2.1080   -0.3798 H   0  0  0  0  0  0  0  0  0  0  0  0
  1  8  1  0  0  0  0
  1 10  1  0  0  0  0
  2 12  1  0  0  0  0
  2 16  1  0  0  0  0
  3 10  1  0  0  0  0
  3 58  1  0  0  0  0
  4 16  1  0  0  0  0
  4 61  1  0  0  0  0
  5 21  1  0  0  0  0
  5 32  1  0  0  0  0
  6 26  2  0  0  0  0
  7 32  2  0  0  0  0
  8  9  1  0  0  0  0
  8 14  1  0  0  0  0
  8 16  1  0  0  0  0
  9 12  1  0  0  0  0
  9 15  1  0  0  0  0
  9 36  1  0  0  0  0
 10 11  1  0  0  0  0
 10 18  1  0  0  0  0
 11 13  1  0  0  0  0
 11 20  1  0  0  0  0
 11 37  1  0  0  0  0
 12 21  1  0  0  0  0
 12 22  1  0  0  0  0
 13 17  1  0  0  0  0
 13 19  1  0  0  0  0
 13 38  1  0  0  0  0
 14 17  1  0  0  0  0
 14 39  1  0  0  0  0
 14 40  1  0  0  0  0
 15 18  1  0  0  0  0
 15 41  1  0  0  0  0
 15 42  1  0  0  0  0
 16 43  1  0  0  0  0
 17 44  1  0  0  0  0
 17 45  1  0  0  0  0
 18 46  1  0  0  0  0
 18 47  1  0  0  0  0
 19 23  1  0  0  0  0
 19 25  1  0  0  0  0
 19 26  1  0  0  0  0
 20 24  1  0  0  0  0
 20 48  1  0  0  0  0
 20 49  1  0  0  0  0
 21 27  1  0  0  0  0
 21 50  1  0  0  0  0
 22 51  1  0  0  0  0
 22 52  1  0  0  0  0
 22 53  1  0  0  0  0
 23 24  2  0  0  0  0
 23 28  1  0  0  0  0
 24 54  1  0  0  0  0
 25 55  1  0  0  0  0
 25 56  1  0  0  0  0
 25 57  1  0  0  0  0
 26 29  1  0  0  0  0
 27 30  1  0  0  0  0
 27 59  1  0  0  0  0
 27 60  1  0  0  0  0
 28 31  2  0  0  0  0
 28 62  1  0  0  0  0
 29 31  1  0  0  0  0
 29 63  1  0  0  0  0
 29 64  1  0  0  0  0
 30 33  2  0  0  0  0
 30 34  1  0  0  0  0
 31 65  1  0  0  0  0
 32 33  1  0  0  0  0
 33 35  1  0  0  0  0
 34 66  1  0  0  0  0
 34 67  1  0  0  0  0
 34 68  1  0  0  0  0
 35 69  1  0  0  0  0
 35 70  1  0  0  0  0
 35 71  1  0  0  0  0
M  END
> <PUBCHEM_COMPOUND_CID>
118987259

> <PUBCHEM_CONFORMER_RMSD>
0.8

> <PUBCHEM_CONFORMER_DIVERSEORDER>
2
8
26
22
30
31
10
19
20
29
21
23
11
34
32
9
13
14
12
16
33
28
37
5
17
3
18
6
24
35
15
4
25
36
1
27
7

> <PUBCHEM_MMFF94_PARTIAL_CHARGES>
31
1 -0.56
10 0.56
12 0.28
16 0.56
19 0.2
2 -0.56
20 0.14
21 0.28
23 -0.14
24 -0.29
26 0.45
27 0.14
28 -0.15
29 0.2
3 -0.68
30 -0.28
31 -0.29
32 0.71
33 -0.12
34 0.14
35 0.14
4 -0.68
5 -0.43
54 0.15
58 0.4
6 -0.57
61 0.4
62 0.15
65 0.15
7 -0.57
8 0.28

> <PUBCHEM_EFFECTIVE_ROTOR_COUNT>
3.6

> <PUBCHEM_PHARMACOPHORE_FEATURES>
14
1 1 acceptor
1 2 acceptor
1 3 acceptor
1 3 donor
1 4 acceptor
1 4 donor
1 6 acceptor
1 7 acceptor
5 2 8 9 12 16 rings
6 1 8 9 10 15 18 rings
6 11 13 19 20 23 24 rings
6 19 23 26 28 29 31 rings
6 5 21 27 30 32 33 rings
7 1 8 10 11 13 14 17 rings

> <PUBCHEM_HEAVY_ATOM_COUNT>
35

> <PUBCHEM_ATOM_DEF_STEREO_COUNT>
6

> <PUBCHEM_ATOM_UDEF_STEREO_COUNT>
3

> <PUBCHEM_BOND_DEF_STEREO_COUNT>
0

> <PUBCHEM_BOND_UDEF_STEREO_COUNT>
0

> <PUBCHEM_ISOTOPIC_ATOM_COUNT>
0

> <PUBCHEM_COMPONENT_COUNT>
1

> <PUBCHEM_CACTVS_TAUTO_COUNT>
4

> <PUBCHEM_CONFORMER_ID>
071799FB00000002

> <PUBCHEM_MMFF94_ENERGY>
133.926

> <PUBCHEM_FEATURE_SELFOVERLAP>
71.794

> <PUBCHEM_SHAPE_FINGERPRINT>
10 15 18410581695113600159
10165383 225 18272092674189344073
10299344 5 18408603660652164638
10319926 262 18201426017630865883
10670039 82 18411976967085599853
10674148 151 18334293168069782242
10930396 42 16056015971947954530
11007060 377 18339644571722016098
11315181 36 17632302310803911345
11524674 6 16702300170236741391
11578080 2 17534044299906412591
11646440 116 15338843087762943706
11719270 70 17703792496633490702
11796584 16 18201723989772139182
12107183 9 18336824200106657458
12107698 1 18333732411885111813
12166972 35 18410574019701860201
12236239 1 18333731325178576016
12516196 113 12540695925066581887
12788726 201 17989214715956367064
13782708 43 16915934274465526927
13811026 1 17632298947533431798
14251764 18 18341612641716893214
14849402 71 18187370981672813052
14856354 85 17989211464739801117
14955137 171 15719399455272450710
15021287 119 17967535696224751805
15131766 46 17680158657904785388
15183329 4 18343586248040724586
15276724 80 18187079560057954980
15419008 47 15698281101194122330
15461852 350 17275101764996369629
1577012 14 18409446998654805999
15840311 113 17894917334134765868
15849732 13 18186241727522320068
18608769 82 18271249434860343059
18681886 176 18411977001086843697
19309040 13 16590866977696934910
19611394 137 17896897632850802315
20511986 3 18343012325121030232
21033648 29 17489008462177245098
22149856 69 13479402817317782701
23516275 137 18264788570379294042
23522609 53 18198370470586067352
23559900 14 17846211215424099057
23569917 315 18342183284427396639
23569943 247 16951954069100871666
23576562 1 17345182509641613061
249057 3 18411984668014605180
2838139 119 18131066048371892413
3004659 81 18411700985414011866
335352 9 18272930544788145565
34797466 226 13407082479415079354
350125 39 18411979156922639869
4017518 198 17703798011931233758
4073 2 17895762910580376194
4098825 35 18408321099128024916
5265222 85 18129100194421682758
59755656 215 17704072872029689455
59755656 520 17894910754719849091
6086070 43 17704066334947033921
6328613 192 18410294739516241072
7226269 152 18060423503696172457
99344 41 18412825759401600334

> <PUBCHEM_SHAPE_MULTIPOLES>
679.2
19.64
2.33
1.4
8.88
0.34
-0.26
-2.94
0.26
-0.66
0.44
0.29
0.08
-1.68

> <PUBCHEM_SHAPE_SELFOVERLAP>
1486.993

> <PUBCHEM_SHAPE_VOLUME>
362.5

> <PUBCHEM_COORDINATE_TYPE>
2
5
10

$$$$
