119057413
  -OEChem-03292013293D

 61 62  0     1  0  0  0  0  0999 V2000
   -4.1431   -0.1884   -0.9838 O   0  0  0  0  0  0  0  0  0  0  0  0
   -7.6593   -0.3732    0.1550 O   0  0  0  0  0  0  0  0  0  0  0  0
   -3.9462    0.5629    2.3181 O   0  0  0  0  0  0  0  0  0  0  0  0
   -4.9342    3.0279   -0.4072 O   0  0  0  0  0  0  0  0  0  0  0  0
   -7.0798   -4.5086   -0.0494 O   0  0  0  0  0  0  0  0  0  0  0  0
    7.1638   -2.2995    0.7015 O   0  0  0  0  0  0  0  0  0  0  0  0
    7.3604   -1.5875   -1.4884 O   0  0  0  0  0  0  0  0  0  0  0  0
    7.5321    3.1126    0.8329 O   0  0  0  0  0  0  0  0  0  0  0  0
   -5.6814   -0.6936    1.3505 N   0  0  0  0  0  0  0  0  0  0  0  0
   -5.5405    0.0870   -0.8415 C   0  0  2  0  0  0  0  0  0  0  0  0
   -4.5193    0.7526    0.0144 C   0  0  1  0  0  0  0  0  0  0  0  0
   -6.3203   -0.8381    0.0511 C   0  0  2  0  0  0  0  0  0  0  0  0
   -4.6470    0.2289    1.3768 C   0  0  0  0  0  0  0  0  0  0  0  0
   -6.3108   -2.2766   -0.4380 C   0  0  0  0  0  0  0  0  0  0  0  0
   -4.0892    2.1453   -0.3041 C   0  0  0  0  0  0  0  0  0  0  0  0
   -7.1444   -3.1820    0.4551 C   0  0  0  0  0  0  0  0  0  0  0  0
   -2.6253    2.4305   -0.4938 C   0  0  0  0  0  0  0  0  0  0  0  0
   -2.3164    3.8739   -0.7823 C   0  0  0  0  0  0  0  0  0  0  0  0
   -1.7298    1.4320   -0.3745 C   0  0  0  0  0  0  0  0  0  0  0  0
   -0.2881    1.5414   -0.5041 C   0  0  0  0  0  0  0  0  0  0  0  0
    0.5336    0.4863   -0.3686 C   0  0  0  0  0  0  0  0  0  0  0  0
    1.9943    0.4977   -0.4731 C   0  0  0  0  0  0  0  0  0  0  0  0
    2.6687    1.8094   -0.7862 C   0  0  0  0  0  0  0  0  0  0  0  0
    2.6629   -0.6631   -0.3076 C   0  0  0  0  0  0  0  0  0  0  0  0
    4.1040   -0.8626   -0.3394 C   0  0  0  0  0  0  0  0  0  0  0  0
    4.5290   -2.1335   -1.0232 C   0  0  0  0  0  0  0  0  0  0  0  0
    5.0122   -0.0235    0.1989 C   0  0  0  0  0  0  0  0  0  0  0  0
    6.4634   -0.1502    0.2098 C   0  0  0  0  0  0  0  0  0  0  0  0
    7.2806    0.7549    0.7810 C   0  0  0  0  0  0  0  0  0  0  0  0
    7.0470   -1.4102   -0.3208 C   0  0  0  0  0  0  0  0  0  0  0  0
    6.9083    2.0196    1.4913 C   0  0  0  0  0  0  0  0  0  0  0  0
    7.7148   -3.5725    0.3498 C   0  0  0  0  0  0  0  0  0  0  0  0
   -6.0685    0.6019   -1.6262 H   0  0  0  0  0  0  0  0  0  0  0  0
   -6.0014   -1.1764    2.1839 H   0  0  0  0  0  0  0  0  0  0  0  0
   -5.2872   -2.6682   -0.5021 H   0  0  0  0  0  0  0  0  0  0  0  0
   -6.7141   -2.3299   -1.4580 H   0  0  0  0  0  0  0  0  0  0  0  0
   -7.6348    0.4582    0.6586 H   0  0  0  0  0  0  0  0  0  0  0  0
   -6.7655   -3.1961    1.4812 H   0  0  0  0  0  0  0  0  0  0  0  0
   -8.1949   -2.8756    0.4685 H   0  0  0  0  0  0  0  0  0  0  0  0
   -2.8231    4.1912   -1.7004 H   0  0  0  0  0  0  0  0  0  0  0  0
   -2.6659    4.5067    0.0408 H   0  0  0  0  0  0  0  0  0  0  0  0
   -1.2534    4.0816   -0.9174 H   0  0  0  0  0  0  0  0  0  0  0  0
   -2.0475    0.4255   -0.1238 H   0  0  0  0  0  0  0  0  0  0  0  0
   -7.6203   -5.0643    0.5376 H   0  0  0  0  0  0  0  0  0  0  0  0
    0.1198    2.5240   -0.7049 H   0  0  0  0  0  0  0  0  0  0  0  0
    0.0887   -0.4866   -0.1588 H   0  0  0  0  0  0  0  0  0  0  0  0
    2.6908    2.4529    0.0995 H   0  0  0  0  0  0  0  0  0  0  0  0
    3.6864    1.7029   -1.1684 H   0  0  0  0  0  0  0  0  0  0  0  0
    2.1409    2.3395   -1.5873 H   0  0  0  0  0  0  0  0  0  0  0  0
    2.0975   -1.5731   -0.1051 H   0  0  0  0  0  0  0  0  0  0  0  0
    3.6496   -2.6715   -1.4058 H   0  0  0  0  0  0  0  0  0  0  0  0
    5.1159   -1.9427   -1.9236 H   0  0  0  0  0  0  0  0  0  0  0  0
    4.9900   -2.8467   -0.3390 H   0  0  0  0  0  0  0  0  0  0  0  0
    4.6197    0.8399    0.7256 H   0  0  0  0  0  0  0  0  0  0  0  0
    8.3507    0.5459    0.7727 H   0  0  0  0  0  0  0  0  0  0  0  0
    5.8385    2.2235    1.5362 H   0  0  0  0  0  0  0  0  0  0  0  0
    7.2864    1.9773    2.5181 H   0  0  0  0  0  0  0  0  0  0  0  0
    7.3173    3.9134    1.3411 H   0  0  0  0  0  0  0  0  0  0  0  0
    7.6515   -4.2235    1.2258 H   0  0  0  0  0  0  0  0  0  0  0  0
    8.7667   -3.4582    0.0717 H   0  0  0  0  0  0  0  0  0  0  0  0
    7.1492   -4.0303   -0.4674 H   0  0  0  0  0  0  0  0  0  0  0  0
  1 10  1  0  0  0  0
  1 11  1  0  0  0  0
  2 12  1  0  0  0  0
  2 37  1  0  0  0  0
  3 13  2  0  0  0  0
  4 15  2  0  0  0  0
  5 16  1  0  0  0  0
  5 44  1  0  0  0  0
  6 30  1  0  0  0  0
  6 32  1  0  0  0  0
  7 30  2  0  0  0  0
  8 31  1  0  0  0  0
  8 58  1  0  0  0  0
  9 12  1  0  0  0  0
  9 13  1  0  0  0  0
  9 34  1  0  0  0  0
 10 11  1  0  0  0  0
 10 12  1  0  0  0  0
 10 33  1  0  0  0  0
 11 13  1  0  0  0  0
 11 15  1  0  0  0  0
 12 14  1  0  0  0  0
 14 16  1  0  0  0  0
 14 35  1  0  0  0  0
 14 36  1  0  0  0  0
 15 17  1  0  0  0  0
 16 38  1  0  0  0  0
 16 39  1  0  0  0  0
 17 18  1  0  0  0  0
 17 19  2  0  0  0  0
 18 40  1  0  0  0  0
 18 41  1  0  0  0  0
 18 42  1  0  0  0  0
 19 20  1  0  0  0  0
 19 43  1  0  0  0  0
 20 21  2  0  0  0  0
 20 45  1  0  0  0  0
 21 22  1  0  0  0  0
 21 46  1  0  0  0  0
 22 23  1  0  0  0  0
 22 24  2  0  0  0  0
 23 47  1  0  0  0  0
 23 48  1  0  0  0  0
 23 49  1  0  0  0  0
 24 25  1  0  0  0  0
 24 50  1  0  0  0  0
 25 26  1  0  0  0  0
 25 27  2  0  0  0  0
 26 51  1  0  0  0  0
 26 52  1  0  0  0  0
 26 53  1  0  0  0  0
 27 28  1  0  0  0  0
 27 54  1  0  0  0  0
 28 29  2  0  0  0  0
 28 30  1  0  0  0  0
 29 31  1  0  0  0  0
 29 55  1  0  0  0  0
 31 56  1  0  0  0  0
 31 57  1  0  0  0  0
 32 59  1  0  0  0  0
 32 60  1  0  0  0  0
 32 61  1  0  0  0  0
M  END
> <PUBCHEM_COMPOUND_CID>
119057413

> <PUBCHEM_CONFORMER_RMSD>
1

> <PUBCHEM_CONFORMER_DIVERSEORDER>
6
81
126
98
114
62
118
50
127
116
34
7
55
125
75
67
12
21
102
142
132
16
23
52
78
95
40
87
129
84
86
89
131
33
53
141
106
25
72
128
58
133
136
76
80
51
103
66
122
18
64
109
113
108
139
30
134
61
104
79
44
4
47
90
20
123
92
119
59
137
135
43
9
68
91
13
82
48
121
37
60
100
120
70
28
124
56
94
22
117
19
10
101
110
1
54
46
140
97
99
39
138
77
35
83
31
69
85
49
112
111
130
65
115
3
107
5
11
96
71
29
36
57
105
27
41
42
32
74
88
63
26
17
38
2
93
24
45
14
15
8
73

> <PUBCHEM_MMFF94_PARTIAL_CHARGES>
42
1 -0.3
10 -0.05
11 0.15
12 0.68
13 0.63
15 0.56
16 0.28
17 -0.12
18 0.14
19 -0.15
2 -0.68
20 -0.15
21 -0.15
22 -0.14
23 0.14
24 -0.15
25 -0.14
26 0.14
27 -0.15
28 0.01
29 -0.29
3 -0.57
30 0.71
31 0.42
32 0.28
33 0.1
34 0.37
37 0.4
4 -0.57
43 0.15
44 0.4
45 0.15
46 0.15
5 -0.68
50 0.15
54 0.15
55 0.15
58 0.4
6 -0.43
7 -0.57
8 -0.68
9 -0.73

> <PUBCHEM_EFFECTIVE_ROTOR_COUNT>
11.6

> <PUBCHEM_PHARMACOPHORE_FEATURES>
15
1 1 acceptor
1 18 hydrophobe
1 2 acceptor
1 2 donor
1 23 hydrophobe
1 26 hydrophobe
1 3 acceptor
1 4 acceptor
1 5 acceptor
1 5 donor
1 7 acceptor
1 8 acceptor
1 8 donor
1 9 donor
6 1 9 10 11 12 13 rings

> <PUBCHEM_HEAVY_ATOM_COUNT>
32

> <PUBCHEM_ATOM_DEF_STEREO_COUNT>
3

> <PUBCHEM_ATOM_UDEF_STEREO_COUNT>
0

> <PUBCHEM_BOND_DEF_STEREO_COUNT>
5

> <PUBCHEM_BOND_UDEF_STEREO_COUNT>
0

> <PUBCHEM_ISOTOPIC_ATOM_COUNT>
0

> <PUBCHEM_COMPONENT_COUNT>
1

> <PUBCHEM_CACTVS_TAUTO_COUNT>
16

> <PUBCHEM_CONFORMER_ID>
0718AC0500000006

> <PUBCHEM_MMFF94_ENERGY>
91.1392

> <PUBCHEM_FEATURE_SELFOVERLAP>
76.171

> <PUBCHEM_SHAPE_FINGERPRINT>
10391435 84 18336817663393007085
10939801 23 18270397317095002302
13692114 37 18113330913343083722
13782708 43 18336827481925524918
14168556 18 18339075012178097920
14461889 52 18409162217349862840
14659021 117 18261108595924690009
14849402 71 17560516330524864944
15064981 113 14129599100524430955
15183329 4 14490478564935459122
15419008 91 18114725080368823260
15510800 12 17967822699298801507
17780758 139 17775007865281285545
21130935 74 18411698760494254704
23424782 7 18412545431713504772
23569943 247 17901099725553233530
25025965 108 18270945887551528239
3383291 50 17968101949308834491
397830 11 18413103957734963020
4073 2 18337391535037227496
4625314 4 18337388232376299244
4760202 70 17915168233784606700
5718773 13 18337110163661711647
9511036 111 17130414917396747055

> <PUBCHEM_SHAPE_MULTIPOLES>
606.61
28.64
4.31
1.21
17.5
1.52
-0.42
19.06
-5.04
-2.43
0.23
0.07
-0.17
2.27

> <PUBCHEM_SHAPE_SELFOVERLAP>
1254.938

> <PUBCHEM_SHAPE_VOLUME>
345.8

> <PUBCHEM_COORDINATE_TYPE>
2
5
10

$$$$
