119046
  -OEChem-03292013323D

 79 82  0     1  0  0  0  0  0999 V2000
    6.5906    2.6596    0.1128 S   0  0  0  0  0  0  0  0  0  0  0  0
   -4.7997    2.4715   -2.5348 O   0  0  0  0  0  0  0  0  0  0  0  0
   -5.5414    3.1943    2.4664 O   0  0  0  0  0  0  0  0  0  0  0  0
    5.8366   -1.9508   -0.6065 O   0  0  0  0  0  0  0  0  0  0  0  0
    7.2215    3.5761   -1.0798 O   0  0  0  0  0  0  0  0  0  0  0  0
    7.0315    3.1880    1.3907 O   0  0  0  0  0  0  0  0  0  0  0  0
    5.1856    2.4294   -0.1697 O   0  0  0  0  0  0  0  0  0  0  0  0
    5.8820   -0.2397    0.9650 N   0  0  0  0  0  0  0  0  0  0  0  0
   -1.1646   -0.3645   -0.8009 C   0  0  2  0  0  0  0  0  0  0  0  0
   -0.7472   -1.7201   -0.1907 C   0  0  1  0  0  0  0  0  0  0  0  0
   -2.6680   -0.2768   -1.0857 C   0  0  1  0  0  0  0  0  0  0  0  0
   -3.4433   -0.4651    0.2591 C   0  0  1  0  0  0  0  0  0  0  0  0
   -5.0026   -0.3381    0.0671 C   0  0  2  0  0  0  0  0  0  0  0  0
    0.7800   -1.4860   -0.0917 C   0  0  2  0  0  0  0  0  0  0  0  0
   -5.3285    1.0276   -0.6310 C   0  0  2  0  0  0  0  0  0  0  0  0
   -1.4650   -1.8683    1.1576 C   0  0  0  0  0  0  0  0  0  0  0  0
   -2.9931   -1.7494    1.0068 C   0  0  0  0  0  0  0  0  0  0  0  0
   -0.1783   -0.1687   -1.9482 C   0  0  0  0  0  0  0  0  0  0  0  0
   -3.0351    1.0499   -1.7602 C   0  0  0  0  0  0  0  0  0  0  0  0
    1.1309   -0.7909   -1.4282 C   0  0  0  0  0  0  0  0  0  0  0  0
   -4.5429    1.1971   -1.9492 C   0  0  2  0  0  0  0  0  0  0  0  0
   -5.7735   -0.4026    1.4178 C   0  0  0  0  0  0  0  0  0  0  0  0
   -1.0662   -2.9436   -1.0863 C   0  0  0  0  0  0  0  0  0  0  0  0
    1.6415   -2.7102    0.1828 C   0  0  1  0  0  0  0  0  0  0  0  0
   -5.1210    2.2380    0.3103 C   0  0  0  0  0  0  0  0  0  0  0  0
   -5.5541   -1.5041   -0.7939 C   0  0  0  0  0  0  0  0  0  0  0  0
   -5.5247    0.7899    2.3312 C   0  0  0  0  0  0  0  0  0  0  0  0
   -5.8760    2.0935    1.6275 C   0  0  1  0  0  0  0  0  0  0  0  0
    3.1183   -2.5009   -0.2099 C   0  0  0  0  0  0  0  0  0  0  0  0
    1.5593   -3.0874    1.6665 C   0  0  0  0  0  0  0  0  0  0  0  0
    3.8056   -1.3915    0.5867 C   0  0  0  0  0  0  0  0  0  0  0  0
    5.2766   -1.2504    0.2324 C   0  0  0  0  0  0  0  0  0  0  0  0
    7.2757    0.1135    0.8212 C   0  0  0  0  0  0  0  0  0  0  0  0
    7.4897    1.1804   -0.2353 C   0  0  0  0  0  0  0  0  0  0  0  0
   -0.9384    0.4302   -0.0698 H   0  0  0  0  0  0  0  0  0  0  0  0
   -2.9423   -1.0746   -1.7829 H   0  0  0  0  0  0  0  0  0  0  0  0
   -3.1273    0.3638    0.9073 H   0  0  0  0  0  0  0  0  0  0  0  0
    0.9618   -0.7424    0.6992 H   0  0  0  0  0  0  0  0  0  0  0  0
   -6.3972    1.0386   -0.8925 H   0  0  0  0  0  0  0  0  0  0  0  0
   -1.1192   -1.0989    1.8597 H   0  0  0  0  0  0  0  0  0  0  0  0
   -1.2545   -2.8357    1.6203 H   0  0  0  0  0  0  0  0  0  0  0  0
   -3.4219   -1.7649    2.0146 H   0  0  0  0  0  0  0  0  0  0  0  0
   -3.3716   -2.6398    0.4952 H   0  0  0  0  0  0  0  0  0  0  0  0
   -0.5129   -0.6820   -2.8568 H   0  0  0  0  0  0  0  0  0  0  0  0
   -0.0438    0.8893   -2.1956 H   0  0  0  0  0  0  0  0  0  0  0  0
   -2.5479    1.1191   -2.7413 H   0  0  0  0  0  0  0  0  0  0  0  0
   -2.6398    1.8980   -1.1871 H   0  0  0  0  0  0  0  0  0  0  0  0
    1.8927   -0.0167   -1.2932 H   0  0  0  0  0  0  0  0  0  0  0  0
    1.4924   -1.4916   -2.1884 H   0  0  0  0  0  0  0  0  0  0  0  0
   -4.8901    0.4512   -2.6729 H   0  0  0  0  0  0  0  0  0  0  0  0
   -6.8525   -0.4454    1.2109 H   0  0  0  0  0  0  0  0  0  0  0  0
   -5.5467   -1.3281    1.9578 H   0  0  0  0  0  0  0  0  0  0  0  0
   -0.4951   -2.9421   -2.0199 H   0  0  0  0  0  0  0  0  0  0  0  0
   -0.8427   -3.8808   -0.5642 H   0  0  0  0  0  0  0  0  0  0  0  0
   -2.1222   -2.9987   -1.3637 H   0  0  0  0  0  0  0  0  0  0  0  0
    1.3091   -3.5708   -0.4063 H   0  0  0  0  0  0  0  0  0  0  0  0
   -5.4570    3.1594   -0.1825 H   0  0  0  0  0  0  0  0  0  0  0  0
   -4.0578    2.4017    0.5216 H   0  0  0  0  0  0  0  0  0  0  0  0
   -5.0432   -1.6081   -1.7538 H   0  0  0  0  0  0  0  0  0  0  0  0
   -5.4688   -2.4631   -0.2720 H   0  0  0  0  0  0  0  0  0  0  0  0
   -6.6183   -1.3557   -1.0127 H   0  0  0  0  0  0  0  0  0  0  0  0
   -4.4847    0.8099    2.6777 H   0  0  0  0  0  0  0  0  0  0  0  0
   -6.1302    0.6940    3.2410 H   0  0  0  0  0  0  0  0  0  0  0  0
   -6.9566    2.1313    1.4444 H   0  0  0  0  0  0  0  0  0  0  0  0
    3.6577   -3.4420   -0.0321 H   0  0  0  0  0  0  0  0  0  0  0  0
    3.2303   -2.3204   -1.2842 H   0  0  0  0  0  0  0  0  0  0  0  0
    1.6069   -2.2168    2.3284 H   0  0  0  0  0  0  0  0  0  0  0  0
    0.6362   -3.6290    1.8820 H   0  0  0  0  0  0  0  0  0  0  0  0
    2.3734   -3.7665    1.9454 H   0  0  0  0  0  0  0  0  0  0  0  0
   -4.3141    2.5133   -3.3762 H   0  0  0  0  0  0  0  0  0  0  0  0
   -5.7965    4.0083    1.9995 H   0  0  0  0  0  0  0  0  0  0  0  0
    3.7576   -1.5996    1.6614 H   0  0  0  0  0  0  0  0  0  0  0  0
    3.3289   -0.4219    0.4138 H   0  0  0  0  0  0  0  0  0  0  0  0
    5.3274    0.2882    1.6328 H   0  0  0  0  0  0  0  0  0  0  0  0
    7.6170    0.4636    1.8010 H   0  0  0  0  0  0  0  0  0  0  0  0
    7.8484   -0.7840    0.5645 H   0  0  0  0  0  0  0  0  0  0  0  0
    7.1672    0.8283   -1.2207 H   0  0  0  0  0  0  0  0  0  0  0  0
    8.5512    1.4430   -0.2836 H   0  0  0  0  0  0  0  0  0  0  0  0
    6.9415    3.3343   -1.9939 H   0  0  0  0  0  0  0  0  0  0  0  0
  1  5  1  0  0  0  0
  1  6  2  0  0  0  0
  1  7  2  0  0  0  0
  1 34  1  0  0  0  0
  2 21  1  0  0  0  0
  2 70  1  0  0  0  0
  3 28  1  0  0  0  0
  3 71  1  0  0  0  0
  4 32  2  0  0  0  0
  5 79  1  0  0  0  0
  8 32  1  0  0  0  0
  8 33  1  0  0  0  0
  8 74  1  0  0  0  0
  9 10  1  0  0  0  0
  9 11  1  0  0  0  0
  9 18  1  0  0  0  0
  9 35  1  0  0  0  0
 10 14  1  0  0  0  0
 10 16  1  0  0  0  0
 10 23  1  0  0  0  0
 11 12  1  0  0  0  0
 11 19  1  0  0  0  0
 11 36  1  0  0  0  0
 12 13  1  0  0  0  0
 12 17  1  0  0  0  0
 12 37  1  0  0  0  0
 13 15  1  0  0  0  0
 13 22  1  0  0  0  0
 13 26  1  0  0  0  0
 14 20  1  0  0  0  0
 14 24  1  0  0  0  0
 14 38  1  0  0  0  0
 15 21  1  0  0  0  0
 15 25  1  0  0  0  0
 15 39  1  0  0  0  0
 16 17  1  0  0  0  0
 16 40  1  0  0  0  0
 16 41  1  0  0  0  0
 17 42  1  0  0  0  0
 17 43  1  0  0  0  0
 18 20  1  0  0  0  0
 18 44  1  0  0  0  0
 18 45  1  0  0  0  0
 19 21  1  0  0  0  0
 19 46  1  0  0  0  0
 19 47  1  0  0  0  0
 20 48  1  0  0  0  0
 20 49  1  0  0  0  0
 21 50  1  0  0  0  0
 22 27  1  0  0  0  0
 22 51  1  0  0  0  0
 22 52  1  0  0  0  0
 23 53  1  0  0  0  0
 23 54  1  0  0  0  0
 23 55  1  0  0  0  0
 24 29  1  0  0  0  0
 24 30  1  0  0  0  0
 24 56  1  0  0  0  0
 25 28  1  0  0  0  0
 25 57  1  0  0  0  0
 25 58  1  0  0  0  0
 26 59  1  0  0  0  0
 26 60  1  0  0  0  0
 26 61  1  0  0  0  0
 27 28  1  0  0  0  0
 27 62  1  0  0  0  0
 27 63  1  0  0  0  0
 28 64  1  0  0  0  0
 29 31  1  0  0  0  0
 29 65  1  0  0  0  0
 29 66  1  0  0  0  0
 30 67  1  0  0  0  0
 30 68  1  0  0  0  0
 30 69  1  0  0  0  0
 31 32  1  0  0  0  0
 31 72  1  0  0  0  0
 31 73  1  0  0  0  0
 33 34  1  0  0  0  0
 33 75  1  0  0  0  0
 33 76  1  0  0  0  0
 34 77  1  0  0  0  0
 34 78  1  0  0  0  0
M  END
> <PUBCHEM_COMPOUND_CID>
119046

> <PUBCHEM_CONFORMER_RMSD>
1

> <PUBCHEM_CONFORMER_DIVERSEORDER>
3
15
39
34
29
31
42
88
59
4
44
47
71
33
83
26
76
37
41
50
55
79
22
80
18
81
56
82
32
7
67
53
70
23
78
69
36
84
17
77
86
43
11
28
38
14
27
60
24
63
61
30
54
51
85
73
62
25
40
75
68
12
45
89
2
48
6
19
13
21
87
72
65
74
8
90
20
49
1
64
66
46
5
16
58
10
35
57
9
52

> <PUBCHEM_MMFF94_PARTIAL_CHARGES>
18
1 1.38
2 -0.68
21 0.28
28 0.28
3 -0.68
31 0.06
32 0.57
33 0.3
34 0.11
4 -0.57
5 -0.68
6 -0.65
7 -0.65
70 0.4
71 0.4
74 0.37
79 0.5
8 -0.73

> <PUBCHEM_EFFECTIVE_ROTOR_COUNT>
10.2

> <PUBCHEM_PHARMACOPHORE_FEATURES>
15
1 2 acceptor
1 2 donor
1 3 acceptor
1 3 donor
1 30 hydrophobe
1 4 acceptor
1 5 acceptor
1 6 acceptor
1 7 acceptor
1 8 donor
4 1 5 6 7 anion
5 9 10 14 18 20 rings
6 11 12 13 15 19 21 rings
6 13 15 22 25 27 28 rings
6 9 10 11 12 16 17 rings

> <PUBCHEM_HEAVY_ATOM_COUNT>
34

> <PUBCHEM_ATOM_DEF_STEREO_COUNT>
10

> <PUBCHEM_ATOM_UDEF_STEREO_COUNT>
0

> <PUBCHEM_BOND_DEF_STEREO_COUNT>
0

> <PUBCHEM_BOND_UDEF_STEREO_COUNT>
0

> <PUBCHEM_ISOTOPIC_ATOM_COUNT>
0

> <PUBCHEM_COMPONENT_COUNT>
1

> <PUBCHEM_CACTVS_TAUTO_COUNT>
2

> <PUBCHEM_CONFORMER_ID>
0001D10600000003

> <PUBCHEM_MMFF94_ENERGY>
99.1209

> <PUBCHEM_FEATURE_SELFOVERLAP>
76.305

> <PUBCHEM_SHAPE_FINGERPRINT>
10 15 17749390369181978794
10554248 39 17489591109109681470
10693767 8 9799409988905307452
11007060 377 18113613495729622659
11456790 92 18042112199563467674
12013929 29 17986965054799271776
12422481 6 17458060478415088598
12677640 9 17975698612568176238
12975358 362 18260556597505845468
13782708 43 11458424643951586442
14202776 33 17775276201610107935
14394314 77 18343589537939344456
14849402 71 18340772640524520049
14904525 67 18201439125686852728
15183329 4 14476956775047700062
15519825 34 15719680964698557824
15840311 113 18339368461259535125
16989378 47 10952053338408065668
17686467 74 18261674883115517483
18393751 57 18334580139866698979
20691028 202 18341611560102566064
21033648 29 17750233613159368423
22122407 14 18272940431444184832
22393880 68 13685427120604083855
23559900 14 17172373079264724503
23569914 152 8024549542551317835
2748736 6 18342450452898484536
2838139 119 17632289081977559672
328310 630 18201719543958488361
3418910 222 17917717903224833241
392239 28 18260829254892487109
397830 11 18259708903867379426
4169191 19 18410011044078381308
4258327 124 18271230682526253247
5104073 3 17096929049389060939
5223283 242 18127141784531369686
5364581 5 18040719220228940452
5718773 13 8718835275922545896
6608658 132 16271654390339364819

> <PUBCHEM_SHAPE_MULTIPOLES>
663.36
21.44
3.98
2.01
31.2
1.67
0.08
20.05
5.57
4.1
0.67
-3.33
1
-0.76

> <PUBCHEM_SHAPE_SELFOVERLAP>
1364.754

> <PUBCHEM_SHAPE_VOLUME>
385.8

> <PUBCHEM_COORDINATE_TYPE>
2
5
10

$$$$
