119069
  -OEChem-03292013323D

 36 36  0     1  0  0  0  0  0999 V2000
    0.6403    0.4792    0.6615 S   0  0  0  0  0  0  0  0  0  0  0  0
   -1.9112   -0.7514    1.9378 O   0  0  0  0  0  0  0  0  0  0  0  0
    4.1139    1.8514    1.1327 O   0  0  0  0  0  0  0  0  0  0  0  0
    3.1790    2.9331   -0.6270 O   0  0  0  0  0  0  0  0  0  0  0  0
    4.2365   -2.0274   -1.5144 O   0  0  0  0  0  0  0  0  0  0  0  0
    3.7165   -0.5403    0.2001 N   0  0  0  0  0  0  0  0  0  0  0  0
   -2.0998    0.2684    0.9579 C   0  0  1  0  0  0  0  0  0  0  0  0
    3.1501    0.5086   -0.6108 C   0  0  1  0  0  0  0  0  0  0  0  0
   -0.9821    0.2199   -0.0889 C   0  0  0  0  0  0  0  0  0  0  0  0
    1.6514    0.3043   -0.8462 C   0  0  0  0  0  0  0  0  0  0  0  0
   -3.4566    0.0599    0.3202 C   0  0  0  0  0  0  0  0  0  0  0  0
   -4.1664    1.1587   -0.1317 C   0  0  0  0  0  0  0  0  0  0  0  0
   -3.9574   -1.2250    0.2026 C   0  0  0  0  0  0  0  0  0  0  0  0
    3.4657    1.8878   -0.0561 C   0  0  0  0  0  0  0  0  0  0  0  0
   -5.4167    0.9667   -0.7195 C   0  0  0  0  0  0  0  0  0  0  0  0
   -5.2077   -1.4169   -0.3855 C   0  0  0  0  0  0  0  0  0  0  0  0
    4.2132   -1.7233   -0.3246 C   0  0  0  0  0  0  0  0  0  0  0  0
   -5.9372   -0.3210   -0.8465 C   0  0  0  0  0  0  0  0  0  0  0  0
    4.7684   -2.6328    0.7386 C   0  0  0  0  0  0  0  0  0  0  0  0
   -2.0862    1.2297    1.4874 H   0  0  0  0  0  0  0  0  0  0  0  0
    3.6578    0.4612   -1.5831 H   0  0  0  0  0  0  0  0  0  0  0  0
   -0.9700   -0.7622   -0.5756 H   0  0  0  0  0  0  0  0  0  0  0  0
   -1.1469    0.9827   -0.8576 H   0  0  0  0  0  0  0  0  0  0  0  0
    1.4722   -0.6913   -1.2669 H   0  0  0  0  0  0  0  0  0  0  0  0
    1.2962    1.0462   -1.5701 H   0  0  0  0  0  0  0  0  0  0  0  0
    3.7380   -0.4031    1.2067 H   0  0  0  0  0  0  0  0  0  0  0  0
   -3.7675    2.1647   -0.0388 H   0  0  0  0  0  0  0  0  0  0  0  0
   -3.4033   -2.0962    0.5384 H   0  0  0  0  0  0  0  0  0  0  0  0
   -2.6006   -0.6437    2.6159 H   0  0  0  0  0  0  0  0  0  0  0  0
   -5.9845    1.8198   -1.0793 H   0  0  0  0  0  0  0  0  0  0  0  0
   -5.6118   -2.4198   -0.4880 H   0  0  0  0  0  0  0  0  0  0  0  0
   -6.9101   -0.4706   -1.3054 H   0  0  0  0  0  0  0  0  0  0  0  0
    4.9774   -3.6167    0.3097 H   0  0  0  0  0  0  0  0  0  0  0  0
    5.6952   -2.2085    1.1344 H   0  0  0  0  0  0  0  0  0  0  0  0
    4.0451   -2.7510    1.5505 H   0  0  0  0  0  0  0  0  0  0  0  0
    4.3137    2.7509    1.4692 H   0  0  0  0  0  0  0  0  0  0  0  0
  1  9  1  0  0  0  0
  1 10  1  0  0  0  0
  2  7  1  0  0  0  0
  2 29  1  0  0  0  0
  3 14  1  0  0  0  0
  3 36  1  0  0  0  0
  4 14  2  0  0  0  0
  5 17  2  0  0  0  0
  6  8  1  0  0  0  0
  6 17  1  0  0  0  0
  6 26  1  0  0  0  0
  7  9  1  0  0  0  0
  7 11  1  0  0  0  0
  7 20  1  0  0  0  0
  8 10  1  0  0  0  0
  8 14  1  0  0  0  0
  8 21  1  0  0  0  0
  9 22  1  0  0  0  0
  9 23  1  0  0  0  0
 10 24  1  0  0  0  0
 10 25  1  0  0  0  0
 11 12  2  0  0  0  0
 11 13  1  0  0  0  0
 12 15  1  0  0  0  0
 12 27  1  0  0  0  0
 13 16  2  0  0  0  0
 13 28  1  0  0  0  0
 15 18  2  0  0  0  0
 15 30  1  0  0  0  0
 16 18  1  0  0  0  0
 16 31  1  0  0  0  0
 17 19  1  0  0  0  0
 18 32  1  0  0  0  0
 19 33  1  0  0  0  0
 19 34  1  0  0  0  0
 19 35  1  0  0  0  0
M  END
> <PUBCHEM_COMPOUND_CID>
119069

> <PUBCHEM_CONFORMER_RMSD>
0.8

> <PUBCHEM_CONFORMER_DIVERSEORDER>
1
66
77
90
61
33
26
11
67
31
107
81
83
45
82
18
2
94
20
85
19
46
23
76
72
96
14
3
91
74
36
102
25
103
105
87
56
99
92
35
79
65
21
22
62
59
8
47
95
89
104
101
88
29
7
32
69
58
49
12
100
10
30
64
60
52
78
53
106
75
97
63
86
80
5
93
6
17
71
73
39
48
84
41
16
98
38
54
9
42
51
15
27
57
55
37
50
40
43
13
68
4
34
24
28
70
44

> <PUBCHEM_MMFF94_PARTIAL_CHARGES>
27
1 -0.46
10 0.23
11 -0.14
12 -0.15
13 -0.15
14 0.66
15 -0.15
16 -0.15
17 0.57
18 -0.15
19 0.06
2 -0.68
26 0.37
27 0.15
28 0.15
29 0.4
3 -0.65
30 0.15
31 0.15
32 0.15
36 0.5
4 -0.57
5 -0.57
6 -0.73
7 0.42
8 0.36
9 0.23

> <PUBCHEM_EFFECTIVE_ROTOR_COUNT>
8

> <PUBCHEM_PHARMACOPHORE_FEATURES>
8
1 2 acceptor
1 2 donor
1 3 acceptor
1 4 acceptor
1 5 acceptor
1 6 donor
3 3 4 14 anion
6 11 12 13 15 16 18 rings

> <PUBCHEM_HEAVY_ATOM_COUNT>
19

> <PUBCHEM_ATOM_DEF_STEREO_COUNT>
1

> <PUBCHEM_ATOM_UDEF_STEREO_COUNT>
1

> <PUBCHEM_BOND_DEF_STEREO_COUNT>
0

> <PUBCHEM_BOND_UDEF_STEREO_COUNT>
0

> <PUBCHEM_ISOTOPIC_ATOM_COUNT>
0

> <PUBCHEM_COMPONENT_COUNT>
1

> <PUBCHEM_CACTVS_TAUTO_COUNT>
2

> <PUBCHEM_CONFORMER_ID>
0001D11D00000001

> <PUBCHEM_MMFF94_ENERGY>
43.2295

> <PUBCHEM_FEATURE_SELFOVERLAP>
40.656

> <PUBCHEM_SHAPE_FINGERPRINT>
10378564 45 18041553650775150581
10595046 47 18340486776570994797
10670039 82 15213577828138753198
10912923 1 17775293776436856697
11405975 8 18411143502363290329
11858739 19 18272368637979111703
12596602 18 9007059093627587629
12616971 3 17988375788504901691
13073987 5 18343303682501290033
13167823 11 18412824694428851055
13533116 47 18413389838772781634
13544592 145 17894632534773979986
13583140 156 18127696139020140097
13911852 28 18050003295115446470
15183329 4 18260546671925146215
17349148 13 17203336597627015863
17844677 252 18410015416513376525
17857418 61 18410009892821560374
20369508 70 18334857182753093002
20645477 70 18412829079637731702
220451 1 18271816760709666767
22061861 79 18410853252968730663
2215653 11 17968097486494765711
22224240 67 18341040926848466552
23559900 14 18407759248438285632
29717793 49 18342454820774683823
3004659 81 18272653432902225510
312423 11 18059310793713211960
32948 21 17822294535126998894
34797466 226 18188490289342237313
5104073 3 18272094894154336019
5281201 14 18334296469797345997
5283173 99 18336260163801161221
59682541 52 18041268873354211303
633830 44 16732988656021511735
90127 26 18040439893105214353
960060 61 17749681709672311894
9709674 26 18260274087235144539
9841814 1 15985100838445202506
9971528 1 17894631465343220788

> <PUBCHEM_SHAPE_MULTIPOLES>
366.4
14.77
2.41
1.17
7.08
0.1
-0.18
-3.82
2.82
-4.31
0.13
-0.22
-0.2
0.35

> <PUBCHEM_SHAPE_SELFOVERLAP>
727.818

> <PUBCHEM_SHAPE_VOLUME>
217.7

> <PUBCHEM_COORDINATE_TYPE>
2
5
10

$$$$
