119182
  -OEChem-03292013323D

 31 33  0     1  0  0  0  0  0999 V2000
    1.7310    3.3761    0.3727 Cl  0  0  0  0  0  0  0  0  0  0  0  0
   -1.3993   -0.5472    1.8143 F   0  0  0  0  0  0  0  0  0  0  0  0
   -1.7054    0.0696   -1.1029 O   0  0  0  0  0  0  0  0  0  0  0  0
   -4.3423   -1.2614   -0.0173 O   0  0  0  0  0  0  0  0  0  0  0  0
   -2.0584    2.8248   -0.8623 O   0  0  0  0  0  0  0  0  0  0  0  0
    0.0825   -1.3110   -0.3602 N   0  0  0  0  0  0  0  0  0  0  0  0
    2.0911   -2.2896   -0.3110 N   0  0  0  0  0  0  0  0  0  0  0  0
    0.7452    1.0011   -0.0126 N   0  0  0  0  0  0  0  0  0  0  0  0
    3.1656    1.2096    0.2204 N   0  0  0  0  0  0  0  0  0  0  0  0
    4.6346   -0.6757    0.1076 N   0  0  0  0  0  0  0  0  0  0  0  0
   -1.3652   -1.1734   -0.4649 C   0  0  1  0  0  0  0  0  0  0  0  0
   -3.3547   -0.4102    0.5562 C   0  0  1  0  0  0  0  0  0  0  0  0
   -2.1086   -1.2065    0.8606 C   0  0  2  0  0  0  0  0  0  0  0  0
   -2.8801    0.6164   -0.4694 C   0  0  1  0  0  0  0  0  0  0  0  0
   -2.4930    1.9471    0.1614 C   0  0  0  0  0  0  0  0  0  0  0  0
    0.9936   -0.3093   -0.1563 C   0  0  0  0  0  0  0  0  0  0  0  0
    0.7954   -2.4816   -0.4454 C   0  0  0  0  0  0  0  0  0  0  0  0
    2.2292   -0.9363   -0.1296 C   0  0  0  0  0  0  0  0  0  0  0  0
    3.3421   -0.1250    0.0672 C   0  0  0  0  0  0  0  0  0  0  0  0
    1.8968    1.6827    0.1717 C   0  0  0  0  0  0  0  0  0  0  0  0
   -1.7208   -1.9712   -1.1286 H   0  0  0  0  0  0  0  0  0  0  0  0
   -3.7929    0.0596    1.4421 H   0  0  0  0  0  0  0  0  0  0  0  0
   -2.2877   -2.2263    1.2127 H   0  0  0  0  0  0  0  0  0  0  0  0
   -3.6206    0.7796   -1.2607 H   0  0  0  0  0  0  0  0  0  0  0  0
   -1.6818    1.8441    0.8877 H   0  0  0  0  0  0  0  0  0  0  0  0
   -3.3505    2.4057    0.6627 H   0  0  0  0  0  0  0  0  0  0  0  0
    0.3149   -3.4373   -0.6042 H   0  0  0  0  0  0  0  0  0  0  0  0
   -4.5757   -1.9282    0.6510 H   0  0  0  0  0  0  0  0  0  0  0  0
   -1.2940    2.4102   -1.2981 H   0  0  0  0  0  0  0  0  0  0  0  0
    4.7695   -1.6711   -0.0062 H   0  0  0  0  0  0  0  0  0  0  0  0
    5.4271   -0.0650    0.2522 H   0  0  0  0  0  0  0  0  0  0  0  0
  1 20  1  0  0  0  0
  2 13  1  0  0  0  0
  3 11  1  0  0  0  0
  3 14  1  0  0  0  0
  4 12  1  0  0  0  0
  4 28  1  0  0  0  0
  5 15  1  0  0  0  0
  5 29  1  0  0  0  0
  6 11  1  0  0  0  0
  6 16  1  0  0  0  0
  6 17  1  0  0  0  0
  7 17  2  0  0  0  0
  7 18  1  0  0  0  0
  8 16  2  0  0  0  0
  8 20  1  0  0  0  0
  9 19  1  0  0  0  0
  9 20  2  0  0  0  0
 10 19  1  0  0  0  0
 10 30  1  0  0  0  0
 10 31  1  0  0  0  0
 11 13  1  0  0  0  0
 11 21  1  0  0  0  0
 12 13  1  0  0  0  0
 12 14  1  0  0  0  0
 12 22  1  0  0  0  0
 13 23  1  0  0  0  0
 14 15  1  0  0  0  0
 14 24  1  0  0  0  0
 15 25  1  0  0  0  0
 15 26  1  0  0  0  0
 16 18  1  0  0  0  0
 17 27  1  0  0  0  0
 18 19  2  0  0  0  0
M  END
> <PUBCHEM_COMPOUND_CID>
119182

> <PUBCHEM_CONFORMER_RMSD>
0.6

> <PUBCHEM_CONFORMER_DIVERSEORDER>
1
5
14
12
7
13
9
4
10
16
6
17
2
8
11
3
15

> <PUBCHEM_MMFF94_PARTIAL_CHARGES>
25
1 -0.18
10 -0.9
11 0.54
12 0.28
13 0.34
14 0.28
15 0.28
16 0.11
17 0.04
18 0.23
19 0.41
2 -0.34
20 0.8
27 0.15
28 0.4
29 0.4
3 -0.56
30 0.4
31 0.4
4 -0.68
5 -0.68
6 0.05
7 -0.57
8 -0.57
9 -0.62

> <PUBCHEM_EFFECTIVE_ROTOR_COUNT>
3

> <PUBCHEM_PHARMACOPHORE_FEATURES>
13
1 10 cation
1 10 donor
1 3 acceptor
1 4 acceptor
1 4 donor
1 5 acceptor
1 5 donor
3 6 7 17 cation
3 6 8 16 cation
3 8 9 20 cation
5 3 11 12 13 14 rings
5 6 7 16 17 18 rings
6 8 9 16 18 19 20 rings

> <PUBCHEM_HEAVY_ATOM_COUNT>
20

> <PUBCHEM_ATOM_DEF_STEREO_COUNT>
4

> <PUBCHEM_ATOM_UDEF_STEREO_COUNT>
0

> <PUBCHEM_BOND_DEF_STEREO_COUNT>
0

> <PUBCHEM_BOND_UDEF_STEREO_COUNT>
0

> <PUBCHEM_ISOTOPIC_ATOM_COUNT>
0

> <PUBCHEM_COMPONENT_COUNT>
1

> <PUBCHEM_CACTVS_TAUTO_COUNT>
3

> <PUBCHEM_CONFORMER_ID>
0001D18E00000001

> <PUBCHEM_MMFF94_ENERGY>
40.6599

> <PUBCHEM_FEATURE_SELFOVERLAP>
66.58

> <PUBCHEM_SHAPE_FINGERPRINT>
10366900 7 18187091679822459523
10608611 8 18409446947294592013
10967382 1 18267583696397749132
12403259 226 18410853299780730458
12403260 363 18339633529303016714
12633257 1 18334587844879084459
13132413 78 18342737369472470156
13140716 1 18194963182460673562
13294875 104 17174306029158157969
14026960 21 18265618869150373555
14223421 5 18409733958568536623
14251745 187 18337382725958920928
15042514 8 16105012090597170766
15196674 1 18411418414529836532
15375462 6 18410294739637521487
15775835 57 18058454377123327109
16945 1 18411974784503637806
17802600 8 18411416228322631753
18186145 218 17988369268739264558
19049666 15 18189338961499256907
19930381 70 18124308569850245041
200 152 18130498704561380263
21501502 16 18336550408747038687
21524375 3 18200595937696245398
22854114 111 18342178915922240922
2334 1 17763742491642511414
23402539 116 18335696165954574575
23559900 14 18410004464109213073
238 59 18196059262557215221
2748010 2 18198343948972330782
3286 77 18334292097583656278
350125 39 18410859896882639356
351380 180 18408036333963623011
7832392 63 18125440800422655433
8809292 202 18261676965367261360
9709674 26 18409735049485422783

> <PUBCHEM_SHAPE_MULTIPOLES>
363.67
6.47
3.07
0.9
0.19
2.04
0.17
-0.35
0.44
0.88
-0.23
-0.5
-0.02
0.66

> <PUBCHEM_SHAPE_SELFOVERLAP>
785.019

> <PUBCHEM_SHAPE_VOLUME>
202.5

> <PUBCHEM_COORDINATE_TYPE>
2
5
10

$$$$
