119184
  -OEChem-03292013323D

 30 31  0     1  0  0  0  0  0999 V2000
    1.3008   -0.3859   -1.1598 O   0  0  0  0  0  0  0  0  0  0  0  0
    3.2445    2.0176   -0.3726 O   0  0  0  0  0  0  0  0  0  0  0  0
    2.8950   -2.6638   -0.9970 O   0  0  0  0  0  0  0  0  0  0  0  0
   -1.7357    2.3248   -0.8458 O   0  0  0  0  0  0  0  0  0  0  0  0
   -0.8192    0.2558   -0.3954 N   0  0  0  0  0  0  0  0  0  0  0  0
   -3.1929    0.6606   -0.3376 N   0  0  0  0  0  0  0  0  0  0  0  0
    0.5858   -0.2262    2.8192 N   0  0  0  0  0  0  0  0  0  0  0  0
   -4.6806   -1.0487    0.1857 N   0  0  0  0  0  0  0  0  0  0  0  0
    1.2635    1.1385    0.6707 C   0  0  1  0  0  0  0  0  0  0  0  0
    2.7145    0.8732    0.2996 C   0  0  1  0  0  0  0  0  0  0  0  0
    0.5348    0.6836   -0.5918 C   0  0  1  0  0  0  0  0  0  0  0  0
    2.6531   -0.3065   -0.6714 C   0  0  1  0  0  0  0  0  0  0  0  0
    2.9910   -1.6401   -0.0203 C   0  0  0  0  0  0  0  0  0  0  0  0
    0.8843    0.3749    1.8729 C   0  0  0  0  0  0  0  0  0  0  0  0
   -1.0517   -1.0645   -0.0516 C   0  0  0  0  0  0  0  0  0  0  0  0
   -1.9117    1.1435   -0.5423 C   0  0  0  0  0  0  0  0  0  0  0  0
   -2.2759   -1.5479    0.1507 C   0  0  0  0  0  0  0  0  0  0  0  0
   -3.3994   -0.5889   -0.0134 C   0  0  0  0  0  0  0  0  0  0  0  0
    1.0649    2.2008    0.8559 H   0  0  0  0  0  0  0  0  0  0  0  0
    3.3700    0.6861    1.1562 H   0  0  0  0  0  0  0  0  0  0  0  0
    0.5462    1.4966   -1.3288 H   0  0  0  0  0  0  0  0  0  0  0  0
    3.2964   -0.1516   -1.5454 H   0  0  0  0  0  0  0  0  0  0  0  0
    2.2908   -1.8873    0.7827 H   0  0  0  0  0  0  0  0  0  0  0  0
    4.0095   -1.6319    0.3799 H   0  0  0  0  0  0  0  0  0  0  0  0
    2.7225    2.1715   -1.1780 H   0  0  0  0  0  0  0  0  0  0  0  0
   -0.1988   -1.7231    0.0644 H   0  0  0  0  0  0  0  0  0  0  0  0
    3.1195   -3.5014   -0.5571 H   0  0  0  0  0  0  0  0  0  0  0  0
   -2.4680   -2.5769    0.4236 H   0  0  0  0  0  0  0  0  0  0  0  0
   -4.8732   -2.0125    0.4377 H   0  0  0  0  0  0  0  0  0  0  0  0
   -5.4775   -0.4294    0.0841 H   0  0  0  0  0  0  0  0  0  0  0  0
  1 11  1  0  0  0  0
  1 12  1  0  0  0  0
  2 10  1  0  0  0  0
  2 25  1  0  0  0  0
  3 13  1  0  0  0  0
  3 27  1  0  0  0  0
  4 16  2  0  0  0  0
  5 11  1  0  0  0  0
  5 15  1  0  0  0  0
  5 16  1  0  0  0  0
  6 16  1  0  0  0  0
  6 18  2  0  0  0  0
  7 14  3  0  0  0  0
  8 18  1  0  0  0  0
  8 29  1  0  0  0  0
  8 30  1  0  0  0  0
  9 10  1  0  0  0  0
  9 11  1  0  0  0  0
  9 14  1  0  0  0  0
  9 19  1  0  0  0  0
 10 12  1  0  0  0  0
 10 20  1  0  0  0  0
 11 21  1  0  0  0  0
 12 13  1  0  0  0  0
 12 22  1  0  0  0  0
 13 23  1  0  0  0  0
 13 24  1  0  0  0  0
 15 17  2  0  0  0  0
 15 26  1  0  0  0  0
 17 18  1  0  0  0  0
 17 28  1  0  0  0  0
M  END
> <PUBCHEM_COMPOUND_CID>
119184

> <PUBCHEM_CONFORMER_RMSD>
0.6

> <PUBCHEM_CONFORMER_DIVERSEORDER>
1
8
6
10
4
9
7
2
5
3

> <PUBCHEM_MMFF94_PARTIAL_CHARGES>
24
1 -0.56
10 0.28
11 0.58
12 0.28
13 0.28
14 0.36
15 -0.04
16 0.84
17 -0.14
18 0.49
2 -0.68
25 0.4
26 0.15
27 0.4
28 0.15
29 0.4
3 -0.68
30 0.4
4 -0.57
5 -0.47
6 -0.66
7 -0.56
8 -0.85
9 0.2

> <PUBCHEM_EFFECTIVE_ROTOR_COUNT>
3

> <PUBCHEM_PHARMACOPHORE_FEATURES>
11
1 1 acceptor
1 2 acceptor
1 2 donor
1 3 acceptor
1 3 donor
1 4 acceptor
1 6 donor
1 7 acceptor
1 8 donor
5 1 9 10 11 12 rings
6 5 6 15 16 17 18 rings

> <PUBCHEM_HEAVY_ATOM_COUNT>
18

> <PUBCHEM_ATOM_DEF_STEREO_COUNT>
4

> <PUBCHEM_ATOM_UDEF_STEREO_COUNT>
0

> <PUBCHEM_BOND_DEF_STEREO_COUNT>
0

> <PUBCHEM_BOND_UDEF_STEREO_COUNT>
0

> <PUBCHEM_ISOTOPIC_ATOM_COUNT>
0

> <PUBCHEM_COMPONENT_COUNT>
1

> <PUBCHEM_CACTVS_TAUTO_COUNT>
3

> <PUBCHEM_CONFORMER_ID>
0001D19000000001

> <PUBCHEM_MMFF94_ENERGY>
50.197

> <PUBCHEM_FEATURE_SELFOVERLAP>
55.873

> <PUBCHEM_SHAPE_FINGERPRINT>
12592029 89 18411135879518954880
12932764 1 17417801885548953093
13134695 92 17130123344049153568
14252887 29 18261962967561054179
15219456 202 18341609317322600228
15375462 6 18410012173491211052
16752209 62 17968359170942320735
16945 1 18189062043430034980
17804303 29 18338242544093994535
19049666 15 18200022937297610472
20510252 161 18409728465659254193
20645477 70 18413105056924805263
20671657 53 18198634233206702902
21501502 16 18343308041412988781
22802520 49 18409732833002222983
23402539 116 17678447782924049592
23419403 2 16477920414421851696
23526113 38 17913471455435306164
23559900 14 18410288090790660252
3286 77 17346307207473849543
474 4 16879357933366648860
568465 68 17560512915629679230
7364860 26 18411139168973364716
9709674 26 18408889537654336486

> <PUBCHEM_SHAPE_MULTIPOLES>
327.03
6.21
2.07
1.44
3.83
0.32
1.25
1.61
-0.85
-0.97
-0.61
-0.65
-0.03
0.77

> <PUBCHEM_SHAPE_SELFOVERLAP>
690.585

> <PUBCHEM_SHAPE_VOLUME>
179.4

> <PUBCHEM_COORDINATE_TYPE>
2
5
10

$$$$
