119167
  -OEChem-03292013323D

 26 27  0     1  0  0  0  0  0999 V2000
   -0.7053   -1.6106    1.2517 S   0  0  0  0  0  0  0  0  0  0  0  0
   -4.1409   -0.5185   -0.7034 O   0  0  0  0  0  0  0  0  0  0  0  0
   -2.2724   -0.3025   -1.9909 O   0  0  0  0  0  0  0  0  0  0  0  0
    1.4774    2.1919    0.1745 O   0  0  0  0  0  0  0  0  0  0  0  0
   -0.8174    0.6649    0.0000 N   0  0  0  0  0  0  0  0  0  0  0  0
    2.0685   -1.4080   -0.0285 N   0  0  0  0  0  0  0  0  0  0  0  0
   -2.2134    0.3352    0.3471 C   0  0  1  0  0  0  0  0  0  0  0  0
   -2.2446   -0.6957    1.4719 C   0  0  0  0  0  0  0  0  0  0  0  0
   -2.9283    1.6216    0.7534 C   0  0  0  0  0  0  0  0  0  0  0  0
   -0.0017   -0.2651    0.3812 C   0  0  0  0  0  0  0  0  0  0  0  0
   -2.8436   -0.1889   -0.9166 C   0  0  0  0  0  0  0  0  0  0  0  0
    1.4560   -0.2068    0.1158 C   0  0  0  0  0  0  0  0  0  0  0  0
    2.1258    1.0085    0.0245 C   0  0  0  0  0  0  0  0  0  0  0  0
    3.4931    0.9889   -0.2277 C   0  0  0  0  0  0  0  0  0  0  0  0
    3.3980   -1.3872   -0.2727 C   0  0  0  0  0  0  0  0  0  0  0  0
    4.1489   -0.2277   -0.3805 C   0  0  0  0  0  0  0  0  0  0  0  0
   -2.2108   -0.2187    2.4571 H   0  0  0  0  0  0  0  0  0  0  0  0
   -3.1025   -1.3727    1.4420 H   0  0  0  0  0  0  0  0  0  0  0  0
   -2.9606    2.3371   -0.0769 H   0  0  0  0  0  0  0  0  0  0  0  0
   -3.9611    1.4314    1.0662 H   0  0  0  0  0  0  0  0  0  0  0  0
   -2.4103    2.1134    1.5848 H   0  0  0  0  0  0  0  0  0  0  0  0
   -4.5702   -0.8615   -1.5159 H   0  0  0  0  0  0  0  0  0  0  0  0
    4.0524    1.9169   -0.3063 H   0  0  0  0  0  0  0  0  0  0  0  0
    3.8621   -2.3617   -0.3837 H   0  0  0  0  0  0  0  0  0  0  0  0
    5.2140   -0.2671   -0.5776 H   0  0  0  0  0  0  0  0  0  0  0  0
    0.5496    2.0433    0.4168 H   0  0  0  0  0  0  0  0  0  0  0  0
  1  8  1  0  0  0  0
  1 10  1  0  0  0  0
  2 11  1  0  0  0  0
  2 22  1  0  0  0  0
  3 11  2  0  0  0  0
  4 13  1  0  0  0  0
  4 26  1  0  0  0  0
  5  7  1  0  0  0  0
  5 10  2  0  0  0  0
  6 12  1  0  0  0  0
  6 15  2  0  0  0  0
  7  8  1  0  0  0  0
  7  9  1  0  0  0  0
  7 11  1  0  0  0  0
  8 17  1  0  0  0  0
  8 18  1  0  0  0  0
  9 19  1  0  0  0  0
  9 20  1  0  0  0  0
  9 21  1  0  0  0  0
 10 12  1  0  0  0  0
 12 13  2  0  0  0  0
 13 14  1  0  0  0  0
 14 16  2  0  0  0  0
 14 23  1  0  0  0  0
 15 16  1  0  0  0  0
 15 24  1  0  0  0  0
 16 25  1  0  0  0  0
M  END
> <PUBCHEM_COMPOUND_CID>
119167

> <PUBCHEM_CONFORMER_RMSD>
0.6

> <PUBCHEM_CONFORMER_DIVERSEORDER>
2
3
7
10
11
5
1
9
8
6
4

> <PUBCHEM_MMFF94_PARTIAL_CHARGES>
20
1 -0.37
10 0.5
11 0.66
12 0.4
13 0.08
14 -0.15
15 0.16
16 -0.15
2 -0.65
22 0.5
23 0.15
24 0.15
25 0.15
26 0.45
3 -0.57
4 -0.53
5 -0.7
6 -0.62
7 0.31
8 0.23

> <PUBCHEM_EFFECTIVE_ROTOR_COUNT>
2.6

> <PUBCHEM_PHARMACOPHORE_FEATURES>
8
1 2 acceptor
1 3 acceptor
1 4 donor
1 5 acceptor
1 6 acceptor
3 2 3 11 anion
5 1 5 7 8 10 rings
6 6 12 13 14 15 16 rings

> <PUBCHEM_HEAVY_ATOM_COUNT>
16

> <PUBCHEM_ATOM_DEF_STEREO_COUNT>
1

> <PUBCHEM_ATOM_UDEF_STEREO_COUNT>
0

> <PUBCHEM_BOND_DEF_STEREO_COUNT>
0

> <PUBCHEM_BOND_UDEF_STEREO_COUNT>
0

> <PUBCHEM_ISOTOPIC_ATOM_COUNT>
0

> <PUBCHEM_COMPONENT_COUNT>
1

> <PUBCHEM_CACTVS_TAUTO_COUNT>
4

> <PUBCHEM_CONFORMER_ID>
0001D17F00000002

> <PUBCHEM_MMFF94_ENERGY>
42.0787

> <PUBCHEM_FEATURE_SELFOVERLAP>
40.662

> <PUBCHEM_SHAPE_FINGERPRINT>
10062212 137 18201151040512171939
10608611 8 18261681458087714840
11471102 20 18408606968040700692
12138202 97 17894908585286396426
124424 183 17967530173365976018
12932764 1 17632861936062209928
13024252 1 12540695951094861547
13296908 3 18187094965841537330
13764800 53 15719670961904302197
14144814 61 18409173199085353376
14250199 8 18339361967111143557
14350558 41 16559035978121980510
15219456 202 18188499080797264698
15309172 13 17168150018093753419
16945 1 18339366365431604168
18186145 218 17894638015484636922
18219364 16 17894357669862753297
19422 9 18202284675744597095
200 152 18201999945282993699
20201158 50 18335143085550896610
20279233 1 17821728342774020802
20645477 70 18408887304846361870
21486144 27 18114184163306576284
21639500 275 18339918337501520196
23402539 116 18340484457446566050
23402655 69 18341613672535703700
23493267 7 15068622621848123737
23557571 272 17023473065364751381
23559900 14 18187091638043787906
25 1 18115306665947022379
2748010 2 17975422626612209560
3082319 5 18060135440170914687
3248919 1 18334858333387473664
4175511 318 16660082209005733047
5902787 121 15194988526955710535
6333449 129 18041003972223441539
633830 44 18334867069382615070
69090 78 18333449867461245675
74978 22 18335986453739608842
77492 1 17561370582059782322
7832392 63 18199751340751299897
81228 2 17098639051857769475

> <PUBCHEM_SHAPE_MULTIPOLES>
305.55
7.06
1.67
1.2
1.93
0.2
-0.28
0.22
-1.52
0.47
0.46
-1.24
-0.21
0.11

> <PUBCHEM_SHAPE_SELFOVERLAP>
643.08

> <PUBCHEM_SHAPE_VOLUME>
174.7

> <PUBCHEM_COORDINATE_TYPE>
2
5
10

$$$$
