119290
  -OEChem-03292013323D

 40 42  0     1  0  0  0  0  0999 V2000
    1.5166   -2.1582    0.4708 O   0  0  0  0  0  0  0  0  0  0  0  0
    3.3191    2.2360    0.1464 O   0  0  0  0  0  0  0  0  0  0  0  0
   -1.0136   -2.3921    0.3195 O   0  0  0  0  0  0  0  0  0  0  0  0
   -1.6522    2.8817   -0.2616 O   0  0  0  0  0  0  0  0  0  0  0  0
    5.1834   -0.6096   -3.0608 O   0  0  0  0  0  0  0  0  0  0  0  0
   -3.5367   -2.8009    0.1841 O   0  0  0  0  0  0  0  0  0  0  0  0
    3.8970    0.2196    2.7768 O   0  0  0  0  0  0  0  0  0  0  0  0
   -6.3226    0.9860   -0.3963 O   0  0  0  0  0  0  0  0  0  0  0  0
    3.7867   -0.5425    0.4610 C   0  0  1  0  0  0  0  0  0  0  0  0
    2.4105    0.0240    0.3083 C   0  0  0  0  0  0  0  0  0  0  0  0
    0.0132   -0.2833    0.1754 C   0  0  0  0  0  0  0  0  0  0  0  0
   -0.1542    1.0947    0.0235 C   0  0  0  0  0  0  0  0  0  0  0  0
    1.2988   -0.8190    0.3181 C   0  0  0  0  0  0  0  0  0  0  0  0
    4.7287   -0.2616   -0.7342 C   0  0  0  0  0  0  0  0  0  0  0  0
    2.2435    1.3991    0.1567 C   0  0  0  0  0  0  0  0  0  0  0  0
   -2.5084   -0.6053    0.0331 C   0  0  0  0  0  0  0  0  0  0  0  0
   -1.1578   -1.1837    0.1863 C   0  0  0  0  0  0  0  0  0  0  0  0
   -2.6758    0.7727   -0.1189 C   0  0  0  0  0  0  0  0  0  0  0  0
    0.9641    1.9371    0.0142 C   0  0  0  0  0  0  0  0  0  0  0  0
   -1.5048    1.6731   -0.1289 C   0  0  0  0  0  0  0  0  0  0  0  0
    4.2483   -0.9047   -2.0314 C   0  0  0  0  0  0  0  0  0  0  0  0
    4.4826   -0.0784    1.7403 C   0  0  0  0  0  0  0  0  0  0  0  0
   -3.6265   -1.4479    0.0403 C   0  0  0  0  0  0  0  0  0  0  0  0
   -3.9613    1.3082   -0.2634 C   0  0  0  0  0  0  0  0  0  0  0  0
   -5.0727    0.4649   -0.2554 C   0  0  0  0  0  0  0  0  0  0  0  0
   -4.9057   -0.9101   -0.1039 C   0  0  0  0  0  0  0  0  0  0  0  0
    3.7806   -1.6339    0.5570 H   0  0  0  0  0  0  0  0  0  0  0  0
    4.9012    0.8075   -0.8972 H   0  0  0  0  0  0  0  0  0  0  0  0
    5.7291   -0.6599   -0.5126 H   0  0  0  0  0  0  0  0  0  0  0  0
    0.8451    3.0115   -0.1034 H   0  0  0  0  0  0  0  0  0  0  0  0
    4.1777   -1.9918   -1.9256 H   0  0  0  0  0  0  0  0  0  0  0  0
    3.2743   -0.5109   -2.3362 H   0  0  0  0  0  0  0  0  0  0  0  0
    5.5858   -0.1177    1.7290 H   0  0  0  0  0  0  0  0  0  0  0  0
   -4.1046    2.3794   -0.3825 H   0  0  0  0  0  0  0  0  0  0  0  0
   -5.7752   -1.5632   -0.0986 H   0  0  0  0  0  0  0  0  0  0  0  0
    2.0611   -2.2868    1.2664 H   0  0  0  0  0  0  0  0  0  0  0  0
    3.0105    3.1509    0.0305 H   0  0  0  0  0  0  0  0  0  0  0  0
    4.8564   -1.0328   -3.8729 H   0  0  0  0  0  0  0  0  0  0  0  0
   -2.6129   -3.0769    0.2770 H   0  0  0  0  0  0  0  0  0  0  0  0
   -6.2537    1.9517   -0.4898 H   0  0  0  0  0  0  0  0  0  0  0  0
  1 13  1  0  0  0  0
  1 36  1  0  0  0  0
  2 15  1  0  0  0  0
  2 37  1  0  0  0  0
  3 17  2  0  0  0  0
  4 20  2  0  0  0  0
  5 21  1  0  0  0  0
  5 38  1  0  0  0  0
  6 23  1  0  0  0  0
  6 39  1  0  0  0  0
  7 22  2  0  0  0  0
  8 25  1  0  0  0  0
  8 40  1  0  0  0  0
  9 10  1  0  0  0  0
  9 14  1  0  0  0  0
  9 22  1  0  0  0  0
  9 27  1  0  0  0  0
 10 13  1  0  0  0  0
 10 15  2  0  0  0  0
 11 12  1  0  0  0  0
 11 13  2  0  0  0  0
 11 17  1  0  0  0  0
 12 19  2  0  0  0  0
 12 20  1  0  0  0  0
 14 21  1  0  0  0  0
 14 28  1  0  0  0  0
 14 29  1  0  0  0  0
 15 19  1  0  0  0  0
 16 17  1  0  0  0  0
 16 18  2  0  0  0  0
 16 23  1  0  0  0  0
 18 20  1  0  0  0  0
 18 24  1  0  0  0  0
 19 30  1  0  0  0  0
 21 31  1  0  0  0  0
 21 32  1  0  0  0  0
 22 33  1  0  0  0  0
 23 26  2  0  0  0  0
 24 25  2  0  0  0  0
 24 34  1  0  0  0  0
 25 26  1  0  0  0  0
 26 35  1  0  0  0  0
M  END
> <PUBCHEM_COMPOUND_CID>
119290

> <PUBCHEM_CONFORMER_RMSD>
0.8

> <PUBCHEM_CONFORMER_DIVERSEORDER>
1
6
5
3
2
4

> <PUBCHEM_MMFF94_PARTIAL_CHARGES>
34
1 -0.53
10 -0.14
11 0.09
12 0.09
13 0.08
15 0.08
16 0.09
17 0.4
18 0.09
19 -0.15
2 -0.53
20 0.4
21 0.28
22 0.45
23 0.08
24 -0.15
25 0.08
26 -0.15
3 -0.57
30 0.15
33 0.06
34 0.15
35 0.15
36 0.45
37 0.45
38 0.4
39 0.45
4 -0.57
40 0.45
5 -0.68
6 -0.53
7 -0.57
8 -0.53
9 0.2

> <PUBCHEM_EFFECTIVE_ROTOR_COUNT>
4

> <PUBCHEM_PHARMACOPHORE_FEATURES>
12
1 1 donor
1 2 donor
1 3 acceptor
1 4 acceptor
1 5 acceptor
1 5 donor
1 6 donor
1 7 acceptor
1 8 donor
6 10 11 12 13 15 19 rings
6 11 12 16 17 18 20 rings
6 16 18 23 24 25 26 rings

> <PUBCHEM_HEAVY_ATOM_COUNT>
26

> <PUBCHEM_ATOM_DEF_STEREO_COUNT>
0

> <PUBCHEM_ATOM_UDEF_STEREO_COUNT>
1

> <PUBCHEM_BOND_DEF_STEREO_COUNT>
0

> <PUBCHEM_BOND_UDEF_STEREO_COUNT>
0

> <PUBCHEM_ISOTOPIC_ATOM_COUNT>
0

> <PUBCHEM_COMPONENT_COUNT>
1

> <PUBCHEM_CACTVS_TAUTO_COUNT>
998

> <PUBCHEM_CONFORMER_ID>
0001D1FA00000001

> <PUBCHEM_MMFF94_ENERGY>
80.3216

> <PUBCHEM_FEATURE_SELFOVERLAP>
60.941

> <PUBCHEM_SHAPE_FINGERPRINT>
10554248 39 17459453490902227743
10967382 1 18408880716392364385
11578080 2 17129282428233838731
12011746 2 18411139108727576733
12236239 1 17530963571109206010
12390115 104 18055362344990959625
12553582 1 18408041805915449361
12596602 18 14490478569404779237
12788726 201 18113900399249986417
12954195 1 18127709144318554844
13140716 1 18263913505024864353
13533116 47 16415481536765660438
13675066 3 17988919006919687330
13862211 1 18336254704807498571
14178342 30 18194105327431746352
14790565 3 18335988652726506101
15131766 46 16154288228539298983
15196674 1 18336824299017265489
15238133 3 18040711455096633930
15536298 74 18340766039222712609
1601671 61 18334857195010162974
16752209 62 18335986380814809448
16945 1 18336541638402838328
17349148 13 18113329812791334953
1813 80 17240478100434433893
19591789 44 18337388374167975691
21033648 29 17345734344192500096
21267235 1 18409173233872593251
21307412 95 17916328081192292998
21421861 104 17678724653405864459
2215653 11 18131637759404223303
22182313 1 18130217164996493420
23175994 123 17489871535676158161
23366157 5 17536033264110927171
23402539 116 18341036493793227303
23557571 272 18272374161058939341
23559900 14 18342179998539238996
239999 70 18272931635672869716
3004659 81 18260828211068000980
335352 9 18408880724750158157
3411729 13 18193548090307496816
34797466 226 18202286943455784861
350125 39 18335415759860458528
3680242 22 18261385603396772619
5104073 3 18335697308194187209
59755656 215 18340208496886357367
633830 44 18338792420161542655
6823239 73 18343587339511030898
9709674 26 18266743678183151591

> <PUBCHEM_SHAPE_MULTIPOLES>
488.11
11.71
2.37
1.47
3.21
0.09
0.37
-0.94
2.41
1.4
-0.02
-3.78
-0.31
0.99

> <PUBCHEM_SHAPE_SELFOVERLAP>
1086.602

> <PUBCHEM_SHAPE_VOLUME>
257.1

> <PUBCHEM_COORDINATE_TYPE>
2
5
10

$$$$
