119255
  -OEChem-03292013323D

 45 48  0     1  0  0  0  0  0999 V2000
   -4.2509    0.3819    0.6740 O   0  0  0  0  0  0  0  0  0  0  0  0
   -1.1015   -2.1687    0.2046 O   0  0  0  0  0  0  0  0  0  0  0  0
   -2.8815    2.2248   -0.2313 O   0  0  0  0  0  0  0  0  0  0  0  0
    1.4332   -2.3990    0.2434 O   0  0  0  0  0  0  0  0  0  0  0  0
    2.1051    2.8784   -0.2630 O   0  0  0  0  0  0  0  0  0  0  0  0
    3.9601   -2.8040    0.2985 O   0  0  0  0  0  0  0  0  0  0  0  0
    6.7755    0.9900   -0.0486 O   0  0  0  0  0  0  0  0  0  0  0  0
   -3.3825   -0.5621    0.0342 C   0  0  1  0  0  0  0  0  0  0  0  0
   -3.8973   -0.8961   -1.3709 C   0  0  0  0  0  0  0  0  0  0  0  0
   -5.3374   -1.3956   -1.3094 C   0  0  0  0  0  0  0  0  0  0  0  0
   -6.2077   -0.4216   -0.5220 C   0  0  0  0  0  0  0  0  0  0  0  0
   -5.5813   -0.1189    0.8406 C   0  0  2  0  0  0  0  0  0  0  0  0
   -1.9840    0.0133   -0.0125 C   0  0  0  0  0  0  0  0  0  0  0  0
   -6.3835    0.9364    1.5895 C   0  0  0  0  0  0  0  0  0  0  0  0
   -0.8750   -0.8287    0.0756 C   0  0  0  0  0  0  0  0  0  0  0  0
   -1.8082    1.3893   -0.1444 C   0  0  0  0  0  0  0  0  0  0  0  0
    0.4168   -0.2909    0.0318 C   0  0  0  0  0  0  0  0  0  0  0  0
    0.5931    1.0881   -0.1003 C   0  0  0  0  0  0  0  0  0  0  0  0
   -0.5226    1.9294   -0.1885 C   0  0  0  0  0  0  0  0  0  0  0  0
    1.5852   -1.1898    0.1264 C   0  0  0  0  0  0  0  0  0  0  0  0
    1.9505    1.6689   -0.1475 C   0  0  0  0  0  0  0  0  0  0  0  0
    2.9425   -0.6090    0.0794 C   0  0  0  0  0  0  0  0  0  0  0  0
    3.1188    0.7699   -0.0526 C   0  0  0  0  0  0  0  0  0  0  0  0
    4.0583   -1.4502    0.1689 C   0  0  0  0  0  0  0  0  0  0  0  0
    4.4106    1.3079   -0.0955 C   0  0  0  0  0  0  0  0  0  0  0  0
    5.5197    0.4661   -0.0061 C   0  0  0  0  0  0  0  0  0  0  0  0
    5.3439   -0.9099    0.1258 C   0  0  0  0  0  0  0  0  0  0  0  0
   -3.3948   -1.4554    0.6708 H   0  0  0  0  0  0  0  0  0  0  0  0
   -3.2644   -1.6443   -1.8609 H   0  0  0  0  0  0  0  0  0  0  0  0
   -3.8734    0.0034   -2.0004 H   0  0  0  0  0  0  0  0  0  0  0  0
   -5.3625   -2.3809   -0.8281 H   0  0  0  0  0  0  0  0  0  0  0  0
   -5.7355   -1.5210   -2.3223 H   0  0  0  0  0  0  0  0  0  0  0  0
   -6.2982    0.5064   -1.1010 H   0  0  0  0  0  0  0  0  0  0  0  0
   -7.2156   -0.8337   -0.4004 H   0  0  0  0  0  0  0  0  0  0  0  0
   -5.5433   -1.0287    1.4528 H   0  0  0  0  0  0  0  0  0  0  0  0
   -5.9203    1.1495    2.5590 H   0  0  0  0  0  0  0  0  0  0  0  0
   -6.4017    1.8821    1.0364 H   0  0  0  0  0  0  0  0  0  0  0  0
   -7.4132    0.6079    1.7593 H   0  0  0  0  0  0  0  0  0  0  0  0
   -0.3968    3.0044   -0.2914 H   0  0  0  0  0  0  0  0  0  0  0  0
   -1.9040   -2.4254   -0.2762 H   0  0  0  0  0  0  0  0  0  0  0  0
    4.5607    2.3799   -0.1982 H   0  0  0  0  0  0  0  0  0  0  0  0
   -2.5665    3.1408   -0.3181 H   0  0  0  0  0  0  0  0  0  0  0  0
    6.2115   -1.5618    0.1949 H   0  0  0  0  0  0  0  0  0  0  0  0
    3.0324   -3.0820    0.3155 H   0  0  0  0  0  0  0  0  0  0  0  0
    6.7120    1.9559   -0.1426 H   0  0  0  0  0  0  0  0  0  0  0  0
  1  8  1  0  0  0  0
  1 12  1  0  0  0  0
  2 15  1  0  0  0  0
  2 40  1  0  0  0  0
  3 16  1  0  0  0  0
  3 42  1  0  0  0  0
  4 20  2  0  0  0  0
  5 21  2  0  0  0  0
  6 24  1  0  0  0  0
  6 44  1  0  0  0  0
  7 26  1  0  0  0  0
  7 45  1  0  0  0  0
  8  9  1  0  0  0  0
  8 13  1  0  0  0  0
  8 28  1  0  0  0  0
  9 10  1  0  0  0  0
  9 29  1  0  0  0  0
  9 30  1  0  0  0  0
 10 11  1  0  0  0  0
 10 31  1  0  0  0  0
 10 32  1  0  0  0  0
 11 12  1  0  0  0  0
 11 33  1  0  0  0  0
 11 34  1  0  0  0  0
 12 14  1  0  0  0  0
 12 35  1  0  0  0  0
 13 15  1  0  0  0  0
 13 16  2  0  0  0  0
 14 36  1  0  0  0  0
 14 37  1  0  0  0  0
 14 38  1  0  0  0  0
 15 17  2  0  0  0  0
 16 19  1  0  0  0  0
 17 18  1  0  0  0  0
 17 20  1  0  0  0  0
 18 19  2  0  0  0  0
 18 21  1  0  0  0  0
 19 39  1  0  0  0  0
 20 22  1  0  0  0  0
 21 23  1  0  0  0  0
 22 23  2  0  0  0  0
 22 24  1  0  0  0  0
 23 25  1  0  0  0  0
 24 27  2  0  0  0  0
 25 26  2  0  0  0  0
 25 41  1  0  0  0  0
 26 27  1  0  0  0  0
 27 43  1  0  0  0  0
M  END
> <PUBCHEM_COMPOUND_CID>
119255

> <PUBCHEM_CONFORMER_RMSD>
0.6

> <PUBCHEM_CONFORMER_DIVERSEORDER>
1
2
5
4
3

> <PUBCHEM_MMFF94_PARTIAL_CHARGES>
30
1 -0.56
12 0.28
13 -0.14
15 0.08
16 0.08
17 0.09
18 0.09
19 -0.15
2 -0.53
20 0.4
21 0.4
22 0.09
23 0.09
24 0.08
25 -0.15
26 0.08
27 -0.15
3 -0.53
39 0.15
4 -0.57
40 0.45
41 0.15
42 0.45
43 0.15
44 0.45
45 0.45
5 -0.57
6 -0.53
7 -0.53
8 0.42

> <PUBCHEM_EFFECTIVE_ROTOR_COUNT>
2.2

> <PUBCHEM_PHARMACOPHORE_FEATURES>
11
1 1 acceptor
1 2 donor
1 3 donor
1 4 acceptor
1 5 acceptor
1 6 donor
1 7 donor
6 1 8 9 10 11 12 rings
6 13 15 16 17 18 19 rings
6 17 18 20 21 22 23 rings
6 22 23 24 25 26 27 rings

> <PUBCHEM_HEAVY_ATOM_COUNT>
27

> <PUBCHEM_ATOM_DEF_STEREO_COUNT>
2

> <PUBCHEM_ATOM_UDEF_STEREO_COUNT>
0

> <PUBCHEM_BOND_DEF_STEREO_COUNT>
0

> <PUBCHEM_BOND_UDEF_STEREO_COUNT>
0

> <PUBCHEM_ISOTOPIC_ATOM_COUNT>
0

> <PUBCHEM_COMPONENT_COUNT>
1

> <PUBCHEM_CACTVS_TAUTO_COUNT>
135

> <PUBCHEM_CONFORMER_ID>
0001D1D700000001

> <PUBCHEM_MMFF94_ENERGY>
81.7345

> <PUBCHEM_FEATURE_SELFOVERLAP>
55.865

> <PUBCHEM_SHAPE_FINGERPRINT>
10411042 1 18048878499447754650
10906281 52 18339658805259601702
10967382 1 18408885140345796754
11578080 2 16807556289393425543
12011746 2 18335137613857338222
12107183 9 17694509143686832859
12236239 1 18060702797014073715
12516196 113 18343862238154547601
12596602 18 17275102864138725576
12788726 201 17631745880241762713
12838862 33 18337372938498612412
13140716 1 18192155012504057432
13533116 47 18341611491203968386
13583140 156 16443334412659970347
13862211 1 18409161104515651682
14341114 176 18409454656560415242
14394314 77 18343025488795821329
14617045 38 18409174316135572158
14787075 74 18411417310638637754
14790565 3 18411143532459878529
14849402 71 18269842067443553560
15183329 4 18411694400675330807
15196674 1 18337107857037303364
15927050 60 17693937806000359780
17349148 13 18334009484408859569
17492 89 18121214278132147242
17857418 61 18413105069825095789
18681886 176 17917140714615665226
19319366 153 17967248707090716938
200 152 18343295977155640541
20028762 73 18273208703375702310
20511986 3 18131059434064000345
20612939 158 18336262440101673101
21033648 29 17531510066985056957
21130935 74 18202845452540181202
21236236 1 18410009893354433805
21267235 1 18337397041839168850
21279426 13 18190456065170484021
21315763 178 18343301474407765893
21623969 137 18187375341322581083
21641784 216 17895489033147884540
21792934 111 18265882588674455616
23402539 116 18272086119525756149
23522609 53 18198088982360574617
23559900 14 18265044911269937520
23569914 152 17108993896329295551
23569943 247 18125163740383298826
24771293 8 18200023075612757752
335352 9 18409449227716498165
34797466 226 16056602117885052088
350125 39 18411139113012604889
3545911 37 18335421283652027166
3633792 109 18338504289093078383
4073 2 18115311201712374011
4325135 7 18413668015214459734
4340502 62 16443061708207120626
46194498 28 17313103081496447484
5104073 3 18264765468039475464
5758199 1 18342176708984459624
59755656 215 18407477765087807782
9709674 26 18410016498913895278
9849439 229 15693814731118636561

> <PUBCHEM_SHAPE_MULTIPOLES>
514.56
15.08
2.4
0.9
4.85
0
0
-0.8
-1.17
-1.52
0.07
1.51
-0.06
-1.32

> <PUBCHEM_SHAPE_SELFOVERLAP>
1152.628

> <PUBCHEM_SHAPE_VOLUME>
269.2

> <PUBCHEM_COORDINATE_TYPE>
2
5
10

$$$$
