119212
  -OEChem-03292013323D

 63 64  0     1  0  0  0  0  0999 V2000
   -0.1889    3.1448   -0.5790 S   0  0  0  0  0  0  0  0  0  0  0  0
    4.5801    2.6141   -0.6515 O   0  0  0  0  0  0  0  0  0  0  0  0
    3.7900    1.4036    1.1111 O   0  0  0  0  0  0  0  0  0  0  0  0
   -1.2189   -1.5947   -1.0285 O   0  0  0  0  0  0  0  0  0  0  0  0
   -3.3166    0.4849    1.6518 O   0  0  0  0  0  0  0  0  0  0  0  0
    7.6791   -1.5049    0.1798 O   0  0  0  0  0  0  0  0  0  0  0  0
    6.7174   -2.9551   -1.2795 O   0  0  0  0  0  0  0  0  0  0  0  0
    1.4449    1.0580   -0.2707 N   0  0  0  0  0  0  0  0  0  0  0  0
   -2.2738    0.8625   -0.3882 N   0  0  0  0  0  0  0  0  0  0  0  0
    0.0800   -1.4606    0.8898 N   0  0  0  0  0  0  0  0  0  0  0  0
    1.5261    3.4748   -0.0280 C   0  0  0  0  0  0  0  0  0  0  0  0
    2.2655    2.2348   -0.5674 C   0  0  1  0  0  0  0  0  0  0  0  0
    0.0929    1.3516   -0.7546 C   0  0  1  0  0  0  0  0  0  0  0  0
   -0.9333    0.5614    0.0410 C   0  0  2  0  0  0  0  0  0  0  0  0
    2.0397    4.7660   -0.6652 C   0  0  0  0  0  0  0  0  0  0  0  0
    1.5140    3.5987    1.5023 C   0  0  0  0  0  0  0  0  0  0  0  0
    3.6003    2.0222    0.0744 C   0  0  0  0  0  0  0  0  0  0  0  0
   -0.7129   -0.9369   -0.1217 C   0  0  0  0  0  0  0  0  0  0  0  0
   -3.3694    0.7982    0.4652 C   0  0  0  0  0  0  0  0  0  0  0  0
    0.3988   -2.8662    0.9818 C   0  0  0  0  0  0  0  0  0  0  0  0
    1.6770   -3.1989    0.2204 C   0  0  0  0  0  0  0  0  0  0  0  0
   -4.6561    1.1698   -0.2461 C   0  0  0  0  0  0  0  0  0  0  0  0
    2.9017   -2.4306    0.7228 C   0  0  0  0  0  0  0  0  0  0  0  0
    4.1777   -2.7418   -0.0616 C   0  0  0  0  0  0  0  0  0  0  0  0
   -5.6833    0.0688   -0.2355 C   0  0  0  0  0  0  0  0  0  0  0  0
    5.3647   -1.9395    0.4713 C   0  0  0  0  0  0  0  0  0  0  0  0
   -5.7096   -0.8704   -1.2666 C   0  0  0  0  0  0  0  0  0  0  0  0
   -6.6081   -0.0125    0.8056 C   0  0  0  0  0  0  0  0  0  0  0  0
    6.6267   -2.2069   -0.3162 C   0  0  0  0  0  0  0  0  0  0  0  0
   -6.6610   -1.8905   -1.2568 C   0  0  0  0  0  0  0  0  0  0  0  0
   -7.5593   -1.0328    0.8154 C   0  0  0  0  0  0  0  0  0  0  0  0
   -7.5856   -1.9717   -0.2158 C   0  0  0  0  0  0  0  0  0  0  0  0
    2.4112    2.2888   -1.6563 H   0  0  0  0  0  0  0  0  0  0  0  0
    0.0280    1.1146   -1.8239 H   0  0  0  0  0  0  0  0  0  0  0  0
    1.8142    0.2346   -0.7444 H   0  0  0  0  0  0  0  0  0  0  0  0
   -0.8633    0.8098    1.1094 H   0  0  0  0  0  0  0  0  0  0  0  0
    2.0345    4.7115   -1.7600 H   0  0  0  0  0  0  0  0  0  0  0  0
    3.0697    4.9725   -0.3536 H   0  0  0  0  0  0  0  0  0  0  0  0
    1.4329    5.6298   -0.3693 H   0  0  0  0  0  0  0  0  0  0  0  0
    2.5179    3.8143    1.8854 H   0  0  0  0  0  0  0  0  0  0  0  0
    1.1656    2.6841    1.9955 H   0  0  0  0  0  0  0  0  0  0  0  0
    0.8681    4.4219    1.8312 H   0  0  0  0  0  0  0  0  0  0  0  0
   -2.4206    1.0596   -1.3739 H   0  0  0  0  0  0  0  0  0  0  0  0
    0.4654   -0.8411    1.5966 H   0  0  0  0  0  0  0  0  0  0  0  0
    0.5109   -3.1064    2.0442 H   0  0  0  0  0  0  0  0  0  0  0  0
   -0.4360   -3.4539    0.5854 H   0  0  0  0  0  0  0  0  0  0  0  0
    1.5323   -2.9800   -0.8450 H   0  0  0  0  0  0  0  0  0  0  0  0
    1.8670   -4.2759    0.3008 H   0  0  0  0  0  0  0  0  0  0  0  0
    5.4641    2.4868   -0.2457 H   0  0  0  0  0  0  0  0  0  0  0  0
    2.7161   -1.3535    0.6723 H   0  0  0  0  0  0  0  0  0  0  0  0
    3.0622   -2.6707    1.7814 H   0  0  0  0  0  0  0  0  0  0  0  0
   -4.4671    1.4801   -1.2810 H   0  0  0  0  0  0  0  0  0  0  0  0
   -5.0571    2.0618    0.2522 H   0  0  0  0  0  0  0  0  0  0  0  0
    4.0208   -2.5104   -1.1225 H   0  0  0  0  0  0  0  0  0  0  0  0
    4.3971   -3.8149   -0.0011 H   0  0  0  0  0  0  0  0  0  0  0  0
    5.5515   -2.2033    1.5181 H   0  0  0  0  0  0  0  0  0  0  0  0
    5.1499   -0.8683    0.4044 H   0  0  0  0  0  0  0  0  0  0  0  0
   -4.9925   -0.8186   -2.0816 H   0  0  0  0  0  0  0  0  0  0  0  0
   -6.5968    0.7119    1.6157 H   0  0  0  0  0  0  0  0  0  0  0  0
   -6.6810   -2.6221   -2.0592 H   0  0  0  0  0  0  0  0  0  0  0  0
   -8.2791   -1.0965    1.6263 H   0  0  0  0  0  0  0  0  0  0  0  0
   -8.3260   -2.7663   -0.2078 H   0  0  0  0  0  0  0  0  0  0  0  0
    8.5022   -1.6740   -0.3264 H   0  0  0  0  0  0  0  0  0  0  0  0
  1 11  1  0  0  0  0
  1 13  1  0  0  0  0
  2 17  1  0  0  0  0
  2 49  1  0  0  0  0
  3 17  2  0  0  0  0
  4 18  2  0  0  0  0
  5 19  2  0  0  0  0
  6 29  1  0  0  0  0
  6 63  1  0  0  0  0
  7 29  2  0  0  0  0
  8 12  1  0  0  0  0
  8 13  1  0  0  0  0
  8 35  1  0  0  0  0
  9 14  1  0  0  0  0
  9 19  1  0  0  0  0
  9 43  1  0  0  0  0
 10 18  1  0  0  0  0
 10 20  1  0  0  0  0
 10 44  1  0  0  0  0
 11 12  1  0  0  0  0
 11 15  1  0  0  0  0
 11 16  1  0  0  0  0
 12 17  1  0  0  0  0
 12 33  1  0  0  0  0
 13 14  1  0  0  0  0
 13 34  1  0  0  0  0
 14 18  1  0  0  0  0
 14 36  1  0  0  0  0
 15 37  1  0  0  0  0
 15 38  1  0  0  0  0
 15 39  1  0  0  0  0
 16 40  1  0  0  0  0
 16 41  1  0  0  0  0
 16 42  1  0  0  0  0
 19 22  1  0  0  0  0
 20 21  1  0  0  0  0
 20 45  1  0  0  0  0
 20 46  1  0  0  0  0
 21 23  1  0  0  0  0
 21 47  1  0  0  0  0
 21 48  1  0  0  0  0
 22 25  1  0  0  0  0
 22 52  1  0  0  0  0
 22 53  1  0  0  0  0
 23 24  1  0  0  0  0
 23 50  1  0  0  0  0
 23 51  1  0  0  0  0
 24 26  1  0  0  0  0
 24 54  1  0  0  0  0
 24 55  1  0  0  0  0
 25 27  2  0  0  0  0
 25 28  1  0  0  0  0
 26 29  1  0  0  0  0
 26 56  1  0  0  0  0
 26 57  1  0  0  0  0
 27 30  1  0  0  0  0
 27 58  1  0  0  0  0
 28 31  2  0  0  0  0
 28 59  1  0  0  0  0
 30 32  2  0  0  0  0
 30 60  1  0  0  0  0
 31 32  1  0  0  0  0
 31 61  1  0  0  0  0
 32 62  1  0  0  0  0
M  END
> <PUBCHEM_COMPOUND_CID>
119212

> <PUBCHEM_CONFORMER_RMSD>
1.4

> <PUBCHEM_CONFORMER_DIVERSEORDER>
1
175
102
43
81
78
65
67
112
29
82
215
128
253
40
200
148
57
53
179
234
51
130
149
203
77
92
214
154
75
39
206
127
174
150
28
18
91
217
190
209
37
158
139
122
101
79
225
195
55
212
173
249
103
187
124
133
47
11
259
76
23
61
184
12
41
227
226
192
241
145
236
49
180
36
63
25
105
169
107
245
93
117
86
50
121
138
89
186
250
221
38
22
126
252
202
191
220
222
176
56
132
68
5
108
115
197
142
167
35
74
216
147
211
144
172
231
88
177
42
235
164
6
46
100
251
205
159
208
230
52
120
223
72
170
85
141
239
165
185
153
113
10
59
2
155
244
32
84
90
156
168
229
137
83
19
123
201
213
207
16
9
243
237
3
71
106
8
242
70
199
31
240
27
204
94
15
198
30
183
218
140
20
109
181
24
118
161
157
97
166
224
162
134
136
238
256
99
98
96
255
210
45
189
119
13
129
193
34
188
196
116
110
151
146
248
44
114
17
111
247
62
14
254
125
163
64
219
80
246
178
7
194
73
228
232
182
160
257
33
104
26
143
4
69
258
135
131
152
21
60
66
48
58
171
233
95
54
87

> <PUBCHEM_MMFF94_PARTIAL_CHARGES>
37
1 -0.46
10 -0.73
11 0.23
12 0.33
13 0.5
14 0.36
17 0.66
18 0.57
19 0.57
2 -0.65
20 0.3
22 0.2
25 -0.14
26 0.06
27 -0.15
28 -0.15
29 0.66
3 -0.57
30 -0.15
31 -0.15
32 -0.15
35 0.36
4 -0.57
43 0.37
44 0.37
49 0.5
5 -0.57
58 0.15
59 0.15
6 -0.65
60 0.15
61 0.15
62 0.15
63 0.5
7 -0.57
8 -0.9
9 -0.73

> <PUBCHEM_EFFECTIVE_ROTOR_COUNT>
15

> <PUBCHEM_PHARMACOPHORE_FEATURES>
16
1 10 donor
1 2 acceptor
1 3 acceptor
1 4 acceptor
1 5 acceptor
1 6 acceptor
1 7 acceptor
1 8 cation
1 8 donor
1 9 donor
3 11 15 16 hydrophobe
3 2 3 17 anion
3 6 7 29 anion
4 21 23 24 26 hydrophobe
5 1 8 11 12 13 rings
6 25 27 28 30 31 32 rings

> <PUBCHEM_HEAVY_ATOM_COUNT>
32

> <PUBCHEM_ATOM_DEF_STEREO_COUNT>
0

> <PUBCHEM_ATOM_UDEF_STEREO_COUNT>
3

> <PUBCHEM_BOND_DEF_STEREO_COUNT>
0

> <PUBCHEM_BOND_UDEF_STEREO_COUNT>
0

> <PUBCHEM_ISOTOPIC_ATOM_COUNT>
0

> <PUBCHEM_COMPONENT_COUNT>
1

> <PUBCHEM_CACTVS_TAUTO_COUNT>
4

> <PUBCHEM_CONFORMER_ID>
0001D1AC00000001

> <PUBCHEM_MMFF94_ENERGY>
57.1709

> <PUBCHEM_FEATURE_SELFOVERLAP>
81.312

> <PUBCHEM_SHAPE_FINGERPRINT>
11756154 67 18340207397543800966
12166972 35 18343300366480491689
13533116 47 18341048613948473457
1361 2 18408882953485172818
13617811 41 18113908186774858788
14784336 7 18201718496018526425
14849402 71 18409169947615846557
14955137 171 18271803480359817371
15927050 60 18050851310215744750
16067689 302 18337680818597064607
16991971 28 18341056228757054854
18681886 176 18341323431742109059
20028762 73 18269554013040356973
20721686 56 18334579044791742418
20771845 171 17749963278710996556
21049683 271 18261117361377973836
21344244 246 18337390556026958883
23559900 14 18115030822257973385
24771293 8 18342455907617733218
24771750 20 18189628296751150420
5309563 4 18337107856963554288
6004065 56 18410856568799735330

> <PUBCHEM_SHAPE_MULTIPOLES>
612.24
18.87
5.38
1.15
15.85
3.43
-0.11
-17.06
1.81
-9.01
0.23
0.51
0.02
-0.26

> <PUBCHEM_SHAPE_SELFOVERLAP>
1238.271

> <PUBCHEM_SHAPE_VOLUME>
357.2

> <PUBCHEM_COORDINATE_TYPE>
2
5
10

$$$$
