119392
  -OEChem-03292013323D

 26 27  0     1  0  0  0  0  0999 V2000
    1.3298    1.0562   -0.5008 S   0  0  0  0  0  0  0  0  0  0  0  0
   -1.5415    2.0012   -0.2605 S   0  0  0  0  0  0  0  0  0  0  0  0
    4.9872    1.2589   -0.0098 O   0  0  0  0  0  0  0  0  0  0  0  0
    4.1275   -0.0148    1.6590 O   0  0  0  0  0  0  0  0  0  0  0  0
   -0.8364   -0.4777   -0.1587 N   0  0  0  0  0  0  0  0  0  0  0  0
    4.1049   -1.9518   -0.5577 N   0  0  0  0  0  0  0  0  0  0  0  0
    3.5698   -0.5904   -0.6229 C   0  0  1  0  0  0  0  0  0  0  0  0
    2.0491   -0.6171   -0.4580 C   0  0  0  0  0  0  0  0  0  0  0  0
   -2.7877    0.8294   -0.0432 C   0  0  0  0  0  0  0  0  0  0  0  0
   -2.2156   -0.4461   -0.0132 C   0  0  0  0  0  0  0  0  0  0  0  0
   -0.3805    0.7456   -0.2953 C   0  0  0  0  0  0  0  0  0  0  0  0
   -4.1716    1.0247    0.0910 C   0  0  0  0  0  0  0  0  0  0  0  0
   -3.0609   -1.5639    0.1574 C   0  0  0  0  0  0  0  0  0  0  0  0
    4.2516    0.2211    0.4627 C   0  0  0  0  0  0  0  0  0  0  0  0
   -4.9857   -0.0984    0.2585 C   0  0  0  0  0  0  0  0  0  0  0  0
   -4.4397   -1.3768    0.2915 C   0  0  0  0  0  0  0  0  0  0  0  0
    3.8287   -0.1695   -1.6018 H   0  0  0  0  0  0  0  0  0  0  0  0
    1.5985   -1.2135   -1.2598 H   0  0  0  0  0  0  0  0  0  0  0  0
    1.7769   -1.0773    0.4995 H   0  0  0  0  0  0  0  0  0  0  0  0
   -4.6050    2.0198    0.0661 H   0  0  0  0  0  0  0  0  0  0  0  0
   -2.6449   -2.5670    0.1847 H   0  0  0  0  0  0  0  0  0  0  0  0
    3.8989   -2.3661    0.3505 H   0  0  0  0  0  0  0  0  0  0  0  0
    5.1200   -1.9305   -0.6459 H   0  0  0  0  0  0  0  0  0  0  0  0
   -6.0597    0.0307    0.3642 H   0  0  0  0  0  0  0  0  0  0  0  0
   -5.0885   -2.2385    0.4227 H   0  0  0  0  0  0  0  0  0  0  0  0
    5.4017    1.7736    0.7151 H   0  0  0  0  0  0  0  0  0  0  0  0
  1  8  1  0  0  0  0
  1 11  1  0  0  0  0
  2  9  1  0  0  0  0
  2 11  1  0  0  0  0
  3 14  1  0  0  0  0
  3 26  1  0  0  0  0
  4 14  2  0  0  0  0
  5 10  1  0  0  0  0
  5 11  2  0  0  0  0
  6  7  1  0  0  0  0
  6 22  1  0  0  0  0
  6 23  1  0  0  0  0
  7  8  1  0  0  0  0
  7 14  1  0  0  0  0
  7 17  1  0  0  0  0
  8 18  1  0  0  0  0
  8 19  1  0  0  0  0
  9 10  1  0  0  0  0
  9 12  2  0  0  0  0
 10 13  2  0  0  0  0
 12 15  1  0  0  0  0
 12 20  1  0  0  0  0
 13 16  1  0  0  0  0
 13 21  1  0  0  0  0
 15 16  2  0  0  0  0
 15 24  1  0  0  0  0
 16 25  1  0  0  0  0
M  END
> <PUBCHEM_COMPOUND_CID>
119392

> <PUBCHEM_CONFORMER_RMSD>
0.6

> <PUBCHEM_CONFORMER_DIVERSEORDER>
1
81
57
61
76
73
15
7
17
69
63
64
82
4
2
75
49
58
39
66
68
77
54
13
43
51
11
30
31
78
32
67
27
22
56
72
28
9
24
16
62
70
65
41
44
83
20
5
35
59
48
26
3
18
12
29
36
8
55
40
37
47
6
38
21
33
19
14
25
60
34
10
79
23
50
45
71
42
74
80
52
53
46

> <PUBCHEM_MMFF94_PARTIAL_CHARGES>
23
1 -0.29
10 0.23
11 0.43
12 -0.15
13 -0.15
14 0.66
15 -0.15
16 -0.15
2 -0.08
20 0.15
21 0.15
22 0.36
23 0.36
24 0.15
25 0.15
26 0.5
3 -0.65
4 -0.57
5 -0.57
6 -0.99
7 0.33
8 0.23
9 0.04

> <PUBCHEM_EFFECTIVE_ROTOR_COUNT>
4

> <PUBCHEM_PHARMACOPHORE_FEATURES>
8
1 3 acceptor
1 4 acceptor
1 5 acceptor
1 6 cation
1 6 donor
3 3 4 14 anion
5 2 5 9 10 11 rings
6 9 10 12 13 15 16 rings

> <PUBCHEM_HEAVY_ATOM_COUNT>
16

> <PUBCHEM_ATOM_DEF_STEREO_COUNT>
1

> <PUBCHEM_ATOM_UDEF_STEREO_COUNT>
0

> <PUBCHEM_BOND_DEF_STEREO_COUNT>
0

> <PUBCHEM_BOND_UDEF_STEREO_COUNT>
0

> <PUBCHEM_ISOTOPIC_ATOM_COUNT>
0

> <PUBCHEM_COMPONENT_COUNT>
1

> <PUBCHEM_CACTVS_TAUTO_COUNT>
1

> <PUBCHEM_CONFORMER_ID>
0001D26000000001

> <PUBCHEM_MMFF94_ENERGY>
23.7567

> <PUBCHEM_FEATURE_SELFOVERLAP>
40.725

> <PUBCHEM_SHAPE_FINGERPRINT>
11132069 177 18410295796183431159
13237642 15 18273212019189784768
13533116 47 17489031456957783743
13675066 3 18272652341948714909
14123238 8 18411419531073452068
14252887 29 18130516270634632078
15196674 1 18410858741504476487
15375358 24 18341896281399507407
15880784 105 17418374705316439935
17804303 29 18411423916746855221
17834072 33 18334299815872190764
1813 80 17385448717188812885
18785283 64 17914321627180211896
19141452 34 18343586265722020167
200 152 17989202651493095133
204376 136 15841551881493139709
21065199 12 18272086067917570136
21267235 1 18335433374122381771
21501925 9 18409730689866471932
22485316 2 18411138034632448031
22646028 1 17603584131789755440
22854114 59 17917711301179005884
2297311 6 18341908376106547364
23366157 5 17679589101626965469
23402539 116 18342734110003567517
23557571 272 18270410390437446196
23559900 14 18340770343254417734
239999 70 18342463621558721566
32948 21 9655585123359449864
42 15 18410295804435827084
4214541 1 18410858715740064349
5104073 3 18341615871532287346
5374978 207 18408884036201767024
542803 24 14045744828529634561
573450 72 18040709243093660881
5924683 9 17845927546114914415
67856867 119 18042973266363698116
77779 3 18412547587233140948
9709674 26 18335991934086593566

> <PUBCHEM_SHAPE_MULTIPOLES>
315.27
11.48
1.77
0.84
5.41
0.02
0.19
-2.14
1.82
-0.42
-0.18
0.77
-0.03
0.47

> <PUBCHEM_SHAPE_SELFOVERLAP>
640.424

> <PUBCHEM_SHAPE_VOLUME>
184.6

> <PUBCHEM_COORDINATE_TYPE>
2
5
10

$$$$
