119345
  -OEChem-03292013323D

 41 40  0     1  0  0  0  0  0999 V2000
    3.8283    3.1301   -0.0191 Cl  0  0  0  0  0  0  0  0  0  0  0  0
    1.7265    5.5097   -0.5037 Cl  0  0  0  0  0  0  0  0  0  0  0  0
   -0.4733    3.7274    0.2297 Cl  0  0  0  0  0  0  0  0  0  0  0  0
    1.6442    1.3023    0.6721 S   0  0  0  0  0  0  0  0  0  0  0  0
   -1.6896   -0.6760   -2.2100 O   0  0  0  0  0  0  0  0  0  0  0  0
    1.5575   -2.4814    0.7778 O   0  0  0  0  0  0  0  0  0  0  0  0
   -4.8216   -0.5003    2.2847 O   0  0  0  0  0  0  0  0  0  0  0  0
   -5.9593    1.0081    1.0312 O   0  0  0  0  0  0  0  0  0  0  0  0
    4.6412   -0.6834    0.8997 O   0  0  0  0  0  0  0  0  0  0  0  0
    6.0424   -2.4479    1.1666 O   0  0  0  0  0  0  0  0  0  0  0  0
   -0.4124   -1.0007   -0.2972 N   0  0  0  0  0  0  0  0  0  0  0  0
    3.0975   -1.8656   -0.8445 N   0  0  0  0  0  0  0  0  0  0  0  0
   -6.5757   -0.9996   -0.7540 N   0  0  0  0  0  0  0  0  0  0  0  0
    0.8846   -0.8867   -0.9232 C   0  0  1  0  0  0  0  0  0  0  0  0
   -4.1307   -0.9116   -0.8521 C   0  0  0  0  0  0  0  0  0  0  0  0
   -2.8080   -1.0368   -0.0931 C   0  0  0  0  0  0  0  0  0  0  0  0
   -5.3543   -1.1363    0.0432 C   0  0  1  0  0  0  0  0  0  0  0  0
   -1.6010   -0.8841   -1.0031 C   0  0  0  0  0  0  0  0  0  0  0  0
    1.3828    0.5598   -0.9720 C   0  0  0  0  0  0  0  0  0  0  0  0
    1.8551   -1.8385   -0.2270 C   0  0  0  0  0  0  0  0  0  0  0  0
   -5.4329   -0.0921    1.1422 C   0  0  0  0  0  0  0  0  0  0  0  0
    4.1923   -2.6716   -0.3570 C   0  0  0  0  0  0  0  0  0  0  0  0
    2.1099    2.9050    0.1777 C   0  0  0  0  0  0  0  0  0  0  0  0
    5.0574   -1.9447    0.6401 C   0  0  0  0  0  0  0  0  0  0  0  0
    1.2393    3.9149   -0.0092 C   0  0  0  0  0  0  0  0  0  0  0  0
    0.7836   -1.2436   -1.9569 H   0  0  0  0  0  0  0  0  0  0  0  0
   -4.1432   -1.6376   -1.6759 H   0  0  0  0  0  0  0  0  0  0  0  0
   -4.1788    0.0842   -1.3141 H   0  0  0  0  0  0  0  0  0  0  0  0
   -2.7476   -2.0162    0.3960 H   0  0  0  0  0  0  0  0  0  0  0  0
   -2.7327   -0.2629    0.6790 H   0  0  0  0  0  0  0  0  0  0  0  0
   -5.3373   -2.1362    0.4907 H   0  0  0  0  0  0  0  0  0  0  0  0
   -0.4480   -1.1493    0.7075 H   0  0  0  0  0  0  0  0  0  0  0  0
    2.3231    0.6262   -1.5290 H   0  0  0  0  0  0  0  0  0  0  0  0
    0.6491    1.1717   -1.5096 H   0  0  0  0  0  0  0  0  0  0  0  0
    3.2555   -1.3172   -1.6841 H   0  0  0  0  0  0  0  0  0  0  0  0
   -6.5656   -1.6799   -1.5130 H   0  0  0  0  0  0  0  0  0  0  0  0
   -7.3859   -1.2294   -0.1792 H   0  0  0  0  0  0  0  0  0  0  0  0
    4.8063   -2.9398   -1.2212 H   0  0  0  0  0  0  0  0  0  0  0  0
    3.7947   -3.5733    0.1181 H   0  0  0  0  0  0  0  0  0  0  0  0
   -4.8640    0.1839    2.9864 H   0  0  0  0  0  0  0  0  0  0  0  0
    5.2191   -0.2323    1.5514 H   0  0  0  0  0  0  0  0  0  0  0  0
  1 23  1  0  0  0  0
  2 25  1  0  0  0  0
  3 25  1  0  0  0  0
  4 19  1  0  0  0  0
  4 23  1  0  0  0  0
  5 18  2  0  0  0  0
  6 20  2  0  0  0  0
  7 21  1  0  0  0  0
  7 40  1  0  0  0  0
  8 21  2  0  0  0  0
  9 24  1  0  0  0  0
  9 41  1  0  0  0  0
 10 24  2  0  0  0  0
 11 14  1  0  0  0  0
 11 18  1  0  0  0  0
 11 32  1  0  0  0  0
 12 20  1  0  0  0  0
 12 22  1  0  0  0  0
 12 35  1  0  0  0  0
 13 17  1  0  0  0  0
 13 36  1  0  0  0  0
 13 37  1  0  0  0  0
 14 19  1  0  0  0  0
 14 20  1  0  0  0  0
 14 26  1  0  0  0  0
 15 16  1  0  0  0  0
 15 17  1  0  0  0  0
 15 27  1  0  0  0  0
 15 28  1  0  0  0  0
 16 18  1  0  0  0  0
 16 29  1  0  0  0  0
 16 30  1  0  0  0  0
 17 21  1  0  0  0  0
 17 31  1  0  0  0  0
 19 33  1  0  0  0  0
 19 34  1  0  0  0  0
 22 24  1  0  0  0  0
 22 38  1  0  0  0  0
 22 39  1  0  0  0  0
 23 25  2  0  0  0  0
M  END
> <PUBCHEM_COMPOUND_CID>
119345

> <PUBCHEM_CONFORMER_RMSD>
1

> <PUBCHEM_CONFORMER_DIVERSEORDER>
1
213
254
174
223
248
88
182
44
133
111
60
137
159
200
95
76
33
46
110
91
161
257
123
134
135
261
177
263
59
67
141
90
61
171
104
165
107
140
25
249
136
246
82
18
202
152
86
170
198
197
167
189
116
117
118
238
10
145
131
20
226
54
244
34
166
155
150
84
203
100
109
188
235
49
29
40
192
74
119
262
162
31
259
32
139
172
151
52
16
240
65
146
181
22
220
75
71
228
48
70
227
96
236
241
42
230
51
233
154
94
89
256
8
103
41
232
127
73
184
15
130
126
53
101
253
58
21
237
78
85
92
37
17
218
219
173
120
6
79
243
63
158
124
245
239
69
205
5
138
142
217
7
255
14
112
50
193
185
35
208
108
148
268
216
26
247
24
251
250
72
242
187
153
43
132
125
229
27
106
57
114
99
186
39
77
225
55
128
266
80
144
260
81
194
179
68
195
190
45
214
215
163
183
211
97
147
30
222
62
199
4
2
207
129
143
258
11
265
212
149
105
204
36
113
209
210
47
201
234
180
122
66
157
38
169
23
160
178
191
175
87
83
93
12
56
9
28
221
102
206
176
267
98
115
196
156
164
19
3
231
121
224
168
13
64
252
264

> <PUBCHEM_MMFF94_PARTIAL_CHARGES>
30
1 -0.14
10 -0.57
11 -0.73
12 -0.73
13 -0.99
14 0.36
16 0.06
17 0.33
18 0.57
19 0.23
2 -0.14
20 0.57
21 0.66
22 0.36
23 0.24
24 0.66
25 0.28
3 -0.14
32 0.37
35 0.37
36 0.36
37 0.36
4 -0.33
40 0.5
41 0.5
5 -0.57
6 -0.57
7 -0.65
8 -0.57
9 -0.65

> <PUBCHEM_EFFECTIVE_ROTOR_COUNT>
13

> <PUBCHEM_PHARMACOPHORE_FEATURES>
12
1 10 acceptor
1 11 donor
1 12 donor
1 13 cation
1 13 donor
1 5 acceptor
1 6 acceptor
1 7 acceptor
1 8 acceptor
1 9 acceptor
3 7 8 21 anion
3 9 10 24 anion

> <PUBCHEM_HEAVY_ATOM_COUNT>
25

> <PUBCHEM_ATOM_DEF_STEREO_COUNT>
1

> <PUBCHEM_ATOM_UDEF_STEREO_COUNT>
1

> <PUBCHEM_BOND_DEF_STEREO_COUNT>
0

> <PUBCHEM_BOND_UDEF_STEREO_COUNT>
0

> <PUBCHEM_ISOTOPIC_ATOM_COUNT>
0

> <PUBCHEM_COMPONENT_COUNT>
1

> <PUBCHEM_CACTVS_TAUTO_COUNT>
4

> <PUBCHEM_CONFORMER_ID>
0001D23100000001

> <PUBCHEM_MMFF94_ENERGY>
35.637

> <PUBCHEM_FEATURE_SELFOVERLAP>
61.017

> <PUBCHEM_SHAPE_FINGERPRINT>
10074138 170 17327146885803882194
10688039 33 18337947884158164738
10937287 8 17547007889025812604
12422481 6 18059853917960425496
13590594 115 18338803303645788673
13899415 154 18409173208171504382
14739800 52 17273687857066794889
14849402 71 18337677528277153676
15021287 119 18343295964498014599
17980427 26 18053092115081906180
1813 80 18201164247943036334
18336668 15 17988923336452483257
18785283 64 18264770029115122126
20739085 24 18343022202997301768
21041028 32 18411412878527911020
23559900 14 18336258029360475675
25147074 1 17845078748654770367
373842 8 18340765953635239801
4058900 60 17903932393222336852
474 4 18125159587665855221
5104073 3 18337401542949422115

> <PUBCHEM_SHAPE_MULTIPOLES>
473.79
13.25
5.69
1.34
17.68
9.02
-0.1
-8.28
-4.53
-9.74
0.16
1.15
-0.41
-1.5

> <PUBCHEM_SHAPE_SELFOVERLAP>
894.13

> <PUBCHEM_SHAPE_VOLUME>
293.5

> <PUBCHEM_COORDINATE_TYPE>
2
5
10

$$$$
