119350
  -OEChem-03292013323D

 36 35  0     1  0  0  0  0  0999 V2000
   -2.5723    1.4434   -2.5357 S   0  0  0  0  0  0  0  0  0  0  0  0
   -3.0023   -1.0856    0.1888 O   0  0  0  0  0  0  0  0  0  0  0  0
    0.3935    1.9477    1.2921 O   0  0  0  0  0  0  0  0  0  0  0  0
    3.5052   -1.7247   -1.3298 O   0  0  0  0  0  0  0  0  0  0  0  0
   -4.5021    0.6133    0.5796 O   0  0  0  0  0  0  0  0  0  0  0  0
    4.9097    0.0506   -1.4606 O   0  0  0  0  0  0  0  0  0  0  0  0
   -0.9205    0.4539    0.0931 N   0  0  0  0  0  0  0  0  0  0  0  0
    5.1284    0.0296    1.2870 N   0  0  0  0  0  0  0  0  0  0  0  0
    2.7455    0.4658    0.9310 C   0  0  0  0  0  0  0  0  0  0  0  0
    1.4240   -0.0228    0.3341 C   0  0  0  0  0  0  0  0  0  0  0  0
    3.9041   -0.5078    0.6883 C   0  0  1  0  0  0  0  0  0  0  0  0
   -2.1721    1.1620    0.2308 C   0  0  1  0  0  0  0  0  0  0  0  0
    0.2678    0.9134    0.6422 C   0  0  0  0  0  0  0  0  0  0  0  0
   -2.3718    2.1913   -0.8850 C   0  0  0  0  0  0  0  0  0  0  0  0
   -3.3632    0.2182    0.3528 C   0  0  0  0  0  0  0  0  0  0  0  0
    4.1824   -0.6755   -0.7945 C   0  0  0  0  0  0  0  0  0  0  0  0
   -4.0616   -2.0422    0.2960 C   0  0  0  0  0  0  0  0  0  0  0  0
   -3.4948   -3.4306    0.0899 C   0  0  0  0  0  0  0  0  0  0  0  0
    2.6180    0.6191    2.0109 H   0  0  0  0  0  0  0  0  0  0  0  0
    2.9831    1.4495    0.5030 H   0  0  0  0  0  0  0  0  0  0  0  0
    1.1774   -1.0148    0.7308 H   0  0  0  0  0  0  0  0  0  0  0  0
    1.4989   -0.0989   -0.7563 H   0  0  0  0  0  0  0  0  0  0  0  0
    3.6962   -1.4871    1.1334 H   0  0  0  0  0  0  0  0  0  0  0  0
   -2.1267    1.6986    1.1875 H   0  0  0  0  0  0  0  0  0  0  0  0
   -0.9164   -0.4079   -0.4453 H   0  0  0  0  0  0  0  0  0  0  0  0
   -3.2688    2.7886   -0.6892 H   0  0  0  0  0  0  0  0  0  0  0  0
   -1.5204    2.8788   -0.9298 H   0  0  0  0  0  0  0  0  0  0  0  0
    5.8801   -0.6536    1.1983 H   0  0  0  0  0  0  0  0  0  0  0  0
    4.9874    0.1663    2.2873 H   0  0  0  0  0  0  0  0  0  0  0  0
   -4.8193   -1.8346   -0.4677 H   0  0  0  0  0  0  0  0  0  0  0  0
   -4.5174   -1.9723    1.2899 H   0  0  0  0  0  0  0  0  0  0  0  0
   -2.7235    2.5949   -3.2061 H   0  0  0  0  0  0  0  0  0  0  0  0
   -3.0191   -3.5103   -0.8932 H   0  0  0  0  0  0  0  0  0  0  0  0
   -2.7219   -3.6458    0.8351 H   0  0  0  0  0  0  0  0  0  0  0  0
   -4.2794   -4.1887    0.1654 H   0  0  0  0  0  0  0  0  0  0  0  0
    3.6784   -1.8196   -2.2906 H   0  0  0  0  0  0  0  0  0  0  0  0
  1 14  1  0  0  0  0
  1 32  1  0  0  0  0
  2 15  1  0  0  0  0
  2 17  1  0  0  0  0
  3 13  2  0  0  0  0
  4 16  1  0  0  0  0
  4 36  1  0  0  0  0
  5 15  2  0  0  0  0
  6 16  2  0  0  0  0
  7 12  1  0  0  0  0
  7 13  1  0  0  0  0
  7 25  1  0  0  0  0
  8 11  1  0  0  0  0
  8 28  1  0  0  0  0
  8 29  1  0  0  0  0
  9 10  1  0  0  0  0
  9 11  1  0  0  0  0
  9 19  1  0  0  0  0
  9 20  1  0  0  0  0
 10 13  1  0  0  0  0
 10 21  1  0  0  0  0
 10 22  1  0  0  0  0
 11 16  1  0  0  0  0
 11 23  1  0  0  0  0
 12 14  1  0  0  0  0
 12 15  1  0  0  0  0
 12 24  1  0  0  0  0
 14 26  1  0  0  0  0
 14 27  1  0  0  0  0
 17 18  1  0  0  0  0
 17 30  1  0  0  0  0
 17 31  1  0  0  0  0
 18 33  1  0  0  0  0
 18 34  1  0  0  0  0
 18 35  1  0  0  0  0
M  END
> <PUBCHEM_COMPOUND_CID>
119350

> <PUBCHEM_CONFORMER_RMSD>
0.8

> <PUBCHEM_CONFORMER_DIVERSEORDER>
1
85
176
179
80
112
138
108
141
129
161
115
36
69
32
50
133
68
35
65
75
94
157
91
11
185
73
71
61
159
109
95
45
14
188
130
56
74
55
189
116
60
153
122
52
100
53
86
132
66
82
47
150
191
143
78
152
34
18
154
114
30
46
25
125
117
182
184
192
13
24
127
110
111
39
51
92
183
97
6
146
177
81
5
164
107
160
41
89
190
168
118
169
63
167
126
19
83
147
140
96
99
70
98
166
121
170
123
87
43
178
42
119
103
151
26
38
106
7
156
8
136
28
102
174
40
84
3
29
15
21
88
22
186
180
31
165
93
104
181
37
59
139
76
124
162
12
77
135
148
48
175
90
173
67
149
131
58
44
23
57
187
158
142
163
72
33
17
172
137
62
145
105
27
10
171
101
9
128
20
134
193
54
120
155
144
2
4
64
49
16
79
113

> <PUBCHEM_MMFF94_PARTIAL_CHARGES>
21
1 -0.41
10 0.06
11 0.33
12 0.36
13 0.57
14 0.23
15 0.66
16 0.66
17 0.28
2 -0.43
25 0.37
28 0.36
29 0.36
3 -0.57
32 0.18
36 0.5
4 -0.65
5 -0.57
6 -0.57
7 -0.73
8 -0.99

> <PUBCHEM_EFFECTIVE_ROTOR_COUNT>
10

> <PUBCHEM_PHARMACOPHORE_FEATURES>
8
1 3 acceptor
1 4 acceptor
1 5 acceptor
1 6 acceptor
1 7 donor
1 8 cation
1 8 donor
3 4 6 16 anion

> <PUBCHEM_HEAVY_ATOM_COUNT>
18

> <PUBCHEM_ATOM_DEF_STEREO_COUNT>
2

> <PUBCHEM_ATOM_UDEF_STEREO_COUNT>
0

> <PUBCHEM_BOND_DEF_STEREO_COUNT>
0

> <PUBCHEM_BOND_UDEF_STEREO_COUNT>
0

> <PUBCHEM_ISOTOPIC_ATOM_COUNT>
0

> <PUBCHEM_COMPONENT_COUNT>
1

> <PUBCHEM_CACTVS_TAUTO_COUNT>
2

> <PUBCHEM_CONFORMER_ID>
0001D23600000001

> <PUBCHEM_MMFF94_ENERGY>
20.489

> <PUBCHEM_FEATURE_SELFOVERLAP>
40.656

> <PUBCHEM_SHAPE_FINGERPRINT>
11046707 91 18335699485795197235
11543360 7 17894636946095860848
12670546 177 18261684743837760836
13675066 3 17418372489081439488
13911882 115 17917715738387040658
14251751 93 18041553655049252499
14252887 29 17275103929844418242
14386348 63 18202566163685415378
19433438 15 16950561017890810868
20403669 9 18341049730682603627
20645477 70 16773228484276127916
20693207 138 18339074994729157985
20871999 31 18333453135778013213
21079973 296 18342175574680433858
21421566 26 17894909642243717781
21709351 56 16733539408821869338
21713013 43 18408325479783456004
22620623 9 17968917783084255565
23402539 116 16660358160512011376
23557571 272 18334288747478004092
23559900 14 18343299296986434904
23590187 39 18273501156393588430
238078 22 18340496624471893392
3268164 11 17386001762947707709
5352402 22 17346329223038670854
58051976 100 18408322198560297437
90127 26 16486981665491807808
9981440 41 9583528603079690245

> <PUBCHEM_SHAPE_MULTIPOLES>
334.97
10.91
2.6
1.59
9.31
1.78
0.88
4.4
1.03
-4.49
0.68
0.6
-0.72
1.11

> <PUBCHEM_SHAPE_SELFOVERLAP>
635.603

> <PUBCHEM_SHAPE_VOLUME>
207.3

> <PUBCHEM_COORDINATE_TYPE>
2
5
10

$$$$
