119304
  -OEChem-03292013323D

 58 59  0     1  0  0  0  0  0999 V2000
   -3.6649   -1.4376   -1.8266 O   0  0  0  0  0  0  0  0  0  0  0  0
    0.9021    3.9120    1.5166 O   0  0  0  0  0  0  0  0  0  0  0  0
   -0.7848    2.3162   -2.4339 O   0  0  0  0  0  0  0  0  0  0  0  0
    9.0070   -1.9398   -1.0538 O   0  0  0  0  0  0  0  0  0  0  0  0
    8.0307   -2.5475    0.9042 O   0  0  0  0  0  0  0  0  0  0  0  0
   -0.5796    1.3466   -0.2998 N   0  0  0  0  0  0  0  0  0  0  0  0
    0.1487    3.4262   -0.6232 N   0  0  0  0  0  0  0  0  0  0  0  0
   -4.7412   -1.3017    0.3157 C   0  0  0  0  0  0  0  0  0  0  0  0
   -5.4146   -2.6681    0.1296 C   0  0  0  0  0  0  0  0  0  0  0  0
   -5.6697   -0.1684   -0.1412 C   0  0  0  0  0  0  0  0  0  0  0  0
   -3.4132   -1.2478   -0.4372 C   0  0  2  0  0  0  0  0  0  0  0  0
   -6.7704   -2.7285    0.8296 C   0  0  0  0  0  0  0  0  0  0  0  0
   -7.0250   -0.2329    0.5593 C   0  0  0  0  0  0  0  0  0  0  0  0
   -7.6872   -1.5953    0.3795 C   0  0  0  0  0  0  0  0  0  0  0  0
   -2.7163    0.1025   -0.2323 C   0  0  0  0  0  0  0  0  0  0  0  0
   -1.2175    0.0654   -0.5268 C   0  0  0  0  0  0  0  0  0  0  0  0
   -0.0719    1.7386    1.0039 C   0  0  1  0  0  0  0  0  0  0  0  0
    1.0827    0.8787    1.4929 C   0  0  0  0  0  0  0  0  0  0  0  0
    2.2117    0.8186    0.4631 C   0  0  0  0  0  0  0  0  0  0  0  0
    0.3924    3.1565    0.7005 C   0  0  0  0  0  0  0  0  0  0  0  0
   -0.4427    2.3559   -1.2593 C   0  0  0  0  0  0  0  0  0  0  0  0
    3.3537   -0.0783    0.9454 C   0  0  0  0  0  0  0  0  0  0  0  0
    4.5179   -0.1692   -0.0458 C   0  0  0  0  0  0  0  0  0  0  0  0
    5.7011   -1.0364    0.3938 C   0  0  0  0  0  0  0  0  0  0  0  0
    6.8546   -1.0450   -0.6087 C   0  0  0  0  0  0  0  0  0  0  0  0
    7.9965   -1.9208   -0.1455 C   0  0  0  0  0  0  0  0  0  0  0  0
   -4.5394   -1.1694    1.3878 H   0  0  0  0  0  0  0  0  0  0  0  0
   -5.5622   -2.8833   -0.9360 H   0  0  0  0  0  0  0  0  0  0  0  0
   -4.7687   -3.4604    0.5264 H   0  0  0  0  0  0  0  0  0  0  0  0
   -5.8321   -0.2145   -1.2252 H   0  0  0  0  0  0  0  0  0  0  0  0
   -5.2315    0.8118    0.0754 H   0  0  0  0  0  0  0  0  0  0  0  0
   -2.7692   -2.0657   -0.0928 H   0  0  0  0  0  0  0  0  0  0  0  0
   -7.2485   -3.6930    0.6244 H   0  0  0  0  0  0  0  0  0  0  0  0
   -6.6232   -2.6697    1.9151 H   0  0  0  0  0  0  0  0  0  0  0  0
   -6.8928   -0.0298    1.6293 H   0  0  0  0  0  0  0  0  0  0  0  0
   -7.6819    0.5506    0.1648 H   0  0  0  0  0  0  0  0  0  0  0  0
   -7.9503   -1.7364   -0.6761 H   0  0  0  0  0  0  0  0  0  0  0  0
   -8.6226   -1.6291    0.9492 H   0  0  0  0  0  0  0  0  0  0  0  0
   -2.8444    0.4302    0.8071 H   0  0  0  0  0  0  0  0  0  0  0  0
   -3.1690    0.8683   -0.8749 H   0  0  0  0  0  0  0  0  0  0  0  0
   -1.0665   -0.1957   -1.5804 H   0  0  0  0  0  0  0  0  0  0  0  0
   -0.7189   -0.7004    0.0744 H   0  0  0  0  0  0  0  0  0  0  0  0
   -0.9003    1.7723    1.7184 H   0  0  0  0  0  0  0  0  0  0  0  0
    1.4715    1.2876    2.4338 H   0  0  0  0  0  0  0  0  0  0  0  0
    0.7300   -0.1356    1.7121 H   0  0  0  0  0  0  0  0  0  0  0  0
   -2.8066   -1.4694   -2.2815 H   0  0  0  0  0  0  0  0  0  0  0  0
    2.6141    1.8195    0.2703 H   0  0  0  0  0  0  0  0  0  0  0  0
    1.8464    0.4247   -0.4920 H   0  0  0  0  0  0  0  0  0  0  0  0
    2.9690   -1.0881    1.1342 H   0  0  0  0  0  0  0  0  0  0  0  0
    3.7320    0.3004    1.9029 H   0  0  0  0  0  0  0  0  0  0  0  0
    0.3692    4.3058   -1.0758 H   0  0  0  0  0  0  0  0  0  0  0  0
    4.8849    0.8458   -0.2452 H   0  0  0  0  0  0  0  0  0  0  0  0
    4.1379   -0.5529   -1.0012 H   0  0  0  0  0  0  0  0  0  0  0  0
    6.0665   -0.6768    1.3642 H   0  0  0  0  0  0  0  0  0  0  0  0
    5.3496   -2.0629    0.5584 H   0  0  0  0  0  0  0  0  0  0  0  0
    7.2367   -0.0272   -0.7430 H   0  0  0  0  0  0  0  0  0  0  0  0
    6.5017   -1.4251   -1.5735 H   0  0  0  0  0  0  0  0  0  0  0  0
    9.7507   -2.5086   -0.7611 H   0  0  0  0  0  0  0  0  0  0  0  0
  1 11  1  0  0  0  0
  1 46  1  0  0  0  0
  2 20  2  0  0  0  0
  3 21  2  0  0  0  0
  4 26  1  0  0  0  0
  4 58  1  0  0  0  0
  5 26  2  0  0  0  0
  6 16  1  0  0  0  0
  6 17  1  0  0  0  0
  6 21  1  0  0  0  0
  7 20  1  0  0  0  0
  7 21  1  0  0  0  0
  7 51  1  0  0  0  0
  8  9  1  0  0  0  0
  8 10  1  0  0  0  0
  8 11  1  0  0  0  0
  8 27  1  0  0  0  0
  9 12  1  0  0  0  0
  9 28  1  0  0  0  0
  9 29  1  0  0  0  0
 10 13  1  0  0  0  0
 10 30  1  0  0  0  0
 10 31  1  0  0  0  0
 11 15  1  0  0  0  0
 11 32  1  0  0  0  0
 12 14  1  0  0  0  0
 12 33  1  0  0  0  0
 12 34  1  0  0  0  0
 13 14  1  0  0  0  0
 13 35  1  0  0  0  0
 13 36  1  0  0  0  0
 14 37  1  0  0  0  0
 14 38  1  0  0  0  0
 15 16  1  0  0  0  0
 15 39  1  0  0  0  0
 15 40  1  0  0  0  0
 16 41  1  0  0  0  0
 16 42  1  0  0  0  0
 17 18  1  0  0  0  0
 17 20  1  0  0  0  0
 17 43  1  0  0  0  0
 18 19  1  0  0  0  0
 18 44  1  0  0  0  0
 18 45  1  0  0  0  0
 19 22  1  0  0  0  0
 19 47  1  0  0  0  0
 19 48  1  0  0  0  0
 22 23  1  0  0  0  0
 22 49  1  0  0  0  0
 22 50  1  0  0  0  0
 23 24  1  0  0  0  0
 23 52  1  0  0  0  0
 23 53  1  0  0  0  0
 24 25  1  0  0  0  0
 24 54  1  0  0  0  0
 24 55  1  0  0  0  0
 25 26  1  0  0  0  0
 25 56  1  0  0  0  0
 25 57  1  0  0  0  0
M  END
> <PUBCHEM_COMPOUND_CID>
119304

> <PUBCHEM_CONFORMER_RMSD>
1.4

> <PUBCHEM_CONFORMER_DIVERSEORDER>
1
84
74
35
53
46
39
26
27
69
30
87
7
32
57
25
83
28
43
75
51
81
48
31
63
37
14
21
12
45
59
11
38
82
73
54
86
58
44
52
3
41
50
6
85
89
67
22
71
8
47
64
49
24
17
42
29
78
56
4
60
76
61
36
79
65
68
2
16
66
40
18
62
5
19
88
23
80
15
33
9
34
77
70
72
20
55
10
13

> <PUBCHEM_MMFF94_PARTIAL_CHARGES>
17
1 -0.68
11 0.28
16 0.3
17 0.36
2 -0.57
20 0.57
21 0.69
25 0.06
26 0.66
3 -0.57
4 -0.65
46 0.4
5 -0.57
51 0.37
58 0.5
6 -0.66
7 -0.49

> <PUBCHEM_EFFECTIVE_ROTOR_COUNT>
12.8

> <PUBCHEM_PHARMACOPHORE_FEATURES>
12
1 1 acceptor
1 1 donor
1 2 acceptor
1 3 acceptor
1 4 acceptor
1 5 acceptor
1 7 donor
3 18 19 22 hydrophobe
3 23 24 25 hydrophobe
3 4 5 26 anion
5 6 7 17 20 21 rings
6 8 9 10 12 13 14 rings

> <PUBCHEM_HEAVY_ATOM_COUNT>
26

> <PUBCHEM_ATOM_DEF_STEREO_COUNT>
0

> <PUBCHEM_ATOM_UDEF_STEREO_COUNT>
2

> <PUBCHEM_BOND_DEF_STEREO_COUNT>
0

> <PUBCHEM_BOND_UDEF_STEREO_COUNT>
0

> <PUBCHEM_ISOTOPIC_ATOM_COUNT>
0

> <PUBCHEM_COMPONENT_COUNT>
1

> <PUBCHEM_CACTVS_TAUTO_COUNT>
3

> <PUBCHEM_CONFORMER_ID>
0001D20800000001

> <PUBCHEM_MMFF94_ENERGY>
29.8145

> <PUBCHEM_FEATURE_SELFOVERLAP>
60.955

> <PUBCHEM_SHAPE_FINGERPRINT>
12592606 108 18341328981314511439
13631057 29 18334575690781077802
13673619 4 18201998816239312736
13690498 29 18040990735482193725
14068700 675 18333735693862254564
14251764 30 18334853935151253251
14420673 8 18409730694800262307
16120349 189 9151167671542987930
18643901 69 18409735023863098022
20567600 254 9583525321244140537
20771845 65 18272374212689049896
21267235 1 18410294713582790186
21365058 113 17604149337139416069
21403212 168 12895356568743468428
23559900 14 17970347242816192907
23569917 315 18265898150602868567
393628 179 11314311685164958606
393628 194 8069746342422898398
4107672 100 17677043539166679405
437815 12 18410857680863748035
5219985 9 18411421708848704984
54039377 194 18411422804661861006
5470011 282 17822014216420189902
54728670 133 15984268392021019993
6327066 14 8934998170625995002
636775 8 18341620279271799022

> <PUBCHEM_SHAPE_MULTIPOLES>
495.76
23.62
3.91
1.37
25.3
2.87
-0.41
-32.45
0.68
1.23
0.31
0.11
0.73
1.14

> <PUBCHEM_SHAPE_SELFOVERLAP>
992.678

> <PUBCHEM_SHAPE_VOLUME>
290.4

> <PUBCHEM_COORDINATE_TYPE>
2
5
10

$$$$
