119330
  -OEChem-03292013323D

 57 60  0     0  0  0  0  0  0999 V2000
    2.2766   -2.4353   -0.4226 O   0  0  0  0  0  0  0  0  0  0  0  0
   -7.6896    4.7713   -1.5738 O   0  0  0  0  0  0  0  0  0  0  0  0
    9.6366    2.6852   -0.4328 O   0  0  0  0  0  0  0  0  0  0  0  0
   -2.6040    0.2040    0.8491 N   0  0  0  0  0  0  0  0  0  0  0  0
   -2.8908   -1.1075    0.6293 N   0  0  0  0  0  0  0  0  0  0  0  0
    2.8558    0.2926    0.0356 N   0  0  0  0  0  0  0  0  0  0  0  0
   -5.3953    2.6299    0.3482 N   0  0  0  0  0  0  0  0  0  0  0  0
    6.0054    2.2269   -0.0484 N   0  0  0  0  0  0  0  0  0  0  0  0
   -0.6904   -0.6742    0.3814 C   0  0  0  0  0  0  0  0  0  0  0  0
   -1.2779    0.5227    0.7112 C   0  0  0  0  0  0  0  0  0  0  0  0
    0.6702   -0.8051    0.1479 C   0  0  0  0  0  0  0  0  0  0  0  0
   -1.6988   -1.6396    0.3407 C   0  0  0  0  0  0  0  0  0  0  0  0
   -1.3343   -3.0052    0.0100 C   0  0  0  0  0  0  0  0  0  0  0  0
    1.4635    0.3329    0.2553 C   0  0  0  0  0  0  0  0  0  0  0  0
   -3.6743    1.1105    1.1942 C   0  0  0  0  0  0  0  0  0  0  0  0
    0.0424   -3.2754   -0.2541 C   0  0  0  0  0  0  0  0  0  0  0  0
    1.1015   -2.1832   -0.1949 C   0  0  0  0  0  0  0  0  0  0  0  0
   -0.5223    1.6883    0.8302 C   0  0  0  0  0  0  0  0  0  0  0  0
    0.8647    1.5607    0.5931 C   0  0  0  0  0  0  0  0  0  0  0  0
   -4.3056    1.7441   -0.0421 C   0  0  0  0  0  0  0  0  0  0  0  0
   -2.2759   -4.0327   -0.0549 C   0  0  0  0  0  0  0  0  0  0  0  0
    0.4386   -4.5752   -0.5774 C   0  0  0  0  0  0  0  0  0  0  0  0
    3.6928    1.4477    0.1405 C   0  0  0  0  0  0  0  0  0  0  0  0
    5.1409    1.0559   -0.1241 C   0  0  0  0  0  0  0  0  0  0  0  0
   -1.8610   -5.3250   -0.3795 C   0  0  0  0  0  0  0  0  0  0  0  0
   -0.5145   -5.5941   -0.6387 C   0  0  0  0  0  0  0  0  0  0  0  0
   -6.0171    3.2358   -0.8210 C   0  0  0  0  0  0  0  0  0  0  0  0
    7.3921    1.8675   -0.3101 C   0  0  0  0  0  0  0  0  0  0  0  0
   -7.1239    4.1918   -0.4054 C   0  0  0  0  0  0  0  0  0  0  0  0
    8.2947    3.0847   -0.1869 C   0  0  0  0  0  0  0  0  0  0  0  0
   -4.4168    0.5408    1.7668 H   0  0  0  0  0  0  0  0  0  0  0  0
   -3.2648    1.8741    1.8658 H   0  0  0  0  0  0  0  0  0  0  0  0
   -0.9651    2.6432    1.0874 H   0  0  0  0  0  0  0  0  0  0  0  0
    1.4476    2.4743    0.6858 H   0  0  0  0  0  0  0  0  0  0  0  0
   -4.6823    0.9531   -0.7028 H   0  0  0  0  0  0  0  0  0  0  0  0
   -3.5423    2.3006   -0.6005 H   0  0  0  0  0  0  0  0  0  0  0  0
    3.2637   -0.6021   -0.2109 H   0  0  0  0  0  0  0  0  0  0  0  0
   -3.3285   -3.8486    0.1421 H   0  0  0  0  0  0  0  0  0  0  0  0
    3.6216    1.8831    1.1453 H   0  0  0  0  0  0  0  0  0  0  0  0
    3.3876    2.2076   -0.5900 H   0  0  0  0  0  0  0  0  0  0  0  0
    1.4774   -4.8163   -0.7844 H   0  0  0  0  0  0  0  0  0  0  0  0
    5.4552    0.3009    0.6079 H   0  0  0  0  0  0  0  0  0  0  0  0
    5.2159    0.5986   -1.1189 H   0  0  0  0  0  0  0  0  0  0  0  0
   -5.0408    3.3582    0.9676 H   0  0  0  0  0  0  0  0  0  0  0  0
   -2.5905   -6.1287   -0.4313 H   0  0  0  0  0  0  0  0  0  0  0  0
   -0.2066   -6.6054   -0.8902 H   0  0  0  0  0  0  0  0  0  0  0  0
   -5.2774    3.7847   -1.4177 H   0  0  0  0  0  0  0  0  0  0  0  0
   -6.4393    2.4650   -1.4777 H   0  0  0  0  0  0  0  0  0  0  0  0
    5.9273    2.6530    0.8747 H   0  0  0  0  0  0  0  0  0  0  0  0
    7.4988    1.4447   -1.3169 H   0  0  0  0  0  0  0  0  0  0  0  0
    7.7359    1.0964    0.3910 H   0  0  0  0  0  0  0  0  0  0  0  0
   -6.7341    4.9983    0.2248 H   0  0  0  0  0  0  0  0  0  0  0  0
   -7.9151    3.6660    0.1396 H   0  0  0  0  0  0  0  0  0  0  0  0
    8.0216    3.8535   -0.9175 H   0  0  0  0  0  0  0  0  0  0  0  0
    8.2424    3.5157    0.8186 H   0  0  0  0  0  0  0  0  0  0  0  0
   -8.3926    5.3758   -1.2805 H   0  0  0  0  0  0  0  0  0  0  0  0
   10.1906    3.4799   -0.3485 H   0  0  0  0  0  0  0  0  0  0  0  0
  1 17  2  0  0  0  0
  2 29  1  0  0  0  0
  2 56  1  0  0  0  0
  3 30  1  0  0  0  0
  3 57  1  0  0  0  0
  4  5  1  0  0  0  0
  4 10  1  0  0  0  0
  4 15  1  0  0  0  0
  5 12  2  0  0  0  0
  6 14  1  0  0  0  0
  6 23  1  0  0  0  0
  6 37  1  0  0  0  0
  7 20  1  0  0  0  0
  7 27  1  0  0  0  0
  7 44  1  0  0  0  0
  8 24  1  0  0  0  0
  8 28  1  0  0  0  0
  8 49  1  0  0  0  0
  9 10  2  0  0  0  0
  9 11  1  0  0  0  0
  9 12  1  0  0  0  0
 10 18  1  0  0  0  0
 11 14  2  0  0  0  0
 11 17  1  0  0  0  0
 12 13  1  0  0  0  0
 13 16  1  0  0  0  0
 13 21  2  0  0  0  0
 14 19  1  0  0  0  0
 15 20  1  0  0  0  0
 15 31  1  0  0  0  0
 15 32  1  0  0  0  0
 16 17  1  0  0  0  0
 16 22  2  0  0  0  0
 18 19  2  0  0  0  0
 18 33  1  0  0  0  0
 19 34  1  0  0  0  0
 20 35  1  0  0  0  0
 20 36  1  0  0  0  0
 21 25  1  0  0  0  0
 21 38  1  0  0  0  0
 22 26  1  0  0  0  0
 22 41  1  0  0  0  0
 23 24  1  0  0  0  0
 23 39  1  0  0  0  0
 23 40  1  0  0  0  0
 24 42  1  0  0  0  0
 24 43  1  0  0  0  0
 25 26  2  0  0  0  0
 25 45  1  0  0  0  0
 26 46  1  0  0  0  0
 27 29  1  0  0  0  0
 27 47  1  0  0  0  0
 27 48  1  0  0  0  0
 28 30  1  0  0  0  0
 28 50  1  0  0  0  0
 28 51  1  0  0  0  0
 29 52  1  0  0  0  0
 29 53  1  0  0  0  0
 30 54  1  0  0  0  0
 30 55  1  0  0  0  0
M  END
> <PUBCHEM_COMPOUND_CID>
119330

> <PUBCHEM_CONFORMER_RMSD>
1

> <PUBCHEM_CONFORMER_DIVERSEORDER>
1
13
17
23
31
16
25
32
34
28
8
37
10
30
11
18
27
29
9
35
12
4
19
26
36
33
21
15
6
7
14
24
2
5
20
22
3

> <PUBCHEM_MMFF94_PARTIAL_CHARGES>
40
1 -0.57
10 -0.15
11 0.09
12 0.23
13 0.05
14 0.1
15 0.26
16 0.09
17 0.4
18 -0.15
19 -0.15
2 -0.68
20 0.27
21 -0.15
22 -0.15
23 0.37
24 0.27
25 -0.15
26 -0.15
27 0.27
28 0.27
29 0.28
3 -0.68
30 0.28
33 0.15
34 0.15
37 0.4
38 0.15
4 0.31
41 0.15
44 0.36
45 0.15
46 0.15
49 0.36
5 -0.71
56 0.4
57 0.4
6 -0.87
7 -0.9
8 -0.9

> <PUBCHEM_EFFECTIVE_ROTOR_COUNT>
11

> <PUBCHEM_PHARMACOPHORE_FEATURES>
16
1 1 acceptor
1 2 acceptor
1 2 donor
1 3 acceptor
1 3 donor
1 5 acceptor
1 6 cation
1 6 donor
1 7 cation
1 7 donor
1 8 cation
1 8 donor
5 4 5 9 10 12 rings
6 13 16 21 22 25 26 rings
6 9 10 11 14 18 19 rings
6 9 11 12 13 16 17 rings

> <PUBCHEM_HEAVY_ATOM_COUNT>
30

> <PUBCHEM_ATOM_DEF_STEREO_COUNT>
0

> <PUBCHEM_ATOM_UDEF_STEREO_COUNT>
0

> <PUBCHEM_BOND_DEF_STEREO_COUNT>
0

> <PUBCHEM_BOND_UDEF_STEREO_COUNT>
0

> <PUBCHEM_ISOTOPIC_ATOM_COUNT>
0

> <PUBCHEM_COMPONENT_COUNT>
1

> <PUBCHEM_CACTVS_TAUTO_COUNT>
3

> <PUBCHEM_CONFORMER_ID>
0001D22200000001

> <PUBCHEM_MMFF94_ENERGY>
65.9482

> <PUBCHEM_FEATURE_SELFOVERLAP>
81.458

> <PUBCHEM_SHAPE_FINGERPRINT>
10411042 1 17477206493180715122
10675989 125 18051136895586907913
10693767 8 17339275611798653639
10940486 97 18191874628819117188
11135609 187 18411698747467610137
11297750 10 17626382690112260545
12293681 160 17917712370605284185
13140716 1 18197798634102516187
13165054 146 18260540164833695333
13248334 5 17906734704800927811
13540713 4 18044957692553602091
138480 1 17475806350895033291
14117953 113 18195807363115733294
14790565 3 18198358255534741650
15042514 8 17837779189331100394
15152005 290 18409728456420720141
15230672 131 18411421718488627082
15324884 4 18046944569277091835
15439362 3 18339081480382872174
15475509 35 13324290228706197663
15927050 60 18342462551553312566
16087824 20 18196938984479040875
16990366 60 9871165268226892989
17899979 129 18196373615857203377
19427546 20 18267026244487639888
20505436 4 18113050533054798128
20554085 129 18058709330809134088
21792965 326 17896859021022089261
23516275 100 17751632153170225181
23522609 53 17605284068111338708
23559900 14 17906457628424584115
3103668 31 18195240255797883335
4409770 3 18268147750406114107
46194498 28 17608944075794355493
504843 32 18409730690061813003
563151 97 18411692180556969111
6058803 2 15895613017465458287
6327066 14 18408885122470303508
77188 2 17186442343942890151

> <PUBCHEM_SHAPE_MULTIPOLES>
574.87
17.87
8.28
0.89
31.27
8.45
0.03
-42.68
5.76
-10.77
3.11
-0.95
-0.44
1.71

> <PUBCHEM_SHAPE_SELFOVERLAP>
1235.961

> <PUBCHEM_SHAPE_VOLUME>
319.2

> <PUBCHEM_COORDINATE_TYPE>
2
5
10

$$$$
