119474
  -OEChem-03292013323D

 31 31  0     1  0  0  0  0  0999 V2000
    0.1154   -0.6705    0.8288 S   0  0  0  0  0  0  0  0  0  0  0  0
   -3.3746   -2.0733    0.6813 O   0  0  0  0  0  0  0  0  0  0  0  0
   -2.2933   -2.7175   -1.2045 O   0  0  0  0  0  0  0  0  0  0  0  0
    2.5332   -2.5335    0.6093 O   0  0  0  0  0  0  0  0  0  0  0  0
    3.7153    2.7428   -0.4714 O   0  0  0  0  0  0  0  0  0  0  0  0
   -3.3121    2.3242   -0.9694 O   0  0  0  0  0  0  0  0  0  0  0  0
   -2.9209    0.4663    0.3785 N   0  0  0  0  0  0  0  0  0  0  0  0
   -2.2835   -0.3666   -0.6104 C   0  0  1  0  0  0  0  0  0  0  0  0
   -0.7722   -0.1306   -0.6700 C   0  0  0  0  0  0  0  0  0  0  0  0
    1.8004   -0.2490    0.4046 C   0  0  0  0  0  0  0  0  0  0  0  0
   -2.6327   -1.8342   -0.4265 C   0  0  0  0  0  0  0  0  0  0  0  0
    2.7980   -1.2219    0.3462 C   0  0  0  0  0  0  0  0  0  0  0  0
    2.1079    1.0834    0.1298 C   0  0  0  0  0  0  0  0  0  0  0  0
   -3.3824    1.7461    0.1120 C   0  0  0  0  0  0  0  0  0  0  0  0
    3.4139    1.4429   -0.2032 C   0  0  0  0  0  0  0  0  0  0  0  0
    4.1039   -0.8623    0.0133 C   0  0  0  0  0  0  0  0  0  0  0  0
    4.4118    0.4700   -0.2615 C   0  0  0  0  0  0  0  0  0  0  0  0
   -4.0281    2.3838    1.3130 C   0  0  0  0  0  0  0  0  0  0  0  0
   -2.7117   -0.0839   -1.5811 H   0  0  0  0  0  0  0  0  0  0  0  0
   -0.5798    0.9341   -0.8383 H   0  0  0  0  0  0  0  0  0  0  0  0
   -0.3504   -0.6816   -1.5183 H   0  0  0  0  0  0  0  0  0  0  0  0
   -3.0224    0.0943    1.3187 H   0  0  0  0  0  0  0  0  0  0  0  0
    1.3425    1.8542    0.1842 H   0  0  0  0  0  0  0  0  0  0  0  0
    4.8925   -1.6085   -0.0361 H   0  0  0  0  0  0  0  0  0  0  0  0
    5.4310    0.7441   -0.5203 H   0  0  0  0  0  0  0  0  0  0  0  0
   -4.2100    3.4436    1.1146 H   0  0  0  0  0  0  0  0  0  0  0  0
   -4.9799    1.8880    1.5220 H   0  0  0  0  0  0  0  0  0  0  0  0
   -3.3728    2.2979    2.1845 H   0  0  0  0  0  0  0  0  0  0  0  0
   -3.5943   -3.0245    0.7775 H   0  0  0  0  0  0  0  0  0  0  0  0
    3.3518   -3.0505    0.5169 H   0  0  0  0  0  0  0  0  0  0  0  0
    2.9081    3.2786   -0.3861 H   0  0  0  0  0  0  0  0  0  0  0  0
  1  9  1  0  0  0  0
  1 10  1  0  0  0  0
  2 11  1  0  0  0  0
  2 29  1  0  0  0  0
  3 11  2  0  0  0  0
  4 12  1  0  0  0  0
  4 30  1  0  0  0  0
  5 15  1  0  0  0  0
  5 31  1  0  0  0  0
  6 14  2  0  0  0  0
  7  8  1  0  0  0  0
  7 14  1  0  0  0  0
  7 22  1  0  0  0  0
  8  9  1  0  0  0  0
  8 11  1  0  0  0  0
  8 19  1  0  0  0  0
  9 20  1  0  0  0  0
  9 21  1  0  0  0  0
 10 12  2  0  0  0  0
 10 13  1  0  0  0  0
 12 16  1  0  0  0  0
 13 15  2  0  0  0  0
 13 23  1  0  0  0  0
 14 18  1  0  0  0  0
 15 17  1  0  0  0  0
 16 17  2  0  0  0  0
 16 24  1  0  0  0  0
 17 25  1  0  0  0  0
 18 26  1  0  0  0  0
 18 27  1  0  0  0  0
 18 28  1  0  0  0  0
M  END
> <PUBCHEM_COMPOUND_CID>
119474

> <PUBCHEM_CONFORMER_RMSD>
0.8

> <PUBCHEM_CONFORMER_DIVERSEORDER>
1
66
56
41
95
60
61
33
102
85
70
58
93
17
74
44
89
15
47
53
97
35
23
57
100
29
92
75
10
84
30
72
112
4
3
54
11
80
108
8
38
63
104
71
62
40
55
91
20
73
13
99
31
45
87
88
65
12
64
36
27
67
76
111
6
59
107
32
43
69
103
22
50
25
14
90
106
77
18
24
26
48
16
96
109
83
5
34
51
78
86
82
21
37
110
46
81
68
49
7
94
42
28
39
79
2
52
19
101
98
105
9

> <PUBCHEM_MMFF94_PARTIAL_CHARGES>
25
1 -0.33
10 0.1
11 0.66
12 0.08
13 -0.15
14 0.57
15 0.08
16 -0.15
17 -0.15
18 0.06
2 -0.65
22 0.37
23 0.15
24 0.15
25 0.15
29 0.5
3 -0.57
30 0.45
31 0.45
4 -0.53
5 -0.53
6 -0.57
7 -0.73
8 0.36
9 0.23

> <PUBCHEM_EFFECTIVE_ROTOR_COUNT>
6

> <PUBCHEM_PHARMACOPHORE_FEATURES>
8
1 2 acceptor
1 3 acceptor
1 4 donor
1 5 donor
1 6 acceptor
1 7 donor
3 2 3 11 anion
6 10 12 13 15 16 17 rings

> <PUBCHEM_HEAVY_ATOM_COUNT>
18

> <PUBCHEM_ATOM_DEF_STEREO_COUNT>
1

> <PUBCHEM_ATOM_UDEF_STEREO_COUNT>
0

> <PUBCHEM_BOND_DEF_STEREO_COUNT>
0

> <PUBCHEM_BOND_UDEF_STEREO_COUNT>
0

> <PUBCHEM_ISOTOPIC_ATOM_COUNT>
0

> <PUBCHEM_COMPONENT_COUNT>
1

> <PUBCHEM_CACTVS_TAUTO_COUNT>
14

> <PUBCHEM_CONFORMER_ID>
0001D2B200000001

> <PUBCHEM_MMFF94_ENERGY>
38.6116

> <PUBCHEM_FEATURE_SELFOVERLAP>
40.656

> <PUBCHEM_SHAPE_FINGERPRINT>
10616163 171 18412825806498515030
11405975 8 18411135814508896138
12173636 292 18271798047305244559
12500047 106 18271517615789211275
12633257 1 18262225608942810198
14178342 30 18267279020203151154
14251751 93 18202001070591020398
14289901 80 18339076107183664530
15442244 35 18337948974784588738
17834072 32 18267303132307818917
18186145 218 18260261937110215550
18785283 64 17910125616273296915
19422 9 18411416245724203062
21501502 16 18409160026294348034
21524375 3 18127683838988126229
21618674 54 18410006654611177170
21709351 56 18408881854664108732
22907989 373 18130210671121844047
23402655 69 18411141320904915052
23598288 3 18130784598721822207
4214541 1 18411136922219983565
474 4 17895195570943531236
5104073 3 18408599267190635648
53777708 50 18410289233347185570
543358 83 18338519630162527154
58051976 100 18410013217210448799
58051976 378 18194678405054986918
6049 1 17702653505391600841
633830 44 17749112188481912706
77779 3 18410294726588972230
7832392 63 18409727335702787332
84936 182 18270677709787680576

> <PUBCHEM_SHAPE_MULTIPOLES>
339.95
9.34
3.06
0.98
1.36
0.04
0.04
3.55
0.23
-1.81
-0.17
-0.68
0.02
-1.27

> <PUBCHEM_SHAPE_SELFOVERLAP>
683.583

> <PUBCHEM_SHAPE_VOLUME>
199.6

> <PUBCHEM_COORDINATE_TYPE>
2
5
10

$$$$
