119560
  -OEChem-03292013323D

 44 46  0     1  0  0  0  0  0999 V2000
    0.0648    0.5599   -0.7791 S   0  0  1  0  0  0  0  0  0  0  0  0
    5.3719   -1.6082   -0.4753 O   0  0  0  0  0  0  0  0  0  0  0  0
    0.2539    2.0635   -0.7426 O   0  0  0  0  0  0  0  0  0  0  0  0
   -7.4524    0.1144    0.0354 O   0  0  0  0  0  0  0  0  0  0  0  0
    6.8645    1.4672   -0.5748 O   0  0  0  0  0  0  0  0  0  0  0  0
   -2.7043    0.9322   -0.8415 N   0  0  0  0  0  0  0  0  0  0  0  0
   -2.0296   -0.8422    0.3145 N   0  0  0  0  0  0  0  0  0  0  0  0
    2.8185    1.2205    1.1899 N   0  0  0  0  0  0  0  0  0  0  0  0
    0.8721   -0.1140    0.7018 C   0  0  0  0  0  0  0  0  0  0  0  0
    2.3612    0.0702    0.6543 C   0  0  0  0  0  0  0  0  0  0  0  0
    3.1613   -0.9042    0.0884 C   0  0  0  0  0  0  0  0  0  0  0  0
   -1.6442    0.1859   -0.4078 C   0  0  0  0  0  0  0  0  0  0  0  0
   -3.8502    0.3470   -0.3673 C   0  0  0  0  0  0  0  0  0  0  0  0
    4.5338   -0.6819    0.0706 C   0  0  0  0  0  0  0  0  0  0  0  0
   -3.4026   -0.7584    0.3510 C   0  0  0  0  0  0  0  0  0  0  0  0
    5.0496    0.4904    0.6120 C   0  0  0  0  0  0  0  0  0  0  0  0
    2.5837   -2.1532   -0.4871 C   0  0  0  0  0  0  0  0  0  0  0  0
    4.1578    1.4015    1.1545 C   0  0  0  0  0  0  0  0  0  0  0  0
   -5.1988    0.6794   -0.5008 C   0  0  0  0  0  0  0  0  0  0  0  0
   -4.3421   -1.5928    0.9798 C   0  0  0  0  0  0  0  0  0  0  0  0
    6.5110    0.7754    0.6176 C   0  0  0  0  0  0  0  0  0  0  0  0
   -6.1200   -0.1618    0.1317 C   0  0  0  0  0  0  0  0  0  0  0  0
   -5.7015   -1.2782    0.8592 C   0  0  0  0  0  0  0  0  0  0  0  0
    5.6625   -1.4786   -1.8651 C   0  0  0  0  0  0  0  0  0  0  0  0
   -7.8208    1.2660   -0.7195 C   0  0  0  0  0  0  0  0  0  0  0  0
    0.5875   -1.1617    0.8306 H   0  0  0  0  0  0  0  0  0  0  0  0
    0.4696    0.4250    1.5681 H   0  0  0  0  0  0  0  0  0  0  0  0
   -2.6546    1.7670   -1.4104 H   0  0  0  0  0  0  0  0  0  0  0  0
    1.8814   -1.9219   -1.2941 H   0  0  0  0  0  0  0  0  0  0  0  0
    3.3380   -2.8209   -0.9137 H   0  0  0  0  0  0  0  0  0  0  0  0
    2.0714   -2.7322    0.2884 H   0  0  0  0  0  0  0  0  0  0  0  0
    4.4982    2.3359    1.5903 H   0  0  0  0  0  0  0  0  0  0  0  0
   -5.4572    1.5576   -1.0779 H   0  0  0  0  0  0  0  0  0  0  0  0
   -4.0269   -2.4625    1.5474 H   0  0  0  0  0  0  0  0  0  0  0  0
    6.7883    1.3997    1.4742 H   0  0  0  0  0  0  0  0  0  0  0  0
    7.1107   -0.1378    0.6862 H   0  0  0  0  0  0  0  0  0  0  0  0
   -6.4367   -1.9176    1.3422 H   0  0  0  0  0  0  0  0  0  0  0  0
    6.0591   -2.4340   -2.2201 H   0  0  0  0  0  0  0  0  0  0  0  0
    6.4229   -0.7099   -2.0238 H   0  0  0  0  0  0  0  0  0  0  0  0
    4.7648   -1.2389   -2.4445 H   0  0  0  0  0  0  0  0  0  0  0  0
    6.2174    2.1780   -0.7213 H   0  0  0  0  0  0  0  0  0  0  0  0
   -7.4330    2.1855   -0.2680 H   0  0  0  0  0  0  0  0  0  0  0  0
   -8.9134    1.3345   -0.6914 H   0  0  0  0  0  0  0  0  0  0  0  0
   -7.5353    1.1669   -1.7723 H   0  0  0  0  0  0  0  0  0  0  0  0
  1  3  2  0  0  0  0
  1  9  1  0  0  0  0
  1 12  1  0  0  0  0
  2 14  1  0  0  0  0
  2 24  1  0  0  0  0
  4 22  1  0  0  0  0
  4 25  1  0  0  0  0
  5 21  1  0  0  0  0
  5 41  1  0  0  0  0
  6 12  1  0  0  0  0
  6 13  1  0  0  0  0
  6 28  1  0  0  0  0
  7 12  2  0  0  0  0
  7 15  1  0  0  0  0
  8 10  2  0  0  0  0
  8 18  1  0  0  0  0
  9 10  1  0  0  0  0
  9 26  1  0  0  0  0
  9 27  1  0  0  0  0
 10 11  1  0  0  0  0
 11 14  2  0  0  0  0
 11 17  1  0  0  0  0
 13 15  2  0  0  0  0
 13 19  1  0  0  0  0
 14 16  1  0  0  0  0
 15 20  1  0  0  0  0
 16 18  2  0  0  0  0
 16 21  1  0  0  0  0
 17 29  1  0  0  0  0
 17 30  1  0  0  0  0
 17 31  1  0  0  0  0
 18 32  1  0  0  0  0
 19 22  2  0  0  0  0
 19 33  1  0  0  0  0
 20 23  2  0  0  0  0
 20 34  1  0  0  0  0
 21 35  1  0  0  0  0
 21 36  1  0  0  0  0
 22 23  1  0  0  0  0
 23 37  1  0  0  0  0
 24 38  1  0  0  0  0
 24 39  1  0  0  0  0
 24 40  1  0  0  0  0
 25 42  1  0  0  0  0
 25 43  1  0  0  0  0
 25 44  1  0  0  0  0
M  END
> <PUBCHEM_COMPOUND_CID>
119560

> <PUBCHEM_CONFORMER_RMSD>
0.8

> <PUBCHEM_CONFORMER_DIVERSEORDER>
1
74
73
31
82
90
101
79
19
42
21
63
60
33
68
22
49
37
46
6
10
27
13
103
20
50
75
36
98
45
3
96
4
29
102
83
12
11
77
9
84
25
34
93
43
57
87
28
5
41
94
14
85
7
89
44
38
71
92
72
2
88
32
70
80
64
8
55
58
66
76
86
99
30
52
16
62
78
23
97
91
39
69
18
24
54
47
100
17
53
48
59
65
26
15
61
40
35
51
95
56
67
81

> <PUBCHEM_MMFF94_PARTIAL_CHARGES>
31
1 0.3
10 0.17
11 -0.14
12 0.2
13 -0.15
14 0.08
15 0.23
16 -0.14
17 0.14
18 0.16
19 -0.15
2 -0.36
20 -0.15
21 0.42
22 0.08
23 -0.15
24 0.28
25 0.28
28 0.27
3 -0.5
32 0.15
33 0.15
34 0.15
37 0.15
4 -0.36
41 0.4
5 -0.68
6 0.03
7 -0.57
8 -0.62
9 0.34

> <PUBCHEM_EFFECTIVE_ROTOR_COUNT>
6

> <PUBCHEM_PHARMACOPHORE_FEATURES>
11
1 2 acceptor
1 3 acceptor
1 4 acceptor
1 5 acceptor
1 5 donor
1 6 donor
1 8 acceptor
3 6 7 12 cation
5 6 7 12 13 15 rings
6 13 15 19 20 22 23 rings
6 8 10 11 14 16 18 rings

> <PUBCHEM_HEAVY_ATOM_COUNT>
25

> <PUBCHEM_ATOM_DEF_STEREO_COUNT>
0

> <PUBCHEM_ATOM_UDEF_STEREO_COUNT>
1

> <PUBCHEM_BOND_DEF_STEREO_COUNT>
0

> <PUBCHEM_BOND_UDEF_STEREO_COUNT>
0

> <PUBCHEM_ISOTOPIC_ATOM_COUNT>
0

> <PUBCHEM_COMPONENT_COUNT>
1

> <PUBCHEM_CACTVS_TAUTO_COUNT>
2

> <PUBCHEM_CONFORMER_ID>
0001D30800000001

> <PUBCHEM_MMFF94_ENERGY>
79.4619

> <PUBCHEM_FEATURE_SELFOVERLAP>
55.93

> <PUBCHEM_SHAPE_FINGERPRINT>
10 15 18335695079290536000
10673678 19 18119257401170274300
11315181 36 18413110576664298417
12166972 35 12247676093291861779
12236239 1 16200432463946231939
12516196 113 18408323289403064285
12596602 18 17418373627532843171
12730499 353 18342176692110376562
13383665 225 18188791448107158908
13402501 40 18408323289266154682
13533116 47 17203892933795349662
13914758 101 17203613641020455505
14251764 18 15195566805721075726
14341114 176 18273498974376005472
14617045 38 18334577914851820587
14933364 13 18413388731204099153
15183329 4 15267346227501347857
15461852 350 18059851805875375845
15510794 2 18410857667768310459
15537594 2 17704068512822442038
1577012 14 15913337883459045963
17844677 252 18202569453451211080
21033648 29 18200856436300661249
21033650 10 16372420151505753694
21267235 1 17895202130181362659
21315759 40 15554444085534053455
21623969 137 18344148094456926902
221357 26 18131350787228297040
2215653 11 18411415090678700367
22224240 67 18341886437650917626
2297311 6 18260271828541328133
23522609 53 16081946832016434581
23559900 14 18336541716134418329
239999 70 18410294709979075146
3004659 81 17530971288806715245
335352 9 18040433288246892429
3383291 50 17749958881751630587
34797466 226 18335145301970358044
3545911 37 18411978074622516945
3633792 109 17845937325871017203
4073 2 18187368756826778899
4325135 7 17675925413277112660
5104073 3 18269547261436138120
5283156 175 16081081554793037960
59755656 215 18335984181892241811
59755656 520 13110959821251966701

> <PUBCHEM_SHAPE_MULTIPOLES>
479.92
20.99
1.75
1.15
12.99
0.25
-0.15
-1.95
-1.38
-1.25
-0.17
-0.8
0.08
2.41

> <PUBCHEM_SHAPE_SELFOVERLAP>
1020.839

> <PUBCHEM_SHAPE_VOLUME>
271.1

> <PUBCHEM_COORDINATE_TYPE>
2
5
10

$$$$
