11957642
  -OEChem-03292013303D

 46 49  0     1  0  0  0  0  0999 V2000
    1.7847   -0.1413    0.0580 S   0  0  0  0  0  0  0  0  0  0  0  0
   -5.2727   -0.5977    0.8946 O   0  0  0  0  0  0  0  0  0  0  0  0
   -5.9073    2.0245   -0.9630 O   0  0  0  0  0  0  0  0  0  0  0  0
   -5.4588   -1.3911   -1.9906 O   0  0  0  0  0  0  0  0  0  0  0  0
   -7.1881   -2.5071    1.6379 O   0  0  0  0  0  0  0  0  0  0  0  0
    8.8588   -1.0858   -1.3736 O   0  5  0  0  0  0  0  0  0  0  0  0
    8.9067   -1.4595    0.7890 O   0  0  0  0  0  0  0  0  0  0  0  0
   -3.1225    0.1304    0.2105 N   0  0  0  0  0  0  0  0  0  0  0  0
   -1.3063   -1.1363   -0.0478 N   0  0  0  0  0  0  0  0  0  0  0  0
   -2.0752    2.2935    0.5635 N   0  0  0  0  0  0  0  0  0  0  0  0
    0.3581    2.1241    0.4816 N   0  0  0  0  0  0  0  0  0  0  0  0
    8.3225   -1.0414   -0.2399 N   0  3  0  0  0  0  0  0  0  0  0  0
   -5.1790    0.8021   -1.0538 C   0  0  1  0  0  0  0  0  0  0  0  0
   -4.5390    0.4892    0.3020 C   0  0  1  0  0  0  0  0  0  0  0  0
   -6.1328   -0.3541   -1.2888 C   0  0  2  0  0  0  0  0  0  0  0  0
   -6.4719   -0.7988    0.1288 C   0  0  1  0  0  0  0  0  0  0  0  0
   -6.9213   -2.2417    0.2702 C   0  0  0  0  0  0  0  0  0  0  0  0
   -2.0538    0.9720    0.3336 C   0  0  0  0  0  0  0  0  0  0  0  0
   -2.6226   -1.1244   -0.0170 C   0  0  0  0  0  0  0  0  0  0  0  0
   -0.9376    0.1675    0.1698 C   0  0  0  0  0  0  0  0  0  0  0  0
    0.3039    0.7902    0.2508 C   0  0  0  0  0  0  0  0  0  0  0  0
   -0.8176    2.7832    0.6215 C   0  0  0  0  0  0  0  0  0  0  0  0
    3.0738    1.1287    0.2499 C   0  0  0  0  0  0  0  0  0  0  0  0
    4.4583    0.5558    0.1211 C   0  0  0  0  0  0  0  0  0  0  0  0
    5.0628    0.5010   -1.1278 C   0  0  0  0  0  0  0  0  0  0  0  0
    5.1149    0.0894    1.2522 C   0  0  0  0  0  0  0  0  0  0  0  0
    6.3471   -0.0299   -1.2476 C   0  0  0  0  0  0  0  0  0  0  0  0
    6.3993   -0.4414    1.1324 C   0  0  0  0  0  0  0  0  0  0  0  0
    7.0154   -0.5011   -0.1176 C   0  0  0  0  0  0  0  0  0  0  0  0
   -4.4417    0.9232   -1.8539 H   0  0  0  0  0  0  0  0  0  0  0  0
   -4.6025    1.3380    0.9934 H   0  0  0  0  0  0  0  0  0  0  0  0
   -7.0336   -0.0838   -1.8487 H   0  0  0  0  0  0  0  0  0  0  0  0
   -7.2254   -0.1327    0.5682 H   0  0  0  0  0  0  0  0  0  0  0  0
   -7.8317   -2.4311   -0.3054 H   0  0  0  0  0  0  0  0  0  0  0  0
   -6.1460   -2.9451   -0.0495 H   0  0  0  0  0  0  0  0  0  0  0  0
   -6.5591    1.9412   -0.2466 H   0  0  0  0  0  0  0  0  0  0  0  0
   -5.2238   -1.0442   -2.8681 H   0  0  0  0  0  0  0  0  0  0  0  0
   -3.2558   -1.9902   -0.1554 H   0  0  0  0  0  0  0  0  0  0  0  0
   -6.3724   -2.3271    2.1361 H   0  0  0  0  0  0  0  0  0  0  0  0
   -0.7365    3.8492    0.8050 H   0  0  0  0  0  0  0  0  0  0  0  0
    2.9283    1.9112   -0.5045 H   0  0  0  0  0  0  0  0  0  0  0  0
    2.9656    1.6114    1.2285 H   0  0  0  0  0  0  0  0  0  0  0  0
    4.5510    0.8643   -2.0146 H   0  0  0  0  0  0  0  0  0  0  0  0
    4.6438    0.1302    2.2305 H   0  0  0  0  0  0  0  0  0  0  0  0
    6.7956   -0.0607   -2.2373 H   0  0  0  0  0  0  0  0  0  0  0  0
    6.8894   -0.7992    2.0344 H   0  0  0  0  0  0  0  0  0  0  0  0
  1 21  1  0  0  0  0
  1 23  1  0  0  0  0
  2 14  1  0  0  0  0
  2 16  1  0  0  0  0
  3 13  1  0  0  0  0
  3 36  1  0  0  0  0
  4 15  1  0  0  0  0
  4 37  1  0  0  0  0
  5 17  1  0  0  0  0
  5 39  1  0  0  0  0
  6 12  1  0  0  0  0
  7 12  2  0  0  0  0
  8 14  1  0  0  0  0
  8 18  1  0  0  0  0
  8 19  1  0  0  0  0
  9 19  2  0  0  0  0
  9 20  1  0  0  0  0
 10 18  1  0  0  0  0
 10 22  2  0  0  0  0
 11 21  2  0  0  0  0
 11 22  1  0  0  0  0
 12 29  1  0  0  0  0
 13 14  1  0  0  0  0
 13 15  1  0  0  0  0
 13 30  1  0  0  0  0
 14 31  1  0  0  0  0
 15 16  1  0  0  0  0
 15 32  1  0  0  0  0
 16 17  1  0  0  0  0
 16 33  1  0  0  0  0
 17 34  1  0  0  0  0
 17 35  1  0  0  0  0
 18 20  2  0  0  0  0
 19 38  1  0  0  0  0
 20 21  1  0  0  0  0
 22 40  1  0  0  0  0
 23 24  1  0  0  0  0
 23 41  1  0  0  0  0
 23 42  1  0  0  0  0
 24 25  2  0  0  0  0
 24 26  1  0  0  0  0
 25 27  1  0  0  0  0
 25 43  1  0  0  0  0
 26 28  2  0  0  0  0
 26 44  1  0  0  0  0
 27 29  2  0  0  0  0
 27 45  1  0  0  0  0
 28 29  1  0  0  0  0
 28 46  1  0  0  0  0
M  CHG  2   6  -1  12   1
M  END
> <PUBCHEM_COMPOUND_CID>
11957642

> <PUBCHEM_CONFORMER_RMSD>
0.8

> <PUBCHEM_CONFORMER_DIVERSEORDER>
1
127
135
155
106
175
151
54
136
27
33
44
147
177
117
43
168
39
85
181
59
114
83
37
62
111
97
15
35
66
142
133
68
26
113
76
23
143
16
119
77
30
107
149
165
4
70
53
120
124
48
84
109
34
121
128
17
180
183
116
73
98
170
24
13
103
94
118
148
42
41
14
86
55
6
40
29
129
2
164
90
179
32
95
64
137
163
150
123
146
65
171
28
56
21
152
161
141
122
104
58
102
140
182
5
172
138
69
20
159
153
63
87
52
75
93
144
88
11
91
46
71
8
174
101
25
67
89
96
134
38
178
9
145
169
132
157
45
92
115
176
19
156
31
105
173
131
80
79
72
12
60
167
22
18
82
126
3
125
112
160
110
61
49
47
100
158
99
108
78
162
154
51
130
7
166
81
57
36
139
74
50
10

> <PUBCHEM_MMFF94_PARTIAL_CHARGES>
38
1 -0.33
10 -0.57
11 -0.62
12 0.91
13 0.28
14 0.54
15 0.28
16 0.28
17 0.28
18 0.11
19 0.04
2 -0.56
20 0.23
21 0.41
22 0.47
23 0.37
24 -0.14
25 -0.15
26 -0.15
27 -0.15
28 -0.15
29 0.13
3 -0.68
36 0.4
37 0.4
38 0.15
39 0.4
4 -0.68
40 0.15
43 0.15
44 0.15
45 0.15
46 0.15
5 -0.68
6 -0.52
7 -0.52
8 0.05
9 -0.57

> <PUBCHEM_EFFECTIVE_ROTOR_COUNT>
7

> <PUBCHEM_PHARMACOPHORE_FEATURES>
17
1 11 acceptor
1 2 acceptor
1 3 acceptor
1 3 donor
1 4 acceptor
1 4 donor
1 5 acceptor
1 5 donor
1 6 acceptor
1 6 anion
1 7 acceptor
3 10 11 22 cation
3 8 9 19 cation
5 2 13 14 15 16 rings
5 8 9 18 19 20 rings
6 10 11 18 20 21 22 rings
6 24 25 26 27 28 29 rings

> <PUBCHEM_HEAVY_ATOM_COUNT>
29

> <PUBCHEM_ATOM_DEF_STEREO_COUNT>
3

> <PUBCHEM_ATOM_UDEF_STEREO_COUNT>
1

> <PUBCHEM_BOND_DEF_STEREO_COUNT>
0

> <PUBCHEM_BOND_UDEF_STEREO_COUNT>
0

> <PUBCHEM_ISOTOPIC_ATOM_COUNT>
0

> <PUBCHEM_COMPONENT_COUNT>
1

> <PUBCHEM_CACTVS_TAUTO_COUNT>
1

> <PUBCHEM_CONFORMER_ID>
00B6758A00000001

> <PUBCHEM_MMFF94_ENERGY>
71.1619

> <PUBCHEM_FEATURE_SELFOVERLAP>
86.496

> <PUBCHEM_SHAPE_FINGERPRINT>
10 15 10303813181277307924
10299344 5 17603303743978009914
11135926 11 17632577128687016671
11315181 36 18333456430535316264
11524674 6 16128653059361433358
11963148 33 18411693288337862726
12082328 90 18113616785442268311
12089408 11 18186522078130098488
12166972 35 18040999582804210805
12236239 1 17822010904398764184
13668630 136 18334295362296721878
13673619 4 17917992776509690752
13782708 43 17561361773171548564
13862211 1 18342454867856001449
14251764 18 13542458774763774696
14294032 229 18044373812297295084
14856354 85 16805325518029933683
15183329 4 16732697242538282316
15419008 91 18268407136524666968
15461852 350 16587743157498342475
15510800 12 18202295697227174238
1577012 14 17749105548299248096
17093844 174 11527951158375676415
1818759 1 18271815622728345982
21150785 3 16515683377258289731
21267235 1 18411985775277423624
21781051 124 18336557109165669698
21792961 116 18408319970100037829
23198884 109 16081085978852264013
23522609 53 18055948538585239976
23559900 14 18340762762474422136
23576562 1 14635451466343933526
3004659 81 18187363242742618640
3383291 50 18272933846838034202
4107672 100 17749102275676340365
4340502 62 14620802608560476812
444769 64 18130787876088012215
5758199 1 11169906169851673125
58083652 198 15985090916970931489
59682541 35 17846493756238163290
59755656 215 18412261710379545934
6138700 20 18413387635686517783
636775 8 18336274504533204786
68570916 9 15051154813856578272
9953998 17 15410897362255141239
9962374 69 17988071305573216700

> <PUBCHEM_SHAPE_MULTIPOLES>
540.53
26.6
2.11
1.25
30.57
0.57
-0.25
-16.6
-3
-3.05
0.43
-0.22
-0.31
0.97

> <PUBCHEM_SHAPE_SELFOVERLAP>
1164.07

> <PUBCHEM_SHAPE_VOLUME>
300.3

> <PUBCHEM_COORDINATE_TYPE>
2
5
10

$$$$
