11957488
  -OEChem-03292013303D

 39 42  0     1  0  0  0  0  0999 V2000
    0.9402   -0.2457    1.4956 O   0  0  0  0  0  0  0  0  0  0  0  0
    2.4453   -2.4491   -0.9111 O   0  0  0  0  0  0  0  0  0  0  0  0
   -0.5880   -2.8564   -0.4200 O   0  0  0  0  0  0  0  0  0  0  0  0
    2.0704    1.0132   -0.5341 O   0  0  0  0  0  0  0  0  0  0  0  0
    4.1179    0.0607    0.0174 N   0  0  0  0  0  0  0  0  0  0  0  0
   -1.2514    0.0898    0.6551 N   0  0  0  0  0  0  0  0  0  0  0  0
   -2.2137    2.0881    0.4148 N   0  0  0  0  0  0  0  0  0  0  0  0
   -3.0812   -1.3401   -0.0584 N   0  0  0  0  0  0  0  0  0  0  0  0
   -5.0413   -0.0277   -0.6843 N   0  0  0  0  0  0  0  0  0  0  0  0
   -5.0733    2.3630   -0.5809 N   0  0  0  0  0  0  0  0  0  0  0  0
    4.9362    0.9345   -0.7740 C   0  0  0  0  0  0  0  0  0  0  0  0
    6.3719    1.1610   -0.4266 C   0  0  0  0  0  0  0  0  0  0  0  0
    5.3697    2.2627   -0.2434 C   0  0  0  0  0  0  0  0  0  0  0  0
    2.1072   -0.8666    0.9363 C   0  0  1  0  0  0  0  0  0  0  0  0
    1.6333   -2.1028    0.1923 C   0  0  1  0  0  0  0  0  0  0  0  0
    0.2333   -1.7173   -0.2353 C   0  0  2  0  0  0  0  0  0  0  0  0
   -0.2274   -0.9044    0.9665 C   0  0  1  0  0  0  0  0  0  0  0  0
    2.7390    0.1775    0.0691 C   0  0  0  0  0  0  0  0  0  0  0  0
   -2.5169   -0.1504    0.1980 C   0  0  0  0  0  0  0  0  0  0  0  0
   -1.1183    1.4493    0.7694 C   0  0  0  0  0  0  0  0  0  0  0  0
   -3.0960    1.1005    0.0553 C   0  0  0  0  0  0  0  0  0  0  0  0
   -4.4084    1.1372   -0.4051 C   0  0  0  0  0  0  0  0  0  0  0  0
   -4.3486   -1.1769   -0.4964 C   0  0  0  0  0  0  0  0  0  0  0  0
    4.7012    0.8763   -1.8321 H   0  0  0  0  0  0  0  0  0  0  0  0
    7.0809    1.2544   -1.2400 H   0  0  0  0  0  0  0  0  0  0  0  0
    6.7712    0.6918    0.4642 H   0  0  0  0  0  0  0  0  0  0  0  0
    5.0971    2.5308    0.7700 H   0  0  0  0  0  0  0  0  0  0  0  0
    5.4033    3.0962   -0.9341 H   0  0  0  0  0  0  0  0  0  0  0  0
    2.7823   -1.1297    1.7578 H   0  0  0  0  0  0  0  0  0  0  0  0
    1.5981   -2.9664    0.8681 H   0  0  0  0  0  0  0  0  0  0  0  0
    0.2391   -1.1410   -1.1673 H   0  0  0  0  0  0  0  0  0  0  0  0
   -0.6486   -1.5324    1.7616 H   0  0  0  0  0  0  0  0  0  0  0  0
    4.5842   -0.6788    0.5361 H   0  0  0  0  0  0  0  0  0  0  0  0
    3.3437   -2.6065   -0.5740 H   0  0  0  0  0  0  0  0  0  0  0  0
   -0.5926   -3.3701    0.4053 H   0  0  0  0  0  0  0  0  0  0  0  0
   -0.2121    1.9286    1.1138 H   0  0  0  0  0  0  0  0  0  0  0  0
   -4.8859   -2.0899   -0.7301 H   0  0  0  0  0  0  0  0  0  0  0  0
   -4.6033    3.2336   -0.3732 H   0  0  0  0  0  0  0  0  0  0  0  0
   -6.0269    2.3635   -0.9167 H   0  0  0  0  0  0  0  0  0  0  0  0
  1 14  1  0  0  0  0
  1 17  1  0  0  0  0
  2 15  1  0  0  0  0
  2 34  1  0  0  0  0
  3 16  1  0  0  0  0
  3 35  1  0  0  0  0
  4 18  2  0  0  0  0
  5 11  1  0  0  0  0
  5 18  1  0  0  0  0
  5 33  1  0  0  0  0
  6 17  1  0  0  0  0
  6 19  1  0  0  0  0
  6 20  1  0  0  0  0
  7 20  2  0  0  0  0
  7 21  1  0  0  0  0
  8 19  2  0  0  0  0
  8 23  1  0  0  0  0
  9 22  1  0  0  0  0
  9 23  2  0  0  0  0
 10 22  1  0  0  0  0
 10 38  1  0  0  0  0
 10 39  1  0  0  0  0
 11 12  1  0  0  0  0
 11 13  1  0  0  0  0
 11 24  1  0  0  0  0
 12 13  1  0  0  0  0
 12 25  1  0  0  0  0
 12 26  1  0  0  0  0
 13 27  1  0  0  0  0
 13 28  1  0  0  0  0
 14 15  1  0  0  0  0
 14 18  1  0  0  0  0
 14 29  1  0  0  0  0
 15 16  1  0  0  0  0
 15 30  1  0  0  0  0
 16 17  1  0  0  0  0
 16 31  1  0  0  0  0
 17 32  1  0  0  0  0
 19 21  1  0  0  0  0
 20 36  1  0  0  0  0
 21 22  2  0  0  0  0
 23 37  1  0  0  0  0
M  END
> <PUBCHEM_COMPOUND_CID>
11957488

> <PUBCHEM_CONFORMER_RMSD>
0.8

> <PUBCHEM_CONFORMER_DIVERSEORDER>
1
34
19
26
39
27
17
45
10
2
44
31
22
38
33
20
9
24
3
18
29
37
8
36
40
7
16
4
42
5
25
43
30
11
32
14
6
23
13
35
21
28
12
41
15

> <PUBCHEM_MMFF94_PARTIAL_CHARGES>
35
1 -0.56
10 -0.9
11 0.05
12 -0.2
13 -0.2
14 0.34
15 0.28
16 0.28
17 0.54
18 0.57
19 0.11
2 -0.68
20 0.04
21 0.23
22 0.41
23 0.47
24 0.1
25 0.1
26 0.1
27 0.1
28 0.1
3 -0.68
33 0.37
34 0.4
35 0.4
36 0.15
37 0.15
38 0.4
39 0.4
4 -0.57
5 -0.58
6 0.05
7 -0.57
8 -0.57
9 -0.62

> <PUBCHEM_EFFECTIVE_ROTOR_COUNT>
5.6

> <PUBCHEM_PHARMACOPHORE_FEATURES>
15
1 1 acceptor
1 10 cation
1 10 donor
1 2 acceptor
1 2 donor
1 3 acceptor
1 3 donor
1 4 acceptor
1 5 donor
3 6 7 20 cation
3 6 8 19 cation
3 8 9 23 cation
5 1 14 15 16 17 rings
5 6 7 19 20 21 rings
6 8 9 19 21 22 23 rings

> <PUBCHEM_HEAVY_ATOM_COUNT>
23

> <PUBCHEM_ATOM_DEF_STEREO_COUNT>
3

> <PUBCHEM_ATOM_UDEF_STEREO_COUNT>
1

> <PUBCHEM_BOND_DEF_STEREO_COUNT>
0

> <PUBCHEM_BOND_UDEF_STEREO_COUNT>
0

> <PUBCHEM_ISOTOPIC_ATOM_COUNT>
0

> <PUBCHEM_COMPONENT_COUNT>
1

> <PUBCHEM_CACTVS_TAUTO_COUNT>
6

> <PUBCHEM_CONFORMER_ID>
00B674F000000001

> <PUBCHEM_MMFF94_ENERGY>
53.1866

> <PUBCHEM_FEATURE_SELFOVERLAP>
76.737

> <PUBCHEM_SHAPE_FINGERPRINT>
10411042 1 17617378828127359427
10498660 4 18411421682873322244
10591671 39 18189066441671750902
10759866 29 18336539434889878507
11578080 2 17097191871348945277
11961588 58 18335975480203688592
12236239 1 18186514415127753314
12293681 160 18131634478102015416
12788726 201 17130712661165963177
13103583 49 8286207183749699365
13740256 8 10303813185624899156
14528608 73 18410572903231435140
14767858 380 18341320197815858031
15183329 4 18339653261511604262
15196674 1 18409729538783529378
15961568 22 18040715840068976332
173720 79 18262502789400429954
19784866 135 9151184129520419694
21637258 2 13542463138044475980
22182313 1 18192742061883583970
22950370 63 10447934970986883896
23227448 37 18268149949476303484
23402539 116 18341891935156224612
23402655 69 18411980239059148169
23559900 14 18055904399337648651
23622692 88 7997974561245702154
2838139 119 18260827129137253580
351380 3 11815904440127474508
4371632 12 13970570313229081680
474 4 17749113304820027124
5104073 3 18114466669196654217
5207 217 18334574698031715331
59755656 520 17385999624576578226
6327066 14 18335702784504699668
67856867 119 18335412418734423386
8863177 126 11527078192739568813
9981440 41 18260270775984632658

> <PUBCHEM_SHAPE_MULTIPOLES>
419.97
12.14
2.64
0.94
7.36
0.55
-0.14
-8.18
3.83
-0.08
0.41
0.12
0.08
-0.29

> <PUBCHEM_SHAPE_SELFOVERLAP>
916.139

> <PUBCHEM_SHAPE_VOLUME>
224.7

> <PUBCHEM_COORDINATE_TYPE>
2
5
10

$$$$
