119545
  -OEChem-03292013323D

 27 26  0     0  0  0  0  0  0999 V2000
   -4.8791    1.1194   -1.5211 Cl  0  0  0  0  0  0  0  0  0  0  0  0
    3.1614   -0.1953   -0.6141 S   0  0  0  0  0  0  0  0  0  0  0  0
    4.1455   -0.8951    0.1940 O   0  0  0  0  0  0  0  0  0  0  0  0
    2.0304   -0.9076   -1.1839 O   0  0  0  0  0  0  0  0  0  0  0  0
   -0.8189    1.7735    1.0004 O   0  0  0  0  0  0  0  0  0  0  0  0
   -2.4393   -2.4423    0.1202 O   0  0  0  0  0  0  0  0  0  0  0  0
    0.5702   -0.0521    1.1516 N   0  0  0  0  0  0  0  0  0  0  0  0
   -1.6987   -0.3219    0.5461 N   0  0  0  0  0  0  0  0  0  0  0  0
   -1.4431   -1.7875    0.4454 N   0  0  0  0  0  0  0  0  0  0  0  0
    2.5406    1.1640    0.3262 C   0  0  0  0  0  0  0  0  0  0  0  0
    1.7364    0.7127    1.5303 C   0  0  0  0  0  0  0  0  0  0  0  0
    4.0281    0.5930   -1.9518 C   0  0  0  0  0  0  0  0  0  0  0  0
   -0.6609    0.5519    0.9065 C   0  0  0  0  0  0  0  0  0  0  0  0
   -3.0400    0.1707    0.2586 C   0  0  0  0  0  0  0  0  0  0  0  0
   -3.2327    0.5165   -1.2084 C   0  0  0  0  0  0  0  0  0  0  0  0
    3.4013    1.7576    0.6496 H   0  0  0  0  0  0  0  0  0  0  0  0
    1.9262    1.7704   -0.3474 H   0  0  0  0  0  0  0  0  0  0  0  0
    2.3398    0.0703    2.1805 H   0  0  0  0  0  0  0  0  0  0  0  0
    1.4241    1.5835    2.1166 H   0  0  0  0  0  0  0  0  0  0  0  0
    0.6843   -1.0551    1.0607 H   0  0  0  0  0  0  0  0  0  0  0  0
    4.4500   -0.1862   -2.5899 H   0  0  0  0  0  0  0  0  0  0  0  0
    3.3213    1.2004   -2.5199 H   0  0  0  0  0  0  0  0  0  0  0  0
    4.8266    1.2114   -1.5380 H   0  0  0  0  0  0  0  0  0  0  0  0
   -3.7866   -0.5552    0.6012 H   0  0  0  0  0  0  0  0  0  0  0  0
   -3.2026    1.0743    0.8597 H   0  0  0  0  0  0  0  0  0  0  0  0
   -3.0761   -0.3600   -1.8448 H   0  0  0  0  0  0  0  0  0  0  0  0
   -2.5287    1.2919   -1.5265 H   0  0  0  0  0  0  0  0  0  0  0  0
  1 15  1  0  0  0  0
  2  3  2  0  0  0  0
  2  4  2  0  0  0  0
  2 10  1  0  0  0  0
  2 12  1  0  0  0  0
  5 13  2  0  0  0  0
  6  9  2  0  0  0  0
  7 11  1  0  0  0  0
  7 13  1  0  0  0  0
  7 20  1  0  0  0  0
  8  9  1  0  0  0  0
  8 13  1  0  0  0  0
  8 14  1  0  0  0  0
 10 11  1  0  0  0  0
 10 16  1  0  0  0  0
 10 17  1  0  0  0  0
 11 18  1  0  0  0  0
 11 19  1  0  0  0  0
 12 21  1  0  0  0  0
 12 22  1  0  0  0  0
 12 23  1  0  0  0  0
 14 15  1  0  0  0  0
 14 24  1  0  0  0  0
 14 25  1  0  0  0  0
 15 26  1  0  0  0  0
 15 27  1  0  0  0  0
M  END
> <PUBCHEM_COMPOUND_CID>
119545

> <PUBCHEM_CONFORMER_RMSD>
0.8

> <PUBCHEM_CONFORMER_DIVERSEORDER>
1
26
122
22
222
263
225
216
114
54
259
152
73
273
23
34
145
58
91
117
6
165
240
244
110
181
68
268
118
28
78
82
183
72
102
256
188
173
85
4
112
227
76
267
200
198
223
160
66
187
274
166
215
103
219
138
130
149
182
134
242
75
74
69
14
5
243
70
50
18
261
194
184
8
111
271
31
81
119
109
121
57
139
250
213
2
228
80
260
180
252
193
185
60
15
41
104
53
94
96
254
135
204
59
143
52
141
24
234
92
51
258
245
262
9
46
277
266
62
106
275
164
209
153
191
169
48
21
27
128
199
19
150
61
156
151
239
123
189
214
136
161
86
148
168
88
221
33
279
203
233
108
197
206
116
251
20
154
79
235
237
44
90
127
71
176
202
93
67
272
241
132
113
186
174
115
224
64
210
229
25
232
12
264
192
105
63
140
238
124
255
55
89
172
280
29
11
155
157
32
146
220
179
195
87
270
97
17
120
177
126
230
248
43
162
201
205
175
163
65
211
249
207
10
231
47
144
253
276
98
37
125
36
133
278
107
196
40
38
3
56
247
77
7
257
39
45
99
30
269
190
83
84
171
265
137
16
208
131
167
42
236
101
129
95
35
218
217
142
226
49
158
170
100
246
147
178
212
13
159

> <PUBCHEM_MMFF94_PARTIAL_CHARGES>
16
1 -0.29
10 0.11
11 0.3
12 0.11
13 0.69
14 0.3
15 0.29
2 1.09
20 0.37
3 -0.65
4 -0.65
5 -0.57
6 -0.16
7 -0.73
8 -0.18
9 -0.02

> <PUBCHEM_EFFECTIVE_ROTOR_COUNT>
8

> <PUBCHEM_PHARMACOPHORE_FEATURES>
4
1 3 acceptor
1 4 acceptor
1 5 acceptor
1 7 donor

> <PUBCHEM_HEAVY_ATOM_COUNT>
15

> <PUBCHEM_ATOM_DEF_STEREO_COUNT>
0

> <PUBCHEM_ATOM_UDEF_STEREO_COUNT>
0

> <PUBCHEM_BOND_DEF_STEREO_COUNT>
0

> <PUBCHEM_BOND_UDEF_STEREO_COUNT>
0

> <PUBCHEM_ISOTOPIC_ATOM_COUNT>
0

> <PUBCHEM_COMPONENT_COUNT>
1

> <PUBCHEM_CACTVS_TAUTO_COUNT>
2

> <PUBCHEM_CONFORMER_ID>
0001D2F900000001

> <PUBCHEM_MMFF94_ENERGY>
16.8352

> <PUBCHEM_FEATURE_SELFOVERLAP>
20.315

> <PUBCHEM_SHAPE_FINGERPRINT>
11127187 94 18342465875756967243
12173636 292 16371014039416555435
12186901 62 18187651331778957195
12932764 1 18040713709764671009
13296908 3 18200594829367576682
14251717 144 16773788208181504660
15342168 16 14201407074941162807
15375358 24 18059563720089571056
15775835 57 16877944944738818828
18186145 218 18411141363237455345
200 152 16415473844210233745
20201158 50 17917718980659938210
20279233 1 18131066060823926922
20645476 183 17749103387957072259
20645477 70 17060050488494766397
20671657 53 15267050472170166169
20871999 31 18261958560798215591
21069387 34 16773794835669587021
22218785 32 18337097995940058967
22485316 2 15482672351275814032
23402539 116 18200308810405442760
23402655 69 17748832912581263868
23500284 214 14345804863317527596
23526113 38 17702643584370698489
23557571 272 18190452959993882081
23559900 14 18342451565421803120
2748010 2 18057601173222130682
58051976 378 17845935242775449480
9882013 296 8214137486546697965

> <PUBCHEM_SHAPE_MULTIPOLES>
275.99
8.61
1.7
1.62
1.95
0.55
-0.07
5.22
2
0.62
0.5
-0.14
-0.5
-0.97

> <PUBCHEM_SHAPE_SELFOVERLAP>
500.753

> <PUBCHEM_SHAPE_VOLUME>
177.7

> <PUBCHEM_COORDINATE_TYPE>
2
5
10

$$$$
