11957666
  -OEChem-03292013303D

 44 47  0     1  0  0  0  0  0999 V2000
   -2.9341   -0.7965   -1.0038 O   0  0  0  0  0  0  0  0  0  0  0  0
   -1.3142   -2.5455    1.2423 O   0  0  0  0  0  0  0  0  0  0  0  0
   -4.1769   -0.4195    1.6985 O   0  0  0  0  0  0  0  0  0  0  0  0
   -5.3889   -1.5566   -2.1278 O   0  0  0  0  0  0  0  0  0  0  0  0
   -1.3621    0.7471   -0.1275 N   0  0  0  0  0  0  0  0  0  0  0  0
   -1.5851    2.9626   -0.0199 N   0  0  0  0  0  0  0  0  0  0  0  0
    1.0599    0.5689   -0.0769 N   0  0  0  0  0  0  0  0  0  0  0  0
    2.1076    2.7688    0.0622 N   0  0  0  0  0  0  0  0  0  0  0  0
    3.3865    0.8074   -0.0050 N   0  0  0  0  0  0  0  0  0  0  0  0
    0.8366    4.7952    0.1358 N   0  0  0  0  0  0  0  0  0  0  0  0
   -2.0125   -1.3058    1.1540 C   0  0  1  0  0  0  0  0  0  0  0  0
   -1.7409   -0.6648   -0.2103 C   0  0  1  0  0  0  0  0  0  0  0  0
   -3.5096   -1.5521    1.1559 C   0  0  2  0  0  0  0  0  0  0  0  0
   -3.8242   -1.6997   -0.3278 C   0  0  1  0  0  0  0  0  0  0  0  0
   -5.2549   -1.3858   -0.7260 C   0  0  0  0  0  0  0  0  0  0  0  0
   -0.0945    1.2524   -0.0702 C   0  0  0  0  0  0  0  0  0  0  0  0
   -2.2222    1.8127   -0.0950 C   0  0  0  0  0  0  0  0  0  0  0  0
   -0.2546    2.6273   -0.0035 C   0  0  0  0  0  0  0  0  0  0  0  0
    0.9051    3.3929    0.0648 C   0  0  0  0  0  0  0  0  0  0  0  0
    2.1103    1.4156   -0.0075 C   0  0  0  0  0  0  0  0  0  0  0  0
    3.7997   -0.5354   -0.0624 C   0  0  0  0  0  0  0  0  0  0  0  0
    5.0209   -0.8690   -0.6534 C   0  0  0  0  0  0  0  0  0  0  0  0
    2.9918   -1.5422    0.4720 C   0  0  0  0  0  0  0  0  0  0  0  0
    5.4316   -2.2008   -0.7095 C   0  0  0  0  0  0  0  0  0  0  0  0
    3.4025   -2.8740    0.4158 C   0  0  0  0  0  0  0  0  0  0  0  0
    4.6225   -3.2033   -0.1749 C   0  0  0  0  0  0  0  0  0  0  0  0
   -1.6759   -0.6843    1.9901 H   0  0  0  0  0  0  0  0  0  0  0  0
   -0.9342   -1.1738   -0.7511 H   0  0  0  0  0  0  0  0  0  0  0  0
   -3.8160   -2.4392    1.7192 H   0  0  0  0  0  0  0  0  0  0  0  0
   -3.5559   -2.7050   -0.6770 H   0  0  0  0  0  0  0  0  0  0  0  0
   -5.5248   -0.3493   -0.5001 H   0  0  0  0  0  0  0  0  0  0  0  0
   -5.9611   -2.0539   -0.2247 H   0  0  0  0  0  0  0  0  0  0  0  0
   -1.5879   -3.1062    0.4969 H   0  0  0  0  0  0  0  0  0  0  0  0
   -3.9086   -0.3416    2.6299 H   0  0  0  0  0  0  0  0  0  0  0  0
   -3.2971    1.6979   -0.1261 H   0  0  0  0  0  0  0  0  0  0  0  0
   -4.7504   -0.9623   -2.5579 H   0  0  0  0  0  0  0  0  0  0  0  0
    4.1389    1.4844   -0.0891 H   0  0  0  0  0  0  0  0  0  0  0  0
    1.6934    5.3292    0.1852 H   0  0  0  0  0  0  0  0  0  0  0  0
   -0.0596    5.2633    0.1385 H   0  0  0  0  0  0  0  0  0  0  0  0
    5.6611   -0.0977   -1.0744 H   0  0  0  0  0  0  0  0  0  0  0  0
    2.0575   -1.3304    0.9816 H   0  0  0  0  0  0  0  0  0  0  0  0
    6.3816   -2.4573   -1.1691 H   0  0  0  0  0  0  0  0  0  0  0  0
    2.7777   -3.6539    0.8412 H   0  0  0  0  0  0  0  0  0  0  0  0
    4.9434   -4.2400   -0.2164 H   0  0  0  0  0  0  0  0  0  0  0  0
  1 12  1  0  0  0  0
  1 14  1  0  0  0  0
  2 11  1  0  0  0  0
  2 33  1  0  0  0  0
  3 13  1  0  0  0  0
  3 34  1  0  0  0  0
  4 15  1  0  0  0  0
  4 36  1  0  0  0  0
  5 12  1  0  0  0  0
  5 16  1  0  0  0  0
  5 17  1  0  0  0  0
  6 17  2  0  0  0  0
  6 18  1  0  0  0  0
  7 16  2  0  0  0  0
  7 20  1  0  0  0  0
  8 19  1  0  0  0  0
  8 20  2  0  0  0  0
  9 20  1  0  0  0  0
  9 21  1  0  0  0  0
  9 37  1  0  0  0  0
 10 19  1  0  0  0  0
 10 38  1  0  0  0  0
 10 39  1  0  0  0  0
 11 12  1  0  0  0  0
 11 13  1  0  0  0  0
 11 27  1  0  0  0  0
 12 28  1  0  0  0  0
 13 14  1  0  0  0  0
 13 29  1  0  0  0  0
 14 15  1  0  0  0  0
 14 30  1  0  0  0  0
 15 31  1  0  0  0  0
 15 32  1  0  0  0  0
 16 18  1  0  0  0  0
 17 35  1  0  0  0  0
 18 19  2  0  0  0  0
 21 22  2  0  0  0  0
 21 23  1  0  0  0  0
 22 24  1  0  0  0  0
 22 40  1  0  0  0  0
 23 25  2  0  0  0  0
 23 41  1  0  0  0  0
 24 26  2  0  0  0  0
 24 42  1  0  0  0  0
 25 26  1  0  0  0  0
 25 43  1  0  0  0  0
 26 44  1  0  0  0  0
M  END
> <PUBCHEM_COMPOUND_CID>
11957666

> <PUBCHEM_CONFORMER_RMSD>
0.8

> <PUBCHEM_CONFORMER_DIVERSEORDER>
1
7
20
61
18
65
11
4
59
32
50
14
60
39
66
3
9
52
30
22
43
15
6
42
28
35
67
24
51
49
34
13
36
27
19
44
47
25
21
57
33
64
38
46
63
8
29
58
53
12
5
45
62
26
48
56
40
37
17
31
55
2
10
16
54
41
23

> <PUBCHEM_MMFF94_PARTIAL_CHARGES>
38
1 -0.56
10 -0.9
11 0.28
12 0.54
13 0.28
14 0.28
15 0.28
16 0.11
17 0.04
18 0.23
19 0.41
2 -0.68
20 0.72
21 0.1
22 -0.15
23 -0.15
24 -0.15
25 -0.15
26 -0.15
3 -0.68
33 0.4
34 0.4
35 0.15
36 0.4
37 0.4
38 0.4
39 0.4
4 -0.68
40 0.15
41 0.15
42 0.15
43 0.15
44 0.15
5 0.05
6 -0.57
7 -0.57
8 -0.62
9 -0.6

> <PUBCHEM_EFFECTIVE_ROTOR_COUNT>
5

> <PUBCHEM_PHARMACOPHORE_FEATURES>
16
1 1 acceptor
1 10 cation
1 10 donor
1 2 acceptor
1 2 donor
1 3 acceptor
1 3 donor
1 4 acceptor
1 4 donor
1 9 donor
3 5 6 17 cation
4 7 8 9 20 cation
5 1 11 12 13 14 rings
5 5 6 16 17 18 rings
6 21 22 23 24 25 26 rings
6 7 8 16 18 19 20 rings

> <PUBCHEM_HEAVY_ATOM_COUNT>
26

> <PUBCHEM_ATOM_DEF_STEREO_COUNT>
3

> <PUBCHEM_ATOM_UDEF_STEREO_COUNT>
1

> <PUBCHEM_BOND_DEF_STEREO_COUNT>
0

> <PUBCHEM_BOND_UDEF_STEREO_COUNT>
0

> <PUBCHEM_ISOTOPIC_ATOM_COUNT>
0

> <PUBCHEM_COMPONENT_COUNT>
1

> <PUBCHEM_CACTVS_TAUTO_COUNT>
9

> <PUBCHEM_CONFORMER_ID>
00B675A200000001

> <PUBCHEM_MMFF94_ENERGY>
76.0941

> <PUBCHEM_FEATURE_SELFOVERLAP>
81.337

> <PUBCHEM_SHAPE_FINGERPRINT>
10411042 1 18411417289201016782
10616163 171 18122910828879114534
10622 236 17629742716533781807
10693767 8 18198883968581454895
1100329 8 18265897947783863665
11135926 11 18118978116120196700
114674 6 18263358252101223938
11578080 2 17631432579694857153
12107183 9 18270979959663269769
12363563 72 18411426098426776398
12553582 1 18408608063014963266
12623949 98 17030814646739214459
12760667 363 18410577249458919630
12788726 201 18047185246258757064
13140716 1 18268435642011022792
13533116 47 18198064892489618603
13544653 18 18408608067188429230
1361 2 18341604979591092095
13631057 29 18340771434687956550
13690498 29 18196670501408402134
138480 1 14734511455478750600
14363568 33 18048342181973872306
14767858 380 18262537974099508270
14790565 3 17545606647714540032
14866123 147 18194968444196284641
14931854 50 18114464462016831206
15042514 8 18194410987021231656
15352361 1 18410293588660243022
17818456 19 17774740674959730433
1813 80 18201452371454767950
20645477 70 18118955030470007157
20775438 99 17693341814658374175
20775530 9 18335144146460390810
20832881 197 18335417959352770811
21279426 13 18261943082189560549
21478907 32 18411416172609694597
23536364 44 18190721069527883109
23559900 14 18263920119285179265
3421961 26 18340487875887287840
46194498 28 17169279345263367551
463206 1 18336831991140928750
5104073 3 18269271258643394906
5309563 4 18410019865667485338
59682541 52 18124009456028452127
613672 6 18336537300633874530
70251023 43 18339355366178614587
7970288 3 18412823573400923118
9709674 26 18336263539069884250

> <PUBCHEM_SHAPE_MULTIPOLES>
481.7
10.85
4.81
1.09
2.18
4.84
-0.06
-12.29
-2.9
1.89
0.27
-1.48
-0.75
-0.15

> <PUBCHEM_SHAPE_SELFOVERLAP>
1055.139

> <PUBCHEM_SHAPE_VOLUME>
255.4

> <PUBCHEM_COORDINATE_TYPE>
2
5
10

$$$$
