119515
  -OEChem-03292013323D

 60 62  0     1  0  0  0  0  0999 V2000
    1.6988   -0.8938   -0.6451 O   0  0  0  0  0  0  0  0  0  0  0  0
    0.6176    0.7590    0.5969 O   0  0  0  0  0  0  0  0  0  0  0  0
    4.2363   -1.7621    2.4661 O   0  0  0  0  0  0  0  0  0  0  0  0
    2.7955    0.8055    2.3967 O   0  0  0  0  0  0  0  0  0  0  0  0
    4.9159   -2.5854   -0.2373 O   0  0  0  0  0  0  0  0  0  0  0  0
   -1.6715    0.5940   -1.0023 O   0  0  0  0  0  0  0  0  0  0  0  0
    3.5920   -3.1879   -2.5102 O   0  0  0  0  0  0  0  0  0  0  0  0
    1.3541   -2.8114   -2.2955 O   0  0  0  0  0  0  0  0  0  0  0  0
    0.5274    4.2532   -0.5931 N   0  0  0  0  0  0  0  0  0  0  0  0
    3.8193   -1.0755    1.2850 C   0  0  2  0  0  0  0  0  0  0  0  0
    2.5192   -0.3212    1.5651 C   0  0  2  0  0  0  0  0  0  0  0  0
    3.6353   -2.1116    0.1757 C   0  0  1  0  0  0  0  0  0  0  0  0
    1.8820    0.1835    0.2701 C   0  0  1  0  0  0  0  0  0  0  0  0
    2.9303   -1.4962   -1.0266 C   0  0  1  0  0  0  0  0  0  0  0  0
    0.2793    1.8052   -0.3003 C   0  0  2  0  0  0  0  0  0  0  0  0
    0.8594    3.1112    0.2478 C   0  0  0  0  0  0  0  0  0  0  0  0
    2.5105   -2.5508   -1.9986 C   0  0  0  0  0  0  0  0  0  0  0  0
   -1.2392    1.8375   -0.4590 C   0  0  0  0  0  0  0  0  0  0  0  0
    1.0426    5.4892   -0.0198 C   0  0  0  0  0  0  0  0  0  0  0  0
    1.1775    6.5403   -1.1170 C   0  0  0  0  0  0  0  0  0  0  0  0
    0.1244    5.9774    1.0971 C   0  0  0  0  0  0  0  0  0  0  0  0
   -2.9196    0.1643   -0.6384 C   0  0  0  0  0  0  0  0  0  0  0  0
   -3.1056   -1.0552    0.0331 C   0  0  0  0  0  0  0  0  0  0  0  0
   -4.0092    0.9756   -0.9561 C   0  0  0  0  0  0  0  0  0  0  0  0
   -4.4155   -1.4569    0.3878 C   0  0  0  0  0  0  0  0  0  0  0  0
   -2.0206   -1.8846    0.3606 C   0  0  0  0  0  0  0  0  0  0  0  0
   -5.2972    0.5807   -0.6069 C   0  0  0  0  0  0  0  0  0  0  0  0
   -5.5007   -0.6275    0.0606 C   0  0  0  0  0  0  0  0  0  0  0  0
   -4.6018   -2.6761    1.0594 C   0  0  0  0  0  0  0  0  0  0  0  0
   -2.2242   -3.0927    1.0279 C   0  0  0  0  0  0  0  0  0  0  0  0
   -3.5123   -3.4878    1.3766 C   0  0  0  0  0  0  0  0  0  0  0  0
    4.6296   -0.3807    1.0342 H   0  0  0  0  0  0  0  0  0  0  0  0
    1.8163   -0.9573    2.1161 H   0  0  0  0  0  0  0  0  0  0  0  0
    3.0754   -2.9723    0.5639 H   0  0  0  0  0  0  0  0  0  0  0  0
    2.5406    0.9356   -0.1856 H   0  0  0  0  0  0  0  0  0  0  0  0
    3.5516   -0.7669   -1.5610 H   0  0  0  0  0  0  0  0  0  0  0  0
    0.7003    1.5919   -1.2936 H   0  0  0  0  0  0  0  0  0  0  0  0
    0.4798    3.2431    1.2681 H   0  0  0  0  0  0  0  0  0  0  0  0
    1.9481    3.0201    0.3428 H   0  0  0  0  0  0  0  0  0  0  0  0
   -1.5469    2.6384   -1.1396 H   0  0  0  0  0  0  0  0  0  0  0  0
   -1.7030    2.0041    0.5224 H   0  0  0  0  0  0  0  0  0  0  0  0
    3.5266   -2.3736    2.7268 H   0  0  0  0  0  0  0  0  0  0  0  0
    3.4145    1.3862    1.9222 H   0  0  0  0  0  0  0  0  0  0  0  0
    4.7761   -3.3316   -0.8441 H   0  0  0  0  0  0  0  0  0  0  0  0
    0.9271    4.1022   -1.5192 H   0  0  0  0  0  0  0  0  0  0  0  0
    2.0492    5.3342    0.3901 H   0  0  0  0  0  0  0  0  0  0  0  0
    0.2109    6.7597   -1.5848 H   0  0  0  0  0  0  0  0  0  0  0  0
    1.8660    6.2074   -1.9019 H   0  0  0  0  0  0  0  0  0  0  0  0
    1.5717    7.4774   -0.7090 H   0  0  0  0  0  0  0  0  0  0  0  0
   -0.9036    6.1100    0.7408 H   0  0  0  0  0  0  0  0  0  0  0  0
    0.1023    5.2884    1.9468 H   0  0  0  0  0  0  0  0  0  0  0  0
    0.4682    6.9452    1.4791 H   0  0  0  0  0  0  0  0  0  0  0  0
    3.3372   -3.8866   -3.1499 H   0  0  0  0  0  0  0  0  0  0  0  0
   -3.8711    1.9147   -1.4850 H   0  0  0  0  0  0  0  0  0  0  0  0
   -1.0019   -1.6084    0.1005 H   0  0  0  0  0  0  0  0  0  0  0  0
   -6.5162   -0.9165    0.3230 H   0  0  0  0  0  0  0  0  0  0  0  0
   -6.1454    1.2117   -0.8563 H   0  0  0  0  0  0  0  0  0  0  0  0
   -5.5998   -3.0049    1.3417 H   0  0  0  0  0  0  0  0  0  0  0  0
   -1.3763   -3.7253    1.2744 H   0  0  0  0  0  0  0  0  0  0  0  0
   -3.6700   -4.4286    1.8959 H   0  0  0  0  0  0  0  0  0  0  0  0
  1 13  1  0  0  0  0
  1 14  1  0  0  0  0
  2 13  1  0  0  0  0
  2 15  1  0  0  0  0
  3 10  1  0  0  0  0
  3 42  1  0  0  0  0
  4 11  1  0  0  0  0
  4 43  1  0  0  0  0
  5 12  1  0  0  0  0
  5 44  1  0  0  0  0
  6 18  1  0  0  0  0
  6 22  1  0  0  0  0
  7 17  1  0  0  0  0
  7 53  1  0  0  0  0
  8 17  2  0  0  0  0
  9 16  1  0  0  0  0
  9 19  1  0  0  0  0
  9 45  1  0  0  0  0
 10 11  1  0  0  0  0
 10 12  1  0  0  0  0
 10 32  1  0  0  0  0
 11 13  1  0  0  0  0
 11 33  1  0  0  0  0
 12 14  1  0  0  0  0
 12 34  1  0  0  0  0
 13 35  1  0  0  0  0
 14 17  1  0  0  0  0
 14 36  1  0  0  0  0
 15 16  1  0  0  0  0
 15 18  1  0  0  0  0
 15 37  1  0  0  0  0
 16 38  1  0  0  0  0
 16 39  1  0  0  0  0
 18 40  1  0  0  0  0
 18 41  1  0  0  0  0
 19 20  1  0  0  0  0
 19 21  1  0  0  0  0
 19 46  1  0  0  0  0
 20 47  1  0  0  0  0
 20 48  1  0  0  0  0
 20 49  1  0  0  0  0
 21 50  1  0  0  0  0
 21 51  1  0  0  0  0
 21 52  1  0  0  0  0
 22 23  1  0  0  0  0
 22 24  2  0  0  0  0
 23 25  1  0  0  0  0
 23 26  2  0  0  0  0
 24 27  1  0  0  0  0
 24 54  1  0  0  0  0
 25 28  1  0  0  0  0
 25 29  2  0  0  0  0
 26 30  1  0  0  0  0
 26 55  1  0  0  0  0
 27 28  2  0  0  0  0
 27 57  1  0  0  0  0
 28 56  1  0  0  0  0
 29 31  1  0  0  0  0
 29 58  1  0  0  0  0
 30 31  2  0  0  0  0
 30 59  1  0  0  0  0
 31 60  1  0  0  0  0
M  END
> <PUBCHEM_COMPOUND_CID>
119515

> <PUBCHEM_CONFORMER_RMSD>
1

> <PUBCHEM_CONFORMER_DIVERSEORDER>
1
154
118
93
48
20
68
162
84
111
119
156
37
107
146
140
62
117
105
139
60
2
67
130
129
52
101
80
63
138
72
158
164
163
92
64
25
143
124
100
141
12
166
121
5
39
47
43
150
87
58
69
132
77
70
131
29
33
66
134
171
88
109
159
104
57
133
148
112
85
38
95
74
81
170
83
56
168
103
113
152
49
157
115
136
53
9
123
120
169
24
59
71
99
30
36
90
137
23
82
155
32
76
50
35
27
73
102
106
145
110
97
6
167
125
51
10
147
75
7
4
44
86
108
79
165
45
26
94
28
13
96
151
153
3
91
46
161
114
41
31
65
98
18
14
144
89
126
127
149
55
135
78
122
22
40
11
8
16
21
160
42
142
17
116
172
15
19
61
128
34
54

> <PUBCHEM_MMFF94_PARTIAL_CHARGES>
39
1 -0.56
10 0.28
11 0.28
12 0.28
13 0.56
14 0.34
15 0.28
16 0.27
17 0.66
18 0.28
19 0.27
2 -0.56
22 0.08
24 -0.15
26 -0.15
27 -0.15
28 -0.15
29 -0.15
3 -0.68
30 -0.15
31 -0.15
4 -0.68
42 0.4
43 0.4
44 0.4
45 0.36
5 -0.68
53 0.5
54 0.15
55 0.15
56 0.15
57 0.15
58 0.15
59 0.15
6 -0.36
60 0.15
7 -0.65
8 -0.57
9 -0.9

> <PUBCHEM_EFFECTIVE_ROTOR_COUNT>
10.2

> <PUBCHEM_PHARMACOPHORE_FEATURES>
18
1 1 acceptor
1 2 acceptor
1 3 acceptor
1 3 donor
1 4 acceptor
1 4 donor
1 5 acceptor
1 5 donor
1 6 acceptor
1 7 acceptor
1 8 acceptor
1 9 cation
1 9 donor
3 19 20 21 hydrophobe
3 7 8 17 anion
6 1 10 11 12 13 14 rings
6 22 23 24 25 27 28 rings
6 23 25 26 29 30 31 rings

> <PUBCHEM_HEAVY_ATOM_COUNT>
31

> <PUBCHEM_ATOM_DEF_STEREO_COUNT>
5

> <PUBCHEM_ATOM_UDEF_STEREO_COUNT>
1

> <PUBCHEM_BOND_DEF_STEREO_COUNT>
0

> <PUBCHEM_BOND_UDEF_STEREO_COUNT>
0

> <PUBCHEM_ISOTOPIC_ATOM_COUNT>
0

> <PUBCHEM_COMPONENT_COUNT>
1

> <PUBCHEM_CACTVS_TAUTO_COUNT>
1

> <PUBCHEM_CONFORMER_ID>
0001D2DB00000001

> <PUBCHEM_MMFF94_ENERGY>
80.8527

> <PUBCHEM_FEATURE_SELFOVERLAP>
91.512

> <PUBCHEM_SHAPE_FINGERPRINT>
11488393 25 18047211896847521416
11578080 2 16590241281764283223
12788726 201 18191027794248041456
13402501 40 18342172220063685830
13726171 33 18117869704839784876
140371 6 18412825815368284473
14363568 33 18050588505361344094
14725015 67 17981321192873594167
14955137 171 18266453399004038952
15361156 5 18057596565149717524
15664445 248 18339937007993784300
15775530 1 18118376631768097741
20600515 1 18188198806543224700
21703447 108 17973440194405411347
23559900 14 18338519750358236549
314173 41 18408604764326923451
6823239 73 18409453604489002818
9709674 26 18264767830551146743

> <PUBCHEM_SHAPE_MULTIPOLES>
586.03
9.85
7.97
1.87
11.45
14.65
0.09
-6.19
-1.77
-10.7
1.3
-1.95
-1.79
2.02

> <PUBCHEM_SHAPE_SELFOVERLAP>
1234.105

> <PUBCHEM_SHAPE_VOLUME>
328.1

> <PUBCHEM_COORDINATE_TYPE>
2
5
10

$$$$
