11957378
  -OEChem-03292013303D

 61 64  0     1  0  0  0  0  0999 V2000
    5.1342   -1.2289    1.0213 P   0  0  1  0  0  0  0  0  0  0  0  0
    5.3217    0.7911   -1.4462 P   0  0  0  0  0  0  0  0  0  0  0  0
    5.2798   -0.9117    2.6053 O   0  0  0  0  0  0  0  0  0  0  0  0
    6.0988   -2.2890    0.5709 O   0  0  0  0  0  0  0  0  0  0  0  0
    5.9664    2.2663   -1.5811 O   0  0  0  0  0  0  0  0  0  0  0  0
    6.3858   -0.1591   -2.2045 O   0  0  0  0  0  0  0  0  0  0  0  0
    3.9010    0.6656   -1.9080 O   0  0  0  0  0  0  0  0  0  0  0  0
   -0.6889    6.1003    0.5340 N   0  0  0  0  0  0  0  0  0  0  0  0
   -4.0053    0.3596   -0.2741 N   0  0  0  0  0  0  0  0  0  0  0  0
   -1.6207   -0.0349    0.0641 N   0  0  0  0  0  0  0  0  0  0  0  0
   -5.2119   -1.7282   -0.5672 N   0  0  0  0  0  0  0  0  0  0  0  0
   -0.6727   -2.2317    0.0895 N   0  0  0  0  0  0  0  0  0  0  0  0
   -3.5242   -3.1737   -0.3893 N   0  0  0  0  0  0  0  0  0  0  0  0
   -2.4955    2.2324    0.0540 C   0  0  0  0  0  0  0  0  0  0  0  0
   -0.8204    4.6476    0.4363 C   0  0  0  0  0  0  0  0  0  0  0  0
   -1.9548    2.6230    1.4404 C   0  0  0  0  0  0  0  0  0  0  0  0
   -1.5778    2.7575   -1.0636 C   0  0  0  0  0  0  0  0  0  0  0  0
   -1.7376    4.1327    1.5503 C   0  0  0  0  0  0  0  0  0  0  0  0
   -1.3605    4.2667   -0.9461 C   0  0  0  0  0  0  0  0  0  0  0  0
   -2.7266    0.7366   -0.0611 C   0  0  0  0  0  0  0  0  0  0  0  0
   -4.0908   -0.9765   -0.3582 C   0  0  0  0  0  0  0  0  0  0  0  0
   -1.7816   -1.3767   -0.0320 C   0  0  0  0  0  0  0  0  0  0  0  0
   -3.0554   -1.8914   -0.2510 C   0  0  0  0  0  0  0  0  0  0  0  0
   -6.5590   -1.2424   -0.7442 C   0  0  0  0  0  0  0  0  0  0  0  0
   -4.8206   -3.0408   -0.5772 C   0  0  0  0  0  0  0  0  0  0  0  0
    0.7014   -1.9945    0.3098 C   0  0  0  0  0  0  0  0  0  0  0  0
    3.4154   -1.5255    0.7454 C   0  0  0  0  0  0  0  0  0  0  0  0
   -7.3043   -1.1215    0.5739 C   0  0  0  0  0  0  0  0  0  0  0  0
    1.6512   -2.8755   -0.2049 C   0  0  0  0  0  0  0  0  0  0  0  0
    1.1064   -0.8792    1.0421 C   0  0  0  0  0  0  0  0  0  0  0  0
    5.5735    0.3875    0.2985 C   0  0  0  0  0  0  0  0  0  0  0  0
    3.0089   -2.6411    0.0130 C   0  0  0  0  0  0  0  0  0  0  0  0
    2.4641   -0.6447    1.2599 C   0  0  0  0  0  0  0  0  0  0  0  0
   -3.4713    2.7250   -0.0664 H   0  0  0  0  0  0  0  0  0  0  0  0
    0.1750    4.2031    0.5627 H   0  0  0  0  0  0  0  0  0  0  0  0
   -1.0051    2.1097    1.6389 H   0  0  0  0  0  0  0  0  0  0  0  0
   -2.6538    2.2986    2.2212 H   0  0  0  0  0  0  0  0  0  0  0  0
   -2.0119    2.5281   -2.0447 H   0  0  0  0  0  0  0  0  0  0  0  0
   -0.6041    2.2516   -1.0272 H   0  0  0  0  0  0  0  0  0  0  0  0
   -1.3063    4.3627    2.5325 H   0  0  0  0  0  0  0  0  0  0  0  0
   -2.7109    4.6390    1.5047 H   0  0  0  0  0  0  0  0  0  0  0  0
   -2.3117    4.7813   -1.1366 H   0  0  0  0  0  0  0  0  0  0  0  0
   -0.6625    4.5908   -1.7279 H   0  0  0  0  0  0  0  0  0  0  0  0
   -0.0394    6.4348   -0.1766 H   0  0  0  0  0  0  0  0  0  0  0  0
   -0.2828    6.3485    1.4353 H   0  0  0  0  0  0  0  0  0  0  0  0
   -0.8853   -3.2012   -0.1303 H   0  0  0  0  0  0  0  0  0  0  0  0
   -7.0795   -1.9355   -1.4144 H   0  0  0  0  0  0  0  0  0  0  0  0
   -6.5086   -0.2717   -1.2491 H   0  0  0  0  0  0  0  0  0  0  0  0
   -5.5201   -3.8525   -0.7236 H   0  0  0  0  0  0  0  0  0  0  0  0
   -7.3708   -2.0902    1.0806 H   0  0  0  0  0  0  0  0  0  0  0  0
   -8.3211   -0.7549    0.4029 H   0  0  0  0  0  0  0  0  0  0  0  0
   -6.7990   -0.4245    1.2510 H   0  0  0  0  0  0  0  0  0  0  0  0
    1.3475   -3.7474   -0.7785 H   0  0  0  0  0  0  0  0  0  0  0  0
    0.3961   -0.1899    1.4867 H   0  0  0  0  0  0  0  0  0  0  0  0
    5.0175    1.1433    0.8649 H   0  0  0  0  0  0  0  0  0  0  0  0
    6.6334    0.5502    0.5250 H   0  0  0  0  0  0  0  0  0  0  0  0
    3.7415   -3.3321   -0.3933 H   0  0  0  0  0  0  0  0  0  0  0  0
    2.7711    0.2227    1.8372 H   0  0  0  0  0  0  0  0  0  0  0  0
    5.0741   -1.6207    3.2515 H   0  0  0  0  0  0  0  0  0  0  0  0
    5.9228    2.7266   -2.4462 H   0  0  0  0  0  0  0  0  0  0  0  0
    6.4196   -0.1470   -3.1847 H   0  0  0  0  0  0  0  0  0  0  0  0
  1  3  1  0  0  0  0
  1  4  2  0  0  0  0
  1 27  1  0  0  0  0
  1 31  1  0  0  0  0
  2  5  1  0  0  0  0
  2  6  1  0  0  0  0
  2  7  2  0  0  0  0
  2 31  1  0  0  0  0
  3 59  1  0  0  0  0
  5 60  1  0  0  0  0
  6 61  1  0  0  0  0
  8 15  1  0  0  0  0
  8 44  1  0  0  0  0
  8 45  1  0  0  0  0
  9 20  1  0  0  0  0
  9 21  2  0  0  0  0
 10 20  2  0  0  0  0
 10 22  1  0  0  0  0
 11 21  1  0  0  0  0
 11 24  1  0  0  0  0
 11 25  1  0  0  0  0
 12 22  1  0  0  0  0
 12 26  1  0  0  0  0
 12 46  1  0  0  0  0
 13 23  1  0  0  0  0
 13 25  2  0  0  0  0
 14 16  1  0  0  0  0
 14 17  1  0  0  0  0
 14 20  1  0  0  0  0
 14 34  1  0  0  0  0
 15 18  1  0  0  0  0
 15 19  1  0  0  0  0
 15 35  1  0  0  0  0
 16 18  1  0  0  0  0
 16 36  1  0  0  0  0
 16 37  1  0  0  0  0
 17 19  1  0  0  0  0
 17 38  1  0  0  0  0
 17 39  1  0  0  0  0
 18 40  1  0  0  0  0
 18 41  1  0  0  0  0
 19 42  1  0  0  0  0
 19 43  1  0  0  0  0
 21 23  1  0  0  0  0
 22 23  2  0  0  0  0
 24 28  1  0  0  0  0
 24 47  1  0  0  0  0
 24 48  1  0  0  0  0
 25 49  1  0  0  0  0
 26 29  2  0  0  0  0
 26 30  1  0  0  0  0
 27 32  2  0  0  0  0
 27 33  1  0  0  0  0
 28 50  1  0  0  0  0
 28 51  1  0  0  0  0
 28 52  1  0  0  0  0
 29 32  1  0  0  0  0
 29 53  1  0  0  0  0
 30 33  2  0  0  0  0
 30 54  1  0  0  0  0
 31 55  1  0  0  0  0
 31 56  1  0  0  0  0
 32 57  1  0  0  0  0
 33 58  1  0  0  0  0
M  END
> <PUBCHEM_COMPOUND_CID>
11957378

> <PUBCHEM_CONFORMER_RMSD>
1

> <PUBCHEM_CONFORMER_DIVERSEORDER>
1
69
39
62
21
77
58
63
20
46
80
75
16
47
27
13
52
73
49
36
34
51
48
66
18
61
78
30
57
25
71
15
37
22
82
43
31
79
17
45
29
65
19
50
54
81
28
59
76
32
70
26
12
3
67
38
10
11
74
68
35
2
23
55
56
14
64
60
41
72
40
8
4
9
42
6
24
7
44
33
5
53

> <PUBCHEM_MMFF94_PARTIAL_CHARGES>
38
1 1.11
10 -0.62
11 0.05
12 -0.6
13 -0.57
14 0.14
15 0.27
2 1.24
20 0.48
21 0.11
22 0.41
23 0.23
24 0.26
25 0.04
26 0.1
27 -0.14
29 -0.15
3 -0.77
30 -0.15
32 -0.15
33 -0.15
4 -0.7
44 0.36
45 0.36
46 0.4
49 0.15
5 -0.77
53 0.15
54 0.15
57 0.15
58 0.15
59 0.5
6 -0.77
60 0.5
61 0.5
7 -0.7
8 -0.99
9 -0.57

> <PUBCHEM_EFFECTIVE_ROTOR_COUNT>
8.2

> <PUBCHEM_PHARMACOPHORE_FEATURES>
15
1 12 cation
1 12 donor
1 5 acceptor
1 6 acceptor
1 7 acceptor
1 8 cation
1 8 donor
3 11 13 25 cation
3 9 10 20 cation
3 9 11 21 cation
4 2 5 6 7 anion
5 11 13 21 23 25 rings
6 14 15 16 17 18 19 rings
6 26 27 29 30 32 33 rings
6 9 10 20 21 22 23 rings

> <PUBCHEM_HEAVY_ATOM_COUNT>
33

> <PUBCHEM_ATOM_DEF_STEREO_COUNT>
0

> <PUBCHEM_ATOM_UDEF_STEREO_COUNT>
0

> <PUBCHEM_BOND_DEF_STEREO_COUNT>
0

> <PUBCHEM_BOND_UDEF_STEREO_COUNT>
0

> <PUBCHEM_ISOTOPIC_ATOM_COUNT>
0

> <PUBCHEM_COMPONENT_COUNT>
1

> <PUBCHEM_CACTVS_TAUTO_COUNT>
3

> <PUBCHEM_CONFORMER_ID>
00B6748200000001

> <PUBCHEM_MMFF94_ENERGY>
13.6723

> <PUBCHEM_FEATURE_SELFOVERLAP>
76.762

> <PUBCHEM_SHAPE_FINGERPRINT>
10190206 1 18263947556512427260
10670039 82 18411145714899006910
10937287 8 17475787650786592729
11059845 2 17328266206042841874
11578080 2 12678093110768093299
12107183 9 17326598216591301490
12788726 201 18262504893781866123
13560911 43 17967525796768291124
13617811 41 18343302591194741487
138480 1 14954903072503973953
14294032 229 18269847410345556801
14363568 33 17904774619191815523
14394314 77 18337397135896445997
14400156 266 17989211443866481181
15064981 194 18121225281305668365
15274700 259 17823675505844698253
15705408 1 17978773934096334205
15961568 22 18412262861050771926
16087824 20 18267859481814436629
16994733 274 15430303708473731831
19611394 137 17970918979751496139
20238998 120 18340475713210026345
21033650 10 18192169104925472670
21049683 271 18189336935007702149
21120745 212 18343313552268019073
21304253 13 18341608223224109257
21641784 216 18413114956755525544
21796203 349 18120122656554233307
22907989 373 18266446612754835733
23559900 14 18194951067080488067
23845131 108 17332246391270720417
24180151 248 18056781865530297679
24771750 20 17975980088019160493
249057 25 18041278769475637506
283562 15 18264481785782175931
469060 322 18413112749105529937
5895379 119 18265900160197715158
6608658 132 18335713740781246244
6700243 42 17916327024856567758

> <PUBCHEM_SHAPE_MULTIPOLES>
627.59
15.62
6.2
1.54
7.11
10.77
-0.01
-9.7
-3.01
-4.71
0.62
2.58
0.67
-2.71

> <PUBCHEM_SHAPE_SELFOVERLAP>
1303.714

> <PUBCHEM_SHAPE_VOLUME>
358.4

> <PUBCHEM_COORDINATE_TYPE>
2
5
10

$$$$
