119558
  -OEChem-03292013323D

 27 26  0     1  0  0  0  0  0999 V2000
   -3.9301   -0.0506   -0.3300 S   0  0  0  0  0  0  0  0  0  0  0  0
   -0.6637    1.3851    0.9175 O   0  0  0  0  0  0  0  0  0  0  0  0
    3.5049   -1.8789   -0.4977 O   0  0  0  0  0  0  0  0  0  0  0  0
   -5.2891   -0.2081    0.5563 O   0  0  0  0  0  0  0  0  0  0  0  0
    4.5979   -0.5864    1.0108 O   0  0  0  0  0  0  0  0  0  0  0  0
   -3.9524   -1.0341   -1.3936 O   0  0  0  0  0  0  0  0  0  0  0  0
   -3.6998    1.3545   -0.5959 O   0  0  0  0  0  0  0  0  0  0  0  0
   -1.4164   -0.7566    0.4240 N   0  0  0  0  0  0  0  0  0  0  0  0
    4.2009    1.5937   -0.6276 N   0  0  0  0  0  0  0  0  0  0  0  0
    1.9183    0.9100   -0.0636 C   0  0  0  0  0  0  0  0  0  0  0  0
    0.8600   -0.1942   -0.1048 C   0  0  0  0  0  0  0  0  0  0  0  0
    3.2437    0.4876   -0.7074 C   0  0  2  0  0  0  0  0  0  0  0  0
   -0.4712    0.2578    0.4703 C   0  0  0  0  0  0  0  0  0  0  0  0
   -2.7711   -0.5981    0.9096 C   0  0  0  0  0  0  0  0  0  0  0  0
    3.8679   -0.6819    0.0322 C   0  0  0  0  0  0  0  0  0  0  0  0
    2.0814    1.2010    0.9833 H   0  0  0  0  0  0  0  0  0  0  0  0
    1.5327    1.8006   -0.5774 H   0  0  0  0  0  0  0  0  0  0  0  0
    1.1874   -1.0631    0.4770 H   0  0  0  0  0  0  0  0  0  0  0  0
    0.6952   -0.5167   -1.1396 H   0  0  0  0  0  0  0  0  0  0  0  0
    3.1050    0.2230   -1.7611 H   0  0  0  0  0  0  0  0  0  0  0  0
   -3.1061   -1.5760    1.2667 H   0  0  0  0  0  0  0  0  0  0  0  0
   -2.7929    0.1246    1.7303 H   0  0  0  0  0  0  0  0  0  0  0  0
   -1.1651   -1.6506    0.0122 H   0  0  0  0  0  0  0  0  0  0  0  0
    5.0979    1.3058   -1.0163 H   0  0  0  0  0  0  0  0  0  0  0  0
    4.3701    1.8435    0.3460 H   0  0  0  0  0  0  0  0  0  0  0  0
    3.9003   -2.6307   -0.0072 H   0  0  0  0  0  0  0  0  0  0  0  0
   -5.3976    0.4459    1.2863 H   0  0  0  0  0  0  0  0  0  0  0  0
  1  4  1  0  0  0  0
  1  6  2  0  0  0  0
  1  7  2  0  0  0  0
  1 14  1  0  0  0  0
  2 13  2  0  0  0  0
  3 15  1  0  0  0  0
  3 26  1  0  0  0  0
  4 27  1  0  0  0  0
  5 15  2  0  0  0  0
  8 13  1  0  0  0  0
  8 14  1  0  0  0  0
  8 23  1  0  0  0  0
  9 12  1  0  0  0  0
  9 24  1  0  0  0  0
  9 25  1  0  0  0  0
 10 11  1  0  0  0  0
 10 12  1  0  0  0  0
 10 16  1  0  0  0  0
 10 17  1  0  0  0  0
 11 13  1  0  0  0  0
 11 18  1  0  0  0  0
 11 19  1  0  0  0  0
 12 15  1  0  0  0  0
 12 20  1  0  0  0  0
 14 21  1  0  0  0  0
 14 22  1  0  0  0  0
M  END
> <PUBCHEM_COMPOUND_CID>
119558

> <PUBCHEM_CONFORMER_RMSD>
0.8

> <PUBCHEM_CONFORMER_DIVERSEORDER>
1
77
71
12
25
11
52
58
37
4
31
2
79
24
40
43
20
61
56
5
68
3
13
80
30
39
18
76
8
67
53
65
64
29
22
69
47
78
9
32
51
70
17
50
75
36
55
7
62
46
42
35
10
16
60
81
23
14
83
63
38
19
54
21
48
26
82
6
49
72
33
34
15
59
57
41
74
27
45
44
28
66
73

> <PUBCHEM_MMFF94_PARTIAL_CHARGES>
19
1 1.38
11 0.06
12 0.33
13 0.57
14 0.41
15 0.66
2 -0.57
23 0.37
24 0.36
25 0.36
26 0.5
27 0.5
3 -0.65
4 -0.68
5 -0.57
6 -0.65
7 -0.65
8 -0.73
9 -0.99

> <PUBCHEM_EFFECTIVE_ROTOR_COUNT>
7

> <PUBCHEM_PHARMACOPHORE_FEATURES>
11
1 2 acceptor
1 3 acceptor
1 4 acceptor
1 5 acceptor
1 6 acceptor
1 7 acceptor
1 8 donor
1 9 cation
1 9 donor
3 3 5 15 anion
4 1 4 6 7 anion

> <PUBCHEM_HEAVY_ATOM_COUNT>
15

> <PUBCHEM_ATOM_DEF_STEREO_COUNT>
1

> <PUBCHEM_ATOM_UDEF_STEREO_COUNT>
0

> <PUBCHEM_BOND_DEF_STEREO_COUNT>
0

> <PUBCHEM_BOND_UDEF_STEREO_COUNT>
0

> <PUBCHEM_ISOTOPIC_ATOM_COUNT>
0

> <PUBCHEM_COMPONENT_COUNT>
1

> <PUBCHEM_CACTVS_TAUTO_COUNT>
2

> <PUBCHEM_CONFORMER_ID>
0001D30600000001

> <PUBCHEM_MMFF94_ENERGY>
10.7693

> <PUBCHEM_FEATURE_SELFOVERLAP>
55.937

> <PUBCHEM_SHAPE_FINGERPRINT>
11287383 113 17676774261701624131
11401426 45 17988921171836366611
11987891 27 18060697294918361574
12815109 37 17847058878474384371
12916748 109 16660646275824698613
14251717 144 18411982442773445142
15375358 24 18187086195655325986
17834072 14 18407761421749629588
17834072 33 18412545431418092724
17834072 8 17530962462464435134
18186145 218 17022901259062171609
1986462 14 17022906765632355347
200 152 18413107247289034330
20281475 54 17775008976707065666
20645477 56 17168149008681642429
20645477 70 18260553312066061130
20828058 21 13840264792790708323
21501925 9 18411981339298633426
22485316 2 17847058887159296823
22646028 1 18060138755938460199
22854114 59 12967130514456203902
23402539 116 18334006164631508429
23402655 69 18412266116456731524
23557571 272 14763806155815100169
23559900 14 18335703892563693544
32948 21 16660638510481551638
4990 188 15140959534926213234
5374978 207 18343582949775042384
90127 26 13623533437126347318
9882013 296 12031785872522433939

> <PUBCHEM_SHAPE_MULTIPOLES>
267.36
11.05
1.39
0.99
2.39
0.08
0.06
-1.08
1.07
-0.93
0.16
0.38
-0.09
-0.28

> <PUBCHEM_SHAPE_SELFOVERLAP>
504.692

> <PUBCHEM_SHAPE_VOLUME>
164.9

> <PUBCHEM_COORDINATE_TYPE>
2
5
10

$$$$
