11969982
  -OEChem-03292013303D

 33 34  0     1  0  0  0  0  0999 V2000
    0.7341    1.3455    2.5437 O   0  0  0  0  0  0  0  0  0  0  0  0
    0.8089   -0.9285    2.6832 O   0  0  0  0  0  0  0  0  0  0  0  0
   -4.0170    1.3885   -1.5111 O   0  0  0  0  0  0  0  0  0  0  0  0
   -3.5405    2.0565    0.6155 O   0  0  0  0  0  0  0  0  0  0  0  0
    4.7053    0.5802   -1.1116 O   0  0  0  0  0  0  0  0  0  0  0  0
    3.2076    2.2360   -1.5293 O   0  0  0  0  0  0  0  0  0  0  0  0
   -1.2112    0.8056    0.6625 N   0  0  0  0  0  0  0  0  0  0  0  0
   -0.9178   -2.9611   -0.9390 N   0  0  0  0  0  0  0  0  0  0  0  0
    0.8914   -2.2472    0.1621 N   0  0  0  0  0  0  0  0  0  0  0  0
    0.1184    0.1367    0.6202 C   0  0  1  0  0  0  0  0  0  0  0  0
   -2.0002    0.6313   -0.5796 C   0  0  1  0  0  0  0  0  0  0  0  0
   -0.0413   -1.2464    0.0863 C   0  0  0  0  0  0  0  0  0  0  0  0
   -2.3580   -0.8472   -0.8663 C   0  0  0  0  0  0  0  0  0  0  0  0
    1.1169    0.9554   -0.2025 C   0  0  0  0  0  0  0  0  0  0  0  0
   -1.1581   -1.6662   -0.5974 C   0  0  0  0  0  0  0  0  0  0  0  0
    0.5885    0.0922    2.0484 C   0  0  0  0  0  0  0  0  0  0  0  0
    2.5074    0.3408   -0.2073 C   0  0  0  0  0  0  0  0  0  0  0  0
   -3.2471    1.4377   -0.3966 C   0  0  0  0  0  0  0  0  0  0  0  0
    0.3316   -3.2660   -0.4598 C   0  0  0  0  0  0  0  0  0  0  0  0
    3.4812    1.1560   -1.0214 C   0  0  0  0  0  0  0  0  0  0  0  0
   -1.4516    1.0687   -1.4228 H   0  0  0  0  0  0  0  0  0  0  0  0
   -1.0763    1.8015    0.8413 H   0  0  0  0  0  0  0  0  0  0  0  0
   -2.6801   -0.9639   -1.9074 H   0  0  0  0  0  0  0  0  0  0  0  0
   -3.1820   -1.1821   -0.2242 H   0  0  0  0  0  0  0  0  0  0  0  0
    0.7788    1.0371   -1.2444 H   0  0  0  0  0  0  0  0  0  0  0  0
    1.1802    1.9884    0.1668 H   0  0  0  0  0  0  0  0  0  0  0  0
    2.9141    0.2664    0.8064 H   0  0  0  0  0  0  0  0  0  0  0  0
    2.5009   -0.6500   -0.6687 H   0  0  0  0  0  0  0  0  0  0  0  0
   -1.5341   -3.5812   -1.4478 H   0  0  0  0  0  0  0  0  0  0  0  0
    0.7718   -4.2431   -0.5993 H   0  0  0  0  0  0  0  0  0  0  0  0
    1.0408    1.3378    3.4754 H   0  0  0  0  0  0  0  0  0  0  0  0
   -4.8415    1.9102   -1.4104 H   0  0  0  0  0  0  0  0  0  0  0  0
    5.3300    1.1276   -1.6334 H   0  0  0  0  0  0  0  0  0  0  0  0
  1 16  1  0  0  0  0
  1 31  1  0  0  0  0
  2 16  2  0  0  0  0
  3 18  1  0  0  0  0
  3 32  1  0  0  0  0
  4 18  2  0  0  0  0
  5 20  1  0  0  0  0
  5 33  1  0  0  0  0
  6 20  2  0  0  0  0
  7 10  1  0  0  0  0
  7 11  1  0  0  0  0
  7 22  1  0  0  0  0
  8 15  1  0  0  0  0
  8 19  1  0  0  0  0
  8 29  1  0  0  0  0
  9 12  1  0  0  0  0
  9 19  2  0  0  0  0
 10 12  1  0  0  0  0
 10 14  1  0  0  0  0
 10 16  1  0  0  0  0
 11 13  1  0  0  0  0
 11 18  1  0  0  0  0
 11 21  1  0  0  0  0
 12 15  2  0  0  0  0
 13 15  1  0  0  0  0
 13 23  1  0  0  0  0
 13 24  1  0  0  0  0
 14 17  1  0  0  0  0
 14 25  1  0  0  0  0
 14 26  1  0  0  0  0
 17 20  1  0  0  0  0
 17 27  1  0  0  0  0
 17 28  1  0  0  0  0
 19 30  1  0  0  0  0
M  END
> <PUBCHEM_COMPOUND_CID>
11969982

> <PUBCHEM_CONFORMER_RMSD>
0.8

> <PUBCHEM_CONFORMER_DIVERSEORDER>
1
15
12
11
6
14
13
8
16
5
10
18
4
17
7
9
3
2

> <PUBCHEM_MMFF94_PARTIAL_CHARGES>
25
1 -0.65
10 0.51
11 0.33
12 0.05
13 0.18
15 -0.33
16 0.66
17 0.06
18 0.66
19 0.04
2 -0.57
20 0.66
22 0.36
29 0.27
3 -0.65
30 0.15
31 0.5
32 0.5
33 0.5
4 -0.57
5 -0.65
6 -0.57
7 -0.9
8 0.03
9 -0.57

> <PUBCHEM_EFFECTIVE_ROTOR_COUNT>
5.8

> <PUBCHEM_PHARMACOPHORE_FEATURES>
15
1 1 acceptor
1 2 acceptor
1 3 acceptor
1 4 acceptor
1 5 acceptor
1 6 acceptor
1 7 cation
1 7 donor
1 8 donor
3 1 2 16 anion
3 3 4 18 anion
3 5 6 20 anion
3 8 9 19 cation
5 8 9 12 15 19 rings
6 7 10 11 12 13 15 rings

> <PUBCHEM_HEAVY_ATOM_COUNT>
20

> <PUBCHEM_ATOM_DEF_STEREO_COUNT>
1

> <PUBCHEM_ATOM_UDEF_STEREO_COUNT>
1

> <PUBCHEM_BOND_DEF_STEREO_COUNT>
0

> <PUBCHEM_BOND_UDEF_STEREO_COUNT>
0

> <PUBCHEM_ISOTOPIC_ATOM_COUNT>
0

> <PUBCHEM_COMPONENT_COUNT>
1

> <PUBCHEM_CACTVS_TAUTO_COUNT>
2

> <PUBCHEM_CONFORMER_ID>
00B6A5BE00000001

> <PUBCHEM_MMFF94_ENERGY>
33.7839

> <PUBCHEM_FEATURE_SELFOVERLAP>
76.396

> <PUBCHEM_SHAPE_FINGERPRINT>
10756046 70 17897979418325997490
11315181 36 17560818641094205604
11578080 2 17411917445298927496
12035759 4 17411920383066489718
12173636 292 18338797952037293604
12491281 212 18187649171204529684
12592029 89 18335996271934796058
13898156 1 17681233914986401106
14022347 108 17616230916660460539
14251751 93 18334581282058240191
14713325 29 18189634888903872450
14817 1 10188781574504586930
15502708 8 18124038089630888910
15534591 1 17894915190935346576
16752209 62 18194659670386620967
16945 1 17346605174607953744
17134986 127 18335416846376025412
19765921 60 17916041074260170017
20473742 2 17970628480710327310
20645476 183 18335134319264312582
20671657 53 14333407860887165080
21330990 113 17906773445479674163
21524375 3 18113340833567010572
21756936 100 17096094713717038772
22802520 49 17626945635733939926
23382010 3 18131066060581651852
23419403 2 17467684395781090363
23526113 38 17202196515986094762
23557571 272 17692797599187877240
2748010 2 17335604788516669599
298252 57 18334580152561086056
5845 1 10548169156551230447
68419 9 17682082759416710234
81228 2 17694485349805688035

> <PUBCHEM_SHAPE_MULTIPOLES>
361.43
5.61
2.94
1.87
1.62
2.39
-1.5
-4.96
3.63
-0.71
0.75
0.79
-0.51
-0.74

> <PUBCHEM_SHAPE_SELFOVERLAP>
774.802

> <PUBCHEM_SHAPE_VOLUME>
197.5

> <PUBCHEM_COORDINATE_TYPE>
2
5
10

$$$$
