11965767
  -OEChem-03292013303D

 52 54  0     1  0  0  0  0  0999 V2000
   -4.5005   -1.1262    0.3093 S   0  0  0  0  0  0  0  0  0  0  0  0
    1.4255   -1.6452   -1.1099 S   0  0  0  0  0  0  0  0  0  0  0  0
   -3.5561    4.0373    0.0458 O   0  0  0  0  0  0  0  0  0  0  0  0
   -2.5271    1.3780   -0.3025 N   0  0  0  0  0  0  0  0  0  0  0  0
   -0.7273   -0.1417   -0.6651 N   0  0  0  0  0  0  0  0  0  0  0  0
   -0.9981   -2.5436   -0.4729 N   0  0  0  0  0  0  0  0  0  0  0  0
   -3.1877   -3.3424    0.1043 N   0  0  0  0  0  0  0  0  0  0  0  0
   -5.4689   -3.5739    0.6745 N   0  0  0  0  0  0  0  0  0  0  0  0
   -0.9007    2.9090    0.6905 C   0  0  0  0  0  0  0  0  0  0  0  0
   -1.7223    2.5552   -0.5608 C   0  0  2  0  0  0  0  0  0  0  0  0
    0.0710    4.0968    0.5182 C   0  0  0  0  0  0  0  0  0  0  0  0
   -2.6416    3.7033   -0.9904 C   0  0  0  0  0  0  0  0  0  0  0  0
    1.0421    3.8053   -0.6299 C   0  0  0  0  0  0  0  0  0  0  0  0
    0.8598    4.3991    1.7930 C   0  0  0  0  0  0  0  0  0  0  0  0
   -2.0327    0.0878   -0.3577 C   0  0  0  0  0  0  0  0  0  0  0  0
   -2.8377   -1.0284   -0.1025 C   0  0  0  0  0  0  0  0  0  0  0  0
   -2.3015   -2.3157   -0.1663 C   0  0  0  0  0  0  0  0  0  0  0  0
    2.2406   -0.7315    0.2291 C   0  0  2  0  0  0  0  0  0  0  0  0
   -0.2981   -1.4187   -0.7033 C   0  0  0  0  0  0  0  0  0  0  0  0
    3.7474   -0.7870    0.0875 C   0  0  0  0  0  0  0  0  0  0  0  0
    1.7338   -1.2481    1.5762 C   0  0  0  0  0  0  0  0  0  0  0  0
   -4.3703   -2.8339    0.3667 C   0  0  0  0  0  0  0  0  0  0  0  0
    4.3850    0.1479   -0.7087 C   0  0  0  0  0  0  0  0  0  0  0  0
    4.4523   -1.7711    0.7577 C   0  0  0  0  0  0  0  0  0  0  0  0
    5.7727    0.0971   -0.8391 C   0  0  0  0  0  0  0  0  0  0  0  0
    5.8402   -1.8218    0.6273 C   0  0  0  0  0  0  0  0  0  0  0  0
    6.5003   -0.8877   -0.1711 C   0  0  0  0  0  0  0  0  0  0  0  0
   -1.5773    3.1235    1.5285 H   0  0  0  0  0  0  0  0  0  0  0  0
   -0.3201    2.0318    1.0067 H   0  0  0  0  0  0  0  0  0  0  0  0
   -1.0603    2.3419   -1.4072 H   0  0  0  0  0  0  0  0  0  0  0  0
   -0.4973    5.0010    0.2727 H   0  0  0  0  0  0  0  0  0  0  0  0
   -2.0730    4.5979   -1.2599 H   0  0  0  0  0  0  0  0  0  0  0  0
   -3.2283    3.4050   -1.8670 H   0  0  0  0  0  0  0  0  0  0  0  0
   -3.4926    1.5009   -0.0172 H   0  0  0  0  0  0  0  0  0  0  0  0
    1.5435    2.8409   -0.4966 H   0  0  0  0  0  0  0  0  0  0  0  0
    0.5359    3.8028   -1.5995 H   0  0  0  0  0  0  0  0  0  0  0  0
    1.8166    4.5785   -0.6851 H   0  0  0  0  0  0  0  0  0  0  0  0
    0.1805    4.6246    2.6216 H   0  0  0  0  0  0  0  0  0  0  0  0
    1.4800    3.5454    2.0866 H   0  0  0  0  0  0  0  0  0  0  0  0
    1.5161    5.2644    1.6524 H   0  0  0  0  0  0  0  0  0  0  0  0
   -4.1137    4.7607   -0.2878 H   0  0  0  0  0  0  0  0  0  0  0  0
    1.9381    0.3211    0.1565 H   0  0  0  0  0  0  0  0  0  0  0  0
    1.7985   -2.3380    1.6742 H   0  0  0  0  0  0  0  0  0  0  0  0
    2.3045   -0.8054    2.4020 H   0  0  0  0  0  0  0  0  0  0  0  0
    0.6899   -0.9654    1.7518 H   0  0  0  0  0  0  0  0  0  0  0  0
    3.8276    0.9188   -1.2330 H   0  0  0  0  0  0  0  0  0  0  0  0
    3.9739   -2.5252    1.3728 H   0  0  0  0  0  0  0  0  0  0  0  0
    6.2867    0.8242   -1.4609 H   0  0  0  0  0  0  0  0  0  0  0  0
    6.4070   -2.5909    1.1438 H   0  0  0  0  0  0  0  0  0  0  0  0
    7.5808   -0.9279   -0.2735 H   0  0  0  0  0  0  0  0  0  0  0  0
   -6.3661   -3.1424    0.8709 H   0  0  0  0  0  0  0  0  0  0  0  0
   -5.4354   -4.5870    0.7190 H   0  0  0  0  0  0  0  0  0  0  0  0
  1 16  1  0  0  0  0
  1 22  1  0  0  0  0
  2 18  1  0  0  0  0
  2 19  1  0  0  0  0
  3 12  1  0  0  0  0
  3 41  1  0  0  0  0
  4 10  1  0  0  0  0
  4 15  1  0  0  0  0
  4 34  1  0  0  0  0
  5 15  2  0  0  0  0
  5 19  1  0  0  0  0
  6 17  1  0  0  0  0
  6 19  2  0  0  0  0
  7 17  1  0  0  0  0
  7 22  2  0  0  0  0
  8 22  1  0  0  0  0
  8 51  1  0  0  0  0
  8 52  1  0  0  0  0
  9 10  1  0  0  0  0
  9 11  1  0  0  0  0
  9 28  1  0  0  0  0
  9 29  1  0  0  0  0
 10 12  1  0  0  0  0
 10 30  1  0  0  0  0
 11 13  1  0  0  0  0
 11 14  1  0  0  0  0
 11 31  1  0  0  0  0
 12 32  1  0  0  0  0
 12 33  1  0  0  0  0
 13 35  1  0  0  0  0
 13 36  1  0  0  0  0
 13 37  1  0  0  0  0
 14 38  1  0  0  0  0
 14 39  1  0  0  0  0
 14 40  1  0  0  0  0
 15 16  1  0  0  0  0
 16 17  2  0  0  0  0
 18 20  1  0  0  0  0
 18 21  1  0  0  0  0
 18 42  1  0  0  0  0
 20 23  2  0  0  0  0
 20 24  1  0  0  0  0
 21 43  1  0  0  0  0
 21 44  1  0  0  0  0
 21 45  1  0  0  0  0
 23 25  1  0  0  0  0
 23 46  1  0  0  0  0
 24 26  2  0  0  0  0
 24 47  1  0  0  0  0
 25 27  2  0  0  0  0
 25 48  1  0  0  0  0
 26 27  1  0  0  0  0
 26 49  1  0  0  0  0
 27 50  1  0  0  0  0
M  END
> <PUBCHEM_COMPOUND_CID>
11965767

> <PUBCHEM_CONFORMER_RMSD>
1

> <PUBCHEM_CONFORMER_DIVERSEORDER>
2
105
86
25
50
107
16
65
71
84
18
77
78
61
72
67
38
76
8
51
106
74
36
27
97
45
21
80
79
26
58
103
9
1
96
55
53
57
75
59
43
14
87
40
64
24
100
99
56
19
17
52
41
83
69
91
68
73
60
62
88
94
29
82
22
34
48
6
30
54
98
90
63
85
81
95
23
89
7
28
20
102
12
32
42
35
33
47
37
66
70
11
49
39
104
31
5
15
92
10
44
46
3
4
101
13
93

> <PUBCHEM_MMFF94_PARTIAL_CHARGES>
31
1 -0.08
10 0.37
12 0.28
15 0.41
16 0.04
17 0.48
18 0.37
19 0.72
2 -0.33
20 -0.14
22 0.46
23 -0.15
24 -0.15
25 -0.15
26 -0.15
27 -0.15
3 -0.68
34 0.4
4 -0.87
41 0.4
46 0.15
47 0.15
48 0.15
49 0.15
5 -0.62
50 0.15
51 0.4
52 0.4
6 -0.57
7 -0.57
8 -0.88

> <PUBCHEM_EFFECTIVE_ROTOR_COUNT>
8

> <PUBCHEM_PHARMACOPHORE_FEATURES>
12
1 21 hydrophobe
1 3 acceptor
1 3 donor
1 4 donor
1 8 donor
3 11 13 14 hydrophobe
3 4 5 15 cation
3 5 6 19 cation
3 7 8 22 cation
5 1 7 16 17 22 rings
6 20 23 24 25 26 27 rings
6 5 6 15 16 17 19 rings

> <PUBCHEM_HEAVY_ATOM_COUNT>
27

> <PUBCHEM_ATOM_DEF_STEREO_COUNT>
2

> <PUBCHEM_ATOM_UDEF_STEREO_COUNT>
0

> <PUBCHEM_BOND_DEF_STEREO_COUNT>
0

> <PUBCHEM_BOND_UDEF_STEREO_COUNT>
0

> <PUBCHEM_ISOTOPIC_ATOM_COUNT>
0

> <PUBCHEM_COMPONENT_COUNT>
1

> <PUBCHEM_CACTVS_TAUTO_COUNT>
8

> <PUBCHEM_CONFORMER_ID>
00B6954700000002

> <PUBCHEM_MMFF94_ENERGY>
61.4536

> <PUBCHEM_FEATURE_SELFOVERLAP>
61.102

> <PUBCHEM_SHAPE_FINGERPRINT>
10411042 1 18337673147911996551
10595046 47 18259987085453642982
1100329 8 18411140217072407465
12107183 9 17684921411342191618
12156800 1 15694672529749025448
12166972 35 17822295733945276838
12236239 1 17821728359975742686
12741549 16 17704354394145864531
12788726 201 18261105266497296139
13073987 5 18335413557512907138
13726171 33 18342746178709195520
138480 1 15600608901833660013
13911987 19 17903061245322395557
14251757 5 18268424647100284976
14363568 33 18126001800540279888
14713325 29 18199190594590595098
14866123 147 18411140200050612041
15876981 60 18334860502504129820
15968369 26 17178832044151190271
17844677 252 18408610236833073190
20101258 96 18337114561338788907
20642791 105 18334013861302573941
20771845 171 17319297906348623775
21033650 10 18191613894772014550
21049683 271 18119257413052109380
21133410 221 17554560177632691784
21304253 13 18342464772488390659
2297311 6 18412271652981124350
23557571 272 18270965644136078878
23559900 14 18196363934926818491
23598288 3 18339353085292888190
4058900 60 17547572582883779241
4409770 3 18262512590510543893
469060 322 18341631299197408282
5104073 3 18261940853323489378
5171179 24 18200014274929108977
5385378 56 17691976273050526481
6700243 42 17914927355271171630
7808743 9 18265050232750007536
9981440 41 17760086211922529601

> <PUBCHEM_SHAPE_MULTIPOLES>
532.57
11.87
6.27
1.13
13.79
7.69
0.24
-10.25
0.43
-7.44
1.24
0.47
0.47
0.66

> <PUBCHEM_SHAPE_SELFOVERLAP>
1094.688

> <PUBCHEM_SHAPE_VOLUME>
309.2

> <PUBCHEM_COORDINATE_TYPE>
2
5
10

$$$$
