11968045
  -OEChem-03292013303D

 67 71  0     1  0  0  0  0  0999 V2000
    4.9694   -1.0397   -0.0419 O   0  0  0  0  0  0  0  0  0  0  0  0
    2.5889   -0.5982   -1.9138 O   0  0  0  0  0  0  0  0  0  0  0  0
    1.1351    2.0260    0.5547 O   0  0  0  0  0  0  0  0  0  0  0  0
   -0.6242   -1.4487    0.9006 O   0  0  0  0  0  0  0  0  0  0  0  0
    1.5767    4.2987    0.6101 O   0  0  0  0  0  0  0  0  0  0  0  0
   -1.9980   -0.3129    2.3648 O   0  0  0  0  0  0  0  0  0  0  0  0
   -3.7924    0.9778   -0.2711 O   0  0  0  0  0  0  0  0  0  0  0  0
   -4.6866    1.6900   -2.2792 O   0  0  0  0  0  0  0  0  0  0  0  0
    2.8983    0.2094    0.7998 C   0  0  2  0  0  0  0  0  0  0  0  0
    4.0552    0.0381   -0.1573 C   0  0  2  0  0  0  0  0  0  0  0  0
    1.7907   -0.9110    0.4503 C   0  0  1  0  0  0  0  0  0  0  0  0
    3.5177    0.4051   -1.4904 C   0  0  2  0  0  0  0  0  0  0  0  0
    2.5004    1.6792    0.3280 C   0  0  1  0  0  0  0  0  0  0  0  0
    5.5120    0.2725    0.1831 C   0  0  0  0  0  0  0  0  0  0  0  0
    2.8167    1.7365   -1.1924 C   0  0  0  0  0  0  0  0  0  0  0  0
    1.4321   -0.8047   -1.0756 C   0  0  2  0  0  0  0  0  0  0  0  0
    3.2834    0.2220    2.2814 C   0  0  0  0  0  0  0  0  0  0  0  0
    2.3445   -2.3608    0.6841 C   0  0  0  0  0  0  0  0  0  0  0  0
    0.5359   -0.7514    1.3853 C   0  0  0  0  0  0  0  0  0  0  0  0
    0.7523   -2.0185   -1.6564 C   0  0  0  0  0  0  0  0  0  0  0  0
    1.3962   -3.4867    0.2502 C   0  0  0  0  0  0  0  0  0  0  0  0
    0.7189   -3.2258   -1.0683 C   0  0  0  0  0  0  0  0  0  0  0  0
    0.8199    3.3421    0.6605 C   0  0  0  0  0  0  0  0  0  0  0  0
   -0.0081   -4.3864   -1.6797 C   0  0  0  0  0  0  0  0  0  0  0  0
   -1.8111   -1.1427    1.4915 C   0  0  0  0  0  0  0  0  0  0  0  0
   -0.6234    3.4646    0.9472 C   0  0  0  0  0  0  0  0  0  0  0  0
   -2.8388   -2.0253    0.8896 C   0  0  0  0  0  0  0  0  0  0  0  0
   -1.5940    2.9973    0.1478 C   0  0  0  0  0  0  0  0  0  0  0  0
   -4.1565   -1.7603    0.8106 C   0  0  0  0  0  0  0  0  0  0  0  0
   -1.4177    2.3864   -1.1528 C   0  0  0  0  0  0  0  0  0  0  0  0
   -4.8498   -0.5065    1.3056 C   0  0  0  0  0  0  0  0  0  0  0  0
   -5.0740   -2.7697    0.1645 C   0  0  0  0  0  0  0  0  0  0  0  0
   -5.0731    0.5096    0.1859 C   0  0  0  0  0  0  0  0  0  0  0  0
   -2.3477    1.7771   -1.9019 C   0  0  0  0  0  0  0  0  0  0  0  0
   -3.7490    1.5169   -1.5149 C   0  0  0  0  0  0  0  0  0  0  0  0
    4.2814    0.5117   -2.2663 H   0  0  0  0  0  0  0  0  0  0  0  0
    3.1526    2.3992    0.8433 H   0  0  0  0  0  0  0  0  0  0  0  0
    6.1658    0.6756   -0.5803 H   0  0  0  0  0  0  0  0  0  0  0  0
    5.8066    0.5157    1.1938 H   0  0  0  0  0  0  0  0  0  0  0  0
    1.9343    1.9034   -1.8163 H   0  0  0  0  0  0  0  0  0  0  0  0
    3.5129    2.5663   -1.3654 H   0  0  0  0  0  0  0  0  0  0  0  0
    0.7478    0.0378   -1.2261 H   0  0  0  0  0  0  0  0  0  0  0  0
    4.0170    1.0055    2.5013 H   0  0  0  0  0  0  0  0  0  0  0  0
    2.4189    0.4205    2.9220 H   0  0  0  0  0  0  0  0  0  0  0  0
    3.7326   -0.7265    2.5909 H   0  0  0  0  0  0  0  0  0  0  0  0
    2.6092   -2.5122    1.7369 H   0  0  0  0  0  0  0  0  0  0  0  0
    3.2620   -2.5166    0.1127 H   0  0  0  0  0  0  0  0  0  0  0  0
    0.7641   -1.1534    2.3803 H   0  0  0  0  0  0  0  0  0  0  0  0
    0.2608    0.2906    1.5256 H   0  0  0  0  0  0  0  0  0  0  0  0
    0.2589   -1.8776   -2.6154 H   0  0  0  0  0  0  0  0  0  0  0  0
    0.6370   -3.6584    1.0219 H   0  0  0  0  0  0  0  0  0  0  0  0
    1.9792   -4.4139    0.1823 H   0  0  0  0  0  0  0  0  0  0  0  0
    0.6879   -5.2067   -1.8825 H   0  0  0  0  0  0  0  0  0  0  0  0
   -0.4934   -4.1191   -2.6242 H   0  0  0  0  0  0  0  0  0  0  0  0
   -0.7841   -4.7487   -0.9977 H   0  0  0  0  0  0  0  0  0  0  0  0
   -0.8809    3.9842    1.8649 H   0  0  0  0  0  0  0  0  0  0  0  0
   -2.4580   -2.9530    0.4669 H   0  0  0  0  0  0  0  0  0  0  0  0
   -2.6174    3.1412    0.4860 H   0  0  0  0  0  0  0  0  0  0  0  0
   -0.4299    2.4809   -1.5979 H   0  0  0  0  0  0  0  0  0  0  0  0
   -5.8173   -0.7820    1.7432 H   0  0  0  0  0  0  0  0  0  0  0  0
   -4.2888   -0.0338    2.1151 H   0  0  0  0  0  0  0  0  0  0  0  0
   -4.5405   -3.6674   -0.1664 H   0  0  0  0  0  0  0  0  0  0  0  0
   -5.5653   -2.3378   -0.7127 H   0  0  0  0  0  0  0  0  0  0  0  0
   -5.8447   -3.0889    0.8739 H   0  0  0  0  0  0  0  0  0  0  0  0
   -5.6437    0.0652   -0.6375 H   0  0  0  0  0  0  0  0  0  0  0  0
   -5.6281    1.3698    0.5755 H   0  0  0  0  0  0  0  0  0  0  0  0
   -2.0821    1.4491   -2.9035 H   0  0  0  0  0  0  0  0  0  0  0  0
  1 10  1  0  0  0  0
  1 14  1  0  0  0  0
  2 12  1  0  0  0  0
  2 16  1  0  0  0  0
  3 13  1  0  0  0  0
  3 23  1  0  0  0  0
  4 19  1  0  0  0  0
  4 25  1  0  0  0  0
  5 23  2  0  0  0  0
  6 25  2  0  0  0  0
  7 33  1  0  0  0  0
  7 35  1  0  0  0  0
  8 35  2  0  0  0  0
  9 10  1  0  0  0  0
  9 11  1  0  0  0  0
  9 13  1  0  0  0  0
  9 17  1  0  0  0  0
 10 12  1  0  0  0  0
 10 14  1  0  0  0  0
 11 16  1  0  0  0  0
 11 18  1  0  0  0  0
 11 19  1  0  0  0  0
 12 15  1  0  0  0  0
 12 36  1  0  0  0  0
 13 15  1  0  0  0  0
 13 37  1  0  0  0  0
 14 38  1  0  0  0  0
 14 39  1  0  0  0  0
 15 40  1  0  0  0  0
 15 41  1  0  0  0  0
 16 20  1  0  0  0  0
 16 42  1  0  0  0  0
 17 43  1  0  0  0  0
 17 44  1  0  0  0  0
 17 45  1  0  0  0  0
 18 21  1  0  0  0  0
 18 46  1  0  0  0  0
 18 47  1  0  0  0  0
 19 48  1  0  0  0  0
 19 49  1  0  0  0  0
 20 22  2  0  0  0  0
 20 50  1  0  0  0  0
 21 22  1  0  0  0  0
 21 51  1  0  0  0  0
 21 52  1  0  0  0  0
 22 24  1  0  0  0  0
 23 26  1  0  0  0  0
 24 53  1  0  0  0  0
 24 54  1  0  0  0  0
 24 55  1  0  0  0  0
 25 27  1  0  0  0  0
 26 28  2  0  0  0  0
 26 56  1  0  0  0  0
 27 29  2  0  0  0  0
 27 57  1  0  0  0  0
 28 30  1  0  0  0  0
 28 58  1  0  0  0  0
 29 31  1  0  0  0  0
 29 32  1  0  0  0  0
 30 34  2  0  0  0  0
 30 59  1  0  0  0  0
 31 33  1  0  0  0  0
 31 60  1  0  0  0  0
 31 61  1  0  0  0  0
 32 62  1  0  0  0  0
 32 63  1  0  0  0  0
 32 64  1  0  0  0  0
 33 65  1  0  0  0  0
 33 66  1  0  0  0  0
 34 35  1  0  0  0  0
 34 67  1  0  0  0  0
M  END
> <PUBCHEM_COMPOUND_CID>
11968045

> <PUBCHEM_CONFORMER_RMSD>
0.8

> <PUBCHEM_CONFORMER_DIVERSEORDER>
1
3
2
4

> <PUBCHEM_MMFF94_PARTIAL_CHARGES>
39
1 -0.3
10 -0.04
12 0.38
13 0.28
14 -0.05
16 0.42
19 0.28
2 -0.56
20 -0.29
21 0.14
22 -0.28
23 0.71
24 0.14
25 0.71
26 -0.14
27 -0.14
28 -0.15
29 -0.28
3 -0.43
30 -0.15
31 0.14
32 0.14
33 0.28
34 -0.14
35 0.71
38 0.1
39 0.1
4 -0.43
5 -0.57
50 0.15
56 0.15
57 0.15
58 0.15
59 0.15
6 -0.57
67 0.15
7 -0.43
8 -0.57
9 0.09

> <PUBCHEM_EFFECTIVE_ROTOR_COUNT>
2.4

> <PUBCHEM_PHARMACOPHORE_FEATURES>
7
1 1 acceptor
1 2 acceptor
1 5 acceptor
1 6 acceptor
1 8 acceptor
6 11 16 18 20 21 22 rings
8 2 9 10 11 12 13 15 16 rings

> <PUBCHEM_HEAVY_ATOM_COUNT>
35

> <PUBCHEM_ATOM_DEF_STEREO_COUNT>
4

> <PUBCHEM_ATOM_UDEF_STEREO_COUNT>
2

> <PUBCHEM_BOND_DEF_STEREO_COUNT>
3

> <PUBCHEM_BOND_UDEF_STEREO_COUNT>
0

> <PUBCHEM_ISOTOPIC_ATOM_COUNT>
0

> <PUBCHEM_COMPONENT_COUNT>
1

> <PUBCHEM_CACTVS_TAUTO_COUNT>
1

> <PUBCHEM_CONFORMER_ID>
00B69E2D00000001

> <PUBCHEM_MMFF94_ENERGY>
125.204

> <PUBCHEM_FEATURE_SELFOVERLAP>
35.532

> <PUBCHEM_SHAPE_FINGERPRINT>
11285246 1 17189536370116970639
11513181 2 17697049397846810847
11828532 37 17605003679534273179
12156800 1 15723002580999826517
13402501 40 18334579066287814097
14117953 113 18271817821503603799
14659021 117 17185600113746379862
19311894 1 16035484473146552103
20715895 44 17316743397277320373
20764821 26 18193572068344194027
23559900 14 18189895314293208358
238 59 18340755018542424581
27425 322 15410618146558069683
3380486 145 18336283274956312811
3493558 16 15795981694604573014
445580 102 18410292471826003181
469060 322 17096959917841302273
508706 21 18041270076266372185

> <PUBCHEM_SHAPE_MULTIPOLES>
673.33
9.45
4.9
1.99
5.16
0.07
0.26
-0.61
-0.15
0.9
0.85
0.54
-0.07
1.69

> <PUBCHEM_SHAPE_SELFOVERLAP>
1438.354

> <PUBCHEM_SHAPE_VOLUME>
364.5

> <PUBCHEM_COORDINATE_TYPE>
2
5
10

$$$$
