11968841
  -OEChem-03292013303D

 49 50  0     1  0  0  0  0  0999 V2000
    0.3088    0.3813    1.1848 O   0  0  0  0  0  0  0  0  0  0  0  0
    2.0097   -0.9830    0.3542 O   0  0  0  0  0  0  0  0  0  0  0  0
    1.8363    2.6637    0.5022 O   0  0  0  0  0  0  0  0  0  0  0  0
    4.7268    2.0930    0.5027 O   0  0  0  0  0  0  0  0  0  0  0  0
    5.2957   -0.2523   -1.0884 O   0  0  0  0  0  0  0  0  0  0  0  0
    2.4913   -3.4114   -0.8403 O   0  0  0  0  0  0  0  0  0  0  0  0
   -5.5228   -0.2248   -1.4653 O   0  0  0  0  0  0  0  0  0  0  0  0
   -2.9101    0.8159   -0.7799 C   0  0  0  0  0  0  0  0  0  0  0  0
   -0.8980   -0.0247    0.5461 C   0  0  2  0  0  0  0  0  0  0  0  0
   -1.5744    1.1836   -0.0848 C   0  0  0  0  0  0  0  0  0  0  0  0
   -1.8124   -0.6528    1.5922 C   0  0  0  0  0  0  0  0  0  0  0  0
    1.4198    0.3135    0.2914 C   0  0  2  0  0  0  0  0  0  0  0  0
    2.4285    1.3821    0.7126 C   0  0  1  0  0  0  0  0  0  0  0  0
   -3.7450   -0.1361    0.0868 C   0  0  0  0  0  0  0  0  0  0  0  0
    3.7191    1.2797   -0.1004 C   0  0  2  0  0  0  0  0  0  0  0  0
    4.2346   -0.1589   -0.1416 C   0  0  1  0  0  0  0  0  0  0  0  0
   -3.2595   -0.7965    1.1636 C   0  0  0  0  0  0  0  0  0  0  0  0
    3.1161   -1.1254   -0.5383 C   0  0  1  0  0  0  0  0  0  0  0  0
   -2.6124    0.1400   -2.1350 C   0  0  0  0  0  0  0  0  0  0  0  0
   -3.6475    2.1486   -1.0436 C   0  0  0  0  0  0  0  0  0  0  0  0
    3.5758   -2.5784   -0.4728 C   0  0  0  0  0  0  0  0  0  0  0  0
   -4.0234   -1.7410    2.0603 C   0  0  0  0  0  0  0  0  0  0  0  0
   -5.1572   -0.3161   -0.3068 C   0  0  0  0  0  0  0  0  0  0  0  0
   -0.6826   -0.7872   -0.2146 H   0  0  0  0  0  0  0  0  0  0  0  0
   -1.7497    1.9317    0.7027 H   0  0  0  0  0  0  0  0  0  0  0  0
   -0.8964    1.6788   -0.7916 H   0  0  0  0  0  0  0  0  0  0  0  0
   -1.7801   -0.0650    2.5196 H   0  0  0  0  0  0  0  0  0  0  0  0
   -1.3958   -1.6350    1.8518 H   0  0  0  0  0  0  0  0  0  0  0  0
    1.0908    0.5176   -0.7372 H   0  0  0  0  0  0  0  0  0  0  0  0
    2.6538    1.3042    1.7835 H   0  0  0  0  0  0  0  0  0  0  0  0
    3.5655    1.6750   -1.1120 H   0  0  0  0  0  0  0  0  0  0  0  0
    4.6459   -0.4269    0.8394 H   0  0  0  0  0  0  0  0  0  0  0  0
    2.7671   -0.9265   -1.5609 H   0  0  0  0  0  0  0  0  0  0  0  0
   -2.1892   -0.8624   -2.0054 H   0  0  0  0  0  0  0  0  0  0  0  0
   -3.5030    0.0404   -2.7629 H   0  0  0  0  0  0  0  0  0  0  0  0
   -1.8903    0.7286   -2.7134 H   0  0  0  0  0  0  0  0  0  0  0  0
   -3.9721    2.6138   -0.1053 H   0  0  0  0  0  0  0  0  0  0  0  0
   -2.9909    2.8618   -1.5566 H   0  0  0  0  0  0  0  0  0  0  0  0
   -4.5311    2.0272   -1.6776 H   0  0  0  0  0  0  0  0  0  0  0  0
    3.8821   -2.8568    0.5410 H   0  0  0  0  0  0  0  0  0  0  0  0
    4.4063   -2.7718   -1.1576 H   0  0  0  0  0  0  0  0  0  0  0  0
   -3.4671   -2.6768    2.1852 H   0  0  0  0  0  0  0  0  0  0  0  0
   -5.0052   -2.0238    1.6764 H   0  0  0  0  0  0  0  0  0  0  0  0
   -4.1608   -1.2893    3.0481 H   0  0  0  0  0  0  0  0  0  0  0  0
   -5.8679   -0.5609    0.4963 H   0  0  0  0  0  0  0  0  0  0  0  0
    1.0126    2.6921    1.0185 H   0  0  0  0  0  0  0  0  0  0  0  0
    5.5353    1.9967   -0.0292 H   0  0  0  0  0  0  0  0  0  0  0  0
    4.9387   -0.0223   -1.9633 H   0  0  0  0  0  0  0  0  0  0  0  0
    1.7580   -3.2269   -0.2287 H   0  0  0  0  0  0  0  0  0  0  0  0
  1  9  1  0  0  0  0
  1 12  1  0  0  0  0
  2 12  1  0  0  0  0
  2 18  1  0  0  0  0
  3 13  1  0  0  0  0
  3 46  1  0  0  0  0
  4 15  1  0  0  0  0
  4 47  1  0  0  0  0
  5 16  1  0  0  0  0
  5 48  1  0  0  0  0
  6 21  1  0  0  0  0
  6 49  1  0  0  0  0
  7 23  2  0  0  0  0
  8 10  1  0  0  0  0
  8 14  1  0  0  0  0
  8 19  1  0  0  0  0
  8 20  1  0  0  0  0
  9 10  1  0  0  0  0
  9 11  1  0  0  0  0
  9 24  1  0  0  0  0
 10 25  1  0  0  0  0
 10 26  1  0  0  0  0
 11 17  1  0  0  0  0
 11 27  1  0  0  0  0
 11 28  1  0  0  0  0
 12 13  1  0  0  0  0
 12 29  1  0  0  0  0
 13 15  1  0  0  0  0
 13 30  1  0  0  0  0
 14 17  2  0  0  0  0
 14 23  1  0  0  0  0
 15 16  1  0  0  0  0
 15 31  1  0  0  0  0
 16 18  1  0  0  0  0
 16 32  1  0  0  0  0
 17 22  1  0  0  0  0
 18 21  1  0  0  0  0
 18 33  1  0  0  0  0
 19 34  1  0  0  0  0
 19 35  1  0  0  0  0
 19 36  1  0  0  0  0
 20 37  1  0  0  0  0
 20 38  1  0  0  0  0
 20 39  1  0  0  0  0
 21 40  1  0  0  0  0
 21 41  1  0  0  0  0
 22 42  1  0  0  0  0
 22 43  1  0  0  0  0
 22 44  1  0  0  0  0
 23 45  1  0  0  0  0
M  END
> <PUBCHEM_COMPOUND_CID>
11968841

> <PUBCHEM_CONFORMER_RMSD>
0.8

> <PUBCHEM_CONFORMER_DIVERSEORDER>
5
50
59
13
119
86
88
64
99
118
70
107
34
78
51
108
94
83
106
73
14
114
93
84
53
7
41
72
45
46
28
62
37
1
116
38
16
117
35
115
110
27
12
55
104
105
57
91
52
96
25
109
69
30
112
2
66
19
60
58
85
40
6
87
67
23
49
61
24
92
3
65
113
18
48
42
76
89
17
8
63
101
9
20
95
44
102
29
4
71
74
103
98
54
26
33
100
43
22
79
97
10
56
36
82
75
90
77
111
21
15
81
11
47
80
39
31
68
32

> <PUBCHEM_MMFF94_PARTIAL_CHARGES>
25
1 -0.56
11 0.14
12 0.56
13 0.28
14 -0.12
15 0.28
16 0.28
17 -0.28
18 0.28
2 -0.56
21 0.28
22 0.14
23 0.5
3 -0.68
4 -0.68
45 0.06
46 0.4
47 0.4
48 0.4
49 0.4
5 -0.68
6 -0.68
7 -0.57
8 0.14
9 0.28

> <PUBCHEM_EFFECTIVE_ROTOR_COUNT>
6

> <PUBCHEM_PHARMACOPHORE_FEATURES>
14
1 1 acceptor
1 2 acceptor
1 3 acceptor
1 3 donor
1 4 acceptor
1 4 donor
1 5 acceptor
1 5 donor
1 6 acceptor
1 6 donor
1 7 acceptor
3 8 19 20 hydrophobe
6 2 12 13 15 16 18 rings
6 8 9 10 11 14 17 rings

> <PUBCHEM_HEAVY_ATOM_COUNT>
23

> <PUBCHEM_ATOM_DEF_STEREO_COUNT>
5

> <PUBCHEM_ATOM_UDEF_STEREO_COUNT>
1

> <PUBCHEM_BOND_DEF_STEREO_COUNT>
0

> <PUBCHEM_BOND_UDEF_STEREO_COUNT>
0

> <PUBCHEM_ISOTOPIC_ATOM_COUNT>
0

> <PUBCHEM_COMPONENT_COUNT>
1

> <PUBCHEM_CACTVS_TAUTO_COUNT>
1

> <PUBCHEM_CONFORMER_ID>
00B6A14900000005

> <PUBCHEM_MMFF94_ENERGY>
61.6635

> <PUBCHEM_FEATURE_SELFOVERLAP>
71.11

> <PUBCHEM_SHAPE_FINGERPRINT>
10366900 7 18334575745871808309
10498660 4 16949995929001413365
11370993 144 18338813221263053353
12236239 1 16845296054979732793
12390115 104 17968652693593148877
12553582 1 15841545267296400129
12596599 1 17168155528600162869
12596602 18 16487250006194860787
12670546 177 17676497163201753236
12730499 353 18410859892772002658
13583140 156 18411985762540221383
13911987 19 18196667404589664600
14251757 17 18334297522122076658
14386348 63 18260269667798140841
14848160 33 18270124496287696574
14910302 57 17530959142486630207
15635459 17 18409450271657463746
15961568 22 17024036045773932652
17138139 8 16986000635496541535
18186145 218 17822570495365863660
19784866 240 17131834265767405229
200 152 18060420231205431897
20645477 70 18341609291969625126
21033650 10 16516539776567838180
21065201 7 17530684299123625450
221357 26 18410288086696471133
23402539 116 17095796741306187643
23557571 272 17676777577664563011
23559900 14 18040718077714593136
23596394 208 18335702715362813698
23598288 3 17130731408534192729
2838139 119 11386903603594827583
3268164 11 17240478152280106543
3472631 163 16371010732080767006
4409770 3 12045782436601099888
46194498 28 18186808006123115724
4921388 177 17531258231588133731
5104073 3 18335139761030120872
5281201 14 18335984185896896684
59682541 52 18269819953167701125
7399639 24 18191869143781311704
9709674 26 18335139769709420011

> <PUBCHEM_SHAPE_MULTIPOLES>
432.24
11.63
2.49
1.54
0.74
0.7
0.1
0.68
2.52
2.11
0.12
-1.53
0.38
2.61

> <PUBCHEM_SHAPE_SELFOVERLAP>
886.852

> <PUBCHEM_SHAPE_VOLUME>
245.9

> <PUBCHEM_COORDINATE_TYPE>
2
5
10

$$$$
