11968952
  -OEChem-03292013303D

 58 60  0     1  0  0  0  0  0999 V2000
   -2.8762    0.7328   -1.8796 O   0  0  0  0  0  0  0  0  0  0  0  0
   -2.7087   -0.1191    1.6691 O   0  0  0  0  0  0  0  0  0  0  0  0
   -6.2150    1.7842   -0.1954 O   0  0  0  0  0  0  0  0  0  0  0  0
    1.8260   -1.3847    1.4768 O   0  0  0  0  0  0  0  0  0  0  0  0
    3.4806   -1.0087   -0.1247 O   0  0  0  0  0  0  0  0  0  0  0  0
    1.7148    1.3972    1.9832 O   0  0  0  0  0  0  0  0  0  0  0  0
    4.2748    2.7272    1.3850 O   0  0  0  0  0  0  0  0  0  0  0  0
    5.1845    2.0251   -1.2675 O   0  0  0  0  0  0  0  0  0  0  0  0
    4.5156   -1.9729   -2.4816 O   0  0  0  0  0  0  0  0  0  0  0  0
   -3.7637   -0.9402   -0.4240 C   0  0  2  0  0  0  0  0  0  0  0  0
   -2.5693   -0.2448    0.2611 C   0  0  1  0  0  0  0  0  0  0  0  0
   -2.6334    1.0995   -0.4983 C   0  0  2  0  0  0  0  0  0  0  0  0
   -3.5133   -0.5637   -1.8936 C   0  0  0  0  0  0  0  0  0  0  0  0
   -5.0970   -0.3154    0.0571 C   0  0  0  0  0  0  0  0  0  0  0  0
   -3.8336    1.9534   -0.0415 C   0  0  0  0  0  0  0  0  0  0  0  0
   -3.8449   -2.4551   -0.2162 C   0  0  0  0  0  0  0  0  0  0  0  0
   -5.1395    1.1895   -0.1080 C   0  0  0  0  0  0  0  0  0  0  0  0
   -1.3667    1.9532   -0.4277 C   0  0  0  0  0  0  0  0  0  0  0  0
   -1.2553   -0.9579    0.0545 C   0  0  0  0  0  0  0  0  0  0  0  0
   -0.5023   -1.4405    1.0538 C   0  0  0  0  0  0  0  0  0  0  0  0
    0.8031   -2.1496    0.8444 C   0  0  2  0  0  0  0  0  0  0  0  0
    2.3878   -0.4258    0.5815 C   0  0  2  0  0  0  0  0  0  0  0  0
    2.8607    0.7698    1.4084 C   0  0  1  0  0  0  0  0  0  0  0  0
    3.6129    1.7815    0.5436 C   0  0  2  0  0  0  0  0  0  0  0  0
    4.6714    1.0936   -0.3187 C   0  0  1  0  0  0  0  0  0  0  0  0
    4.0737   -0.1052   -1.0590 C   0  0  1  0  0  0  0  0  0  0  0  0
    0.7765   -3.5460    1.4516 C   0  0  0  0  0  0  0  0  0  0  0  0
    5.1366   -0.8774   -1.8342 C   0  0  0  0  0  0  0  0  0  0  0  0
   -2.8333   -1.2590   -2.3974 H   0  0  0  0  0  0  0  0  0  0  0  0
   -4.4313   -0.5029   -2.4870 H   0  0  0  0  0  0  0  0  0  0  0  0
   -5.9346   -0.7362   -0.5126 H   0  0  0  0  0  0  0  0  0  0  0  0
   -5.2662   -0.5350    1.1177 H   0  0  0  0  0  0  0  0  0  0  0  0
   -3.6998    2.3041    0.9875 H   0  0  0  0  0  0  0  0  0  0  0  0
   -3.9420    2.8237   -0.7003 H   0  0  0  0  0  0  0  0  0  0  0  0
   -3.9261   -2.7022    0.8480 H   0  0  0  0  0  0  0  0  0  0  0  0
   -4.7200   -2.8732   -0.7264 H   0  0  0  0  0  0  0  0  0  0  0  0
   -2.9661   -2.9729   -0.6146 H   0  0  0  0  0  0  0  0  0  0  0  0
   -1.1017    2.2022    0.6046 H   0  0  0  0  0  0  0  0  0  0  0  0
   -1.5015    2.8896   -0.9820 H   0  0  0  0  0  0  0  0  0  0  0  0
   -0.5141    1.4547   -0.9010 H   0  0  0  0  0  0  0  0  0  0  0  0
   -0.9047   -1.0915   -0.9664 H   0  0  0  0  0  0  0  0  0  0  0  0
   -2.1802    0.6423    1.9632 H   0  0  0  0  0  0  0  0  0  0  0  0
   -0.8047   -1.3371    2.0921 H   0  0  0  0  0  0  0  0  0  0  0  0
    1.0245   -2.2710   -0.2249 H   0  0  0  0  0  0  0  0  0  0  0  0
    1.6283   -0.0832   -0.1349 H   0  0  0  0  0  0  0  0  0  0  0  0
    3.4901    0.4289    2.2398 H   0  0  0  0  0  0  0  0  0  0  0  0
    2.9148    2.3579   -0.0750 H   0  0  0  0  0  0  0  0  0  0  0  0
    5.5098    0.7740    0.3122 H   0  0  0  0  0  0  0  0  0  0  0  0
    3.3016    0.2161   -1.7715 H   0  0  0  0  0  0  0  0  0  0  0  0
    1.7429   -4.0408    1.3044 H   0  0  0  0  0  0  0  0  0  0  0  0
    0.6096   -3.5054    2.5342 H   0  0  0  0  0  0  0  0  0  0  0  0
   -0.0048   -4.1662    1.0004 H   0  0  0  0  0  0  0  0  0  0  0  0
    5.6159   -0.2544   -2.5947 H   0  0  0  0  0  0  0  0  0  0  0  0
    5.9080   -1.2770   -1.1675 H   0  0  0  0  0  0  0  0  0  0  0  0
    2.0278    2.1690    2.4853 H   0  0  0  0  0  0  0  0  0  0  0  0
    4.8860    2.2408    1.9642 H   0  0  0  0  0  0  0  0  0  0  0  0
    4.4504    2.3054   -1.8403 H   0  0  0  0  0  0  0  0  0  0  0  0
    4.0888   -2.5160   -1.7969 H   0  0  0  0  0  0  0  0  0  0  0  0
  1 12  1  0  0  0  0
  1 13  1  0  0  0  0
  2 11  1  0  0  0  0
  2 42  1  0  0  0  0
  3 17  2  0  0  0  0
  4 21  1  0  0  0  0
  4 22  1  0  0  0  0
  5 22  1  0  0  0  0
  5 26  1  0  0  0  0
  6 23  1  0  0  0  0
  6 55  1  0  0  0  0
  7 24  1  0  0  0  0
  7 56  1  0  0  0  0
  8 25  1  0  0  0  0
  8 57  1  0  0  0  0
  9 28  1  0  0  0  0
  9 58  1  0  0  0  0
 10 11  1  0  0  0  0
 10 13  1  0  0  0  0
 10 14  1  0  0  0  0
 10 16  1  0  0  0  0
 11 12  1  0  0  0  0
 11 19  1  0  0  0  0
 12 15  1  0  0  0  0
 12 18  1  0  0  0  0
 13 29  1  0  0  0  0
 13 30  1  0  0  0  0
 14 17  1  0  0  0  0
 14 31  1  0  0  0  0
 14 32  1  0  0  0  0
 15 17  1  0  0  0  0
 15 33  1  0  0  0  0
 15 34  1  0  0  0  0
 16 35  1  0  0  0  0
 16 36  1  0  0  0  0
 16 37  1  0  0  0  0
 18 38  1  0  0  0  0
 18 39  1  0  0  0  0
 18 40  1  0  0  0  0
 19 20  2  0  0  0  0
 19 41  1  0  0  0  0
 20 21  1  0  0  0  0
 20 43  1  0  0  0  0
 21 27  1  0  0  0  0
 21 44  1  0  0  0  0
 22 23  1  0  0  0  0
 22 45  1  0  0  0  0
 23 24  1  0  0  0  0
 23 46  1  0  0  0  0
 24 25  1  0  0  0  0
 24 47  1  0  0  0  0
 25 26  1  0  0  0  0
 25 48  1  0  0  0  0
 26 28  1  0  0  0  0
 26 49  1  0  0  0  0
 27 50  1  0  0  0  0
 27 51  1  0  0  0  0
 27 52  1  0  0  0  0
 28 53  1  0  0  0  0
 28 54  1  0  0  0  0
M  END
> <PUBCHEM_COMPOUND_CID>
11968952

> <PUBCHEM_CONFORMER_RMSD>
0.8

> <PUBCHEM_CONFORMER_DIVERSEORDER>
3
162
19
308
450
28
289
141
447
191
52
95
223
267
271
284
135
157
287
400
24
156
330
129
457
125
98
252
198
318
163
434
130
285
54
111
63
72
331
101
361
264
211
404
273
241
88
342
6
313
75
4
112
347
35
181
253
215
128
248
229
226
236
42
383
373
58
202
290
438
165
359
282
445
324
32
145
167
301
288
22
459
393
379
73
109
62
65
82
12
283
424
341
56
429
93
180
415
230
120
186
220
233
436
357
150
2
38
179
399
126
168
258
374
48
319
26
164
418
298
143
1
246
16
455
44
172
177
240
238
465
224
212
203
297
91
80
345
10
92
176
108
206
81
222
410
192
277
21
207
403
124
71
268
234
74
5
18
55
350
86
302
384
189
119
85
205
325
174
53
115
209
60
343
118
309
337
247
161
272
33
250
23
254
311
201
17
117
47
417
412
453
314
327
216
358
413
464
61
9
13
105
427
262
79
25
106
68
278
15
70
274
261
348
69
372
448
199
244
14
406
365
228
454
315
138
166
322
127
184
100
396
378
200
144
366
136
370
46
326
210
380
444
50
321
310
64
349
185
37
259
146
152
20
395
405
178
303
354
204
170
221
435
452
333
154
159
214
104
461
151
411
190
59
208
27
255
340
369
227
377
114
332
225
183
397
305
218
280
78
386
193
432
266
265
83
196
245
368
329
423
440
306
385
296
316
195
251
123
431
381
134
320
107
462
344
276
8
103
463
147
171
242
339
243
353
7
34
426
249
133
275
139
182
169
307
335
304
449
295
84
362
232
402
132
142
153
408
131
219
237
188
292
364
360
260
67
187
414
149
388
334
428
269
11
239
87
94
323
281
173
57
439
235
293
391
122
257
356
110
401
121
263
194
97
160
113
392
140
96
158
291
460
76
256
213
421
197
407
442
279
338
443
286
41
352
36
51
148
328
116
456
155
300
43
175
137
99
433
387
270
102
394
312
66
446
299
90
336
398
441
294
39
437
466
30
422
389
89
217
371
390
409
49
346
451
231
355
363
367
420
467
382
468
375
45
458
376
77
430
317
416
425
419
351
31
40
29

> <PUBCHEM_MMFF94_PARTIAL_CHARGES>
31
1 -0.56
11 0.42
12 0.28
13 0.28
14 0.06
15 0.06
17 0.45
19 -0.29
2 -0.68
20 -0.29
21 0.42
22 0.56
23 0.28
24 0.28
25 0.28
26 0.28
28 0.28
3 -0.57
4 -0.56
41 0.15
42 0.4
43 0.15
5 -0.56
55 0.4
56 0.4
57 0.4
58 0.4
6 -0.68
7 -0.68
8 -0.68
9 -0.68

> <PUBCHEM_EFFECTIVE_ROTOR_COUNT>
7.2

> <PUBCHEM_PHARMACOPHORE_FEATURES>
16
1 1 acceptor
1 2 acceptor
1 2 donor
1 3 acceptor
1 4 acceptor
1 5 acceptor
1 6 acceptor
1 6 donor
1 7 acceptor
1 7 donor
1 8 acceptor
1 8 donor
1 9 acceptor
1 9 donor
6 5 22 23 24 25 26 rings
8 1 10 11 12 13 14 15 17 rings

> <PUBCHEM_HEAVY_ATOM_COUNT>
28

> <PUBCHEM_ATOM_DEF_STEREO_COUNT>
7

> <PUBCHEM_ATOM_UDEF_STEREO_COUNT>
2

> <PUBCHEM_BOND_DEF_STEREO_COUNT>
1

> <PUBCHEM_BOND_UDEF_STEREO_COUNT>
0

> <PUBCHEM_ISOTOPIC_ATOM_COUNT>
0

> <PUBCHEM_COMPONENT_COUNT>
1

> <PUBCHEM_CACTVS_TAUTO_COUNT>
3

> <PUBCHEM_CONFORMER_ID>
00B6A1B800000003

> <PUBCHEM_MMFF94_ENERGY>
87.3725

> <PUBCHEM_FEATURE_SELFOVERLAP>
81.267

> <PUBCHEM_SHAPE_FINGERPRINT>
10498660 4 18261102006563772728
10670039 82 17676775284230966748
10928967 22 14548734049143592254
11720765 8 17987237738589297846
12788726 201 17631166386612562769
12892183 10 11891330950134464758
13224815 77 17967803942796791619
14114211 68 18042424442488744782
14251757 17 18271814544517292954
14528608 73 18410005542430782411
14840074 17 16877672274487120743
15183329 4 17561091275967787560
15210252 30 18259988188901866724
15575132 122 17385723586543025093
17909252 39 17418099780844804952
1813 80 13398631658207213810
20403669 9 11312057651355556504
20567600 9 18262522481166247984
20775530 9 14259141267038713940
21033648 29 18261958547939739720
221357 26 18202004287553153584
22393880 68 18411417306333315666
23559900 14 18342177765003173492
2637199 183 18335423439467452378
2747138 104 17970642989885502067
3004659 81 13110963141260946008
46194498 28 18131073727525309676
474 4 17822009787686096891
5281201 14 18131072645145954494
633830 44 18341602728953570359
6442390 28 18261390087327272714
7808743 9 17824266119107056156

> <PUBCHEM_SHAPE_MULTIPOLES>
523.4
13.05
2.98
1.81
0.94
1.06
0.48
-5.36
4.75
0.8
-0.8
1.95
0.37
1.07

> <PUBCHEM_SHAPE_SELFOVERLAP>
1097.464

> <PUBCHEM_SHAPE_VOLUME>
295.1

> <PUBCHEM_COORDINATE_TYPE>
2
5
10

$$$$
