11962160
  -OEChem-03292013303D

 50 52  0     1  0  0  0  0  0999 V2000
   -4.3545    2.3487   -0.4718 Cl  0  0  0  0  0  0  0  0  0  0  0  0
   -0.2284   -2.0125    0.4842 O   0  0  0  0  0  0  0  0  0  0  0  0
    4.4724   -1.4591   -0.0057 O   0  0  0  0  0  0  0  0  0  0  0  0
    0.6191    0.6341    1.7317 O   0  0  0  0  0  0  0  0  0  0  0  0
    5.2509    0.9085   -1.1686 O   0  0  0  0  0  0  0  0  0  0  0  0
   -2.6706   -3.2820   -0.1714 O   0  0  0  0  0  0  0  0  0  0  0  0
   -0.0495   -1.2398   -1.6969 O   0  0  0  0  0  0  0  0  0  0  0  0
   -0.4658    4.5615    0.4401 O   0  0  0  0  0  0  0  0  0  0  0  0
   -6.0350    0.0309    0.0903 O   0  0  0  0  0  0  0  0  0  0  0  0
    1.2142    3.0821    0.1469 N   0  0  0  0  0  0  0  0  0  0  0  0
    1.9986   -1.7245    1.4136 C   0  0  0  0  0  0  0  0  0  0  0  0
    1.1044   -2.5739    0.4992 C   0  0  1  0  0  0  0  0  0  0  0  0
    2.4359   -0.4360    0.7552 C   0  0  0  0  0  0  0  0  0  0  0  0
   -1.4133    1.5185   -0.6944 C   0  0  0  0  0  0  0  0  0  0  0  0
   -2.4007    0.3933   -0.4865 C   0  0  0  0  0  0  0  0  0  0  0  0
    1.6089    0.7010    0.8037 C   0  0  0  0  0  0  0  0  0  0  0  0
   -1.1513    2.3015    0.5949 C   0  0  0  0  0  0  0  0  0  0  0  0
    1.9771    1.8909    0.1744 C   0  0  0  0  0  0  0  0  0  0  0  0
    3.6575   -0.3682    0.0787 C   0  0  0  0  0  0  0  0  0  0  0  0
   -2.0380   -0.9637   -0.4289 C   0  0  0  0  0  0  0  0  0  0  0  0
    0.9685   -3.9911    1.0461 C   0  0  0  0  0  0  0  0  0  0  0  0
    4.0566    0.8231   -0.5183 C   0  0  0  0  0  0  0  0  0  0  0  0
   -0.6546   -1.4110   -0.6534 C   0  0  0  0  0  0  0  0  0  0  0  0
    3.2271    1.9439   -0.4629 C   0  0  0  0  0  0  0  0  0  0  0  0
   -0.1023    3.3775    0.4078 C   0  0  0  0  0  0  0  0  0  0  0  0
   -3.7566    0.7196   -0.3055 C   0  0  0  0  0  0  0  0  0  0  0  0
   -2.9995   -1.9583   -0.1983 C   0  0  0  0  0  0  0  0  0  0  0  0
   -4.7143   -0.2699   -0.0733 C   0  0  0  0  0  0  0  0  0  0  0  0
   -4.3352   -1.6077   -0.0181 C   0  0  0  0  0  0  0  0  0  0  0  0
    4.7784   -1.9373   -1.3130 C   0  0  0  0  0  0  0  0  0  0  0  0
    2.8897   -2.2981    1.6988 H   0  0  0  0  0  0  0  0  0  0  0  0
    1.4862   -1.5103    2.3599 H   0  0  0  0  0  0  0  0  0  0  0  0
    1.5222   -2.6328   -0.5133 H   0  0  0  0  0  0  0  0  0  0  0  0
   -0.4749    1.1292   -1.0952 H   0  0  0  0  0  0  0  0  0  0  0  0
   -1.7681    2.1904   -1.4868 H   0  0  0  0  0  0  0  0  0  0  0  0
   -1.0857    1.7230    1.5056 H   0  0  0  0  0  0  0  0  0  0  0  0
   -2.0610    2.8780    0.8144 H   0  0  0  0  0  0  0  0  0  0  0  0
    0.5217   -3.9856    2.0465 H   0  0  0  0  0  0  0  0  0  0  0  0
    0.3046   -4.5840    0.4078 H   0  0  0  0  0  0  0  0  0  0  0  0
    1.9395   -4.4931    1.0967 H   0  0  0  0  0  0  0  0  0  0  0  0
    3.5493    2.8669   -0.9430 H   0  0  0  0  0  0  0  0  0  0  0  0
    1.7513    3.8987   -0.1391 H   0  0  0  0  0  0  0  0  0  0  0  0
   -5.0817   -2.3790    0.1549 H   0  0  0  0  0  0  0  0  0  0  0  0
    0.6987    1.4375    2.2770 H   0  0  0  0  0  0  0  0  0  0  0  0
    5.3574    1.8081   -1.5223 H   0  0  0  0  0  0  0  0  0  0  0  0
    3.9989   -1.6853   -2.0408 H   0  0  0  0  0  0  0  0  0  0  0  0
    4.8550   -3.0275   -1.2623 H   0  0  0  0  0  0  0  0  0  0  0  0
    5.7461   -1.5460   -1.6391 H   0  0  0  0  0  0  0  0  0  0  0  0
   -1.7243   -3.4056   -0.3450 H   0  0  0  0  0  0  0  0  0  0  0  0
   -6.1380    0.9960    0.0250 H   0  0  0  0  0  0  0  0  0  0  0  0
  1 26  1  0  0  0  0
  2 12  1  0  0  0  0
  2 23  1  0  0  0  0
  3 19  1  0  0  0  0
  3 30  1  0  0  0  0
  4 16  1  0  0  0  0
  4 44  1  0  0  0  0
  5 22  1  0  0  0  0
  5 45  1  0  0  0  0
  6 27  1  0  0  0  0
  6 49  1  0  0  0  0
  7 23  2  0  0  0  0
  8 25  2  0  0  0  0
  9 28  1  0  0  0  0
  9 50  1  0  0  0  0
 10 18  1  0  0  0  0
 10 25  1  0  0  0  0
 10 42  1  0  0  0  0
 11 12  1  0  0  0  0
 11 13  1  0  0  0  0
 11 31  1  0  0  0  0
 11 32  1  0  0  0  0
 12 21  1  0  0  0  0
 12 33  1  0  0  0  0
 13 16  2  0  0  0  0
 13 19  1  0  0  0  0
 14 15  1  0  0  0  0
 14 17  1  0  0  0  0
 14 34  1  0  0  0  0
 14 35  1  0  0  0  0
 15 20  2  0  0  0  0
 15 26  1  0  0  0  0
 16 18  1  0  0  0  0
 17 25  1  0  0  0  0
 17 36  1  0  0  0  0
 17 37  1  0  0  0  0
 18 24  2  0  0  0  0
 19 22  2  0  0  0  0
 20 23  1  0  0  0  0
 20 27  1  0  0  0  0
 21 38  1  0  0  0  0
 21 39  1  0  0  0  0
 21 40  1  0  0  0  0
 22 24  1  0  0  0  0
 24 41  1  0  0  0  0
 26 28  2  0  0  0  0
 27 29  2  0  0  0  0
 28 29  1  0  0  0  0
 29 43  1  0  0  0  0
 30 46  1  0  0  0  0
 30 47  1  0  0  0  0
 30 48  1  0  0  0  0
M  END
> <PUBCHEM_COMPOUND_CID>
11962160

> <PUBCHEM_CONFORMER_RMSD>
0.6

> <PUBCHEM_CONFORMER_DIVERSEORDER>
3
12
8
5
7
10
6
11
9
2
4
1

> <PUBCHEM_MMFF94_PARTIAL_CHARGES>
36
1 -0.18
10 -0.55
11 0.14
12 0.28
13 -0.14
14 0.14
15 -0.14
16 0.08
17 0.06
18 0.12
19 0.08
2 -0.43
20 0.09
22 0.08
23 0.63
24 -0.15
25 0.57
26 0.18
27 0.08
28 0.08
29 -0.15
3 -0.36
30 0.28
4 -0.53
41 0.15
42 0.37
43 0.15
44 0.45
45 0.45
49 0.45
5 -0.53
50 0.45
6 -0.53
7 -0.57
8 -0.57
9 -0.53

> <PUBCHEM_EFFECTIVE_ROTOR_COUNT>
2.2

> <PUBCHEM_PHARMACOPHORE_FEATURES>
10
1 10 donor
1 3 acceptor
1 4 donor
1 5 donor
1 6 donor
1 7 acceptor
1 8 acceptor
1 9 donor
6 13 16 18 19 22 24 rings
6 15 20 26 27 28 29 rings

> <PUBCHEM_HEAVY_ATOM_COUNT>
30

> <PUBCHEM_ATOM_DEF_STEREO_COUNT>
0

> <PUBCHEM_ATOM_UDEF_STEREO_COUNT>
1

> <PUBCHEM_BOND_DEF_STEREO_COUNT>
0

> <PUBCHEM_BOND_UDEF_STEREO_COUNT>
0

> <PUBCHEM_ISOTOPIC_ATOM_COUNT>
0

> <PUBCHEM_COMPONENT_COUNT>
1

> <PUBCHEM_CACTVS_TAUTO_COUNT>
800

> <PUBCHEM_CONFORMER_ID>
00B6873000000003

> <PUBCHEM_MMFF94_ENERGY>
126.0475

> <PUBCHEM_FEATURE_SELFOVERLAP>
50.75

> <PUBCHEM_SHAPE_FINGERPRINT>
10366900 7 18041553754392793171
104564 63 18055908805841835720
10498660 4 18410289194565612996
10759866 29 18261391079390325594
1100329 8 18338515360637928913
11513181 2 17912648204599602767
11578080 2 17241871117896470911
12011746 2 18410849959039979423
12035759 4 18265054639681696618
12553582 1 18338781347962609153
12633257 1 18261939796123256931
12788726 201 18411144619566568048
13140716 1 18338498803465228024
138480 1 18339920531929465872
14117953 113 17400912008383338981
14787075 74 18113898273689294851
14790565 3 18408890645824515909
14931854 50 18408324401941915508
14955137 171 18337408122738527515
15196674 1 18410572881376686588
15210252 30 18114747139536606652
15927050 60 17619914297877060989
1601671 61 18272369767470951899
17909252 39 18129953291302306790
19319366 153 18040429992847278058
19591789 44 18410008870750881459
19930381 70 17545314641387666683
20775438 99 17048205660309539838
20905425 154 18055350245365791190
21285901 2 17774173309653016516
221357 26 18339360880658348183
23559900 14 18198619028521717625
2637199 183 18334013938622599250
3004659 81 18334014978426288452
350125 39 18409448077747073909
4280585 95 17475799745752758094
463206 1 18408887368906341851

> <PUBCHEM_SHAPE_MULTIPOLES>
567.32
9.55
4.56
1.12
2.37
1.1
-0.01
-1.06
2.59
0.1
-0.9
-0.78
-0.28
-0.22

> <PUBCHEM_SHAPE_SELFOVERLAP>
1222.668

> <PUBCHEM_SHAPE_VOLUME>
309.4

> <PUBCHEM_COORDINATE_TYPE>
2
5
10

$$$$
