11964499
  -OEChem-03292013303D

 40 40  0     1  0  0  0  0  0999 V2000
   -5.5065    1.0995    2.0687 Cl  0  0  0  0  0  0  0  0  0  0  0  0
    1.3955   -3.0931    1.4637 O   0  0  0  0  0  0  0  0  0  0  0  0
    2.6257   -1.0572   -1.7068 O   0  0  0  0  0  0  0  0  0  0  0  0
    1.1356   -0.7574    0.0451 N   0  0  0  0  0  0  0  0  0  0  0  0
   -3.8102    0.9946   -0.7991 N   0  0  0  0  0  0  0  0  0  0  0  0
    0.5831   -4.2459   -0.3492 N   0  0  0  0  0  0  0  0  0  0  0  0
   -5.7998    2.3213   -1.0588 N   0  0  0  0  0  0  0  0  0  0  0  0
   -1.1802   -1.6017    0.1748 C   0  0  0  0  0  0  0  0  0  0  0  0
    0.2592   -1.8505   -0.2879 C   0  0  2  0  0  0  0  0  0  0  0  0
   -1.8107   -0.3856   -0.5155 C   0  0  0  0  0  0  0  0  0  0  0  0
   -3.2617   -0.1682   -0.0996 C   0  0  0  0  0  0  0  0  0  0  0  0
    0.8244   -3.0978    0.3757 C   0  0  0  0  0  0  0  0  0  0  0  0
    2.2629   -0.4477   -0.7041 C   0  0  0  0  0  0  0  0  0  0  0  0
    3.0782    0.6934   -0.2138 C   0  0  0  0  0  0  0  0  0  0  0  0
   -5.0376    1.2984   -0.5412 C   0  0  0  0  0  0  0  0  0  0  0  0
    3.8468    1.4371   -1.1094 C   0  0  0  0  0  0  0  0  0  0  0  0
    3.0748    1.0216    1.1419 C   0  0  0  0  0  0  0  0  0  0  0  0
    4.6121    2.5086   -0.6492 C   0  0  0  0  0  0  0  0  0  0  0  0
    3.8400    2.0932    1.6020 C   0  0  0  0  0  0  0  0  0  0  0  0
    4.6087    2.8368    0.7063 C   0  0  0  0  0  0  0  0  0  0  0  0
   -5.7403    0.4006    0.4567 C   0  0  0  0  0  0  0  0  0  0  0  0
   -1.2040   -1.4545    1.2625 H   0  0  0  0  0  0  0  0  0  0  0  0
   -1.7881   -2.4917   -0.0312 H   0  0  0  0  0  0  0  0  0  0  0  0
    0.2766   -1.9877   -1.3764 H   0  0  0  0  0  0  0  0  0  0  0  0
   -1.7606   -0.5152   -1.6041 H   0  0  0  0  0  0  0  0  0  0  0  0
   -1.2349    0.5190   -0.2842 H   0  0  0  0  0  0  0  0  0  0  0  0
   -3.7889   -1.0847   -0.3886 H   0  0  0  0  0  0  0  0  0  0  0  0
   -3.2681   -0.0416    0.9870 H   0  0  0  0  0  0  0  0  0  0  0  0
    0.8926   -0.2063    0.8612 H   0  0  0  0  0  0  0  0  0  0  0  0
    0.8956   -5.1501   -0.0113 H   0  0  0  0  0  0  0  0  0  0  0  0
    0.0899   -4.2376   -1.2363 H   0  0  0  0  0  0  0  0  0  0  0  0
    3.8588    1.1996   -2.1699 H   0  0  0  0  0  0  0  0  0  0  0  0
    2.5176    0.4500    1.8780 H   0  0  0  0  0  0  0  0  0  0  0  0
    5.2101    3.0882   -1.3465 H   0  0  0  0  0  0  0  0  0  0  0  0
    3.8437    2.3446    2.6587 H   0  0  0  0  0  0  0  0  0  0  0  0
    5.2057    3.6702    1.0648 H   0  0  0  0  0  0  0  0  0  0  0  0
   -6.8179    0.4439    0.2602 H   0  0  0  0  0  0  0  0  0  0  0  0
   -5.4962   -0.6595    0.4628 H   0  0  0  0  0  0  0  0  0  0  0  0
   -5.4108    2.9669   -1.7376 H   0  0  0  0  0  0  0  0  0  0  0  0
   -6.7636    2.4705   -0.7795 H   0  0  0  0  0  0  0  0  0  0  0  0
  1 21  1  0  0  0  0
  2 12  2  0  0  0  0
  3 13  2  0  0  0  0
  4  9  1  0  0  0  0
  4 13  1  0  0  0  0
  4 29  1  0  0  0  0
  5 11  1  0  0  0  0
  5 15  2  0  0  0  0
  6 12  1  0  0  0  0
  6 30  1  0  0  0  0
  6 31  1  0  0  0  0
  7 15  1  0  0  0  0
  7 39  1  0  0  0  0
  7 40  1  0  0  0  0
  8  9  1  0  0  0  0
  8 10  1  0  0  0  0
  8 22  1  0  0  0  0
  8 23  1  0  0  0  0
  9 12  1  0  0  0  0
  9 24  1  0  0  0  0
 10 11  1  0  0  0  0
 10 25  1  0  0  0  0
 10 26  1  0  0  0  0
 11 27  1  0  0  0  0
 11 28  1  0  0  0  0
 13 14  1  0  0  0  0
 14 16  2  0  0  0  0
 14 17  1  0  0  0  0
 15 21  1  0  0  0  0
 16 18  1  0  0  0  0
 16 32  1  0  0  0  0
 17 19  2  0  0  0  0
 17 33  1  0  0  0  0
 18 20  2  0  0  0  0
 18 34  1  0  0  0  0
 19 20  1  0  0  0  0
 19 35  1  0  0  0  0
 20 36  1  0  0  0  0
 21 37  1  0  0  0  0
 21 38  1  0  0  0  0
M  END
> <PUBCHEM_COMPOUND_CID>
11964499

> <PUBCHEM_CONFORMER_RMSD>
1

> <PUBCHEM_CONFORMER_DIVERSEORDER>
3
669
393
96
497
505
99
165
357
677
674
631
55
125
49
319
127
512
8
23
389
447
221
430
268
205
211
81
414
320
328
137
113
584
523
32
635
365
648
479
532
355
112
182
214
622
36
240
323
185
101
549
626
286
337
384
47
588
378
649
653
13
75
181
20
327
231
540
39
12
313
87
381
429
263
295
45
273
51
501
131
561
253
200
64
246
460
395
126
354
11
652
139
665
282
269
204
531
169
468
34
158
353
7
390
547
28
18
111
480
103
297
235
68
449
583
58
92
629
69
571
317
334
514
484
259
285
107
16
466
376
520
151
206
546
31
201
129
382
527
472
351
116
227
42
1
336
2
82
6
37
302
399
419
43
405
21
19
120
128
177
104
41
199
194
153
343
154
74
4

> <PUBCHEM_MMFF94_PARTIAL_CHARGES>
29
1 -0.29
11 0.25
12 0.57
13 0.54
14 0.09
15 0.44
16 -0.15
17 -0.15
18 -0.15
19 -0.15
2 -0.57
20 -0.15
21 0.35
29 0.37
3 -0.57
30 0.37
31 0.37
32 0.15
33 0.15
34 0.15
35 0.15
36 0.15
39 0.4
4 -0.73
40 0.4
5 -0.7
6 -0.8
7 -0.85
9 0.36

> <PUBCHEM_EFFECTIVE_ROTOR_COUNT>
9

> <PUBCHEM_PHARMACOPHORE_FEATURES>
7
1 2 acceptor
1 3 acceptor
1 4 donor
1 6 donor
1 7 donor
3 5 7 15 cation
6 14 16 17 18 19 20 rings

> <PUBCHEM_HEAVY_ATOM_COUNT>
21

> <PUBCHEM_ATOM_DEF_STEREO_COUNT>
0

> <PUBCHEM_ATOM_UDEF_STEREO_COUNT>
1

> <PUBCHEM_BOND_DEF_STEREO_COUNT>
0

> <PUBCHEM_BOND_UDEF_STEREO_COUNT>
0

> <PUBCHEM_ISOTOPIC_ATOM_COUNT>
0

> <PUBCHEM_COMPONENT_COUNT>
1

> <PUBCHEM_CACTVS_TAUTO_COUNT>
8

> <PUBCHEM_CONFORMER_ID>
00B6905300000003

> <PUBCHEM_MMFF94_ENERGY>
59.7681

> <PUBCHEM_FEATURE_SELFOVERLAP>
35.522

> <PUBCHEM_SHAPE_FINGERPRINT>
10937287 8 18412539937917940663
12107183 9 18263062432445330832
12363563 72 9511189576513200508
12390115 104 18269003144539749579
12596602 18 16225766345679943797
12730499 353 18410303492870671403
12769317 202 18201432592787971984
12788726 201 17466513725393960802
13590594 115 17764317141150358634
13878862 14 17900237746954275061
13955234 65 18265055734756718499
13965767 371 17894897543157294884
14251740 57 11097858471154832800
14251764 30 13768750280667831704
14251764 38 18046339739509205561
14251764 75 18342463668318143089
14461889 52 18041005051272868595
146900 427 18341341002827090347
14848178 96 18342739623945302097
17834072 32 18266458891871383132
18222031 100 8214148455735007465
18785283 64 18261106323286006362
19752476 56 18060140920702269248
19784866 34 18341610434367375577
21033648 29 18339364196610581584
21120745 212 17042052265407939566
21401589 2 18268993257435324929
23559900 14 17169562800811052783
2838139 119 18271798055668644180
57124632 79 18335693910510928306
633830 44 18272087197246225103
6442390 28 18337394936646077351
67856867 119 18264757788711964771
77188 2 17689429382819130934
7808743 9 18119249712677329756
7970288 3 9799423229710005517
960060 61 14405185071123166341
9841814 1 17973160621782747155

> <PUBCHEM_SHAPE_MULTIPOLES>
402.38
13.27
4.05
1.47
16.04
3.91
0.44
-15.81
0.92
-2.71
0.56
0.19
-0.5
0.7

> <PUBCHEM_SHAPE_SELFOVERLAP>
806.655

> <PUBCHEM_SHAPE_VOLUME>
235.8

> <PUBCHEM_COORDINATE_TYPE>
2
5
10

$$$$
