11970121
  -OEChem-03292013303D

 33 35  0     1  0  0  0  0  0999 V2000
   -1.5719    1.2111   -2.3493 O   0  0  0  0  0  0  0  0  0  0  0  0
   -5.2064    0.5325    0.1953 O   0  0  0  0  0  0  0  0  0  0  0  0
    0.1332   -0.4918    0.1647 N   0  0  0  0  0  0  0  0  0  0  0  0
    1.8041   -1.7726   -0.5683 N   0  0  0  0  0  0  0  0  0  0  0  0
    1.3821    1.4835    0.8274 N   0  0  0  0  0  0  0  0  0  0  0  0
    3.7714    1.1997    0.4193 N   0  0  0  0  0  0  0  0  0  0  0  0
    4.6857   -0.8028   -0.5185 N   0  0  0  0  0  0  0  0  0  0  0  0
   -2.2233   -0.3321   -0.6415 C   0  0  1  0  0  0  0  0  0  0  0  0
   -1.2096   -0.0961    0.4975 C   0  0  1  0  0  0  0  0  0  0  0  0
   -3.2158   -0.8017    0.4424 C   0  0  1  0  0  0  0  0  0  0  0  0
   -1.9870   -1.1563    1.3054 C   0  0  0  0  0  0  0  0  0  0  0  0
   -2.5956    0.9246   -1.4100 C   0  0  0  0  0  0  0  0  0  0  0  0
   -4.1012    0.2925    1.0554 C   0  0  0  0  0  0  0  0  0  0  0  0
    1.2729    0.2429    0.3290 C   0  0  0  0  0  0  0  0  0  0  0  0
    0.5037   -1.6938   -0.3776 C   0  0  0  0  0  0  0  0  0  0  0  0
    2.2973   -0.5691   -0.1309 C   0  0  0  0  0  0  0  0  0  0  0  0
    3.5864   -0.0489   -0.0731 C   0  0  0  0  0  0  0  0  0  0  0  0
    2.6739    1.8783    0.8328 C   0  0  0  0  0  0  0  0  0  0  0  0
   -1.9902   -1.1555   -1.3313 H   0  0  0  0  0  0  0  0  0  0  0  0
   -1.2620    0.9017    0.9526 H   0  0  0  0  0  0  0  0  0  0  0  0
   -3.8107   -1.6790    0.1606 H   0  0  0  0  0  0  0  0  0  0  0  0
   -2.0772   -0.9507    2.3767 H   0  0  0  0  0  0  0  0  0  0  0  0
   -1.6728   -2.2001    1.1907 H   0  0  0  0  0  0  0  0  0  0  0  0
   -2.7084    1.8031   -0.7692 H   0  0  0  0  0  0  0  0  0  0  0  0
   -3.5275    0.7829   -1.9664 H   0  0  0  0  0  0  0  0  0  0  0  0
   -4.5030   -0.0584    2.0122 H   0  0  0  0  0  0  0  0  0  0  0  0
   -3.5711    1.2314    1.2395 H   0  0  0  0  0  0  0  0  0  0  0  0
   -0.1997   -2.4798   -0.6163 H   0  0  0  0  0  0  0  0  0  0  0  0
   -1.5205    0.4621   -2.9673 H   0  0  0  0  0  0  0  0  0  0  0  0
   -5.7578    1.2106    0.6215 H   0  0  0  0  0  0  0  0  0  0  0  0
    2.8590    2.8742    1.2210 H   0  0  0  0  0  0  0  0  0  0  0  0
    5.6125   -0.4023   -0.4664 H   0  0  0  0  0  0  0  0  0  0  0  0
    4.5506   -1.7346   -0.8867 H   0  0  0  0  0  0  0  0  0  0  0  0
  1 12  1  0  0  0  0
  1 29  1  0  0  0  0
  2 13  1  0  0  0  0
  2 30  1  0  0  0  0
  3  9  1  0  0  0  0
  3 14  1  0  0  0  0
  3 15  1  0  0  0  0
  4 15  2  0  0  0  0
  4 16  1  0  0  0  0
  5 14  2  0  0  0  0
  5 18  1  0  0  0  0
  6 17  1  0  0  0  0
  6 18  2  0  0  0  0
  7 17  1  0  0  0  0
  7 32  1  0  0  0  0
  7 33  1  0  0  0  0
  8  9  1  0  0  0  0
  8 10  1  0  0  0  0
  8 12  1  0  0  0  0
  8 19  1  0  0  0  0
  9 11  1  0  0  0  0
  9 20  1  0  0  0  0
 10 11  1  0  0  0  0
 10 13  1  0  0  0  0
 10 21  1  0  0  0  0
 11 22  1  0  0  0  0
 11 23  1  0  0  0  0
 12 24  1  0  0  0  0
 12 25  1  0  0  0  0
 13 26  1  0  0  0  0
 13 27  1  0  0  0  0
 14 16  1  0  0  0  0
 15 28  1  0  0  0  0
 16 17  2  0  0  0  0
 18 31  1  0  0  0  0
M  END
> <PUBCHEM_COMPOUND_CID>
11970121

> <PUBCHEM_CONFORMER_RMSD>
0.6

> <PUBCHEM_CONFORMER_DIVERSEORDER>
1
24
2
11
3
17
16
20
6
12
22
21
26
10
19
7
23
8
25
14
4
15
5
13
9
18

> <PUBCHEM_MMFF94_PARTIAL_CHARGES>
21
1 -0.68
12 0.28
13 0.28
14 0.11
15 0.04
16 0.23
17 0.41
18 0.47
2 -0.68
28 0.15
29 0.4
3 0.22
30 0.4
31 0.15
32 0.4
33 0.4
4 -0.57
5 -0.57
6 -0.62
7 -0.9
9 0.09

> <PUBCHEM_EFFECTIVE_ROTOR_COUNT>
3.8

> <PUBCHEM_PHARMACOPHORE_FEATURES>
12
1 1 acceptor
1 1 donor
1 2 acceptor
1 2 donor
1 7 cation
1 7 donor
3 3 4 15 cation
3 3 5 14 cation
3 5 6 18 cation
4 8 9 10 11 rings
5 3 4 14 15 16 rings
6 5 6 14 16 17 18 rings

> <PUBCHEM_HEAVY_ATOM_COUNT>
18

> <PUBCHEM_ATOM_DEF_STEREO_COUNT>
3

> <PUBCHEM_ATOM_UDEF_STEREO_COUNT>
0

> <PUBCHEM_BOND_DEF_STEREO_COUNT>
0

> <PUBCHEM_BOND_UDEF_STEREO_COUNT>
0

> <PUBCHEM_ISOTOPIC_ATOM_COUNT>
0

> <PUBCHEM_COMPONENT_COUNT>
1

> <PUBCHEM_CACTVS_TAUTO_COUNT>
3

> <PUBCHEM_CONFORMER_ID>
00B6A64900000001

> <PUBCHEM_MMFF94_ENERGY>
42.8337

> <PUBCHEM_FEATURE_SELFOVERLAP>
61.501

> <PUBCHEM_SHAPE_FINGERPRINT>
10366900 7 18040715891639855099
11132069 177 18113336444658644213
11471102 20 18273217499562792688
12186901 62 17603583002297733438
12236239 1 16774079557372470075
12403259 415 18334008389609177532
12932764 1 18187917391606404618
13538477 17 15913321412217014143
13581323 91 16443063906671180491
13583140 156 17387942439963249448
13764800 53 17458896038448572021
14289901 80 17095240341267595978
15219456 202 18335134271977142863
15342168 16 18195810888793610573
15653759 3 17967247611340500648
16752209 62 14764353687342135771
16945 1 18201715150618401074
17834072 33 17989203776790500199
17844478 74 18187083966140083253
18175812 5 18335707190539355475
18186145 218 18271802441199069966
19049666 15 18042679494815957987
19862831 5 16702302364595672739
200 152 17704070703071263355
20645476 183 16702299066461703479
20645477 70 18060144214931921734
21486144 27 18411979191350820163
21639500 275 17987786536061151864
23402539 116 17603301574935369615
23402655 69 17775289386711345592
23493267 7 17749665208302121152
23557571 272 17749395823447261495
23559900 14 17603585179989116186
25 1 18343581854336757458
2748010 2 18056198218545700826
3286 77 18271807998654707335
474 4 18059292179330167568
5104073 3 18271527592961707394
633830 44 17989209269742376980
77492 1 16774078479145735730
8272917 22 17703242698043885495

> <PUBCHEM_SHAPE_MULTIPOLES>
333.79
8.22
1.62
1.3
1.16
0.06
0.55
1.22
-0.74
-0.93
0.01
1.01
0.4
1.14

> <PUBCHEM_SHAPE_SELFOVERLAP>
722.412

> <PUBCHEM_SHAPE_VOLUME>
181.6

> <PUBCHEM_COORDINATE_TYPE>
2
5
10

$$$$
