11972575
  -OEChem-03292013303D

 54 57  0     1  0  0  0  0  0999 V2000
   -1.1617   -1.0570   -2.4456 F   0  0  0  0  0  0  0  0  0  0  0  0
   -1.6361    1.1997    1.7134 F   0  0  0  0  0  0  0  0  0  0  0  0
    4.6386    2.0404    0.0221 O   0  0  0  0  0  0  0  0  0  0  0  0
    6.8888    0.3228   -0.1753 O   0  0  0  0  0  0  0  0  0  0  0  0
    2.9451    2.4116    1.4841 O   0  0  0  0  0  0  0  0  0  0  0  0
   -7.2850   -1.5148    1.4812 O   0  0  0  0  0  0  0  0  0  0  0  0
   -9.1695   -0.7339   -0.1223 O   0  0  0  0  0  0  0  0  0  0  0  0
   -8.3997    1.2661    1.6045 O   0  0  0  0  0  0  0  0  0  0  0  0
    9.4729   -1.5815    1.1278 O   0  0  0  0  0  0  0  0  0  0  0  0
   -5.6254   -0.9703   -0.0562 N   0  0  0  0  0  0  0  0  0  0  0  0
    2.6280    1.1551   -0.4957 N   0  0  0  0  0  0  0  0  0  0  0  0
    8.9174   -0.3704    0.7334 N   0  0  0  0  0  0  0  0  0  0  0  0
   -3.3468   -1.1471    0.8536 C   0  0  0  0  0  0  0  0  0  0  0  0
   -4.6464   -1.8814    0.5351 C   0  0  0  0  0  0  0  0  0  0  0  0
   -2.8694   -0.3250   -0.3179 C   0  0  0  0  0  0  0  0  0  0  0  0
    4.8609    1.1794   -1.1036 C   0  0  2  0  0  0  0  0  0  0  0  0
    3.4725    0.8809   -1.6273 C   0  0  0  0  0  0  0  0  0  0  0  0
   -5.2021   -0.2696   -1.2756 C   0  0  0  0  0  0  0  0  0  0  0  0
   -1.4387    0.0598   -0.3642 C   0  0  0  0  0  0  0  0  0  0  0  0
   -3.7354    0.0540   -1.2768 C   0  0  0  0  0  0  0  0  0  0  0  0
    1.2538    0.7844   -0.4505 C   0  0  0  0  0  0  0  0  0  0  0  0
    5.6045   -0.0629   -0.6331 C   0  0  0  0  0  0  0  0  0  0  0  0
    3.3354    1.9007    0.4439 C   0  0  0  0  0  0  0  0  0  0  0  0
   -6.9240   -0.9286    0.4578 C   0  0  0  0  0  0  0  0  0  0  0  0
   -0.6452   -0.3322   -1.4423 C   0  0  0  0  0  0  0  0  0  0  0  0
   -0.8859    0.8139    0.6708 C   0  0  0  0  0  0  0  0  0  0  0  0
    0.7010    0.0302   -1.4855 C   0  0  0  0  0  0  0  0  0  0  0  0
    0.4603    1.1764    0.6276 C   0  0  0  0  0  0  0  0  0  0  0  0
   -7.9219   -0.0972   -0.3100 C   0  0  2  0  0  0  0  0  0  0  0  0
   -7.9846    1.3084    0.2470 C   0  0  0  0  0  0  0  0  0  0  0  0
    7.6955   -0.6788    0.2895 C   0  0  0  0  0  0  0  0  0  0  0  0
    7.4271   -2.0556    0.3786 C   0  0  0  0  0  0  0  0  0  0  0  0
    8.5759   -2.5775    0.9116 C   0  0  0  0  0  0  0  0  0  0  0  0
   -3.5043   -0.4853    1.7142 H   0  0  0  0  0  0  0  0  0  0  0  0
   -2.5889   -1.8862    1.1397 H   0  0  0  0  0  0  0  0  0  0  0  0
   -5.0408   -2.3478    1.4436 H   0  0  0  0  0  0  0  0  0  0  0  0
   -4.4708   -2.6851   -0.1912 H   0  0  0  0  0  0  0  0  0  0  0  0
    5.4604    1.7227   -1.8422 H   0  0  0  0  0  0  0  0  0  0  0  0
    3.2007    1.5768   -2.4292 H   0  0  0  0  0  0  0  0  0  0  0  0
    3.3873   -0.1492   -1.9848 H   0  0  0  0  0  0  0  0  0  0  0  0
   -5.7523    0.6664   -1.3922 H   0  0  0  0  0  0  0  0  0  0  0  0
   -5.4393   -0.9172   -2.1268 H   0  0  0  0  0  0  0  0  0  0  0  0
   -3.3864    0.6506   -2.1171 H   0  0  0  0  0  0  0  0  0  0  0  0
    5.0556   -0.5400    0.1889 H   0  0  0  0  0  0  0  0  0  0  0  0
    5.7031   -0.7678   -1.4676 H   0  0  0  0  0  0  0  0  0  0  0  0
    1.2760   -0.2903   -2.3481 H   0  0  0  0  0  0  0  0  0  0  0  0
    0.8239    1.7599    1.4623 H   0  0  0  0  0  0  0  0  0  0  0  0
   -7.7273   -0.1019   -1.3837 H   0  0  0  0  0  0  0  0  0  0  0  0
   -8.7244    1.8989   -0.3028 H   0  0  0  0  0  0  0  0  0  0  0  0
   -7.0153    1.8128    0.1972 H   0  0  0  0  0  0  0  0  0  0  0  0
   -9.4310   -0.6270    0.8084 H   0  0  0  0  0  0  0  0  0  0  0  0
   -8.4378    2.1849    1.9208 H   0  0  0  0  0  0  0  0  0  0  0  0
    6.5393   -2.6047    0.1024 H   0  0  0  0  0  0  0  0  0  0  0  0
    8.8996   -3.5713    1.1825 H   0  0  0  0  0  0  0  0  0  0  0  0
  1 25  1  0  0  0  0
  2 26  1  0  0  0  0
  3 16  1  0  0  0  0
  3 23  1  0  0  0  0
  4 22  1  0  0  0  0
  4 31  1  0  0  0  0
  5 23  2  0  0  0  0
  6 24  2  0  0  0  0
  7 29  1  0  0  0  0
  7 51  1  0  0  0  0
  8 30  1  0  0  0  0
  8 52  1  0  0  0  0
  9 12  1  0  0  0  0
  9 33  1  0  0  0  0
 10 14  1  0  0  0  0
 10 18  1  0  0  0  0
 10 24  1  0  0  0  0
 11 17  1  0  0  0  0
 11 21  1  0  0  0  0
 11 23  1  0  0  0  0
 12 31  2  0  0  0  0
 13 14  1  0  0  0  0
 13 15  1  0  0  0  0
 13 34  1  0  0  0  0
 13 35  1  0  0  0  0
 14 36  1  0  0  0  0
 14 37  1  0  0  0  0
 15 19  1  0  0  0  0
 15 20  2  0  0  0  0
 16 17  1  0  0  0  0
 16 22  1  0  0  0  0
 16 38  1  0  0  0  0
 17 39  1  0  0  0  0
 17 40  1  0  0  0  0
 18 20  1  0  0  0  0
 18 41  1  0  0  0  0
 18 42  1  0  0  0  0
 19 25  2  0  0  0  0
 19 26  1  0  0  0  0
 20 43  1  0  0  0  0
 21 27  2  0  0  0  0
 21 28  1  0  0  0  0
 22 44  1  0  0  0  0
 22 45  1  0  0  0  0
 24 29  1  0  0  0  0
 25 27  1  0  0  0  0
 26 28  2  0  0  0  0
 27 46  1  0  0  0  0
 28 47  1  0  0  0  0
 29 30  1  0  0  0  0
 29 48  1  0  0  0  0
 30 49  1  0  0  0  0
 30 50  1  0  0  0  0
 31 32  1  0  0  0  0
 32 33  2  0  0  0  0
 32 53  1  0  0  0  0
 33 54  1  0  0  0  0
M  END
> <PUBCHEM_COMPOUND_CID>
11972575

> <PUBCHEM_CONFORMER_RMSD>
1

> <PUBCHEM_CONFORMER_DIVERSEORDER>
1
116
17
42
93
24
55
119
124
109
51
48
62
104
130
132
114
31
6
122
7
111
39
57
129
34
35
108
36
77
33
49
54
106
125
127
98
120
52
91
64
20
60
44
70
126
94
87
47
73
19
61
38
90
118
101
41
102
115
40
32
128
131
72
58
29
18
133
53
92
80
12
105
83
23
85
121
82
14
43
56
81
45
66
112
103
110
100
117
79
74
21
71
123
50
27
95
88
59
78
3
113
16
5
30
107
10
96
99
46
67
25
26
69
13
22
37
65
15
4
97
63
8
11
68
84
76
75
28
86
2
89
9

> <PUBCHEM_MMFF94_PARTIAL_CHARGES>
40
1 -0.19
10 -0.66
11 -0.48
12 -0.41
13 0.14
14 0.3
15 -0.17
16 0.28
17 0.3
18 0.44
19 0.03
2 -0.19
20 -0.29
21 0.12
22 0.28
23 0.78
24 0.57
25 0.19
26 0.19
27 -0.15
28 -0.15
29 0.34
3 -0.43
30 0.28
31 0.35
32 -0.15
33 -0.01
4 -0.34
43 0.15
46 0.15
47 0.15
5 -0.57
51 0.4
52 0.4
53 0.15
54 0.15
6 -0.57
7 -0.68
8 -0.68
9 -0.02

> <PUBCHEM_EFFECTIVE_ROTOR_COUNT>
9.6

> <PUBCHEM_PHARMACOPHORE_FEATURES>
10
1 5 acceptor
1 6 acceptor
1 7 acceptor
1 7 donor
1 8 acceptor
1 8 donor
5 3 11 16 17 23 rings
5 9 12 31 32 33 rings
6 10 13 14 15 18 20 rings
6 19 21 25 26 27 28 rings

> <PUBCHEM_HEAVY_ATOM_COUNT>
33

> <PUBCHEM_ATOM_DEF_STEREO_COUNT>
0

> <PUBCHEM_ATOM_UDEF_STEREO_COUNT>
2

> <PUBCHEM_BOND_DEF_STEREO_COUNT>
0

> <PUBCHEM_BOND_UDEF_STEREO_COUNT>
0

> <PUBCHEM_ISOTOPIC_ATOM_COUNT>
0

> <PUBCHEM_COMPONENT_COUNT>
1

> <PUBCHEM_CACTVS_TAUTO_COUNT>
1

> <PUBCHEM_CONFORMER_ID>
00B6AFDF00000001

> <PUBCHEM_MMFF94_ENERGY>
78.0345

> <PUBCHEM_FEATURE_SELFOVERLAP>
50.77

> <PUBCHEM_SHAPE_FINGERPRINT>
10 15 17131832093262942192
10076449 9 11963396245686687957
10930396 42 15984813818697861322
11409948 35 18114455661217280906
11456790 92 18202568388346593401
11578821 258 11815904439927749283
12144603 126 18272652381553369692
12236239 1 15267076860913086245
12838862 33 16630522908751197997
13008946 282 17203036509038311280
13947934 56 18335699408950574492
14142895 15 9799683805701875050
14202775 3 17822299033034873331
14216079 64 18186800267172283382
14344974 52 12613047102327471918
14359421 15 17096643207433398642
14444916 359 16877664560990108027
14856354 85 15285643244477775683
15131766 46 17837208543139657020
15320294 125 18273208699982432302
15419008 145 18202003183968527473
15461852 350 10665234756740311097
1754911 235 9367344851497742642
17899979 19 9727630626880713254
19301679 30 18129103321727599422
19841028 212 18188768337241787610
20105231 36 15647059270088509305
2026 5 17313935313742881066
20554085 129 15267340721802148862
21049683 271 11097857401977313935
21130935 74 18190183575339384739
21150785 3 10665225955898484887
21267235 1 15213020466496556781
21403212 168 17632296774137548774
21792934 111 17489866037949474184
21792938 703 16298679377793087995
21792961 116 18335413544231996381
23389318 12 9799404491479102785
23559900 14 18042122218846897524
23569917 315 17313959653306989747
23576562 1 11531065017612191347
24771293 8 13254803442592334971
2851757 41 18116992188627820346
3178227 256 18342175579503045342
3383291 50 18131354116092364846
437795 160 15194993994865875423
439807 62 18186802470527371010
45377200 153 16298679381660410785
474113 269 18412546479538065818
5381727 24 18408606981727826259
59682541 35 14405185088097248775
6058803 2 17055252362091955836
6081469 158 18113617884753559429
6126387 218 16988560186954362713
6201320 215 18129945560430434865
6438161 24 18334292072557676874

> <PUBCHEM_SHAPE_MULTIPOLES>
608.55
30.62
2.05
1.52
9.74
0.46
0.25
15.22
-8.75
3.16
-0.73
-0.71
-0.26
-0.96

> <PUBCHEM_SHAPE_SELFOVERLAP>
1313.577

> <PUBCHEM_SHAPE_VOLUME>
334.1

> <PUBCHEM_COORDINATE_TYPE>
2
5
10

$$$$
