11970621
  -OEChem-03292013303D

 25 25  0     0  0  0  0  0  0999 V2000
   -4.2772    0.5679    0.0034 S   0  0  0  0  0  0  0  0  0  0  0  0
   -1.3747    0.9245    0.5295 S   0  0  0  0  0  0  0  0  0  0  0  0
    3.6247    0.6277   -0.2492 O   0  0  0  0  0  0  0  0  0  0  0  0
   -4.1867    2.0284    0.0683 O   0  0  0  0  0  0  0  0  0  0  0  0
   -5.0107   -0.0662   -1.0927 O   0  0  0  0  0  0  0  0  0  0  0  0
    2.0043   -2.1136   -0.5985 O   0  0  0  0  0  0  0  0  0  0  0  0
    4.0378   -1.1466    1.1940 O   0  0  0  0  0  0  0  0  0  0  0  0
    1.0175   -0.1412    0.2779 N   0  0  0  0  0  0  0  0  0  0  0  0
   -2.2747   -1.1739   -0.6339 N   0  0  0  0  0  0  0  0  0  0  0  0
   -0.9038   -1.3477   -0.5571 N   0  0  0  0  0  0  0  0  0  0  0  0
   -4.9851    0.0380    1.4845 N   0  0  0  0  0  0  0  0  0  0  0  0
   -2.6517   -0.0300   -0.1036 C   0  0  0  0  0  0  0  0  0  0  0  0
   -0.3418   -0.3304    0.0218 C   0  0  0  0  0  0  0  0  0  0  0  0
    2.0224   -1.0255   -0.0484 C   0  0  0  0  0  0  0  0  0  0  0  0
    4.8931    1.2167    0.0511 C   0  0  0  0  0  0  0  0  0  0  0  0
    3.3643   -0.5255    0.3955 C   0  0  0  0  0  0  0  0  0  0  0  0
    5.0423    2.4973   -0.7424 C   0  0  0  0  0  0  0  0  0  0  0  0
    1.2526    0.7291    0.7479 H   0  0  0  0  0  0  0  0  0  0  0  0
    4.9493    1.4367    1.1232 H   0  0  0  0  0  0  0  0  0  0  0  0
    5.6936    0.5185   -0.2183 H   0  0  0  0  0  0  0  0  0  0  0  0
   -5.1653   -0.9706    1.5693 H   0  0  0  0  0  0  0  0  0  0  0  0
   -4.5967    0.4419    2.3464 H   0  0  0  0  0  0  0  0  0  0  0  0
    6.0038    2.9756   -0.5360 H   0  0  0  0  0  0  0  0  0  0  0  0
    4.9709    2.2957   -1.8163 H   0  0  0  0  0  0  0  0  0  0  0  0
    4.2382    3.1987   -0.4966 H   0  0  0  0  0  0  0  0  0  0  0  0
  1  4  2  0  0  0  0
  1  5  2  0  0  0  0
  1 11  1  0  0  0  0
  1 12  1  0  0  0  0
  2 12  1  0  0  0  0
  2 13  1  0  0  0  0
  3 15  1  0  0  0  0
  3 16  1  0  0  0  0
  6 14  2  0  0  0  0
  7 16  2  0  0  0  0
  8 13  1  0  0  0  0
  8 14  1  0  0  0  0
  8 18  1  0  0  0  0
  9 10  1  0  0  0  0
  9 12  2  0  0  0  0
 10 13  2  0  0  0  0
 11 21  1  0  0  0  0
 11 22  1  0  0  0  0
 14 16  1  0  0  0  0
 15 17  1  0  0  0  0
 15 19  1  0  0  0  0
 15 20  1  0  0  0  0
 17 23  1  0  0  0  0
 17 24  1  0  0  0  0
 17 25  1  0  0  0  0
M  END
> <PUBCHEM_COMPOUND_CID>
11970621

> <PUBCHEM_CONFORMER_RMSD>
0.8

> <PUBCHEM_CONFORMER_DIVERSEORDER>
1
2
16
12
11
8
21
7
23
17
15
10
4
9
14
20
5
19
13
6
3
22
18

> <PUBCHEM_MMFF94_PARTIAL_CHARGES>
19
1 1.5
10 -0.34
11 -0.98
12 0.32
13 0.44
14 0.63
15 0.28
16 0.72
18 0.37
2 -0.08
21 0.42
22 0.42
3 -0.43
4 -0.65
5 -0.65
6 -0.57
7 -0.57
8 -0.49
9 -0.34

> <PUBCHEM_EFFECTIVE_ROTOR_COUNT>
6

> <PUBCHEM_PHARMACOPHORE_FEATURES>
8
1 11 donor
1 4 acceptor
1 5 acceptor
1 6 acceptor
1 7 acceptor
1 8 donor
1 9 acceptor
5 2 9 10 12 13 rings

> <PUBCHEM_HEAVY_ATOM_COUNT>
17

> <PUBCHEM_ATOM_DEF_STEREO_COUNT>
0

> <PUBCHEM_ATOM_UDEF_STEREO_COUNT>
0

> <PUBCHEM_BOND_DEF_STEREO_COUNT>
0

> <PUBCHEM_BOND_UDEF_STEREO_COUNT>
0

> <PUBCHEM_ISOTOPIC_ATOM_COUNT>
0

> <PUBCHEM_COMPONENT_COUNT>
1

> <PUBCHEM_CACTVS_TAUTO_COUNT>
3

> <PUBCHEM_CONFORMER_ID>
00B6A83D00000001

> <PUBCHEM_MMFF94_ENERGY>
17.304

> <PUBCHEM_FEATURE_SELFOVERLAP>
40.618

> <PUBCHEM_SHAPE_FINGERPRINT>
10014705 185 18335696135815612853
10912923 1 18341608218122286747
12596602 18 17894351077399359561
13533116 47 17023739009808370186
13675066 3 16732980894978944503
13760787 5 18343301431785302847
14123238 8 18410009936071497939
1420 369 8502384325609125260
14251732 16 18188213225096447395
14251764 75 17536331567313154396
14528608 73 18343299305597351340
14774955 27 18334574689689941316
15342168 16 17968381259858858710
15375358 24 18335140877700524555
17834072 33 18272362105460292559
17959699 21 18409445864873636808
18785283 64 16299809735100562676
20645477 70 17774724138908704086
21652331 79 18334856121458619908
22079108 93 17676491686902082107
23402539 116 17988066799856968133
23402655 69 18202844348701223068
23532345 1 18408887300118527178
23559900 14 17916583120856188518
23596394 208 14907910344764566820
3286 77 8718828678357290130
449060 50 18409735057895626127
449060 62 18272652342175684998
474 4 18041281062529166100
4990 188 14476960090709393286
5104073 3 18186520990321926392
522135 26 10519981578371842258
633830 44 18267022756874157343
90127 26 18263092036969079849

> <PUBCHEM_SHAPE_MULTIPOLES>
308.28
12.22
1.93
0.94
0.32
0.53
0.13
6.08
0.21
2.04
-0.35
-0.43
-0.07
-0.97

> <PUBCHEM_SHAPE_SELFOVERLAP>
602.951

> <PUBCHEM_SHAPE_VOLUME>
186.1

> <PUBCHEM_COORDINATE_TYPE>
2
5
10

$$$$
