11972398
  -OEChem-03292013303D

 52 55  0     1  0  0  0  0  0999 V2000
   -3.5528   -0.5517   -0.4679 O   0  0  0  0  0  0  0  0  0  0  0  0
   -3.0060    1.7146   -0.3743 O   0  0  0  0  0  0  0  0  0  0  0  0
   -7.5144    0.2407    0.2704 O   0  0  0  0  0  0  0  0  0  0  0  0
   -6.4952   -2.4416    0.6201 O   0  0  0  0  0  0  0  0  0  0  0  0
   -5.4495    2.2267    0.9581 O   0  0  0  0  0  0  0  0  0  0  0  0
   -2.4624   -3.0749   -0.4943 O   0  0  0  0  0  0  0  0  0  0  0  0
    2.9049   -0.3281    0.0660 O   0  0  0  0  0  0  0  0  0  0  0  0
    5.6328    2.7256    0.3135 O   0  0  0  0  0  0  0  0  0  0  0  0
    6.3430   -3.5917    0.1744 O   0  0  0  0  0  0  0  0  0  0  0  0
   -6.1623   -0.0545    0.6241 C   0  0  1  0  0  0  0  0  0  0  0  0
   -5.7843   -1.3870   -0.0229 C   0  0  1  0  0  0  0  0  0  0  0  0
   -5.2515    1.0739    0.1400 C   0  0  2  0  0  0  0  0  0  0  0  0
   -4.2803   -1.6428    0.0990 C   0  0  1  0  0  0  0  0  0  0  0  0
   -3.7784    0.6743    0.2241 C   0  0  1  0  0  0  0  0  0  0  0  0
   -3.8609   -2.9091   -0.6410 C   0  0  0  0  0  0  0  0  0  0  0  0
    2.6083    0.9657   -0.4824 C   0  0  1  0  0  0  0  0  0  0  0  0
   -1.6504    1.5334   -0.4001 C   0  0  0  0  0  0  0  0  0  0  0  0
    1.1077    1.1663   -0.4531 C   0  0  0  0  0  0  0  0  0  0  0  0
    3.3259    2.0676    0.2947 C   0  0  0  0  0  0  0  0  0  0  0  0
   -0.9814    1.5002   -1.6197 C   0  0  0  0  0  0  0  0  0  0  0  0
   -0.9505    1.3843    0.7932 C   0  0  0  0  0  0  0  0  0  0  0  0
    0.4010    1.3162   -1.6462 C   0  0  0  0  0  0  0  0  0  0  0  0
    0.4318    1.2002    0.7666 C   0  0  0  0  0  0  0  0  0  0  0  0
    4.8111    1.8194    0.2428 C   0  0  0  0  0  0  0  0  0  0  0  0
    5.2284    0.4038    0.1749 C   0  0  0  0  0  0  0  0  0  0  0  0
    4.2493   -0.5921    0.1134 C   0  0  0  0  0  0  0  0  0  0  0  0
    6.5822    0.0611    0.2163 C   0  0  0  0  0  0  0  0  0  0  0  0
    4.6250   -1.9359    0.1282 C   0  0  0  0  0  0  0  0  0  0  0  0
    5.9763   -2.2805    0.1717 C   0  0  0  0  0  0  0  0  0  0  0  0
    6.9524   -1.2842    0.2104 C   0  0  0  0  0  0  0  0  0  0  0  0
   -6.1376   -0.1277    1.7183 H   0  0  0  0  0  0  0  0  0  0  0  0
   -6.0901   -1.3802   -1.0764 H   0  0  0  0  0  0  0  0  0  0  0  0
   -5.5161    1.3627   -0.8841 H   0  0  0  0  0  0  0  0  0  0  0  0
   -3.9824   -1.7507    1.1509 H   0  0  0  0  0  0  0  0  0  0  0  0
   -3.4871    0.5666    1.2772 H   0  0  0  0  0  0  0  0  0  0  0  0
   -4.0782   -2.8380   -1.7119 H   0  0  0  0  0  0  0  0  0  0  0  0
   -4.3573   -3.7967   -0.2385 H   0  0  0  0  0  0  0  0  0  0  0  0
   -8.0643   -0.4997    0.5790 H   0  0  0  0  0  0  0  0  0  0  0  0
   -6.2249   -2.4602    1.5540 H   0  0  0  0  0  0  0  0  0  0  0  0
   -5.2212    1.9901    1.8733 H   0  0  0  0  0  0  0  0  0  0  0  0
    2.9478    0.9700   -1.5288 H   0  0  0  0  0  0  0  0  0  0  0  0
    3.0456    2.0899    1.3538 H   0  0  0  0  0  0  0  0  0  0  0  0
    3.1143    3.0469   -0.1491 H   0  0  0  0  0  0  0  0  0  0  0  0
   -1.5280    1.6159   -2.5514 H   0  0  0  0  0  0  0  0  0  0  0  0
   -1.4569    1.4238    1.7531 H   0  0  0  0  0  0  0  0  0  0  0  0
   -2.0326   -2.2773   -0.8479 H   0  0  0  0  0  0  0  0  0  0  0  0
    0.9128    1.2916   -2.6045 H   0  0  0  0  0  0  0  0  0  0  0  0
    0.9627    1.0774    1.7066 H   0  0  0  0  0  0  0  0  0  0  0  0
    7.3566    0.8213    0.2640 H   0  0  0  0  0  0  0  0  0  0  0  0
    3.8677   -2.7154    0.0955 H   0  0  0  0  0  0  0  0  0  0  0  0
    8.0073   -1.5437    0.2448 H   0  0  0  0  0  0  0  0  0  0  0  0
    7.3136   -3.6473    0.2064 H   0  0  0  0  0  0  0  0  0  0  0  0
  1 13  1  0  0  0  0
  1 14  1  0  0  0  0
  2 14  1  0  0  0  0
  2 17  1  0  0  0  0
  3 10  1  0  0  0  0
  3 38  1  0  0  0  0
  4 11  1  0  0  0  0
  4 39  1  0  0  0  0
  5 12  1  0  0  0  0
  5 40  1  0  0  0  0
  6 15  1  0  0  0  0
  6 46  1  0  0  0  0
  7 16  1  0  0  0  0
  7 26  1  0  0  0  0
  8 24  2  0  0  0  0
  9 29  1  0  0  0  0
  9 52  1  0  0  0  0
 10 11  1  0  0  0  0
 10 12  1  0  0  0  0
 10 31  1  0  0  0  0
 11 13  1  0  0  0  0
 11 32  1  0  0  0  0
 12 14  1  0  0  0  0
 12 33  1  0  0  0  0
 13 15  1  0  0  0  0
 13 34  1  0  0  0  0
 14 35  1  0  0  0  0
 15 36  1  0  0  0  0
 15 37  1  0  0  0  0
 16 18  1  0  0  0  0
 16 19  1  0  0  0  0
 16 41  1  0  0  0  0
 17 20  2  0  0  0  0
 17 21  1  0  0  0  0
 18 22  2  0  0  0  0
 18 23  1  0  0  0  0
 19 24  1  0  0  0  0
 19 42  1  0  0  0  0
 19 43  1  0  0  0  0
 20 22  1  0  0  0  0
 20 44  1  0  0  0  0
 21 23  2  0  0  0  0
 21 45  1  0  0  0  0
 22 47  1  0  0  0  0
 23 48  1  0  0  0  0
 24 25  1  0  0  0  0
 25 26  2  0  0  0  0
 25 27  1  0  0  0  0
 26 28  1  0  0  0  0
 27 30  2  0  0  0  0
 27 49  1  0  0  0  0
 28 29  2  0  0  0  0
 28 50  1  0  0  0  0
 29 30  1  0  0  0  0
 30 51  1  0  0  0  0
M  END
> <PUBCHEM_COMPOUND_CID>
11972398

> <PUBCHEM_CONFORMER_RMSD>
0.8

> <PUBCHEM_CONFORMER_DIVERSEORDER>
1
376
213
353
73
25
97
423
68
10
29
328
415
51
357
112
121
396
419
71
145
395
181
32
166
66
139
123
360
399
118
28
176
259
301
128
242
72
203
17
26
374
92
420
42
238
119
12
373
379
6
82
13
130
406
372
134
347
46
99
274
178
188
150
57
260
122
240
377
402
316
4
120
422
317
237
320
40
137
416
143
244
233
171
234
403
80
362
303
239
256
168
272
3
265
312
218
60
158
307
275
182
380
47
58
161
412
216
204
359
211
336
110
174
294
306
96
125
9
113
69
18
14
382
367
177
421
35
56
366
102
170
115
331
251
195
314
351
103
343
132
302
222
76
39
327
64
369
215
8
2
226
346
246
414
148
138
83
391
228
24
329
243
231
352
156
383
344
388
152
407
197
38
62
93
254
90
411
409
49
295
247
326
398
7
267
33
114
59
185
410
108
164
287
270
227
154
191
356
187
245
50
23
20
48
313
288
315
392
341
89
268
67
172
94
323
334
91
11
248
192
155
184
309
5
144
109
175
15
363
350
405
385
167
111
129
299
285
263
271
404
136
418
200
27
84
189
305
283
126
22
333
348
371
104
86
19
325
131
75
397
209
364
266
250
87
54
21
390
199
116
276
339
401
296
140
43
202
135
229
273
375
198
107
149
100
308
30
321
146
417
147
290
133
279
281
220
262
387
173
74
41
365
162
210
157
298
235
53
322
291
278
16
258
277
31
324
36
34
386
85
117
335
45
169
88
163
77
183
319
345
289
151
304
292
368
208
180
393
361
378
293
332
370
297
63
70
340
159
338
413
269
153
196
44
165
280
232
349
241
95
186
261
253
257
236
101
201
355
255
400
249
127
142
230
310
300
207
106
160
214
221
408
52
330
311
354
219
217
55
286
193
179
225
212
318
252
223
342
105
394
358
264
190
282
389
206
61
384
124
194
337
65
141
284
81
98
205
79
381
224
78
37

> <PUBCHEM_MMFF94_PARTIAL_CHARGES>
42
1 -0.56
10 0.28
11 0.28
12 0.28
13 0.28
14 0.56
15 0.28
16 0.42
17 0.08
18 -0.14
19 0.06
2 -0.36
20 -0.15
21 -0.15
22 -0.15
23 -0.15
24 0.42
25 0.09
26 0.08
27 -0.15
28 -0.15
29 0.08
3 -0.68
30 -0.15
38 0.4
39 0.4
4 -0.68
40 0.4
44 0.15
45 0.15
46 0.4
47 0.15
48 0.15
49 0.15
5 -0.68
50 0.15
51 0.15
52 0.45
6 -0.68
7 -0.36
8 -0.57
9 -0.53

> <PUBCHEM_EFFECTIVE_ROTOR_COUNT>
5.8

> <PUBCHEM_PHARMACOPHORE_FEATURES>
17
1 1 acceptor
1 2 acceptor
1 3 acceptor
1 3 donor
1 4 acceptor
1 4 donor
1 5 acceptor
1 5 donor
1 6 acceptor
1 6 donor
1 7 acceptor
1 8 acceptor
1 9 donor
6 1 10 11 12 13 14 rings
6 17 18 20 21 22 23 rings
6 25 26 27 28 29 30 rings
6 7 16 19 24 25 26 rings

> <PUBCHEM_HEAVY_ATOM_COUNT>
30

> <PUBCHEM_ATOM_DEF_STEREO_COUNT>
5

> <PUBCHEM_ATOM_UDEF_STEREO_COUNT>
1

> <PUBCHEM_BOND_DEF_STEREO_COUNT>
0

> <PUBCHEM_BOND_UDEF_STEREO_COUNT>
0

> <PUBCHEM_ISOTOPIC_ATOM_COUNT>
0

> <PUBCHEM_COMPONENT_COUNT>
1

> <PUBCHEM_CACTVS_TAUTO_COUNT>
9

> <PUBCHEM_CONFORMER_ID>
00B6AF2E00000001

> <PUBCHEM_MMFF94_ENERGY>
95.0004

> <PUBCHEM_FEATURE_SELFOVERLAP>
86.37

> <PUBCHEM_SHAPE_FINGERPRINT>
10 15 16917065577135032016
10299344 5 18410859858248798816
10939801 23 18197782309068174894
11135609 99 18412824669234099366
11331351 85 17967535649207543589
11524674 6 17418372493677094095
117089 54 17826244162048638259
11991303 11 13984672472250189952
12107183 9 18340493244707476705
12422481 6 18341894086629287670
13533116 47 18411700985308900280
1361 4 18337110171782485778
13782708 43 18113894910782292208
14251751 18 18409449167882354942
14341114 176 18412545418370212644
14394314 77 18410295813817422889
14420673 8 18409169888008907475
14556957 393 14418420923373778318
15001296 14 18260259785268959850
15021287 119 17749399165496904749
15183329 4 18334572443084350979
15352257 5 18408322177101434618
15361156 5 18040727964998671876
15439362 3 17759515574964442805
15510800 12 17604160332260994587
15728490 51 18411135849469962502
15799311 1 18339374019216215396
16110190 28 18412544323095244287
16120349 21 18339366240592891222
1813 80 17313100873503416525
18608769 82 18410569609645367392
20028762 73 18341331107218120146
20505436 4 17702379758048441276
21130935 74 18411983567679882512
21197605 99 18339644537916788662
21641784 216 14635144582208240820
22393880 68 17895463727326571724
229767 44 18341332270869349775
23516275 137 18120396271145141754
23522609 53 18045533896012221036
23559900 14 18412255164237749577
23569943 247 17823975624092597570
3004659 81 18333167267429547616
312425 54 18412545392452371880
3383291 50 17823141288763700611
3663271 9 18272374182534302481
4073 2 18261677098753633202
439807 62 18410012121909210458
465052 167 18271525308940717596
5104073 3 18202845448334677392
559249 180 18407760331508307909
59682541 35 11743840318329698103
7970288 3 17978506439534193594
8863177 126 18409445861232381590
9831232 110 18335704876211476878
999808 66 18113911472361062363

> <PUBCHEM_SHAPE_MULTIPOLES>
564.56
20.87
3.39
0.95
1.07
2.39
-0.25
9.85
4.29
-1.28
-0.07
0.41
-0.34
-0.4

> <PUBCHEM_SHAPE_SELFOVERLAP>
1228.038

> <PUBCHEM_SHAPE_VOLUME>
303.3

> <PUBCHEM_COORDINATE_TYPE>
2
5
10

$$$$
