11973722
  -OEChem-03292013303D

 41 43  0     0  0  0  0  0  0999 V2000
    3.8474   -0.8885   -0.5210 S   0  0  0  0  0  0  0  0  0  0  0  0
   -4.8597   -0.0295   -2.5112 F   0  0  0  0  0  0  0  0  0  0  0  0
   -4.4137    1.6798   -1.2530 F   0  0  0  0  0  0  0  0  0  0  0  0
   -2.7923    0.5285   -2.1330 F   0  0  0  0  0  0  0  0  0  0  0  0
   -2.8178    2.0260    1.2383 O   0  0  0  0  0  0  0  0  0  0  0  0
    6.5555   -2.0590   -1.2471 O   0  0  0  0  0  0  0  0  0  0  0  0
   -1.0165    0.8972    0.2682 N   0  0  0  0  0  0  0  0  0  0  0  0
    1.7795    0.5638    0.3916 N   0  0  0  0  0  0  0  0  0  0  0  0
    4.0107    1.3093    0.8303 N   0  0  0  0  0  0  0  0  0  0  0  0
    7.8292   -0.4446   -0.2871 N   0  0  0  0  0  0  0  0  0  0  0  0
   -0.4092   -0.3145   -0.2915 C   0  0  0  0  0  0  0  0  0  0  0  0
   -0.1519    2.0740    0.2183 C   0  0  0  0  0  0  0  0  0  0  0  0
    0.9153   -0.6244    0.4055 C   0  0  0  0  0  0  0  0  0  0  0  0
    1.1706    1.7913    0.9266 C   0  0  0  0  0  0  0  0  0  0  0  0
   -2.3139    1.0064    0.7699 C   0  0  0  0  0  0  0  0  0  0  0  0
    3.1496    0.4505    0.3096 C   0  0  0  0  0  0  0  0  0  0  0  0
   -3.1627   -0.1916    0.7576 C   0  0  0  0  0  0  0  0  0  0  0  0
   -3.9743   -0.4852   -0.3360 C   0  0  0  0  0  0  0  0  0  0  0  0
   -3.1446   -1.0368    1.8650 C   0  0  0  0  0  0  0  0  0  0  0  0
    5.4107   -0.2807   -0.1630 C   0  0  0  0  0  0  0  0  0  0  0  0
    5.2980    0.8889    0.5592 C   0  0  0  0  0  0  0  0  0  0  0  0
   -4.7715   -1.6297   -0.3222 C   0  0  0  0  0  0  0  0  0  0  0  0
   -4.0118    0.4062   -1.5346 C   0  0  0  0  0  0  0  0  0  0  0  0
   -3.9420   -2.1812    1.8788 C   0  0  0  0  0  0  0  0  0  0  0  0
   -4.7556   -2.4776    0.7853 C   0  0  0  0  0  0  0  0  0  0  0  0
    6.5708   -0.9789   -0.6044 C   0  0  0  0  0  0  0  0  0  0  0  0
   -0.2416   -0.1257   -1.3589 H   0  0  0  0  0  0  0  0  0  0  0  0
   -1.0736   -1.1775   -0.2139 H   0  0  0  0  0  0  0  0  0  0  0  0
   -0.6429    2.9403    0.6728 H   0  0  0  0  0  0  0  0  0  0  0  0
    0.0195    2.3064   -0.8396 H   0  0  0  0  0  0  0  0  0  0  0  0
    0.7272   -0.9063    1.4494 H   0  0  0  0  0  0  0  0  0  0  0  0
    1.3441   -1.5005   -0.0878 H   0  0  0  0  0  0  0  0  0  0  0  0
    1.8285    2.6575    0.7886 H   0  0  0  0  0  0  0  0  0  0  0  0
    1.0059    1.6673    2.0042 H   0  0  0  0  0  0  0  0  0  0  0  0
   -2.5139   -0.8163    2.7223 H   0  0  0  0  0  0  0  0  0  0  0  0
    6.1205    1.4907    0.9221 H   0  0  0  0  0  0  0  0  0  0  0  0
   -5.4127   -1.8801   -1.1627 H   0  0  0  0  0  0  0  0  0  0  0  0
   -3.9292   -2.8416    2.7408 H   0  0  0  0  0  0  0  0  0  0  0  0
   -5.3763   -3.3687    0.7963 H   0  0  0  0  0  0  0  0  0  0  0  0
    7.9483    0.4172    0.2345 H   0  0  0  0  0  0  0  0  0  0  0  0
    8.6778   -0.9185   -0.5789 H   0  0  0  0  0  0  0  0  0  0  0  0
  1 16  1  0  0  0  0
  1 20  1  0  0  0  0
  2 23  1  0  0  0  0
  3 23  1  0  0  0  0
  4 23  1  0  0  0  0
  5 15  2  0  0  0  0
  6 26  2  0  0  0  0
  7 11  1  0  0  0  0
  7 12  1  0  0  0  0
  7 15  1  0  0  0  0
  8 13  1  0  0  0  0
  8 14  1  0  0  0  0
  8 16  1  0  0  0  0
  9 16  2  0  0  0  0
  9 21  1  0  0  0  0
 10 26  1  0  0  0  0
 10 40  1  0  0  0  0
 10 41  1  0  0  0  0
 11 13  1  0  0  0  0
 11 27  1  0  0  0  0
 11 28  1  0  0  0  0
 12 14  1  0  0  0  0
 12 29  1  0  0  0  0
 12 30  1  0  0  0  0
 13 31  1  0  0  0  0
 13 32  1  0  0  0  0
 14 33  1  0  0  0  0
 14 34  1  0  0  0  0
 15 17  1  0  0  0  0
 17 18  1  0  0  0  0
 17 19  2  0  0  0  0
 18 22  2  0  0  0  0
 18 23  1  0  0  0  0
 19 24  1  0  0  0  0
 19 35  1  0  0  0  0
 20 21  2  0  0  0  0
 20 26  1  0  0  0  0
 21 36  1  0  0  0  0
 22 25  1  0  0  0  0
 22 37  1  0  0  0  0
 24 25  2  0  0  0  0
 24 38  1  0  0  0  0
 25 39  1  0  0  0  0
M  END
> <PUBCHEM_COMPOUND_CID>
11973722

> <PUBCHEM_CONFORMER_RMSD>
0.8

> <PUBCHEM_CONFORMER_DIVERSEORDER>
1
63
44
22
67
5
58
10
45
12
47
35
65
4
56
57
32
38
37
69
62
40
72
24
33
52
36
11
49
46
16
53
64
54
30
41
43
61
73
29
31
9
50
28
39
68
66
25
8
20
48
6
26
60
19
27
13
3
71
34
59
70
55
17
14
42
7
2
15
51
18
23
21

> <PUBCHEM_MMFF94_PARTIAL_CHARGES>
33
1 -0.08
10 -0.8
11 0.3
12 0.3
13 0.37
14 0.37
15 0.54
16 0.46
17 0.09
18 -0.14
19 -0.15
2 -0.34
20 -0.05
21 0.08
22 -0.15
23 1.16
24 -0.15
25 -0.15
26 0.71
3 -0.34
35 0.15
36 0.15
37 0.15
38 0.15
39 0.15
4 -0.34
40 0.37
41 0.37
5 -0.57
6 -0.57
7 -0.66
8 -0.82
9 -0.57

> <PUBCHEM_EFFECTIVE_ROTOR_COUNT>
6.2

> <PUBCHEM_PHARMACOPHORE_FEATURES>
7
1 10 donor
1 5 acceptor
1 6 acceptor
3 8 9 16 cation
5 1 9 16 20 21 rings
6 17 18 19 22 24 25 rings
6 7 8 11 12 13 14 rings

> <PUBCHEM_HEAVY_ATOM_COUNT>
26

> <PUBCHEM_ATOM_DEF_STEREO_COUNT>
0

> <PUBCHEM_ATOM_UDEF_STEREO_COUNT>
0

> <PUBCHEM_BOND_DEF_STEREO_COUNT>
0

> <PUBCHEM_BOND_UDEF_STEREO_COUNT>
0

> <PUBCHEM_ISOTOPIC_ATOM_COUNT>
0

> <PUBCHEM_COMPONENT_COUNT>
1

> <PUBCHEM_CACTVS_TAUTO_COUNT>
2

> <PUBCHEM_CONFORMER_ID>
00B6B45A00000001

> <PUBCHEM_MMFF94_ENERGY>
62.9101

> <PUBCHEM_FEATURE_SELFOVERLAP>
35.522

> <PUBCHEM_SHAPE_FINGERPRINT>
10165383 225 17895188850132200381
11089746 13 15285362843036913662
11315181 36 18410576192828191776
12166972 35 18040722502053505244
12236239 1 16988842808365535824
12596602 18 15195561317106715426
12616971 3 16917074386244389752
12633257 1 14908187498972204307
13690498 29 17676774283298273675
14849402 71 15338542964971865818
14950920 106 14979665632880788602
15021287 119 17275103934081668440
15183329 4 16225761930880227266
15188451 53 15123496034797629461
15788980 27 17632578240888145736
15799311 1 17060349543473999870
17627616 140 18186795855587802498
17780758 139 15051734187886278195
17844677 252 17895197744212677244
17857418 61 17203323403951589446
17870717 6 18040151838296394619
18643901 69 17968381242938134107
18927931 339 18272099287526181399
19377110 9 15913326922944878802
19489759 90 17312818298988541275
200 152 18059849602077357977
20281389 69 8646768881222354086
21033650 10 17095238090473221733
21267235 1 18272378585466149978
21307412 95 17897159350984375419
21623969 137 18131078142978893854
21682296 61 18130517353230426926
21709351 56 17749110010680169246
220451 1 17458062638614846080
22061861 79 18410854361181114718
22393880 68 17967805080831301953
2303208 19 18409172134186937562
23198884 109 15719389542445797963
23402539 116 18130509656516975384
23522609 53 16629421309817166472
23559900 14 18333726935922752080
23569914 152 17334757700774951726
25122255 55 18411145748731607502
2838139 119 14634870851564128998
314194 84 17846215579374277560
328310 630 12757443747704667390
34797466 226 17822296846220597204
3663271 9 14836402532727087606
4073 2 18412271605967923666
484985 159 18411425012296020523
4938544 92 15338849620603263275
5104073 3 18131635548229328320
531348 171 17917144983934503005
543368 44 13406797735139834670
59755656 520 18262243205698356425
6431902 208 18273218582121696694
6608658 132 15647044950245655358
999808 66 18272943712989511678

> <PUBCHEM_SHAPE_MULTIPOLES>
485.43
16.69
2.16
1.62
26.33
0.2
0.55
8.14
4.07
-1.54
-0.5
-2.51
0.04
2.49

> <PUBCHEM_SHAPE_SELFOVERLAP>
1035.306

> <PUBCHEM_SHAPE_VOLUME>
272.2

> <PUBCHEM_COORDINATE_TYPE>
2
5
10

$$$$
