11982272
  -OEChem-03292013303D

 57 62  0     1  0  0  0  0  0999 V2000
   -2.1161    3.3085   -1.8665 O   0  0  0  0  0  0  0  0  0  0  0  0
   -0.3184    4.1315   -0.5658 O   0  0  0  0  0  0  0  0  0  0  0  0
   -2.7128    4.0225    1.0610 O   0  0  0  0  0  0  0  0  0  0  0  0
    1.4251   -0.3827   -0.2115 O   0  0  0  0  0  0  0  0  0  0  0  0
    1.9702    2.9118    1.3313 O   0  0  0  0  0  0  0  0  0  0  0  0
   -1.8448   -3.9266    0.0511 O   0  0  0  0  0  0  0  0  0  0  0  0
    4.5063    2.0296    1.0155 O   0  0  0  0  0  0  0  0  0  0  0  0
   -4.4407   -4.5114    0.8529 O   0  0  0  0  0  0  0  0  0  0  0  0
    6.1986    0.1128    0.5463 O   0  0  0  0  0  0  0  0  0  0  0  0
    4.4037   -3.9597   -1.1018 O   0  0  0  0  0  0  0  0  0  0  0  0
   -1.8523    0.9914   -1.4579 C   0  0  1  0  0  0  0  0  0  0  0  0
   -0.6363    1.7324   -0.8671 C   0  0  1  0  0  0  0  0  0  0  0  0
   -2.9693    0.8284   -0.3507 C   0  0  2  0  0  0  0  0  0  0  0  0
   -1.2895    3.1269   -0.7077 C   0  0  2  0  0  0  0  0  0  0  0  0
   -2.5418    1.6018    0.9310 C   0  0  2  0  0  0  0  0  0  0  0  0
   -0.2163    1.1637    0.4702 C   0  0  0  0  0  0  0  0  0  0  0  0
   -2.2825    2.0273   -2.4962 C   0  0  0  0  0  0  0  0  0  0  0  0
   -2.2510    3.0385    0.4933 C   0  0  0  0  0  0  0  0  0  0  0  0
   -1.1891    1.1256    1.3973 C   0  0  0  0  0  0  0  0  0  0  0  0
    1.1971    0.7171    0.6800 C   0  0  2  0  0  0  0  0  0  0  0  0
   -3.3614   -0.6070   -0.0280 C   0  0  0  0  0  0  0  0  0  0  0  0
    2.1761    1.8560    0.4093 C   0  0  2  0  0  0  0  0  0  0  0  0
   -2.4160   -1.6225   -0.1366 C   0  0  0  0  0  0  0  0  0  0  0  0
   -4.6628   -0.8945    0.3728 C   0  0  0  0  0  0  0  0  0  0  0  0
    3.5869    1.3395    0.5916 C   0  0  0  0  0  0  0  0  0  0  0  0
    2.7166   -0.8384   -0.2060 C   0  0  0  0  0  0  0  0  0  0  0  0
   -2.7753   -2.9377    0.1585 C   0  0  0  0  0  0  0  0  0  0  0  0
   -5.0220   -2.2095    0.6678 C   0  0  0  0  0  0  0  0  0  0  0  0
    3.8097   -0.0627    0.1873 C   0  0  0  0  0  0  0  0  0  0  0  0
   -4.0784   -3.2311    0.5608 C   0  0  0  0  0  0  0  0  0  0  0  0
    2.9203   -2.1453   -0.6520 C   0  0  0  0  0  0  0  0  0  0  0  0
    5.0999   -0.5991    0.1697 C   0  0  0  0  0  0  0  0  0  0  0  0
    4.2078   -2.6823   -0.6740 C   0  0  0  0  0  0  0  0  0  0  0  0
    5.2946   -1.9121   -0.2595 C   0  0  0  0  0  0  0  0  0  0  0  0
   -0.5361   -3.5428   -0.3663 C   0  0  0  0  0  0  0  0  0  0  0  0
   -1.5970    0.0595   -1.9682 H   0  0  0  0  0  0  0  0  0  0  0  0
    0.1838    1.7593   -1.5931 H   0  0  0  0  0  0  0  0  0  0  0  0
   -3.8829    1.3045   -0.7372 H   0  0  0  0  0  0  0  0  0  0  0  0
   -3.2908    1.5781    1.7270 H   0  0  0  0  0  0  0  0  0  0  0  0
   -1.6288    2.0017   -3.3755 H   0  0  0  0  0  0  0  0  0  0  0  0
   -3.3165    1.9122   -2.8338 H   0  0  0  0  0  0  0  0  0  0  0  0
   -1.0381    0.7535    2.4026 H   0  0  0  0  0  0  0  0  0  0  0  0
    1.3071    0.3552    1.7130 H   0  0  0  0  0  0  0  0  0  0  0  0
   -0.7621    4.9258   -0.2238 H   0  0  0  0  0  0  0  0  0  0  0  0
    2.1078    2.2471   -0.6119 H   0  0  0  0  0  0  0  0  0  0  0  0
   -1.4069   -1.3592   -0.4204 H   0  0  0  0  0  0  0  0  0  0  0  0
   -5.4060   -0.1070    0.4623 H   0  0  0  0  0  0  0  0  0  0  0  0
   -6.0384   -2.4314    0.9814 H   0  0  0  0  0  0  0  0  0  0  0  0
    2.5569    3.6439    1.0750 H   0  0  0  0  0  0  0  0  0  0  0  0
    2.0777   -2.7427   -0.9852 H   0  0  0  0  0  0  0  0  0  0  0  0
    6.2924   -2.3440   -0.2821 H   0  0  0  0  0  0  0  0  0  0  0  0
   -3.6652   -5.0851    0.7255 H   0  0  0  0  0  0  0  0  0  0  0  0
   -0.0624   -2.8848    0.3695 H   0  0  0  0  0  0  0  0  0  0  0  0
   -0.5397   -3.1160   -1.3751 H   0  0  0  0  0  0  0  0  0  0  0  0
    0.0676   -4.4554   -0.4105 H   0  0  0  0  0  0  0  0  0  0  0  0
    6.9918   -0.4427    0.4571 H   0  0  0  0  0  0  0  0  0  0  0  0
    3.5454   -4.3451   -1.3487 H   0  0  0  0  0  0  0  0  0  0  0  0
  1 14  1  0  0  0  0
  1 17  1  0  0  0  0
  2 14  1  0  0  0  0
  2 44  1  0  0  0  0
  3 18  2  0  0  0  0
  4 20  1  0  0  0  0
  4 26  1  0  0  0  0
  5 22  1  0  0  0  0
  5 49  1  0  0  0  0
  6 27  1  0  0  0  0
  6 35  1  0  0  0  0
  7 25  2  0  0  0  0
  8 30  1  0  0  0  0
  8 52  1  0  0  0  0
  9 32  1  0  0  0  0
  9 56  1  0  0  0  0
 10 33  1  0  0  0  0
 10 57  1  0  0  0  0
 11 12  1  0  0  0  0
 11 13  1  0  0  0  0
 11 17  1  0  0  0  0
 11 36  1  0  0  0  0
 12 14  1  0  0  0  0
 12 16  1  0  0  0  0
 12 37  1  0  0  0  0
 13 15  1  0  0  0  0
 13 21  1  0  0  0  0
 13 38  1  0  0  0  0
 14 18  1  0  0  0  0
 15 18  1  0  0  0  0
 15 19  1  0  0  0  0
 15 39  1  0  0  0  0
 16 19  2  0  0  0  0
 16 20  1  0  0  0  0
 17 40  1  0  0  0  0
 17 41  1  0  0  0  0
 19 42  1  0  0  0  0
 20 22  1  0  0  0  0
 20 43  1  0  0  0  0
 21 23  2  0  0  0  0
 21 24  1  0  0  0  0
 22 25  1  0  0  0  0
 22 45  1  0  0  0  0
 23 27  1  0  0  0  0
 23 46  1  0  0  0  0
 24 28  2  0  0  0  0
 24 47  1  0  0  0  0
 25 29  1  0  0  0  0
 26 29  1  0  0  0  0
 26 31  2  0  0  0  0
 27 30  2  0  0  0  0
 28 30  1  0  0  0  0
 28 48  1  0  0  0  0
 29 32  2  0  0  0  0
 31 33  1  0  0  0  0
 31 50  1  0  0  0  0
 32 34  1  0  0  0  0
 33 34  2  0  0  0  0
 34 51  1  0  0  0  0
 35 53  1  0  0  0  0
 35 54  1  0  0  0  0
 35 55  1  0  0  0  0
M  END
> <PUBCHEM_COMPOUND_CID>
11982272

> <PUBCHEM_CONFORMER_RMSD>
0.8

> <PUBCHEM_CONFORMER_DIVERSEORDER>
1
23
33
12
69
43
17
40
60
28
47
30
35
41
42
15
51
21
25
10
39
31
45
62
50
54
14
56
26
5
37
3
44
29
9
58
63
64
19
68
65
61
32
2
48
38
36
4
67
34
6
59
22
18
66
46
16
11
55
13
20
53
27
49
24
7
52
57
8

> <PUBCHEM_MMFF94_PARTIAL_CHARGES>
45
1 -0.56
10 -0.53
12 0.14
13 0.14
14 0.62
15 0.2
16 -0.28
17 0.28
18 0.45
19 -0.29
2 -0.68
20 0.42
21 -0.14
22 0.34
23 -0.15
24 -0.15
25 0.42
26 0.08
27 0.08
28 -0.15
29 0.09
3 -0.57
30 0.08
31 -0.15
32 0.08
33 0.08
34 -0.15
35 0.28
4 -0.36
42 0.15
44 0.4
46 0.15
47 0.15
48 0.15
49 0.4
5 -0.68
50 0.15
51 0.15
52 0.45
56 0.45
57 0.45
6 -0.36
7 -0.57
8 -0.53
9 -0.53

> <PUBCHEM_EFFECTIVE_ROTOR_COUNT>
4.2

> <PUBCHEM_PHARMACOPHORE_FEATURES>
16
1 1 acceptor
1 10 donor
1 2 acceptor
1 2 donor
1 3 acceptor
1 4 acceptor
1 5 acceptor
1 5 donor
1 6 acceptor
1 7 acceptor
1 8 donor
1 9 donor
10 1 11 12 13 14 15 16 17 18 19 rings
6 21 23 24 27 28 30 rings
6 26 29 31 32 33 34 rings
6 4 20 22 25 26 29 rings

> <PUBCHEM_HEAVY_ATOM_COUNT>
35

> <PUBCHEM_ATOM_DEF_STEREO_COUNT>
7

> <PUBCHEM_ATOM_UDEF_STEREO_COUNT>
0

> <PUBCHEM_BOND_DEF_STEREO_COUNT>
0

> <PUBCHEM_BOND_UDEF_STEREO_COUNT>
0

> <PUBCHEM_ISOTOPIC_ATOM_COUNT>
0

> <PUBCHEM_COMPONENT_COUNT>
1

> <PUBCHEM_CACTVS_TAUTO_COUNT>
396

> <PUBCHEM_CONFORMER_ID>
00B6D5C000000001

> <PUBCHEM_MMFF94_ENERGY>
114.4301

> <PUBCHEM_FEATURE_SELFOVERLAP>
81.28

> <PUBCHEM_SHAPE_FINGERPRINT>
10764073 3 17986410905666057013
1100329 8 17402052197425342203
11135609 12 18335698360339789664
12422481 6 18198084537580542091
13402501 40 18412826888777701406
14415360 78 17977658715009115813
14725015 67 18411419471219158611
14866123 147 18196379122136691291
14910302 57 18336825303781078444
14955137 171 18191042264752829483
15064986 96 17489045819745328695
15230672 131 17614855011387745046
15320467 1 18412547617436081914
15392192 29 17482565088274933358
15927050 60 17836644124876131877
1813 80 17824256231907484101
19311894 1 18123753041489892434
19315092 285 16843312656758668443
19930381 70 16752692660775006873
19958102 18 18190454948785052663
20775530 9 18265891535070486979
22393880 68 18116992187745896898
23559900 14 18340759412056786504
350125 39 18269274737456283640
4073 2 18341049606602578266
4394409 98 16817685931117287358
463206 1 18120095249466083683
469060 322 16877943828100264439
508706 21 18267299837883130894
5104073 3 18200024029042081306
7399639 24 18198330952734011928

> <PUBCHEM_SHAPE_MULTIPOLES>
661.59
10.78
5.97
1.31
10.96
1.92
0.52
8.36
-1.37
-4.43
0.23
-0.64
-0.96
2.64

> <PUBCHEM_SHAPE_SELFOVERLAP>
1501.416

> <PUBCHEM_SHAPE_VOLUME>
343

> <PUBCHEM_COORDINATE_TYPE>
2
5
10

$$$$
