11982428
  -OEChem-03292013303D

 46 49  0     1  0  0  0  0  0999 V2000
    0.0407    0.3708    0.3907 O   0  0  0  0  0  0  0  0  0  0  0  0
    0.8667   -2.3773    0.2032 O   0  0  0  0  0  0  0  0  0  0  0  0
    1.8834    2.3495    0.1913 O   0  0  0  0  0  0  0  0  0  0  0  0
   -1.0147   -4.2523   -0.4984 O   0  0  0  0  0  0  0  0  0  0  0  0
    3.5072   -2.9495   -0.0522 O   0  0  0  0  0  0  0  0  0  0  0  0
   -4.5715    0.8271   -1.9133 O   0  0  0  0  0  0  0  0  0  0  0  0
   -6.1540    1.0796    0.3570 O   0  0  0  0  0  0  0  0  0  0  0  0
    2.4114    4.5778    0.1563 O   0  0  0  0  0  0  0  0  0  0  0  0
   -0.8013   -0.7181    0.8077 C   0  0  2  0  0  0  0  0  0  0  0  0
   -0.4921   -1.9684   -0.0314 C   0  0  2  0  0  0  0  0  0  0  0  0
   -2.2308   -0.2377    0.6841 C   0  0  0  0  0  0  0  0  0  0  0  0
    1.3457   -0.0001    0.2258 C   0  0  0  0  0  0  0  0  0  0  0  0
    1.7472   -1.3316    0.1447 C   0  0  0  0  0  0  0  0  0  0  0  0
   -1.3691   -3.1630    0.3335 C   0  0  0  0  0  0  0  0  0  0  0  0
    2.3086    1.0047    0.1263 C   0  0  0  0  0  0  0  0  0  0  0  0
    3.1008   -1.6500    0.0099 C   0  0  0  0  0  0  0  0  0  0  0  0
    3.6610    0.7050   -0.0235 C   0  0  0  0  0  0  0  0  0  0  0  0
   -2.7536    0.0785   -0.5696 C   0  0  0  0  0  0  0  0  0  0  0  0
   -3.0246   -0.1108    1.8237 C   0  0  0  0  0  0  0  0  0  0  0  0
    4.0563   -0.6337   -0.0762 C   0  0  0  0  0  0  0  0  0  0  0  0
   -4.0712    0.5220   -0.6836 C   0  0  0  0  0  0  0  0  0  0  0  0
   -4.3421    0.3325    1.7097 C   0  0  0  0  0  0  0  0  0  0  0  0
    4.6180    1.7951   -0.1147 C   0  0  0  0  0  0  0  0  0  0  0  0
   -4.8655    0.6488    0.4561 C   0  0  0  0  0  0  0  0  0  0  0  0
    4.2032    3.0627   -0.0549 C   0  0  0  0  0  0  0  0  0  0  0  0
    2.7793    3.4096    0.1039 C   0  0  0  0  0  0  0  0  0  0  0  0
    3.5796   -3.5441   -1.3462 C   0  0  0  0  0  0  0  0  0  0  0  0
   -4.4184    2.1730   -2.3598 C   0  0  0  0  0  0  0  0  0  0  0  0
   -0.5686   -0.9155    1.8642 H   0  0  0  0  0  0  0  0  0  0  0  0
   -0.5775   -1.7711   -1.1090 H   0  0  0  0  0  0  0  0  0  0  0  0
   -1.2027   -3.4663    1.3726 H   0  0  0  0  0  0  0  0  0  0  0  0
   -2.4315   -2.9519    0.1840 H   0  0  0  0  0  0  0  0  0  0  0  0
   -2.1421   -0.0099   -1.4639 H   0  0  0  0  0  0  0  0  0  0  0  0
   -2.6309   -0.3540    2.8070 H   0  0  0  0  0  0  0  0  0  0  0  0
    5.1068   -0.8936   -0.1869 H   0  0  0  0  0  0  0  0  0  0  0  0
   -4.9558    0.4290    2.6012 H   0  0  0  0  0  0  0  0  0  0  0  0
    5.6707    1.5625   -0.2316 H   0  0  0  0  0  0  0  0  0  0  0  0
   -1.5787   -5.0028   -0.2450 H   0  0  0  0  0  0  0  0  0  0  0  0
    4.9123    3.8804   -0.1225 H   0  0  0  0  0  0  0  0  0  0  0  0
    3.9047   -4.5814   -1.2288 H   0  0  0  0  0  0  0  0  0  0  0  0
    4.3088   -3.0172   -1.9698 H   0  0  0  0  0  0  0  0  0  0  0  0
    2.5976   -3.5380   -1.8299 H   0  0  0  0  0  0  0  0  0  0  0  0
   -6.3638    1.2140   -0.5832 H   0  0  0  0  0  0  0  0  0  0  0  0
   -4.8998    2.2665   -3.3372 H   0  0  0  0  0  0  0  0  0  0  0  0
   -4.8979    2.8702   -1.6654 H   0  0  0  0  0  0  0  0  0  0  0  0
   -3.3576    2.4208   -2.4670 H   0  0  0  0  0  0  0  0  0  0  0  0
  1  9  1  0  0  0  0
  1 12  1  0  0  0  0
  2 10  1  0  0  0  0
  2 13  1  0  0  0  0
  3 15  1  0  0  0  0
  3 26  1  0  0  0  0
  4 14  1  0  0  0  0
  4 38  1  0  0  0  0
  5 16  1  0  0  0  0
  5 27  1  0  0  0  0
  6 21  1  0  0  0  0
  6 28  1  0  0  0  0
  7 24  1  0  0  0  0
  7 43  1  0  0  0  0
  8 26  2  0  0  0  0
  9 10  1  0  0  0  0
  9 11  1  0  0  0  0
  9 29  1  0  0  0  0
 10 14  1  0  0  0  0
 10 30  1  0  0  0  0
 11 18  2  0  0  0  0
 11 19  1  0  0  0  0
 12 13  1  0  0  0  0
 12 15  2  0  0  0  0
 13 16  2  0  0  0  0
 14 31  1  0  0  0  0
 14 32  1  0  0  0  0
 15 17  1  0  0  0  0
 16 20  1  0  0  0  0
 17 20  2  0  0  0  0
 17 23  1  0  0  0  0
 18 21  1  0  0  0  0
 18 33  1  0  0  0  0
 19 22  2  0  0  0  0
 19 34  1  0  0  0  0
 20 35  1  0  0  0  0
 21 24  2  0  0  0  0
 22 24  1  0  0  0  0
 22 36  1  0  0  0  0
 23 25  2  0  0  0  0
 23 37  1  0  0  0  0
 25 26  1  0  0  0  0
 25 39  1  0  0  0  0
 27 40  1  0  0  0  0
 27 41  1  0  0  0  0
 27 42  1  0  0  0  0
 28 44  1  0  0  0  0
 28 45  1  0  0  0  0
 28 46  1  0  0  0  0
M  END
> <PUBCHEM_COMPOUND_CID>
11982428

> <PUBCHEM_CONFORMER_RMSD>
0.8

> <PUBCHEM_CONFORMER_DIVERSEORDER>
1
3
11
12
7
13
5
6
8
2
10
4
9

> <PUBCHEM_MMFF94_PARTIAL_CHARGES>
36
1 -0.36
10 0.28
11 -0.14
12 0.08
13 0.08
14 0.28
15 0.08
16 0.08
17 0.03
18 -0.15
19 -0.15
2 -0.36
20 -0.15
21 0.08
22 -0.15
23 -0.18
24 0.08
25 -0.14
26 0.71
27 0.28
28 0.28
3 -0.23
33 0.15
34 0.15
35 0.15
36 0.15
37 0.15
38 0.4
39 0.15
4 -0.68
43 0.45
5 -0.36
6 -0.36
7 -0.53
8 -0.57
9 0.42

> <PUBCHEM_EFFECTIVE_ROTOR_COUNT>
4.8

> <PUBCHEM_PHARMACOPHORE_FEATURES>
12
1 1 acceptor
1 2 acceptor
1 4 acceptor
1 4 donor
1 5 acceptor
1 6 acceptor
1 7 donor
1 8 acceptor
6 1 2 9 10 12 13 rings
6 11 18 19 21 22 24 rings
6 12 13 15 16 17 20 rings
6 3 15 17 23 25 26 rings

> <PUBCHEM_HEAVY_ATOM_COUNT>
28

> <PUBCHEM_ATOM_DEF_STEREO_COUNT>
2

> <PUBCHEM_ATOM_UDEF_STEREO_COUNT>
0

> <PUBCHEM_BOND_DEF_STEREO_COUNT>
0

> <PUBCHEM_BOND_UDEF_STEREO_COUNT>
0

> <PUBCHEM_ISOTOPIC_ATOM_COUNT>
0

> <PUBCHEM_COMPONENT_COUNT>
1

> <PUBCHEM_CACTVS_TAUTO_COUNT>
3

> <PUBCHEM_CONFORMER_ID>
00B6D65C00000001

> <PUBCHEM_MMFF94_ENERGY>
112.9346

> <PUBCHEM_FEATURE_SELFOVERLAP>
60.978

> <PUBCHEM_SHAPE_FINGERPRINT>
10411042 1 17978797809698770874
1100329 8 18410858772323959626
11796584 16 13326850011707384389
12236239 1 17560517284260155411
12403259 415 18041001692144173493
12422481 6 18043505374853234048
12769317 202 18410847798213097624
12788726 201 17203065001186246473
13140716 1 18196373834979157016
13402501 40 18113610171203877101
13583140 156 17894912940335788459
14848178 96 18269272542116540096
15081414 286 18411705344473663760
1813 80 17771360668731254358
20645477 70 18339082592452510010
21033648 144 18267580389410438756
21033648 29 17821726118123646197
21033650 10 15338857342880731587
21641784 216 17541668647881730735
21860390 5 18272095980907753340
22122407 14 18198080092611534185
22393880 68 18197788906464989212
23227448 37 18266742569865129679
23559900 14 18343584049545347170
24771750 20 18121246383175728742
335352 9 18411423921410879942
376196 1 18265889353727858208
469060 322 17396150496128125523
474 4 18342462538614688987
5252454 2 18191885614949515965
57724786 102 18410866434086660289
5969126 39 17910115703810778470
633830 44 17987533536786178851
9981440 41 17980757461346057424

> <PUBCHEM_SHAPE_MULTIPOLES>
529.27
11.13
4.74
1.33
8.57
0.46
-0.42
-6.19
-1.5
-5.88
-1.07
2.29
-0.32
1.8

> <PUBCHEM_SHAPE_SELFOVERLAP>
1166.1

> <PUBCHEM_SHAPE_VOLUME>
284.2

> <PUBCHEM_COORDINATE_TYPE>
2
5
10

$$$$
