119895
  -OEChem-03292013323D

 53 54  0     1  0  0  0  0  0999 V2000
    1.9623   -1.8774   -0.6333 S   0  0  0  0  0  0  0  0  0  0  0  0
    1.8392   -3.2394   -0.1499 O   0  0  0  0  0  0  0  0  0  0  0  0
    2.7568   -1.5906   -1.8123 O   0  0  0  0  0  0  0  0  0  0  0  0
    5.3895    1.1409   -0.1656 O   0  0  0  0  0  0  0  0  0  0  0  0
    5.1461   -1.0490    0.3717 O   0  0  0  0  0  0  0  0  0  0  0  0
    2.4799   -0.8727    0.6356 N   0  0  0  0  0  0  0  0  0  0  0  0
   -4.3551   -0.5890    0.2457 N   0  0  0  0  0  0  0  0  0  0  0  0
   -0.4945    2.9342    0.7853 N   0  0  0  0  0  0  0  0  0  0  0  0
   -0.7116    3.8457   -1.4264 N   0  0  0  0  0  0  0  0  0  0  0  0
   -2.4236    4.0020    0.0699 N   0  0  0  0  0  0  0  0  0  0  0  0
    3.1835    0.3946    0.3336 C   0  0  1  0  0  0  0  0  0  0  0  0
    2.9667    1.3960    1.4685 C   0  0  0  0  0  0  0  0  0  0  0  0
    0.3354   -1.2606   -0.9456 C   0  0  0  0  0  0  0  0  0  0  0  0
   -0.7218   -1.4427   -0.0479 C   0  0  0  0  0  0  0  0  0  0  0  0
    1.5163    1.8515    1.6864 C   0  0  0  0  0  0  0  0  0  0  0  0
   -1.9947   -0.9166   -0.3736 C   0  0  0  0  0  0  0  0  0  0  0  0
   -3.0612   -1.0950    0.5226 C   0  0  0  0  0  0  0  0  0  0  0  0
    0.1592   -0.5767   -2.1435 C   0  0  0  0  0  0  0  0  0  0  0  0
    0.8622    2.4892    0.4646 C   0  0  0  0  0  0  0  0  0  0  0  0
   -0.5531   -2.1315    1.1644 C   0  0  0  0  0  0  0  0  0  0  0  0
    4.6519    0.0562    0.1913 C   0  0  0  0  0  0  0  0  0  0  0  0
   -2.1633   -0.2274   -1.5855 C   0  0  0  0  0  0  0  0  0  0  0  0
   -1.0924   -0.0593   -2.4638 C   0  0  0  0  0  0  0  0  0  0  0  0
   -2.8756   -1.7821    1.7224 C   0  0  0  0  0  0  0  0  0  0  0  0
   -1.6239   -2.2993    2.0427 C   0  0  0  0  0  0  0  0  0  0  0  0
   -5.3130   -1.3967   -0.4769 C   0  0  0  0  0  0  0  0  0  0  0  0
   -4.7221    0.7435    0.6717 C   0  0  0  0  0  0  0  0  0  0  0  0
   -1.1434    3.5521   -0.1521 C   0  0  0  0  0  0  0  0  0  0  0  0
    2.8360    0.8003   -0.6215 H   0  0  0  0  0  0  0  0  0  0  0  0
    3.3365    0.9702    2.4111 H   0  0  0  0  0  0  0  0  0  0  0  0
    3.5766    2.2903    1.2868 H   0  0  0  0  0  0  0  0  0  0  0  0
    2.6487   -1.2827    1.5625 H   0  0  0  0  0  0  0  0  0  0  0  0
    1.4989    2.5681    2.5175 H   0  0  0  0  0  0  0  0  0  0  0  0
    0.9106    0.9977    2.0149 H   0  0  0  0  0  0  0  0  0  0  0  0
    0.9649   -0.4180   -2.8530 H   0  0  0  0  0  0  0  0  0  0  0  0
    0.8215    1.7649   -0.3537 H   0  0  0  0  0  0  0  0  0  0  0  0
    1.4759    3.3404    0.1452 H   0  0  0  0  0  0  0  0  0  0  0  0
    0.3937   -2.5309    1.5050 H   0  0  0  0  0  0  0  0  0  0  0  0
   -3.1220    0.1935   -1.8777 H   0  0  0  0  0  0  0  0  0  0  0  0
   -1.2359    0.4779   -3.3968 H   0  0  0  0  0  0  0  0  0  0  0  0
   -3.7004   -1.9188    2.4175 H   0  0  0  0  0  0  0  0  0  0  0  0
   -1.4789   -2.8264    2.9814 H   0  0  0  0  0  0  0  0  0  0  0  0
   -5.7106   -2.1845    0.1713 H   0  0  0  0  0  0  0  0  0  0  0  0
   -6.1565   -0.7979   -0.8367 H   0  0  0  0  0  0  0  0  0  0  0  0
   -4.8534   -1.8697   -1.3515 H   0  0  0  0  0  0  0  0  0  0  0  0
   -4.3173    1.4916   -0.0169 H   0  0  0  0  0  0  0  0  0  0  0  0
   -5.8096    0.8690    0.7057 H   0  0  0  0  0  0  0  0  0  0  0  0
   -4.3402    0.9574    1.6761 H   0  0  0  0  0  0  0  0  0  0  0  0
    6.3415    0.9216   -0.2558 H   0  0  0  0  0  0  0  0  0  0  0  0
    0.2074    3.5797   -1.7613 H   0  0  0  0  0  0  0  0  0  0  0  0
   -1.3116    4.3358   -2.0813 H   0  0  0  0  0  0  0  0  0  0  0  0
   -2.9491    4.4838   -0.6512 H   0  0  0  0  0  0  0  0  0  0  0  0
   -2.8821    3.8568    0.9628 H   0  0  0  0  0  0  0  0  0  0  0  0
  1  2  2  0  0  0  0
  1  3  2  0  0  0  0
  1  6  1  0  0  0  0
  1 13  1  0  0  0  0
  4 21  1  0  0  0  0
  4 49  1  0  0  0  0
  5 21  2  0  0  0  0
  6 11  1  0  0  0  0
  6 32  1  0  0  0  0
  7 17  1  0  0  0  0
  7 26  1  0  0  0  0
  7 27  1  0  0  0  0
  8 19  1  0  0  0  0
  8 28  2  0  0  0  0
  9 28  1  0  0  0  0
  9 50  1  0  0  0  0
  9 51  1  0  0  0  0
 10 28  1  0  0  0  0
 10 52  1  0  0  0  0
 10 53  1  0  0  0  0
 11 12  1  0  0  0  0
 11 21  1  0  0  0  0
 11 29  1  0  0  0  0
 12 15  1  0  0  0  0
 12 30  1  0  0  0  0
 12 31  1  0  0  0  0
 13 14  1  0  0  0  0
 13 18  2  0  0  0  0
 14 16  2  0  0  0  0
 14 20  1  0  0  0  0
 15 19  1  0  0  0  0
 15 33  1  0  0  0  0
 15 34  1  0  0  0  0
 16 17  1  0  0  0  0
 16 22  1  0  0  0  0
 17 24  2  0  0  0  0
 18 23  1  0  0  0  0
 18 35  1  0  0  0  0
 19 36  1  0  0  0  0
 19 37  1  0  0  0  0
 20 25  2  0  0  0  0
 20 38  1  0  0  0  0
 22 23  2  0  0  0  0
 22 39  1  0  0  0  0
 23 40  1  0  0  0  0
 24 25  1  0  0  0  0
 24 41  1  0  0  0  0
 25 42  1  0  0  0  0
 26 43  1  0  0  0  0
 26 44  1  0  0  0  0
 26 45  1  0  0  0  0
 27 46  1  0  0  0  0
 27 47  1  0  0  0  0
 27 48  1  0  0  0  0
M  END
> <PUBCHEM_COMPOUND_CID>
119895

> <PUBCHEM_CONFORMER_RMSD>
1

> <PUBCHEM_CONFORMER_DIVERSEORDER>
1
7
156
130
94
95
111
133
108
112
20
160
52
71
8
70
75
100
57
83
45
53
109
97
78
153
13
9
61
49
33
140
79
113
68
32
92
19
125
146
66
88
119
35
136
72
124
30
106
164
86
149
102
63
145
12
115
105
118
122
98
163
117
155
59
138
29
58
158
81
39
134
77
27
31
89
96
114
22
5
128
93
16
148
41
103
85
82
159
36
11
101
65
90
147
34
150
161
151
67
47
123
139
40
121
50
143
14
4
28
17
10
56
120
51
74
76
116
131
6
46
84
157
60
23
21
38
55
2
126
44
144
54
73
91
3
25
18
43
62
135
167
165
132
37
104
48
154
15
166
110
99
141
80
152
24
64
26
142
42
69
137
162
107
129
127
87

> <PUBCHEM_MMFF94_PARTIAL_CHARGES>
36
1 1.45
10 -0.85
11 0.42
13 -0.01
17 0.1
18 -0.15
19 0.25
2 -0.65
20 -0.15
21 0.66
22 -0.15
23 -0.15
24 -0.15
25 -0.15
26 0.37
27 0.37
28 0.55
3 -0.65
32 0.42
35 0.15
38 0.15
39 0.15
4 -0.65
40 0.15
41 0.15
42 0.15
49 0.5
5 -0.57
50 0.4
51 0.4
52 0.4
53 0.4
6 -0.91
7 -0.84
8 -0.7
9 -0.85

> <PUBCHEM_EFFECTIVE_ROTOR_COUNT>
9

> <PUBCHEM_PHARMACOPHORE_FEATURES>
12
1 10 donor
1 2 acceptor
1 3 acceptor
1 4 acceptor
1 5 acceptor
1 6 donor
1 7 cation
1 9 donor
3 4 5 21 anion
4 8 9 10 28 cation
6 13 14 16 18 22 23 rings
6 14 16 17 20 24 25 rings

> <PUBCHEM_HEAVY_ATOM_COUNT>
28

> <PUBCHEM_ATOM_DEF_STEREO_COUNT>
0

> <PUBCHEM_ATOM_UDEF_STEREO_COUNT>
1

> <PUBCHEM_BOND_DEF_STEREO_COUNT>
0

> <PUBCHEM_BOND_UDEF_STEREO_COUNT>
0

> <PUBCHEM_ISOTOPIC_ATOM_COUNT>
0

> <PUBCHEM_COMPONENT_COUNT>
1

> <PUBCHEM_CACTVS_TAUTO_COUNT>
2

> <PUBCHEM_CONFORMER_ID>
0001D45700000001

> <PUBCHEM_MMFF94_ENERGY>
85.7364

> <PUBCHEM_FEATURE_SELFOVERLAP>
61.054

> <PUBCHEM_SHAPE_FINGERPRINT>
10119406 146 15969082792455195614
10366900 7 18408320012100593115
104564 63 18342168952120691416
10688039 33 18335138691514749908
11244481 83 17390511049006425633
11578080 2 17751908139330256421
12156800 1 18051448164398674164
12293681 4 18408890650208803723
12422481 6 18059298668830572928
12633257 1 17897146125692238035
12788726 201 18336257964308219328
13402501 40 18412542119618765921
13583140 156 18130795615498143315
14363568 33 17833002906561965112
14787075 74 18333726936017593623
20600515 1 17604160305979545903
20691752 17 18263945275304219209
23558518 356 18119534236631920894
24893992 56 18259702308179390089
3052486 1 18115879490220557361
35225 105 17616834140415922369
392239 28 18335422305601114289

> <PUBCHEM_SHAPE_MULTIPOLES>
531.69
8.44
4.14
1.92
2.31
4.78
-0.5
-1.57
1.41
-0.88
0.29
-0.44
-0.41
1.26

> <PUBCHEM_SHAPE_SELFOVERLAP>
1098.699

> <PUBCHEM_SHAPE_VOLUME>
305.1

> <PUBCHEM_COORDINATE_TYPE>
2
5
10

$$$$
