11988953
  -OEChem-03292013303D

 60 62  0     1  0  0  0  0  0999 V2000
   -3.5191    0.1962    1.1693 S   0  0  0  0  0  0  0  0  0  0  0  0
   -1.4710   -1.1141   -2.0765 O   0  0  0  0  0  0  0  0  0  0  0  0
   -2.8957   -3.4153   -1.3774 O   0  0  0  0  0  0  0  0  0  0  0  0
   -5.4373   -3.0510   -0.2889 O   0  0  0  0  0  0  0  0  0  0  0  0
   -6.2847    0.2442    2.1993 O   0  0  0  0  0  0  0  0  0  0  0  0
   -2.1469    2.6394   -1.8732 O   0  0  0  0  0  0  0  0  0  0  0  0
    5.8901   -2.0702   -0.2227 O   0  0  0  0  0  0  0  0  0  0  0  0
   -2.1837   -1.2018   -0.8330 C   0  0  2  0  0  0  0  0  0  0  0  0
   -3.3992   -2.1079   -1.0663 C   0  0  2  0  0  0  0  0  0  0  0  0
   -2.5454    0.2226   -0.3775 C   0  0  2  0  0  0  0  0  0  0  0  0
   -4.3392   -2.2349    0.1379 C   0  0  1  0  0  0  0  0  0  0  0  0
   -4.8808   -0.8886    0.6330 C   0  0  1  0  0  0  0  0  0  0  0  0
   -1.3314    1.1231   -0.2057 C   0  0  0  0  0  0  0  0  0  0  0  0
   -5.8493   -1.0433    1.8072 C   0  0  0  0  0  0  0  0  0  0  0  0
   -0.3523    0.7728    0.7215 C   0  0  0  0  0  0  0  0  0  0  0  0
   -1.1974    2.2849   -0.9627 C   0  0  0  0  0  0  0  0  0  0  0  0
    0.7663    1.5883    0.8925 C   0  0  0  0  0  0  0  0  0  0  0  0
    0.9032    2.7521    0.1357 C   0  0  0  0  0  0  0  0  0  0  0  0
   -0.0787    3.1004   -0.7918 C   0  0  0  0  0  0  0  0  0  0  0  0
    1.8044    1.1958    1.8919 C   0  0  0  0  0  0  0  0  0  0  0  0
    2.0920    3.6407    0.3009 C   0  0  0  0  0  0  0  0  0  0  0  0
    2.9013    0.3192    1.3238 C   0  0  0  0  0  0  0  0  0  0  0  0
   -1.9268    3.8447   -2.6031 C   0  0  0  0  0  0  0  0  0  0  0  0
    2.5602   -0.7401    0.5024 C   0  0  0  0  0  0  0  0  0  0  0  0
    4.2186    0.5983    1.6406 C   0  0  0  0  0  0  0  0  0  0  0  0
    3.5706   -1.5476   -0.0199 C   0  0  0  0  0  0  0  0  0  0  0  0
    5.2289   -0.2093    1.1183 C   0  0  0  0  0  0  0  0  0  0  0  0
    4.9049   -1.2822    0.2880 C   0  0  0  0  0  0  0  0  0  0  0  0
    7.1572   -1.4569   -0.4551 C   0  0  0  0  0  0  0  0  0  0  0  0
    7.8412   -2.1595   -1.6084 C   0  0  0  0  0  0  0  0  0  0  0  0
   -1.5040   -1.6949   -0.1259 H   0  0  0  0  0  0  0  0  0  0  0  0
   -3.9562   -1.7806   -1.9534 H   0  0  0  0  0  0  0  0  0  0  0  0
   -3.2029    0.6564   -1.1396 H   0  0  0  0  0  0  0  0  0  0  0  0
   -3.8455   -2.7854    0.9480 H   0  0  0  0  0  0  0  0  0  0  0  0
   -5.4124   -0.3707   -0.1752 H   0  0  0  0  0  0  0  0  0  0  0  0
   -6.7317   -1.6201    1.5132 H   0  0  0  0  0  0  0  0  0  0  0  0
   -5.3905   -1.5455    2.6664 H   0  0  0  0  0  0  0  0  0  0  0  0
   -0.4579   -0.1277    1.3216 H   0  0  0  0  0  0  0  0  0  0  0  0
   -0.5976   -0.7289   -1.8927 H   0  0  0  0  0  0  0  0  0  0  0  0
   -2.3148   -3.3261   -2.1524 H   0  0  0  0  0  0  0  0  0  0  0  0
   -5.9181   -2.5676   -0.9824 H   0  0  0  0  0  0  0  0  0  0  0  0
    0.0782    4.0159   -1.3519 H   0  0  0  0  0  0  0  0  0  0  0  0
    1.3315    0.6402    2.7144 H   0  0  0  0  0  0  0  0  0  0  0  0
    2.2260    2.0821    2.3810 H   0  0  0  0  0  0  0  0  0  0  0  0
   -5.5023    0.7453    2.4859 H   0  0  0  0  0  0  0  0  0  0  0  0
    2.1012    4.0930    1.2978 H   0  0  0  0  0  0  0  0  0  0  0  0
    3.0222    3.0882    0.1370 H   0  0  0  0  0  0  0  0  0  0  0  0
    2.0867    4.4634   -0.4229 H   0  0  0  0  0  0  0  0  0  0  0  0
   -2.7788    3.9704   -3.2796 H   0  0  0  0  0  0  0  0  0  0  0  0
   -1.9145    4.7199   -1.9445 H   0  0  0  0  0  0  0  0  0  0  0  0
   -1.0316    3.7797   -3.2310 H   0  0  0  0  0  0  0  0  0  0  0  0
    1.5367   -0.9950    0.2565 H   0  0  0  0  0  0  0  0  0  0  0  0
    4.4809    1.4272    2.2914 H   0  0  0  0  0  0  0  0  0  0  0  0
    3.3123   -2.3850   -0.6625 H   0  0  0  0  0  0  0  0  0  0  0  0
    6.2521    0.0150    1.4048 H   0  0  0  0  0  0  0  0  0  0  0  0
    7.7705   -1.5444    0.4485 H   0  0  0  0  0  0  0  0  0  0  0  0
    7.0549   -0.3992   -0.7289 H   0  0  0  0  0  0  0  0  0  0  0  0
    7.2328   -2.0924   -2.5166 H   0  0  0  0  0  0  0  0  0  0  0  0
    7.9689   -3.2248   -1.3896 H   0  0  0  0  0  0  0  0  0  0  0  0
    8.8228   -1.7207   -1.8079 H   0  0  0  0  0  0  0  0  0  0  0  0
  1 10  1  0  0  0  0
  1 12  1  0  0  0  0
  2  8  1  0  0  0  0
  2 39  1  0  0  0  0
  3  9  1  0  0  0  0
  3 40  1  0  0  0  0
  4 11  1  0  0  0  0
  4 41  1  0  0  0  0
  5 14  1  0  0  0  0
  5 45  1  0  0  0  0
  6 16  1  0  0  0  0
  6 23  1  0  0  0  0
  7 28  1  0  0  0  0
  7 29  1  0  0  0  0
  8  9  1  0  0  0  0
  8 10  1  0  0  0  0
  8 31  1  0  0  0  0
  9 11  1  0  0  0  0
  9 32  1  0  0  0  0
 10 13  1  0  0  0  0
 10 33  1  0  0  0  0
 11 12  1  0  0  0  0
 11 34  1  0  0  0  0
 12 14  1  0  0  0  0
 12 35  1  0  0  0  0
 13 15  1  0  0  0  0
 13 16  2  0  0  0  0
 14 36  1  0  0  0  0
 14 37  1  0  0  0  0
 15 17  2  0  0  0  0
 15 38  1  0  0  0  0
 16 19  1  0  0  0  0
 17 18  1  0  0  0  0
 17 20  1  0  0  0  0
 18 19  2  0  0  0  0
 18 21  1  0  0  0  0
 19 42  1  0  0  0  0
 20 22  1  0  0  0  0
 20 43  1  0  0  0  0
 20 44  1  0  0  0  0
 21 46  1  0  0  0  0
 21 47  1  0  0  0  0
 21 48  1  0  0  0  0
 22 24  2  0  0  0  0
 22 25  1  0  0  0  0
 23 49  1  0  0  0  0
 23 50  1  0  0  0  0
 23 51  1  0  0  0  0
 24 26  1  0  0  0  0
 24 52  1  0  0  0  0
 25 27  2  0  0  0  0
 25 53  1  0  0  0  0
 26 28  2  0  0  0  0
 26 54  1  0  0  0  0
 27 28  1  0  0  0  0
 27 55  1  0  0  0  0
 29 30  1  0  0  0  0
 29 56  1  0  0  0  0
 29 57  1  0  0  0  0
 30 58  1  0  0  0  0
 30 59  1  0  0  0  0
 30 60  1  0  0  0  0
M  END
> <PUBCHEM_COMPOUND_CID>
11988953

> <PUBCHEM_CONFORMER_RMSD>
1

> <PUBCHEM_CONFORMER_DIVERSEORDER>
1
43
7
35
50
100
13
22
41
49
44
96
81
62
52
93
21
60
61
65
14
16
94
59
28
71
77
72
54
95
46
2
103
12
33
85
86
23
69
64
91
97
83
68
39
47
42
30
48
3
19
67
87
66
40
51
63
99
8
29
15
32
4
101
80
37
78
10
74
98
75
76
25
57
58
24
34
82
73
88
92
17
26
56
36
53
31
89
45
6
20
84
11
70
18
55
5
90
27
102
38
9
79

> <PUBCHEM_MMFF94_PARTIAL_CHARGES>
39
1 -0.46
10 0.37
11 0.28
12 0.23
13 -0.14
14 0.28
15 -0.15
16 0.08
17 -0.14
18 -0.14
19 -0.15
2 -0.68
20 0.29
21 0.14
22 -0.14
23 0.28
24 -0.15
25 -0.15
26 -0.15
27 -0.15
28 0.08
29 0.28
3 -0.68
38 0.15
39 0.4
4 -0.68
40 0.4
41 0.4
42 0.15
45 0.4
5 -0.68
52 0.15
53 0.15
54 0.15
55 0.15
6 -0.36
7 -0.36
8 0.28
9 0.28

> <PUBCHEM_EFFECTIVE_ROTOR_COUNT>
8.2

> <PUBCHEM_PHARMACOPHORE_FEATURES>
13
1 2 acceptor
1 2 donor
1 3 acceptor
1 3 donor
1 4 acceptor
1 4 donor
1 5 acceptor
1 5 donor
1 6 acceptor
1 7 acceptor
6 1 8 9 10 11 12 rings
6 13 15 16 17 18 19 rings
6 22 24 25 26 27 28 rings

> <PUBCHEM_HEAVY_ATOM_COUNT>
30

> <PUBCHEM_ATOM_DEF_STEREO_COUNT>
5

> <PUBCHEM_ATOM_UDEF_STEREO_COUNT>
0

> <PUBCHEM_BOND_DEF_STEREO_COUNT>
0

> <PUBCHEM_BOND_UDEF_STEREO_COUNT>
0

> <PUBCHEM_ISOTOPIC_ATOM_COUNT>
0

> <PUBCHEM_COMPONENT_COUNT>
1

> <PUBCHEM_CACTVS_TAUTO_COUNT>
1

> <PUBCHEM_CONFORMER_ID>
00B6EFD900000001

> <PUBCHEM_MMFF94_ENERGY>
102.0698

> <PUBCHEM_FEATURE_SELFOVERLAP>
65.991

> <PUBCHEM_SHAPE_FINGERPRINT>
10010297 198 18045791349584829229
10290309 65 18053947255745107222
10764073 3 17846226505750135709
10928967 22 18337375102666738674
11059845 2 17702684163427361929
11069576 57 17261289914487286575
11477941 20 17967538935452967756
11621639 254 17823442490677428780
117089 54 18193565685960710211
11991303 11 17170938268440613189
12107183 9 18272379659382034915
12422481 6 18343866636675519953
12553582 1 18114728413194002491
13533116 47 17982444095372870371
13540713 4 18192967448893296016
13673619 4 18410859845553814424
13690498 29 18187928344152772236
13757389 114 17825385176477694525
13941219 33 17060337388664044318
14251764 30 18410013230390951178
14420673 8 18130794442576296339
15064986 96 16271659883539700286
15324884 4 18054754405176069512
15721738 202 17822018614213012806
16110190 28 18202562908311402850
16120349 21 18201165381782467923
16991981 162 16227991615685617812
17492 89 18122626325971819187
17818456 19 18059584624249282393
1813 80 18188484787093596257
20101258 96 18187081741537415237
20567600 254 10519988140665003171
20739085 24 18189618426863861065
20775530 9 18342725317889267422
21307412 95 18271230634706554615
21344244 246 18262525922516948340
21403212 168 17846222103820192195
21591331 117 18260835907543575515
2260408 40 17988635363570503632
255183 451 18190742131937096191
3117164 225 18130508621630005707
3737641 26 18337103583386978016
4366758 6 11311773921784753305
437795 70 17901063613477914279
44880168 125 17417805085838452014
484985 159 18058731277980960584
513202 73 18261108513692739299
56633871 153 18343865528411005423
6700243 42 17841461171417258060

> <PUBCHEM_SHAPE_MULTIPOLES>
586.02
15.52
4.28
2
16.66
2.54
-0.32
-16.99
1.35
-1.83
-2.75
-1.08
0.69
2.12

> <PUBCHEM_SHAPE_SELFOVERLAP>
1223.252

> <PUBCHEM_SHAPE_VOLUME>
334.8

> <PUBCHEM_COORDINATE_TYPE>
2
5
10

$$$$
