11990852
  -OEChem-03292013303D

 48 50  0     0  0  0  0  0  0999 V2000
   -5.1678   -2.4982   -0.4422 Cl  0  0  0  0  0  0  0  0  0  0  0  0
   -2.5359   -1.4643    1.7586 S   0  0  0  0  0  0  0  0  0  0  0  0
   -2.5530   -2.8824    1.4288 O   0  0  0  0  0  0  0  0  0  0  0  0
   -3.2480   -0.9683    2.9288 O   0  0  0  0  0  0  0  0  0  0  0  0
   -0.1925   -1.7312   -0.2153 O   0  0  0  0  0  0  0  0  0  0  0  0
    3.6325   -1.8107   -2.6691 O   0  0  0  0  0  0  0  0  0  0  0  0
    5.8178    0.4952    0.8493 O   0  0  0  0  0  0  0  0  0  0  0  0
   -2.8643    0.5603   -0.0798 N   0  0  0  0  0  0  0  0  0  0  0  0
   -1.8794    1.3182    0.4750 N   0  0  0  0  0  0  0  0  0  0  0  0
   -4.5021   -0.0867   -1.4471 N   0  0  0  0  0  0  0  0  0  0  0  0
   -0.9003   -0.9492    1.8542 N   0  0  0  0  0  0  0  0  0  0  0  0
    1.3103   -0.6283    1.1917 N   0  0  0  0  0  0  0  0  0  0  0  0
    2.4622   -1.2292   -0.7533 N   0  0  0  0  0  0  0  0  0  0  0  0
    3.5731   -0.0569    1.0352 N   0  0  0  0  0  0  0  0  0  0  0  0
   -3.2694   -0.6721    0.3609 C   0  0  0  0  0  0  0  0  0  0  0  0
   -1.6853    2.4521   -0.1315 C   0  0  0  0  0  0  0  0  0  0  0  0
   -0.6126    3.3644    0.4064 C   0  0  0  0  0  0  0  0  0  0  0  0
   -3.6413    0.8743   -1.1795 C   0  0  0  0  0  0  0  0  0  0  0  0
    0.7206    3.0657   -0.2578 C   0  0  0  0  0  0  0  0  0  0  0  0
   -2.4448    2.9238   -1.3263 C   0  0  0  0  0  0  0  0  0  0  0  0
   -3.3968    2.1161   -1.8074 C   0  0  0  0  0  0  0  0  0  0  0  0
   -4.2762   -1.0480   -0.4954 C   0  0  0  0  0  0  0  0  0  0  0  0
    1.8583    3.9152    0.2913 C   0  0  0  0  0  0  0  0  0  0  0  0
    0.0820   -1.1529    0.8292 C   0  0  0  0  0  0  0  0  0  0  0  0
    2.5146   -0.6386    0.4505 C   0  0  0  0  0  0  0  0  0  0  0  0
    3.6278   -1.2212   -1.4327 C   0  0  0  0  0  0  0  0  0  0  0  0
    4.7047   -0.0848    0.3009 C   0  0  0  0  0  0  0  0  0  0  0  0
    4.7921   -0.6581   -0.9511 C   0  0  0  0  0  0  0  0  0  0  0  0
    2.4045   -2.3746   -3.1146 C   0  0  0  0  0  0  0  0  0  0  0  0
    5.6694    1.0706    2.1421 C   0  0  0  0  0  0  0  0  0  0  0  0
   -0.8998    4.4083    0.2368 H   0  0  0  0  0  0  0  0  0  0  0  0
   -0.5405    3.2216    1.4913 H   0  0  0  0  0  0  0  0  0  0  0  0
    0.6426    3.2321   -1.3392 H   0  0  0  0  0  0  0  0  0  0  0  0
    0.9729    2.0075   -0.1290 H   0  0  0  0  0  0  0  0  0  0  0  0
   -2.2146    3.8837   -1.7697 H   0  0  0  0  0  0  0  0  0  0  0  0
   -3.9820    2.4026   -2.6739 H   0  0  0  0  0  0  0  0  0  0  0  0
   -0.6240   -0.4237    2.6930 H   0  0  0  0  0  0  0  0  0  0  0  0
    2.7958    3.6670   -0.2161 H   0  0  0  0  0  0  0  0  0  0  0  0
    1.6589    4.9806    0.1395 H   0  0  0  0  0  0  0  0  0  0  0  0
    1.9946    3.7387    1.3630 H   0  0  0  0  0  0  0  0  0  0  0  0
    1.3756   -0.1752    2.0990 H   0  0  0  0  0  0  0  0  0  0  0  0
    5.7140   -0.6659   -1.5187 H   0  0  0  0  0  0  0  0  0  0  0  0
    1.6287   -1.6065   -3.2025 H   0  0  0  0  0  0  0  0  0  0  0  0
    2.0793   -3.1822   -2.4500 H   0  0  0  0  0  0  0  0  0  0  0  0
    2.5706   -2.8016   -4.1080 H   0  0  0  0  0  0  0  0  0  0  0  0
    6.6363    1.4887    2.4376 H   0  0  0  0  0  0  0  0  0  0  0  0
    5.3902    0.3113    2.8802 H   0  0  0  0  0  0  0  0  0  0  0  0
    4.9393    1.8869    2.1269 H   0  0  0  0  0  0  0  0  0  0  0  0
  1 22  1  0  0  0  0
  2  3  2  0  0  0  0
  2  4  2  0  0  0  0
  2 11  1  0  0  0  0
  2 15  1  0  0  0  0
  5 24  2  0  0  0  0
  6 26  1  0  0  0  0
  6 29  1  0  0  0  0
  7 27  1  0  0  0  0
  7 30  1  0  0  0  0
  8  9  1  0  0  0  0
  8 15  1  0  0  0  0
  8 18  1  0  0  0  0
  9 16  2  0  0  0  0
 10 18  2  0  0  0  0
 10 22  1  0  0  0  0
 11 24  1  0  0  0  0
 11 37  1  0  0  0  0
 12 24  1  0  0  0  0
 12 25  1  0  0  0  0
 12 41  1  0  0  0  0
 13 25  1  0  0  0  0
 13 26  2  0  0  0  0
 14 25  2  0  0  0  0
 14 27  1  0  0  0  0
 15 22  2  0  0  0  0
 16 17  1  0  0  0  0
 16 20  1  0  0  0  0
 17 19  1  0  0  0  0
 17 31  1  0  0  0  0
 17 32  1  0  0  0  0
 18 21  1  0  0  0  0
 19 23  1  0  0  0  0
 19 33  1  0  0  0  0
 19 34  1  0  0  0  0
 20 21  2  0  0  0  0
 20 35  1  0  0  0  0
 21 36  1  0  0  0  0
 23 38  1  0  0  0  0
 23 39  1  0  0  0  0
 23 40  1  0  0  0  0
 26 28  1  0  0  0  0
 27 28  2  0  0  0  0
 28 42  1  0  0  0  0
 29 43  1  0  0  0  0
 29 44  1  0  0  0  0
 29 45  1  0  0  0  0
 30 46  1  0  0  0  0
 30 47  1  0  0  0  0
 30 48  1  0  0  0  0
M  END
> <PUBCHEM_COMPOUND_CID>
11990852

> <PUBCHEM_CONFORMER_RMSD>
1

> <PUBCHEM_CONFORMER_DIVERSEORDER>
1
291
235
242
157
192
167
99
134
264
97
276
166
198
233
174
152
170
104
274
11
256
119
16
241
230
41
201
284
83
156
29
283
105
175
8
55
275
33
223
281
12
183
268
148
254
199
143
244
57
195
88
292
91
81
278
267
227
73
288
251
69
6
188
282
186
161
203
154
246
185
280
158
45
273
232
163
23
30
222
18
92
123
139
26
151
215
144
32
164
28
135
145
260
212
249
47
59
193
261
78
17
65
220
269
160
72
279
106
184
245
224
258
205
153
262
19
177
103
216
53
187
250
210
209
286
265
168
98
165
136
202
147
95
82
238
234
110
87
66
125
225
252
182
49
271
115
127
129
107
39
253
71
132
180
44
60
194
181
90
89
150
218
3
118
121
196
191
21
113
221
34
255
243
142
13
197
58
51
207
70
133
178
43
190
114
169
126
266
117
263
204
138
10
214
40
111
239
15
237
236
289
208
259
102
149
140
219
128
100
277
287
77
141
48
46
200
63
240
37
162
176
56
54
137
171
79
213
93
7
116
228
155
120
67
42
131
25
226
248
229
64
217
52
22
84
68
272
172
122
5
257
101
124
231
31
80
85
74
27
211
96
206
9
285
130
173
24
86
75
159
76
247
36
290
94
50
2
109
38
62
14
270
4
35
20
108
112
146
179
189
61

> <PUBCHEM_MMFF94_PARTIAL_CHARGES>
33
1 -0.12
10 -0.57
11 -0.79
12 -0.55
13 -0.62
14 -0.62
15 -0.21
16 0.37
17 0.06
18 0.14
2 1.5
20 -0.14
21 -0.11
22 0.35
24 0.87
25 0.74
26 0.39
27 0.39
28 -0.15
29 0.28
3 -0.65
30 0.28
35 0.15
36 0.15
37 0.42
4 -0.65
41 0.37
42 0.15
5 -0.57
6 -0.36
7 -0.36
8 0.51
9 -0.65

> <PUBCHEM_EFFECTIVE_ROTOR_COUNT>
9

> <PUBCHEM_PHARMACOPHORE_FEATURES>
12
1 11 donor
1 12 donor
1 23 hydrophobe
1 3 acceptor
1 4 acceptor
1 5 acceptor
1 7 acceptor
1 9 acceptor
3 8 10 18 cation
5 8 10 15 18 22 rings
6 13 14 25 26 27 28 rings
6 8 9 16 18 20 21 rings

> <PUBCHEM_HEAVY_ATOM_COUNT>
30

> <PUBCHEM_ATOM_DEF_STEREO_COUNT>
0

> <PUBCHEM_ATOM_UDEF_STEREO_COUNT>
0

> <PUBCHEM_BOND_DEF_STEREO_COUNT>
0

> <PUBCHEM_BOND_UDEF_STEREO_COUNT>
0

> <PUBCHEM_ISOTOPIC_ATOM_COUNT>
0

> <PUBCHEM_COMPONENT_COUNT>
1

> <PUBCHEM_CACTVS_TAUTO_COUNT>
5

> <PUBCHEM_CONFORMER_ID>
00B6F74400000001

> <PUBCHEM_MMFF94_ENERGY>
55.4429

> <PUBCHEM_FEATURE_SELFOVERLAP>
61.094

> <PUBCHEM_SHAPE_FINGERPRINT>
10498660 4 18265608780288344412
10675989 125 16962359687832225372
108634 29 18408040693814338248
11828532 37 17752204139902751315
12128747 34 18117824514222811122
12166972 35 17530961376338622404
13402501 40 18337941372503032104
14790565 3 17475222506348392037
17357779 13 18343022181422394712
17809404 112 18340484456919299540
17818456 19 17825372004271329322
20642791 35 18261659438476118833
20721686 56 18117549854810663704
20775438 99 17690818474422687415
21033650 10 18043266668764821478
235170 7 18059851727711584414
23557571 272 18410862027581550468
23559900 14 18190160438730927957
23572383 38 18339913832181196700
341906 21 18041278790565001214
46194498 28 18270397316451060295
469060 322 17024624164251194489
497634 4 17418099818993472091
508706 21 18187078451323415048
9981440 41 17894905179667559795

> <PUBCHEM_SHAPE_MULTIPOLES>
558.89
11.35
3.97
2.39
8.12
3.58
-0.43
-3.54
-0.25
-1.54
-0.88
0.87
-1.53
3.56

> <PUBCHEM_SHAPE_SELFOVERLAP>
1163.931

> <PUBCHEM_SHAPE_VOLUME>
321.3

> <PUBCHEM_COORDINATE_TYPE>
2
5
10

$$$$
