11995774
  -OEChem-03292013303D

 64 67  0     1  0  0  0  0  0999 V2000
    4.1491    0.8432    2.4591 Cl  0  0  0  0  0  0  0  0  0  0  0  0
   -9.4513   -3.2314    0.3251 Cl  0  0  0  0  0  0  0  0  0  0  0  0
    8.6931   -1.5746   -0.8057 O   0  0  0  0  0  0  0  0  0  0  0  0
   -0.1824    0.4345   -0.2019 N   0  0  1  0  0  0  0  0  0  0  0  0
   -4.3792    1.0562   -0.4556 N   0  0  0  0  0  0  0  0  0  0  0  0
    2.6273    0.0212   -0.0493 N   0  0  0  0  0  0  0  0  0  0  0  0
    4.5657   -0.8714   -1.1155 N   0  0  0  0  0  0  0  0  0  0  0  0
    6.1070   -0.1749    1.1218 N   0  0  0  0  0  0  0  0  0  0  0  0
    6.5120   -1.7530   -2.1543 N   0  0  0  0  0  0  0  0  0  0  0  0
    8.7347   -0.6476    1.2913 N   0  0  0  0  0  0  0  0  0  0  0  0
   -1.5174    0.9200    0.1402 C   0  0  0  0  0  0  0  0  0  0  0  0
    0.7327    1.5058   -0.6334 C   0  0  2  0  0  0  0  0  0  0  0  0
   -2.0789    1.8099   -0.9724 C   0  0  0  0  0  0  0  0  0  0  0  0
   -2.4611   -0.2586    0.3924 C   0  0  0  0  0  0  0  0  0  0  0  0
    0.3786   -0.3777    0.8808 C   0  0  0  0  0  0  0  0  0  0  0  0
    2.0701    0.8901   -1.0914 C   0  0  0  0  0  0  0  0  0  0  0  0
   -3.5191    2.2290   -0.6655 C   0  0  0  0  0  0  0  0  0  0  0  0
   -3.8888    0.2281    0.6550 C   0  0  0  0  0  0  0  0  0  0  0  0
    1.7151   -1.0018    0.4745 C   0  0  0  0  0  0  0  0  0  0  0  0
    0.9778    2.6201    0.3982 C   0  0  0  0  0  0  0  0  0  0  0  0
   -5.7605    1.4714   -0.2133 C   0  0  0  0  0  0  0  0  0  0  0  0
    1.8018    3.7417   -0.1967 C   0  0  0  0  0  0  0  0  0  0  0  0
    3.9973   -0.2614   -0.0380 C   0  0  0  0  0  0  0  0  0  0  0  0
   -6.6856    0.2912   -0.0785 C   0  0  0  0  0  0  0  0  0  0  0  0
    4.7839    0.0745    1.0612 C   0  0  0  0  0  0  0  0  0  0  0  0
   -7.3084   -0.2215   -1.2078 C   0  0  0  0  0  0  0  0  0  0  0  0
   -6.9033   -0.2670    1.1735 C   0  0  0  0  0  0  0  0  0  0  0  0
    5.8889   -1.1210   -1.0547 C   0  0  0  0  0  0  0  0  0  0  0  0
    6.6458   -0.7790    0.0443 C   0  0  0  0  0  0  0  0  0  0  0  0
   -8.1663   -1.3142   -1.0827 C   0  0  0  0  0  0  0  0  0  0  0  0
   -7.7611   -1.3598    1.2988 C   0  0  0  0  0  0  0  0  0  0  0  0
   -8.3925   -1.8835    0.1706 C   0  0  0  0  0  0  0  0  0  0  0  0
    8.0748   -1.0383    0.1300 C   0  0  0  0  0  0  0  0  0  0  0  0
   -1.4807    1.5103    1.0662 H   0  0  0  0  0  0  0  0  0  0  0  0
    0.3402    1.9643   -1.5485 H   0  0  0  0  0  0  0  0  0  0  0  0
   -1.5108    2.7385   -1.0894 H   0  0  0  0  0  0  0  0  0  0  0  0
   -2.0529    1.2834   -1.9361 H   0  0  0  0  0  0  0  0  0  0  0  0
   -2.4589   -0.9438   -0.4660 H   0  0  0  0  0  0  0  0  0  0  0  0
   -2.1765   -0.8379    1.2761 H   0  0  0  0  0  0  0  0  0  0  0  0
    0.5067    0.2145    1.7953 H   0  0  0  0  0  0  0  0  0  0  0  0
   -0.2545   -1.2306    1.1369 H   0  0  0  0  0  0  0  0  0  0  0  0
    1.8959    0.2812   -1.9898 H   0  0  0  0  0  0  0  0  0  0  0  0
    2.7954    1.6532   -1.3894 H   0  0  0  0  0  0  0  0  0  0  0  0
   -3.5323    2.8863    0.2141 H   0  0  0  0  0  0  0  0  0  0  0  0
   -3.8916    2.8144   -1.5151 H   0  0  0  0  0  0  0  0  0  0  0  0
   -4.4700   -0.6908    0.7650 H   0  0  0  0  0  0  0  0  0  0  0  0
   -3.9254    0.7747    1.6065 H   0  0  0  0  0  0  0  0  0  0  0  0
    2.1510   -1.4996    1.3496 H   0  0  0  0  0  0  0  0  0  0  0  0
    1.5568   -1.7708   -0.2928 H   0  0  0  0  0  0  0  0  0  0  0  0
    0.0296    3.0565    0.7282 H   0  0  0  0  0  0  0  0  0  0  0  0
    1.4785    2.2427    1.2958 H   0  0  0  0  0  0  0  0  0  0  0  0
   -6.1145    2.0948   -1.0454 H   0  0  0  0  0  0  0  0  0  0  0  0
   -5.8374    2.1036    0.6826 H   0  0  0  0  0  0  0  0  0  0  0  0
    1.7768    4.6101    0.4711 H   0  0  0  0  0  0  0  0  0  0  0  0
    1.4126    4.0628   -1.1681 H   0  0  0  0  0  0  0  0  0  0  0  0
    2.8547    3.4689   -0.3089 H   0  0  0  0  0  0  0  0  0  0  0  0
   -7.1377    0.2127   -2.1889 H   0  0  0  0  0  0  0  0  0  0  0  0
   -6.4319    0.1394    2.0640 H   0  0  0  0  0  0  0  0  0  0  0  0
   -8.6512   -1.7120   -1.9705 H   0  0  0  0  0  0  0  0  0  0  0  0
   -7.9307   -1.7909    2.2821 H   0  0  0  0  0  0  0  0  0  0  0  0
    7.2962   -2.3687   -1.9796 H   0  0  0  0  0  0  0  0  0  0  0  0
    5.9161   -1.9747   -2.9430 H   0  0  0  0  0  0  0  0  0  0  0  0
    9.7319   -0.7989    1.4007 H   0  0  0  0  0  0  0  0  0  0  0  0
    8.2496   -0.2016    2.0633 H   0  0  0  0  0  0  0  0  0  0  0  0
  1 25  1  0  0  0  0
  2 32  1  0  0  0  0
  3 33  2  0  0  0  0
  4 11  1  0  0  0  0
  4 12  1  0  0  0  0
  4 15  1  0  0  0  0
  5 17  1  0  0  0  0
  5 18  1  0  0  0  0
  5 21  1  0  0  0  0
  6 16  1  0  0  0  0
  6 19  1  0  0  0  0
  6 23  1  0  0  0  0
  7 23  2  0  0  0  0
  7 28  1  0  0  0  0
  8 25  2  0  0  0  0
  8 29  1  0  0  0  0
  9 28  1  0  0  0  0
  9 61  1  0  0  0  0
  9 62  1  0  0  0  0
 10 33  1  0  0  0  0
 10 63  1  0  0  0  0
 10 64  1  0  0  0  0
 11 13  1  0  0  0  0
 11 14  1  0  0  0  0
 11 34  1  0  0  0  0
 12 16  1  0  0  0  0
 12 20  1  0  0  0  0
 12 35  1  0  0  0  0
 13 17  1  0  0  0  0
 13 36  1  0  0  0  0
 13 37  1  0  0  0  0
 14 18  1  0  0  0  0
 14 38  1  0  0  0  0
 14 39  1  0  0  0  0
 15 19  1  0  0  0  0
 15 40  1  0  0  0  0
 15 41  1  0  0  0  0
 16 42  1  0  0  0  0
 16 43  1  0  0  0  0
 17 44  1  0  0  0  0
 17 45  1  0  0  0  0
 18 46  1  0  0  0  0
 18 47  1  0  0  0  0
 19 48  1  0  0  0  0
 19 49  1  0  0  0  0
 20 22  1  0  0  0  0
 20 50  1  0  0  0  0
 20 51  1  0  0  0  0
 21 24  1  0  0  0  0
 21 52  1  0  0  0  0
 21 53  1  0  0  0  0
 22 54  1  0  0  0  0
 22 55  1  0  0  0  0
 22 56  1  0  0  0  0
 23 25  1  0  0  0  0
 24 26  2  0  0  0  0
 24 27  1  0  0  0  0
 26 30  1  0  0  0  0
 26 57  1  0  0  0  0
 27 31  2  0  0  0  0
 27 58  1  0  0  0  0
 28 29  2  0  0  0  0
 29 33  1  0  0  0  0
 30 32  2  0  0  0  0
 30 59  1  0  0  0  0
 31 32  1  0  0  0  0
 31 60  1  0  0  0  0
M  END
> <PUBCHEM_COMPOUND_CID>
11995774

> <PUBCHEM_CONFORMER_RMSD>
1

> <PUBCHEM_CONFORMER_DIVERSEORDER>
1
63
92
36
93
10
79
73
83
100
47
53
111
98
15
20
102
65
101
32
107
64
115
46
14
84
17
61
89
30
112
41
50
42
60
56
33
66
116
67
87
114
68
119
55
94
57
105
26
113
117
40
109
2
118
103
27
25
22
18
71
95
52
43
77
90
110
72
7
16
82
85
39
120
91
37
75
45
48
69
13
59
38
106
24
58
28
96
4
51
34
62
31
12
49
99
81
8
88
76
108
44
86
29
74
3
5
78
104
54
23
19
9
70
11
6
97
80
35
21

> <PUBCHEM_MMFF94_PARTIAL_CHARGES>
37
1 -0.18
10 -0.8
11 0.27
12 0.27
15 0.27
16 0.37
17 0.27
18 0.27
19 0.37
2 -0.18
21 0.41
23 0.41
24 -0.14
25 0.49
26 -0.15
27 -0.15
28 0.41
29 0.4
3 -0.57
30 -0.15
31 -0.15
32 0.18
33 0.54
4 -0.81
5 -0.81
57 0.15
58 0.15
59 0.15
6 -0.84
60 0.15
61 0.4
62 0.4
63 0.37
64 0.37
7 -0.62
8 -0.62
9 -0.9

> <PUBCHEM_EFFECTIVE_ROTOR_COUNT>
8.4

> <PUBCHEM_PHARMACOPHORE_FEATURES>
13
1 10 donor
1 22 hydrophobe
1 3 acceptor
1 4 cation
1 5 cation
1 8 acceptor
1 9 cation
1 9 donor
3 6 7 23 cation
6 24 26 27 30 31 32 rings
6 4 6 12 15 16 19 rings
6 5 11 13 14 17 18 rings
6 7 8 23 25 28 29 rings

> <PUBCHEM_HEAVY_ATOM_COUNT>
33

> <PUBCHEM_ATOM_DEF_STEREO_COUNT>
1

> <PUBCHEM_ATOM_UDEF_STEREO_COUNT>
0

> <PUBCHEM_BOND_DEF_STEREO_COUNT>
0

> <PUBCHEM_BOND_UDEF_STEREO_COUNT>
0

> <PUBCHEM_ISOTOPIC_ATOM_COUNT>
0

> <PUBCHEM_COMPONENT_COUNT>
1

> <PUBCHEM_CACTVS_TAUTO_COUNT>
7

> <PUBCHEM_CONFORMER_ID>
00B70A7E00000001

> <PUBCHEM_MMFF94_ENERGY>
103.5988

> <PUBCHEM_FEATURE_SELFOVERLAP>
65.972

> <PUBCHEM_SHAPE_FINGERPRINT>
10162869 55 16660646267751722318
10533779 47 15554181297860133342
11135609 99 18337391655945087199
11181472 205 12902087770845070655
11409948 41 15502641656575850570
11456790 92 15770057215913301778
11607047 74 18120657095755789605
11828532 37 18334583472971654618
11963148 33 18187356611013096411
12089408 11 17676489411297389020
12166972 35 18202846560810503785
12236239 1 16805610219017304024
12838862 33 14417852566736700320
13673619 4 18333450941477603829
13782708 43 18335137601278807045
13811026 1 18335137613577964864
14068700 675 17894632552429253173
14202775 3 18339927001242769582
14429380 56 14923950054998188790
15064981 113 14708024685098165211
15183329 4 16660079997419257441
15419008 47 18272082765136043816
15461852 350 17967532363736058463
15510794 2 18060417994007278189
1577012 14 10231755561512112045
15849732 13 18131347496871859372
15979999 66 17167583799607541117
16991971 28 18261114075448391164
16992779 147 16199004293058003216
1754911 235 13551189991588032547
18335252 114 14562536184907007390
19302320 297 13038902256972705795
20105231 36 18060422383543541566
2026 5 18409167706398097435
21130935 74 18340768126645513971
21267235 1 18408042909859402261
21298829 104 9799693697301694915
23559900 14 17750240356300916325
23569943 247 17836093273408513250
23576562 1 13624110771817260151
2747138 104 18342453729431601777
3178227 256 16415478246894675206
3383291 50 18410293627542185603
3711267 37 10879988099017809626
44802255 64 12973602258227105105
484989 97 17895484734259653891
504579 68 16515406269830919483
54039377 194 18411419531864808231
5937810 71 12107774191762961079
59682541 35 18201432593404676336
636775 8 18334299773291873783
9962374 69 18340484581821244079

> <PUBCHEM_SHAPE_MULTIPOLES>
642.13
30.51
2.67
1.46
14.4
1.23
-0.22
-27.01
0.16
2.39
0.37
-1.55
-0.22
1.94

> <PUBCHEM_SHAPE_SELFOVERLAP>
1344

> <PUBCHEM_SHAPE_VOLUME>
363.6

> <PUBCHEM_COORDINATE_TYPE>
2
5
10

$$$$
