12000328
  -OEChem-03292013303D

 41 43  0     1  0  0  0  0  0999 V2000
   -5.1472    1.2345   -0.0245 S   0  0  0  0  0  0  0  0  0  0  0  0
    1.5634    0.9915   -0.8912 O   0  0  0  0  0  0  0  0  0  0  0  0
   -5.8357   -2.5567   -0.2420 O   0  0  0  0  0  0  0  0  0  0  0  0
   -7.7132    1.6126    0.4057 O   0  0  0  0  0  0  0  0  0  0  0  0
   -6.9590   -0.5625    0.0885 N   0  0  0  0  0  0  0  0  0  0  0  0
    4.1140    0.3448    0.1951 N   0  0  0  0  0  0  0  0  0  0  0  0
    5.6884   -1.4139    0.5182 N   0  0  0  0  0  0  0  0  0  0  0  0
   -4.6047   -0.4776   -0.3129 C   0  0  1  0  0  0  0  0  0  0  0  0
   -3.5242   -0.8771    0.6762 C   0  0  0  0  0  0  0  0  0  0  0  0
   -2.1651   -0.3777    0.2573 C   0  0  0  0  0  0  0  0  0  0  0  0
   -5.8413   -1.3334   -0.1559 C   0  0  0  0  0  0  0  0  0  0  0  0
   -1.3650   -1.1744   -0.5479 C   0  0  0  0  0  0  0  0  0  0  0  0
   -1.7367    0.8704    0.6840 C   0  0  0  0  0  0  0  0  0  0  0  0
    0.3359    0.5412   -0.5132 C   0  0  0  0  0  0  0  0  0  0  0  0
   -0.1072   -0.7123   -0.9352 C   0  0  0  0  0  0  0  0  0  0  0  0
   -0.4788    1.3326    0.2966 C   0  0  0  0  0  0  0  0  0  0  0  0
   -6.8284    0.7974    0.1922 C   0  0  0  0  0  0  0  0  0  0  0  0
    2.2366    1.8729    0.0063 C   0  0  0  0  0  0  0  0  0  0  0  0
    3.7382    1.6977   -0.1435 C   0  0  0  0  0  0  0  0  0  0  0  0
    5.4205   -0.1158    0.1830 C   0  0  0  0  0  0  0  0  0  0  0  0
    6.4373    0.7771   -0.1773 C   0  0  0  0  0  0  0  0  0  0  0  0
    7.7537    0.3297   -0.1944 C   0  0  0  0  0  0  0  0  0  0  0  0
    6.9799   -1.8126    0.4903 C   0  0  0  0  0  0  0  0  0  0  0  0
    8.0386   -0.9884    0.1445 C   0  0  0  0  0  0  0  0  0  0  0  0
   -4.2736   -0.5694   -1.3536 H   0  0  0  0  0  0  0  0  0  0  0  0
   -3.4716   -1.9719    0.7569 H   0  0  0  0  0  0  0  0  0  0  0  0
   -3.7556   -0.5440    1.6975 H   0  0  0  0  0  0  0  0  0  0  0  0
   -1.7016   -2.1510   -0.8841 H   0  0  0  0  0  0  0  0  0  0  0  0
   -2.3555    1.4942    1.3221 H   0  0  0  0  0  0  0  0  0  0  0  0
   -7.8673   -1.0009    0.2025 H   0  0  0  0  0  0  0  0  0  0  0  0
    0.5232   -1.3331   -1.5661 H   0  0  0  0  0  0  0  0  0  0  0  0
   -0.1832    2.3242    0.6262 H   0  0  0  0  0  0  0  0  0  0  0  0
    1.9613    2.9055   -0.2366 H   0  0  0  0  0  0  0  0  0  0  0  0
    1.9753    1.6643    1.0525 H   0  0  0  0  0  0  0  0  0  0  0  0
    4.0145    1.9073   -1.1838 H   0  0  0  0  0  0  0  0  0  0  0  0
    4.2400    2.4171    0.5137 H   0  0  0  0  0  0  0  0  0  0  0  0
    3.3965   -0.3223    0.4554 H   0  0  0  0  0  0  0  0  0  0  0  0
    6.2514    1.8107   -0.4488 H   0  0  0  0  0  0  0  0  0  0  0  0
    8.5566    1.0062   -0.4714 H   0  0  0  0  0  0  0  0  0  0  0  0
    7.1490   -2.8491    0.7628 H   0  0  0  0  0  0  0  0  0  0  0  0
    9.0573   -1.3589    0.1380 H   0  0  0  0  0  0  0  0  0  0  0  0
  1  8  1  0  0  0  0
  1 17  1  0  0  0  0
  2 14  1  0  0  0  0
  2 18  1  0  0  0  0
  3 11  2  0  0  0  0
  4 17  2  0  0  0  0
  5 11  1  0  0  0  0
  5 17  1  0  0  0  0
  5 30  1  0  0  0  0
  6 19  1  0  0  0  0
  6 20  1  0  0  0  0
  6 37  1  0  0  0  0
  7 20  1  0  0  0  0
  7 23  2  0  0  0  0
  8  9  1  0  0  0  0
  8 11  1  0  0  0  0
  8 25  1  0  0  0  0
  9 10  1  0  0  0  0
  9 26  1  0  0  0  0
  9 27  1  0  0  0  0
 10 12  2  0  0  0  0
 10 13  1  0  0  0  0
 12 15  1  0  0  0  0
 12 28  1  0  0  0  0
 13 16  2  0  0  0  0
 13 29  1  0  0  0  0
 14 15  2  0  0  0  0
 14 16  1  0  0  0  0
 15 31  1  0  0  0  0
 16 32  1  0  0  0  0
 18 19  1  0  0  0  0
 18 33  1  0  0  0  0
 18 34  1  0  0  0  0
 19 35  1  0  0  0  0
 19 36  1  0  0  0  0
 20 21  2  0  0  0  0
 21 22  1  0  0  0  0
 21 38  1  0  0  0  0
 22 24  2  0  0  0  0
 22 39  1  0  0  0  0
 23 24  1  0  0  0  0
 23 40  1  0  0  0  0
 24 41  1  0  0  0  0
M  END
> <PUBCHEM_COMPOUND_CID>
12000328

> <PUBCHEM_CONFORMER_RMSD>
1

> <PUBCHEM_CONFORMER_DIVERSEORDER>
1
92
306
118
225
279
203
236
108
124
350
109
12
74
123
7
286
219
88
133
261
209
226
307
95
297
170
280
362
343
201
83
264
38
60
327
260
142
285
85
208
308
134
330
117
81
40
249
55
189
349
141
93
89
292
354
147
257
206
344
218
105
70
8
112
56
223
150
298
159
183
103
276
294
119
49
146
181
128
36
190
76
340
338
66
115
15
346
110
217
25
180
323
107
336
231
17
240
245
62
234
163
191
212
227
220
281
149
41
63
24
179
333
328
166
270
53
192
224
156
167
104
162
265
295
43
130
90
263
317
139
310
196
331
182
172
169
19
211
82
222
44
120
363
91
137
291
252
77
122
129
68
324
145
185
272
13
216
195
178
332
176
20
23
284
101
26
80
143
64
356
136
364
113
50
207
100
213
288
250
131
235
65
164
361
255
160
61
59
357
157
271
254
329
140
322
205
204
232
51
266
325
274
28
30
259
221
171
287
237
268
21
244
184
87
78
42
4
94
278
251
125
301
304
57
187
121
126
334
275
345
35
111
253
34
152
199
135
106
165
352
32
127
151
230
309
202
148
5
305
14
321
48
347
197
155
248
168
79
153
73
210
10
11
39
246
47
293
358
52
2
154
241
215
342
33
348
238
351
98
316
273
37
29
214
315
102
99
233
198
267
296
313
58
31
300
193
114
138
9
243
341
46
67
54
84
16
6
186
200
22
188
355
283
320
256
326
3
314
116
365
229
132
194
175
72
312
339
71
289
86
269
177
282
69
18
277
311
161
337
239
258
144
303
27
318
158
299
75
242
359
335
96
290
247
174
353
360
45
173
319
228
262
97
302

> <PUBCHEM_MMFF94_PARTIAL_CHARGES>
34
1 -0.37
10 -0.14
11 0.57
12 -0.15
13 -0.15
14 0.08
15 -0.15
16 -0.15
17 0.77
18 0.28
19 0.37
2 -0.36
20 0.41
21 -0.15
22 -0.15
23 0.16
24 -0.15
28 0.15
29 0.15
3 -0.57
30 0.37
31 0.15
32 0.15
37 0.4
38 0.15
39 0.15
4 -0.57
40 0.15
41 0.15
5 -0.49
6 -0.87
7 -0.62
8 0.29
9 0.14

> <PUBCHEM_EFFECTIVE_ROTOR_COUNT>
7.6

> <PUBCHEM_PHARMACOPHORE_FEATURES>
9
1 2 acceptor
1 3 acceptor
1 5 donor
1 6 cation
1 6 donor
1 7 acceptor
5 1 5 8 11 17 rings
6 10 12 13 14 15 16 rings
6 7 20 21 22 23 24 rings

> <PUBCHEM_HEAVY_ATOM_COUNT>
24

> <PUBCHEM_ATOM_DEF_STEREO_COUNT>
0

> <PUBCHEM_ATOM_UDEF_STEREO_COUNT>
1

> <PUBCHEM_BOND_DEF_STEREO_COUNT>
0

> <PUBCHEM_BOND_UDEF_STEREO_COUNT>
0

> <PUBCHEM_ISOTOPIC_ATOM_COUNT>
0

> <PUBCHEM_COMPONENT_COUNT>
1

> <PUBCHEM_CACTVS_TAUTO_COUNT>
6

> <PUBCHEM_CONFORMER_ID>
00B71C4800000001

> <PUBCHEM_MMFF94_ENERGY>
67.6133

> <PUBCHEM_FEATURE_SELFOVERLAP>
45.671

> <PUBCHEM_SHAPE_FINGERPRINT>
10 15 16774075194334531048
100830 39 18337108965261055589
10299344 5 18260267447600716078
10319688 140 16371552688956843338
11315181 36 18131074848622654153
11524674 6 17132113567369663871
11638347 137 15123515796342714950
11719270 70 17917997169802162270
12166972 35 18337111258230129709
12236239 1 18410011065310397112
12592606 108 18410291432154182767
13533116 47 18337672018467187144
13685833 64 18334574646961456820
13885169 127 18408322163921399909
13914758 101 18411140216787226785
14123256 10 8574711303789477308
14216079 64 18408039585781503490
14251764 18 18410294718099316620
14347424 109 18272365395985925456
14856354 85 13695593252469410777
15183329 4 17603577534714792217
15198563 99 16153980249493419870
16994733 274 11600014240554172926
18643901 69 17967817098898921478
19841028 212 18261671464358765794
20157964 124 9799698100086668140
21130935 74 18339923821895254003
21150785 3 10953460726049822669
21267235 1 18412265022199751060
21315763 28 18411418453664349781
21365058 27 14923945639650704345
22224240 67 13830130590023314876
23522609 53 18192462773098461884
23559900 14 18188207731427425216
28498 318 18334574624938072252
3004659 81 18186799206067519576
335352 9 18411699902333316773
4073 2 17896042220887957106
4339292 15 16701445893448393031
437815 12 17749107811615131676
439807 62 17894909595574246042
559249 180 18413388761253123847
6138700 20 18409449184962075227
6394761 36 18408040697492094749
9965369 4 18410573981426423617

> <PUBCHEM_SHAPE_MULTIPOLES>
465.21
25.44
1.95
0.78
13.99
0.29
0.03
5.23
-2.34
-0.61
-0.04
-0.01
0.03
-0.98

> <PUBCHEM_SHAPE_SELFOVERLAP>
979.029

> <PUBCHEM_SHAPE_VOLUME>
262.5

> <PUBCHEM_COORDINATE_TYPE>
2
5
10

$$$$
