120032
  -OEChem-03292013323D

 37 36  0     0  0  0  0  0  0999 V2000
    0.0033    1.1839   -0.0016 S   0  0  0  0  0  0  0  0  0  0  0  0
   -3.0705    0.8452    0.1012 O   0  0  0  0  0  0  0  0  0  0  0  0
    3.0652    0.8480   -0.1074 O   0  0  0  0  0  0  0  0  0  0  0  0
   -4.7036    0.1850    1.5881 O   0  0  0  0  0  0  0  0  0  0  0  0
    4.7033    0.1845   -1.5872 O   0  0  0  0  0  0  0  0  0  0  0  0
   -6.5353   -1.5174    0.5913 O   0  0  0  0  0  0  0  0  0  0  0  0
    6.5377   -1.5148   -0.5900 O   0  0  0  0  0  0  0  0  0  0  0  0
   -1.2521    2.3734    0.5622 C   0  0  0  0  0  0  0  0  0  0  0  0
    1.2483    2.3674   -0.5619 C   0  0  0  0  0  0  0  0  0  0  0  0
   -2.4795    1.6655    1.1143 C   0  0  0  0  0  0  0  0  0  0  0  0
    2.4767    1.6614   -1.1139 C   0  0  0  0  0  0  0  0  0  0  0  0
   -4.6905   -0.6367   -0.7026 C   0  0  0  0  0  0  0  0  0  0  0  0
    4.6915   -0.6368    0.7037 C   0  0  0  0  0  0  0  0  0  0  0  0
   -4.1880    0.1542    0.4798 C   0  0  0  0  0  0  0  0  0  0  0  0
    4.1877    0.1530   -0.4789 C   0  0  0  0  0  0  0  0  0  0  0  0
   -5.9521   -1.4491   -0.4891 C   0  0  0  0  0  0  0  0  0  0  0  0
    5.9544   -1.4472    0.4904 C   0  0  0  0  0  0  0  0  0  0  0  0
   -6.4580   -2.2111   -1.6874 C   0  0  0  0  0  0  0  0  0  0  0  0
    6.4615   -2.2081    1.6890 C   0  0  0  0  0  0  0  0  0  0  0  0
   -0.8196    3.0196    1.3322 H   0  0  0  0  0  0  0  0  0  0  0  0
   -1.5405    2.9874   -0.2972 H   0  0  0  0  0  0  0  0  0  0  0  0
    0.8174    3.0138   -1.3328 H   0  0  0  0  0  0  0  0  0  0  0  0
    1.5379    2.9841    0.2954 H   0  0  0  0  0  0  0  0  0  0  0  0
   -2.2101    1.0465    1.9791 H   0  0  0  0  0  0  0  0  0  0  0  0
   -3.2111    2.4162    1.4358 H   0  0  0  0  0  0  0  0  0  0  0  0
    2.2076    1.0448   -1.9806 H   0  0  0  0  0  0  0  0  0  0  0  0
    3.2048    2.4148   -1.4374 H   0  0  0  0  0  0  0  0  0  0  0  0
   -4.8919    0.0695   -1.5157 H   0  0  0  0  0  0  0  0  0  0  0  0
   -3.8994   -1.3329   -1.0014 H   0  0  0  0  0  0  0  0  0  0  0  0
    4.8913    0.0701    1.5164 H   0  0  0  0  0  0  0  0  0  0  0  0
    3.9012   -1.3339    1.0025 H   0  0  0  0  0  0  0  0  0  0  0  0
   -7.3788   -2.7403   -1.4268 H   0  0  0  0  0  0  0  0  0  0  0  0
   -5.7070   -2.9401   -2.0014 H   0  0  0  0  0  0  0  0  0  0  0  0
   -6.6716   -1.5141   -2.5016 H   0  0  0  0  0  0  0  0  0  0  0  0
    7.3832   -2.7359    1.4285 H   0  0  0  0  0  0  0  0  0  0  0  0
    5.7118   -2.9383    2.0032 H   0  0  0  0  0  0  0  0  0  0  0  0
    6.6741   -1.5107    2.5029 H   0  0  0  0  0  0  0  0  0  0  0  0
  1  8  1  0  0  0  0
  1  9  1  0  0  0  0
  2 10  1  0  0  0  0
  2 14  1  0  0  0  0
  3 11  1  0  0  0  0
  3 15  1  0  0  0  0
  4 14  2  0  0  0  0
  5 15  2  0  0  0  0
  6 16  2  0  0  0  0
  7 17  2  0  0  0  0
  8 10  1  0  0  0  0
  8 20  1  0  0  0  0
  8 21  1  0  0  0  0
  9 11  1  0  0  0  0
  9 22  1  0  0  0  0
  9 23  1  0  0  0  0
 10 24  1  0  0  0  0
 10 25  1  0  0  0  0
 11 26  1  0  0  0  0
 11 27  1  0  0  0  0
 12 14  1  0  0  0  0
 12 16  1  0  0  0  0
 12 28  1  0  0  0  0
 12 29  1  0  0  0  0
 13 15  1  0  0  0  0
 13 17  1  0  0  0  0
 13 30  1  0  0  0  0
 13 31  1  0  0  0  0
 16 18  1  0  0  0  0
 17 19  1  0  0  0  0
 18 32  1  0  0  0  0
 18 33  1  0  0  0  0
 18 34  1  0  0  0  0
 19 35  1  0  0  0  0
 19 36  1  0  0  0  0
 19 37  1  0  0  0  0
M  END
> <PUBCHEM_COMPOUND_CID>
120032

> <PUBCHEM_CONFORMER_RMSD>
1

> <PUBCHEM_CONFORMER_DIVERSEORDER>
2
132
47
109
90
65
43
108
127
73
82
167
20
5
58
9
140
85
39
23
96
130
158
148
106
174
8
100
77
142
53
38
69
138
87
119
13
15
1
117
97
156
3
32
120
121
93
99
33
169
110
10
173
34
88
103
46
102
162
172
76
44
26
159
134
160
177
112
165
21
149
135
105
51
40
48
12
29
116
25
143
36
98
157
133
19
123
11
84
31
155
163
144
55
128
124
147
92
145
67
71
176
63
60
91
95
136
171
79
137
70
89
68
115
83
18
74
101
161
125
14
81
154
54
27
151
122
37
61
64
129
4
80
170
146
118
75
178
94
126
72
16
150
59
7
57
141
50
164
35
168
131
45
175
86
52
139
66
78
152
42
153
24
62
22
49
113
114
6
28
107
30
56
41
17
104
111
166

> <PUBCHEM_MMFF94_PARTIAL_CHARGES>
19
1 -0.46
10 0.28
11 0.28
12 0.12
13 0.12
14 0.66
15 0.66
16 0.45
17 0.45
18 0.06
19 0.06
2 -0.43
3 -0.43
4 -0.57
5 -0.57
6 -0.57
7 -0.57
8 0.23
9 0.23

> <PUBCHEM_EFFECTIVE_ROTOR_COUNT>
12

> <PUBCHEM_PHARMACOPHORE_FEATURES>
6
1 12 anion
1 13 anion
1 4 acceptor
1 5 acceptor
1 6 acceptor
1 7 acceptor

> <PUBCHEM_HEAVY_ATOM_COUNT>
19

> <PUBCHEM_ATOM_DEF_STEREO_COUNT>
0

> <PUBCHEM_ATOM_UDEF_STEREO_COUNT>
0

> <PUBCHEM_BOND_DEF_STEREO_COUNT>
0

> <PUBCHEM_BOND_UDEF_STEREO_COUNT>
0

> <PUBCHEM_ISOTOPIC_ATOM_COUNT>
0

> <PUBCHEM_COMPONENT_COUNT>
1

> <PUBCHEM_CACTVS_TAUTO_COUNT>
15

> <PUBCHEM_CONFORMER_ID>
0001D4E000000002

> <PUBCHEM_MMFF94_ENERGY>
19.6017

> <PUBCHEM_FEATURE_SELFOVERLAP>
30.462

> <PUBCHEM_SHAPE_FINGERPRINT>
10378564 45 13407068189926990912
10753850 27 18409448107189151417
11809386 21 18409731734113457929
12555020 224 17967254221622288707
12596602 18 17989204811888194680
13533116 47 18339079401518857376
13862211 1 18410576184174706691
14251751 18 18130785642267051688
14428016 204 11815897873053582819
14671636 106 18341612587032720854
15183329 4 15647048248601280553
15188451 53 18131627881153703629
15519825 34 16486392404685120479
17857418 61 18410295804499266976
20028762 73 18343864411819937054
20621476 78 18187640293243384810
20621476 91 17775280560453286432
21585483 132 18265033886300697195
21637258 2 18410569587105290820
23389318 12 17967256387108874894
3014063 24 18411695491423015574
312425 54 17059790909461712899
3472631 163 8574705815100763928
351380 3 18410295813004649573
406291 66 18411132541406927147
5104073 3 17846502551614404417
5283384 97 18113896044253095722
559249 180 18413108347523588921
5718773 13 18410851066376851847
57634706 229 11959146693501580316
59682541 52 16298932208867639595
60123966 16 15502667039610984406
7062679 6 8502654804941693167
76465 3 18410575084663793477
7970288 3 18410572889935271363
96874 4 18410565193354097799

> <PUBCHEM_SHAPE_MULTIPOLES>
359.64
20.91
2.74
1.43
0.04
0.17
0
-21.15
0.02
-0.01
0
0
-0.34
-3.5

> <PUBCHEM_SHAPE_SELFOVERLAP>
676.096

> <PUBCHEM_SHAPE_VOLUME>
222.9

> <PUBCHEM_COORDINATE_TYPE>
2
5
10

$$$$
