12016858
  -OEChem-03292013303D

 42 45  0     0  0  0  0  0  0999 V2000
   -1.9230    1.0318   -0.1764 O   0  0  0  0  0  0  0  0  0  0  0  0
   -0.4439   -2.1439   -1.3232 O   0  0  0  0  0  0  0  0  0  0  0  0
   -5.3812   -2.3135    0.4046 O   0  0  0  0  0  0  0  0  0  0  0  0
   -3.0145   -2.8759   -0.5543 O   0  0  0  0  0  0  0  0  0  0  0  0
   -6.1659    2.2164    1.5916 O   0  0  0  0  0  0  0  0  0  0  0  0
    3.7663    2.2540    1.2871 O   0  0  0  0  0  0  0  0  0  0  0  0
   -1.0524    0.0844   -0.6918 C   0  0  0  0  0  0  0  0  0  0  0  0
   -3.6148   -0.6882    0.0904 C   0  0  0  0  0  0  0  0  0  0  0  0
    0.2617    0.6465   -1.0509 C   0  0  0  0  0  0  0  0  0  0  0  0
   -3.1798    0.6310    0.1965 C   0  0  0  0  0  0  0  0  0  0  0  0
   -1.3446   -1.2209   -0.8376 C   0  0  0  0  0  0  0  0  0  0  0  0
   -2.6910   -1.7009   -0.4432 C   0  0  0  0  0  0  0  0  0  0  0  0
    1.2826    0.6984   -0.1014 C   0  0  0  0  0  0  0  0  0  0  0  0
    2.5264    1.2299   -0.4422 C   0  0  0  0  0  0  0  0  0  0  0  0
   -4.9075   -1.0391    0.4873 C   0  0  0  0  0  0  0  0  0  0  0  0
    0.4857    1.1267   -2.3416 C   0  0  0  0  0  0  0  0  0  0  0  0
   -4.0363    1.6096    0.7015 C   0  0  0  0  0  0  0  0  0  0  0  0
    2.7497    1.7098   -1.7327 C   0  0  0  0  0  0  0  0  0  0  0  0
   -5.3280    1.2634    1.0987 C   0  0  0  0  0  0  0  0  0  0  0  0
   -5.7625   -0.0584    0.9917 C   0  0  0  0  0  0  0  0  0  0  0  0
    1.7294    1.6583   -2.6825 C   0  0  0  0  0  0  0  0  0  0  0  0
    3.5914    1.2823    0.5468 C   0  0  0  0  0  0  0  0  0  0  0  0
    4.5370    0.1467    0.6941 C   0  0  0  0  0  0  0  0  0  0  0  0
    4.3792   -0.9613   -0.1127 C   0  0  0  0  0  0  0  0  0  0  0  0
    5.5435    0.2353    1.6336 C   0  0  0  0  0  0  0  0  0  0  0  0
    5.2673   -2.0280    0.0260 C   0  0  0  0  0  0  0  0  0  0  0  0
    6.4317   -0.8313    1.7722 C   0  0  0  0  0  0  0  0  0  0  0  0
    6.2935   -1.9629    0.9684 C   0  0  0  0  0  0  0  0  0  0  0  0
    1.1117    0.3252    0.9066 H   0  0  0  0  0  0  0  0  0  0  0  0
   -0.2999    1.0934   -3.0926 H   0  0  0  0  0  0  0  0  0  0  0  0
   -3.7000    2.6399    0.7860 H   0  0  0  0  0  0  0  0  0  0  0  0
    3.7149    2.1261   -2.0097 H   0  0  0  0  0  0  0  0  0  0  0  0
   -6.7691   -0.3301    1.3011 H   0  0  0  0  0  0  0  0  0  0  0  0
    1.9035    2.0319   -3.6873 H   0  0  0  0  0  0  0  0  0  0  0  0
    0.3951   -1.7050   -1.5372 H   0  0  0  0  0  0  0  0  0  0  0  0
    3.5968   -1.0564   -0.8575 H   0  0  0  0  0  0  0  0  0  0  0  0
    5.6731    1.1042    2.2715 H   0  0  0  0  0  0  0  0  0  0  0  0
   -4.7060   -2.9047    0.0380 H   0  0  0  0  0  0  0  0  0  0  0  0
    5.1602   -2.9096   -0.5994 H   0  0  0  0  0  0  0  0  0  0  0  0
    7.2308   -0.7812    2.5060 H   0  0  0  0  0  0  0  0  0  0  0  0
   -7.0170    1.8026    1.8163 H   0  0  0  0  0  0  0  0  0  0  0  0
    6.9850   -2.7934    1.0765 H   0  0  0  0  0  0  0  0  0  0  0  0
  1  7  1  0  0  0  0
  1 10  1  0  0  0  0
  2 11  1  0  0  0  0
  2 35  1  0  0  0  0
  3 15  1  0  0  0  0
  3 38  1  0  0  0  0
  4 12  2  0  0  0  0
  5 19  1  0  0  0  0
  5 41  1  0  0  0  0
  6 22  2  0  0  0  0
  7  9  1  0  0  0  0
  7 11  2  0  0  0  0
  8 10  1  0  0  0  0
  8 12  1  0  0  0  0
  8 15  2  0  0  0  0
  9 13  2  0  0  0  0
  9 16  1  0  0  0  0
 10 17  2  0  0  0  0
 11 12  1  0  0  0  0
 13 14  1  0  0  0  0
 13 29  1  0  0  0  0
 14 18  2  0  0  0  0
 14 22  1  0  0  0  0
 15 20  1  0  0  0  0
 16 21  2  0  0  0  0
 16 30  1  0  0  0  0
 17 19  1  0  0  0  0
 17 31  1  0  0  0  0
 18 21  1  0  0  0  0
 18 32  1  0  0  0  0
 19 20  2  0  0  0  0
 20 33  1  0  0  0  0
 21 34  1  0  0  0  0
 22 23  1  0  0  0  0
 23 24  2  0  0  0  0
 23 25  1  0  0  0  0
 24 26  1  0  0  0  0
 24 36  1  0  0  0  0
 25 27  2  0  0  0  0
 25 37  1  0  0  0  0
 26 28  2  0  0  0  0
 26 39  1  0  0  0  0
 27 28  1  0  0  0  0
 27 40  1  0  0  0  0
 28 42  1  0  0  0  0
M  END
> <PUBCHEM_COMPOUND_CID>
12016858

> <PUBCHEM_CONFORMER_RMSD>
0.8

> <PUBCHEM_CONFORMER_DIVERSEORDER>
2
1
5
7
6
3
8
4

> <PUBCHEM_MMFF94_PARTIAL_CHARGES>
42
1 -0.16
10 0.08
11 0.09
12 0.47
13 -0.15
14 0.09
15 0.08
16 -0.15
17 -0.15
18 -0.15
19 0.08
2 -0.53
20 -0.15
21 -0.15
22 0.4
23 0.09
24 -0.15
25 -0.15
26 -0.15
27 -0.15
28 -0.15
29 0.15
3 -0.53
30 0.15
31 0.15
32 0.15
33 0.15
34 0.15
35 0.45
36 0.15
37 0.15
38 0.45
39 0.15
4 -0.57
40 0.15
41 0.45
42 0.15
5 -0.53
6 -0.57
7 0.05
8 0.09
9 0.03

> <PUBCHEM_EFFECTIVE_ROTOR_COUNT>
3

> <PUBCHEM_PHARMACOPHORE_FEATURES>
10
1 1 acceptor
1 2 donor
1 3 donor
1 4 acceptor
1 5 donor
1 6 acceptor
6 1 7 8 10 11 12 rings
6 23 24 25 26 27 28 rings
6 8 10 15 17 19 20 rings
6 9 13 14 16 18 21 rings

> <PUBCHEM_HEAVY_ATOM_COUNT>
28

> <PUBCHEM_ATOM_DEF_STEREO_COUNT>
0

> <PUBCHEM_ATOM_UDEF_STEREO_COUNT>
0

> <PUBCHEM_BOND_DEF_STEREO_COUNT>
0

> <PUBCHEM_BOND_UDEF_STEREO_COUNT>
0

> <PUBCHEM_ISOTOPIC_ATOM_COUNT>
0

> <PUBCHEM_COMPONENT_COUNT>
1

> <PUBCHEM_CACTVS_TAUTO_COUNT>
24

> <PUBCHEM_CONFORMER_ID>
00B75CDA00000002

> <PUBCHEM_MMFF94_ENERGY>
96.5779

> <PUBCHEM_FEATURE_SELFOVERLAP>
50.776

> <PUBCHEM_SHAPE_FINGERPRINT>
10319926 262 18202290194672025510
10692045 39 18059019375792388654
10764073 3 18128537055320713982
10928967 22 16588290714125107778
11399510 152 17985256615482278018
12107183 9 18339644438520111345
12236239 1 18187366579531164101
12422481 6 18408889499094238775
12467345 10 18343018865728767458
12553582 1 16950552282090789768
12596602 18 18341891900727882568
12633257 1 18202841063457644388
12778500 126 18272373023267386888
12892183 10 18127403677875801868
13533116 47 18042125525628525125
13583140 156 17631715171573625112
13673619 4 15068345605131830109
13914758 101 17967525775820449469
14211702 104 17896889944206013539
14251732 14 11314316052803085513
14251758 9 18186516571069707733
14251764 30 16370728106321768170
14347424 109 18342170056111864304
14420673 8 18338799992627300110
14739800 52 17983578786571969616
15021287 119 17822014202923254061
15188451 53 18337666516408203151
15348495 7 18201433709642622888
16110190 28 18409162230198003502
17818456 19 18412269436413502365
1813 80 17530963579762483644
18222031 100 17168137953673296884
20567600 254 13039179313076284484
21033648 29 16558764399050781761
21365058 113 15719402715369042990
21403212 168 18338792296103220009
21792934 111 18340500976486905465
21859007 373 18117555124783203701
2260408 40 18041276686126647588
22849341 161 17821736026312738948
22950370 63 17530684278065513604
2303208 19 15068627118984805441
23522609 53 17970094225697577228
23559900 14 17702409336585674356
23569917 315 18408609171797916719
23569943 247 17605543367174881642
244849 19 17272017458518527196
2748736 6 13470398985718198666
3117164 225 18413388743571821954
312425 54 18410569591732236946
3633792 109 18265311985801391599
3680242 22 18270975612708278425
3737641 26 17751067017261980858
44317340 157 10663834004173991316
445580 182 18271793623705246610
4516262 110 17461732975679672669
46194498 28 13334745652173032982
5080951 261 16988550360771115431
5104073 3 18340490061777592193
513202 73 17386280978671276852
54039377 194 17531807932269534802
56633871 153 18262794065139763798
6058803 2 18045234983699383989
6898599 12 9727090724217596939
7918774 8 16515685528883853082
7970288 3 17168135724791109850
8863177 126 15719973421975547249
9981440 41 18201729444634027043

> <PUBCHEM_SHAPE_MULTIPOLES>
541.01
16.31
2.59
1.85
1.49
0.69
0.43
5.54
-11.07
-0.01
0.6
0.79
-0.93
-2.15

> <PUBCHEM_SHAPE_SELFOVERLAP>
1219.276

> <PUBCHEM_SHAPE_VOLUME>
282.2

> <PUBCHEM_COORDINATE_TYPE>
2
5
10

$$$$
