12049127
  -OEChem-03292013303D

 46 47  0     1  0  0  0  0  0999 V2000
   -0.6126   -2.3566    1.4945 O   0  0  0  0  0  0  0  0  0  0  0  0
    0.3905   -0.0756   -1.1685 O   0  0  0  0  0  0  0  0  0  0  0  0
   -0.8833    0.2196    2.2986 O   0  0  0  0  0  0  0  0  0  0  0  0
    1.7154   -1.2295    1.9123 O   0  0  0  0  0  0  0  0  0  0  0  0
   -1.8478   -1.5127   -1.6803 O   0  0  0  0  0  0  0  0  0  0  0  0
    1.2067   -3.4535   -0.2773 O   0  0  0  0  0  0  0  0  0  0  0  0
   -2.6446   -2.9164   -0.0870 O   0  0  0  0  0  0  0  0  0  0  0  0
    1.1045   -2.3958   -2.2819 O   0  0  0  0  0  0  0  0  0  0  0  0
   -0.8115   -1.3760    0.4598 C   0  0  2  0  0  0  0  0  0  0  0  0
    0.5710   -1.1436   -0.2459 C   0  0  2  0  0  0  0  0  0  0  0  0
   -1.3359   -0.1285    1.2076 C   0  0  0  0  0  0  0  0  0  0  0  0
    1.6652   -0.7523    0.7792 C   0  0  0  0  0  0  0  0  0  0  0  0
   -1.8678   -2.0351   -0.4244 C   0  0  0  0  0  0  0  0  0  0  0  0
    0.9808   -2.3718   -1.0646 C   0  0  0  0  0  0  0  0  0  0  0  0
   -2.4054    0.7151    0.6193 C   0  0  0  0  0  0  0  0  0  0  0  0
    2.7373    0.1982    0.4049 C   0  0  0  0  0  0  0  0  0  0  0  0
   -2.0500    1.7752   -0.1905 C   0  0  0  0  0  0  0  0  0  0  0  0
    3.2916    1.0026    1.3823 C   0  0  0  0  0  0  0  0  0  0  0  0
   -3.7233    0.4162    0.9006 C   0  0  0  0  0  0  0  0  0  0  0  0
    3.1533    0.2566   -0.9115 C   0  0  0  0  0  0  0  0  0  0  0  0
   -4.3940    2.2875   -0.4726 C   0  0  0  0  0  0  0  0  0  0  0  0
    4.7354    1.9748   -0.2933 C   0  0  0  0  0  0  0  0  0  0  0  0
   -3.0550    2.5697   -0.7422 C   0  0  0  0  0  0  0  0  0  0  0  0
    4.3002    1.8995    1.0298 C   0  0  0  0  0  0  0  0  0  0  0  0
   -4.7282    1.2107    0.3487 C   0  0  0  0  0  0  0  0  0  0  0  0
    4.1619    1.1533   -1.2639 C   0  0  0  0  0  0  0  0  0  0  0  0
   -5.4690    3.1359   -1.0633 C   0  0  0  0  0  0  0  0  0  0  0  0
    5.8146    2.9326   -0.6705 C   0  0  0  0  0  0  0  0  0  0  0  0
   -1.4593   -2.4885    1.9556 H   0  0  0  0  0  0  0  0  0  0  0  0
   -0.3353   -0.3025   -1.7730 H   0  0  0  0  0  0  0  0  0  0  0  0
   -1.0108    2.0133   -0.3936 H   0  0  0  0  0  0  0  0  0  0  0  0
    2.9591    0.9619    2.4154 H   0  0  0  0  0  0  0  0  0  0  0  0
   -3.9891   -0.4199    1.5407 H   0  0  0  0  0  0  0  0  0  0  0  0
    2.7660   -0.3893   -1.6897 H   0  0  0  0  0  0  0  0  0  0  0  0
   -2.7817    3.4087   -1.3765 H   0  0  0  0  0  0  0  0  0  0  0  0
    4.7369    2.5365    1.7944 H   0  0  0  0  0  0  0  0  0  0  0  0
   -5.7679    0.9817    0.5674 H   0  0  0  0  0  0  0  0  0  0  0  0
    4.4979    1.1981   -2.2966 H   0  0  0  0  0  0  0  0  0  0  0  0
   -2.5234   -1.9267   -2.2585 H   0  0  0  0  0  0  0  0  0  0  0  0
    1.4730   -4.2386   -0.8017 H   0  0  0  0  0  0  0  0  0  0  0  0
   -5.1585    3.5535   -2.0271 H   0  0  0  0  0  0  0  0  0  0  0  0
   -6.3777    2.5520   -1.2454 H   0  0  0  0  0  0  0  0  0  0  0  0
   -5.7116    3.9606   -0.3858 H   0  0  0  0  0  0  0  0  0  0  0  0
    6.5004    3.1053    0.1659 H   0  0  0  0  0  0  0  0  0  0  0  0
    6.4142    2.5447   -1.5010 H   0  0  0  0  0  0  0  0  0  0  0  0
    5.3785    3.8908   -0.9698 H   0  0  0  0  0  0  0  0  0  0  0  0
  1  9  1  0  0  0  0
  1 29  1  0  0  0  0
  2 10  1  0  0  0  0
  2 30  1  0  0  0  0
  3 11  2  0  0  0  0
  4 12  2  0  0  0  0
  5 13  1  0  0  0  0
  5 39  1  0  0  0  0
  6 14  1  0  0  0  0
  6 40  1  0  0  0  0
  7 13  2  0  0  0  0
  8 14  2  0  0  0  0
  9 10  1  0  0  0  0
  9 11  1  0  0  0  0
  9 13  1  0  0  0  0
 10 12  1  0  0  0  0
 10 14  1  0  0  0  0
 11 15  1  0  0  0  0
 12 16  1  0  0  0  0
 15 17  2  0  0  0  0
 15 19  1  0  0  0  0
 16 18  2  0  0  0  0
 16 20  1  0  0  0  0
 17 23  1  0  0  0  0
 17 31  1  0  0  0  0
 18 24  1  0  0  0  0
 18 32  1  0  0  0  0
 19 25  2  0  0  0  0
 19 33  1  0  0  0  0
 20 26  2  0  0  0  0
 20 34  1  0  0  0  0
 21 23  2  0  0  0  0
 21 25  1  0  0  0  0
 21 27  1  0  0  0  0
 22 24  2  0  0  0  0
 22 26  1  0  0  0  0
 22 28  1  0  0  0  0
 23 35  1  0  0  0  0
 24 36  1  0  0  0  0
 25 37  1  0  0  0  0
 26 38  1  0  0  0  0
 27 41  1  0  0  0  0
 27 42  1  0  0  0  0
 27 43  1  0  0  0  0
 28 44  1  0  0  0  0
 28 45  1  0  0  0  0
 28 46  1  0  0  0  0
M  END
> <PUBCHEM_COMPOUND_CID>
12049127

> <PUBCHEM_CONFORMER_RMSD>
0.8

> <PUBCHEM_CONFORMER_DIVERSEORDER>
4
114
67
174
34
204
47
138
157
10
156
99
85
126
93
125
105
149
39
24
66
121
16
59
164
91
158
136
189
107
106
130
19
68
140
53
123
192
17
22
92
97
137
179
83
113
197
185
177
175
120
141
155
188
9
168
200
116
183
173
41
119
101
186
165
153
198
43
51
57
50
108
77
44
45
199
11
111
143
95
117
202
15
27
70
96
104
29
161
80
169
86
61
148
151
127
37
84
180
48
78
194
135
71
147
172
109
187
171
58
88
110
195
139
191
152
42
150
38
40
205
128
159
162
154
124
49
52
55
1
65
98
62
132
163
144
60
75
90
170
72
73
14
13
181
94
122
30
190
7
182
18
133
206
167
146
184
2
33
26
82
102
112
131
56
166
196
28
87
178
63
35
118
201
160
32
20
145
193
81
129
203
115
89
79
31
12
36
21
23
100
176
46
76
134
74
103
25
5
54
8
6
64
3
69
142

> <PUBCHEM_MMFF94_PARTIAL_CHARGES>
40
1 -0.68
10 0.4
11 0.42
12 0.42
13 0.66
14 0.66
15 0.09
16 0.09
17 -0.15
18 -0.15
19 -0.15
2 -0.68
20 -0.15
21 -0.14
22 -0.14
23 -0.15
24 -0.15
25 -0.15
26 -0.15
27 0.14
28 0.14
29 0.4
3 -0.57
30 0.4
31 0.15
32 0.15
33 0.15
34 0.15
35 0.15
36 0.15
37 0.15
38 0.15
39 0.5
4 -0.57
40 0.5
5 -0.65
6 -0.65
7 -0.57
8 -0.57
9 0.4

> <PUBCHEM_EFFECTIVE_ROTOR_COUNT>
7

> <PUBCHEM_PHARMACOPHORE_FEATURES>
14
1 1 acceptor
1 1 donor
1 2 acceptor
1 2 donor
1 3 acceptor
1 4 acceptor
1 5 acceptor
1 6 acceptor
1 7 acceptor
1 8 acceptor
3 5 7 13 anion
3 6 8 14 anion
6 15 17 19 21 23 25 rings
6 16 18 20 22 24 26 rings

> <PUBCHEM_HEAVY_ATOM_COUNT>
28

> <PUBCHEM_ATOM_DEF_STEREO_COUNT>
0

> <PUBCHEM_ATOM_UDEF_STEREO_COUNT>
2

> <PUBCHEM_BOND_DEF_STEREO_COUNT>
0

> <PUBCHEM_BOND_UDEF_STEREO_COUNT>
0

> <PUBCHEM_ISOTOPIC_ATOM_COUNT>
0

> <PUBCHEM_COMPONENT_COUNT>
1

> <PUBCHEM_CACTVS_TAUTO_COUNT>
1

> <PUBCHEM_CONFORMER_ID>
00B7DAE700000004

> <PUBCHEM_MMFF94_ENERGY>
80.9032

> <PUBCHEM_FEATURE_SELFOVERLAP>
71.215

> <PUBCHEM_SHAPE_FINGERPRINT>
10498660 4 18272653471652188672
105312 117 18412825806551230052
10871710 139 18193555790291606717
10948715 1 18334859389770158371
11578080 2 17915206622360280471
11961588 58 18271516576581406801
12403259 415 18336842908757351961
12633257 1 14924234858184358188
12760667 363 8935006949360449409
12788726 201 18044930418403821250
13134695 92 17251735764048092851
13383661 66 15264505235768920437
133893 2 17842579352418568946
13583140 156 18044667395070993779
13965767 371 17968370157052088780
14142880 1 18188202233858340732
14251764 30 12319157586571740541
14251764 38 18118964681167355253
14468879 13 18334584529153918593
14713325 29 18266743656782460487
15163728 17 18410015446414325302
15575132 122 18265898136450863597
15849732 13 18198610048646935266
17980427 23 17838573883130090466
20715895 44 17901373503647978925
20775530 9 10374998896606793733
21304303 282 17627754769471948862
21756936 100 18042407005691727984
22149856 69 17827104844078676089
23227448 37 18338797917952010637
23559900 14 18050284769901759451
238 59 17986676960950344556
2838139 119 18334852814291753364
3298306 158 18410289181802706021
3388396 114 16680918272576217548
34797466 226 18196369226843706397
4371632 12 14474122419045051912
44802255 64 18055933210821822084
469060 322 18121515801810292355
508706 21 18049999188973685664
57527293 21 18411427181328488043
58260988 393 18114464582291148659
6327066 14 18408038519976052012
7288768 16 17313104185044592488
7808743 9 18335701688950396232
7970288 3 10087645896643470676
9981440 41 18335702775371192978

> <PUBCHEM_SHAPE_MULTIPOLES>
529.27
10.21
3.85
1.67
1.98
0.75
-0.13
-13.41
1.55
-0.93
1.32
0.44
0.5
0.67

> <PUBCHEM_SHAPE_SELFOVERLAP>
1147.922

> <PUBCHEM_SHAPE_VOLUME>
287.4

> <PUBCHEM_COORDINATE_TYPE>
2
5
10

$$$$
