12049295
  -OEChem-03292013303D

 23 24  0     0  0  0  0  0  0999 V2000
    1.7112    0.1526   -1.2987 S   0  0  0  0  0  0  0  0  0  0  0  0
   -3.7638   -1.4900    0.6465 F   0  0  0  0  0  0  0  0  0  0  0  0
    2.3583   -1.0428   -1.8282 O   0  0  0  0  0  0  0  0  0  0  0  0
    1.5855    1.3320   -2.1470 O   0  0  0  0  0  0  0  0  0  0  0  0
   -1.9347    2.4052    0.4176 O   0  0  0  0  0  0  0  0  0  0  0  0
    2.3469   -1.4270    1.3179 O   0  0  0  0  0  0  0  0  0  0  0  0
    2.5024    0.6068    0.1542 N   0  0  0  0  0  0  0  0  0  0  0  0
   -0.7253    1.9867   -0.1101 N   0  0  0  0  0  0  0  0  0  0  0  0
   -2.8015    1.3457    0.6244 N   0  0  0  0  0  0  0  0  0  0  0  0
    0.1217   -0.2649   -0.7265 C   0  0  0  0  0  0  0  0  0  0  0  0
   -0.8224    0.6576   -0.2395 C   0  0  0  0  0  0  0  0  0  0  0  0
   -2.1421    0.2501    0.2273 C   0  0  0  0  0  0  0  0  0  0  0  0
   -0.3169   -1.6015   -0.7228 C   0  0  0  0  0  0  0  0  0  0  0  0
   -2.5607   -1.0932    0.2224 C   0  0  0  0  0  0  0  0  0  0  0  0
   -1.6021   -1.9983   -0.2681 C   0  0  0  0  0  0  0  0  0  0  0  0
    2.6897   -0.2505    1.2845 C   0  0  0  0  0  0  0  0  0  0  0  0
    3.3538    0.4315    2.4462 C   0  0  0  0  0  0  0  0  0  0  0  0
    0.3430   -2.3912   -1.0790 H   0  0  0  0  0  0  0  0  0  0  0  0
    2.7623    1.5974    0.2474 H   0  0  0  0  0  0  0  0  0  0  0  0
   -1.8571   -3.0567   -0.3004 H   0  0  0  0  0  0  0  0  0  0  0  0
    2.7349    1.2659    2.7865 H   0  0  0  0  0  0  0  0  0  0  0  0
    3.4771   -0.2779    3.2692 H   0  0  0  0  0  0  0  0  0  0  0  0
    4.3381    0.7996    2.1449 H   0  0  0  0  0  0  0  0  0  0  0  0
  1  3  2  0  0  0  0
  1  4  2  0  0  0  0
  1  7  1  0  0  0  0
  1 10  1  0  0  0  0
  2 14  1  0  0  0  0
  5  8  1  0  0  0  0
  5  9  1  0  0  0  0
  6 16  2  0  0  0  0
  7 16  1  0  0  0  0
  7 19  1  0  0  0  0
  8 11  2  0  0  0  0
  9 12  2  0  0  0  0
 10 11  1  0  0  0  0
 10 13  2  0  0  0  0
 11 12  1  0  0  0  0
 12 14  1  0  0  0  0
 13 15  1  0  0  0  0
 13 18  1  0  0  0  0
 14 15  2  0  0  0  0
 15 20  1  0  0  0  0
 16 17  1  0  0  0  0
 17 21  1  0  0  0  0
 17 22  1  0  0  0  0
 17 23  1  0  0  0  0
M  END
> <PUBCHEM_COMPOUND_CID>
12049295

> <PUBCHEM_CONFORMER_RMSD>
0.6

> <PUBCHEM_CONFORMER_DIVERSEORDER>
1
16
20
11
3
9
6
21
24
19
27
26
22
14
13
18
8
7
4
25
10
5
17
12
15
23
2

> <PUBCHEM_MMFF94_PARTIAL_CHARGES>
20
1 1.45
10 -0.01
11 0.29
12 0.29
13 -0.15
14 0.19
15 -0.15
16 0.75
17 0.06
18 0.15
19 0.42
2 -0.19
20 0.15
3 -0.65
4 -0.65
5 0.24
6 -0.57
7 -0.79
8 -0.41
9 -0.41

> <PUBCHEM_EFFECTIVE_ROTOR_COUNT>
3

> <PUBCHEM_PHARMACOPHORE_FEATURES>
8
1 3 acceptor
1 4 acceptor
1 6 acceptor
1 7 donor
1 8 acceptor
1 9 acceptor
5 5 8 9 11 12 rings
6 10 11 12 13 14 15 rings

> <PUBCHEM_HEAVY_ATOM_COUNT>
17

> <PUBCHEM_ATOM_DEF_STEREO_COUNT>
0

> <PUBCHEM_ATOM_UDEF_STEREO_COUNT>
0

> <PUBCHEM_BOND_DEF_STEREO_COUNT>
0

> <PUBCHEM_BOND_UDEF_STEREO_COUNT>
0

> <PUBCHEM_ISOTOPIC_ATOM_COUNT>
0

> <PUBCHEM_COMPONENT_COUNT>
1

> <PUBCHEM_CACTVS_TAUTO_COUNT>
2

> <PUBCHEM_CONFORMER_ID>
00B7DB8F00000001

> <PUBCHEM_MMFF94_ENERGY>
21.4718

> <PUBCHEM_FEATURE_SELFOVERLAP>
40.79

> <PUBCHEM_SHAPE_FINGERPRINT>
11221954 11 17059769992934383680
11680611 10 18113626672230117093
12423570 1 11965972452300235661
13538477 17 18187938260936586623
13898156 1 18186810192060736086
14787075 74 16599603816664445831
14817 1 8140691037582251974
15219456 202 17560803212658918446
15375462 189 17825959392488405059
15852999 172 18048860910843891157
16945 1 18200324345607808839
17804303 29 18198345052900667214
18981168 100 17131562617543979939
19049666 15 17630616626039021658
19765921 60 17103141629092798380
19786989 88 15626223519845741126
20361792 2 16153979133018127890
20388701 513 18343015627312681315
20511035 2 18054798277802319927
20559304 39 18261115209367191038
21486144 27 16343715355989935583
21731516 1 16154263889360389282
21947302 44 16702017526675387090
22112679 90 18040721342248402116
22445834 79 18113892762882075306
23419403 2 17545550929034523157
23526113 38 17200528307838934574
23557571 272 18201438120669227567
23559900 14 18272100344056410244
25610 171 18272370884093929097
27216 239 17128985521423744264
2748010 2 18198361580092701319
31174 14 16773529810058917526
3286 77 16844751749590269327
4072396 5 18408881837658644019
77492 1 17822017514052473100
81228 2 18343310288102754267

> <PUBCHEM_SHAPE_MULTIPOLES>
308.01
5.2
2.07
1.8
0.34
0.39
-0.13
-0.15
2.88
-1.4
-0.04
2.31
0.1
0.39

> <PUBCHEM_SHAPE_SELFOVERLAP>
642.153

> <PUBCHEM_SHAPE_VOLUME>
175.4

> <PUBCHEM_COORDINATE_TYPE>
2
5
10

$$$$
