120693
  -OEChem-03292013323D

 30 30  0     1  0  0  0  0  0999 V2000
   -0.9457   -0.5824    1.5988 O   0  0  0  0  0  0  0  0  0  0  0  0
   -1.4827    0.9511   -1.6843 O   0  0  0  0  0  0  0  0  0  0  0  0
   -2.6335   -1.5195   -1.4620 O   0  0  0  0  0  0  0  0  0  0  0  0
   -3.1699   -1.8255    0.7166 O   0  0  0  0  0  0  0  0  0  0  0  0
   -2.2318    1.7440    1.7129 O   0  0  0  0  0  0  0  0  0  0  0  0
   -3.3568    2.1477   -0.2197 O   0  0  0  0  0  0  0  0  0  0  0  0
    5.1426    0.9134    0.2504 O   0  0  0  0  0  0  0  0  0  0  0  0
   -1.1443   -0.5656    0.1863 C   0  0  2  0  0  0  0  0  0  0  0  0
    0.0236   -1.3482   -0.4651 C   0  0  0  0  0  0  0  0  0  0  0  0
   -1.2558    0.9046   -0.2802 C   0  0  2  0  0  0  0  0  0  0  0  0
    1.3956   -0.7416   -0.2731 C   0  0  0  0  0  0  0  0  0  0  0  0
   -2.4229   -1.3521   -0.1314 C   0  0  0  0  0  0  0  0  0  0  0  0
   -2.3950    1.6732    0.3681 C   0  0  0  0  0  0  0  0  0  0  0  0
    1.8700    0.1664   -1.2040 C   0  0  0  0  0  0  0  0  0  0  0  0
    2.1485   -1.1082    0.8294 C   0  0  0  0  0  0  0  0  0  0  0  0
    3.1358    0.7251   -1.0271 C   0  0  0  0  0  0  0  0  0  0  0  0
    3.4143   -0.5495    1.0063 C   0  0  0  0  0  0  0  0  0  0  0  0
    3.9080    0.3671    0.0781 C   0  0  0  0  0  0  0  0  0  0  0  0
   -0.1432   -1.4707   -1.5441 H   0  0  0  0  0  0  0  0  0  0  0  0
    0.0455   -2.3740   -0.0685 H   0  0  0  0  0  0  0  0  0  0  0  0
   -0.3419    1.4662   -0.0571 H   0  0  0  0  0  0  0  0  0  0  0  0
   -0.8260   -1.5060    1.8787 H   0  0  0  0  0  0  0  0  0  0  0  0
    1.2812    0.4481   -2.0718 H   0  0  0  0  0  0  0  0  0  0  0  0
    1.7736   -1.8214    1.5576 H   0  0  0  0  0  0  0  0  0  0  0  0
   -1.3975    1.8784   -1.9649 H   0  0  0  0  0  0  0  0  0  0  0  0
    3.5094    1.4371   -1.7581 H   0  0  0  0  0  0  0  0  0  0  0  0
    4.0110   -0.8321    1.8693 H   0  0  0  0  0  0  0  0  0  0  0  0
   -3.4440   -2.0421   -1.6412 H   0  0  0  0  0  0  0  0  0  0  0  0
   -2.9689    2.2247    2.1463 H   0  0  0  0  0  0  0  0  0  0  0  0
    5.3218    1.5252   -0.4843 H   0  0  0  0  0  0  0  0  0  0  0  0
  1  8  1  0  0  0  0
  1 22  1  0  0  0  0
  2 10  1  0  0  0  0
  2 25  1  0  0  0  0
  3 12  1  0  0  0  0
  3 28  1  0  0  0  0
  4 12  2  0  0  0  0
  5 13  1  0  0  0  0
  5 29  1  0  0  0  0
  6 13  2  0  0  0  0
  7 18  1  0  0  0  0
  7 30  1  0  0  0  0
  8  9  1  0  0  0  0
  8 10  1  0  0  0  0
  8 12  1  0  0  0  0
  9 11  1  0  0  0  0
  9 19  1  0  0  0  0
  9 20  1  0  0  0  0
 10 13  1  0  0  0  0
 10 21  1  0  0  0  0
 11 14  2  0  0  0  0
 11 15  1  0  0  0  0
 14 16  1  0  0  0  0
 14 23  1  0  0  0  0
 15 17  2  0  0  0  0
 15 24  1  0  0  0  0
 16 18  2  0  0  0  0
 16 26  1  0  0  0  0
 17 18  1  0  0  0  0
 17 27  1  0  0  0  0
M  END
> <PUBCHEM_COMPOUND_CID>
120693

> <PUBCHEM_CONFORMER_RMSD>
0.6

> <PUBCHEM_CONFORMER_DIVERSEORDER>
4
37
13
3
61
39
50
52
32
31
49
27
55
11
23
51
57
24
29
15
36
43
41
45
12
46
42
9
18
58
53
30
48
56
60
38
7
21
17
28
26
6
35
40
54
14
22
5
44
8
33
47
16
2
34
59
10
20
25
1
19

> <PUBCHEM_MMFF94_PARTIAL_CHARGES>
27
1 -0.68
10 0.34
11 -0.14
12 0.66
13 0.66
14 -0.15
15 -0.15
16 -0.15
17 -0.15
18 0.08
2 -0.68
22 0.4
23 0.15
24 0.15
25 0.4
26 0.15
27 0.15
28 0.5
29 0.5
3 -0.65
30 0.45
4 -0.57
5 -0.65
6 -0.57
7 -0.53
8 0.34
9 0.14

> <PUBCHEM_EFFECTIVE_ROTOR_COUNT>
5

> <PUBCHEM_PHARMACOPHORE_FEATURES>
12
1 1 acceptor
1 1 donor
1 2 acceptor
1 2 donor
1 3 acceptor
1 4 acceptor
1 5 acceptor
1 6 acceptor
1 7 donor
3 3 4 12 anion
3 5 6 13 anion
6 11 14 15 16 17 18 rings

> <PUBCHEM_HEAVY_ATOM_COUNT>
18

> <PUBCHEM_ATOM_DEF_STEREO_COUNT>
0

> <PUBCHEM_ATOM_UDEF_STEREO_COUNT>
2

> <PUBCHEM_BOND_DEF_STEREO_COUNT>
0

> <PUBCHEM_BOND_UDEF_STEREO_COUNT>
0

> <PUBCHEM_ISOTOPIC_ATOM_COUNT>
0

> <PUBCHEM_COMPONENT_COUNT>
1

> <PUBCHEM_CACTVS_TAUTO_COUNT>
2

> <PUBCHEM_CONFORMER_ID>
0001D77500000004

> <PUBCHEM_MMFF94_ENERGY>
35.6177

> <PUBCHEM_FEATURE_SELFOVERLAP>
61.045

> <PUBCHEM_SHAPE_FINGERPRINT>
10646746 165 18343582945622492992
11132069 177 18261118443366834301
11640471 11 18337675213421474664
12173636 292 18130230346098189437
12251169 10 17749395832200946940
12932764 1 16559027186466499550
13296909 8 18411983572038250524
13583140 156 16844423009084294746
13764800 53 18059581247840491385
14142880 1 18335416855287921069
14144814 61 17894344484650842294
14289901 80 18202560705109218086
14614273 12 18334573512710393343
15775835 57 18334295331920948256
16945 1 18271806886200519391
1741750 31 18129385903882686801
18981168 100 17845111591958023526
200 152 18041833034050553647
20510252 161 18343869934709516378
20525323 117 18410572885787828367
20671657 1 18052546460724427526
21501502 16 18186802469804548110
21524375 3 18053943944567057057
22802520 49 17130448799627956460
2306618 200 17821719555228631589
23402539 116 18263356048350906327
23419403 2 17975668887167962997
23557571 272 17988643029543345998
23559900 14 17916587523730247934
312423 11 18187655708371808798
3268164 11 18060135483252450294
465052 167 8357382978464386329
5104073 3 18333723607871321680

> <PUBCHEM_SHAPE_MULTIPOLES>
329.35
7.19
1.91
1.37
5.89
0.27
0.02
1.77
0.72
-2.07
0.14
-0.36
0.1
-0.64

> <PUBCHEM_SHAPE_SELFOVERLAP>
691.199

> <PUBCHEM_SHAPE_VOLUME>
184.2

> <PUBCHEM_COORDINATE_TYPE>
2
5
10

$$$$
