12067616
  -OEChem-03292013303D

 68 70  0     1  0  0  0  0  0999 V2000
   -2.7242    2.0038   -2.4589 O   0  0  0  0  0  0  0  0  0  0  0  0
   -3.6737   -1.2443    1.8686 O   0  0  0  0  0  0  0  0  0  0  0  0
    0.0669    0.1381    0.8754 O   0  0  0  0  0  0  0  0  0  0  0  0
    1.0063   -2.7991   -2.2614 O   0  0  0  0  0  0  0  0  0  0  0  0
   -2.9078   -4.0866    0.5308 O   0  0  0  0  0  0  0  0  0  0  0  0
    7.4647    1.9517    0.3760 O   0  0  0  0  0  0  0  0  0  0  0  0
   -3.9999    0.6803    0.6462 N   0  0  0  0  0  0  0  0  0  0  0  0
   -1.7049    1.7132   -0.3999 N   0  0  0  0  0  0  0  0  0  0  0  0
    1.3100    0.0295   -1.0872 N   0  0  0  0  0  0  0  0  0  0  0  0
   -2.2273   -2.1034   -0.4391 N   0  0  0  0  0  0  0  0  0  0  0  0
    0.3883   -2.8067   -0.0295 N   0  0  0  0  0  0  0  0  0  0  0  0
   -4.1347    1.4584   -0.5895 C   0  0  1  0  0  0  0  0  0  0  0  0
   -4.7848    2.7699   -0.1428 C   0  0  0  0  0  0  0  0  0  0  0  0
   -4.3293    2.9284    1.3032 C   0  0  0  0  0  0  0  0  0  0  0  0
   -4.3015    1.4985    1.8152 C   0  0  0  0  0  0  0  0  0  0  0  0
   -2.7850    1.7191   -1.2629 C   0  0  0  0  0  0  0  0  0  0  0  0
   -0.3193    1.8011   -0.8297 C   0  0  1  0  0  0  0  0  0  0  0  0
   -3.7462   -0.6775    0.7736 C   0  0  0  0  0  0  0  0  0  0  0  0
    0.3403    3.0690   -0.3157 C   0  0  0  0  0  0  0  0  0  0  0  0
   -3.5306   -1.4699   -0.5038 C   0  0  0  0  0  0  0  0  0  0  0  0
    0.3542    0.5691   -0.2399 C   0  0  0  0  0  0  0  0  0  0  0  0
    2.0596   -1.1916   -0.8250 C   0  0  1  0  0  0  0  0  0  0  0  0
   -0.3115    4.3052   -0.9337 C   0  0  0  0  0  0  0  0  0  0  0  0
    0.2704    3.1338    1.2094 C   0  0  0  0  0  0  0  0  0  0  0  0
    2.8006   -1.2203    0.5049 C   0  0  0  0  0  0  0  0  0  0  0  0
   -0.5850   -3.8894   -0.1063 C   0  0  2  0  0  0  0  0  0  0  0  0
    1.1310   -2.3683   -1.1136 C   0  0  0  0  0  0  0  0  0  0  0  0
   -2.0122   -3.3672    0.0869 C   0  0  0  0  0  0  0  0  0  0  0  0
    4.0455   -0.3736    0.4702 C   0  0  0  0  0  0  0  0  0  0  0  0
   -0.2438   -4.9682    0.9139 C   0  0  0  0  0  0  0  0  0  0  0  0
    5.2484   -0.9436    0.0789 C   0  0  0  0  0  0  0  0  0  0  0  0
    3.9711    0.9643    0.8307 C   0  0  0  0  0  0  0  0  0  0  0  0
    6.4014   -0.1592    0.0476 C   0  0  0  0  0  0  0  0  0  0  0  0
    5.1241    1.7486    0.7994 C   0  0  0  0  0  0  0  0  0  0  0  0
    6.3393    1.1869    0.4079 C   0  0  0  0  0  0  0  0  0  0  0  0
   -4.7748    0.9210   -1.2971 H   0  0  0  0  0  0  0  0  0  0  0  0
   -5.8768    2.6667   -0.1677 H   0  0  0  0  0  0  0  0  0  0  0  0
   -4.5100    3.6312   -0.7593 H   0  0  0  0  0  0  0  0  0  0  0  0
   -3.3243    3.3641    1.3342 H   0  0  0  0  0  0  0  0  0  0  0  0
   -4.9924    3.5706    1.8897 H   0  0  0  0  0  0  0  0  0  0  0  0
   -3.5569    1.3399    2.6012 H   0  0  0  0  0  0  0  0  0  0  0  0
   -5.2824    1.1895    2.1935 H   0  0  0  0  0  0  0  0  0  0  0  0
   -0.2803    1.7587   -1.9243 H   0  0  0  0  0  0  0  0  0  0  0  0
   -1.8786    1.5085    0.5794 H   0  0  0  0  0  0  0  0  0  0  0  0
    1.3993    3.0638   -0.6052 H   0  0  0  0  0  0  0  0  0  0  0  0
   -4.3147   -2.2307   -0.5722 H   0  0  0  0  0  0  0  0  0  0  0  0
   -3.5493   -0.8727   -1.4131 H   0  0  0  0  0  0  0  0  0  0  0  0
    2.8094   -1.2363   -1.6284 H   0  0  0  0  0  0  0  0  0  0  0  0
   -1.3547    4.4200   -0.6207 H   0  0  0  0  0  0  0  0  0  0  0  0
    0.2244    5.2116   -0.6315 H   0  0  0  0  0  0  0  0  0  0  0  0
   -0.2860    4.2550   -2.0273 H   0  0  0  0  0  0  0  0  0  0  0  0
   -0.7551    3.1221    1.5905 H   0  0  0  0  0  0  0  0  0  0  0  0
    0.7225    4.0702    1.5581 H   0  0  0  0  0  0  0  0  0  0  0  0
    0.8328    2.3310    1.6923 H   0  0  0  0  0  0  0  0  0  0  0  0
    1.4829    0.4874   -1.9774 H   0  0  0  0  0  0  0  0  0  0  0  0
    3.0932   -2.2534    0.7389 H   0  0  0  0  0  0  0  0  0  0  0  0
    2.1782   -0.9125    1.3516 H   0  0  0  0  0  0  0  0  0  0  0  0
   -1.4370   -1.5840   -0.8077 H   0  0  0  0  0  0  0  0  0  0  0  0
   -0.5477   -4.3283   -1.1103 H   0  0  0  0  0  0  0  0  0  0  0  0
    0.4751   -2.3241    0.8593 H   0  0  0  0  0  0  0  0  0  0  0  0
   -0.9262   -5.8208    0.8324 H   0  0  0  0  0  0  0  0  0  0  0  0
    0.7775   -5.3357    0.7663 H   0  0  0  0  0  0  0  0  0  0  0  0
   -0.3149   -4.5809    1.9367 H   0  0  0  0  0  0  0  0  0  0  0  0
    5.3073   -1.9903   -0.2057 H   0  0  0  0  0  0  0  0  0  0  0  0
    3.0326    1.4116    1.1415 H   0  0  0  0  0  0  0  0  0  0  0  0
    7.3418   -0.6088   -0.2601 H   0  0  0  0  0  0  0  0  0  0  0  0
    5.0693    2.7965    1.0817 H   0  0  0  0  0  0  0  0  0  0  0  0
    8.2114    1.4018    0.0825 H   0  0  0  0  0  0  0  0  0  0  0  0
  1 16  2  0  0  0  0
  2 18  2  0  0  0  0
  3 21  2  0  0  0  0
  4 27  2  0  0  0  0
  5 28  2  0  0  0  0
  6 35  1  0  0  0  0
  6 68  1  0  0  0  0
  7 12  1  0  0  0  0
  7 15  1  0  0  0  0
  7 18  1  0  0  0  0
  8 16  1  0  0  0  0
  8 17  1  0  0  0  0
  8 44  1  0  0  0  0
  9 21  1  0  0  0  0
  9 22  1  0  0  0  0
  9 55  1  0  0  0  0
 10 20  1  0  0  0  0
 10 28  1  0  0  0  0
 10 58  1  0  0  0  0
 11 26  1  0  0  0  0
 11 27  1  0  0  0  0
 11 60  1  0  0  0  0
 12 13  1  0  0  0  0
 12 16  1  0  0  0  0
 12 36  1  0  0  0  0
 13 14  1  0  0  0  0
 13 37  1  0  0  0  0
 13 38  1  0  0  0  0
 14 15  1  0  0  0  0
 14 39  1  0  0  0  0
 14 40  1  0  0  0  0
 15 41  1  0  0  0  0
 15 42  1  0  0  0  0
 17 19  1  0  0  0  0
 17 21  1  0  0  0  0
 17 43  1  0  0  0  0
 18 20  1  0  0  0  0
 19 23  1  0  0  0  0
 19 24  1  0  0  0  0
 19 45  1  0  0  0  0
 20 46  1  0  0  0  0
 20 47  1  0  0  0  0
 22 25  1  0  0  0  0
 22 27  1  0  0  0  0
 22 48  1  0  0  0  0
 23 49  1  0  0  0  0
 23 50  1  0  0  0  0
 23 51  1  0  0  0  0
 24 52  1  0  0  0  0
 24 53  1  0  0  0  0
 24 54  1  0  0  0  0
 25 29  1  0  0  0  0
 25 56  1  0  0  0  0
 25 57  1  0  0  0  0
 26 28  1  0  0  0  0
 26 30  1  0  0  0  0
 26 59  1  0  0  0  0
 29 31  2  0  0  0  0
 29 32  1  0  0  0  0
 30 61  1  0  0  0  0
 30 62  1  0  0  0  0
 30 63  1  0  0  0  0
 31 33  1  0  0  0  0
 31 64  1  0  0  0  0
 32 34  2  0  0  0  0
 32 65  1  0  0  0  0
 33 35  2  0  0  0  0
 33 66  1  0  0  0  0
 34 35  1  0  0  0  0
 34 67  1  0  0  0  0
M  END
> <PUBCHEM_COMPOUND_CID>
12067616

> <PUBCHEM_CONFORMER_RMSD>
0.8

> <PUBCHEM_CONFORMER_DIVERSEORDER>
1
37
44
108
43
85
23
78
109
45
65
27
92
100
71
77
62
99
6
32
111
103
55
38
91
40
61
54
47
4
84
81
12
31
58
35
24
80
110
68
94
76
14
59
74
105
56
97
9
60
69
87
106
93
15
104
18
50
19
88
101
53
26
70
33
112
86
29
95
48
22
25
39
90
98
75
30
96
89
72
17
5
52
67
66
57
73
34
107
51
63
64
20
79
28
82
83
102
36
41
49
16
11
21
46
3
8
42
2
13
10
7

> <PUBCHEM_MMFF94_PARTIAL_CHARGES>
38
1 -0.57
10 -0.73
11 -0.73
12 0.36
15 0.3
16 0.57
17 0.36
18 0.57
2 -0.57
20 0.36
21 0.57
22 0.36
25 0.14
26 0.36
27 0.57
28 0.57
29 -0.14
3 -0.57
31 -0.15
32 -0.15
33 -0.15
34 -0.15
35 0.08
4 -0.57
44 0.37
5 -0.57
55 0.37
58 0.37
6 -0.53
60 0.37
64 0.15
65 0.15
66 0.15
67 0.15
68 0.45
7 -0.66
8 -0.73
9 -0.73

> <PUBCHEM_EFFECTIVE_ROTOR_COUNT>
5.2

> <PUBCHEM_PHARMACOPHORE_FEATURES>
13
1 1 acceptor
1 10 donor
1 11 donor
1 2 acceptor
1 3 acceptor
1 4 acceptor
1 5 acceptor
1 6 donor
1 8 donor
1 9 donor
3 19 23 24 hydrophobe
5 7 12 13 14 15 rings
6 29 31 32 33 34 35 rings

> <PUBCHEM_HEAVY_ATOM_COUNT>
35

> <PUBCHEM_ATOM_DEF_STEREO_COUNT>
4

> <PUBCHEM_ATOM_UDEF_STEREO_COUNT>
0

> <PUBCHEM_BOND_DEF_STEREO_COUNT>
0

> <PUBCHEM_BOND_UDEF_STEREO_COUNT>
0

> <PUBCHEM_ISOTOPIC_ATOM_COUNT>
0

> <PUBCHEM_COMPONENT_COUNT>
1

> <PUBCHEM_CACTVS_TAUTO_COUNT>
32

> <PUBCHEM_CONFORMER_ID>
00B8232000000001

> <PUBCHEM_MMFF94_ENERGY>
95.4843

> <PUBCHEM_FEATURE_SELFOVERLAP>
65.98

> <PUBCHEM_SHAPE_FINGERPRINT>
10074138 170 18265590226440985554
10290309 65 18263358088734165188
10675989 125 17325188646968786805
10864689 126 18338518513529533212
11014199 57 17759804041087484562
11135609 187 18264757780528452853
12422481 6 18261399931529166340
12788726 201 18115573985492507506
13140716 1 18193843635243283587
13402501 40 18411979156743174841
13911987 19 18262785272935482157
14068700 675 17985811843516692399
14415360 78 18337375077203045917
14725015 67 18265894851413273155
14765038 42 18271818877838763969
14790565 3 18411140221124625816
14840074 17 18341327812703813516
15183329 4 12607407681039347412
21236236 1 18341889731658789974
23559900 14 17544181684712179276
392239 28 18268991986151313682
469060 322 17095789019456214534
50150288 127 16413241702414728633
5047190 48 18410863135367251308
56638632 10 18131357397494572841

> <PUBCHEM_SHAPE_MULTIPOLES>
660.16
12.37
5.87
1.48
18.14
4.41
0.26
-7.94
-3.59
-3.8
-0.1
-1.22
-0.27
0.99

> <PUBCHEM_SHAPE_SELFOVERLAP>
1379.258

> <PUBCHEM_SHAPE_VOLUME>
371.2

> <PUBCHEM_COORDINATE_TYPE>
2
5
10

$$$$
