120639
  -OEChem-03292013323D

 38 39  0     1  0  0  0  0  0999 V2000
    0.8917    0.6118    0.2570 O   0  0  0  0  0  0  0  0  0  0  0  0
   -0.3664   -1.3271   -0.0619 O   0  0  0  0  0  0  0  0  0  0  0  0
    4.1787   -1.0697   -1.5418 O   0  0  0  0  0  0  0  0  0  0  0  0
    4.4870    1.2917    0.0966 O   0  0  0  0  0  0  0  0  0  0  0  0
    2.0235   -2.7810   -0.4897 O   0  0  0  0  0  0  0  0  0  0  0  0
    0.9227    3.0154    1.5903 O   0  0  0  0  0  0  0  0  0  0  0  0
   -2.5302   -2.8605    2.0516 N   0  0  0  0  0  0  0  0  0  0  0  0
    3.3224   -0.7479   -0.4447 C   0  0  1  0  0  0  0  0  0  0  0  0
    3.2341    0.7751   -0.3446 C   0  0  1  0  0  0  0  0  0  0  0  0
    1.9443   -1.3680   -0.6756 C   0  0  2  0  0  0  0  0  0  0  0  0
    2.1396    1.1921    0.6405 C   0  0  1  0  0  0  0  0  0  0  0  0
    0.9130   -0.8129    0.3067 C   0  0  1  0  0  0  0  0  0  0  0  0
    1.9532    2.7058    0.6699 C   0  0  0  0  0  0  0  0  0  0  0  0
   -1.3837   -0.8487    0.8041 C   0  0  1  0  0  0  0  0  0  0  0  0
   -2.3775   -0.0393    0.0039 C   0  0  0  0  0  0  0  0  0  0  0  0
   -2.0258   -1.9728    1.4999 C   0  0  0  0  0  0  0  0  0  0  0  0
   -2.6260   -0.3825   -1.3150 C   0  0  0  0  0  0  0  0  0  0  0  0
   -3.0206    1.0305    0.6045 C   0  0  0  0  0  0  0  0  0  0  0  0
   -3.5432    0.3649   -2.0539 C   0  0  0  0  0  0  0  0  0  0  0  0
   -3.9378    1.7779   -0.1343 C   0  0  0  0  0  0  0  0  0  0  0  0
   -4.1990    1.4452   -1.4635 C   0  0  0  0  0  0  0  0  0  0  0  0
    3.7922   -1.1743    0.4502 H   0  0  0  0  0  0  0  0  0  0  0  0
    3.0382    1.1948   -1.3390 H   0  0  0  0  0  0  0  0  0  0  0  0
    1.6212   -1.2020   -1.7102 H   0  0  0  0  0  0  0  0  0  0  0  0
    2.3790    0.8601    1.6600 H   0  0  0  0  0  0  0  0  0  0  0  0
    1.1361   -1.1509    1.3285 H   0  0  0  0  0  0  0  0  0  0  0  0
    1.6527    3.0917   -0.3099 H   0  0  0  0  0  0  0  0  0  0  0  0
    2.8647    3.2203    0.9872 H   0  0  0  0  0  0  0  0  0  0  0  0
    5.0397   -0.6507   -1.3716 H   0  0  0  0  0  0  0  0  0  0  0  0
    4.6658    0.9305    0.9816 H   0  0  0  0  0  0  0  0  0  0  0  0
    2.3099   -2.9495    0.4242 H   0  0  0  0  0  0  0  0  0  0  0  0
   -0.9617   -0.1969    1.5824 H   0  0  0  0  0  0  0  0  0  0  0  0
    0.1198    2.5486    1.3014 H   0  0  0  0  0  0  0  0  0  0  0  0
   -2.1371   -1.2262   -1.7931 H   0  0  0  0  0  0  0  0  0  0  0  0
   -2.8253    1.2982    1.6388 H   0  0  0  0  0  0  0  0  0  0  0  0
   -3.7489    0.1044   -3.0880 H   0  0  0  0  0  0  0  0  0  0  0  0
   -4.4486    2.6189    0.3254 H   0  0  0  0  0  0  0  0  0  0  0  0
   -4.9137    2.0268   -2.0384 H   0  0  0  0  0  0  0  0  0  0  0  0
  1 11  1  0  0  0  0
  1 12  1  0  0  0  0
  2 12  1  0  0  0  0
  2 14  1  0  0  0  0
  3  8  1  0  0  0  0
  3 29  1  0  0  0  0
  4  9  1  0  0  0  0
  4 30  1  0  0  0  0
  5 10  1  0  0  0  0
  5 31  1  0  0  0  0
  6 13  1  0  0  0  0
  6 33  1  0  0  0  0
  7 16  3  0  0  0  0
  8  9  1  0  0  0  0
  8 10  1  0  0  0  0
  8 22  1  0  0  0  0
  9 11  1  0  0  0  0
  9 23  1  0  0  0  0
 10 12  1  0  0  0  0
 10 24  1  0  0  0  0
 11 13  1  0  0  0  0
 11 25  1  0  0  0  0
 12 26  1  0  0  0  0
 13 27  1  0  0  0  0
 13 28  1  0  0  0  0
 14 15  1  0  0  0  0
 14 16  1  0  0  0  0
 14 32  1  0  0  0  0
 15 17  2  0  0  0  0
 15 18  1  0  0  0  0
 17 19  1  0  0  0  0
 17 34  1  0  0  0  0
 18 20  2  0  0  0  0
 18 35  1  0  0  0  0
 19 21  2  0  0  0  0
 19 36  1  0  0  0  0
 20 21  1  0  0  0  0
 20 37  1  0  0  0  0
 21 38  1  0  0  0  0
M  END
> <PUBCHEM_COMPOUND_CID>
120639

> <PUBCHEM_CONFORMER_RMSD>
0.8

> <PUBCHEM_CONFORMER_DIVERSEORDER>
1
14
80
78
87
73
85
13
69
74
49
63
38
76
34
18
59
83
53
33
94
21
98
32
41
96
36
54
65
58
15
88
5
42
86
44
55
62
51
71
4
9
70
93
66
75
16
19
7
72
84
39
82
50
40
79
10
47
91
6
23
52
77
56
20
67
2
57
29
68
3
92
81
61
22
30
12
25
64
8
11
26
60
35
90
43
27
97
46
37
95
24
48
89
45
31
17
28

> <PUBCHEM_MMFF94_PARTIAL_CHARGES>
30
1 -0.56
10 0.28
11 0.28
12 0.56
13 0.28
14 0.62
15 -0.14
16 0.36
17 -0.15
18 -0.15
19 -0.15
2 -0.56
20 -0.15
21 -0.15
29 0.4
3 -0.68
30 0.4
31 0.4
33 0.4
34 0.15
35 0.15
36 0.15
37 0.15
38 0.15
4 -0.68
5 -0.68
6 -0.68
7 -0.56
8 0.28
9 0.28

> <PUBCHEM_EFFECTIVE_ROTOR_COUNT>
5.2

> <PUBCHEM_PHARMACOPHORE_FEATURES>
13
1 1 acceptor
1 2 acceptor
1 3 acceptor
1 3 donor
1 4 acceptor
1 4 donor
1 5 acceptor
1 5 donor
1 6 acceptor
1 6 donor
1 7 acceptor
6 1 8 9 10 11 12 rings
6 15 17 18 19 20 21 rings

> <PUBCHEM_HEAVY_ATOM_COUNT>
21

> <PUBCHEM_ATOM_DEF_STEREO_COUNT>
5

> <PUBCHEM_ATOM_UDEF_STEREO_COUNT>
1

> <PUBCHEM_BOND_DEF_STEREO_COUNT>
0

> <PUBCHEM_BOND_UDEF_STEREO_COUNT>
0

> <PUBCHEM_ISOTOPIC_ATOM_COUNT>
0

> <PUBCHEM_COMPONENT_COUNT>
1

> <PUBCHEM_CACTVS_TAUTO_COUNT>
1

> <PUBCHEM_CONFORMER_ID>
0001D73F00000001

> <PUBCHEM_MMFF94_ENERGY>
54.525

> <PUBCHEM_FEATURE_SELFOVERLAP>
66.036

> <PUBCHEM_SHAPE_FINGERPRINT>
10498660 4 17749659702296758853
116883 192 17555177943741338798
12500047 106 18040157296704312707
12654215 9 18411420601163731142
12788726 201 17911244914698919608
12892183 10 11458708232273630069
13294875 104 17896859002844297083
13464514 151 18410290272618209096
14250199 8 18272642450929572317
14957384 54 16226312777151611445
15210252 30 18260833661783043900
18186145 218 18261668165263842213
18219364 16 18269278035220676504
19049666 15 18408046225125710275
20645477 56 17968105200593483479
20645477 70 18060426789683972030
20681677 76 18339926025181880034
22079108 93 18261681381363710081
221357 26 18270391669134140197
22182313 1 18268156520849969784
23557571 272 17824824688009420787
23559900 14 18334300830149175622
238 59 17986657367283231533
25 1 18263924337259458015
2748010 2 18194118744576970456
3082319 5 17560788927687356493
474 4 18410282614923927837
6049 1 18264500652797618371
633830 44 18192706740377925285
6438718 38 17199973062745937217
7226269 152 18263071125095134232
7399639 24 17833553770460857226
7615 1 15769785688027574690
7808743 9 17531253871784950020
81228 2 17766854822882986514
84936 182 17827620479853861341
9709674 26 18339359772588187351
9981440 41 17839429500702616209

> <PUBCHEM_SHAPE_MULTIPOLES>
391.97
8.12
2.97
1.63
0.69
0.09
0.06
-2.49
3.17
0.33
-1.54
-1.18
0.34
2.27

> <PUBCHEM_SHAPE_SELFOVERLAP>
818.002

> <PUBCHEM_SHAPE_VOLUME>
217.1

> <PUBCHEM_COORDINATE_TYPE>
2
5
10

$$$$
