12071198
  -OEChem-03292013303D

 30 32  0     1  0  0  0  0  0999 V2000
   -4.7282   -1.7610    0.5450 Cl  0  0  0  0  0  0  0  0  0  0  0  0
    1.9997   -0.2344   -0.9573 O   0  0  0  0  0  0  0  0  0  0  0  0
    1.8759    2.7272    0.4362 O   0  0  0  0  0  0  0  0  0  0  0  0
    2.5942   -0.4417    1.9740 O   0  0  0  0  0  0  0  0  0  0  0  0
    4.3754   -1.5665   -1.6266 O   0  0  0  0  0  0  0  0  0  0  0  0
   -0.2272   -0.0916   -0.1557 N   0  0  0  0  0  0  0  0  0  0  0  0
   -1.5302   -1.7885    0.4713 N   0  0  0  0  0  0  0  0  0  0  0  0
   -1.9246    1.5610   -0.6927 N   0  0  0  0  0  0  0  0  0  0  0  0
   -4.1695    0.6769   -0.3262 N   0  0  0  0  0  0  0  0  0  0  0  0
    1.5795    1.3745    0.7747 C   0  0  1  0  0  0  0  0  0  0  0  0
    0.9946    0.6606   -0.4476 C   0  0  1  0  0  0  0  0  0  0  0  0
    2.8628    0.6192    1.0658 C   0  0  2  0  0  0  0  0  0  0  0  0
    3.2428    0.0691   -0.3037 C   0  0  1  0  0  0  0  0  0  0  0  0
    4.1177   -1.1710   -0.2889 C   0  0  0  0  0  0  0  0  0  0  0  0
   -1.5127    0.3530   -0.2793 C   0  0  0  0  0  0  0  0  0  0  0  0
   -0.2896   -1.3827    0.2976 C   0  0  0  0  0  0  0  0  0  0  0  0
   -2.3050   -0.7134    0.1146 C   0  0  0  0  0  0  0  0  0  0  0  0
   -3.6823   -0.5197    0.0815 C   0  0  0  0  0  0  0  0  0  0  0  0
   -3.2737    1.6289   -0.6826 C   0  0  0  0  0  0  0  0  0  0  0  0
    0.8895    1.3970    1.6244 H   0  0  0  0  0  0  0  0  0  0  0  0
    0.7455    1.3608   -1.2537 H   0  0  0  0  0  0  0  0  0  0  0  0
    3.6622    1.2399    1.4826 H   0  0  0  0  0  0  0  0  0  0  0  0
    3.7194    0.8501   -0.9100 H   0  0  0  0  0  0  0  0  0  0  0  0
    3.6256   -2.0134    0.2073 H   0  0  0  0  0  0  0  0  0  0  0  0
    5.0730   -0.9758    0.2068 H   0  0  0  0  0  0  0  0  0  0  0  0
    2.4780    2.7281   -0.3271 H   0  0  0  0  0  0  0  0  0  0  0  0
    2.3125   -0.0416    2.8143 H   0  0  0  0  0  0  0  0  0  0  0  0
    0.5922   -1.9797    0.4866 H   0  0  0  0  0  0  0  0  0  0  0  0
    3.5174   -1.7288   -2.0548 H   0  0  0  0  0  0  0  0  0  0  0  0
   -3.6989    2.5739   -1.0035 H   0  0  0  0  0  0  0  0  0  0  0  0
  1 18  1  0  0  0  0
  2 11  1  0  0  0  0
  2 13  1  0  0  0  0
  3 10  1  0  0  0  0
  3 26  1  0  0  0  0
  4 12  1  0  0  0  0
  4 27  1  0  0  0  0
  5 14  1  0  0  0  0
  5 29  1  0  0  0  0
  6 11  1  0  0  0  0
  6 15  1  0  0  0  0
  6 16  1  0  0  0  0
  7 16  2  0  0  0  0
  7 17  1  0  0  0  0
  8 15  1  0  0  0  0
  8 19  2  0  0  0  0
  9 18  2  0  0  0  0
  9 19  1  0  0  0  0
 10 11  1  0  0  0  0
 10 12  1  0  0  0  0
 10 20  1  0  0  0  0
 11 21  1  0  0  0  0
 12 13  1  0  0  0  0
 12 22  1  0  0  0  0
 13 14  1  0  0  0  0
 13 23  1  0  0  0  0
 14 24  1  0  0  0  0
 14 25  1  0  0  0  0
 15 17  2  0  0  0  0
 16 28  1  0  0  0  0
 17 18  1  0  0  0  0
 19 30  1  0  0  0  0
M  END
> <PUBCHEM_COMPOUND_CID>
12071198

> <PUBCHEM_CONFORMER_RMSD>
0.6

> <PUBCHEM_CONFORMER_DIVERSEORDER>
1
26
4
13
19
6
27
17
11
16
30
8
2
9
20
18
29
28
5
15
21
3
7
24
22
14
23
12
10
25

> <PUBCHEM_MMFF94_PARTIAL_CHARGES>
24
1 -0.18
10 0.28
11 0.54
12 0.28
13 0.28
14 0.28
15 0.11
16 0.04
17 0.23
18 0.49
19 0.47
2 -0.56
26 0.4
27 0.4
28 0.15
29 0.4
3 -0.68
30 0.15
4 -0.68
5 -0.68
6 0.05
7 -0.57
8 -0.57
9 -0.62

> <PUBCHEM_EFFECTIVE_ROTOR_COUNT>
3

> <PUBCHEM_PHARMACOPHORE_FEATURES>
13
1 2 acceptor
1 3 acceptor
1 3 donor
1 4 acceptor
1 4 donor
1 5 acceptor
1 5 donor
1 9 acceptor
3 6 7 16 cation
3 8 9 19 cation
5 2 10 11 12 13 rings
5 6 7 15 16 17 rings
6 8 9 15 17 18 19 rings

> <PUBCHEM_HEAVY_ATOM_COUNT>
19

> <PUBCHEM_ATOM_DEF_STEREO_COUNT>
3

> <PUBCHEM_ATOM_UDEF_STEREO_COUNT>
1

> <PUBCHEM_BOND_DEF_STEREO_COUNT>
0

> <PUBCHEM_BOND_UDEF_STEREO_COUNT>
0

> <PUBCHEM_ISOTOPIC_ATOM_COUNT>
0

> <PUBCHEM_COMPONENT_COUNT>
1

> <PUBCHEM_CACTVS_TAUTO_COUNT>
1

> <PUBCHEM_CONFORMER_ID>
00B8311E00000001

> <PUBCHEM_MMFF94_ENERGY>
42.2164

> <PUBCHEM_FEATURE_SELFOVERLAP>
66.111

> <PUBCHEM_SHAPE_FINGERPRINT>
10366900 7 17822295703790893379
10608611 8 18339073895244033737
10751810 167 17894355453633202486
1100329 8 16755784482634130552
11543360 7 14273736300159849099
12032990 46 18336550507810880839
12236239 1 16950280698370890622
12403259 226 18410852179153157221
12403259 415 18409728465469187733
12916754 54 18341617061781553115
13134695 92 17131826547906580664
13571099 22 18060136531377489896
13581323 91 18187356662309012497
13675066 3 18201993348128655833
14144814 61 18114172038756266153
14866123 147 17264140458464124050
15219456 202 18271803557463448413
16752209 62 18113332020657979475
16945 1 18336252505525747595
17041 50 18412263926302913748
17804303 29 18335422361245693919
18186145 218 18343017770596346649
19422 9 17022895718638665176
200 152 17131828746797577453
20233049 118 18261391114114216716
20510252 161 18410854399825459289
20645477 70 17918277541367812550
20871999 31 18262531312019740612
21065201 7 18334288743224637107
23175994 123 17989211408361998024
23402539 116 18337382842698511055
23559900 14 18411418418771939660
2748010 2 18263633108380655613
3004659 81 18115032879948877910
3286 77 18202569505307121621
474 4 15193853852377870450
5104073 3 18410009948856401305
59755656 215 18334012766508269999
6049 1 18411981385942341529
633830 44 18411409610073603485
69090 78 18130218358981798407
7364860 26 18268149945276690700
74978 22 18408881871242759864
77492 1 16732979816926231485
9709674 26 18338515368990811331

> <PUBCHEM_SHAPE_MULTIPOLES>
349.48
8.65
2.04
1.12
1.75
0.52
-0.16
-2.86
0.76
0.31
-0.02
-1.14
-0.15
1.47

> <PUBCHEM_SHAPE_SELFOVERLAP>
751.312

> <PUBCHEM_SHAPE_VOLUME>
195.1

> <PUBCHEM_COORDINATE_TYPE>
2
5
10

$$$$
