121077
  -OEChem-03292013323D

 35 36  0     0  0  0  0  0  0999 V2000
   -1.0001   -2.3181    0.0679 S   0  0  0  0  0  0  0  0  0  0  0  0
   -1.9743   -3.1656   -0.6095 O   0  0  0  0  0  0  0  0  0  0  0  0
   -0.3912   -2.7966    1.3030 O   0  0  0  0  0  0  0  0  0  0  0  0
    0.2619    0.5421   -2.4640 O   0  0  0  0  0  0  0  0  0  0  0  0
    3.7701   -0.0374    1.6136 O   0  0  0  0  0  0  0  0  0  0  0  0
    0.2340   -1.9120   -1.0636 N   0  0  0  0  0  0  0  0  0  0  0  0
    1.9629    1.3626   -1.1286 N   0  0  0  0  0  0  0  0  0  0  0  0
   -3.5912    2.9267    1.1326 N   0  0  0  0  0  0  0  0  0  0  0  0
    2.8465    1.2208   -0.1044 N   0  0  0  0  0  0  0  0  0  0  0  0
   -1.7610   -0.7779    0.3801 C   0  0  0  0  0  0  0  0  0  0  0  0
    1.1349   -0.8424   -0.7280 C   0  0  0  0  0  0  0  0  0  0  0  0
   -2.8348   -0.3582   -0.4050 C   0  0  0  0  0  0  0  0  0  0  0  0
   -1.2949    0.0329    1.4150 C   0  0  0  0  0  0  0  0  0  0  0  0
   -3.4426    0.8722   -0.1552 C   0  0  0  0  0  0  0  0  0  0  0  0
   -1.9028    1.2633    1.6649 C   0  0  0  0  0  0  0  0  0  0  0  0
   -2.9766    1.6829    0.8796 C   0  0  0  0  0  0  0  0  0  0  0  0
    2.0271   -0.9949    0.3115 C   0  0  0  0  0  0  0  0  0  0  0  0
    1.1290    0.3430   -1.4240 C   0  0  0  0  0  0  0  0  0  0  0  0
    2.8675    0.0640    0.5910 C   0  0  0  0  0  0  0  0  0  0  0  0
    0.3300    1.8014   -3.1242 C   0  0  0  0  0  0  0  0  0  0  0  0
    4.6059    1.0912    1.8474 C   0  0  0  0  0  0  0  0  0  0  0  0
   -0.0500   -1.9276   -2.0523 H   0  0  0  0  0  0  0  0  0  0  0  0
   -3.2094   -0.9692   -1.2213 H   0  0  0  0  0  0  0  0  0  0  0  0
   -0.4626   -0.2733    2.0421 H   0  0  0  0  0  0  0  0  0  0  0  0
   -4.2773    1.1890   -0.7754 H   0  0  0  0  0  0  0  0  0  0  0  0
   -1.5306    1.8859    2.4745 H   0  0  0  0  0  0  0  0  0  0  0  0
    2.0881   -1.9120    0.8870 H   0  0  0  0  0  0  0  0  0  0  0  0
   -4.3691    3.2321    0.5630 H   0  0  0  0  0  0  0  0  0  0  0  0
   -3.2530    3.5154    1.8821 H   0  0  0  0  0  0  0  0  0  0  0  0
    0.0890    2.6184   -2.4359 H   0  0  0  0  0  0  0  0  0  0  0  0
   -0.4178    1.8026   -3.9229 H   0  0  0  0  0  0  0  0  0  0  0  0
    1.3131    1.9526   -3.5822 H   0  0  0  0  0  0  0  0  0  0  0  0
    4.0112    1.9692    2.1209 H   0  0  0  0  0  0  0  0  0  0  0  0
    5.2336    1.3015    0.9751 H   0  0  0  0  0  0  0  0  0  0  0  0
    5.2644    0.8539    2.6882 H   0  0  0  0  0  0  0  0  0  0  0  0
  1  2  2  0  0  0  0
  1  3  2  0  0  0  0
  1  6  1  0  0  0  0
  1 10  1  0  0  0  0
  4 18  1  0  0  0  0
  4 20  1  0  0  0  0
  5 19  1  0  0  0  0
  5 21  1  0  0  0  0
  6 11  1  0  0  0  0
  6 22  1  0  0  0  0
  7  9  1  0  0  0  0
  7 18  2  0  0  0  0
  8 16  1  0  0  0  0
  8 28  1  0  0  0  0
  8 29  1  0  0  0  0
  9 19  2  0  0  0  0
 10 12  2  0  0  0  0
 10 13  1  0  0  0  0
 11 17  2  0  0  0  0
 11 18  1  0  0  0  0
 12 14  1  0  0  0  0
 12 23  1  0  0  0  0
 13 15  2  0  0  0  0
 13 24  1  0  0  0  0
 14 16  2  0  0  0  0
 14 25  1  0  0  0  0
 15 16  1  0  0  0  0
 15 26  1  0  0  0  0
 17 19  1  0  0  0  0
 17 27  1  0  0  0  0
 20 30  1  0  0  0  0
 20 31  1  0  0  0  0
 20 32  1  0  0  0  0
 21 33  1  0  0  0  0
 21 34  1  0  0  0  0
 21 35  1  0  0  0  0
M  END
> <PUBCHEM_COMPOUND_CID>
121077

> <PUBCHEM_CONFORMER_RMSD>
0.8

> <PUBCHEM_CONFORMER_DIVERSEORDER>
1
12
26
2
17
3
20
8
4
25
24
5
21
11
19
7
18
23
22
6
14
10
16
13
15
9

> <PUBCHEM_MMFF94_PARTIAL_CHARGES>
29
1 1.45
10 -0.01
11 0.2
12 -0.15
13 -0.15
14 -0.15
15 -0.15
16 0.1
17 -0.15
18 0.39
19 0.39
2 -0.65
20 0.28
21 0.28
22 0.42
23 0.15
24 0.15
25 0.15
26 0.15
27 0.15
28 0.4
29 0.4
3 -0.65
4 -0.36
5 -0.36
6 -0.76
7 -0.31
8 -0.9
9 -0.31

> <PUBCHEM_EFFECTIVE_ROTOR_COUNT>
5

> <PUBCHEM_PHARMACOPHORE_FEATURES>
7
1 2 acceptor
1 3 acceptor
1 6 donor
1 8 cation
1 8 donor
6 10 12 13 14 15 16 rings
6 7 9 11 17 18 19 rings

> <PUBCHEM_HEAVY_ATOM_COUNT>
21

> <PUBCHEM_ATOM_DEF_STEREO_COUNT>
0

> <PUBCHEM_ATOM_UDEF_STEREO_COUNT>
0

> <PUBCHEM_BOND_DEF_STEREO_COUNT>
0

> <PUBCHEM_BOND_UDEF_STEREO_COUNT>
0

> <PUBCHEM_ISOTOPIC_ATOM_COUNT>
0

> <PUBCHEM_COMPONENT_COUNT>
1

> <PUBCHEM_CACTVS_TAUTO_COUNT>
2

> <PUBCHEM_CONFORMER_ID>
0001D8F500000001

> <PUBCHEM_MMFF94_ENERGY>
68.8241

> <PUBCHEM_FEATURE_SELFOVERLAP>
35.538

> <PUBCHEM_SHAPE_FINGERPRINT>
11086676 242 17385725755823119228
11140007 195 13768217064635823585
11370993 70 18270388408773362257
11640471 11 18189351193465869693
11725454 13 17131816660717590512
12077114 3 17845927550277486554
12633257 1 18333724707014300928
12788726 201 18046920551925500211
13009979 54 17973723872583975042
13296909 8 18199457943245821834
13583140 156 17059766849698687418
13965767 371 17973160630356298737
13994607 96 17702087274273673088
14713325 29 16748816224830456158
14817 1 14583535859879034582
15276787 5 16008753489526777081
16945 1 18272376420481087231
17492 54 16127501887804288197
17876694 64 18117274968012617119
17980427 26 17842545250335852374
18981168 100 17910998786949678807
192875 21 18339912822689678725
23419403 2 17259574616123039263
23557571 272 17843985846833995303
23559900 14 17559673937224760098
238 59 15338568115256157100
484985 159 14130999740662121656
5262128 65 15766983939195232809
568465 68 15068335722433051162
58260988 393 17988347218736337701
5845 1 9703451756331782835
6992083 37 17968093157193864766
81228 2 17840339879340676427
8509985 295 15575858105483435453
9981440 41 18060127752417494906

> <PUBCHEM_SHAPE_MULTIPOLES>
392.62
6.17
2.86
2.29
3.24
1.37
1.43
-3.72
-3.94
-2.2
-0.06
1
-1.39
-0.71

> <PUBCHEM_SHAPE_SELFOVERLAP>
817.581

> <PUBCHEM_SHAPE_VOLUME>
224.7

> <PUBCHEM_COORDINATE_TYPE>
2
5
10

$$$$
