12100449
  -OEChem-03292013303D

 46 48  0     0  0  0  0  0  0999 V2000
    2.6252    0.5566   -2.7440 N   0  0  0  0  0  0  0  0  0  0  0  0
   -2.6209    2.7492    0.5557 N   0  0  0  0  0  0  0  0  0  0  0  0
   -2.6210   -2.7490   -0.5559 N   0  0  0  0  0  0  0  0  0  0  0  0
    2.6249   -0.5567    2.7442 N   0  0  0  0  0  0  0  0  0  0  0  0
    0.8989    0.7445   -1.0311 C   0  0  0  0  0  0  0  0  0  0  0  0
   -0.8999    1.0311    0.7445 C   0  0  0  0  0  0  0  0  0  0  0  0
   -0.8999   -1.0310   -0.7445 C   0  0  0  0  0  0  0  0  0  0  0  0
    0.8988   -0.7445    1.0310 C   0  0  0  0  0  0  0  0  0  0  0  0
   -0.0005    1.7539   -0.2830 C   0  0  0  0  0  0  0  0  0  0  0  0
   -0.0005   -0.2831   -1.7539 C   0  0  0  0  0  0  0  0  0  0  0  0
    1.7761   -0.0001    0.0000 C   0  0  0  0  0  0  0  0  0  0  0  0
   -1.7771    0.0000   -0.0002 C   0  0  0  0  0  0  0  0  0  0  0  0
   -0.0006    0.2830    1.7539 C   0  0  0  0  0  0  0  0  0  0  0  0
   -0.0008   -1.7539    0.2832 C   0  0  0  0  0  0  0  0  0  0  0  0
    1.7834    1.4770   -2.0453 C   0  0  0  0  0  0  0  0  0  0  0  0
   -1.7847    2.0452    1.4769 C   0  0  0  0  0  0  0  0  0  0  0  0
   -1.7844   -2.0453   -1.4770 C   0  0  0  0  0  0  0  0  0  0  0  0
    1.7831   -1.4769    2.0455 C   0  0  0  0  0  0  0  0  0  0  0  0
    0.6197    2.5055    0.2239 H   0  0  0  0  0  0  0  0  0  0  0  0
   -0.5949    2.2905   -1.0319 H   0  0  0  0  0  0  0  0  0  0  0  0
   -0.6229    0.2259   -2.5025 H   0  0  0  0  0  0  0  0  0  0  0  0
    0.6049   -1.0174   -2.3011 H   0  0  0  0  0  0  0  0  0  0  0  0
    2.4310   -0.7332   -0.4867 H   0  0  0  0  0  0  0  0  0  0  0  0
    2.4277    0.7385    0.4816 H   0  0  0  0  0  0  0  0  0  0  0  0
   -2.4259    0.4836   -0.7401 H   0  0  0  0  0  0  0  0  0  0  0  0
   -2.4382   -0.4943    0.7235 H   0  0  0  0  0  0  0  0  0  0  0  0
    0.5937    1.0317    2.2907 H   0  0  0  0  0  0  0  0  0  0  0  0
   -0.6211   -0.2240    2.5052 H   0  0  0  0  0  0  0  0  0  0  0  0
    0.6198   -2.5048   -0.2243 H   0  0  0  0  0  0  0  0  0  0  0  0
   -0.6001   -2.2934    1.0269 H   0  0  0  0  0  0  0  0  0  0  0  0
    2.3980    2.2356   -1.5461 H   0  0  0  0  0  0  0  0  0  0  0  0
    1.1545    2.0092   -2.7689 H   0  0  0  0  0  0  0  0  0  0  0  0
   -1.1673    2.7648    2.0271 H   0  0  0  0  0  0  0  0  0  0  0  0
   -2.4105    1.5396    2.2214 H   0  0  0  0  0  0  0  0  0  0  0  0
   -1.1701   -2.7593   -2.0384 H   0  0  0  0  0  0  0  0  0  0  0  0
   -2.4130   -1.5271   -2.2112 H   0  0  0  0  0  0  0  0  0  0  0  0
    2.4050   -2.2258    1.5411 H   0  0  0  0  0  0  0  0  0  0  0  0
    1.1652   -2.0224    2.7683 H   0  0  0  0  0  0  0  0  0  0  0  0
    3.3588    0.2025   -2.1326 H   0  0  0  0  0  0  0  0  0  0  0  0
    3.1118    1.0397   -3.4984 H   0  0  0  0  0  0  0  0  0  0  0  0
   -3.2525    2.1347    0.0510 H   0  0  0  0  0  0  0  0  0  0  0  0
   -2.0902    3.2824   -0.1266 H   0  0  0  0  0  0  0  0  0  0  0  0
   -2.0738   -3.4013    0.0031 H   0  0  0  0  0  0  0  0  0  0  0  0
   -3.2881   -3.3253   -1.0678 H   0  0  0  0  0  0  0  0  0  0  0  0
    2.0987    0.1332    3.2718 H   0  0  0  0  0  0  0  0  0  0  0  0
    3.2608   -0.0611    2.1267 H   0  0  0  0  0  0  0  0  0  0  0  0
  1 15  1  0  0  0  0
  1 39  1  0  0  0  0
  1 40  1  0  0  0  0
  2 16  1  0  0  0  0
  2 41  1  0  0  0  0
  2 42  1  0  0  0  0
  3 17  1  0  0  0  0
  3 43  1  0  0  0  0
  3 44  1  0  0  0  0
  4 18  1  0  0  0  0
  4 45  1  0  0  0  0
  4 46  1  0  0  0  0
  5  9  1  0  0  0  0
  5 10  1  0  0  0  0
  5 11  1  0  0  0  0
  5 15  1  0  0  0  0
  6  9  1  0  0  0  0
  6 12  1  0  0  0  0
  6 13  1  0  0  0  0
  6 16  1  0  0  0  0
  7 10  1  0  0  0  0
  7 12  1  0  0  0  0
  7 14  1  0  0  0  0
  7 17  1  0  0  0  0
  8 11  1  0  0  0  0
  8 13  1  0  0  0  0
  8 14  1  0  0  0  0
  8 18  1  0  0  0  0
  9 19  1  0  0  0  0
  9 20  1  0  0  0  0
 10 21  1  0  0  0  0
 10 22  1  0  0  0  0
 11 23  1  0  0  0  0
 11 24  1  0  0  0  0
 12 25  1  0  0  0  0
 12 26  1  0  0  0  0
 13 27  1  0  0  0  0
 13 28  1  0  0  0  0
 14 29  1  0  0  0  0
 14 30  1  0  0  0  0
 15 31  1  0  0  0  0
 15 32  1  0  0  0  0
 16 33  1  0  0  0  0
 16 34  1  0  0  0  0
 17 35  1  0  0  0  0
 17 36  1  0  0  0  0
 18 37  1  0  0  0  0
 18 38  1  0  0  0  0
M  END
> <PUBCHEM_COMPOUND_CID>
12100449

> <PUBCHEM_CONFORMER_RMSD>
0.6

> <PUBCHEM_CONFORMER_DIVERSEORDER>
19
14
1
5
6
22
7
8
17
15
20
18
2
9
11
3
10
21
12
4
16
13

> <PUBCHEM_MMFF94_PARTIAL_CHARGES>
16
1 -0.99
15 0.27
16 0.27
17 0.27
18 0.27
2 -0.99
3 -0.99
39 0.36
4 -0.99
40 0.36
41 0.36
42 0.36
43 0.36
44 0.36
45 0.36
46 0.36

> <PUBCHEM_EFFECTIVE_ROTOR_COUNT>
5.2

> <PUBCHEM_PHARMACOPHORE_FEATURES>
12
1 1 cation
1 1 donor
1 2 cation
1 2 donor
1 3 cation
1 3 donor
1 4 cation
1 4 donor
6 5 6 7 9 10 12 rings
6 5 6 8 9 11 13 rings
6 5 7 8 10 11 14 rings
6 6 7 8 12 13 14 rings

> <PUBCHEM_HEAVY_ATOM_COUNT>
18

> <PUBCHEM_ATOM_DEF_STEREO_COUNT>
0

> <PUBCHEM_ATOM_UDEF_STEREO_COUNT>
0

> <PUBCHEM_BOND_DEF_STEREO_COUNT>
0

> <PUBCHEM_BOND_UDEF_STEREO_COUNT>
0

> <PUBCHEM_ISOTOPIC_ATOM_COUNT>
0

> <PUBCHEM_COMPONENT_COUNT>
1

> <PUBCHEM_CACTVS_TAUTO_COUNT>
1

> <PUBCHEM_CONFORMER_ID>
00B8A36100000013

> <PUBCHEM_MMFF94_ENERGY>
58.7195

> <PUBCHEM_FEATURE_SELFOVERLAP>
73.289

> <PUBCHEM_SHAPE_FINGERPRINT>
10863032 1 9343751990212705322
11578080 2 13363570349594994956
12326174 3 9203455328768720150
12423570 1 13376106422817981575
12592029 89 16300057134001437488
12716301 132 15590177483060361067
12725867 57 10225639094195692675
13024252 1 12387808987642828218
13380536 261 18191593157762034647
13898156 1 14176148208895687757
14817 1 9913769569927887120
15906896 17 12904349697600899823
16945 1 15656692228534423584
18721546 61 11405061057850682777
19765921 60 15976991716662371352
20602899 9 9560287212127257769
2306618 200 8774392631558585633
23419403 2 9905465005890152779
298252 57 11804427475404683556
427121 178 8747638829600376878
430814 3 11707958867577617596
5845 1 11499233533406968769
68419 9 14031619737581205298
76951 1 10320394254388846778
81228 2 17846221089822619107

> <PUBCHEM_SHAPE_MULTIPOLES>
350.51
3.13
2.61
2.6
0.01
0
0
0
0
-2.17
0
2.17
0
-2.13

> <PUBCHEM_SHAPE_SELFOVERLAP>
749.943

> <PUBCHEM_SHAPE_VOLUME>
183.7

> <PUBCHEM_COORDINATE_TYPE>
2
5
10

$$$$
