121107559
  -OEChem-03292013293D

 63 67  0     1  0  0  0  0  0999 V2000
   -3.0831    2.6719    0.4053 O   0  0  0  0  0  0  0  0  0  0  0  0
   -1.7557    0.5088    1.7205 O   0  0  0  0  0  0  0  0  0  0  0  0
    0.7014    2.7786   -1.0281 O   0  0  0  0  0  0  0  0  0  0  0  0
   -1.8518   -2.1680    0.5717 O   0  0  0  0  0  0  0  0  0  0  0  0
    1.2929    0.2122   -2.0515 O   0  0  0  0  0  0  0  0  0  0  0  0
    4.1687   -2.2115   -0.2895 O   0  0  0  0  0  0  0  0  0  0  0  0
   -1.0189   -3.5799   -1.0559 O   0  0  0  0  0  0  0  0  0  0  0  0
   -1.0956    1.3880   -0.4462 C   0  0  1  0  0  0  0  0  0  0  0  0
   -1.7800    0.2228    0.3207 C   0  0  2  0  0  0  0  0  0  0  0  0
    1.4960   -0.3410    0.3700 C   0  0  1  0  0  0  0  0  0  0  0  0
   -2.2201    2.3811   -0.7040 C   0  0  1  0  0  0  0  0  0  0  0  0
    1.3182    1.1783    0.7544 C   0  0  2  0  0  0  0  0  0  0  0  0
   -3.2942    0.2470   -0.2016 C   0  0  0  0  0  0  0  0  0  0  0  0
   -3.5283    1.7048   -0.5497 C   0  0  1  0  0  0  0  0  0  0  0  0
    0.1738    2.0787    0.1226 C   0  0  1  0  0  0  0  0  0  0  0  0
   -1.0381   -1.0996    0.0643 C   0  0  1  0  0  0  0  0  0  0  0  0
    0.3086   -1.2395    0.7599 C   0  0  0  0  0  0  0  0  0  0  0  0
    2.0034   -0.5106   -1.0744 C   0  0  2  0  0  0  0  0  0  0  0  0
    3.4578   -0.0189   -0.9362 C   0  0  2  0  0  0  0  0  0  0  0  0
    2.7371   -0.9376    1.1846 C   0  0  0  0  0  0  0  0  0  0  0  0
    3.9489   -0.8900    0.2313 C   0  0  1  0  0  0  0  0  0  0  0  0
    2.7036    1.8953    0.6173 C   0  0  0  0  0  0  0  0  0  0  0  0
    3.4905    1.4922   -0.6403 C   0  0  0  0  0  0  0  0  0  0  0  0
   -4.3298   -0.1952    0.8432 C   0  0  0  0  0  0  0  0  0  0  0  0
   -3.5062   -0.5672   -1.4976 C   0  0  0  0  0  0  0  0  0  0  0  0
   -0.1784    3.1789    1.1620 C   0  0  0  0  0  0  0  0  0  0  0  0
    5.2522   -0.4620    0.8942 C   0  0  0  0  0  0  0  0  0  0  0  0
   -1.7359   -3.3511   -0.0912 C   0  0  0  0  0  0  0  0  0  0  0  0
   -2.6368   -4.3663    0.5443 C   0  0  0  0  0  0  0  0  0  0  0  0
   -0.8689    1.0149   -1.4524 H   0  0  0  0  0  0  0  0  0  0  0  0
   -2.0679    3.1132   -1.4800 H   0  0  0  0  0  0  0  0  0  0  0  0
    1.0931    1.1568    1.8321 H   0  0  0  0  0  0  0  0  0  0  0  0
   -4.3657    1.9444   -1.1843 H   0  0  0  0  0  0  0  0  0  0  0  0
   -0.8990   -1.2228   -1.0166 H   0  0  0  0  0  0  0  0  0  0  0  0
    0.1561   -1.1682    1.8467 H   0  0  0  0  0  0  0  0  0  0  0  0
    0.6260   -2.2829    0.6174 H   0  0  0  0  0  0  0  0  0  0  0  0
    1.9725   -1.5669   -1.3703 H   0  0  0  0  0  0  0  0  0  0  0  0
    4.0113   -0.2189   -1.8613 H   0  0  0  0  0  0  0  0  0  0  0  0
    2.9030   -0.3747    2.1096 H   0  0  0  0  0  0  0  0  0  0  0  0
    2.5553   -1.9749    1.4930 H   0  0  0  0  0  0  0  0  0  0  0  0
    3.3034    1.6787    1.5077 H   0  0  0  0  0  0  0  0  0  0  0  0
    2.6013    2.9860    0.6323 H   0  0  0  0  0  0  0  0  0  0  0  0
    3.1052    2.0358   -1.5097 H   0  0  0  0  0  0  0  0  0  0  0  0
    4.5289    1.8276   -0.5310 H   0  0  0  0  0  0  0  0  0  0  0  0
   -4.1738   -1.2315    1.1563 H   0  0  0  0  0  0  0  0  0  0  0  0
   -3.4672   -1.6446   -1.3247 H   0  0  0  0  0  0  0  0  0  0  0  0
   -2.7662   -0.3108   -2.2633 H   0  0  0  0  0  0  0  0  0  0  0  0
   -5.3462   -0.1205    0.4384 H   0  0  0  0  0  0  0  0  0  0  0  0
   -4.3044    0.4393    1.7359 H   0  0  0  0  0  0  0  0  0  0  0  0
   -4.4919   -0.3562   -1.9307 H   0  0  0  0  0  0  0  0  0  0  0  0
   -0.7693    3.9854    0.7147 H   0  0  0  0  0  0  0  0  0  0  0  0
    0.7231    3.6746    1.5378 H   0  0  0  0  0  0  0  0  0  0  0  0
   -0.7154    2.7769    2.0250 H   0  0  0  0  0  0  0  0  0  0  0  0
   -2.0781   -0.2780    2.1920 H   0  0  0  0  0  0  0  0  0  0  0  0
    0.9235    2.1202   -1.7069 H   0  0  0  0  0  0  0  0  0  0  0  0
    6.0633   -0.4297    0.1579 H   0  0  0  0  0  0  0  0  0  0  0  0
    5.5540   -1.1896    1.6566 H   0  0  0  0  0  0  0  0  0  0  0  0
    5.1895    0.5151    1.3778 H   0  0  0  0  0  0  0  0  0  0  0  0
    1.7612    0.1040   -2.8967 H   0  0  0  0  0  0  0  0  0  0  0  0
    4.4010   -2.7927    0.4549 H   0  0  0  0  0  0  0  0  0  0  0  0
   -3.6754   -4.0321    0.4793 H   0  0  0  0  0  0  0  0  0  0  0  0
   -2.3456   -4.5197    1.5865 H   0  0  0  0  0  0  0  0  0  0  0  0
   -2.5430   -5.3176    0.0127 H   0  0  0  0  0  0  0  0  0  0  0  0
  1 11  1  0  0  0  0
  1 14  1  0  0  0  0
  2  9  1  0  0  0  0
  2 54  1  0  0  0  0
  3 15  1  0  0  0  0
  3 55  1  0  0  0  0
  4 16  1  0  0  0  0
  4 28  1  0  0  0  0
  5 18  1  0  0  0  0
  5 59  1  0  0  0  0
  6 21  1  0  0  0  0
  6 60  1  0  0  0  0
  7 28  2  0  0  0  0
  8  9  1  0  0  0  0
  8 11  1  0  0  0  0
  8 15  1  0  0  0  0
  8 30  1  0  0  0  0
  9 13  1  0  0  0  0
  9 16  1  0  0  0  0
 10 12  1  0  0  0  0
 10 17  1  0  0  0  0
 10 18  1  0  0  0  0
 10 20  1  0  0  0  0
 11 14  1  0  0  0  0
 11 31  1  0  0  0  0
 12 15  1  0  0  0  0
 12 22  1  0  0  0  0
 12 32  1  0  0  0  0
 13 14  1  0  0  0  0
 13 24  1  0  0  0  0
 13 25  1  0  0  0  0
 14 33  1  0  0  0  0
 15 26  1  0  0  0  0
 16 17  1  0  0  0  0
 16 34  1  0  0  0  0
 17 35  1  0  0  0  0
 17 36  1  0  0  0  0
 18 19  1  0  0  0  0
 18 37  1  0  0  0  0
 19 21  1  0  0  0  0
 19 23  1  0  0  0  0
 19 38  1  0  0  0  0
 20 21  1  0  0  0  0
 20 39  1  0  0  0  0
 20 40  1  0  0  0  0
 21 27  1  0  0  0  0
 22 23  1  0  0  0  0
 22 41  1  0  0  0  0
 22 42  1  0  0  0  0
 23 43  1  0  0  0  0
 23 44  1  0  0  0  0
 24 45  1  0  0  0  0
 24 48  1  0  0  0  0
 24 49  1  0  0  0  0
 25 46  1  0  0  0  0
 25 47  1  0  0  0  0
 25 50  1  0  0  0  0
 26 51  1  0  0  0  0
 26 52  1  0  0  0  0
 26 53  1  0  0  0  0
 27 56  1  0  0  0  0
 27 57  1  0  0  0  0
 27 58  1  0  0  0  0
 28 29  1  0  0  0  0
 29 61  1  0  0  0  0
 29 62  1  0  0  0  0
 29 63  1  0  0  0  0
M  END
> <PUBCHEM_COMPOUND_CID>
121107559

> <PUBCHEM_CONFORMER_RMSD>
0.8

> <PUBCHEM_CONFORMER_DIVERSEORDER>
1
3
2

> <PUBCHEM_MMFF94_PARTIAL_CHARGES>
24
1 -0.3
11 -0.05
13 0.09
14 -0.05
15 0.28
16 0.28
18 0.28
2 -0.68
21 0.28
28 0.66
29 0.06
3 -0.68
31 0.1
33 0.1
4 -0.43
5 -0.68
54 0.4
55 0.4
59 0.4
6 -0.68
60 0.4
7 -0.57
8 0.09
9 0.28

> <PUBCHEM_EFFECTIVE_ROTOR_COUNT>
4

> <PUBCHEM_PHARMACOPHORE_FEATURES>
14
1 1 acceptor
1 2 acceptor
1 2 donor
1 3 acceptor
1 3 donor
1 5 acceptor
1 5 donor
1 6 acceptor
1 6 donor
1 7 acceptor
3 13 24 25 hydrophobe
6 1 8 9 11 13 14 rings
7 8 9 10 12 15 16 17 rings
8 10 12 18 19 20 21 22 23 rings

> <PUBCHEM_HEAVY_ATOM_COUNT>
29

> <PUBCHEM_ATOM_DEF_STEREO_COUNT>
11

> <PUBCHEM_ATOM_UDEF_STEREO_COUNT>
0

> <PUBCHEM_BOND_DEF_STEREO_COUNT>
0

> <PUBCHEM_BOND_UDEF_STEREO_COUNT>
0

> <PUBCHEM_ISOTOPIC_ATOM_COUNT>
0

> <PUBCHEM_COMPONENT_COUNT>
1

> <PUBCHEM_CACTVS_TAUTO_COUNT>
2

> <PUBCHEM_CONFORMER_ID>
0737F46700000001

> <PUBCHEM_MMFF94_ENERGY>
143.8157

> <PUBCHEM_FEATURE_SELFOVERLAP>
71.07

> <PUBCHEM_SHAPE_FINGERPRINT>
10675989 125 17038647081648443853
10863032 1 18339360880858801604
1100329 8 18337953493274820091
11370993 70 18267298742518692878
11578080 2 17534029095131737372
12035758 1 18342178877494441187
12553582 1 18413110579962135876
12633257 1 18272375290672268219
12788726 201 18059307452255568832
13004483 165 18123743416346907975
13140716 1 18267022954268527843
13224815 77 18186524271751065624
13583140 156 14620794903425836683
14223421 5 18125154093927761176
14251757 5 18339096890942094206
14790565 3 18339089185797482865
15042514 8 18336270136673044139
15196674 1 18335984181596855712
15209289 33 18340765931927567033
16728300 4 17461704117804810691
16752209 62 18263632992157685945
16945 1 18265887128608043289
17349148 13 18130500851833771658
19319366 153 17894630378653483843
19591789 44 18337392647575870347
20028762 73 18201998850837019231
20511986 3 17677035881387663520
20600515 1 18412553106345575684
20691752 17 17822283561517842577
20775438 99 17335293562871245207
20775530 9 17978512266976411747
20905425 154 17980488076322710052
21033648 29 18269821047947011968
21267235 1 18335147461879809250
21421861 104 17832148594748713723
23184049 29 18194401314791369015
2334 1 17543909461358833297
23402539 116 18269826545673481100
23419403 2 16604288796971349652
23557571 272 18273210894330359346
23559900 14 18341611452950065738
2748010 2 17689707984546557977
2818148 4 17974307704678789595
3084891 72 18268988678878809179
3178227 256 18336839632688790161
3380486 145 18194412309976459649
350125 39 18408888408774289265
484989 97 18262226846568975879
5309563 4 17400367139947347667
6443956 14 17400642022676149543
9709674 26 18341608260955902004

> <PUBCHEM_SHAPE_MULTIPOLES>
555.72
7.67
4.1
1.3
4.06
2.57
0.18
1.57
-0.19
-3.18
-0.22
0.05
-0.11
0.06

> <PUBCHEM_SHAPE_SELFOVERLAP>
1204.043

> <PUBCHEM_SHAPE_VOLUME>
299.6

> <PUBCHEM_COORDINATE_TYPE>
2
5
10

$$$$
