12111653
  -OEChem-03292013303D

 67 69  0     1  0  0  0  0  0999 V2000
    2.0035    2.8834   -0.6008 O   0  0  0  0  0  0  0  0  0  0  0  0
    1.9284   -2.3573   -0.8077 O   0  0  0  0  0  0  0  0  0  0  0  0
    3.9696   -1.2625   -0.7206 O   0  0  0  0  0  0  0  0  0  0  0  0
   -1.8405   -1.0974    1.7362 O   0  0  0  0  0  0  0  0  0  0  0  0
   -2.1450   -1.5012   -1.9154 O   0  0  0  0  0  0  0  0  0  0  0  0
    1.4057    4.5782   -1.9806 O   0  0  0  0  0  0  0  0  0  0  0  0
    4.6604   -3.3022    0.1157 O   0  0  0  0  0  0  0  0  0  0  0  0
   -1.2455   -3.1038    2.7145 O   0  0  0  0  0  0  0  0  0  0  0  0
   -2.7482    0.5081   -2.8827 O   0  0  0  0  0  0  0  0  0  0  0  0
    0.6177   -0.2437    0.7426 C   0  0  1  0  0  0  0  0  0  0  0  0
    1.9975   -0.0508    0.0620 C   0  0  1  0  0  0  0  0  0  0  0  0
    0.5664    2.2531    1.2827 C   0  0  1  0  0  0  0  0  0  0  0  0
   -0.1884    1.0697    0.6397 C   0  0  0  0  0  0  0  0  0  0  0  0
    2.0023    2.3996    0.7614 C   0  0  1  0  0  0  0  0  0  0  0  0
    2.7263    1.0687    0.7938 C   0  0  0  0  0  0  0  0  0  0  0  0
   -0.0916   -1.4508    0.1691 C   0  0  0  0  0  0  0  0  0  0  0  0
    2.7100   -1.4119   -0.0635 C   0  0  1  0  0  0  0  0  0  0  0  0
   -0.1610    3.5503    1.0350 C   0  0  0  0  0  0  0  0  0  0  0  0
   -1.5555   -1.6315    0.4461 C   0  0  2  0  0  0  0  0  0  0  0  0
    0.5890   -2.3622   -0.5425 C   0  0  0  0  0  0  0  0  0  0  0  0
    3.8795    0.9372    1.4689 C   0  0  0  0  0  0  0  0  0  0  0  0
    0.1945    4.3543    0.0225 C   0  0  0  0  0  0  0  0  0  0  0  0
   -2.4464   -0.9754   -0.6204 C   0  0  2  0  0  0  0  0  0  0  0  0
   -1.2777    3.9018    1.9727 C   0  0  0  0  0  0  0  0  0  0  0  0
    1.2493    3.9636   -0.9313 C   0  0  0  0  0  0  0  0  0  0  0  0
   -3.9044   -1.2491   -0.3571 C   0  0  0  0  0  0  0  0  0  0  0  0
    4.8513   -2.2886   -0.5428 C   0  0  0  0  0  0  0  0  0  0  0  0
   -1.6402   -1.9479    2.7863 C   0  0  0  0  0  0  0  0  0  0  0  0
   -4.8928   -0.3486   -0.1948 C   0  0  0  0  0  0  0  0  0  0  0  0
    6.1201   -1.9966   -1.2851 C   0  0  0  0  0  0  0  0  0  0  0  0
   -2.3438   -0.6442   -2.9579 C   0  0  0  0  0  0  0  0  0  0  0  0
   -1.9777   -1.2546    4.0714 C   0  0  0  0  0  0  0  0  0  0  0  0
   -4.7142    1.1433   -0.2045 C   0  0  0  0  0  0  0  0  0  0  0  0
   -6.3100   -0.8040    0.0311 C   0  0  0  0  0  0  0  0  0  0  0  0
   -1.9885   -1.3268   -4.2439 C   0  0  0  0  0  0  0  0  0  0  0  0
    0.7818   -0.4512    1.8109 H   0  0  0  0  0  0  0  0  0  0  0  0
    1.8360    0.2984   -0.9700 H   0  0  0  0  0  0  0  0  0  0  0  0
    0.6249    2.0745    2.3658 H   0  0  0  0  0  0  0  0  0  0  0  0
   -1.1589    1.0024    1.1363 H   0  0  0  0  0  0  0  0  0  0  0  0
   -0.3861    1.2914   -0.4180 H   0  0  0  0  0  0  0  0  0  0  0  0
    2.5452    3.1427    1.3621 H   0  0  0  0  0  0  0  0  0  0  0  0
    2.8684   -1.8244    0.9439 H   0  0  0  0  0  0  0  0  0  0  0  0
   -1.7837   -2.7082    0.4308 H   0  0  0  0  0  0  0  0  0  0  0  0
    0.1281   -3.2278   -1.0001 H   0  0  0  0  0  0  0  0  0  0  0  0
    4.4062   -0.0060    1.5450 H   0  0  0  0  0  0  0  0  0  0  0  0
    4.3273    1.7822    1.9823 H   0  0  0  0  0  0  0  0  0  0  0  0
   -0.3249    5.2864   -0.1724 H   0  0  0  0  0  0  0  0  0  0  0  0
   -2.2564    0.0962   -0.6100 H   0  0  0  0  0  0  0  0  0  0  0  0
   -2.0667    3.1443    1.9316 H   0  0  0  0  0  0  0  0  0  0  0  0
   -1.7319    4.8675    1.7271 H   0  0  0  0  0  0  0  0  0  0  0  0
   -0.9058    3.9618    3.0006 H   0  0  0  0  0  0  0  0  0  0  0  0
   -4.1689   -2.3059   -0.3270 H   0  0  0  0  0  0  0  0  0  0  0  0
    5.9115   -1.9054   -2.3540 H   0  0  0  0  0  0  0  0  0  0  0  0
    6.8251   -2.8197   -1.1364 H   0  0  0  0  0  0  0  0  0  0  0  0
    6.5711   -1.0784   -0.9006 H   0  0  0  0  0  0  0  0  0  0  0  0
   -3.0309   -0.9630    4.0688 H   0  0  0  0  0  0  0  0  0  0  0  0
   -1.8058   -1.9373    4.9084 H   0  0  0  0  0  0  0  0  0  0  0  0
   -1.3358   -0.3791    4.1983 H   0  0  0  0  0  0  0  0  0  0  0  0
   -5.2360    1.5757   -1.0647 H   0  0  0  0  0  0  0  0  0  0  0  0
   -5.1425    1.5754    0.7067 H   0  0  0  0  0  0  0  0  0  0  0  0
   -3.6758    1.4742   -0.2469 H   0  0  0  0  0  0  0  0  0  0  0  0
   -6.6747   -0.4434    0.9986 H   0  0  0  0  0  0  0  0  0  0  0  0
   -6.9631   -0.4118   -0.7554 H   0  0  0  0  0  0  0  0  0  0  0  0
   -6.4040   -1.8950    0.0267 H   0  0  0  0  0  0  0  0  0  0  0  0
   -2.6309   -2.1986   -4.3905 H   0  0  0  0  0  0  0  0  0  0  0  0
   -2.1439   -0.6349   -5.0767 H   0  0  0  0  0  0  0  0  0  0  0  0
   -0.9361   -1.6216   -4.2280 H   0  0  0  0  0  0  0  0  0  0  0  0
  1 14  1  0  0  0  0
  1 25  1  0  0  0  0
  2 17  1  0  0  0  0
  2 20  1  0  0  0  0
  3 17  1  0  0  0  0
  3 27  1  0  0  0  0
  4 19  1  0  0  0  0
  4 28  1  0  0  0  0
  5 23  1  0  0  0  0
  5 31  1  0  0  0  0
  6 25  2  0  0  0  0
  7 27  2  0  0  0  0
  8 28  2  0  0  0  0
  9 31  2  0  0  0  0
 10 11  1  0  0  0  0
 10 13  1  0  0  0  0
 10 16  1  0  0  0  0
 10 36  1  0  0  0  0
 11 15  1  0  0  0  0
 11 17  1  0  0  0  0
 11 37  1  0  0  0  0
 12 13  1  0  0  0  0
 12 14  1  0  0  0  0
 12 18  1  0  0  0  0
 12 38  1  0  0  0  0
 13 39  1  0  0  0  0
 13 40  1  0  0  0  0
 14 15  1  0  0  0  0
 14 41  1  0  0  0  0
 15 21  2  0  0  0  0
 16 19  1  0  0  0  0
 16 20  2  0  0  0  0
 17 42  1  0  0  0  0
 18 22  2  0  0  0  0
 18 24  1  0  0  0  0
 19 23  1  0  0  0  0
 19 43  1  0  0  0  0
 20 44  1  0  0  0  0
 21 45  1  0  0  0  0
 21 46  1  0  0  0  0
 22 25  1  0  0  0  0
 22 47  1  0  0  0  0
 23 26  1  0  0  0  0
 23 48  1  0  0  0  0
 24 49  1  0  0  0  0
 24 50  1  0  0  0  0
 24 51  1  0  0  0  0
 26 29  2  0  0  0  0
 26 52  1  0  0  0  0
 27 30  1  0  0  0  0
 28 32  1  0  0  0  0
 29 33  1  0  0  0  0
 29 34  1  0  0  0  0
 30 53  1  0  0  0  0
 30 54  1  0  0  0  0
 30 55  1  0  0  0  0
 31 35  1  0  0  0  0
 32 56  1  0  0  0  0
 32 57  1  0  0  0  0
 32 58  1  0  0  0  0
 33 59  1  0  0  0  0
 33 60  1  0  0  0  0
 33 61  1  0  0  0  0
 34 62  1  0  0  0  0
 34 63  1  0  0  0  0
 34 64  1  0  0  0  0
 35 65  1  0  0  0  0
 35 66  1  0  0  0  0
 35 67  1  0  0  0  0
M  END
> <PUBCHEM_COMPOUND_CID>
12111653

> <PUBCHEM_CONFORMER_RMSD>
1

> <PUBCHEM_CONFORMER_DIVERSEORDER>
1
72
47
10
51
78
42
15
49
32
70
64
71
25
80
65
60
9
58
19
38
26
66
33
22
39
61
46
36
8
20
69
57
79
52
48
7
40
29
18
30
62
4
17
2
74
12
50
41
24
55
31
76
81
37
43
54
11
35
28
23
53
13
34
44
75
14
63
6
16
21
68
56
67
5
45
77
73
27
59
3

> <PUBCHEM_MMFF94_PARTIAL_CHARGES>
39
1 -0.43
10 0.14
11 0.14
12 0.14
14 0.42
15 -0.28
16 -0.28
17 0.56
18 -0.28
19 0.42
2 -0.36
20 -0.07
21 -0.3
22 -0.14
23 0.42
24 0.14
25 0.71
26 -0.29
27 0.66
28 0.66
29 -0.28
3 -0.43
30 0.06
31 0.66
32 0.06
33 0.14
34 0.14
35 0.06
4 -0.43
44 0.15
45 0.15
46 0.15
47 0.15
5 -0.43
52 0.15
6 -0.57
7 -0.57
8 -0.57
9 -0.57

> <PUBCHEM_EFFECTIVE_ROTOR_COUNT>
9.8

> <PUBCHEM_PHARMACOPHORE_FEATURES>
9
1 2 acceptor
1 6 acceptor
1 7 acceptor
1 8 acceptor
1 9 acceptor
3 29 33 34 hydrophobe
6 1 12 14 18 22 25 rings
6 10 11 12 13 14 15 rings
6 2 10 11 16 17 20 rings

> <PUBCHEM_HEAVY_ATOM_COUNT>
35

> <PUBCHEM_ATOM_DEF_STEREO_COUNT>
5

> <PUBCHEM_ATOM_UDEF_STEREO_COUNT>
2

> <PUBCHEM_BOND_DEF_STEREO_COUNT>
0

> <PUBCHEM_BOND_UDEF_STEREO_COUNT>
0

> <PUBCHEM_ISOTOPIC_ATOM_COUNT>
0

> <PUBCHEM_COMPONENT_COUNT>
1

> <PUBCHEM_CACTVS_TAUTO_COUNT>
1

> <PUBCHEM_CONFORMER_ID>
00B8CF2500000001

> <PUBCHEM_MMFF94_ENERGY>
70.1043

> <PUBCHEM_FEATURE_SELFOVERLAP>
45.765

> <PUBCHEM_SHAPE_FINGERPRINT>
10165383 225 16894296052591099048
11578080 2 17388278967440051541
11582403 64 16605124387258969337
12107698 1 18342459206263379375
12156800 1 16968087224510644645
12160290 23 17548452235625445386
12293681 4 18337966579850715443
12788726 201 18117840989110690450
13009979 54 16845286202599660398
13911987 19 18263947530505564814
14114206 34 18044918091826219012
15274700 242 17974281032963784010
15775530 1 17827363494501838730
20600515 1 18115289155724241616
21304303 282 17608361343015605882
238 59 17548953998910655453
340366 18 17989481944431572463
4394409 98 17684110337276446380
5080951 261 17695322812931397910
5081480 168 18412256238010826468
57527306 92 18195523693337030813
57527452 28 16988564563611050711
6287921 2 18048305932481425949
9981440 41 17261007340125405689

> <PUBCHEM_SHAPE_MULTIPOLES>
667.46
9.06
5.34
3.23
0.26
6.87
-0.24
-7.29
-2.3
4
-0.31
-3.33
-1.59
0.27

> <PUBCHEM_SHAPE_SELFOVERLAP>
1396.165

> <PUBCHEM_SHAPE_VOLUME>
370.7

> <PUBCHEM_COORDINATE_TYPE>
2
5
10

$$$$
