121231395
  -OEChem-03292013293D

 45 48  0     1  0  0  0  0  0999 V2000
   -1.9454    1.7424   -3.1421 Cl  0  0  0  0  0  0  0  0  0  0  0  0
    1.1447    1.3940    1.1912 F   0  0  0  0  0  0  0  0  0  0  0  0
   -4.2152    0.6727    2.7263 F   0  0  0  0  0  0  0  0  0  0  0  0
   -4.6423   -0.6930    1.0891 F   0  0  0  0  0  0  0  0  0  0  0  0
   -2.6315   -0.5611    1.8911 F   0  0  0  0  0  0  0  0  0  0  0  0
   -3.5529   -1.0077   -1.6144 O   0  0  0  0  0  0  0  0  0  0  0  0
    5.5663   -0.8957   -1.1289 O   0  0  0  0  0  0  0  0  0  0  0  0
    5.8608    2.7134    0.7764 O   0  0  0  0  0  0  0  0  0  0  0  0
    6.9875    0.7503    0.5678 O   0  0  0  0  0  0  0  0  0  0  0  0
   -1.3845   -0.9425   -0.7830 N   0  0  0  0  0  0  0  0  0  0  0  0
   -0.3349   -0.1312   -0.4601 N   0  0  0  0  0  0  0  0  0  0  0  0
    0.9181   -3.0462    0.4520 N   0  0  0  0  0  0  0  0  0  0  0  0
   -0.9654   -2.3122   -1.0935 C   0  0  1  0  0  0  0  0  0  0  0  0
    0.5243   -2.3235   -0.7558 C   0  0  1  0  0  0  0  0  0  0  0  0
    0.7424   -0.8546   -0.4679 C   0  0  0  0  0  0  0  0  0  0  0  0
   -1.8004   -3.3035   -0.3489 C   0  0  0  0  0  0  0  0  0  0  0  0
    2.0853   -0.2821   -0.2045 C   0  0  0  0  0  0  0  0  0  0  0  0
   -2.6335   -0.4033   -1.0651 C   0  0  0  0  0  0  0  0  0  0  0  0
   -1.3256   -4.0505    0.6472 C   0  0  0  0  0  0  0  0  0  0  0  0
    0.0696   -3.8116    1.0314 C   0  0  0  0  0  0  0  0  0  0  0  0
   -2.8770    1.0040   -0.6832 C   0  0  0  0  0  0  0  0  0  0  0  0
    3.2130   -0.8576   -0.7903 C   0  0  0  0  0  0  0  0  0  0  0  0
    2.2215    0.8323    0.6234 C   0  0  0  0  0  0  0  0  0  0  0  0
   -3.3988    1.2861    0.5792 C   0  0  0  0  0  0  0  0  0  0  0  0
    4.4767   -0.3190   -0.5479 C   0  0  0  0  0  0  0  0  0  0  0  0
    3.4852    1.3710    0.8657 C   0  0  0  0  0  0  0  0  0  0  0  0
   -2.5923    2.0435   -1.5686 C   0  0  0  0  0  0  0  0  0  0  0  0
    4.6128    0.7953    0.2801 C   0  0  0  0  0  0  0  0  0  0  0  0
   -3.6358    2.6080    0.9565 C   0  0  0  0  0  0  0  0  0  0  0  0
   -3.7151    0.1954    1.5509 C   0  0  0  0  0  0  0  0  0  0  0  0
   -2.8292    3.3654   -1.1913 C   0  0  0  0  0  0  0  0  0  0  0  0
   -3.3508    3.6476    0.0712 C   0  0  0  0  0  0  0  0  0  0  0  0
    5.9225    1.3738    0.5461 C   0  0  0  0  0  0  0  0  0  0  0  0
   -1.1132   -2.4590   -2.1707 H   0  0  0  0  0  0  0  0  0  0  0  0
    1.1137   -2.6578   -1.6140 H   0  0  0  0  0  0  0  0  0  0  0  0
   -2.8339   -3.4397   -0.6546 H   0  0  0  0  0  0  0  0  0  0  0  0
   -1.9192   -4.7769    1.1842 H   0  0  0  0  0  0  0  0  0  0  0  0
    0.3933   -4.3592    1.9317 H   0  0  0  0  0  0  0  0  0  0  0  0
    3.1225   -1.7189   -1.4457 H   0  0  0  0  0  0  0  0  0  0  0  0
    3.5592    2.2319    1.5247 H   0  0  0  0  0  0  0  0  0  0  0  0
   -4.0414    2.8532    1.9340 H   0  0  0  0  0  0  0  0  0  0  0  0
   -2.6127    4.1873   -1.8691 H   0  0  0  0  0  0  0  0  0  0  0  0
   -3.5351    4.6769    0.3649 H   0  0  0  0  0  0  0  0  0  0  0  0
    5.2782   -1.6541   -1.6652 H   0  0  0  0  0  0  0  0  0  0  0  0
    6.7470    3.0944    0.9547 H   0  0  0  0  0  0  0  0  0  0  0  0
  1 27  1  0  0  0  0
  2 23  1  0  0  0  0
  3 30  1  0  0  0  0
  4 30  1  0  0  0  0
  5 30  1  0  0  0  0
  6 18  2  0  0  0  0
  7 25  1  0  0  0  0
  7 44  1  0  0  0  0
  8 33  1  0  0  0  0
  8 45  1  0  0  0  0
  9 33  2  0  0  0  0
 10 11  1  0  0  0  0
 10 13  1  0  0  0  0
 10 18  1  0  0  0  0
 11 15  2  0  0  0  0
 12 14  1  0  0  0  0
 12 20  2  0  0  0  0
 13 14  1  0  0  0  0
 13 16  1  0  0  0  0
 13 34  1  0  0  0  0
 14 15  1  0  0  0  0
 14 35  1  0  0  0  0
 15 17  1  0  0  0  0
 16 19  2  0  0  0  0
 16 36  1  0  0  0  0
 17 22  2  0  0  0  0
 17 23  1  0  0  0  0
 18 21  1  0  0  0  0
 19 20  1  0  0  0  0
 19 37  1  0  0  0  0
 20 38  1  0  0  0  0
 21 24  2  0  0  0  0
 21 27  1  0  0  0  0
 22 25  1  0  0  0  0
 22 39  1  0  0  0  0
 23 26  2  0  0  0  0
 24 29  1  0  0  0  0
 24 30  1  0  0  0  0
 25 28  2  0  0  0  0
 26 28  1  0  0  0  0
 26 40  1  0  0  0  0
 27 31  2  0  0  0  0
 28 33  1  0  0  0  0
 29 32  2  0  0  0  0
 29 41  1  0  0  0  0
 31 32  1  0  0  0  0
 31 42  1  0  0  0  0
 32 43  1  0  0  0  0
M  END
> <PUBCHEM_COMPOUND_CID>
121231395

> <PUBCHEM_CONFORMER_RMSD>
0.8

> <PUBCHEM_CONFORMER_DIVERSEORDER>
1
32
13
29
63
61
75
42
46
38
66
19
15
17
33
21
70
24
67
74
16
59
43
25
26
72
53
60
8
48
12
37
69
31
22
35
58
52
40
20
11
6
39
36
54
73
7
30
4
34
65
71
28
44
50
18
68
62
9
2
45
23
56
41
14
51
47
57
27
10
64
55
5
3
49

> <PUBCHEM_MMFF94_PARTIAL_CHARGES>
43
1 -0.18
10 -0.3
11 -0.51
12 -0.7
13 0.44
14 0.31
15 0.3
16 -0.29
17 0.09
18 0.54
19 -0.14
2 -0.19
20 0.38
21 0.09
22 -0.15
23 0.19
24 -0.14
25 0.08
26 -0.15
27 0.18
28 0.09
29 -0.15
3 -0.34
30 1.16
31 -0.15
32 -0.15
33 0.63
36 0.15
37 0.15
38 0.06
39 0.15
4 -0.34
40 0.15
41 0.15
42 0.15
43 0.15
44 0.45
45 0.5
5 -0.34
6 -0.57
7 -0.53
8 -0.65
9 -0.57

> <PUBCHEM_EFFECTIVE_ROTOR_COUNT>
5.2

> <PUBCHEM_PHARMACOPHORE_FEATURES>
11
1 11 acceptor
1 12 acceptor
1 6 acceptor
1 7 donor
1 8 acceptor
1 9 acceptor
3 8 9 33 anion
5 10 11 13 14 15 rings
6 12 13 14 16 19 20 rings
6 17 22 23 25 26 28 rings
6 21 24 27 29 31 32 rings

> <PUBCHEM_HEAVY_ATOM_COUNT>
33

> <PUBCHEM_ATOM_DEF_STEREO_COUNT>
0

> <PUBCHEM_ATOM_UDEF_STEREO_COUNT>
2

> <PUBCHEM_BOND_DEF_STEREO_COUNT>
0

> <PUBCHEM_BOND_UDEF_STEREO_COUNT>
0

> <PUBCHEM_ISOTOPIC_ATOM_COUNT>
0

> <PUBCHEM_COMPONENT_COUNT>
1

> <PUBCHEM_CACTVS_TAUTO_COUNT>
4

> <PUBCHEM_CONFORMER_ID>
0739D82300000001

> <PUBCHEM_MMFF94_ENERGY>
93.7857

> <PUBCHEM_FEATURE_SELFOVERLAP>
56.096

> <PUBCHEM_SHAPE_FINGERPRINT>
10165383 225 18337403625469983597
11578080 2 17828220795906895429
12156800 1 15972230092890807537
12788726 201 18192971919663743339
131258 38 14786627881027546187
13140716 1 18048037660007641175
13583140 156 17023170644054298612
14279260 333 17630899201324075710
14713325 29 18267302208694697634
14790565 3 18266737983367526090
15021287 119 17095516323677577780
15183329 4 18130784552147036068
18393751 57 18334869337310107035
18927931 339 8862669061646199544
19246450 95 17685176549895454464
21033648 29 18411972538621318760
21033650 10 13110969686474788611
21756936 100 17561647654457670473
21927370 108 18048320238839010687
22122407 14 17480029596970326033
25019877 29 17416144973593926519
283562 15 18338221752732522471
3418910 222 17465099737010183388
392239 28 18128274448594874731
469060 322 18114743836822592567
497634 4 17703787059120413173
508706 21 18341044198764096228
5252454 2 18197771111972935173
5283173 99 18342452665139015792
57527306 92 16415209953494285345
57527452 28 14779553430700308641
633830 44 18129092338794675292
7288768 16 18130804334185971371
7399639 24 18262813852369919363
9981440 41 18116135706736881545

> <PUBCHEM_SHAPE_MULTIPOLES>
613.48
11.41
4.53
1.88
18.97
2.62
0.31
-9.13
-2.75
-2.91
-0.28
-2.31
-0.65
1.3

> <PUBCHEM_SHAPE_SELFOVERLAP>
1358.533

> <PUBCHEM_SHAPE_VOLUME>
329.1

> <PUBCHEM_COORDINATE_TYPE>
2
5
10

$$$$
