121225498
  -OEChem-03292013293D

 54 61  0     1  0  0  0  0  0999 V2000
   -2.2130    1.3700    1.3682 O   0  0  0  0  0  0  0  0  0  0  0  0
   -3.8044   -0.1529   -1.4779 O   0  0  0  0  0  0  0  0  0  0  0  0
   -5.4003    2.0932   -1.2265 O   0  0  0  0  0  0  0  0  0  0  0  0
    2.9107   -3.7116   -0.1655 O   0  0  0  0  0  0  0  0  0  0  0  0
    4.8623    0.4598   -0.1780 O   0  0  0  0  0  0  0  0  0  0  0  0
    5.4423   -2.3571   -0.2849 O   0  0  0  0  0  0  0  0  0  0  0  0
   -1.6664   -0.6785    0.3565 N   0  0  0  0  0  0  0  0  0  0  0  0
   -0.3889    2.0016    0.1791 N   0  0  0  0  0  0  0  0  0  0  0  0
    4.2049   -1.7758   -0.0909 N   0  0  0  0  0  0  0  0  0  0  0  0
   -2.7772    0.2005    0.7499 C   0  0  2  0  0  0  0  0  0  0  0  0
   -3.5511    0.7937   -0.4524 C   0  0  1  0  0  0  0  0  0  0  0  0
   -1.7991    2.2257    0.3075 C   0  0  1  0  0  0  0  0  0  0  0  0
   -2.5785    1.8540   -0.9503 C   0  0  0  0  0  0  0  0  0  0  0  0
   -0.3091   -0.4572    0.2338 C   0  0  0  0  0  0  0  0  0  0  0  0
    0.3094    0.8302    0.1796 C   0  0  0  0  0  0  0  0  0  0  0  0
   -3.6507   -0.4093    1.8574 C   0  0  0  0  0  0  0  0  0  0  0  0
    0.6128   -1.5700    0.1031 C   0  0  0  0  0  0  0  0  0  0  0  0
   -4.8863    1.4536   -0.0767 C   0  0  0  0  0  0  0  0  0  0  0  0
   -1.7274   -2.0642    0.1346 C   0  0  0  0  0  0  0  0  0  0  0  0
    1.7526    0.8456    0.0774 C   0  0  0  0  0  0  0  0  0  0  0  0
    0.6175    2.9518    0.0767 C   0  0  0  0  0  0  0  0  0  0  0  0
   -0.4091   -2.6171    0.0474 C   0  0  0  0  0  0  0  0  0  0  0  0
    1.8936    2.3087    0.0296 C   0  0  0  0  0  0  0  0  0  0  0  0
    2.0026   -1.5090    0.0358 C   0  0  0  0  0  0  0  0  0  0  0  0
    2.5948   -0.2564    0.0329 C   0  0  0  0  0  0  0  0  0  0  0  0
   -2.8518   -2.9097    0.0072 C   0  0  0  0  0  0  0  0  0  0  0  0
    0.5071    4.3555    0.0220 C   0  0  0  0  0  0  0  0  0  0  0  0
   -0.2956   -4.0229   -0.1132 C   0  0  0  0  0  0  0  0  0  0  0  0
    3.0596   -2.5100   -0.0792 C   0  0  0  0  0  0  0  0  0  0  0  0
    4.0381   -0.4263   -0.0834 C   0  0  0  0  0  0  0  0  0  0  0  0
    3.0360    3.1430   -0.0658 C   0  0  0  0  0  0  0  0  0  0  0  0
   -2.6871   -4.2850   -0.1593 C   0  0  0  0  0  0  0  0  0  0  0  0
   -1.4229   -4.8395   -0.2089 C   0  0  0  0  0  0  0  0  0  0  0  0
    1.6624    5.1311   -0.0720 C   0  0  0  0  0  0  0  0  0  0  0  0
    2.9119    4.5345   -0.1137 C   0  0  0  0  0  0  0  0  0  0  0  0
   -1.9854    3.2577    0.6151 H   0  0  0  0  0  0  0  0  0  0  0  0
   -3.0589    2.7396   -1.3797 H   0  0  0  0  0  0  0  0  0  0  0  0
   -1.9296    1.4642   -1.7455 H   0  0  0  0  0  0  0  0  0  0  0  0
   -4.3872   -1.1206    1.4804 H   0  0  0  0  0  0  0  0  0  0  0  0
   -4.2019    0.3686    2.3999 H   0  0  0  0  0  0  0  0  0  0  0  0
   -3.0347   -0.9160    2.6103 H   0  0  0  0  0  0  0  0  0  0  0  0
   -4.7687    2.1994    0.7162 H   0  0  0  0  0  0  0  0  0  0  0  0
   -5.6210    0.7061    0.2395 H   0  0  0  0  0  0  0  0  0  0  0  0
   -4.4902   -0.7634   -1.1597 H   0  0  0  0  0  0  0  0  0  0  0  0
   -3.8612   -2.5161    0.0242 H   0  0  0  0  0  0  0  0  0  0  0  0
   -0.4625    4.8438    0.0508 H   0  0  0  0  0  0  0  0  0  0  0  0
    0.6773   -4.4965   -0.1803 H   0  0  0  0  0  0  0  0  0  0  0  0
    4.0329    2.7179   -0.1041 H   0  0  0  0  0  0  0  0  0  0  0  0
   -6.2450    2.5037   -0.9747 H   0  0  0  0  0  0  0  0  0  0  0  0
   -3.5621   -4.9228   -0.2512 H   0  0  0  0  0  0  0  0  0  0  0  0
   -1.3031   -5.9115   -0.3374 H   0  0  0  0  0  0  0  0  0  0  0  0
    1.5793    6.2138   -0.1131 H   0  0  0  0  0  0  0  0  0  0  0  0
    3.8039    5.1507   -0.1867 H   0  0  0  0  0  0  0  0  0  0  0  0
    5.4582   -2.4425   -1.2533 H   0  0  0  0  0  0  0  0  0  0  0  0
  1 10  1  0  0  0  0
  1 12  1  0  0  0  0
  2 11  1  0  0  0  0
  2 44  1  0  0  0  0
  3 18  1  0  0  0  0
  3 49  1  0  0  0  0
  4 29  2  0  0  0  0
  5 30  2  0  0  0  0
  6  9  1  0  0  0  0
  6 54  1  0  0  0  0
  7 10  1  0  0  0  0
  7 14  1  0  0  0  0
  7 19  1  0  0  0  0
  8 12  1  0  0  0  0
  8 15  1  0  0  0  0
  8 21  1  0  0  0  0
  9 29  1  0  0  0  0
  9 30  1  0  0  0  0
 10 11  1  0  0  0  0
 10 16  1  0  0  0  0
 11 13  1  0  0  0  0
 11 18  1  0  0  0  0
 12 13  1  0  0  0  0
 12 36  1  0  0  0  0
 13 37  1  0  0  0  0
 13 38  1  0  0  0  0
 14 15  2  0  0  0  0
 14 17  1  0  0  0  0
 15 20  1  0  0  0  0
 16 39  1  0  0  0  0
 16 40  1  0  0  0  0
 16 41  1  0  0  0  0
 17 22  1  0  0  0  0
 17 24  2  0  0  0  0
 18 42  1  0  0  0  0
 18 43  1  0  0  0  0
 19 22  1  0  0  0  0
 19 26  2  0  0  0  0
 20 23  1  0  0  0  0
 20 25  2  0  0  0  0
 21 23  1  0  0  0  0
 21 27  2  0  0  0  0
 22 28  2  0  0  0  0
 23 31  2  0  0  0  0
 24 25  1  0  0  0  0
 24 29  1  0  0  0  0
 25 30  1  0  0  0  0
 26 32  1  0  0  0  0
 26 45  1  0  0  0  0
 27 34  1  0  0  0  0
 27 46  1  0  0  0  0
 28 33  1  0  0  0  0
 28 47  1  0  0  0  0
 31 35  1  0  0  0  0
 31 48  1  0  0  0  0
 32 33  2  0  0  0  0
 32 50  1  0  0  0  0
 33 51  1  0  0  0  0
 34 35  2  0  0  0  0
 34 52  1  0  0  0  0
 35 53  1  0  0  0  0
M  END
> <PUBCHEM_COMPOUND_CID>
121225498

> <PUBCHEM_CONFORMER_RMSD>
0.8

> <PUBCHEM_CONFORMER_DIVERSEORDER>
1

> <PUBCHEM_MMFF94_PARTIAL_CHARGES>
42
1 -0.56
10 0.54
11 0.28
12 0.54
14 -0.05
15 -0.05
17 -0.01
18 0.28
19 -0.15
2 -0.68
20 -0.01
21 -0.15
24 0.09
25 0.09
26 -0.15
27 -0.15
28 -0.15
29 0.54
3 -0.68
30 0.54
31 -0.15
32 -0.15
33 -0.15
34 -0.15
35 -0.15
4 -0.57
44 0.4
45 0.15
46 0.15
47 0.15
48 0.15
49 0.4
5 -0.57
50 0.15
51 0.15
52 0.15
53 0.15
54 0.4
6 -0.44
7 -0.04
8 -0.04
9 -0.08

> <PUBCHEM_EFFECTIVE_ROTOR_COUNT>
1.8

> <PUBCHEM_PHARMACOPHORE_FEATURES>
17
1 1 acceptor
1 2 acceptor
1 2 donor
1 3 acceptor
1 3 donor
1 4 acceptor
1 5 acceptor
1 7 cation
1 8 cation
5 1 10 11 12 13 rings
5 7 14 17 19 22 rings
5 8 15 20 21 23 rings
5 9 24 25 29 30 rings
6 14 15 17 20 24 25 rings
6 19 22 26 28 32 33 rings
6 21 23 27 31 34 35 rings
7 1 7 8 10 12 14 15 rings

> <PUBCHEM_HEAVY_ATOM_COUNT>
35

> <PUBCHEM_ATOM_DEF_STEREO_COUNT>
3

> <PUBCHEM_ATOM_UDEF_STEREO_COUNT>
0

> <PUBCHEM_BOND_DEF_STEREO_COUNT>
0

> <PUBCHEM_BOND_UDEF_STEREO_COUNT>
0

> <PUBCHEM_ISOTOPIC_ATOM_COUNT>
0

> <PUBCHEM_COMPONENT_COUNT>
1

> <PUBCHEM_CACTVS_TAUTO_COUNT>
1

> <PUBCHEM_CONFORMER_ID>
0739C11A00000001

> <PUBCHEM_MMFF94_ENERGY>
157.7531

> <PUBCHEM_FEATURE_SELFOVERLAP>
88.084

> <PUBCHEM_SHAPE_FINGERPRINT>
10675989 125 17181639681495471437
10930396 42 17978471340955443706
10967382 1 18338801100490972562
1100329 8 18410856568234999016
11115154 58 17628610001046998605
11513181 2 17698175280552925974
11578080 2 17462535584791788510
12553582 1 18339372876860578464
12788726 201 17902789661501529064
13140716 1 18123481723914937010
1361 2 18338789019190950621
13642711 20 18048859815490100869
138480 1 18410578392310571592
13911987 19 18263649450403721559
140371 6 18341618079583592984
14223421 5 18050004698914721529
14725015 67 17907848510280149722
14790565 3 18195535800311943377
14955137 171 18193583114984456739
15320467 1 18338797788838857892
15439362 3 18410565215135324821
15484559 13 18049976949970195711
15927050 60 18196095662199319933
15950262 2 15503804895978733918
16087824 20 18050007697182696213
16728300 4 17253101778670665800
18681886 176 18339070497866744339
19591789 44 18123192294775345082
19930381 70 17977945683749248143
20600515 1 18129114350617890416
20739085 24 17908175125035756408
20764821 26 18265893751394483076
20775438 99 17622400186467601127
20905425 154 17909276023916804646
21796203 349 17903966298031152234
22113638 7 18411133597957559518
22393880 68 18123764303089074788
23559900 14 18341324574361398840
266924 87 17834388304234397503
283562 15 17909265780768171184
3027735 51 17692532633996770025
3178227 256 18338809910154608417
3380486 145 18336279997864578344
350125 39 17978514461815080168
3882209 13 17908382026933909382
463206 1 18409168792406754966
484989 97 18336262427649755495
6004065 56 18339346467154408197

> <PUBCHEM_SHAPE_MULTIPOLES>
670.12
8.3
7.1
0.89
1.06
1.58
-0.11
-1.16
0.81
1.88
0.94
-0.9
-0.44
0.47

> <PUBCHEM_SHAPE_SELFOVERLAP>
1574.245

> <PUBCHEM_SHAPE_VOLUME>
333.8

> <PUBCHEM_COORDINATE_TYPE>
2
5
10

$$$$
