121231412
  -OEChem-03292013293D

 41 44  0     1  0  0  0  0  0999 V2000
    4.8023    1.7152    1.1978 S   0  0  0  0  0  0  0  0  0  0  0  0
    1.5412   -3.8521   -2.2296 F   0  0  0  0  0  0  0  0  0  0  0  0
   -1.4506    2.0848    1.8247 O   0  0  0  0  0  0  0  0  0  0  0  0
    0.9207    1.0238   -1.3257 O   0  0  0  0  0  0  0  0  0  0  0  0
   -0.3959   -2.1530    2.6201 O   0  0  0  0  0  0  0  0  0  0  0  0
   -1.1432    0.2764    0.3346 N   0  0  0  0  0  0  0  0  0  0  0  0
    2.3602    0.9103    0.5252 N   0  0  0  0  0  0  0  0  0  0  0  0
    3.7042    2.1582   -1.1001 N   0  0  0  0  0  0  0  0  0  0  0  0
    0.2009   -0.1542    0.6526 C   0  0  1  0  0  0  0  0  0  0  0  0
   -1.9315   -0.3911   -0.6946 C   0  0  0  0  0  0  0  0  0  0  0  0
   -3.2041    0.3842   -0.6604 C   0  0  0  0  0  0  0  0  0  0  0  0
   -3.1344    1.3938    0.3006 C   0  0  0  0  0  0  0  0  0  0  0  0
   -1.8164    1.3308    0.9418 C   0  0  0  0  0  0  0  0  0  0  0  0
    0.3931   -1.6349    0.4165 C   0  0  0  0  0  0  0  0  0  0  0  0
    1.1811    0.6749   -0.1775 C   0  0  0  0  0  0  0  0  0  0  0  0
   -4.3479    0.2202   -1.4183 C   0  0  0  0  0  0  0  0  0  0  0  0
   -4.1780    2.2652    0.5446 C   0  0  0  0  0  0  0  0  0  0  0  0
    0.0843   -2.5617    1.4123 C   0  0  0  0  0  0  0  0  0  0  0  0
    0.8860   -2.0710   -0.8134 C   0  0  0  0  0  0  0  0  0  0  0  0
   -5.4200    1.0896   -1.1912 C   0  0  0  0  0  0  0  0  0  0  0  0
   -5.3353    2.1029   -0.2183 C   0  0  0  0  0  0  0  0  0  0  0  0
    0.2685   -3.9244    1.1782 C   0  0  0  0  0  0  0  0  0  0  0  0
    1.0699   -3.4338   -1.0476 C   0  0  0  0  0  0  0  0  0  0  0  0
    0.7611   -4.3605   -0.0519 C   0  0  0  0  0  0  0  0  0  0  0  0
    3.5108    1.5991    0.0737 C   0  0  0  0  0  0  0  0  0  0  0  0
    5.7084    2.5845    0.0296 C   0  0  0  0  0  0  0  0  0  0  0  0
    4.9645    2.7228   -1.1234 C   0  0  0  0  0  0  0  0  0  0  0  0
    0.3778    0.0897    1.7082 H   0  0  0  0  0  0  0  0  0  0  0  0
   -1.4366   -0.3016   -1.6652 H   0  0  0  0  0  0  0  0  0  0  0  0
   -2.1188   -1.4330   -0.4214 H   0  0  0  0  0  0  0  0  0  0  0  0
   -4.4188   -0.5589   -2.1694 H   0  0  0  0  0  0  0  0  0  0  0  0
   -4.1104    3.0448    1.2942 H   0  0  0  0  0  0  0  0  0  0  0  0
    1.1246   -1.3955   -1.6270 H   0  0  0  0  0  0  0  0  0  0  0  0
   -6.3316    0.9824   -1.7733 H   0  0  0  0  0  0  0  0  0  0  0  0
   -6.1822    2.7656   -0.0611 H   0  0  0  0  0  0  0  0  0  0  0  0
    2.4455    0.5530    1.4734 H   0  0  0  0  0  0  0  0  0  0  0  0
    0.0324   -4.6575    1.9449 H   0  0  0  0  0  0  0  0  0  0  0  0
    0.9041   -5.4213   -0.2348 H   0  0  0  0  0  0  0  0  0  0  0  0
   -0.5521   -2.9327    3.1800 H   0  0  0  0  0  0  0  0  0  0  0  0
    6.7074    2.9414    0.2347 H   0  0  0  0  0  0  0  0  0  0  0  0
    5.2980    3.2309   -2.0182 H   0  0  0  0  0  0  0  0  0  0  0  0
  1 25  1  0  0  0  0
  1 26  1  0  0  0  0
  2 23  1  0  0  0  0
  3 13  2  0  0  0  0
  4 15  2  0  0  0  0
  5 18  1  0  0  0  0
  5 39  1  0  0  0  0
  6  9  1  0  0  0  0
  6 10  1  0  0  0  0
  6 13  1  0  0  0  0
  7 15  1  0  0  0  0
  7 25  1  0  0  0  0
  7 36  1  0  0  0  0
  8 25  2  0  0  0  0
  8 27  1  0  0  0  0
  9 14  1  0  0  0  0
  9 15  1  0  0  0  0
  9 28  1  0  0  0  0
 10 11  1  0  0  0  0
 10 29  1  0  0  0  0
 10 30  1  0  0  0  0
 11 12  1  0  0  0  0
 11 16  2  0  0  0  0
 12 13  1  0  0  0  0
 12 17  2  0  0  0  0
 14 18  2  0  0  0  0
 14 19  1  0  0  0  0
 16 20  1  0  0  0  0
 16 31  1  0  0  0  0
 17 21  1  0  0  0  0
 17 32  1  0  0  0  0
 18 22  1  0  0  0  0
 19 23  2  0  0  0  0
 19 33  1  0  0  0  0
 20 21  2  0  0  0  0
 20 34  1  0  0  0  0
 21 35  1  0  0  0  0
 22 24  2  0  0  0  0
 22 37  1  0  0  0  0
 23 24  1  0  0  0  0
 24 38  1  0  0  0  0
 26 27  2  0  0  0  0
 26 40  1  0  0  0  0
 27 41  1  0  0  0  0
M  END
> <PUBCHEM_COMPOUND_CID>
121231412

> <PUBCHEM_CONFORMER_RMSD>
0.8

> <PUBCHEM_CONFORMER_DIVERSEORDER>
1
111
105
5
123
88
37
149
148
18
130
98
11
153
138
131
129
96
24
132
12
43
135
126
73
101
100
124
146
122
152
117
78
99
51
91
21
140
110
103
85
17
151
14
30
76
42
143
121
93
83
34
35
8
106
155
154
44
27
28
80
29
74
50
141
3
60
31
144
79
57
22
136
63
120
69
33
139
147
86
32
92
49
16
127
128
134
61
133
97
142
90
59
70
107
118
81
145
137
72
20
89
87
75
2
150
23
109
13
125
46
119
10
54
55
68
116
64
65
66
9
26
15
40
82
108
84
56
48
25
6
67
47
115
112
36
53
7
113
58
4
45
104
52
77
114
19
62
102
38
71
41
39
95
94

> <PUBCHEM_MMFF94_PARTIAL_CHARGES>
38
1 -0.08
10 0.44
11 -0.14
12 0.09
13 0.54
14 -0.14
15 0.57
16 -0.15
17 -0.15
18 0.08
19 -0.15
2 -0.19
20 -0.15
21 -0.15
22 -0.15
23 0.19
24 -0.15
25 0.44
26 -0.11
27 0.08
3 -0.57
31 0.15
32 0.15
33 0.15
34 0.15
35 0.15
36 0.37
37 0.15
38 0.15
39 0.45
4 -0.57
40 0.15
41 0.15
5 -0.53
6 -0.66
7 -0.49
8 -0.57
9 0.5

> <PUBCHEM_EFFECTIVE_ROTOR_COUNT>
5.4

> <PUBCHEM_PHARMACOPHORE_FEATURES>
8
1 3 acceptor
1 4 acceptor
1 5 donor
1 7 donor
5 1 8 25 26 27 rings
5 6 10 11 12 13 rings
6 11 12 16 17 20 21 rings
6 14 18 19 22 23 24 rings

> <PUBCHEM_HEAVY_ATOM_COUNT>
27

> <PUBCHEM_ATOM_DEF_STEREO_COUNT>
0

> <PUBCHEM_ATOM_UDEF_STEREO_COUNT>
1

> <PUBCHEM_BOND_DEF_STEREO_COUNT>
0

> <PUBCHEM_BOND_UDEF_STEREO_COUNT>
0

> <PUBCHEM_ISOTOPIC_ATOM_COUNT>
0

> <PUBCHEM_COMPONENT_COUNT>
1

> <PUBCHEM_CACTVS_TAUTO_COUNT>
27

> <PUBCHEM_CONFORMER_ID>
0739D83400000001

> <PUBCHEM_MMFF94_ENERGY>
69.6064

> <PUBCHEM_FEATURE_SELFOVERLAP>
40.685

> <PUBCHEM_SHAPE_FINGERPRINT>
105312 117 18262809587188072996
10554248 39 17840287949614099381
10721379 63 18126292930228587549
10764073 3 14566143557418008984
11049842 53 16125011279561635949
11763715 3 17035001105612293466
12293681 160 18060420243716262049
12597179 24 18410580616918891254
12788726 201 17830442140023446178
13257819 37 18265059200520396158
133893 2 18194405485151755881
13540713 5 17843960348267299521
13631057 29 18268420417090196535
14955137 171 16975653900366076355
15131766 46 14636845733572473324
15439362 3 18336828594153379580
15664445 248 17766283072125571959
15878777 1 17041700863794142778
1813 80 17692808190841278527
20197701 30 18409720794451556928
20554085 129 18200572774779473664
20567600 347 18411414016462090055
20600515 1 16761403017338396224
21033648 29 14490735841850529661
21033650 10 17629794286290733656
22182313 1 18194712425480506070
2255824 54 18194680363507514579
22907989 373 17759536851145003348
23366157 5 18193555562848230907
23559900 14 17486197921599420639
23569917 315 18409443709000995034
23598288 3 17754748448363169404
3380486 145 17043453613860643130
3411729 13 18336259038297631297
3759504 43 18263643029559703076
394222 165 18263068960078481747
4017518 198 18202282503694504022
4409770 3 18050573133673638474
474 4 18336544928163118848
497634 4 16228574640843634858
504843 32 18041558173291609330
59444896 2 18050247558215845306
59755656 520 18337943593364867884
6058803 2 17984974904936219689
6691757 9 18271243928432487624
6898599 12 17975705201364987692
9841814 1 17901661562566409491
9981440 41 18411420643586007354

> <PUBCHEM_SHAPE_MULTIPOLES>
519.67
10.18
5.19
1.68
0.75
7.07
-0.23
-15.38
2.48
3.59
0.24
0.1
0.82
-0.15

> <PUBCHEM_SHAPE_SELFOVERLAP>
1138.686

> <PUBCHEM_SHAPE_VOLUME>
284.1

> <PUBCHEM_COORDINATE_TYPE>
2
5
10

$$$$
