121232389
  -OEChem-03292013293D

 60 62  0     0  0  0  0  0  0999 V2000
    7.4165   -1.3000   -1.5154 Cl  0  0  0  0  0  0  0  0  0  0  0  0
   -1.4763   -3.8902    1.0899 O   0  0  0  0  0  0  0  0  0  0  0  0
   -4.4721   -1.2816   -1.7783 O   0  0  0  0  0  0  0  0  0  0  0  0
   -9.4223    3.9909    0.6752 O   0  0  0  0  0  0  0  0  0  0  0  0
   -9.4223    2.2704    2.1607 O   0  0  0  0  0  0  0  0  0  0  0  0
    2.0931   -1.7096    0.3794 N   0  0  0  0  0  0  0  0  0  0  0  0
   -2.3836   -3.0914   -0.8911 N   0  0  0  0  0  0  0  0  0  0  0  0
   -5.9547   -0.9033    0.0032 N   0  0  0  0  0  0  0  0  0  0  0  0
    0.9414   -2.5187    0.7581 C   0  0  0  0  0  0  0  0  0  0  0  0
    3.1418   -1.7949    1.3863 C   0  0  0  0  0  0  0  0  0  0  0  0
   -0.1605   -2.3961   -0.2892 C   0  0  0  0  0  0  0  0  0  0  0  0
    4.3466   -0.9733    1.0119 C   0  0  0  0  0  0  0  0  0  0  0  0
   -3.6496   -3.7746   -0.7738 C   0  0  0  0  0  0  0  0  0  0  0  0
   -1.3900   -3.2121    0.0696 C   0  0  0  0  0  0  0  0  0  0  0  0
    6.5783    0.5505    0.3190 C   0  0  0  0  0  0  0  0  0  0  0  0
    5.2342   -1.4376    0.0412 C   0  0  0  0  0  0  0  0  0  0  0  0
    4.5749    0.2531    1.6363 C   0  0  0  0  0  0  0  0  0  0  0  0
   -4.6842   -2.9364   -0.0358 C   0  0  0  0  0  0  0  0  0  0  0  0
    6.3498   -0.6757   -0.3053 C   0  0  0  0  0  0  0  0  0  0  0  0
    5.6907    1.0150    1.2898 C   0  0  0  0  0  0  0  0  0  0  0  0
    7.7258    1.3749   -0.0101 C   0  0  0  0  0  0  0  0  0  0  0  0
   -5.0046   -1.6146   -0.7248 C   0  0  0  0  0  0  0  0  0  0  0  0
    8.9227    1.2143    0.6880 C   0  0  0  0  0  0  0  0  0  0  0  0
    7.6325    2.3276   -1.0245 C   0  0  0  0  0  0  0  0  0  0  0  0
   -6.5090    0.3617   -0.3058 C   0  0  0  0  0  0  0  0  0  0  0  0
   10.0263    2.0067    0.3718 C   0  0  0  0  0  0  0  0  0  0  0  0
    8.7360    3.1199   -1.3408 C   0  0  0  0  0  0  0  0  0  0  0  0
   -7.4582    0.9336    0.5411 C   0  0  0  0  0  0  0  0  0  0  0  0
   -6.1057    1.0363   -1.4581 C   0  0  0  0  0  0  0  0  0  0  0  0
    9.9329    2.9595   -0.6427 C   0  0  0  0  0  0  0  0  0  0  0  0
   -8.0041    2.1803    0.2358 C   0  0  0  0  0  0  0  0  0  0  0  0
   -6.6516    2.2831   -1.7635 C   0  0  0  0  0  0  0  0  0  0  0  0
   -7.6009    2.8552   -0.9165 C   0  0  0  0  0  0  0  0  0  0  0  0
   -8.9940    2.7769    1.1183 C   0  0  0  0  0  0  0  0  0  0  0  0
    1.2355   -3.5714    0.8521 H   0  0  0  0  0  0  0  0  0  0  0  0
    0.5532   -2.1971    1.7328 H   0  0  0  0  0  0  0  0  0  0  0  0
    3.4640   -2.8363    1.5172 H   0  0  0  0  0  0  0  0  0  0  0  0
    2.7624   -1.4646    2.3620 H   0  0  0  0  0  0  0  0  0  0  0  0
    0.2049   -2.7397   -1.2650 H   0  0  0  0  0  0  0  0  0  0  0  0
   -0.4692   -1.3485   -0.3948 H   0  0  0  0  0  0  0  0  0  0  0  0
    1.8018   -0.7380    0.2709 H   0  0  0  0  0  0  0  0  0  0  0  0
   -3.9887   -3.9954   -1.7917 H   0  0  0  0  0  0  0  0  0  0  0  0
   -3.5007   -4.7262   -0.2523 H   0  0  0  0  0  0  0  0  0  0  0  0
    5.0519   -2.3949   -0.4424 H   0  0  0  0  0  0  0  0  0  0  0  0
    3.8907    0.6282    2.3928 H   0  0  0  0  0  0  0  0  0  0  0  0
   -4.3301   -2.7127    0.9781 H   0  0  0  0  0  0  0  0  0  0  0  0
   -5.6151   -3.5092    0.0516 H   0  0  0  0  0  0  0  0  0  0  0  0
   -2.2288   -2.5005   -1.7029 H   0  0  0  0  0  0  0  0  0  0  0  0
    5.8513    1.9687    1.7875 H   0  0  0  0  0  0  0  0  0  0  0  0
    9.0125    0.4760    1.4814 H   0  0  0  0  0  0  0  0  0  0  0  0
    6.7071    2.4653   -1.5788 H   0  0  0  0  0  0  0  0  0  0  0  0
   -6.3012   -1.3274    0.8612 H   0  0  0  0  0  0  0  0  0  0  0  0
   10.9583    1.8818    0.9152 H   0  0  0  0  0  0  0  0  0  0  0  0
    8.6635    3.8617   -2.1308 H   0  0  0  0  0  0  0  0  0  0  0  0
   -7.7682    0.4019    1.4380 H   0  0  0  0  0  0  0  0  0  0  0  0
   -5.3767    0.6598   -2.1615 H   0  0  0  0  0  0  0  0  0  0  0  0
   10.7922    3.5764   -0.8890 H   0  0  0  0  0  0  0  0  0  0  0  0
   -6.3379    2.8092   -2.6606 H   0  0  0  0  0  0  0  0  0  0  0  0
   -7.9998    3.8273   -1.1923 H   0  0  0  0  0  0  0  0  0  0  0  0
  -10.0893    4.3846    1.2773 H   0  0  0  0  0  0  0  0  0  0  0  0
  1 19  1  0  0  0  0
  2 14  2  0  0  0  0
  3 22  2  0  0  0  0
  4 34  1  0  0  0  0
  4 60  1  0  0  0  0
  5 34  2  0  0  0  0
  6  9  1  0  0  0  0
  6 10  1  0  0  0  0
  6 41  1  0  0  0  0
  7 13  1  0  0  0  0
  7 14  1  0  0  0  0
  7 48  1  0  0  0  0
  8 22  1  0  0  0  0
  8 25  1  0  0  0  0
  8 52  1  0  0  0  0
  9 11  1  0  0  0  0
  9 35  1  0  0  0  0
  9 36  1  0  0  0  0
 10 12  1  0  0  0  0
 10 37  1  0  0  0  0
 10 38  1  0  0  0  0
 11 14  1  0  0  0  0
 11 39  1  0  0  0  0
 11 40  1  0  0  0  0
 12 16  2  0  0  0  0
 12 17  1  0  0  0  0
 13 18  1  0  0  0  0
 13 42  1  0  0  0  0
 13 43  1  0  0  0  0
 15 19  2  0  0  0  0
 15 20  1  0  0  0  0
 15 21  1  0  0  0  0
 16 19  1  0  0  0  0
 16 44  1  0  0  0  0
 17 20  2  0  0  0  0
 17 45  1  0  0  0  0
 18 22  1  0  0  0  0
 18 46  1  0  0  0  0
 18 47  1  0  0  0  0
 20 49  1  0  0  0  0
 21 23  2  0  0  0  0
 21 24  1  0  0  0  0
 23 26  1  0  0  0  0
 23 50  1  0  0  0  0
 24 27  2  0  0  0  0
 24 51  1  0  0  0  0
 25 28  1  0  0  0  0
 25 29  2  0  0  0  0
 26 30  2  0  0  0  0
 26 53  1  0  0  0  0
 27 30  1  0  0  0  0
 27 54  1  0  0  0  0
 28 31  2  0  0  0  0
 28 55  1  0  0  0  0
 29 32  1  0  0  0  0
 29 56  1  0  0  0  0
 30 57  1  0  0  0  0
 31 33  1  0  0  0  0
 31 34  1  0  0  0  0
 32 33  2  0  0  0  0
 32 58  1  0  0  0  0
 33 59  1  0  0  0  0
M  END
> <PUBCHEM_COMPOUND_CID>
121232389

> <PUBCHEM_CONFORMER_RMSD>
1.2

> <PUBCHEM_CONFORMER_DIVERSEORDER>
2
12
62
133
50
3
70
25
209
22
67
214
111
125
13
204
169
147
38
205
1
83
186
10
99
191
149
170
146
60
114
181
156
218
14
129
17
192
40
49
138
82
201
27
144
117
18
97
118
68
35
167
6
122
23
173
42
217
130
41
32
8
110
165
16
126
57
73
96
87
154
81
185
59
128
200
28
108
150
80
64
208
145
88
56
124
162
215
172
116
72
5
107
135
180
109
65
197
92
151
105
4
26
90
178
123
158
74
206
20
94
132
63
100
113
131
119
136
91
134
55
141
137
45
15
189
164
89
24
176
69
21
29
48
216
31
58
175
30
61
106
160
142
86
174
7
179
198
66
43
157
52
199
34
53
127
121
168
163
102
19
155
152
93
166
148
9
161
95
219
159
75
84
51
46
210
104
37
47
79
195
112
171
207
153
183
139
11
213
187
196
184
212
54
103
188
98
85
39
33
71
177
44
194
211
36
115
202
203
78
120
193
77
143
76
140
101
182
190

> <PUBCHEM_MMFF94_PARTIAL_CHARGES>
48
1 -0.18
10 0.41
11 0.06
12 -0.14
13 0.3
14 0.57
16 -0.15
17 -0.15
18 0.06
19 0.18
2 -0.57
20 -0.15
22 0.57
23 -0.15
24 -0.15
25 0.12
26 -0.15
27 -0.15
28 -0.15
29 -0.15
3 -0.57
30 -0.15
31 0.09
32 -0.15
33 -0.15
34 0.63
4 -0.65
41 0.36
44 0.15
45 0.15
48 0.37
49 0.15
5 -0.57
50 0.15
51 0.15
52 0.37
53 0.15
54 0.15
55 0.15
56 0.15
57 0.15
58 0.15
59 0.15
6 -0.9
60 0.5
7 -0.73
8 -0.55
9 0.27

> <PUBCHEM_EFFECTIVE_ROTOR_COUNT>
13

> <PUBCHEM_PHARMACOPHORE_FEATURES>
12
1 2 acceptor
1 3 acceptor
1 4 acceptor
1 5 acceptor
1 6 cation
1 6 donor
1 7 donor
1 8 donor
3 4 5 34 anion
6 12 15 16 17 19 20 rings
6 21 23 24 26 27 30 rings
6 25 28 29 31 32 33 rings

> <PUBCHEM_HEAVY_ATOM_COUNT>
34

> <PUBCHEM_ATOM_DEF_STEREO_COUNT>
0

> <PUBCHEM_ATOM_UDEF_STEREO_COUNT>
0

> <PUBCHEM_BOND_DEF_STEREO_COUNT>
0

> <PUBCHEM_BOND_UDEF_STEREO_COUNT>
0

> <PUBCHEM_ISOTOPIC_ATOM_COUNT>
0

> <PUBCHEM_COMPONENT_COUNT>
1

> <PUBCHEM_CACTVS_TAUTO_COUNT>
27

> <PUBCHEM_CONFORMER_ID>
0739DC0500000002

> <PUBCHEM_MMFF94_ENERGY>
86.3684

> <PUBCHEM_FEATURE_SELFOVERLAP>
60.954

> <PUBCHEM_SHAPE_FINGERPRINT>
10049733 244 18341619248432110355
11181472 205 18333726932603730930
11408170 132 18410862075712700318
11421887 45 18341595028252419097
11578821 258 18192712461554672468
12013929 27 12175609711982253155
12013929 29 18409443692004943270
12061779 8 18335129886995505811
12559415 36 18262247633487891165
12838863 1 8214133059137425881
13974486 7 7853273312810795729
14201967 108 9367059008540045433
14359421 15 9943516402943908597
14394314 77 18334293188574285325
15419008 91 17201906249860488258
15455200 100 13408232667663358017
15685185 35 18272091566293445569
16728433 281 18413669131937864747
19303781 99 8070022238705752283
2026 5 10303815380485381109
212700 22 11241964885108323881
22002106 203 8069736382772650305
22864921 47 8790882973659634675
23516275 100 18046054966435806877
23569943 247 8574126390850755101
24771293 8 18186797019855209534
3711267 37 18040433321599153470
3918712 181 18410008823749022920
406291 66 9367341548599235635
4366758 26 18116717507587089588
44802255 64 17703228528662765423
44880568 143 18264212568710914310
5874358 3 9511460013603282457
5937810 71 18411136960879957487
6201320 221 16271380595935505950
6201320 82 18338248132321336532
6289498 60 18114733863254767256
636775 72 18334573594141049247
6673363 416 18270394027677924991
6698420 124 17967814955547620434

> <PUBCHEM_SHAPE_MULTIPOLES>
663.15
42.38
5.38
1.56
2.82
0.92
-0.03
-55.21
0.03
-7.76
0.34
-0.9
-0.5
-3.41

> <PUBCHEM_SHAPE_SELFOVERLAP>
1400.615

> <PUBCHEM_SHAPE_VOLUME>
369.2

> <PUBCHEM_COORDINATE_TYPE>
2
5
10

$$$$
