121235273
  -OEChem-03292013293D

 38 40  0     1  0  0  0  0  0999 V2000
   -2.9752    0.2092    0.9251 O   0  0  0  0  0  0  0  0  0  0  0  0
   -3.1443   -0.8686   -1.8692 O   0  0  0  0  0  0  0  0  0  0  0  0
   -5.3033   -1.1454    1.7048 O   0  0  0  0  0  0  0  0  0  0  0  0
    3.6992   -1.3703   -0.0482 O   0  0  0  0  0  0  0  0  0  0  0  0
   -0.6595    0.1064    0.1515 N   0  0  0  0  0  0  0  0  0  0  0  0
    0.6596   -1.6845    0.0019 N   0  0  0  0  0  0  0  0  0  0  0  0
    1.0221    1.8575    0.2295 N   0  0  0  0  0  0  0  0  0  0  0  0
    3.2757    0.9275    0.1155 N   0  0  0  0  0  0  0  0  0  0  0  0
    2.9119    3.2364    0.2752 N   0  0  0  0  0  0  0  0  0  0  0  0
   -1.9304    0.9251    0.2381 C   0  0  1  0  0  0  0  0  0  0  0  0
   -3.6344    0.3548   -1.3368 C   0  0  2  0  0  0  0  0  0  0  0  0
   -2.4889    1.3221   -1.1311 C   0  0  0  0  0  0  0  0  0  0  0  0
   -4.1418    0.1714    0.0847 C   0  0  1  0  0  0  0  0  0  0  0  0
   -4.9073   -1.1132    0.3431 C   0  0  0  0  0  0  0  0  0  0  0  0
    0.6217    0.5793    0.1535 C   0  0  0  0  0  0  0  0  0  0  0  0
   -0.5849   -1.2582    0.0591 C   0  0  0  0  0  0  0  0  0  0  0  0
    1.4242   -0.5465    0.0600 C   0  0  0  0  0  0  0  0  0  0  0  0
    2.7997   -0.3387    0.0421 C   0  0  0  0  0  0  0  0  0  0  0  0
    2.3705    1.9322    0.2033 C   0  0  0  0  0  0  0  0  0  0  0  0
    5.0768   -1.0173   -0.0565 C   0  0  0  0  0  0  0  0  0  0  0  0
    5.9086   -2.2791   -0.1456 C   0  0  0  0  0  0  0  0  0  0  0  0
   -1.6599    1.8027    0.8360 H   0  0  0  0  0  0  0  0  0  0  0  0
   -4.4083    0.7353   -2.0097 H   0  0  0  0  0  0  0  0  0  0  0  0
   -1.7364    1.2937   -1.9251 H   0  0  0  0  0  0  0  0  0  0  0  0
   -2.8864    2.3424   -1.0668 H   0  0  0  0  0  0  0  0  0  0  0  0
   -4.7516    1.0340    0.3829 H   0  0  0  0  0  0  0  0  0  0  0  0
   -4.2793   -1.9927    0.1691 H   0  0  0  0  0  0  0  0  0  0  0  0
   -5.7993   -1.1723   -0.2878 H   0  0  0  0  0  0  0  0  0  0  0  0
   -2.7677   -0.6759   -2.7447 H   0  0  0  0  0  0  0  0  0  0  0  0
   -1.4609   -1.8917    0.0441 H   0  0  0  0  0  0  0  0  0  0  0  0
   -5.7928   -1.9745    1.8412 H   0  0  0  0  0  0  0  0  0  0  0  0
    5.2969   -0.3800   -0.9212 H   0  0  0  0  0  0  0  0  0  0  0  0
    5.3352   -0.4830    0.8656 H   0  0  0  0  0  0  0  0  0  0  0  0
    2.2891    4.0295    0.3413 H   0  0  0  0  0  0  0  0  0  0  0  0
    3.9150    3.3590    0.2591 H   0  0  0  0  0  0  0  0  0  0  0  0
    5.6992   -2.9398    0.7023 H   0  0  0  0  0  0  0  0  0  0  0  0
    6.9766   -2.0440   -0.1542 H   0  0  0  0  0  0  0  0  0  0  0  0
    5.6629   -2.8396   -1.0536 H   0  0  0  0  0  0  0  0  0  0  0  0
  1 10  1  0  0  0  0
  1 13  1  0  0  0  0
  2 11  1  0  0  0  0
  2 29  1  0  0  0  0
  3 14  1  0  0  0  0
  3 31  1  0  0  0  0
  4 18  1  0  0  0  0
  4 20  1  0  0  0  0
  5 10  1  0  0  0  0
  5 15  1  0  0  0  0
  5 16  1  0  0  0  0
  6 16  2  0  0  0  0
  6 17  1  0  0  0  0
  7 15  1  0  0  0  0
  7 19  2  0  0  0  0
  8 18  2  0  0  0  0
  8 19  1  0  0  0  0
  9 19  1  0  0  0  0
  9 34  1  0  0  0  0
  9 35  1  0  0  0  0
 10 12  1  0  0  0  0
 10 22  1  0  0  0  0
 11 12  1  0  0  0  0
 11 13  1  0  0  0  0
 11 23  1  0  0  0  0
 12 24  1  0  0  0  0
 12 25  1  0  0  0  0
 13 14  1  0  0  0  0
 13 26  1  0  0  0  0
 14 27  1  0  0  0  0
 14 28  1  0  0  0  0
 15 17  2  0  0  0  0
 16 30  1  0  0  0  0
 17 18  1  0  0  0  0
 20 21  1  0  0  0  0
 20 32  1  0  0  0  0
 20 33  1  0  0  0  0
 21 36  1  0  0  0  0
 21 37  1  0  0  0  0
 21 38  1  0  0  0  0
M  END
> <PUBCHEM_COMPOUND_CID>
121235273

> <PUBCHEM_CONFORMER_RMSD>
0.8

> <PUBCHEM_CONFORMER_DIVERSEORDER>
1
34
38
14
32
33
41
20
24
6
37
3
15
8
5
31
17
2
28
22
26
40
9
11
4
23
19
7
13
25
39
18
16
30
12
35
10
21
29
27
36

> <PUBCHEM_MMFF94_PARTIAL_CHARGES>
24
1 -0.56
10 0.54
11 0.28
13 0.28
14 0.28
15 0.11
16 0.04
17 0.23
18 0.39
19 0.72
2 -0.68
20 0.28
29 0.4
3 -0.68
30 0.15
31 0.4
34 0.4
35 0.4
4 -0.36
5 0.05
6 -0.57
7 -0.57
8 -0.62
9 -0.9

> <PUBCHEM_EFFECTIVE_ROTOR_COUNT>
5

> <PUBCHEM_PHARMACOPHORE_FEATURES>
11
1 1 acceptor
1 2 acceptor
1 2 donor
1 3 acceptor
1 3 donor
1 9 donor
3 5 6 16 cation
4 7 8 9 19 cation
5 1 10 11 12 13 rings
5 5 6 15 16 17 rings
6 7 8 15 17 18 19 rings

> <PUBCHEM_HEAVY_ATOM_COUNT>
21

> <PUBCHEM_ATOM_DEF_STEREO_COUNT>
2

> <PUBCHEM_ATOM_UDEF_STEREO_COUNT>
1

> <PUBCHEM_BOND_DEF_STEREO_COUNT>
0

> <PUBCHEM_BOND_UDEF_STEREO_COUNT>
0

> <PUBCHEM_ISOTOPIC_ATOM_COUNT>
0

> <PUBCHEM_COMPONENT_COUNT>
1

> <PUBCHEM_CACTVS_TAUTO_COUNT>
3

> <PUBCHEM_CONFORMER_ID>
0739E74900000001

> <PUBCHEM_MMFF94_ENERGY>
50.2415

> <PUBCHEM_FEATURE_SELFOVERLAP>
55.959

> <PUBCHEM_SHAPE_FINGERPRINT>
10366900 7 17313388919843107585
12236239 1 17703787024839529281
12403259 226 18335415764092044436
12403259 415 18040430001684599453
12616971 3 18060701710434736239
12715332 25 18131628993339529334
12916754 54 18410854386855881681
13009979 54 17917159299398357816
13288520 33 18410576141325462015
13583140 156 16807260688163893009
13690532 89 18340767053304297938
13760787 5 18273210932805859789
13862211 1 18339356354322292538
13955234 65 18269554000303531608
14350574 20 18334299764095050147
15196674 1 18410293609755310361
17349148 13 17988923358085762850
1813 80 18058743398916804996
18186145 218 18343579667939960604
18222031 100 18271229531469833266
18785283 64 18263081171003053364
200 152 18202274793431030845
20028762 73 18201998858704709071
20645477 70 18408041827606427330
21041028 32 18272376343098167449
21065201 7 17095232627622604193
21150785 3 16950577579627979126
21267235 1 18340214003340482970
21682296 61 18270405975427616166
21709351 56 18340478985305011405
221490 88 18408603681805137306
23402539 116 18128810851122791022
23557571 272 17240201011310234047
23559900 14 17603585235823216875
296302 2 9655574115004887725
312423 11 18411711979723720321
3286 77 18408608058414099180
335352 9 18339922602356670093
465052 167 18412270515004571302
5104073 3 18409729556248560921
59755656 215 17748826294021362763
633830 44 18187916292337369957
7495541 125 18261399961535817378
8863177 126 18188219808886258331
9971528 1 18272358764387303272
9981440 41 17478870037277781608

> <PUBCHEM_SHAPE_MULTIPOLES>
383.79
11.34
2.31
1.04
2.39
1.23
-0.19
-6.33
0.61
2.81
0.18
-1.63
-0.15
0.98

> <PUBCHEM_SHAPE_SELFOVERLAP>
820.138

> <PUBCHEM_SHAPE_VOLUME>
213.1

> <PUBCHEM_COORDINATE_TYPE>
2
5
10

$$$$
