121231123
  -OEChem-03292013293D

 35 37  0     1  0  0  0  0  0999 V2000
    0.2827    0.6808   -0.3610 O   0  0  0  0  0  0  0  0  0  0  0  0
    1.6758   -2.7376   -0.6486 O   0  0  0  0  0  0  0  0  0  0  0  0
    4.3289   -1.7486    0.7518 O   0  0  0  0  0  0  0  0  0  0  0  0
    4.4854    2.8576   -0.4267 O   0  0  0  0  0  0  0  0  0  0  0  0
   -4.3268    1.0824    2.0098 O   0  0  0  0  0  0  0  0  0  0  0  0
   -5.9795    0.5248   -0.1542 O   0  0  0  0  0  0  0  0  0  0  0  0
   -0.4270   -0.5647   -0.4605 C   0  0  1  0  0  0  0  0  0  0  0  0
    0.0057   -1.5486    0.6335 C   0  0  0  0  0  0  0  0  0  0  0  0
    1.4887   -1.8701    0.4659 C   0  0  2  0  0  0  0  0  0  0  0  0
    2.2742   -0.6132    0.2189 C   0  0  0  0  0  0  0  0  0  0  0  0
    1.6376    0.5698   -0.1810 C   0  0  0  0  0  0  0  0  0  0  0  0
   -1.9110   -0.2732   -0.3751 C   0  0  0  0  0  0  0  0  0  0  0  0
    3.6673   -0.6152    0.3788 C   0  0  0  0  0  0  0  0  0  0  0  0
    2.3799    1.7358   -0.3866 C   0  0  0  0  0  0  0  0  0  0  0  0
   -2.4482    0.2752    0.7894 C   0  0  0  0  0  0  0  0  0  0  0  0
   -2.7401   -0.5522   -1.4616 C   0  0  0  0  0  0  0  0  0  0  0  0
    4.4077    0.5470    0.1605 C   0  0  0  0  0  0  0  0  0  0  0  0
    3.7637    1.7225   -0.2190 C   0  0  0  0  0  0  0  0  0  0  0  0
   -3.8146    0.5447    0.8677 C   0  0  0  0  0  0  0  0  0  0  0  0
   -4.1065   -0.2829   -1.3832 C   0  0  0  0  0  0  0  0  0  0  0  0
   -4.6438    0.2656   -0.2187 C   0  0  0  0  0  0  0  0  0  0  0  0
   -0.2069   -0.9893   -1.4498 H   0  0  0  0  0  0  0  0  0  0  0  0
   -0.1370   -1.1036    1.6266 H   0  0  0  0  0  0  0  0  0  0  0  0
   -0.5942   -2.4654    0.5840 H   0  0  0  0  0  0  0  0  0  0  0  0
    1.8488   -2.3828    1.3653 H   0  0  0  0  0  0  0  0  0  0  0  0
    1.8736    2.6515   -0.6832 H   0  0  0  0  0  0  0  0  0  0  0  0
   -1.8056    0.5068    1.6350 H   0  0  0  0  0  0  0  0  0  0  0  0
   -2.3367   -0.9794   -2.3757 H   0  0  0  0  0  0  0  0  0  0  0  0
    1.1684   -3.5491   -0.4768 H   0  0  0  0  0  0  0  0  0  0  0  0
    5.4877    0.5449    0.2868 H   0  0  0  0  0  0  0  0  0  0  0  0
   -4.7411   -0.5051   -2.2370 H   0  0  0  0  0  0  0  0  0  0  0  0
    5.2808   -1.5585    0.8113 H   0  0  0  0  0  0  0  0  0  0  0  0
    3.8797    3.5741   -0.6833 H   0  0  0  0  0  0  0  0  0  0  0  0
   -3.6076    1.2068    2.6527 H   0  0  0  0  0  0  0  0  0  0  0  0
   -6.3929    0.2684   -0.9965 H   0  0  0  0  0  0  0  0  0  0  0  0
  1  7  1  0  0  0  0
  1 11  1  0  0  0  0
  2  9  1  0  0  0  0
  2 29  1  0  0  0  0
  3 13  1  0  0  0  0
  3 32  1  0  0  0  0
  4 18  1  0  0  0  0
  4 33  1  0  0  0  0
  5 19  1  0  0  0  0
  5 34  1  0  0  0  0
  6 21  1  0  0  0  0
  6 35  1  0  0  0  0
  7  8  1  0  0  0  0
  7 12  1  0  0  0  0
  7 22  1  0  0  0  0
  8  9  1  0  0  0  0
  8 23  1  0  0  0  0
  8 24  1  0  0  0  0
  9 10  1  0  0  0  0
  9 25  1  0  0  0  0
 10 11  1  0  0  0  0
 10 13  2  0  0  0  0
 11 14  2  0  0  0  0
 12 15  2  0  0  0  0
 12 16  1  0  0  0  0
 13 17  1  0  0  0  0
 14 18  1  0  0  0  0
 14 26  1  0  0  0  0
 15 19  1  0  0  0  0
 15 27  1  0  0  0  0
 16 20  2  0  0  0  0
 16 28  1  0  0  0  0
 17 18  2  0  0  0  0
 17 30  1  0  0  0  0
 19 21  2  0  0  0  0
 20 21  1  0  0  0  0
 20 31  1  0  0  0  0
M  END
> <PUBCHEM_COMPOUND_CID>
121231123

> <PUBCHEM_CONFORMER_RMSD>
0.6

> <PUBCHEM_CONFORMER_DIVERSEORDER>
1
11
3
9
7
5
2
12
4
8
6
10

> <PUBCHEM_MMFF94_PARTIAL_CHARGES>
30
1 -0.36
10 -0.14
11 0.08
12 -0.14
13 0.08
14 -0.15
15 -0.15
16 -0.15
17 -0.15
18 0.08
19 0.08
2 -0.68
20 -0.15
21 0.08
26 0.15
27 0.15
28 0.15
29 0.4
3 -0.53
30 0.15
31 0.15
32 0.45
33 0.45
34 0.45
35 0.45
4 -0.53
5 -0.53
6 -0.53
7 0.42
9 0.42

> <PUBCHEM_EFFECTIVE_ROTOR_COUNT>
1.8

> <PUBCHEM_PHARMACOPHORE_FEATURES>
10
1 1 acceptor
1 2 acceptor
1 2 donor
1 3 donor
1 4 donor
1 5 donor
1 6 donor
6 1 7 8 9 10 11 rings
6 10 11 13 14 17 18 rings
6 12 15 16 19 20 21 rings

> <PUBCHEM_HEAVY_ATOM_COUNT>
21

> <PUBCHEM_ATOM_DEF_STEREO_COUNT>
2

> <PUBCHEM_ATOM_UDEF_STEREO_COUNT>
0

> <PUBCHEM_BOND_DEF_STEREO_COUNT>
0

> <PUBCHEM_BOND_UDEF_STEREO_COUNT>
0

> <PUBCHEM_ISOTOPIC_ATOM_COUNT>
0

> <PUBCHEM_COMPONENT_COUNT>
1

> <PUBCHEM_CACTVS_TAUTO_COUNT>
72

> <PUBCHEM_CONFORMER_ID>
0739D71300000001

> <PUBCHEM_MMFF94_ENERGY>
59.5924

> <PUBCHEM_FEATURE_SELFOVERLAP>
50.782

> <PUBCHEM_SHAPE_FINGERPRINT>
10411042 1 17903631879146382322
11045977 3 17749114387035858627
11471102 20 18334852814491615694
11796584 16 15554176895776747564
12107183 9 17551802421690555963
12236239 1 18202278092092475759
12390115 104 17757285034811429268
12403259 415 17530674390528546159
12616971 3 18341604906702462671
12633257 1 18187354424805566690
12644460 14 18113893867147353120
13140716 1 18261109720831815626
13583140 156 15214120024925971500
13631057 29 18053657251543296423
13675066 3 17240483619409256601
14386348 63 17095244688027732883
14739800 52 17488724809910897176
14848178 96 18196086879392801792
15196674 1 18335136543957151394
15342168 16 18188494704009630844
15375358 24 17530959181520637215
15475509 35 15864615190743865352
15475509 8 18057065531651731926
17818456 19 16913983465421329499
17834072 33 18413385454117665567
1813 80 17840315423723254590
18186145 218 18409167731708043030
200 152 18341041974276927079
20157964 124 18337388250146459837
20279233 1 17168146711333088107
204376 136 18261674877865325966
20612939 158 18409728461031522948
20645477 70 18334006173137027390
20739085 24 18187939347890944836
21033648 144 18262226832923925188
21033648 29 17168411723183208445
21033650 10 16343161176290985866
21065201 7 15841551885735359245
2255824 54 18269556048343808198
22854114 59 18114180847818540621
23184049 59 18260266360784131700
23366157 5 17414734081131657591
23557571 272 15123790677917054091
23559900 14 15503208973524905130
335352 9 18335983147500877942
34797466 226 15338835425493866777
4409770 3 15963734746037091022
474 4 18410856581146287650
5104073 3 18260826041966917026
6034566 193 17463987013471940460
633830 44 18271816726070399326
8272917 22 18411981334376250150
90127 26 17749384841274239005
9981440 41 17193170749377250568
9999458 23 18040432183865790678

> <PUBCHEM_SHAPE_MULTIPOLES>
396.95
11.06
2.1
1.14
6.41
0.12
0.13
-4.16
0.63
-3.3
-0.08
1.44
-0.04
-1.2

> <PUBCHEM_SHAPE_SELFOVERLAP>
876.316

> <PUBCHEM_SHAPE_VOLUME>
212.9

> <PUBCHEM_COORDINATE_TYPE>
2
5
10

$$$$
