12137075
  -OEChem-03292013303D

 66 70  0     1  0  0  0  0  0999 V2000
    1.8077   -1.3088   -0.3264 O   0  0  0  0  0  0  0  0  0  0  0  0
   -0.4140   -1.0599    1.2255 O   0  0  0  0  0  0  0  0  0  0  0  0
   -2.7246   -2.3349    0.3004 O   0  0  0  0  0  0  0  0  0  0  0  0
    1.3522    3.2770    1.0295 O   0  0  0  0  0  0  0  0  0  0  0  0
   -6.6189    0.9273   -1.2374 O   0  0  0  0  0  0  0  0  0  0  0  0
    5.4495   -1.4184   -1.1350 O   0  0  0  0  0  0  0  0  0  0  0  0
   -5.0117   -2.3551   -0.0244 O   0  0  0  0  0  0  0  0  0  0  0  0
    7.4545   -1.9887   -0.2281 O   0  0  0  0  0  0  0  0  0  0  0  0
    1.1047   -0.0527   -0.3583 C   0  0  1  0  0  0  0  0  0  0  0  0
   -0.3962   -0.3402   -0.0143 C   0  0  2  0  0  0  0  0  0  0  0  0
    1.8287    0.9279    0.6140 C   0  0  1  0  0  0  0  0  0  0  0  0
   -1.1942    0.9864    0.1740 C   0  0  1  0  0  0  0  0  0  0  0  0
   -2.7520    0.8146    0.3950 C   0  0  2  0  0  0  0  0  0  0  0  0
    3.0566    1.4064   -0.2200 C   0  0  2  0  0  0  0  0  0  0  0  0
    1.3396    0.5642   -1.7616 C   0  0  0  0  0  0  0  0  0  0  0  0
   -1.0735   -1.2335   -1.0819 C   0  0  0  0  0  0  0  0  0  0  0  0
   -0.5316    1.8411    1.2657 C   0  0  0  0  0  0  0  0  0  0  0  0
    2.4736    1.5855   -1.6248 C   0  0  0  0  0  0  0  0  0  0  0  0
    0.9170    2.1275    0.9358 C   0  0  0  0  0  0  0  0  0  0  0  0
   -3.3118   -0.1848   -0.6267 C   0  0  0  0  0  0  0  0  0  0  0  0
   -2.5618   -1.4801   -0.8275 C   0  0  2  0  0  0  0  0  0  0  0  0
   -3.4230    2.2174    0.1943 C   0  0  0  0  0  0  0  0  0  0  0  0
    2.2505    0.3278    1.9657 C   0  0  0  0  0  0  0  0  0  0  0  0
   -3.1116    0.3323    1.8212 C   0  0  0  0  0  0  0  0  0  0  0  0
    4.2313    0.4704   -0.2484 C   0  0  0  0  0  0  0  0  0  0  0  0
   -4.9287    2.1323   -0.0283 C   0  0  0  0  0  0  0  0  0  0  0  0
   -4.4106    0.0631   -1.3661 C   0  0  0  0  0  0  0  0  0  0  0  0
   -5.2449    1.3019   -1.2666 C   0  0  1  0  0  0  0  0  0  0  0  0
    5.2932    0.6706    0.7030 C   0  0  0  0  0  0  0  0  0  0  0  0
    4.3526   -0.5454   -1.1090 C   0  0  0  0  0  0  0  0  0  0  0  0
   -4.0103   -2.6964    0.5902 C   0  0  0  0  0  0  0  0  0  0  0  0
    6.3604   -0.1339    0.7198 C   0  0  0  0  0  0  0  0  0  0  0  0
    6.4750   -1.2503   -0.2418 C   0  0  0  0  0  0  0  0  0  0  0  0
   -4.0278   -3.5906    1.7927 C   0  0  0  0  0  0  0  0  0  0  0  0
   -1.0902    1.5427   -0.7682 H   0  0  0  0  0  0  0  0  0  0  0  0
    3.4171    2.3876    0.1160 H   0  0  0  0  0  0  0  0  0  0  0  0
    0.4603    1.0862   -2.1502 H   0  0  0  0  0  0  0  0  0  0  0  0
    1.5975   -0.2045   -2.4986 H   0  0  0  0  0  0  0  0  0  0  0  0
   -0.5665   -2.2063   -1.1176 H   0  0  0  0  0  0  0  0  0  0  0  0
   -0.9688   -0.7739   -2.0719 H   0  0  0  0  0  0  0  0  0  0  0  0
   -0.5674    1.3617    2.2488 H   0  0  0  0  0  0  0  0  0  0  0  0
   -1.0366    2.8082    1.3560 H   0  0  0  0  0  0  0  0  0  0  0  0
    3.2024    1.5096   -2.4393 H   0  0  0  0  0  0  0  0  0  0  0  0
    2.0427    2.5924   -1.7077 H   0  0  0  0  0  0  0  0  0  0  0  0
   -2.9414   -2.0251   -1.7030 H   0  0  0  0  0  0  0  0  0  0  0  0
   -2.9789    2.7276   -0.6712 H   0  0  0  0  0  0  0  0  0  0  0  0
   -3.2369    2.8634    1.0604 H   0  0  0  0  0  0  0  0  0  0  0  0
    2.8141    1.0640    2.5518 H   0  0  0  0  0  0  0  0  0  0  0  0
    1.3869    0.0501    2.5776 H   0  0  0  0  0  0  0  0  0  0  0  0
    2.8753   -0.5646    1.8699 H   0  0  0  0  0  0  0  0  0  0  0  0
   -2.8967    1.1035    2.5694 H   0  0  0  0  0  0  0  0  0  0  0  0
   -4.1780    0.0945    1.9093 H   0  0  0  0  0  0  0  0  0  0  0  0
   -2.5650   -0.5618    2.1245 H   0  0  0  0  0  0  0  0  0  0  0  0
    1.6472   -1.7318    0.5324 H   0  0  0  0  0  0  0  0  0  0  0  0
   -0.2095   -1.9932    1.0497 H   0  0  0  0  0  0  0  0  0  0  0  0
   -5.4302    1.7169    0.8545 H   0  0  0  0  0  0  0  0  0  0  0  0
   -5.3465    3.1393   -0.1506 H   0  0  0  0  0  0  0  0  0  0  0  0
   -4.7292   -0.6630   -2.1113 H   0  0  0  0  0  0  0  0  0  0  0  0
   -5.0831    1.8977   -2.1725 H   0  0  0  0  0  0  0  0  0  0  0  0
    5.2192    1.4875    1.4131 H   0  0  0  0  0  0  0  0  0  0  0  0
    3.6816   -0.8324   -1.9026 H   0  0  0  0  0  0  0  0  0  0  0  0
   -7.1443    1.7447   -1.1980 H   0  0  0  0  0  0  0  0  0  0  0  0
    7.1638    0.0102    1.4329 H   0  0  0  0  0  0  0  0  0  0  0  0
   -3.6137   -3.0607    2.6542 H   0  0  0  0  0  0  0  0  0  0  0  0
   -3.4556   -4.4987    1.5873 H   0  0  0  0  0  0  0  0  0  0  0  0
   -5.0598   -3.8722    2.0203 H   0  0  0  0  0  0  0  0  0  0  0  0
  1  9  1  0  0  0  0
  1 54  1  0  0  0  0
  2 10  1  0  0  0  0
  2 55  1  0  0  0  0
  3 21  1  0  0  0  0
  3 31  1  0  0  0  0
  4 19  2  0  0  0  0
  5 28  1  0  0  0  0
  5 62  1  0  0  0  0
  6 30  1  0  0  0  0
  6 33  1  0  0  0  0
  7 31  2  0  0  0  0
  8 33  2  0  0  0  0
  9 10  1  0  0  0  0
  9 11  1  0  0  0  0
  9 15  1  0  0  0  0
 10 12  1  0  0  0  0
 10 16  1  0  0  0  0
 11 14  1  0  0  0  0
 11 19  1  0  0  0  0
 11 23  1  0  0  0  0
 12 13  1  0  0  0  0
 12 17  1  0  0  0  0
 12 35  1  0  0  0  0
 13 20  1  0  0  0  0
 13 22  1  0  0  0  0
 13 24  1  0  0  0  0
 14 18  1  0  0  0  0
 14 25  1  0  0  0  0
 14 36  1  0  0  0  0
 15 18  1  0  0  0  0
 15 37  1  0  0  0  0
 15 38  1  0  0  0  0
 16 21  1  0  0  0  0
 16 39  1  0  0  0  0
 16 40  1  0  0  0  0
 17 19  1  0  0  0  0
 17 41  1  0  0  0  0
 17 42  1  0  0  0  0
 18 43  1  0  0  0  0
 18 44  1  0  0  0  0
 20 21  1  0  0  0  0
 20 27  2  0  0  0  0
 21 45  1  0  0  0  0
 22 26  1  0  0  0  0
 22 46  1  0  0  0  0
 22 47  1  0  0  0  0
 23 48  1  0  0  0  0
 23 49  1  0  0  0  0
 23 50  1  0  0  0  0
 24 51  1  0  0  0  0
 24 52  1  0  0  0  0
 24 53  1  0  0  0  0
 25 29  1  0  0  0  0
 25 30  2  0  0  0  0
 26 28  1  0  0  0  0
 26 56  1  0  0  0  0
 26 57  1  0  0  0  0
 27 28  1  0  0  0  0
 27 58  1  0  0  0  0
 28 59  1  0  0  0  0
 29 32  2  0  0  0  0
 29 60  1  0  0  0  0
 30 61  1  0  0  0  0
 31 34  1  0  0  0  0
 32 33  1  0  0  0  0
 32 63  1  0  0  0  0
 34 64  1  0  0  0  0
 34 65  1  0  0  0  0
 34 66  1  0  0  0  0
M  END
> <PUBCHEM_COMPOUND_CID>
12137075

> <PUBCHEM_CONFORMER_RMSD>
0.8

> <PUBCHEM_CONFORMER_DIVERSEORDER>
1
12
6
4
10
3
11
9
5
7
8
2

> <PUBCHEM_MMFF94_PARTIAL_CHARGES>
33
1 -0.68
10 0.28
11 0.06
13 0.14
14 0.14
17 0.06
19 0.45
2 -0.68
20 -0.28
21 0.42
25 -0.14
27 -0.29
28 0.42
29 -0.15
3 -0.43
30 -0.07
31 0.66
32 -0.14
33 0.71
34 0.06
4 -0.57
5 -0.68
54 0.4
55 0.4
58 0.15
6 -0.23
60 0.15
61 0.15
62 0.4
63 0.15
7 -0.57
8 -0.57
9 0.28

> <PUBCHEM_EFFECTIVE_ROTOR_COUNT>
4.8

> <PUBCHEM_PHARMACOPHORE_FEATURES>
14
1 1 acceptor
1 1 donor
1 2 acceptor
1 2 donor
1 4 acceptor
1 5 acceptor
1 5 donor
1 7 acceptor
1 8 acceptor
5 9 11 14 15 18 rings
6 10 12 13 16 20 21 rings
6 13 20 22 26 27 28 rings
6 6 25 29 30 32 33 rings
6 9 10 11 12 17 19 rings

> <PUBCHEM_HEAVY_ATOM_COUNT>
34

> <PUBCHEM_ATOM_DEF_STEREO_COUNT>
8

> <PUBCHEM_ATOM_UDEF_STEREO_COUNT>
0

> <PUBCHEM_BOND_DEF_STEREO_COUNT>
0

> <PUBCHEM_BOND_UDEF_STEREO_COUNT>
0

> <PUBCHEM_ISOTOPIC_ATOM_COUNT>
0

> <PUBCHEM_COMPONENT_COUNT>
1

> <PUBCHEM_CACTVS_TAUTO_COUNT>
2

> <PUBCHEM_CONFORMER_ID>
00B9327300000001

> <PUBCHEM_MMFF94_ENERGY>
123.0659

> <PUBCHEM_FEATURE_SELFOVERLAP>
71.278

> <PUBCHEM_SHAPE_FINGERPRINT>
10165383 225 18187643536845975045
10675989 125 17261317994994477841
10930396 42 17415245435932849138
11135609 12 18337685199199488523
11315181 36 17489866033712249408
11545043 162 18409447033035870795
11796584 16 18334009497700086434
12166972 35 18334579083035348732
12236239 1 18186798097786420604
12422481 6 17273724029313146194
12788726 201 17987792991687544945
13009979 54 18187937221444166636
13224815 77 18338519763164218433
13540713 4 18267292326312371441
13583140 156 17988638627222921190
13782708 43 18188778377983547947
13811026 1 18271516576370156888
14347332 77 18265336277662014287
15183329 4 18187362091406131158
15439362 3 17976817589362030885
15788980 27 18410579478815815764
15815584 197 17774460303415302734
15911013 46 18122915227269101822
17349148 13 18261969504633166750
17492 89 18191029108281401766
17980427 23 14692576554177864010
1813 80 18186522107994695780
21033648 29 17560785646100253602
21279426 13 18411698781652729454
22182313 1 17702968979245108647
22393880 68 18187918517035314961
23402539 116 17917706860283574956
23559900 14 18342728658941320241
23572383 38 18202006495329913622
249057 3 18113053831610702061
25269216 80 17532391896511549838
3004659 81 18410008815602134860
335352 9 18272086071827857629
3383291 50 18273210902910530511
392239 28 15697998544318233874
4058900 60 18045780088538813661
4073 2 18408041823380408538
4325135 7 9655567530909674510
460360 51 18129681766883833364
5104073 3 18130794477510320736
559249 180 18409165493640113846
563151 40 17603587418099666459
59755656 215 18339077082331047462
59755656 520 18114177511135490439
6009941 240 18408038494627545958
70251023 43 17768514342601990303
9981440 41 18201442441860164359

> <PUBCHEM_SHAPE_MULTIPOLES>
652.75
14.7
2.98
1.6
12.37
1.21
-0.16
5.04
2.43
-3.19
-1.01
-0.42
-0.04
1.61

> <PUBCHEM_SHAPE_SELFOVERLAP>
1429.151

> <PUBCHEM_SHAPE_VOLUME>
348.6

> <PUBCHEM_COORDINATE_TYPE>
2
5
10

$$$$
