121488177
  -OEChem-03292013293D

 37 36  0     1  0  0  0  0  0999 V2000
   -2.8004   -0.4866   -0.2497 O   0  0  0  0  0  0  0  0  0  0  0  0
    2.5652    1.8852   -1.2373 O   0  0  0  0  0  0  0  0  0  0  0  0
    3.1922    2.4047    0.8792 O   0  0  0  0  0  0  0  0  0  0  0  0
   -2.2492   -2.3166    1.0238 O   0  0  0  0  0  0  0  0  0  0  0  0
   -3.8038    2.1004    0.1521 O   0  0  0  0  0  0  0  0  0  0  0  0
   -0.9741   -1.6827   -0.8098 N   0  0  0  0  0  0  0  0  0  0  0  0
    5.2746    0.5894    0.6578 N   0  0  0  0  0  0  0  0  0  0  0  0
    2.0122   -1.1115   -0.3892 C   0  0  0  0  0  0  0  0  0  0  0  0
    3.2870   -0.8156    0.4074 C   0  0  0  0  0  0  0  0  0  0  0  0
    1.2243   -2.3283    0.1131 C   0  0  0  0  0  0  0  0  0  0  0  0
    4.0716    0.3786   -0.1520 C   0  0  1  0  0  0  0  0  0  0  0  0
    0.0218   -2.7134   -0.7439 C   0  0  0  0  0  0  0  0  0  0  0  0
    3.2557    1.6581   -0.0896 C   0  0  0  0  0  0  0  0  0  0  0  0
   -2.0298   -1.5663    0.0784 C   0  0  0  0  0  0  0  0  0  0  0  0
   -3.9333   -0.2489    0.5933 C   0  0  0  0  0  0  0  0  0  0  0  0
   -4.6737    0.9766    0.0934 C   0  0  0  0  0  0  0  0  0  0  0  0
   -4.4403    3.2768   -0.3270 C   0  0  0  0  0  0  0  0  0  0  0  0
    1.3473   -0.2415   -0.3574 H   0  0  0  0  0  0  0  0  0  0  0  0
    2.2792   -1.2713   -1.4413 H   0  0  0  0  0  0  0  0  0  0  0  0
    3.0092   -0.6276    1.4532 H   0  0  0  0  0  0  0  0  0  0  0  0
    3.9250   -1.7088    0.4024 H   0  0  0  0  0  0  0  0  0  0  0  0
    0.8924   -2.1331    1.1406 H   0  0  0  0  0  0  0  0  0  0  0  0
    1.9005   -3.1908    0.1597 H   0  0  0  0  0  0  0  0  0  0  0  0
    4.3774    0.1951   -1.1881 H   0  0  0  0  0  0  0  0  0  0  0  0
   -0.4366   -3.6232   -0.3407 H   0  0  0  0  0  0  0  0  0  0  0  0
    0.3403   -2.9253   -1.7700 H   0  0  0  0  0  0  0  0  0  0  0  0
   -0.8994   -0.9908   -1.5495 H   0  0  0  0  0  0  0  0  0  0  0  0
    5.8494   -0.2523    0.6406 H   0  0  0  0  0  0  0  0  0  0  0  0
    5.8412    1.3273    0.2407 H   0  0  0  0  0  0  0  0  0  0  0  0
   -4.5961   -1.1209    0.5725 H   0  0  0  0  0  0  0  0  0  0  0  0
   -3.5775   -0.0765    1.6156 H   0  0  0  0  0  0  0  0  0  0  0  0
   -5.5581    1.1582    0.7138 H   0  0  0  0  0  0  0  0  0  0  0  0
   -4.9842    0.8222   -0.9465 H   0  0  0  0  0  0  0  0  0  0  0  0
    2.0301    2.7057   -1.1856 H   0  0  0  0  0  0  0  0  0  0  0  0
   -3.7310    4.1056   -0.2550 H   0  0  0  0  0  0  0  0  0  0  0  0
   -5.3175    3.5142    0.2828 H   0  0  0  0  0  0  0  0  0  0  0  0
   -4.7308    3.1565   -1.3752 H   0  0  0  0  0  0  0  0  0  0  0  0
  1 14  1  0  0  0  0
  1 15  1  0  0  0  0
  2 13  1  0  0  0  0
  2 34  1  0  0  0  0
  3 13  2  0  0  0  0
  4 14  2  0  0  0  0
  5 16  1  0  0  0  0
  5 17  1  0  0  0  0
  6 12  1  0  0  0  0
  6 14  1  0  0  0  0
  6 27  1  0  0  0  0
  7 11  1  0  0  0  0
  7 28  1  0  0  0  0
  7 29  1  0  0  0  0
  8  9  1  0  0  0  0
  8 10  1  0  0  0  0
  8 18  1  0  0  0  0
  8 19  1  0  0  0  0
  9 11  1  0  0  0  0
  9 20  1  0  0  0  0
  9 21  1  0  0  0  0
 10 12  1  0  0  0  0
 10 22  1  0  0  0  0
 10 23  1  0  0  0  0
 11 13  1  0  0  0  0
 11 24  1  0  0  0  0
 12 25  1  0  0  0  0
 12 26  1  0  0  0  0
 15 16  1  0  0  0  0
 15 30  1  0  0  0  0
 15 31  1  0  0  0  0
 16 32  1  0  0  0  0
 16 33  1  0  0  0  0
 17 35  1  0  0  0  0
 17 36  1  0  0  0  0
 17 37  1  0  0  0  0
M  END
> <PUBCHEM_COMPOUND_CID>
121488177

> <PUBCHEM_CONFORMER_RMSD>
1

> <PUBCHEM_CONFORMER_DIVERSEORDER>
1
99
41
109
34
19
15
77
16
74
68
4
75
53
49
13
66
78
5
110
22
17
106
90
84
31
89
23
36
105
42
11
47
58
82
14
72
45
104
113
102
92
54
52
2
67
57
3
86
96
85
69
10
100
26
12
44
38
50
80
30
33
25
101
24
62
27
60
40
51
55
116
94
91
63
18
73
64
59
98
70
37
65
112
20
83
81
108
79
97
87
48
111
71
95
29
114
8
88
35
61
43
28
107
32
7
56
39
6
93
9
46
115
21
103
76

> <PUBCHEM_MMFF94_PARTIAL_CHARGES>
18
1 -0.43
11 0.33
12 0.3
13 0.66
14 0.78
15 0.28
16 0.28
17 0.28
2 -0.65
27 0.37
28 0.36
29 0.36
3 -0.57
34 0.5
4 -0.57
5 -0.56
6 -0.73
7 -0.99

> <PUBCHEM_EFFECTIVE_ROTOR_COUNT>
11

> <PUBCHEM_PHARMACOPHORE_FEATURES>
8
1 2 acceptor
1 3 acceptor
1 4 acceptor
1 5 acceptor
1 6 donor
1 7 cation
1 7 donor
3 2 3 13 anion

> <PUBCHEM_HEAVY_ATOM_COUNT>
17

> <PUBCHEM_ATOM_DEF_STEREO_COUNT>
1

> <PUBCHEM_ATOM_UDEF_STEREO_COUNT>
0

> <PUBCHEM_BOND_DEF_STEREO_COUNT>
0

> <PUBCHEM_BOND_UDEF_STEREO_COUNT>
0

> <PUBCHEM_ISOTOPIC_ATOM_COUNT>
0

> <PUBCHEM_COMPONENT_COUNT>
1

> <PUBCHEM_CACTVS_TAUTO_COUNT>
2

> <PUBCHEM_CONFORMER_ID>
073DC33100000001

> <PUBCHEM_MMFF94_ENERGY>
14.6137

> <PUBCHEM_FEATURE_SELFOVERLAP>
40.656

> <PUBCHEM_SHAPE_FINGERPRINT>
122479 349 18409732867531357539
12633257 1 16660360428465649306
12769317 202 18196361525354985841
14123255 52 18413388739324671623
14251764 38 18408325509917117093
14576447 43 9871755693675943398
17810953 82 18267028258542874445
17834072 32 18339362938311582321
20621476 13 17977944579821470349
21475661 188 18118121377544830437

> <PUBCHEM_SHAPE_MULTIPOLES>
310.54
11.06
3.75
0.89
2.68
0.91
0.03
9.27
-1.48
1.86
0.29
-0.2
-0.02
0.61

> <PUBCHEM_SHAPE_SELFOVERLAP>
585.477

> <PUBCHEM_SHAPE_VOLUME>
191.5

> <PUBCHEM_COORDINATE_TYPE>
2
5
10

$$$$
