121488750
  -OEChem-03292013293D

 39 38  0     1  0  0  0  0  0999 V2000
   -5.3853    1.5345    1.2506 O   0  0  0  0  0  0  0  0  0  0  0  0
    4.7765    1.9079   -0.8636 O   0  0  0  0  0  0  0  0  0  0  0  0
   -5.6219    1.5593   -1.0042 O   0  0  0  0  0  0  0  0  0  0  0  0
    6.0598    1.3153    0.9185 O   0  0  0  0  0  0  0  0  0  0  0  0
   -5.4074   -1.1393   -1.2043 N   0  0  0  0  0  0  0  0  0  0  0  0
    6.1721   -1.2545   -0.1313 N   0  0  0  0  0  0  0  0  0  0  0  0
   -0.0469   -0.4070   -0.1962 C   0  0  0  0  0  0  0  0  0  0  0  0
    1.2555   -0.9072    0.4318 C   0  0  0  0  0  0  0  0  0  0  0  0
   -1.3020   -0.8720    0.5486 C   0  0  0  0  0  0  0  0  0  0  0  0
   -2.6410   -0.4538   -0.0703 C   0  0  0  0  0  0  0  0  0  0  0  0
    2.4749   -0.3943   -0.3396 C   0  0  0  0  0  0  0  0  0  0  0  0
    3.7793   -0.9252    0.2661 C   0  0  0  0  0  0  0  0  0  0  0  0
   -3.8561   -0.9274    0.7393 C   0  0  0  0  0  0  0  0  0  0  0  0
    5.0240   -0.4092   -0.4642 C   0  0  1  0  0  0  0  0  0  0  0  0
   -5.2194   -0.5658    0.1283 C   0  0  1  0  0  0  0  0  0  0  0  0
   -5.4301    0.9347    0.0312 C   0  0  0  0  0  0  0  0  0  0  0  0
    5.3678    1.0040   -0.0408 C   0  0  0  0  0  0  0  0  0  0  0  0
   -0.0399    0.6895   -0.2281 H   0  0  0  0  0  0  0  0  0  0  0  0
   -0.1024   -0.7530   -1.2358 H   0  0  0  0  0  0  0  0  0  0  0  0
   -1.2567   -0.4934    1.5778 H   0  0  0  0  0  0  0  0  0  0  0  0
    1.2580   -2.0038    0.4416 H   0  0  0  0  0  0  0  0  0  0  0  0
    1.3119   -0.5735    1.4748 H   0  0  0  0  0  0  0  0  0  0  0  0
   -1.2803   -1.9669    0.6216 H   0  0  0  0  0  0  0  0  0  0  0  0
   -2.6613    0.6389   -0.1582 H   0  0  0  0  0  0  0  0  0  0  0  0
    2.4063   -0.7046   -1.3892 H   0  0  0  0  0  0  0  0  0  0  0  0
    2.4715    0.7012   -0.3235 H   0  0  0  0  0  0  0  0  0  0  0  0
   -2.6925   -0.8556   -1.0891 H   0  0  0  0  0  0  0  0  0  0  0  0
   -3.7883   -0.5079    1.7510 H   0  0  0  0  0  0  0  0  0  0  0  0
   -3.8000   -2.0177    0.8554 H   0  0  0  0  0  0  0  0  0  0  0  0
    3.7478   -2.0219    0.2175 H   0  0  0  0  0  0  0  0  0  0  0  0
    3.8251   -0.6565    1.3297 H   0  0  0  0  0  0  0  0  0  0  0  0
   -6.0137   -0.9601    0.7738 H   0  0  0  0  0  0  0  0  0  0  0  0
    4.8883   -0.4435   -1.5513 H   0  0  0  0  0  0  0  0  0  0  0  0
   -5.2849   -2.1502   -1.1606 H   0  0  0  0  0  0  0  0  0  0  0  0
    6.9834   -0.9575   -0.6728 H   0  0  0  0  0  0  0  0  0  0  0  0
    5.9828   -2.2160   -0.4121 H   0  0  0  0  0  0  0  0  0  0  0  0
   -6.3661   -0.9818   -1.5132 H   0  0  0  0  0  0  0  0  0  0  0  0
   -5.5214    2.5038    1.1859 H   0  0  0  0  0  0  0  0  0  0  0  0
    4.9768    2.8306   -0.5975 H   0  0  0  0  0  0  0  0  0  0  0  0
  1 16  1  0  0  0  0
  1 38  1  0  0  0  0
  2 17  1  0  0  0  0
  2 39  1  0  0  0  0
  3 16  2  0  0  0  0
  4 17  2  0  0  0  0
  5 15  1  0  0  0  0
  5 34  1  0  0  0  0
  5 37  1  0  0  0  0
  6 14  1  0  0  0  0
  6 35  1  0  0  0  0
  6 36  1  0  0  0  0
  7  8  1  0  0  0  0
  7  9  1  0  0  0  0
  7 18  1  0  0  0  0
  7 19  1  0  0  0  0
  8 11  1  0  0  0  0
  8 21  1  0  0  0  0
  8 22  1  0  0  0  0
  9 10  1  0  0  0  0
  9 20  1  0  0  0  0
  9 23  1  0  0  0  0
 10 13  1  0  0  0  0
 10 24  1  0  0  0  0
 10 27  1  0  0  0  0
 11 12  1  0  0  0  0
 11 25  1  0  0  0  0
 11 26  1  0  0  0  0
 12 14  1  0  0  0  0
 12 30  1  0  0  0  0
 12 31  1  0  0  0  0
 13 15  1  0  0  0  0
 13 28  1  0  0  0  0
 13 29  1  0  0  0  0
 14 17  1  0  0  0  0
 14 33  1  0  0  0  0
 15 16  1  0  0  0  0
 15 32  1  0  0  0  0
M  END
> <PUBCHEM_COMPOUND_CID>
121488750

> <PUBCHEM_CONFORMER_RMSD>
1

> <PUBCHEM_CONFORMER_DIVERSEORDER>
1
34
20
7
39
14
11
98
21
32
102
93
35
38
49
56
30
50
103
92
85
106
13
79
12
45
37
105
23
25
80
9
76
46
86
36
63
29
27
87
67
3
72
19
95
104
81
10
90
47
51
33
60
84
91
43
66
40
52
22
42
15
101
83
58
97
64
6
75
55
59
99
88
24
41
78
77
53
69
82
73
28
71
8
62
57
26
4
107
68
70
74
18
31
48
54
16
44
89
61
96
100
65
17
94
2
5

> <PUBCHEM_MMFF94_PARTIAL_CHARGES>
16
1 -0.65
14 0.33
15 0.33
16 0.66
17 0.66
2 -0.65
3 -0.57
34 0.36
35 0.36
36 0.36
37 0.36
38 0.5
39 0.5
4 -0.57
5 -0.99
6 -0.99

> <PUBCHEM_EFFECTIVE_ROTOR_COUNT>
10

> <PUBCHEM_PHARMACOPHORE_FEATURES>
10
1 1 acceptor
1 2 acceptor
1 3 acceptor
1 4 acceptor
1 5 cation
1 5 donor
1 6 cation
1 6 donor
3 1 3 16 anion
3 2 4 17 anion

> <PUBCHEM_HEAVY_ATOM_COUNT>
17

> <PUBCHEM_ATOM_DEF_STEREO_COUNT>
2

> <PUBCHEM_ATOM_UDEF_STEREO_COUNT>
0

> <PUBCHEM_BOND_DEF_STEREO_COUNT>
0

> <PUBCHEM_BOND_UDEF_STEREO_COUNT>
0

> <PUBCHEM_ISOTOPIC_ATOM_COUNT>
0

> <PUBCHEM_COMPONENT_COUNT>
1

> <PUBCHEM_CACTVS_TAUTO_COUNT>
1

> <PUBCHEM_CONFORMER_ID>
073DC56E00000001

> <PUBCHEM_MMFF94_ENERGY>
7.2972

> <PUBCHEM_FEATURE_SELFOVERLAP>
50.863

> <PUBCHEM_SHAPE_FINGERPRINT>
117890 112 18409168813760246098
12091667 2 18343022194565980043
12616971 3 14923948984976656458
13167372 99 18410576154558575520
13288520 33 10735870674165143419
13533116 47 17604142624290324058
1420 363 13183021830283704871
14251718 22 17846499257389915567
14251752 14 18060417988984628758
14528608 73 18201720673693077682
15183329 4 18343303638976409096
15348495 7 16660655106082371640
16079462 125 18411129247261274736
17834072 33 17989487450073119478
18222031 100 13470404457200760218
18927931 339 13183020735784248155
20281389 69 18113617863726978945
20621476 66 18271534079248501641
21150785 3 16773791532639204877
21315763 28 18408885139639350283
220451 1 13262404366744000194
23081809 10 18342736316783508810
23402539 116 18343299258500293679
23536379 177 18342176656869968882
23590187 198 10592044665709910475
2767999 5 18408884048664630280
2916195 48 18186519916864834347
29717793 49 17704079456626127838
300161 21 18187361013316943051
328310 630 18340778104086787321
42788 4 18410013238548258514
441001 317 18409732842183027489
465052 167 7853581214683439176
49783359 22 8502370023367581491
5104073 3 15864648287070802672
542803 24 18334858320233702130
57483677 66 9583520901696399696

> <PUBCHEM_SHAPE_MULTIPOLES>
316.41
19.65
1.59
0.95
2.42
0.66
0
5.84
-0.85
0.19
-0.04
-0.7
0.14
-0.16

> <PUBCHEM_SHAPE_SELFOVERLAP>
596.922

> <PUBCHEM_SHAPE_VOLUME>
194.9

> <PUBCHEM_COORDINATE_TYPE>
2
5
10

$$$$
