121447
  -OEChem-03292013323D

 46 45  0     1  0  0  0  0  0999 V2000
    0.8037   -1.0055   -2.4413 O   0  0  0  0  0  0  0  0  0  0  0  0
    0.4891    2.4965    0.5480 O   0  0  0  0  0  0  0  0  0  0  0  0
   -0.8792    3.5870   -0.8970 O   0  0  0  0  0  0  0  0  0  0  0  0
    4.9347   -0.1879    1.0088 O   0  5  0  0  0  0  0  0  0  0  0  0
   -4.1438   -1.0569    0.4409 O   0  5  0  0  0  0  0  0  0  0  0  0
    0.3890    0.2662   -0.5460 N   0  0  0  0  0  0  0  0  0  0  0  0
    1.2774   -2.9581   -0.3528 N   0  0  0  0  0  0  0  0  0  0  0  0
    3.9102    2.5453    1.3599 N   0  3  0  0  0  0  0  0  0  0  0  0
   -6.3660    0.8700    0.3871 N   0  3  0  0  0  0  0  0  0  0  0  0
    4.0436    3.1787    2.2243 N   0  0  0  0  0  0  0  0  0  0  0  0
   -7.4208    0.6404    0.4192 N   0  0  0  0  0  0  0  0  0  0  0  0
    1.8879   -1.6274   -0.3679 C   0  0  1  0  0  0  0  0  0  0  0  0
    3.3169   -1.7283   -0.9232 C   0  0  0  0  0  0  0  0  0  0  0  0
   -0.5302    1.1901   -1.1672 C   0  0  1  0  0  0  0  0  0  0  0  0
    0.9870   -0.7698   -1.2485 C   0  0  0  0  0  0  0  0  0  0  0  0
   -1.9833    0.7104   -1.0939 C   0  0  0  0  0  0  0  0  0  0  0  0
    4.0206   -0.3680   -1.1181 C   0  0  0  0  0  0  0  0  0  0  0  0
   -2.5488    0.6280    0.3383 C   0  0  0  0  0  0  0  0  0  0  0  0
    0.1614   -3.0001    0.5782 C   0  0  0  0  0  0  0  0  0  0  0  0
   -0.3386    2.5524   -0.5281 C   0  0  0  0  0  0  0  0  0  0  0  0
    4.2474    0.4445    0.1590 C   0  0  0  0  0  0  0  0  0  0  0  0
   -4.0175    0.1973    0.3694 C   0  0  0  0  0  0  0  0  0  0  0  0
   -0.4791   -4.3537    0.6108 C   0  0  0  0  0  0  0  0  0  0  0  0
    3.7306    1.6895    0.1908 C   0  0  0  0  0  0  0  0  0  0  0  0
   -4.9401    1.1800    0.3444 C   0  0  0  0  0  0  0  0  0  0  0  0
   -0.5520   -5.1204    1.7048 C   0  0  0  0  0  0  0  0  0  0  0  0
    1.9494   -1.2227    0.6494 H   0  0  0  0  0  0  0  0  0  0  0  0
    3.2904   -2.2180   -1.9070 H   0  0  0  0  0  0  0  0  0  0  0  0
    3.9223   -2.3817   -0.2815 H   0  0  0  0  0  0  0  0  0  0  0  0
   -0.2371    1.2937   -2.2189 H   0  0  0  0  0  0  0  0  0  0  0  0
   -2.0605   -0.2737   -1.5740 H   0  0  0  0  0  0  0  0  0  0  0  0
   -2.6078    1.3969   -1.6806 H   0  0  0  0  0  0  0  0  0  0  0  0
    0.5738    0.3683    0.4478 H   0  0  0  0  0  0  0  0  0  0  0  0
    4.9953   -0.5547   -1.5940 H   0  0  0  0  0  0  0  0  0  0  0  0
    3.4581    0.2165   -1.8585 H   0  0  0  0  0  0  0  0  0  0  0  0
    1.9746   -3.6407   -0.0533 H   0  0  0  0  0  0  0  0  0  0  0  0
   -1.9293   -0.0435    0.9505 H   0  0  0  0  0  0  0  0  0  0  0  0
   -2.4554    1.6107    0.8211 H   0  0  0  0  0  0  0  0  0  0  0  0
   -0.6181   -2.2879    0.2845 H   0  0  0  0  0  0  0  0  0  0  0  0
    0.4943   -2.7198    1.5857 H   0  0  0  0  0  0  0  0  0  0  0  0
   -0.9164   -4.7245   -0.3131 H   0  0  0  0  0  0  0  0  0  0  0  0
    3.1684    2.0961   -0.6434 H   0  0  0  0  0  0  0  0  0  0  0  0
    0.6002    3.3750    0.9701 H   0  0  0  0  0  0  0  0  0  0  0  0
   -4.6555    2.2258    0.2878 H   0  0  0  0  0  0  0  0  0  0  0  0
   -1.0339   -6.0912    1.6635 H   0  0  0  0  0  0  0  0  0  0  0  0
   -0.1363   -4.7984    2.6531 H   0  0  0  0  0  0  0  0  0  0  0  0
  1 15  2  0  0  0  0
  2 20  1  0  0  0  0
  2 43  1  0  0  0  0
  3 20  2  0  0  0  0
  4 21  1  0  0  0  0
  5 22  1  0  0  0  0
  6 14  1  0  0  0  0
  6 15  1  0  0  0  0
  6 33  1  0  0  0  0
  7 12  1  0  0  0  0
  7 19  1  0  0  0  0
  7 36  1  0  0  0  0
  8 10  3  0  0  0  0
  8 24  1  0  0  0  0
  9 11  3  0  0  0  0
  9 25  1  0  0  0  0
 12 13  1  0  0  0  0
 12 15  1  0  0  0  0
 12 27  1  0  0  0  0
 13 17  1  0  0  0  0
 13 28  1  0  0  0  0
 13 29  1  0  0  0  0
 14 16  1  0  0  0  0
 14 20  1  0  0  0  0
 14 30  1  0  0  0  0
 16 18  1  0  0  0  0
 16 31  1  0  0  0  0
 16 32  1  0  0  0  0
 17 21  1  0  0  0  0
 17 34  1  0  0  0  0
 17 35  1  0  0  0  0
 18 22  1  0  0  0  0
 18 37  1  0  0  0  0
 18 38  1  0  0  0  0
 19 23  1  0  0  0  0
 19 39  1  0  0  0  0
 19 40  1  0  0  0  0
 21 24  2  3  0  0  0
 22 25  2  3  0  0  0
 23 26  2  0  0  0  0
 23 41  1  0  0  0  0
 24 42  1  0  0  0  0
 25 44  1  0  0  0  0
 26 45  1  0  0  0  0
 26 46  1  0  0  0  0
M  CHG  4   4  -1   5  -1   8   1   9   1
M  END
> <PUBCHEM_COMPOUND_CID>
121447

> <PUBCHEM_CONFORMER_RMSD>
1.2

> <PUBCHEM_CONFORMER_DIVERSEORDER>
1
53
94
104
198
30
209
67
99
184
179
96
125
100
87
144
151
185
116
167
81
83
12
180
55
39
207
201
108
90
226
168
74
18
219
191
155
117
175
16
47
66
148
229
171
220
156
202
178
78
211
194
143
134
28
232
234
216
38
186
40
146
158
60
160
182
23
110
190
86
106
212
189
57
14
115
199
176
208
161
157
102
129
75
68
213
137
210
59
132
127
3
126
48
92
122
10
101
52
123
225
195
233
188
153
82
72
7
177
113
224
58
84
54
174
62
105
61
197
44
163
140
50
165
152
27
133
183
29
43
15
119
111
206
166
142
26
98
88
228
93
41
65
112
36
150
173
11
200
73
19
21
56
159
85
118
31
33
91
203
103
135
196
138
25
37
231
34
20
214
77
124
120
46
130
192
128
172
22
13
230
164
114
223
70
221
193
109
222
69
6
35
154
107
204
42
149
45
71
131
181
95
5
139
145
8
218
205
147
9
169
80
187
162
170
227
63
32
17
2
215
89
121
97
141
4
49
136
24
79
217
76
64
51

> <PUBCHEM_MMFF94_PARTIAL_CHARGES>
32
1 -0.57
10 -0.49
11 -0.49
12 0.33
14 0.36
15 0.57
17 0.14
18 0.14
19 0.41
2 -0.65
20 0.66
21 -0.29
22 -0.29
23 -0.29
24 -0.02
25 -0.02
26 -0.3
3 -0.57
33 0.37
36 0.36
4 -0.85
41 0.15
42 0.15
43 0.5
44 0.15
45 0.15
46 0.15
5 -0.85
6 -0.73
7 -0.9
8 1.36
9 1.36

> <PUBCHEM_EFFECTIVE_ROTOR_COUNT>
13

> <PUBCHEM_PHARMACOPHORE_FEATURES>
8
1 1 acceptor
1 2 acceptor
1 26 hydrophobe
1 3 acceptor
1 6 donor
1 7 cation
1 7 donor
3 2 3 20 anion

> <PUBCHEM_HEAVY_ATOM_COUNT>
26

> <PUBCHEM_ATOM_DEF_STEREO_COUNT>
0

> <PUBCHEM_ATOM_UDEF_STEREO_COUNT>
2

> <PUBCHEM_BOND_DEF_STEREO_COUNT>
0

> <PUBCHEM_BOND_UDEF_STEREO_COUNT>
2

> <PUBCHEM_ISOTOPIC_ATOM_COUNT>
0

> <PUBCHEM_COMPONENT_COUNT>
1

> <PUBCHEM_CACTVS_TAUTO_COUNT>
2

> <PUBCHEM_CONFORMER_ID>
0001DA6700000001

> <PUBCHEM_MMFF94_ENERGY>
37.6175

> <PUBCHEM_FEATURE_SELFOVERLAP>
40.654

> <PUBCHEM_SHAPE_FINGERPRINT>
10316853 100 18336273426506872219
12596602 18 17917437459045047827
13140716 1 18268421516411692520
13583140 156 17978500945310433149
14178342 30 17826798027754798668
14725015 67 18338791205150021616
14863182 85 17969522428079727919
16728300 4 17244114070025149298
18681886 176 17605020085802747142
21285901 2 17023476218699162647
22224240 67 18411978065948114715
23419403 2 17197464209651087974
23558518 356 18052534675697956671
23559900 14 17971473992314443748
392239 28 18411702066944060338
4340502 62 18411985754298387671
5486654 2 18262816102458275846
6004065 56 18337111259194662293
9777508 108 18265899253248134818

> <PUBCHEM_SHAPE_MULTIPOLES>
475.84
11.14
5.29
1.54
16.3
6.24
0.02
-6.59
3.65
-1.62
2.84
-1.46
-0.16
2.28

> <PUBCHEM_SHAPE_SELFOVERLAP>
935.401

> <PUBCHEM_SHAPE_VOLUME>
279.7

> <PUBCHEM_COORDINATE_TYPE>
2
5
10

$$$$
