121488170
  -OEChem-03292013293D

 46 45  0     1  0  0  0  0  0999 V2000
    1.4633    1.7861    0.0012 O   0  0  0  0  0  0  0  0  0  0  0  0
   -3.3764    2.3757    1.1473 O   0  0  0  0  0  0  0  0  0  0  0  0
    0.8267   -2.0667   -1.7886 O   0  0  0  0  0  0  0  0  0  0  0  0
    2.0222   -2.2902    0.1254 O   0  0  0  0  0  0  0  0  0  0  0  0
    4.2393    1.9496    0.0116 O   0  0  0  0  0  0  0  0  0  0  0  0
   -3.0410    0.9723   -0.6732 N   0  0  0  0  0  0  0  0  0  0  0  0
    0.6134   -4.6116    0.6789 N   0  0  0  0  0  0  0  0  0  0  0  0
   -1.8590   -1.8095   -0.1378 C   0  0  0  0  0  0  0  0  0  0  0  0
   -3.0042   -1.1297    0.6238 C   0  0  0  0  0  0  0  0  0  0  0  0
   -1.1319   -2.8967    0.6599 C   0  0  0  0  0  0  0  0  0  0  0  0
   -3.8199   -0.1345   -0.1965 C   0  0  0  0  0  0  0  0  0  0  0  0
   -0.0246   -3.5850   -0.1494 C   0  0  1  0  0  0  0  0  0  0  0  0
   -1.9836    3.1427   -0.6797 C   0  0  0  0  0  0  0  0  0  0  0  0
   -0.5759    2.6165   -0.9416 C   0  0  0  0  0  0  0  0  0  0  0  0
   -2.8800    2.1535    0.0463 C   0  0  0  0  0  0  0  0  0  0  0  0
    0.1608    2.2443    0.3397 C   0  0  0  0  0  0  0  0  0  0  0  0
    1.0566   -2.6009   -0.5610 C   0  0  0  0  0  0  0  0  0  0  0  0
    2.2048    1.4217    1.1573 C   0  0  0  0  0  0  0  0  0  0  0  0
    3.5712    0.9205    0.7313 C   0  0  0  0  0  0  0  0  0  0  0  0
    5.5381    1.5416   -0.3949 C   0  0  0  0  0  0  0  0  0  0  0  0
   -1.1460   -1.0339   -0.4385 H   0  0  0  0  0  0  0  0  0  0  0  0
   -2.2584   -2.2510   -1.0592 H   0  0  0  0  0  0  0  0  0  0  0  0
   -2.5890   -0.6229    1.5042 H   0  0  0  0  0  0  0  0  0  0  0  0
   -3.6859   -1.9031    0.9985 H   0  0  0  0  0  0  0  0  0  0  0  0
   -1.8637   -3.6446    0.9910 H   0  0  0  0  0  0  0  0  0  0  0  0
   -0.7090   -2.4409    1.5652 H   0  0  0  0  0  0  0  0  0  0  0  0
   -4.6480    0.2473    0.4108 H   0  0  0  0  0  0  0  0  0  0  0  0
   -4.2506   -0.6308   -1.0727 H   0  0  0  0  0  0  0  0  0  0  0  0
   -0.4354   -4.0657   -1.0444 H   0  0  0  0  0  0  0  0  0  0  0  0
   -2.6100    0.8826   -1.5881 H   0  0  0  0  0  0  0  0  0  0  0  0
   -2.4641    3.4031   -1.6301 H   0  0  0  0  0  0  0  0  0  0  0  0
   -1.9356    4.0601   -0.0814 H   0  0  0  0  0  0  0  0  0  0  0  0
    0.0004    3.3813   -1.4774 H   0  0  0  0  0  0  0  0  0  0  0  0
   -0.5950    1.7480   -1.6108 H   0  0  0  0  0  0  0  0  0  0  0  0
    0.2380    3.1194    0.9955 H   0  0  0  0  0  0  0  0  0  0  0  0
   -0.3712    1.4482    0.8724 H   0  0  0  0  0  0  0  0  0  0  0  0
   -0.0844   -5.2927    0.9761 H   0  0  0  0  0  0  0  0  0  0  0  0
    1.2919   -5.1276    0.1197 H   0  0  0  0  0  0  0  0  0  0  0  0
    2.3178    2.3042    1.7977 H   0  0  0  0  0  0  0  0  0  0  0  0
    1.6768    0.6369    1.7104 H   0  0  0  0  0  0  0  0  0  0  0  0
    3.4595    0.0516    0.0735 H   0  0  0  0  0  0  0  0  0  0  0  0
    4.1572    0.6367    1.6123 H   0  0  0  0  0  0  0  0  0  0  0  0
    1.5202   -1.4205   -2.0412 H   0  0  0  0  0  0  0  0  0  0  0  0
    6.0024    2.3662   -0.9425 H   0  0  0  0  0  0  0  0  0  0  0  0
    5.4778    0.6728   -1.0576 H   0  0  0  0  0  0  0  0  0  0  0  0
    6.1576    1.3090    0.4767 H   0  0  0  0  0  0  0  0  0  0  0  0
  1 16  1  0  0  0  0
  1 18  1  0  0  0  0
  2 15  2  0  0  0  0
  3 17  1  0  0  0  0
  3 43  1  0  0  0  0
  4 17  2  0  0  0  0
  5 19  1  0  0  0  0
  5 20  1  0  0  0  0
  6 11  1  0  0  0  0
  6 15  1  0  0  0  0
  6 30  1  0  0  0  0
  7 12  1  0  0  0  0
  7 37  1  0  0  0  0
  7 38  1  0  0  0  0
  8  9  1  0  0  0  0
  8 10  1  0  0  0  0
  8 21  1  0  0  0  0
  8 22  1  0  0  0  0
  9 11  1  0  0  0  0
  9 23  1  0  0  0  0
  9 24  1  0  0  0  0
 10 12  1  0  0  0  0
 10 25  1  0  0  0  0
 10 26  1  0  0  0  0
 11 27  1  0  0  0  0
 11 28  1  0  0  0  0
 12 17  1  0  0  0  0
 12 29  1  0  0  0  0
 13 14  1  0  0  0  0
 13 15  1  0  0  0  0
 13 31  1  0  0  0  0
 13 32  1  0  0  0  0
 14 16  1  0  0  0  0
 14 33  1  0  0  0  0
 14 34  1  0  0  0  0
 16 35  1  0  0  0  0
 16 36  1  0  0  0  0
 18 19  1  0  0  0  0
 18 39  1  0  0  0  0
 18 40  1  0  0  0  0
 19 41  1  0  0  0  0
 19 42  1  0  0  0  0
 20 44  1  0  0  0  0
 20 45  1  0  0  0  0
 20 46  1  0  0  0  0
M  END
> <PUBCHEM_COMPOUND_CID>
121488170

> <PUBCHEM_CONFORMER_RMSD>
1.2

> <PUBCHEM_CONFORMER_DIVERSEORDER>
1
87
86
118
6
162
129
16
8
36
42
95
103
150
49
140
78
41
33
161
26
147
67
109
123
128
121
80
114
115
89
134
88
142
5
124
139
94
22
74
9
30
14
29
132
120
157
116
101
158
34
62
136
69
60
107
28
79
100
61
56
149
12
20
15
146
152
39
57
53
54
164
48
106
73
163
19
127
137
159
144
97
47
85
154
125
64
119
72
112
77
83
35
38
122
82
23
93
75
65
138
130
37
151
96
155
104
110
148
52
68
98
105
2
81
27
117
153
46
44
21
90
143
102
99
91
145
17
92
4
135
84
18
131
55
59
7
111
43
141
51
50
71
70
24
156
11
66
63
108
58
13
32
40
133
10
76
3
45
25
31
113
160
126

> <PUBCHEM_MMFF94_PARTIAL_CHARGES>
20
1 -0.56
11 0.3
12 0.33
13 0.06
15 0.57
16 0.28
17 0.66
18 0.28
19 0.28
2 -0.57
20 0.28
3 -0.65
30 0.37
37 0.36
38 0.36
4 -0.57
43 0.5
5 -0.56
6 -0.73
7 -0.99

> <PUBCHEM_EFFECTIVE_ROTOR_COUNT>
14

> <PUBCHEM_PHARMACOPHORE_FEATURES>
9
1 1 acceptor
1 2 acceptor
1 3 acceptor
1 4 acceptor
1 5 acceptor
1 6 donor
1 7 cation
1 7 donor
3 3 4 17 anion

> <PUBCHEM_HEAVY_ATOM_COUNT>
20

> <PUBCHEM_ATOM_DEF_STEREO_COUNT>
1

> <PUBCHEM_ATOM_UDEF_STEREO_COUNT>
0

> <PUBCHEM_BOND_DEF_STEREO_COUNT>
0

> <PUBCHEM_BOND_UDEF_STEREO_COUNT>
0

> <PUBCHEM_ISOTOPIC_ATOM_COUNT>
0

> <PUBCHEM_COMPONENT_COUNT>
1

> <PUBCHEM_CACTVS_TAUTO_COUNT>
3

> <PUBCHEM_CONFORMER_ID>
073DC32A00000001

> <PUBCHEM_MMFF94_ENERGY>
19.6005

> <PUBCHEM_FEATURE_SELFOVERLAP>
45.736

> <PUBCHEM_SHAPE_FINGERPRINT>
10616163 171 18408602582373131128
11014199 57 17257089801817967258
13402501 40 18341336681520375590
14251757 5 18049452731862888180
14916288 52 17616531104692894817
15006816 218 18339354150497212921
21141583 151 17187845316537368255
238918 7 18201717392754970566
57583515 115 18266741470474963996
6437827 68 18411420605875514334

> <PUBCHEM_SHAPE_MULTIPOLES>
372.28
7.42
5.93
1.06
9.13
4.87
0.11
-5.42
-0.43
-1.77
0.1
0.05
0
0.39

> <PUBCHEM_SHAPE_SELFOVERLAP>
699.606

> <PUBCHEM_SHAPE_VOLUME>
230.4

> <PUBCHEM_COORDINATE_TYPE>
2
5
10

$$$$
