121433863
  -OEChem-03292013293D

 62 64  0     1  0  0  0  0  0999 V2000
   -1.7949    1.4633    1.3035 P   0  0  2  0  0  0  0  0  0  0  0  0
    0.0540   -0.1318    2.1295 O   0  0  0  0  0  0  0  0  0  0  0  0
   -2.5772    0.0561    1.1180 O   0  0  0  0  0  0  0  0  0  0  0  0
   -2.7190    2.5503    1.7875 O   0  0  0  0  0  0  0  0  0  0  0  0
    2.2855    3.1884   -0.5132 O   0  0  0  0  0  0  0  0  0  0  0  0
    1.1509    1.7795   -1.9411 O   0  0  0  0  0  0  0  0  0  0  0  0
    1.8821   -2.3285    1.4531 N   0  0  0  0  0  0  0  0  0  0  0  0
   -0.9037    1.7452   -0.0633 N   0  0  0  0  0  0  0  0  0  0  0  0
    3.3883   -2.7542   -0.1341 N   0  0  0  0  0  0  0  0  0  0  0  0
   -0.1251   -2.1779    0.0936 N   0  0  0  0  0  0  0  0  0  0  0  0
    0.3748   -2.5394   -2.2677 N   0  0  0  0  0  0  0  0  0  0  0  0
    2.5894   -2.9813   -3.0591 N   0  0  0  0  0  0  0  0  0  0  0  0
    1.0170   -0.5896    3.0681 C   0  0  1  0  0  0  0  0  0  0  0  0
    1.3147   -2.0746    2.8295 C   0  0  0  0  0  0  0  0  0  0  0  0
   -0.6123    1.0353    2.5928 C   0  0  0  0  0  0  0  0  0  0  0  0
   -0.0131    2.8930   -0.1085 C   0  0  2  0  0  0  0  0  0  0  0  0
    2.2742    0.2576    2.9179 C   0  0  0  0  0  0  0  0  0  0  0  0
    1.1911   -2.3617    0.2756 C   0  0  0  0  0  0  0  0  0  0  0  0
   -0.7517    4.0952   -0.6808 C   0  0  0  0  0  0  0  0  0  0  0  0
    3.1972   -2.5696    1.1555 C   0  0  0  0  0  0  0  0  0  0  0  0
    2.1429   -2.6271   -0.6961 C   0  0  0  0  0  0  0  0  0  0  0  0
    1.1781    2.5331   -0.9767 C   0  0  0  0  0  0  0  0  0  0  0  0
   -3.6004   -0.1647    0.2358 C   0  0  0  0  0  0  0  0  0  0  0  0
    3.4946    2.9492   -1.2409 C   0  0  0  0  0  0  0  0  0  0  0  0
    1.6932   -2.7145   -2.0097 C   0  0  0  0  0  0  0  0  0  0  0  0
   -4.0432    0.8676   -0.5912 C   0  0  0  0  0  0  0  0  0  0  0  0
   -4.2000   -1.4219    0.1640 C   0  0  0  0  0  0  0  0  0  0  0  0
    4.3680    4.1932   -1.1831 C   0  0  0  0  0  0  0  0  0  0  0  0
    4.1991    1.7344   -0.6564 C   0  0  0  0  0  0  0  0  0  0  0  0
   -0.4405   -2.2857   -1.2156 C   0  0  0  0  0  0  0  0  0  0  0  0
   -5.0858    0.6427   -1.4902 C   0  0  0  0  0  0  0  0  0  0  0  0
   -5.2426   -1.6470   -0.7349 C   0  0  0  0  0  0  0  0  0  0  0  0
   -5.6855   -0.6147   -1.5620 C   0  0  0  0  0  0  0  0  0  0  0  0
    0.6265   -0.4972    4.0896 H   0  0  0  0  0  0  0  0  0  0  0  0
    0.4018   -2.6794    2.8702 H   0  0  0  0  0  0  0  0  0  0  0  0
    2.0468   -2.4718    3.5404 H   0  0  0  0  0  0  0  0  0  0  0  0
   -1.1584    0.8127    3.5156 H   0  0  0  0  0  0  0  0  0  0  0  0
    0.0774    1.8637    2.7678 H   0  0  0  0  0  0  0  0  0  0  0  0
    0.3554    3.1214    0.8967 H   0  0  0  0  0  0  0  0  0  0  0  0
   -1.3643    1.6301   -0.9650 H   0  0  0  0  0  0  0  0  0  0  0  0
    2.5675    0.3672    1.8684 H   0  0  0  0  0  0  0  0  0  0  0  0
    2.1145    1.2714    3.2987 H   0  0  0  0  0  0  0  0  0  0  0  0
    3.1113   -0.1686    3.4801 H   0  0  0  0  0  0  0  0  0  0  0  0
   -1.1091    3.9032   -1.6993 H   0  0  0  0  0  0  0  0  0  0  0  0
   -1.6121    4.3694   -0.0620 H   0  0  0  0  0  0  0  0  0  0  0  0
   -0.0862    4.9641   -0.7327 H   0  0  0  0  0  0  0  0  0  0  0  0
    3.9665   -2.5971    1.9150 H   0  0  0  0  0  0  0  0  0  0  0  0
    3.2751    2.7628   -2.2999 H   0  0  0  0  0  0  0  0  0  0  0  0
   -3.6174    1.8639   -0.5669 H   0  0  0  0  0  0  0  0  0  0  0  0
   -3.8581   -2.2297    0.8051 H   0  0  0  0  0  0  0  0  0  0  0  0
    4.4153    1.8833    0.4073 H   0  0  0  0  0  0  0  0  0  0  0  0
    3.8356    5.0522   -1.6055 H   0  0  0  0  0  0  0  0  0  0  0  0
    3.5649    0.8442   -0.7255 H   0  0  0  0  0  0  0  0  0  0  0  0
    5.3011    4.0528   -1.7371 H   0  0  0  0  0  0  0  0  0  0  0  0
    4.6102    4.4525   -0.1466 H   0  0  0  0  0  0  0  0  0  0  0  0
    5.1385    1.5299   -1.1790 H   0  0  0  0  0  0  0  0  0  0  0  0
   -1.4883   -2.1509   -1.4601 H   0  0  0  0  0  0  0  0  0  0  0  0
    3.5738   -3.1121   -2.8693 H   0  0  0  0  0  0  0  0  0  0  0  0
    2.2383   -3.0399   -4.0052 H   0  0  0  0  0  0  0  0  0  0  0  0
   -5.4325    1.4466   -2.1330 H   0  0  0  0  0  0  0  0  0  0  0  0
   -5.7093   -2.6260   -0.7911 H   0  0  0  0  0  0  0  0  0  0  0  0
   -6.4975   -0.7899   -2.2617 H   0  0  0  0  0  0  0  0  0  0  0  0
  1  3  1  0  0  0  0
  1  4  2  0  0  0  0
  1  8  1  0  0  0  0
  1 15  1  0  0  0  0
  2 13  1  0  0  0  0
  2 15  1  0  0  0  0
  3 23  1  0  0  0  0
  5 22  1  0  0  0  0
  5 24  1  0  0  0  0
  6 22  2  0  0  0  0
  7 14  1  0  0  0  0
  7 18  1  0  0  0  0
  7 20  1  0  0  0  0
  8 16  1  0  0  0  0
  8 40  1  0  0  0  0
  9 20  2  0  0  0  0
  9 21  1  0  0  0  0
 10 18  2  0  0  0  0
 10 30  1  0  0  0  0
 11 25  1  0  0  0  0
 11 30  2  0  0  0  0
 12 25  1  0  0  0  0
 12 58  1  0  0  0  0
 12 59  1  0  0  0  0
 13 14  1  0  0  0  0
 13 17  1  0  0  0  0
 13 34  1  0  0  0  0
 14 35  1  0  0  0  0
 14 36  1  0  0  0  0
 15 37  1  0  0  0  0
 15 38  1  0  0  0  0
 16 19  1  0  0  0  0
 16 22  1  0  0  0  0
 16 39  1  0  0  0  0
 17 41  1  0  0  0  0
 17 42  1  0  0  0  0
 17 43  1  0  0  0  0
 18 21  1  0  0  0  0
 19 44  1  0  0  0  0
 19 45  1  0  0  0  0
 19 46  1  0  0  0  0
 20 47  1  0  0  0  0
 21 25  2  0  0  0  0
 23 26  2  0  0  0  0
 23 27  1  0  0  0  0
 24 28  1  0  0  0  0
 24 29  1  0  0  0  0
 24 48  1  0  0  0  0
 26 31  1  0  0  0  0
 26 49  1  0  0  0  0
 27 32  2  0  0  0  0
 27 50  1  0  0  0  0
 28 52  1  0  0  0  0
 28 54  1  0  0  0  0
 28 55  1  0  0  0  0
 29 51  1  0  0  0  0
 29 53  1  0  0  0  0
 29 56  1  0  0  0  0
 30 57  1  0  0  0  0
 31 33  2  0  0  0  0
 31 60  1  0  0  0  0
 32 33  1  0  0  0  0
 32 61  1  0  0  0  0
 33 62  1  0  0  0  0
M  END
> <PUBCHEM_COMPOUND_CID>
121433863

> <PUBCHEM_CONFORMER_RMSD>
1.2

> <PUBCHEM_CONFORMER_DIVERSEORDER>
2
56
183
168
169
48
252
204
57
230
115
244
166
165
22
195
209
171
122
202
266
17
30
251
182
67
60
117
49
47
207
129
83
159
93
176
261
107
77
199
131
28
220
118
264
194
100
246
64
188
155
181
140
185
167
186
92
240
142
95
208
239
6
55
248
111
212
164
5
70
59
215
69
27
254
68
217
18
7
151
123
178
135
41
54
156
62
237
8
11
241
141
146
50
108
191
158
196
226
170
34
31
192
139
269
257
263
200
79
193
91
258
15
104
137
13
245
136
10
19
126
250
150
127
9
201
1
153
84
42
162
94
259
124
147
61
97
133
72
98
90
216
262
82
242
74
253
272
234
76
256
112
26
75
12
24
21
260
273
175
114
255
154
163
206
120
197
161
144
106
20
101
130
271
33
143
268
45
3
265
65
36
103
138
198
184
203
110
180
16
238
43
29
51
152
71
132
222
86
78
219
214
4
109
233
102
63
189
87
73
173
213
44
46
52
85
179
149
116
40
105
224
14
174
267
119
205
235
99
231
160
66
225
270
223
53
128
236
229
190
210
23
134
227
247
89
88
232
125
32
38
80
37
228
25
218
35
81
39
211
121
172
249
113
221
58
148
96
177
187
157
243
145

> <PUBCHEM_MMFF94_PARTIAL_CHARGES>
39
1 1.24
10 -0.57
11 -0.62
12 -0.9
13 0.28
14 0.26
15 0.28
16 0.33
18 0.11
2 -0.56
20 0.04
21 0.23
22 0.66
23 0.08
24 0.28
25 0.41
26 -0.15
27 -0.15
3 -0.35
30 0.47
31 -0.15
32 -0.15
33 -0.15
4 -0.7
40 0.36
47 0.15
49 0.15
5 -0.43
50 0.15
57 0.15
58 0.4
59 0.4
6 -0.57
60 0.15
61 0.15
62 0.15
7 0.05
8 -0.9
9 -0.57

> <PUBCHEM_EFFECTIVE_ROTOR_COUNT>
12

> <PUBCHEM_PHARMACOPHORE_FEATURES>
11
1 12 cation
1 12 donor
1 2 acceptor
1 6 acceptor
3 10 11 30 cation
3 24 28 29 hydrophobe
3 7 10 18 cation
3 7 9 20 cation
5 7 9 18 20 21 rings
6 10 11 18 21 25 30 rings
6 23 26 27 31 32 33 rings

> <PUBCHEM_HEAVY_ATOM_COUNT>
33

> <PUBCHEM_ATOM_DEF_STEREO_COUNT>
1

> <PUBCHEM_ATOM_UDEF_STEREO_COUNT>
2

> <PUBCHEM_BOND_DEF_STEREO_COUNT>
0

> <PUBCHEM_BOND_UDEF_STEREO_COUNT>
0

> <PUBCHEM_ISOTOPIC_ATOM_COUNT>
0

> <PUBCHEM_COMPONENT_COUNT>
1

> <PUBCHEM_CACTVS_TAUTO_COUNT>
6

> <PUBCHEM_CONFORMER_ID>
073CEF0700000002

> <PUBCHEM_MMFF94_ENERGY>
56.3889

> <PUBCHEM_FEATURE_SELFOVERLAP>
56.426

> <PUBCHEM_SHAPE_FINGERPRINT>
11477941 20 17475838301737004566
12156800 1 17412444107405369426
133893 2 18262256446692107017
14114207 22 18041266777742109796
14863182 85 17916004923879395835
15274700 242 17320113718191773040
15484559 13 18117542145085806889
15664445 248 18117832214281144091
1813 80 18264193726699312705
19026451 147 18408884014648095303
20600515 1 17973974329448890081
21304303 282 16460763042113517857
21860390 5 17968359213269553561
23419403 2 15288125880770191472
23559900 14 18199737077839538695
3298306 158 18190179181809328685
3493558 16 18045222897403508302
469060 322 18051409569859208755
6287921 2 18058180422771612210

> <PUBCHEM_SHAPE_MULTIPOLES>
623.74
8.74
5.49
3.04
10.76
2.28
-1.41
1.84
4.29
-6.5
2.49
-1.69
-1.53
-1.63

> <PUBCHEM_SHAPE_SELFOVERLAP>
1288.971

> <PUBCHEM_SHAPE_VOLUME>
358.3

> <PUBCHEM_COORDINATE_TYPE>
2
5
10

$$$$
