12144826
  -OEChem-03292013303D

 47 49  0     1  0  0  0  0  0999 V2000
    5.6049   -4.2262   -0.3136 Br  0  0  0  0  0  0  0  0  0  0  0  0
   -0.2009    4.1435   -0.1960 O   0  0  0  0  0  0  0  0  0  0  0  0
   -1.2346   -1.0581   -0.6764 O   0  0  0  0  0  0  0  0  0  0  0  0
    0.1974    0.7142   -0.9537 N   0  0  0  0  0  0  0  0  0  0  0  0
   -1.5509    2.3308    0.2303 N   0  0  0  0  0  0  0  0  0  0  0  0
    5.1255    1.1183   -0.1469 N   0  0  0  0  0  0  0  0  0  0  0  0
   -5.3843   -1.1813   -0.0164 N   0  0  0  0  0  0  0  0  0  0  0  0
   -7.7842   -1.0906   -0.0666 N   0  0  0  0  0  0  0  0  0  0  0  0
   -6.7024   -3.0426    0.3966 N   0  0  0  0  0  0  0  0  0  0  0  0
    0.7633    1.9527   -0.4440 C   0  0  2  0  0  0  0  0  0  0  0  0
   -1.6313    0.9369    0.6380 C   0  0  1  0  0  0  0  0  0  0  0  0
    1.6468    1.7370    0.7746 C   0  0  0  0  0  0  0  0  0  0  0  0
   -3.0798    0.5024    0.8095 C   0  0  0  0  0  0  0  0  0  0  0  0
   -0.3674    2.9253   -0.1643 C   0  0  0  0  0  0  0  0  0  0  0  0
   -0.9176    0.1003   -0.4126 C   0  0  0  0  0  0  0  0  0  0  0  0
    3.0008    1.2056    0.4143 C   0  0  0  0  0  0  0  0  0  0  0  0
   -3.8752    0.6858   -0.4850 C   0  0  0  0  0  0  0  0  0  0  0  0
    3.3527   -0.1562    0.3107 C   0  0  0  0  0  0  0  0  0  0  0  0
    4.0923    1.9722    0.1321 C   0  0  0  0  0  0  0  0  0  0  0  0
    4.7027   -0.1878   -0.0455 C   0  0  0  0  0  0  0  0  0  0  0  0
   -5.3278    0.2441   -0.3443 C   0  0  0  0  0  0  0  0  0  0  0  0
    2.6677   -1.3757    0.4818 C   0  0  0  0  0  0  0  0  0  0  0  0
    5.4046   -1.3828   -0.2398 C   0  0  0  0  0  0  0  0  0  0  0  0
    3.3571   -2.5787    0.2909 C   0  0  0  0  0  0  0  0  0  0  0  0
    4.7045   -2.5798   -0.0646 C   0  0  0  0  0  0  0  0  0  0  0  0
   -6.5639   -1.7091    0.0909 C   0  0  0  0  0  0  0  0  0  0  0  0
    1.3411    2.3775   -1.2748 H   0  0  0  0  0  0  0  0  0  0  0  0
   -1.0973    0.8310    1.5883 H   0  0  0  0  0  0  0  0  0  0  0  0
    1.7831    2.6897    1.3046 H   0  0  0  0  0  0  0  0  0  0  0  0
    1.1757    1.0647    1.5013 H   0  0  0  0  0  0  0  0  0  0  0  0
   -3.5484    1.0946    1.6056 H   0  0  0  0  0  0  0  0  0  0  0  0
   -3.1114   -0.5453    1.1311 H   0  0  0  0  0  0  0  0  0  0  0  0
    0.7365    0.1930   -1.6386 H   0  0  0  0  0  0  0  0  0  0  0  0
   -2.3126    2.9519    0.4872 H   0  0  0  0  0  0  0  0  0  0  0  0
   -3.4223    0.1181   -1.3052 H   0  0  0  0  0  0  0  0  0  0  0  0
   -3.8732    1.7389   -0.7889 H   0  0  0  0  0  0  0  0  0  0  0  0
    4.2396    3.0427    0.1005 H   0  0  0  0  0  0  0  0  0  0  0  0
   -5.8410    0.4382   -1.2940 H   0  0  0  0  0  0  0  0  0  0  0  0
   -5.8121    0.8378    0.4407 H   0  0  0  0  0  0  0  0  0  0  0  0
    6.0632    1.4046   -0.3922 H   0  0  0  0  0  0  0  0  0  0  0  0
    1.6190   -1.3951    0.7635 H   0  0  0  0  0  0  0  0  0  0  0  0
    6.4543   -1.3692   -0.5163 H   0  0  0  0  0  0  0  0  0  0  0  0
    2.8185   -3.5138    0.4270 H   0  0  0  0  0  0  0  0  0  0  0  0
   -7.8667   -0.1057   -0.2919 H   0  0  0  0  0  0  0  0  0  0  0  0
   -8.6500   -1.6080    0.0418 H   0  0  0  0  0  0  0  0  0  0  0  0
   -7.6156   -3.4747    0.4839 H   0  0  0  0  0  0  0  0  0  0  0  0
   -5.8910   -3.6334    0.5422 H   0  0  0  0  0  0  0  0  0  0  0  0
  1 25  1  0  0  0  0
  2 14  2  0  0  0  0
  3 15  2  0  0  0  0
  4 10  1  0  0  0  0
  4 15  1  0  0  0  0
  4 33  1  0  0  0  0
  5 11  1  0  0  0  0
  5 14  1  0  0  0  0
  5 34  1  0  0  0  0
  6 19  1  0  0  0  0
  6 20  1  0  0  0  0
  6 40  1  0  0  0  0
  7 21  1  0  0  0  0
  7 26  2  0  0  0  0
  8 26  1  0  0  0  0
  8 44  1  0  0  0  0
  8 45  1  0  0  0  0
  9 26  1  0  0  0  0
  9 46  1  0  0  0  0
  9 47  1  0  0  0  0
 10 12  1  0  0  0  0
 10 14  1  0  0  0  0
 10 27  1  0  0  0  0
 11 13  1  0  0  0  0
 11 15  1  0  0  0  0
 11 28  1  0  0  0  0
 12 16  1  0  0  0  0
 12 29  1  0  0  0  0
 12 30  1  0  0  0  0
 13 17  1  0  0  0  0
 13 31  1  0  0  0  0
 13 32  1  0  0  0  0
 16 18  1  0  0  0  0
 16 19  2  0  0  0  0
 17 21  1  0  0  0  0
 17 35  1  0  0  0  0
 17 36  1  0  0  0  0
 18 20  2  0  0  0  0
 18 22  1  0  0  0  0
 19 37  1  0  0  0  0
 20 23  1  0  0  0  0
 21 38  1  0  0  0  0
 21 39  1  0  0  0  0
 22 24  2  0  0  0  0
 22 41  1  0  0  0  0
 23 25  2  0  0  0  0
 23 42  1  0  0  0  0
 24 25  1  0  0  0  0
 24 43  1  0  0  0  0
M  END
> <PUBCHEM_COMPOUND_CID>
12144826

> <PUBCHEM_CONFORMER_RMSD>
1

> <PUBCHEM_CONFORMER_DIVERSEORDER>
1
623
283
70
382
98
343
613
71
320
445
898
226
53
806
393
106
54
40
381
581
946
300
492
593
51
790
311
337
205
560
65
162
386
880
896
44
138
248
25
868
496
8
86
169
916
962
364
768
424
235
738
693
322
759
933
80
139
163
292
670
883
301
940
197
231
460
338
187
360
91
963
69
383
542
327
74
894
405
13
850
554
465
24
658
351
105
576
174
578
437
831
580
354
29
854
140
446
92
641
342
797
483
890
340
929
41
306
220
494
417
697
296
859
87
329
14
151
9
957
30
188
671
228
716
472
532
684
319
827
288
387
961
12
253
787
665
100
324
816
502
361
766
565
819
93
7
242
404
476
55
45
260
555
191
78
249
221
379
101
10
89
172
964
698
435
808
433
567
3
4
302
131
748
694
784
128
39
750
85
610
419
668
777
236
551
458
871
23
536
22
282
347
504
497
606
931
244
729
11
203
489
772
936
713
64
186
584
711
840
123
114
132
84
79
134
135
223
37
150
21
271
256
833
512
36
463
279
2
111
415
267
953
15
285
546
95
6
717
141
32
35
651
736
173
116
735
464
274
5
728
752
263
229
525
500
690
20
313
102
429
491
146
119
720
919
545
265
164
227
371
158
331
121
126
727
62
544
755
193

> <PUBCHEM_MMFF94_PARTIAL_CHARGES>
34
1 -0.11
10 0.36
11 0.36
12 0.18
14 0.57
15 0.57
16 -0.18
19 -0.3
2 -0.57
20 -0.15
21 0.25
22 -0.15
23 -0.15
24 -0.15
25 0.11
26 0.55
3 -0.57
33 0.37
34 0.37
37 0.15
4 -0.73
40 0.27
41 0.15
42 0.15
43 0.15
44 0.4
45 0.4
46 0.4
47 0.4
5 -0.73
6 0.03
7 -0.7
8 -0.85
9 -0.85

> <PUBCHEM_EFFECTIVE_ROTOR_COUNT>
6.8

> <PUBCHEM_PHARMACOPHORE_FEATURES>
13
1 1 hydrophobe
1 2 acceptor
1 3 acceptor
1 4 donor
1 5 donor
1 6 cation
1 6 donor
1 8 donor
1 9 donor
4 7 8 9 26 cation
5 6 16 18 19 20 rings
6 18 20 22 23 24 25 rings
6 4 5 10 11 14 15 rings

> <PUBCHEM_HEAVY_ATOM_COUNT>
26

> <PUBCHEM_ATOM_DEF_STEREO_COUNT>
1

> <PUBCHEM_ATOM_UDEF_STEREO_COUNT>
1

> <PUBCHEM_BOND_DEF_STEREO_COUNT>
0

> <PUBCHEM_BOND_UDEF_STEREO_COUNT>
0

> <PUBCHEM_ISOTOPIC_ATOM_COUNT>
0

> <PUBCHEM_COMPONENT_COUNT>
1

> <PUBCHEM_CACTVS_TAUTO_COUNT>
8

> <PUBCHEM_CONFORMER_ID>
00B950BA00000001

> <PUBCHEM_MMFF94_ENERGY>
67.3508

> <PUBCHEM_FEATURE_SELFOVERLAP>
66.128

> <PUBCHEM_SHAPE_FINGERPRINT>
11135609 127 8718555978283900659
117089 54 17983866588215031406
11756154 67 18339647728950993462
11963148 33 18338228379324234590
12107183 9 17839189514841063440
12422481 6 17274823515466199919
12623949 98 18130235873816246918
12633257 1 15841262735942350961
13073987 5 18272650142920652505
13533116 47 18342455967098428611
1361 2 18409729594708327595
13911852 28 18411419488413903515
13989917 61 18337956808431221827
14251740 57 18411416206858702266
14251764 30 18411136909472673531
15927050 60 17693095575191393588
17492 89 18267020558040747226
20028762 73 18341329977409794602
21033650 10 16516527672954788085
21130935 74 18342177821671269667
21267235 1 18342460322786090902
21279426 13 18261665979310286917
21682296 61 18411422795971614803
221490 88 18193001427043167066
23559900 14 18265605490739411200
24771750 20 17609505178010688612
2871803 45 18187645756969442392
3004659 81 18113052731740306328
34797466 226 16805607009864675957
46194498 28 17531523303815982533
465052 167 18273216399993136276
5104073 3 17988360377677207065
5718773 13 18338232648869535642
70251023 43 18337390444537144642
7970288 3 18410854356628113003
9709674 26 18263087635034023864

> <PUBCHEM_SHAPE_MULTIPOLES>
499.39
16.93
4.39
0.78
23.02
0.98
0.01
19.36
-0.16
-2.8
-0.12
0.02
-0.04
0.64

> <PUBCHEM_SHAPE_SELFOVERLAP>
1052.347

> <PUBCHEM_SHAPE_VOLUME>
285.5

> <PUBCHEM_COORDINATE_TYPE>
2
5
10

$$$$
