12146484
  -OEChem-03292013303D

 62 64  0     1  0  0  0  0  0999 V2000
    1.1393   -0.3398   -0.5647 O   0  0  0  0  0  0  0  0  0  0  0  0
   -5.5847    2.3078   -0.8090 O   0  0  0  0  0  0  0  0  0  0  0  0
   -2.1314   -3.7874   -0.7742 O   0  0  0  0  0  0  0  0  0  0  0  0
    2.2855   -4.9390    0.4995 O   0  0  0  0  0  0  0  0  0  0  0  0
    4.0518   -3.0252    0.5015 O   0  0  0  0  0  0  0  0  0  0  0  0
    3.2946    1.9015    2.1762 O   0  0  0  0  0  0  0  0  0  0  0  0
    3.2278    5.5525   -0.8865 O   0  0  0  0  0  0  0  0  0  0  0  0
   -2.2573   -0.3840    0.0697 C   0  0  1  0  0  0  0  0  0  0  0  0
   -3.6315    0.1114   -0.4451 C   0  0  0  0  0  0  0  0  0  0  0  0
   -1.4890   -1.0391   -1.1049 C   0  0  0  0  0  0  0  0  0  0  0  0
   -4.5045    0.7295    0.6606 C   0  0  0  0  0  0  0  0  0  0  0  0
   -5.8510    1.2977    0.1661 C   0  0  0  0  0  0  0  0  0  0  0  0
   -0.4719   -2.0546   -0.6728 C   0  0  0  0  0  0  0  0  0  0  0  0
   -1.4449    0.7093    0.7589 C   0  0  0  0  0  0  0  0  0  0  0  0
    0.8422   -1.6687   -0.4049 C   0  0  0  0  0  0  0  0  0  0  0  0
    2.2729    0.0770    0.2124 C   0  0  1  0  0  0  0  0  0  0  0  0
    1.7842   -2.6284   -0.0228 C   0  0  0  0  0  0  0  0  0  0  0  0
    3.5008   -0.7720   -0.1109 C   0  0  0  0  0  0  0  0  0  0  0  0
   -6.5907    1.9568    1.3352 C   0  0  0  0  0  0  0  0  0  0  0  0
   -6.7361    0.2259   -0.4742 C   0  0  0  0  0  0  0  0  0  0  0  0
   -0.8485   -3.3901   -0.5272 C   0  0  0  0  0  0  0  0  0  0  0  0
    3.1891   -2.2175    0.1777 C   0  0  0  0  0  0  0  0  0  0  0  0
   -1.0964    0.5418    2.2127 C   0  0  0  0  0  0  0  0  0  0  0  0
    1.4088   -3.9660    0.1249 C   0  0  0  0  0  0  0  0  0  0  0  0
    2.5329    1.5421   -0.0680 C   0  0  0  0  0  0  0  0  0  0  0  0
    0.0886   -4.3424   -0.1246 C   0  0  0  0  0  0  0  0  0  0  0  0
   -1.0492    1.8018    0.0843 C   0  0  0  0  0  0  0  0  0  0  0  0
    3.0319    2.3819    0.9286 C   0  0  0  0  0  0  0  0  0  0  0  0
    2.2683    2.0515   -1.3397 C   0  0  0  0  0  0  0  0  0  0  0  0
    3.2656    3.7293    0.6536 C   0  0  0  0  0  0  0  0  0  0  0  0
    2.5020    3.3987   -1.6147 C   0  0  0  0  0  0  0  0  0  0  0  0
    3.0006    4.2377   -0.6180 C   0  0  0  0  0  0  0  0  0  0  0  0
   -2.4708   -1.1610    0.8176 H   0  0  0  0  0  0  0  0  0  0  0  0
   -4.1633   -0.7433   -0.8799 H   0  0  0  0  0  0  0  0  0  0  0  0
   -3.4870    0.8365   -1.2553 H   0  0  0  0  0  0  0  0  0  0  0  0
   -1.0110   -0.2783   -1.7361 H   0  0  0  0  0  0  0  0  0  0  0  0
   -2.1902   -1.5100   -1.8067 H   0  0  0  0  0  0  0  0  0  0  0  0
   -4.6825   -0.0223    1.4400 H   0  0  0  0  0  0  0  0  0  0  0  0
   -3.9483    1.5509    1.1283 H   0  0  0  0  0  0  0  0  0  0  0  0
    1.9739   -0.0471    1.2620 H   0  0  0  0  0  0  0  0  0  0  0  0
    3.7791   -0.6982   -1.1688 H   0  0  0  0  0  0  0  0  0  0  0  0
    4.3564   -0.4666    0.5013 H   0  0  0  0  0  0  0  0  0  0  0  0
   -6.8177    1.2349    2.1265 H   0  0  0  0  0  0  0  0  0  0  0  0
   -5.9947    2.7697    1.7655 H   0  0  0  0  0  0  0  0  0  0  0  0
   -7.5308    2.4094    0.9996 H   0  0  0  0  0  0  0  0  0  0  0  0
   -6.9030   -0.6164    0.2048 H   0  0  0  0  0  0  0  0  0  0  0  0
   -6.3000   -0.1506   -1.4053 H   0  0  0  0  0  0  0  0  0  0  0  0
   -7.7120    0.6425   -0.7498 H   0  0  0  0  0  0  0  0  0  0  0  0
   -0.5200   -0.3773    2.3590 H   0  0  0  0  0  0  0  0  0  0  0  0
   -2.0088    0.4784    2.8139 H   0  0  0  0  0  0  0  0  0  0  0  0
   -0.4982    1.3750    2.5960 H   0  0  0  0  0  0  0  0  0  0  0  0
   -0.2195   -5.3797   -0.0151 H   0  0  0  0  0  0  0  0  0  0  0  0
   -6.4367    2.6657   -1.1120 H   0  0  0  0  0  0  0  0  0  0  0  0
   -1.2916    1.9496   -0.9624 H   0  0  0  0  0  0  0  0  0  0  0  0
   -0.4780    2.5863    0.5698 H   0  0  0  0  0  0  0  0  0  0  0  0
    1.8919    1.4180   -2.1383 H   0  0  0  0  0  0  0  0  0  0  0  0
   -2.7442   -3.0438   -0.6622 H   0  0  0  0  0  0  0  0  0  0  0  0
    1.8235   -5.7938    0.5403 H   0  0  0  0  0  0  0  0  0  0  0  0
    3.6539    4.3782    1.4348 H   0  0  0  0  0  0  0  0  0  0  0  0
    2.2961    3.7886   -2.6077 H   0  0  0  0  0  0  0  0  0  0  0  0
    3.4374    0.9426    2.1502 H   0  0  0  0  0  0  0  0  0  0  0  0
    3.5712    5.9832   -0.0848 H   0  0  0  0  0  0  0  0  0  0  0  0
  1 15  1  0  0  0  0
  1 16  1  0  0  0  0
  2 12  1  0  0  0  0
  2 53  1  0  0  0  0
  3 21  1  0  0  0  0
  3 57  1  0  0  0  0
  4 24  1  0  0  0  0
  4 58  1  0  0  0  0
  5 22  2  0  0  0  0
  6 28  1  0  0  0  0
  6 61  1  0  0  0  0
  7 32  1  0  0  0  0
  7 62  1  0  0  0  0
  8  9  1  0  0  0  0
  8 10  1  0  0  0  0
  8 14  1  0  0  0  0
  8 33  1  0  0  0  0
  9 11  1  0  0  0  0
  9 34  1  0  0  0  0
  9 35  1  0  0  0  0
 10 13  1  0  0  0  0
 10 36  1  0  0  0  0
 10 37  1  0  0  0  0
 11 12  1  0  0  0  0
 11 38  1  0  0  0  0
 11 39  1  0  0  0  0
 12 19  1  0  0  0  0
 12 20  1  0  0  0  0
 13 15  2  0  0  0  0
 13 21  1  0  0  0  0
 14 23  1  0  0  0  0
 14 27  2  0  0  0  0
 15 17  1  0  0  0  0
 16 18  1  0  0  0  0
 16 25  1  0  0  0  0
 16 40  1  0  0  0  0
 17 22  1  0  0  0  0
 17 24  2  0  0  0  0
 18 22  1  0  0  0  0
 18 41  1  0  0  0  0
 18 42  1  0  0  0  0
 19 43  1  0  0  0  0
 19 44  1  0  0  0  0
 19 45  1  0  0  0  0
 20 46  1  0  0  0  0
 20 47  1  0  0  0  0
 20 48  1  0  0  0  0
 21 26  2  0  0  0  0
 23 49  1  0  0  0  0
 23 50  1  0  0  0  0
 23 51  1  0  0  0  0
 24 26  1  0  0  0  0
 25 28  2  0  0  0  0
 25 29  1  0  0  0  0
 26 52  1  0  0  0  0
 27 54  1  0  0  0  0
 27 55  1  0  0  0  0
 28 30  1  0  0  0  0
 29 31  2  0  0  0  0
 29 56  1  0  0  0  0
 30 32  2  0  0  0  0
 30 59  1  0  0  0  0
 31 32  1  0  0  0  0
 31 60  1  0  0  0  0
M  END
> <PUBCHEM_COMPOUND_CID>
12146484

> <PUBCHEM_CONFORMER_RMSD>
1

> <PUBCHEM_CONFORMER_DIVERSEORDER>
1
51
119
98
90
22
127
97
85
43
49
139
72
112
26
115
84
45
144
96
165
118
173
80
70
62
33
19
47
108
152
123
114
153
102
158
67
163
138
69
126
92
99
130
146
148
23
162
135
28
168
12
8
30
53
142
27
167
164
18
150
71
124
129
48
36
171
83
93
82
86
107
100
95
141
68
149
34
37
151
42
9
169
54
132
56
15
128
73
104
31
122
140
76
38
111
52
77
172
133
89
116
7
17
25
60
64
103
11
75
170
50
24
35
143
134
57
156
166
66
145
125
20
10
160
94
131
117
2
21
79
159
109
113
161
59
110
13
106
44
14
58
5
120
74
40
91
88
137
154
16
155
3
4
63
147
61
121
87
136
65
105
6
39
81
78
55
32
46
157
41
101
29

> <PUBCHEM_MMFF94_PARTIAL_CHARGES>
39
1 -0.36
10 0.14
12 0.28
13 -0.14
14 -0.28
15 0.08
16 0.42
17 0.09
18 0.06
2 -0.68
21 0.08
22 0.42
23 0.14
24 0.08
25 -0.14
26 -0.15
27 -0.3
28 0.08
29 -0.15
3 -0.53
30 -0.15
31 -0.15
32 0.08
4 -0.53
5 -0.57
52 0.15
53 0.4
54 0.15
55 0.15
56 0.15
57 0.45
58 0.45
59 0.15
6 -0.53
60 0.15
61 0.45
62 0.45
7 -0.53
8 0.14

> <PUBCHEM_EFFECTIVE_ROTOR_COUNT>
7.6

> <PUBCHEM_PHARMACOPHORE_FEATURES>
13
1 1 acceptor
1 2 acceptor
1 2 donor
1 3 donor
1 4 donor
1 5 acceptor
1 6 donor
1 7 donor
3 12 19 20 hydrophobe
5 8 9 10 11 14 hydrophobe
6 1 15 16 17 18 22 rings
6 13 15 17 21 24 26 rings
6 25 28 29 30 31 32 rings

> <PUBCHEM_HEAVY_ATOM_COUNT>
32

> <PUBCHEM_ATOM_DEF_STEREO_COUNT>
0

> <PUBCHEM_ATOM_UDEF_STEREO_COUNT>
2

> <PUBCHEM_BOND_DEF_STEREO_COUNT>
0

> <PUBCHEM_BOND_UDEF_STEREO_COUNT>
0

> <PUBCHEM_ISOTOPIC_ATOM_COUNT>
0

> <PUBCHEM_COMPONENT_COUNT>
1

> <PUBCHEM_CACTVS_TAUTO_COUNT>
189

> <PUBCHEM_CONFORMER_ID>
00B9573400000001

> <PUBCHEM_MMFF94_ENERGY>
91.9991

> <PUBCHEM_FEATURE_SELFOVERLAP>
66.003

> <PUBCHEM_SHAPE_FINGERPRINT>
10411042 1 17834395618527545671
10675989 125 18202003231166007065
10937287 8 18266463298401957101
1100329 8 18413105061267342298
11059845 2 17908116005539752576
12107183 9 18191850422889624952
12166972 35 18199468762326151123
12293681 4 16966316796204772829
12741549 16 17387977469879942542
13140716 1 18339356465485079074
1361 2 18409731729491131185
13965767 371 17970334022406495348
14068700 675 18058443201734617186
14790565 3 18267026248708721807
14849402 71 18410296886793926981
14955137 171 18266184937530399622
18681886 176 18269550542232567123
18785283 64 18408884001836572015
19319366 153 18271799160102577423
23558518 356 18266167525516801342
23559900 14 18335425625705844563
283562 15 17617658103927184350
3178227 256 18338250270682066323
3380486 145 17617395982046748913
350125 39 18340487768286329972
4058900 60 18339376256762866585
5312544 6 18412827980305315455
53794403 172 18410862091731928925
6034566 193 18048893076002274265
9849439 229 18196930196025997753

> <PUBCHEM_SHAPE_MULTIPOLES>
617.46
10.81
7.1
1.32
22.86
1.64
0.4
-9.87
1.01
-8.92
-1.09
-0.16
-0.92
-1.53

> <PUBCHEM_SHAPE_SELFOVERLAP>
1321.049

> <PUBCHEM_SHAPE_VOLUME>
342.2

> <PUBCHEM_COORDINATE_TYPE>
2
5
10

$$$$
