121494077
  -OEChem-03292013293D

 44 45  0     1  0  0  0  0  0999 V2000
   -2.5437   -1.4931   -1.0678 S   0  0  0  0  0  0  0  0  0  0  0  0
   -5.0448    2.2741    0.5457 O   0  0  0  0  0  0  0  0  0  0  0  0
   -2.8332    2.7788    0.7691 O   0  0  0  0  0  0  0  0  0  0  0  0
    0.6471   -3.1146   -0.5879 O   0  0  0  0  0  0  0  0  0  0  0  0
   -0.7574   -3.9854    0.9559 O   0  0  0  0  0  0  0  0  0  0  0  0
    1.3912    0.2335    1.9410 O   0  0  0  0  0  0  0  0  0  0  0  0
   -2.3308    0.0961    1.0649 N   0  0  0  0  0  0  0  0  0  0  0  0
    0.2356   -0.6234    0.1182 N   0  0  0  0  0  0  0  0  0  0  0  0
   -3.2670    0.1857   -1.1760 C   0  0  0  0  0  0  0  0  0  0  0  0
   -3.5166    0.5085    0.3101 C   0  0  2  0  0  0  0  0  0  0  0  0
   -2.0386   -1.2856    0.6723 C   0  0  2  0  0  0  0  0  0  0  0  0
   -0.5572   -1.5791    0.8454 C   0  0  1  0  0  0  0  0  0  0  0  0
   -4.5689    0.1426   -1.9759 C   0  0  0  0  0  0  0  0  0  0  0  0
   -2.2420    1.0967   -1.8664 C   0  0  0  0  0  0  0  0  0  0  0  0
   -3.7246    1.9679    0.5663 C   0  0  0  0  0  0  0  0  0  0  0  0
   -0.2486   -3.0053    0.4224 C   0  0  0  0  0  0  0  0  0  0  0  0
    1.1570    0.2154    0.7355 C   0  0  0  0  0  0  0  0  0  0  0  0
    1.8550    1.1151   -0.2663 C   0  0  0  0  0  0  0  0  0  0  0  0
    3.3482    0.9232   -0.3015 C   0  0  0  0  0  0  0  0  0  0  0  0
    4.1690    1.6818    0.5330 C   0  0  0  0  0  0  0  0  0  0  0  0
    3.9104   -0.0132   -1.1690 C   0  0  0  0  0  0  0  0  0  0  0  0
    5.5521    1.5040    0.5001 C   0  0  0  0  0  0  0  0  0  0  0  0
    5.2934   -0.1911   -1.2019 C   0  0  0  0  0  0  0  0  0  0  0  0
    6.1144    0.5676   -0.3674 C   0  0  0  0  0  0  0  0  0  0  0  0
   -4.3834   -0.0364    0.7110 H   0  0  0  0  0  0  0  0  0  0  0  0
   -2.6411   -1.9741    1.2757 H   0  0  0  0  0  0  0  0  0  0  0  0
   -1.5447    0.6924    0.8088 H   0  0  0  0  0  0  0  0  0  0  0  0
   -0.2894   -1.5169    1.9077 H   0  0  0  0  0  0  0  0  0  0  0  0
   -5.0215    1.1384   -2.0394 H   0  0  0  0  0  0  0  0  0  0  0  0
   -2.6496    2.1059   -1.9981 H   0  0  0  0  0  0  0  0  0  0  0  0
   -1.3070    1.2024   -1.3100 H   0  0  0  0  0  0  0  0  0  0  0  0
   -5.3087   -0.5233   -1.5166 H   0  0  0  0  0  0  0  0  0  0  0  0
   -4.3990   -0.2018   -3.0027 H   0  0  0  0  0  0  0  0  0  0  0  0
   -1.9925    0.7280   -2.8689 H   0  0  0  0  0  0  0  0  0  0  0  0
    0.1441   -0.6117   -0.8932 H   0  0  0  0  0  0  0  0  0  0  0  0
   -5.2023    3.2280    0.7114 H   0  0  0  0  0  0  0  0  0  0  0  0
    1.6155    2.1513    0.0052 H   0  0  0  0  0  0  0  0  0  0  0  0
    1.4480    0.9817   -1.2761 H   0  0  0  0  0  0  0  0  0  0  0  0
    0.8207   -4.0505   -0.8246 H   0  0  0  0  0  0  0  0  0  0  0  0
    3.7428    2.4134    1.2144 H   0  0  0  0  0  0  0  0  0  0  0  0
    3.2807   -0.6116   -1.8221 H   0  0  0  0  0  0  0  0  0  0  0  0
    6.1913    2.0943    1.1502 H   0  0  0  0  0  0  0  0  0  0  0  0
    5.7313   -0.9207   -1.8769 H   0  0  0  0  0  0  0  0  0  0  0  0
    7.1912    0.4288   -0.3929 H   0  0  0  0  0  0  0  0  0  0  0  0
  1  9  1  0  0  0  0
  1 11  1  0  0  0  0
  2 15  1  0  0  0  0
  2 36  1  0  0  0  0
  3 15  2  0  0  0  0
  4 16  1  0  0  0  0
  4 39  1  0  0  0  0
  5 16  2  0  0  0  0
  6 17  2  0  0  0  0
  7 10  1  0  0  0  0
  7 11  1  0  0  0  0
  7 27  1  0  0  0  0
  8 12  1  0  0  0  0
  8 17  1  0  0  0  0
  8 35  1  0  0  0  0
  9 10  1  0  0  0  0
  9 13  1  0  0  0  0
  9 14  1  0  0  0  0
 10 15  1  0  0  0  0
 10 25  1  0  0  0  0
 11 12  1  0  0  0  0
 11 26  1  0  0  0  0
 12 16  1  0  0  0  0
 12 28  1  0  0  0  0
 13 29  1  0  0  0  0
 13 32  1  0  0  0  0
 13 33  1  0  0  0  0
 14 30  1  0  0  0  0
 14 31  1  0  0  0  0
 14 34  1  0  0  0  0
 17 18  1  0  0  0  0
 18 19  1  0  0  0  0
 18 37  1  0  0  0  0
 18 38  1  0  0  0  0
 19 20  2  0  0  0  0
 19 21  1  0  0  0  0
 20 22  1  0  0  0  0
 20 40  1  0  0  0  0
 21 23  2  0  0  0  0
 21 41  1  0  0  0  0
 22 24  2  0  0  0  0
 22 42  1  0  0  0  0
 23 24  1  0  0  0  0
 23 43  1  0  0  0  0
 24 44  1  0  0  0  0
M  END
> <PUBCHEM_COMPOUND_CID>
121494077

> <PUBCHEM_CONFORMER_RMSD>
0.8

> <PUBCHEM_CONFORMER_DIVERSEORDER>
1
109
117
18
58
163
174
89
141
169
202
142
32
215
216
219
14
208
195
55
194
115
127
230
122
132
9
168
31
176
188
221
99
69
217
156
50
226
189
128
173
140
103
236
145
100
149
157
232
41
4
96
213
237
183
184
193
30
187
65
114
101
179
143
91
118
220
93
39
113
23
190
11
227
160
92
182
88
164
120
6
198
200
162
27
205
35
148
13
171
207
110
147
61
185
43
12
209
180
95
29
153
192
159
116
105
63
76
152
123
5
229
66
197
222
68
80
161
214
218
24
77
175
224
52
78
44
47
20
199
124
37
172
234
60
204
107
54
33
3
155
45
136
36
56
19
17
138
131
98
108
102
126
22
212
165
144
16
94
84
170
2
28
82
70
201
57
177
59
97
104
191
196
137
72
223
112
186
15
210
139
21
206
7
64
74
228
135
211
71
48
87
111
106
42
34
158
119
125
90
203
181
49
85
75
233
167
25
235
79
73
238
83
10
150
130
67
46
129
86
134
38
231
178
81
51
166
154
26
62
40
133
151
121
146
225
53
8

> <PUBCHEM_MMFF94_PARTIAL_CHARGES>
31
1 -0.46
10 0.33
11 0.5
12 0.36
15 0.66
16 0.66
17 0.57
18 0.2
19 -0.14
2 -0.65
20 -0.15
21 -0.15
22 -0.15
23 -0.15
24 -0.15
27 0.36
3 -0.57
35 0.37
36 0.5
39 0.5
4 -0.65
40 0.15
41 0.15
42 0.15
43 0.15
44 0.15
5 -0.57
6 -0.57
7 -0.9
8 -0.73
9 0.23

> <PUBCHEM_EFFECTIVE_ROTOR_COUNT>
8

> <PUBCHEM_PHARMACOPHORE_FEATURES>
13
1 2 acceptor
1 3 acceptor
1 4 acceptor
1 5 acceptor
1 6 acceptor
1 7 cation
1 7 donor
1 8 donor
3 2 3 15 anion
3 4 5 16 anion
3 9 13 14 hydrophobe
5 1 7 9 10 11 rings
6 19 20 21 22 23 24 rings

> <PUBCHEM_HEAVY_ATOM_COUNT>
24

> <PUBCHEM_ATOM_DEF_STEREO_COUNT>
2

> <PUBCHEM_ATOM_UDEF_STEREO_COUNT>
1

> <PUBCHEM_BOND_DEF_STEREO_COUNT>
0

> <PUBCHEM_BOND_UDEF_STEREO_COUNT>
0

> <PUBCHEM_ISOTOPIC_ATOM_COUNT>
0

> <PUBCHEM_COMPONENT_COUNT>
1

> <PUBCHEM_CACTVS_TAUTO_COUNT>
7

> <PUBCHEM_CONFORMER_ID>
073DDA3D00000001

> <PUBCHEM_MMFF94_ENERGY>
54.4443

> <PUBCHEM_FEATURE_SELFOVERLAP>
66.09

> <PUBCHEM_SHAPE_FINGERPRINT>
105312 117 18334297578183608518
121448 382 18343301495882719419
12788726 201 17899119792209987467
13544653 18 10879992458535227946
13583140 156 17630047307261238208
14251751 93 18261959673163408882
14251764 30 16413775232591238943
14713325 29 18262528107505321619
15183329 4 18260261929032107334
15415430 10 8790877471838300193
15788980 27 17561368391959082588
17492 54 17387943548386591735
1813 80 8862659152765978619
200 152 16773803619099142908
20775438 99 16763906012810024015
21033650 10 17773342109065098300
22907989 373 18048039867394231743
23402539 116 18272933821574346720
23557571 272 17977374255356149120
23559900 14 18342745156933700608
3459 83 18269274552408751422
4015057 19 17489307551031218616
474 4 18263636273945476715
5283173 99 18130788971352145528
5385378 56 18190468168351420363
59755656 215 18410294752512419439
59755656 520 18334859419787404571
633830 44 18272087171507959060
7288768 16 18041007185454993793
7399639 24 17118883389203523224
9862522 239 17604132783976448974
9981440 41 18334861597715704019

> <PUBCHEM_SHAPE_MULTIPOLES>
458.45
11.82
3.13
1.54
13.32
2.67
0.38
-7.69
2.89
-2.49
-1.01
-0.88
-0.07
0.09

> <PUBCHEM_SHAPE_SELFOVERLAP>
943.579

> <PUBCHEM_SHAPE_VOLUME>
263.8

> <PUBCHEM_COORDINATE_TYPE>
2
5
10

$$$$
