121596198
  -OEChem-03292013293D

 67 69  0     1  0  0  0  0  0999 V2000
    4.5738   -2.1365    2.1216 O   0  0  0  0  0  0  0  0  0  0  0  0
   -5.2242   -3.4181   -1.3866 O   0  0  0  0  0  0  0  0  0  0  0  0
   -6.2517   -1.6617   -0.3823 O   0  0  0  0  0  0  0  0  0  0  0  0
   -1.6908   -0.0079   -1.2796 O   0  0  0  0  0  0  0  0  0  0  0  0
   -2.1165    2.7399    1.6626 O   0  0  0  0  0  0  0  0  0  0  0  0
    0.8826   -2.5001    2.2347 N   0  0  0  0  0  0  0  0  0  0  0  0
   -3.8420   -0.3283   -0.4582 N   0  0  0  0  0  0  0  0  0  0  0  0
    2.4098   -0.8633    0.1830 N   0  0  0  0  0  0  0  0  0  0  0  0
    3.2755   -2.2576   -2.0589 N   0  0  0  0  0  0  0  0  0  0  0  0
   -1.9173    2.6774   -0.6482 N   0  0  0  0  0  0  0  0  0  0  0  0
   -1.9592   -1.9029    1.3858 C   0  0  0  0  0  0  0  0  0  0  0  0
   -1.5423   -2.4857    2.7403 C   0  0  0  0  0  0  0  0  0  0  0  0
   -3.3861   -2.2873    0.9746 C   0  0  0  0  0  0  0  0  0  0  0  0
   -0.1398   -2.0500    3.1716 C   0  0  0  0  0  0  0  0  0  0  0  0
   -3.8167   -1.7671   -0.3977 C   0  0  1  0  0  0  0  0  0  0  0  0
    2.2053   -2.0652    2.6608 C   0  0  0  0  0  0  0  0  0  0  0  0
    3.2826   -2.5647    1.6903 C   0  0  1  0  0  0  0  0  0  0  0  0
    3.0536   -2.0395    0.2901 C   0  0  0  0  0  0  0  0  0  0  0  0
   -5.2233   -2.2357   -0.7164 C   0  0  0  0  0  0  0  0  0  0  0  0
    3.4803   -2.7268   -0.8149 C   0  0  0  0  0  0  0  0  0  0  0  0
   -2.7693    0.4391   -0.8973 C   0  0  0  0  0  0  0  0  0  0  0  0
    2.1951   -0.3771   -1.0521 C   0  0  0  0  0  0  0  0  0  0  0  0
   -3.1037    1.9155   -0.9044 C   0  0  0  0  0  0  0  0  0  0  0  0
    2.6336   -1.0832   -2.1873 C   0  0  0  0  0  0  0  0  0  0  0  0
    4.1936   -4.0296   -0.6993 C   0  0  0  0  0  0  0  0  0  0  0  0
    1.5333    0.8365   -1.2228 C   0  0  0  0  0  0  0  0  0  0  0  0
    2.3940   -0.5493   -3.4515 C   0  0  0  0  0  0  0  0  0  0  0  0
    1.2985    1.3619   -2.4922 C   0  0  0  0  0  0  0  0  0  0  0  0
    1.7309    0.6661   -3.6114 C   0  0  0  0  0  0  0  0  0  0  0  0
   -1.5117    3.0346    0.6350 C   0  0  0  0  0  0  0  0  0  0  0  0
   -0.2724    3.8482    0.7302 C   0  0  0  0  0  0  0  0  0  0  0  0
    0.5157    3.7875    1.8795 C   0  0  0  0  0  0  0  0  0  0  0  0
    0.1039    4.6717   -0.3308 C   0  0  0  0  0  0  0  0  0  0  0  0
    1.6802    4.5504    1.9678 C   0  0  0  0  0  0  0  0  0  0  0  0
    1.2682    5.4346   -0.2425 C   0  0  0  0  0  0  0  0  0  0  0  0
    2.0564    5.3741    0.9067 C   0  0  0  0  0  0  0  0  0  0  0  0
   -1.8750   -0.8117    1.4422 H   0  0  0  0  0  0  0  0  0  0  0  0
   -1.2665   -2.2412    0.6062 H   0  0  0  0  0  0  0  0  0  0  0  0
   -2.2587   -2.1649    3.5066 H   0  0  0  0  0  0  0  0  0  0  0  0
   -1.5936   -3.5810    2.6994 H   0  0  0  0  0  0  0  0  0  0  0  0
   -4.0830   -1.9216    1.7408 H   0  0  0  0  0  0  0  0  0  0  0  0
   -3.4732   -3.3817    0.9837 H   0  0  0  0  0  0  0  0  0  0  0  0
   -0.1197   -0.9564    3.2540 H   0  0  0  0  0  0  0  0  0  0  0  0
    0.0578   -2.4604    4.1693 H   0  0  0  0  0  0  0  0  0  0  0  0
   -3.1370   -2.1321   -1.1768 H   0  0  0  0  0  0  0  0  0  0  0  0
    2.2518   -0.9719    2.7526 H   0  0  0  0  0  0  0  0  0  0  0  0
    2.4320   -2.4580    3.6608 H   0  0  0  0  0  0  0  0  0  0  0  0
    0.8578   -3.5166    2.1598 H   0  0  0  0  0  0  0  0  0  0  0  0
    3.2731   -3.6604    1.7014 H   0  0  0  0  0  0  0  0  0  0  0  0
   -4.6878    0.1440   -0.1508 H   0  0  0  0  0  0  0  0  0  0  0  0
    4.7093   -2.4781    3.0220 H   0  0  0  0  0  0  0  0  0  0  0  0
   -3.8616    2.1540   -0.1518 H   0  0  0  0  0  0  0  0  0  0  0  0
   -3.4816    2.1859   -1.8947 H   0  0  0  0  0  0  0  0  0  0  0  0
    3.5295   -4.8002   -0.2955 H   0  0  0  0  0  0  0  0  0  0  0  0
    4.5328   -4.3726   -1.6831 H   0  0  0  0  0  0  0  0  0  0  0  0
    5.0804   -3.9386   -0.0645 H   0  0  0  0  0  0  0  0  0  0  0  0
   -6.1349   -3.7321   -1.5721 H   0  0  0  0  0  0  0  0  0  0  0  0
    1.1902    1.3895   -0.3521 H   0  0  0  0  0  0  0  0  0  0  0  0
    2.7277   -1.0847   -4.3381 H   0  0  0  0  0  0  0  0  0  0  0  0
   -1.3365    2.9000   -1.4495 H   0  0  0  0  0  0  0  0  0  0  0  0
    0.7817    2.3098   -2.6041 H   0  0  0  0  0  0  0  0  0  0  0  0
    1.5544    1.0645   -4.6058 H   0  0  0  0  0  0  0  0  0  0  0  0
    0.2419    3.1474    2.7140 H   0  0  0  0  0  0  0  0  0  0  0  0
   -0.4960    4.7691   -1.2307 H   0  0  0  0  0  0  0  0  0  0  0  0
    2.2947    4.5023    2.8620 H   0  0  0  0  0  0  0  0  0  0  0  0
    1.5584    6.0807   -1.0660 H   0  0  0  0  0  0  0  0  0  0  0  0
    2.9625    5.9689    0.9758 H   0  0  0  0  0  0  0  0  0  0  0  0
  1 17  1  0  0  0  0
  1 51  1  0  0  0  0
  2 19  1  0  0  0  0
  2 57  1  0  0  0  0
  3 19  2  0  0  0  0
  4 21  2  0  0  0  0
  5 30  2  0  0  0  0
  6 14  1  0  0  0  0
  6 16  1  0  0  0  0
  6 48  1  0  0  0  0
  7 15  1  0  0  0  0
  7 21  1  0  0  0  0
  7 50  1  0  0  0  0
  8 18  2  0  0  0  0
  8 22  1  0  0  0  0
  9 20  2  0  0  0  0
  9 24  1  0  0  0  0
 10 23  1  0  0  0  0
 10 30  1  0  0  0  0
 10 60  1  0  0  0  0
 11 12  1  0  0  0  0
 11 13  1  0  0  0  0
 11 37  1  0  0  0  0
 11 38  1  0  0  0  0
 12 14  1  0  0  0  0
 12 39  1  0  0  0  0
 12 40  1  0  0  0  0
 13 15  1  0  0  0  0
 13 41  1  0  0  0  0
 13 42  1  0  0  0  0
 14 43  1  0  0  0  0
 14 44  1  0  0  0  0
 15 19  1  0  0  0  0
 15 45  1  0  0  0  0
 16 17  1  0  0  0  0
 16 46  1  0  0  0  0
 16 47  1  0  0  0  0
 17 18  1  0  0  0  0
 17 49  1  0  0  0  0
 18 20  1  0  0  0  0
 20 25  1  0  0  0  0
 21 23  1  0  0  0  0
 22 24  1  0  0  0  0
 22 26  2  0  0  0  0
 23 52  1  0  0  0  0
 23 53  1  0  0  0  0
 24 27  2  0  0  0  0
 25 54  1  0  0  0  0
 25 55  1  0  0  0  0
 25 56  1  0  0  0  0
 26 28  1  0  0  0  0
 26 58  1  0  0  0  0
 27 29  1  0  0  0  0
 27 59  1  0  0  0  0
 28 29  2  0  0  0  0
 28 61  1  0  0  0  0
 29 62  1  0  0  0  0
 30 31  1  0  0  0  0
 31 32  2  0  0  0  0
 31 33  1  0  0  0  0
 32 34  1  0  0  0  0
 32 63  1  0  0  0  0
 33 35  2  0  0  0  0
 33 64  1  0  0  0  0
 34 36  2  0  0  0  0
 34 65  1  0  0  0  0
 35 36  1  0  0  0  0
 35 66  1  0  0  0  0
 36 67  1  0  0  0  0
M  END
> <PUBCHEM_COMPOUND_CID>
121596198

> <PUBCHEM_CONFORMER_RMSD>
1.4

> <PUBCHEM_CONFORMER_DIVERSEORDER>
1
264
192
309
50
91
25
86
353
260
11
345
39
335
101
13
88
110
225
328
37
180
251
137
150
52
278
127
243
157
184
72
46
199
245
250
233
190
169
330
212
323
324
347
7
15
146
231
216
290
291
116
327
172
338
183
47
182
73
208
77
61
92
142
70
223
276
334
342
185
273
126
159
236
279
299
43
60
325
255
191
96
358
202
78
5
316
189
85
331
30
22
36
171
156
244
195
241
87
275
230
336
31
62
281
66
45
99
266
350
69
312
262
113
148
360
93
235
267
14
154
249
317
56
176
138
109
100
297
356
343
90
227
294
94
3
98
81
298
284
114
4
106
302
239
74
219
303
313
107
139
33
63
178
155
211
134
71
357
221
44
203
124
58
259
49
17
163
333
196
188
89
339
237
229
218
200
111
248
20
306
167
205
300
18
351
258
27
42
149
125
186
226
321
97
256
179
131
261
16
67
147
51
246
59
234
84
209
102
280
348
210
166
53
289
228
268
26
252
135
170
173
293
133
38
28
322
359
304
287
242
253
112
217
326
265
12
103
269
34
193
136
305
65
349
354
194
197
153
344
346
308
24
270
201
337
123
140
75
40
315
314
332
247
301
54
35
23
158
120
319
277
352
206
295
141
132
187
144
6
55
105
318
19
115
204
283
271
80
240
165
254
257
238
286
122
104
274
168
82
292
181
320
207
214
9
41
307
95
29
108
285
288
130
117
232
310
143
174
119
79
162
8
152
296
164
145
48
340
215
263
118
341
129
2
177
175
355
57
213
311
272
160
128
198
329
21
222
10
64
68
282
121
32
83
151
220
161
224
76

> <PUBCHEM_MMFF94_PARTIAL_CHARGES>
47
1 -0.68
10 -0.73
14 0.27
15 0.36
16 0.27
17 0.42
18 0.17
19 0.66
2 -0.65
20 0.17
21 0.57
22 0.31
23 0.36
24 0.31
25 0.14
26 -0.15
27 -0.15
28 -0.15
29 -0.15
3 -0.57
30 0.54
31 0.09
32 -0.15
33 -0.15
34 -0.15
35 -0.15
36 -0.15
4 -0.57
48 0.36
5 -0.57
50 0.37
51 0.4
57 0.5
58 0.15
59 0.15
6 -0.9
60 0.37
61 0.15
62 0.15
63 0.15
64 0.15
65 0.15
66 0.15
67 0.15
7 -0.73
8 -0.62
9 -0.62

> <PUBCHEM_EFFECTIVE_ROTOR_COUNT>
15

> <PUBCHEM_PHARMACOPHORE_FEATURES>
16
1 1 acceptor
1 1 donor
1 10 donor
1 2 acceptor
1 3 acceptor
1 4 acceptor
1 5 acceptor
1 6 cation
1 6 donor
1 7 donor
1 8 acceptor
1 9 acceptor
3 2 3 19 anion
6 22 24 26 27 28 29 rings
6 31 32 33 34 35 36 rings
6 8 9 18 20 22 24 rings

> <PUBCHEM_HEAVY_ATOM_COUNT>
36

> <PUBCHEM_ATOM_DEF_STEREO_COUNT>
0

> <PUBCHEM_ATOM_UDEF_STEREO_COUNT>
2

> <PUBCHEM_BOND_DEF_STEREO_COUNT>
0

> <PUBCHEM_BOND_UDEF_STEREO_COUNT>
0

> <PUBCHEM_ISOTOPIC_ATOM_COUNT>
0

> <PUBCHEM_COMPONENT_COUNT>
1

> <PUBCHEM_CACTVS_TAUTO_COUNT>
156

> <PUBCHEM_CONFORMER_ID>
073F692600000001

> <PUBCHEM_MMFF94_ENERGY>
77.0774

> <PUBCHEM_FEATURE_SELFOVERLAP>
81.301

> <PUBCHEM_SHAPE_FINGERPRINT>
11434127 23 17124484937275002208
12539773 59 17322392597135637985
12788726 201 17977977625051913013
15264996 163 17899989235292553661
15419009 47 17331683444937617286
15968369 26 17317312149705346691
16067690 210 18053664681641039164
19315092 285 17605533502098575984
21133410 90 17830130729108520677
21792965 11 17828181230927062636
238918 7 17186174595533503321
35225 105 17688358578810179609
50150288 127 17038735244610011292
550186 7 17698984220953471586
86090 222 17330583323423426445

> <PUBCHEM_SHAPE_MULTIPOLES>
686.61
8.44
8
3.5
9.85
12.11
0.27
-11.69
2.82
-3.45
-3.99
-2.66
-1.52
-0.19

> <PUBCHEM_SHAPE_SELFOVERLAP>
1444.932

> <PUBCHEM_SHAPE_VOLUME>
383.6

> <PUBCHEM_COORDINATE_TYPE>
2
5
10

$$$$
