121513893
  -OEChem-03292013293D

 64 68  0     1  0  0  0  0  0999 V2000
    1.3020    4.3881    1.0678 O   0  0  0  0  0  0  0  0  0  0  0  0
   -4.3563   -1.7530    1.0721 O   0  0  0  0  0  0  0  0  0  0  0  0
    2.8721    2.8154    0.3785 N   0  0  0  0  0  0  0  0  0  0  0  0
    3.0073   -0.4556   -0.2285 N   0  0  0  0  0  0  0  0  0  0  0  0
    1.7281   -0.1718    0.0794 N   0  0  0  0  0  0  0  0  0  0  0  0
    4.3910   -2.3513   -0.8239 N   0  0  0  0  0  0  0  0  0  0  0  0
   -0.1171    4.3940   -1.0317 N   0  0  0  0  0  0  0  0  0  0  0  0
    3.1012   -4.4202   -0.9019 N   0  0  0  0  0  0  0  0  0  0  0  0
    0.7612   -4.4999   -0.4380 N   0  0  0  0  0  0  0  0  0  0  0  0
    4.0411    0.6636   -0.2507 C   0  0  2  0  0  0  0  0  0  0  0  0
    4.8038    0.7538    1.0817 C   0  0  0  0  0  0  0  0  0  0  0  0
    3.5113    2.0423   -0.6968 C   0  0  0  0  0  0  0  0  0  0  0  0
    4.0235    1.5204    2.1453 C   0  0  0  0  0  0  0  0  0  0  0  0
    3.6175    2.8961    1.6353 C   0  0  0  0  0  0  0  0  0  0  0  0
    3.2248   -1.7757   -0.4908 C   0  0  0  0  0  0  0  0  0  0  0  0
    1.7330    3.6091    0.2137 C   0  0  0  0  0  0  0  0  0  0  0  0
    1.9992   -2.4012   -0.3437 C   0  0  0  0  0  0  0  0  0  0  0  0
    1.1193   -1.3606    0.0075 C   0  0  0  0  0  0  0  0  0  0  0  0
    1.0022    3.4804   -1.0997 C   0  0  0  0  0  0  0  0  0  0  0  0
    1.9598   -3.7743   -0.5624 C   0  0  0  0  0  0  0  0  0  0  0  0
   -0.2917   -1.4605    0.2831 C   0  0  0  0  0  0  0  0  0  0  0  0
    4.2297   -3.6792   -1.0100 C   0  0  0  0  0  0  0  0  0  0  0  0
   -1.2155   -1.3204   -0.7527 C   0  0  0  0  0  0  0  0  0  0  0  0
   -0.7339   -1.6989    1.5844 C   0  0  0  0  0  0  0  0  0  0  0  0
   -0.5800    4.7617   -2.3756 C   0  0  0  0  0  0  0  0  0  0  0  0
   -1.2260    3.8127   -0.2650 C   0  0  0  0  0  0  0  0  0  0  0  0
   -2.5812   -1.4191   -0.4874 C   0  0  0  0  0  0  0  0  0  0  0  0
   -2.0997   -1.7975    1.8498 C   0  0  0  0  0  0  0  0  0  0  0  0
   -3.0233   -1.6576    0.8139 C   0  0  0  0  0  0  0  0  0  0  0  0
   -5.1920   -0.8083    0.5002 C   0  0  0  0  0  0  0  0  0  0  0  0
   -4.8418    0.5416    0.5291 C   0  0  0  0  0  0  0  0  0  0  0  0
   -6.3841   -1.2067   -0.1045 C   0  0  0  0  0  0  0  0  0  0  0  0
   -5.6837    1.4932   -0.0467 C   0  0  0  0  0  0  0  0  0  0  0  0
   -7.2259   -0.2553   -0.6805 C   0  0  0  0  0  0  0  0  0  0  0  0
   -6.8758    1.0947   -0.6514 C   0  0  0  0  0  0  0  0  0  0  0  0
    4.7380    0.3187   -1.0270 H   0  0  0  0  0  0  0  0  0  0  0  0
    5.7566    1.2699    0.9062 H   0  0  0  0  0  0  0  0  0  0  0  0
    5.0514   -0.2456    1.4581 H   0  0  0  0  0  0  0  0  0  0  0  0
    4.3560    2.6549   -1.0369 H   0  0  0  0  0  0  0  0  0  0  0  0
    2.8493    1.9192   -1.5566 H   0  0  0  0  0  0  0  0  0  0  0  0
    3.1291    0.9519    2.4267 H   0  0  0  0  0  0  0  0  0  0  0  0
    4.6350    1.6259    3.0483 H   0  0  0  0  0  0  0  0  0  0  0  0
    3.0267    3.4087    2.4014 H   0  0  0  0  0  0  0  0  0  0  0  0
    4.5048    3.5118    1.4448 H   0  0  0  0  0  0  0  0  0  0  0  0
    0.6939    2.4451   -1.2817 H   0  0  0  0  0  0  0  0  0  0  0  0
    1.7015    3.7909   -1.8856 H   0  0  0  0  0  0  0  0  0  0  0  0
    5.1248   -4.2276   -1.2832 H   0  0  0  0  0  0  0  0  0  0  0  0
   -0.8866   -1.1392   -1.7733 H   0  0  0  0  0  0  0  0  0  0  0  0
   -0.0267   -1.8107    2.4029 H   0  0  0  0  0  0  0  0  0  0  0  0
    0.2191    5.2621   -2.9338 H   0  0  0  0  0  0  0  0  0  0  0  0
   -1.4114    5.4727   -2.3150 H   0  0  0  0  0  0  0  0  0  0  0  0
   -0.9409    3.5330    0.7539 H   0  0  0  0  0  0  0  0  0  0  0  0
   -1.6343    2.9192   -0.7530 H   0  0  0  0  0  0  0  0  0  0  0  0
   -2.0370    4.5433   -0.1655 H   0  0  0  0  0  0  0  0  0  0  0  0
   -0.9103    3.8885   -2.9497 H   0  0  0  0  0  0  0  0  0  0  0  0
   -0.1046   -4.0461   -0.1864 H   0  0  0  0  0  0  0  0  0  0  0  0
    0.7769   -5.4969   -0.6059 H   0  0  0  0  0  0  0  0  0  0  0  0
   -3.2766   -1.3289   -1.3177 H   0  0  0  0  0  0  0  0  0  0  0  0
   -2.4384   -1.9831    2.8654 H   0  0  0  0  0  0  0  0  0  0  0  0
   -3.9300    0.8823    1.0124 H   0  0  0  0  0  0  0  0  0  0  0  0
   -6.6615   -2.2569   -0.1301 H   0  0  0  0  0  0  0  0  0  0  0  0
   -5.4133    2.5447   -0.0202 H   0  0  0  0  0  0  0  0  0  0  0  0
   -8.1542   -0.5655   -1.1513 H   0  0  0  0  0  0  0  0  0  0  0  0
   -7.5318    1.8356   -1.0989 H   0  0  0  0  0  0  0  0  0  0  0  0
  1 16  2  0  0  0  0
  2 29  1  0  0  0  0
  2 30  1  0  0  0  0
  3 12  1  0  0  0  0
  3 14  1  0  0  0  0
  3 16  1  0  0  0  0
  4  5  1  0  0  0  0
  4 10  1  0  0  0  0
  4 15  1  0  0  0  0
  5 18  2  0  0  0  0
  6 15  2  0  0  0  0
  6 22  1  0  0  0  0
  7 19  1  0  0  0  0
  7 25  1  0  0  0  0
  7 26  1  0  0  0  0
  8 20  1  0  0  0  0
  8 22  2  0  0  0  0
  9 20  1  0  0  0  0
  9 56  1  0  0  0  0
  9 57  1  0  0  0  0
 10 11  1  0  0  0  0
 10 12  1  0  0  0  0
 10 36  1  0  0  0  0
 11 13  1  0  0  0  0
 11 37  1  0  0  0  0
 11 38  1  0  0  0  0
 12 39  1  0  0  0  0
 12 40  1  0  0  0  0
 13 14  1  0  0  0  0
 13 41  1  0  0  0  0
 13 42  1  0  0  0  0
 14 43  1  0  0  0  0
 14 44  1  0  0  0  0
 15 17  1  0  0  0  0
 16 19  1  0  0  0  0
 17 18  1  0  0  0  0
 17 20  2  0  0  0  0
 18 21  1  0  0  0  0
 19 45  1  0  0  0  0
 19 46  1  0  0  0  0
 21 23  2  0  0  0  0
 21 24  1  0  0  0  0
 22 47  1  0  0  0  0
 23 27  1  0  0  0  0
 23 48  1  0  0  0  0
 24 28  2  0  0  0  0
 24 49  1  0  0  0  0
 25 50  1  0  0  0  0
 25 51  1  0  0  0  0
 25 55  1  0  0  0  0
 26 52  1  0  0  0  0
 26 53  1  0  0  0  0
 26 54  1  0  0  0  0
 27 29  2  0  0  0  0
 27 58  1  0  0  0  0
 28 29  1  0  0  0  0
 28 59  1  0  0  0  0
 30 31  2  0  0  0  0
 30 32  1  0  0  0  0
 31 33  1  0  0  0  0
 31 60  1  0  0  0  0
 32 34  2  0  0  0  0
 32 61  1  0  0  0  0
 33 35  2  0  0  0  0
 33 62  1  0  0  0  0
 34 35  1  0  0  0  0
 34 63  1  0  0  0  0
 35 64  1  0  0  0  0
M  END
> <PUBCHEM_COMPOUND_CID>
121513893

> <PUBCHEM_CONFORMER_RMSD>
1

> <PUBCHEM_CONFORMER_DIVERSEORDER>
4
107
130
43
66
74
122
20
56
10
143
21
119
123
63
94
153
47
84
117
103
80
126
61
100
88
81
58
131
160
98
96
37
30
22
89
109
156
77
135
146
25
134
27
127
152
115
101
95
112
79
124
155
18
26
45
144
51
33
24
13
69
44
132
46
148
78
2
73
137
34
59
60
49
5
42
111
16
28
92
136
105
57
154
55
7
118
72
85
62
23
138
17
164
99
129
71
91
151
15
108
162
121
50
104
12
116
159
97
48
142
19
6
31
93
41
8
83
165
90
120
76
150
52
158
161
75
145
133
102
86
11
163
32
125
110
38
149
67
68
114
64
3
65
113
106
53
1
141
40
29
140
14
70
157
128
35
147
36
9
87
54
139
39
82

> <PUBCHEM_MMFF94_PARTIAL_CHARGES>
44
1 -0.57
10 0.26
12 0.3
14 0.3
15 0.11
16 0.57
18 0.23
19 0.33
2 -0.17
20 0.41
21 0.05
22 0.47
23 -0.15
24 -0.15
25 0.27
26 0.27
27 -0.15
28 -0.15
29 0.08
3 -0.66
30 0.08
31 -0.15
32 -0.15
33 -0.15
34 -0.15
35 -0.15
4 0.31
47 0.15
48 0.15
49 0.15
5 -0.71
56 0.4
57 0.4
58 0.15
59 0.15
6 -0.57
60 0.15
61 0.15
62 0.15
63 0.15
64 0.15
7 -0.81
8 -0.62
9 -0.9

> <PUBCHEM_EFFECTIVE_ROTOR_COUNT>
8.2

> <PUBCHEM_PHARMACOPHORE_FEATURES>
13
1 1 acceptor
1 2 acceptor
1 5 acceptor
1 7 cation
1 9 cation
1 9 donor
3 4 6 15 cation
3 6 8 22 cation
5 4 5 15 17 18 rings
6 21 23 24 27 28 29 rings
6 3 10 11 12 13 14 rings
6 30 31 32 33 34 35 rings
6 6 8 15 17 20 22 rings

> <PUBCHEM_HEAVY_ATOM_COUNT>
35

> <PUBCHEM_ATOM_DEF_STEREO_COUNT>
1

> <PUBCHEM_ATOM_UDEF_STEREO_COUNT>
0

> <PUBCHEM_BOND_DEF_STEREO_COUNT>
0

> <PUBCHEM_BOND_UDEF_STEREO_COUNT>
0

> <PUBCHEM_ISOTOPIC_ATOM_COUNT>
0

> <PUBCHEM_COMPONENT_COUNT>
1

> <PUBCHEM_CACTVS_TAUTO_COUNT>
5

> <PUBCHEM_CONFORMER_ID>
073E27A500000004

> <PUBCHEM_MMFF94_ENERGY>
103.8207

> <PUBCHEM_FEATURE_SELFOVERLAP>
66.253

> <PUBCHEM_SHAPE_FINGERPRINT>
10864689 126 17830164715638758669
11513181 2 17834125516460205020
11828042 279 17681541861118078055
12645989 146 18126010364452185415
12788726 201 17899987031868822979
13402501 40 18261669363507613213
1361 2 18340766035318135455
13965767 371 18053360374929543424
14117953 113 18412545444387390796
14295345 954 18337387262130350247
14725015 67 18262225626286210258
150020 26 18120661498413369905
15081414 286 18335997419134006865
15082195 135 18270105946724832975
15420108 30 17690269835373778704
15483637 11 17977668606571642149
16988056 13 18410576179901124468
1979834 28 18339922730973638752
20715895 44 18341326811643422705
20775438 99 17616493343494007637
21033648 29 17913193537135083672
21133410 38 18201170866846459337
23559900 14 18410297982470257627
23569914 2 17759753232146878685
3493558 16 18341338851101631849
373842 8 18411135836100147209
4144715 1 18334587854176075875
437795 96 18335975437597114821
5109719 28 18262245546756187419
550186 83 17677313030700110217

> <PUBCHEM_SHAPE_MULTIPOLES>
673.68
13.48
6.97
1.52
24.79
3.9
-0.28
-1.45
-0.28
-6.96
2.71
-0.75
0.85
3.18

> <PUBCHEM_SHAPE_SELFOVERLAP>
1467.22

> <PUBCHEM_SHAPE_VOLUME>
363.9

> <PUBCHEM_COORDINATE_TYPE>
2
5
10

$$$$
