121596580
  -OEChem-03292013293D

 68 71  0     1  0  0  0  0  0999 V2000
    3.6002    1.2312    2.3395 O   0  0  0  0  0  0  0  0  0  0  0  0
    1.9198    2.4717   -0.6499 O   0  0  0  0  0  0  0  0  0  0  0  0
    4.2393   -1.2005    0.2834 O   0  0  0  0  0  0  0  0  0  0  0  0
    4.0058    1.2274   -2.0199 O   0  0  0  0  0  0  0  0  0  0  0  0
   -0.5536   -1.6443    0.2949 O   0  0  0  0  0  0  0  0  0  0  0  0
   -2.5058    0.2894    0.0695 O   0  0  0  0  0  0  0  0  0  0  0  0
    4.7823   -1.9884   -1.8193 O   0  0  0  0  0  0  0  0  0  0  0  0
   -1.1038   -3.2767   -1.2447 O   0  0  0  0  0  0  0  0  0  0  0  0
   -4.0570    1.2446    1.4868 O   0  0  0  0  0  0  0  0  0  0  0  0
   -6.6284    0.2598    0.7991 O   0  0  0  0  0  0  0  0  0  0  0  0
    2.0970   -0.0071    0.7626 C   0  0  1  0  0  0  0  0  0  0  0  0
    2.6199    1.3162    1.2923 C   0  0  2  0  0  0  0  0  0  0  0  0
    0.7375    0.3424   -0.0111 C   0  0  2  0  0  0  0  0  0  0  0  0
    3.0773    2.0616    0.0864 C   0  0  1  0  0  0  0  0  0  0  0  0
    3.2401   -0.3538   -0.2835 C   0  0  1  0  0  0  0  0  0  0  0  0
    2.3883    1.9308    2.6517 C   0  0  0  0  0  0  0  0  0  0  0  0
    3.9222    0.9963   -0.6269 C   0  0  1  0  0  0  0  0  0  0  0  0
    1.0377    1.4280   -1.1034 C   0  0  1  0  0  0  0  0  0  0  0  0
    1.9223   -1.0864    1.8373 C   0  0  0  0  0  0  0  0  0  0  0  0
   -0.3482    0.9208    0.9555 C   0  0  0  0  0  0  0  0  0  0  0  0
    0.1588   -0.9306   -0.6869 C   0  0  0  0  0  0  0  0  0  0  0  0
   -1.6349    1.4023    0.2623 C   0  0  1  0  0  0  0  0  0  0  0  0
   -0.1850    2.1282   -1.6338 C   0  0  0  0  0  0  0  0  0  0  0  0
   -1.3944    2.1070   -1.0486 C   0  0  0  0  0  0  0  0  0  0  0  0
    4.9368   -1.9664   -0.6058 C   0  0  0  0  0  0  0  0  0  0  0  0
   -2.5667    2.8241   -1.6559 C   0  0  0  0  0  0  0  0  0  0  0  0
   -1.1467   -2.8147   -0.1125 C   0  0  0  0  0  0  0  0  0  0  0  0
    5.9446   -2.7991    0.1272 C   0  0  0  0  0  0  0  0  0  0  0  0
   -3.6915    0.3409    0.7460 C   0  0  0  0  0  0  0  0  0  0  0  0
   -1.8659   -3.4625    1.0317 C   0  0  0  0  0  0  0  0  0  0  0  0
   -4.5242   -0.8827    0.4351 C   0  0  0  0  0  0  0  0  0  0  0  0
   -5.9060   -0.5383   -0.1408 C   0  0  0  0  0  0  0  0  0  0  0  0
   -6.7065   -1.8238   -0.3717 C   0  0  0  0  0  0  0  0  0  0  0  0
   -5.8112    0.2526   -1.4467 C   0  0  0  0  0  0  0  0  0  0  0  0
    3.6655    2.9560    0.3137 H   0  0  0  0  0  0  0  0  0  0  0  0
    2.8260   -0.8276   -1.1766 H   0  0  0  0  0  0  0  0  0  0  0  0
    2.4405    3.0082    2.7426 H   0  0  0  0  0  0  0  0  0  0  0  0
    1.6999    1.4534    3.3360 H   0  0  0  0  0  0  0  0  0  0  0  0
    4.9431    1.0181   -0.2242 H   0  0  0  0  0  0  0  0  0  0  0  0
    1.5060    0.9450   -1.9691 H   0  0  0  0  0  0  0  0  0  0  0  0
    1.1319   -0.8395    2.5510 H   0  0  0  0  0  0  0  0  0  0  0  0
    2.8355   -1.2165    2.4292 H   0  0  0  0  0  0  0  0  0  0  0  0
    1.6969   -2.0609    1.3938 H   0  0  0  0  0  0  0  0  0  0  0  0
    0.0668    1.8026    1.4568 H   0  0  0  0  0  0  0  0  0  0  0  0
   -0.6054    0.2189    1.7560 H   0  0  0  0  0  0  0  0  0  0  0  0
    0.9348   -1.5698   -1.1158 H   0  0  0  0  0  0  0  0  0  0  0  0
   -0.5267   -0.6683   -1.5012 H   0  0  0  0  0  0  0  0  0  0  0  0
   -2.0765    2.1435    0.9412 H   0  0  0  0  0  0  0  0  0  0  0  0
   -0.0525    2.6775   -2.5634 H   0  0  0  0  0  0  0  0  0  0  0  0
    4.4948    0.4832   -2.4104 H   0  0  0  0  0  0  0  0  0  0  0  0
   -3.3218    2.1040   -1.9814 H   0  0  0  0  0  0  0  0  0  0  0  0
   -2.2790    3.4192   -2.5291 H   0  0  0  0  0  0  0  0  0  0  0  0
   -3.0191    3.5050   -0.9279 H   0  0  0  0  0  0  0  0  0  0  0  0
    6.6516   -2.1498    0.6496 H   0  0  0  0  0  0  0  0  0  0  0  0
    6.4982   -3.4127   -0.5892 H   0  0  0  0  0  0  0  0  0  0  0  0
    5.4355   -3.4609    0.8324 H   0  0  0  0  0  0  0  0  0  0  0  0
   -2.3354   -2.7034    1.6628 H   0  0  0  0  0  0  0  0  0  0  0  0
   -1.1592   -4.0526    1.6194 H   0  0  0  0  0  0  0  0  0  0  0  0
   -2.6557   -4.1107    0.6423 H   0  0  0  0  0  0  0  0  0  0  0  0
   -3.9792   -1.5287   -0.2634 H   0  0  0  0  0  0  0  0  0  0  0  0
   -4.6218   -1.4336    1.3786 H   0  0  0  0  0  0  0  0  0  0  0  0
   -5.3678    1.2398   -1.2838 H   0  0  0  0  0  0  0  0  0  0  0  0
   -5.2195   -0.2795   -2.1985 H   0  0  0  0  0  0  0  0  0  0  0  0
   -6.8091    0.4381   -1.8611 H   0  0  0  0  0  0  0  0  0  0  0  0
   -6.8308   -2.3776    0.5659 H   0  0  0  0  0  0  0  0  0  0  0  0
   -7.7168   -1.5962   -0.7308 H   0  0  0  0  0  0  0  0  0  0  0  0
   -6.2176   -2.4789   -1.1001 H   0  0  0  0  0  0  0  0  0  0  0  0
   -6.1746    1.1146    0.8897 H   0  0  0  0  0  0  0  0  0  0  0  0
  1 12  1  0  0  0  0
  1 16  1  0  0  0  0
  2 14  1  0  0  0  0
  2 18  1  0  0  0  0
  3 15  1  0  0  0  0
  3 25  1  0  0  0  0
  4 17  1  0  0  0  0
  4 50  1  0  0  0  0
  5 21  1  0  0  0  0
  5 27  1  0  0  0  0
  6 22  1  0  0  0  0
  6 29  1  0  0  0  0
  7 25  2  0  0  0  0
  8 27  2  0  0  0  0
  9 29  2  0  0  0  0
 10 32  1  0  0  0  0
 10 68  1  0  0  0  0
 11 12  1  0  0  0  0
 11 13  1  0  0  0  0
 11 15  1  0  0  0  0
 11 19  1  0  0  0  0
 12 14  1  0  0  0  0
 12 16  1  0  0  0  0
 13 18  1  0  0  0  0
 13 20  1  0  0  0  0
 13 21  1  0  0  0  0
 14 17  1  0  0  0  0
 14 35  1  0  0  0  0
 15 17  1  0  0  0  0
 15 36  1  0  0  0  0
 16 37  1  0  0  0  0
 16 38  1  0  0  0  0
 17 39  1  0  0  0  0
 18 23  1  0  0  0  0
 18 40  1  0  0  0  0
 19 41  1  0  0  0  0
 19 42  1  0  0  0  0
 19 43  1  0  0  0  0
 20 22  1  0  0  0  0
 20 44  1  0  0  0  0
 20 45  1  0  0  0  0
 21 46  1  0  0  0  0
 21 47  1  0  0  0  0
 22 24  1  0  0  0  0
 22 48  1  0  0  0  0
 23 24  2  0  0  0  0
 23 49  1  0  0  0  0
 24 26  1  0  0  0  0
 25 28  1  0  0  0  0
 26 51  1  0  0  0  0
 26 52  1  0  0  0  0
 26 53  1  0  0  0  0
 27 30  1  0  0  0  0
 28 54  1  0  0  0  0
 28 55  1  0  0  0  0
 28 56  1  0  0  0  0
 29 31  1  0  0  0  0
 30 57  1  0  0  0  0
 30 58  1  0  0  0  0
 30 59  1  0  0  0  0
 31 32  1  0  0  0  0
 31 60  1  0  0  0  0
 31 61  1  0  0  0  0
 32 33  1  0  0  0  0
 32 34  1  0  0  0  0
 33 65  1  0  0  0  0
 33 66  1  0  0  0  0
 33 67  1  0  0  0  0
 34 62  1  0  0  0  0
 34 63  1  0  0  0  0
 34 64  1  0  0  0  0
M  END
> <PUBCHEM_COMPOUND_CID>
121596580

> <PUBCHEM_CONFORMER_RMSD>
1

> <PUBCHEM_CONFORMER_DIVERSEORDER>
1
9
5
10
19
12
17
14
16
21
15
20
23
18
6
3
4
22
7
13
11
24
8
2

> <PUBCHEM_MMFF94_PARTIAL_CHARGES>
34
1 -0.3
10 -0.68
11 0.09
12 -0.04
14 0.38
15 0.28
16 -0.05
17 0.28
18 0.42
2 -0.56
21 0.28
22 0.42
23 -0.29
24 -0.28
25 0.66
26 0.14
27 0.66
28 0.06
29 0.66
3 -0.43
30 0.06
31 0.06
32 0.28
37 0.1
38 0.1
4 -0.68
49 0.15
5 -0.43
50 0.4
6 -0.43
68 0.4
7 -0.57
8 -0.57
9 -0.57

> <PUBCHEM_EFFECTIVE_ROTOR_COUNT>
10.4

> <PUBCHEM_PHARMACOPHORE_FEATURES>
12
1 1 acceptor
1 10 acceptor
1 10 donor
1 2 acceptor
1 4 acceptor
1 4 donor
1 7 acceptor
1 8 acceptor
1 9 acceptor
3 32 33 34 hydrophobe
6 13 18 20 22 23 24 rings
8 2 11 12 13 14 15 17 18 rings

> <PUBCHEM_HEAVY_ATOM_COUNT>
34

> <PUBCHEM_ATOM_DEF_STEREO_COUNT>
8

> <PUBCHEM_ATOM_UDEF_STEREO_COUNT>
0

> <PUBCHEM_BOND_DEF_STEREO_COUNT>
0

> <PUBCHEM_BOND_UDEF_STEREO_COUNT>
0

> <PUBCHEM_ISOTOPIC_ATOM_COUNT>
0

> <PUBCHEM_COMPONENT_COUNT>
1

> <PUBCHEM_CACTVS_TAUTO_COUNT>
8

> <PUBCHEM_CONFORMER_ID>
073F6AA400000001

> <PUBCHEM_MMFF94_ENERGY>
109.4432

> <PUBCHEM_FEATURE_SELFOVERLAP>
60.915

> <PUBCHEM_SHAPE_FINGERPRINT>
10076449 9 18342184315645931862
11135609 12 18260818333275839672
11488393 25 18054510210288641495
11578080 2 17558824242031665624
12166972 35 18410579522161147169
12422481 6 18343301479288516879
13140716 1 17973432501617544753
13533116 47 18060137665074867371
13583140 156 17130148838995900930
13782708 43 18342739581058841743
14117953 113 18336262346076454223
14840074 17 18334581265659131901
17349148 13 18412268372026484329
18222031 100 18187362147267391409
19591789 44 18262801761594031502
20028762 73 18201438056356001767
21033648 29 18340186541040420705
23559900 14 18410577326762699146
350125 39 18338800009342218093
437815 12 18059585629171824670
484989 97 18335139756740401758
5104073 3 17274827960868199089
563151 74 17059474362351892922
59755656 215 18339642214360119583

> <PUBCHEM_SHAPE_MULTIPOLES>
641.01
12.87
3.55
1.85
12.6
1.8
0.52
6.05
-1.24
-0.99
-0.77
-1.25
-0.8
1.15

> <PUBCHEM_SHAPE_SELFOVERLAP>
1356.94

> <PUBCHEM_SHAPE_VOLUME>
354

> <PUBCHEM_COORDINATE_TYPE>
2
5
10

$$$$
