12174536
  -OEChem-03292013303D

 56 61  0     1  0  0  0  0  0999 V2000
   -0.9326   -3.3712    1.1718 O   0  0  0  0  0  0  0  0  0  0  0  0
   -6.1567    1.8726    0.4089 O   0  0  0  0  0  0  0  0  0  0  0  0
    2.1565   -3.0877   -0.0219 O   0  0  0  0  0  0  0  0  0  0  0  0
   -2.1050    1.7502    0.7433 O   0  0  0  0  0  0  0  0  0  0  0  0
   -0.1543    1.8604   -0.5984 O   0  0  0  0  0  0  0  0  0  0  0  0
   -4.2317    3.0609    0.3357 O   0  0  0  0  0  0  0  0  0  0  0  0
    4.3798   -1.9001    0.0569 O   0  0  0  0  0  0  0  0  0  0  0  0
    2.0316    2.8918   -0.1914 O   0  0  0  0  0  0  0  0  0  0  0  0
    6.7153   -0.8474    0.1430 O   0  0  0  0  0  0  0  0  0  0  0  0
   -0.6298   -3.0266   -0.1784 C   0  0  1  0  0  0  0  0  0  0  0  0
   -2.6617   -1.6023   -0.6307 C   0  0  0  0  0  0  0  0  0  0  0  0
   -1.9212   -2.8715   -0.9875 C   0  0  0  0  0  0  0  0  0  0  0  0
    0.1892   -1.7585   -0.1713 C   0  0  0  0  0  0  0  0  0  0  0  0
   -1.9381   -0.4444   -0.2640 C   0  0  0  0  0  0  0  0  0  0  0  0
   -0.4552   -0.5009   -0.2092 C   0  0  0  0  0  0  0  0  0  0  0  0
   -4.7736   -0.4195   -0.4043 C   0  0  0  0  0  0  0  0  0  0  0  0
   -4.0625   -1.5776   -0.7199 C   0  0  0  0  0  0  0  0  0  0  0  0
   -2.6743    0.7145    0.0460 C   0  0  0  0  0  0  0  0  0  0  0  0
    1.5890   -1.8464   -0.0930 C   0  0  0  0  0  0  0  0  0  0  0  0
   -4.0751    0.7272   -0.0253 C   0  0  0  0  0  0  0  0  0  0  0  0
    0.3568    0.6492   -0.2064 C   0  0  0  0  0  0  0  0  0  0  0  0
   -6.2679   -0.3745   -0.5031 C   0  0  0  0  0  0  0  0  0  0  0  0
    2.3707   -0.6896   -0.0782 C   0  0  0  0  0  0  0  0  0  0  0  0
    1.7562    0.5574   -0.1400 C   0  0  0  0  0  0  0  0  0  0  0  0
   -6.7732    0.5754    0.5726 C   0  0  2  0  0  0  0  0  0  0  0  0
   -4.8089    1.9840    0.2623 C   0  0  0  0  0  0  0  0  0  0  0  0
    3.8417   -0.8014   -0.0011 C   0  0  0  0  0  0  0  0  0  0  0  0
    2.5689    1.7924   -0.1357 C   0  0  0  0  0  0  0  0  0  0  0  0
    4.6545    0.4315    0.0047 C   0  0  0  0  0  0  0  0  0  0  0  0
    4.0401    1.6835   -0.0612 C   0  0  0  0  0  0  0  0  0  0  0  0
   -8.2803    0.7665    0.4812 C   0  0  0  0  0  0  0  0  0  0  0  0
    6.0497    0.3407    0.0762 C   0  0  0  0  0  0  0  0  0  0  0  0
    4.8212    2.8454   -0.0563 C   0  0  0  0  0  0  0  0  0  0  0  0
    2.3452   -3.6356    1.2791 C   0  0  0  0  0  0  0  0  0  0  0  0
    6.8243    1.5011    0.0810 C   0  0  0  0  0  0  0  0  0  0  0  0
    6.2114    2.7508    0.0148 C   0  0  0  0  0  0  0  0  0  0  0  0
   -0.0749   -3.8647   -0.6136 H   0  0  0  0  0  0  0  0  0  0  0  0
   -2.5658   -3.7396   -0.8030 H   0  0  0  0  0  0  0  0  0  0  0  0
   -1.6928   -2.8349   -2.0602 H   0  0  0  0  0  0  0  0  0  0  0  0
   -4.5992   -2.4712   -1.0310 H   0  0  0  0  0  0  0  0  0  0  0  0
   -6.7021   -1.3705   -0.3605 H   0  0  0  0  0  0  0  0  0  0  0  0
   -6.5352   -0.0170   -1.5049 H   0  0  0  0  0  0  0  0  0  0  0  0
   -6.5216    0.2116    1.5775 H   0  0  0  0  0  0  0  0  0  0  0  0
   -1.1855   -2.5666    1.6552 H   0  0  0  0  0  0  0  0  0  0  0  0
   -8.8103   -0.1813    0.6150 H   0  0  0  0  0  0  0  0  0  0  0  0
   -8.5641    1.1955   -0.4862 H   0  0  0  0  0  0  0  0  0  0  0  0
   -8.6224    1.4698    1.2483 H   0  0  0  0  0  0  0  0  0  0  0  0
   -2.7658    2.2349    1.2625 H   0  0  0  0  0  0  0  0  0  0  0  0
    0.2928    2.5699   -0.1096 H   0  0  0  0  0  0  0  0  0  0  0  0
    4.3675    3.8316   -0.1068 H   0  0  0  0  0  0  0  0  0  0  0  0
    1.5328   -4.3306    1.5062 H   0  0  0  0  0  0  0  0  0  0  0  0
    3.2839   -4.1970    1.2835 H   0  0  0  0  0  0  0  0  0  0  0  0
    2.3961   -2.8630    2.0542 H   0  0  0  0  0  0  0  0  0  0  0  0
    7.9087    1.4496    0.1358 H   0  0  0  0  0  0  0  0  0  0  0  0
    6.8164    3.6528    0.0187 H   0  0  0  0  0  0  0  0  0  0  0  0
    7.6729   -0.6839    0.1857 H   0  0  0  0  0  0  0  0  0  0  0  0
  1 10  1  0  0  0  0
  1 44  1  0  0  0  0
  2 25  1  0  0  0  0
  2 26  1  0  0  0  0
  3 19  1  0  0  0  0
  3 34  1  0  0  0  0
  4 18  1  0  0  0  0
  4 48  1  0  0  0  0
  5 21  1  0  0  0  0
  5 49  1  0  0  0  0
  6 26  2  0  0  0  0
  7 27  2  0  0  0  0
  8 28  2  0  0  0  0
  9 32  1  0  0  0  0
  9 56  1  0  0  0  0
 10 12  1  0  0  0  0
 10 13  1  0  0  0  0
 10 37  1  0  0  0  0
 11 12  1  0  0  0  0
 11 14  1  0  0  0  0
 11 17  2  0  0  0  0
 12 38  1  0  0  0  0
 12 39  1  0  0  0  0
 13 15  2  0  0  0  0
 13 19  1  0  0  0  0
 14 15  1  0  0  0  0
 14 18  2  0  0  0  0
 15 21  1  0  0  0  0
 16 17  1  0  0  0  0
 16 20  2  0  0  0  0
 16 22  1  0  0  0  0
 17 40  1  0  0  0  0
 18 20  1  0  0  0  0
 19 23  2  0  0  0  0
 20 26  1  0  0  0  0
 21 24  2  0  0  0  0
 22 25  1  0  0  0  0
 22 41  1  0  0  0  0
 22 42  1  0  0  0  0
 23 24  1  0  0  0  0
 23 27  1  0  0  0  0
 24 28  1  0  0  0  0
 25 31  1  0  0  0  0
 25 43  1  0  0  0  0
 27 29  1  0  0  0  0
 28 30  1  0  0  0  0
 29 30  2  0  0  0  0
 29 32  1  0  0  0  0
 30 33  1  0  0  0  0
 31 45  1  0  0  0  0
 31 46  1  0  0  0  0
 31 47  1  0  0  0  0
 32 35  2  0  0  0  0
 33 36  2  0  0  0  0
 33 50  1  0  0  0  0
 34 51  1  0  0  0  0
 34 52  1  0  0  0  0
 34 53  1  0  0  0  0
 35 36  1  0  0  0  0
 35 54  1  0  0  0  0
 36 55  1  0  0  0  0
M  END
> <PUBCHEM_COMPOUND_CID>
12174536

> <PUBCHEM_CONFORMER_RMSD>
0.8

> <PUBCHEM_CONFORMER_DIVERSEORDER>
1

> <PUBCHEM_MMFF94_PARTIAL_CHARGES>
41
1 -0.68
10 0.42
11 -0.14
12 0.14
13 -0.14
16 -0.14
17 -0.15
18 0.08
19 0.08
2 -0.43
20 0.09
21 0.08
22 0.14
23 0.09
24 0.09
25 0.28
26 0.63
27 0.4
28 0.4
29 0.09
3 -0.36
30 0.09
32 0.08
33 -0.15
34 0.28
35 -0.15
36 -0.15
4 -0.53
40 0.15
44 0.4
48 0.45
49 0.45
5 -0.53
50 0.15
54 0.15
55 0.15
56 0.45
6 -0.57
7 -0.57
8 -0.57
9 -0.53

> <PUBCHEM_EFFECTIVE_ROTOR_COUNT>
2

> <PUBCHEM_PHARMACOPHORE_FEATURES>
15
1 1 acceptor
1 1 donor
1 3 acceptor
1 4 donor
1 5 donor
1 6 acceptor
1 7 acceptor
1 8 acceptor
1 9 donor
6 10 11 12 13 14 15 rings
6 11 14 16 17 18 20 rings
6 13 15 19 21 23 24 rings
6 2 16 20 22 25 26 rings
6 23 24 27 28 29 30 rings
6 29 30 32 33 35 36 rings

> <PUBCHEM_HEAVY_ATOM_COUNT>
36

> <PUBCHEM_ATOM_DEF_STEREO_COUNT>
1

> <PUBCHEM_ATOM_UDEF_STEREO_COUNT>
1

> <PUBCHEM_BOND_DEF_STEREO_COUNT>
0

> <PUBCHEM_BOND_UDEF_STEREO_COUNT>
0

> <PUBCHEM_ISOTOPIC_ATOM_COUNT>
0

> <PUBCHEM_COMPONENT_COUNT>
1

> <PUBCHEM_CACTVS_TAUTO_COUNT>
994

> <PUBCHEM_CONFORMER_ID>
00B9C4C800000001

> <PUBCHEM_MMFF94_ENERGY>
151.7051

> <PUBCHEM_FEATURE_SELFOVERLAP>
76.291

> <PUBCHEM_SHAPE_FINGERPRINT>
10 15 18260269663630086017
10050765 1 18412262878358007926
10411042 1 17833831569669346290
10595046 47 18413386523748995469
10906281 52 18337681896564790566
1100329 8 18339641243095889912
11135926 11 18337098021166687063
11456790 92 18335133190368188560
11578080 2 17130125732351599130
12236239 1 18201718478695699341
12788726 201 17489312944993359737
12838862 33 18339906186944341037
13140716 1 18335419110514970858
14020679 6 17604431915489886626
14394314 77 18342462522211117841
14790565 3 18410012156659501236
14849402 71 18411703222686525337
15064981 194 17972890434032480806
15183329 4 18413388752235979732
15219462 58 16662057907316560329
15320467 1 18411699902323682840
15400415 2 18411135865948555940
15419008 145 18189886540408642264
15840311 113 18409170995577252701
15927050 60 18410572924348374383
16112460 7 18412832369245233072
16993438 75 18044663232789151083
18608769 82 18339645663408957171
19611394 137 18043542818488410011
20511986 3 18201144520830879452
20642791 178 17898578828546990716
21033648 144 18261384547436412287
21033648 29 17702366520657677760
21133410 171 16975271653042581862
21298829 104 18413107294449707244
21421861 104 18114449064759041578
21781055 127 16701468853631711979
23559900 14 18127964411410346920
24771293 8 18198328754096163688
3178227 256 18337122236762124569
335352 9 18410857668569559966
3388396 114 16904386270925807173
3411729 13 18411139108369270143
350125 39 18412543219552269629
3633792 109 18335123299148131165
3680242 22 18261946376408617962
4073 2 18188213203136522291
4093350 32 17346602941546895638
4516262 110 18334565859015355519
5104073 3 18187362155493628570
5776283 40 18197781205494650184
6036956 94 17326616302645635684
6086070 43 17203325679735740841
7288768 16 18113335349252710211
99344 41 18411419480241232937

> <PUBCHEM_SHAPE_MULTIPOLES>
688.04
17.72
3.96
0.79
7.47
1.64
0.06
-11.69
1.62
-1.79
0.57
0.32
0.34
-1.32

> <PUBCHEM_SHAPE_SELFOVERLAP>
1582.276

> <PUBCHEM_SHAPE_VOLUME>
348.1

> <PUBCHEM_COORDINATE_TYPE>
2
5
10

$$$$
