121872
  -OEChem-03292013323D

 56 57  0     1  0  0  0  0  0999 V2000
   -0.9081    0.9892    2.2085 O   0  0  0  0  0  0  0  0  0  0  0  0
    0.0325   -2.3954   -1.8311 O   0  0  0  0  0  0  0  0  0  0  0  0
   -0.5047   -4.1162   -0.4564 O   0  0  0  0  0  0  0  0  0  0  0  0
    1.8354    2.2386    1.4960 O   0  0  0  0  0  0  0  0  0  0  0  0
    1.9111    4.1165   -1.5445 O   0  0  0  0  0  0  0  0  0  0  0  0
    2.8039    4.5362    0.5049 O   0  0  0  0  0  0  0  0  0  0  0  0
   -0.8129   -1.7930    1.3281 N   0  0  0  0  0  0  0  0  0  0  0  0
   -0.6112    1.2841   -0.0724 N   0  0  0  0  0  0  0  0  0  0  0  0
   -1.6480   -0.7636    0.7081 C   0  0  1  0  0  0  0  0  0  0  0  0
    0.3632   -2.0592    0.5153 C   0  0  1  0  0  0  0  0  0  0  0  0
    1.4397   -2.7235    1.3852 C   0  0  0  0  0  0  0  0  0  0  0  0
   -3.0790   -0.8499    1.2585 C   0  0  0  0  0  0  0  0  0  0  0  0
    2.7498   -3.0390    0.6468 C   0  0  0  0  0  0  0  0  0  0  0  0
   -1.0165    0.5817    1.0530 C   0  0  0  0  0  0  0  0  0  0  0  0
   -4.0951   -0.1912    0.3552 C   0  0  0  0  0  0  0  0  0  0  0  0
   -0.0757   -2.9791   -0.6104 C   0  0  0  0  0  0  0  0  0  0  0  0
    3.4050   -1.8451   -0.0033 C   0  0  0  0  0  0  0  0  0  0  0  0
   -0.0091    2.5930    0.0153 C   0  0  0  0  0  0  0  0  0  0  0  0
   -4.4029    1.1593    0.5199 C   0  0  0  0  0  0  0  0  0  0  0  0
   -4.7251   -0.9333   -0.6440 C   0  0  0  0  0  0  0  0  0  0  0  0
    3.0852   -1.5037   -1.3175 C   0  0  0  0  0  0  0  0  0  0  0  0
    4.3300   -1.0825    0.7101 C   0  0  0  0  0  0  0  0  0  0  0  0
    1.5067    2.5069    0.1393 C   0  0  1  0  0  0  0  0  0  0  0  0
   -5.3409    1.7677   -0.3142 C   0  0  0  0  0  0  0  0  0  0  0  0
   -5.6629   -0.3247   -1.4782 C   0  0  0  0  0  0  0  0  0  0  0  0
   -5.9707    1.0258   -1.3132 C   0  0  0  0  0  0  0  0  0  0  0  0
    3.6906   -0.3999   -1.9184 C   0  0  0  0  0  0  0  0  0  0  0  0
    4.9351    0.0212    0.1090 C   0  0  0  0  0  0  0  0  0  0  0  0
    4.6154    0.3624   -1.2052 C   0  0  0  0  0  0  0  0  0  0  0  0
    2.1590    3.8166   -0.2441 C   0  0  0  0  0  0  0  0  0  0  0  0
   -1.6941   -0.9028   -0.3784 H   0  0  0  0  0  0  0  0  0  0  0  0
    0.7725   -1.1319    0.1045 H   0  0  0  0  0  0  0  0  0  0  0  0
    1.6725   -2.0644    2.2329 H   0  0  0  0  0  0  0  0  0  0  0  0
    1.0580   -3.6603    1.8129 H   0  0  0  0  0  0  0  0  0  0  0  0
   -0.5580   -1.5117    2.2741 H   0  0  0  0  0  0  0  0  0  0  0  0
   -3.3718   -1.9030    1.3753 H   0  0  0  0  0  0  0  0  0  0  0  0
   -3.1505   -0.4172    2.2653 H   0  0  0  0  0  0  0  0  0  0  0  0
    2.5728   -3.8110   -0.1131 H   0  0  0  0  0  0  0  0  0  0  0  0
    3.4547   -3.4936    1.3553 H   0  0  0  0  0  0  0  0  0  0  0  0
   -0.7269    0.8754   -0.9948 H   0  0  0  0  0  0  0  0  0  0  0  0
   -0.3115    3.1203   -0.8952 H   0  0  0  0  0  0  0  0  0  0  0  0
   -0.4414    3.1256    0.8705 H   0  0  0  0  0  0  0  0  0  0  0  0
   -3.9198    1.7485    1.2947 H   0  0  0  0  0  0  0  0  0  0  0  0
   -4.4917   -1.9853   -0.7845 H   0  0  0  0  0  0  0  0  0  0  0  0
    2.4122   -2.1126   -1.9075 H   0  0  0  0  0  0  0  0  0  0  0  0
    4.5851   -1.3366    1.7354 H   0  0  0  0  0  0  0  0  0  0  0  0
    1.9231    1.7078   -0.4814 H   0  0  0  0  0  0  0  0  0  0  0  0
   -5.5805    2.8192   -0.1859 H   0  0  0  0  0  0  0  0  0  0  0  0
   -6.1529   -0.9021   -2.2568 H   0  0  0  0  0  0  0  0  0  0  0  0
   -0.2632   -2.9935   -2.5501 H   0  0  0  0  0  0  0  0  0  0  0  0
   -6.7007    1.4996   -1.9630 H   0  0  0  0  0  0  0  0  0  0  0  0
    3.4502   -0.1407   -2.9453 H   0  0  0  0  0  0  0  0  0  0  0  0
    5.6541    0.6160    0.6647 H   0  0  0  0  0  0  0  0  0  0  0  0
    5.0872    1.2214   -1.6733 H   0  0  0  0  0  0  0  0  0  0  0  0
    2.7941    2.0800    1.5385 H   0  0  0  0  0  0  0  0  0  0  0  0
    2.3165    4.9703   -1.8067 H   0  0  0  0  0  0  0  0  0  0  0  0
  1 14  2  0  0  0  0
  2 16  1  0  0  0  0
  2 50  1  0  0  0  0
  3 16  2  0  0  0  0
  4 23  1  0  0  0  0
  4 55  1  0  0  0  0
  5 30  1  0  0  0  0
  5 56  1  0  0  0  0
  6 30  2  0  0  0  0
  7  9  1  0  0  0  0
  7 10  1  0  0  0  0
  7 35  1  0  0  0  0
  8 14  1  0  0  0  0
  8 18  1  0  0  0  0
  8 40  1  0  0  0  0
  9 12  1  0  0  0  0
  9 14  1  0  0  0  0
  9 31  1  0  0  0  0
 10 11  1  0  0  0  0
 10 16  1  0  0  0  0
 10 32  1  0  0  0  0
 11 13  1  0  0  0  0
 11 33  1  0  0  0  0
 11 34  1  0  0  0  0
 12 15  1  0  0  0  0
 12 36  1  0  0  0  0
 12 37  1  0  0  0  0
 13 17  1  0  0  0  0
 13 38  1  0  0  0  0
 13 39  1  0  0  0  0
 15 19  2  0  0  0  0
 15 20  1  0  0  0  0
 17 21  2  0  0  0  0
 17 22  1  0  0  0  0
 18 23  1  0  0  0  0
 18 41  1  0  0  0  0
 18 42  1  0  0  0  0
 19 24  1  0  0  0  0
 19 43  1  0  0  0  0
 20 25  2  0  0  0  0
 20 44  1  0  0  0  0
 21 27  1  0  0  0  0
 21 45  1  0  0  0  0
 22 28  2  0  0  0  0
 22 46  1  0  0  0  0
 23 30  1  0  0  0  0
 23 47  1  0  0  0  0
 24 26  2  0  0  0  0
 24 48  1  0  0  0  0
 25 26  1  0  0  0  0
 25 49  1  0  0  0  0
 26 51  1  0  0  0  0
 27 29  2  0  0  0  0
 27 52  1  0  0  0  0
 28 29  1  0  0  0  0
 28 53  1  0  0  0  0
 29 54  1  0  0  0  0
M  END
> <PUBCHEM_COMPOUND_CID>
121872

> <PUBCHEM_CONFORMER_RMSD>
1.2

> <PUBCHEM_CONFORMER_DIVERSEORDER>
10
39
98
20
74
67
78
23
3
76
75
43
22
62
90
99
65
97
81
19
73
17
56
83
92
55
9
31
86
47
8
96
40
84
63
6
42
82
4
25
70
85
26
38
13
12
72
15
80
36
60
69
16
49
35
61
28
88
18
71
95
37
1
94
34
50
53
87
77
79
7
64
58
51
44
32
68
48
30
54
59
93
5
57
27
46
45
33
89
29
66
14
91
11
41
24
21
52
2

> <PUBCHEM_MMFF94_PARTIAL_CHARGES>
44
1 -0.57
10 0.33
12 0.14
13 0.14
14 0.57
15 -0.14
16 0.66
17 -0.14
18 0.3
19 -0.15
2 -0.65
20 -0.15
21 -0.15
22 -0.15
23 0.34
24 -0.15
25 -0.15
26 -0.15
27 -0.15
28 -0.15
29 -0.15
3 -0.57
30 0.66
35 0.36
4 -0.68
40 0.37
43 0.15
44 0.15
45 0.15
46 0.15
48 0.15
49 0.15
5 -0.65
50 0.5
51 0.15
52 0.15
53 0.15
54 0.15
55 0.4
56 0.5
6 -0.57
7 -0.9
8 -0.73
9 0.33

> <PUBCHEM_EFFECTIVE_ROTOR_COUNT>
13

> <PUBCHEM_PHARMACOPHORE_FEATURES>
14
1 1 acceptor
1 2 acceptor
1 3 acceptor
1 4 acceptor
1 4 donor
1 5 acceptor
1 6 acceptor
1 7 cation
1 7 donor
1 8 donor
3 2 3 16 anion
3 5 6 30 anion
6 15 19 20 24 25 26 rings
6 17 21 22 27 28 29 rings

> <PUBCHEM_HEAVY_ATOM_COUNT>
30

> <PUBCHEM_ATOM_DEF_STEREO_COUNT>
1

> <PUBCHEM_ATOM_UDEF_STEREO_COUNT>
2

> <PUBCHEM_BOND_DEF_STEREO_COUNT>
0

> <PUBCHEM_BOND_UDEF_STEREO_COUNT>
0

> <PUBCHEM_ISOTOPIC_ATOM_COUNT>
0

> <PUBCHEM_COMPONENT_COUNT>
1

> <PUBCHEM_CACTVS_TAUTO_COUNT>
2

> <PUBCHEM_CONFORMER_ID>
0001DC100000000A

> <PUBCHEM_MMFF94_ENERGY>
53.9981

> <PUBCHEM_FEATURE_SELFOVERLAP>
71.172

> <PUBCHEM_SHAPE_FINGERPRINT>
10675989 125 18408045117278076248
12422481 6 8718833076366819747
12788726 201 17469039965148699995
1361 2 18412542093853924778
14117953 113 18268147544110287414
15328829 1 17774176595836098977
15439362 3 18336258033339185161
167882 2 18337106877489575321
17492 54 18409741651013401210
20715895 44 17531809030857600007
22113638 7 18411139156172897574
23559900 14 18410854407925166833
3298306 158 18122913289209605296
484985 159 14250436244486804190
532947 4 18338517559408418689
6669772 16 18193837265410702949

> <PUBCHEM_SHAPE_MULTIPOLES>
572.21
11.25
5.03
1.64
11.98
3.55
0.16
1.36
4.23
-4.73
0.16
-0.07
-0.17
-0.21

> <PUBCHEM_SHAPE_SELFOVERLAP>
1189.329

> <PUBCHEM_SHAPE_VOLUME>
322.8

> <PUBCHEM_COORDINATE_TYPE>
2
5
10

$$$$
