121834
  -OEChem-03292013323D

 37 38  0     0  0  0  0  0  0999 V2000
   -4.4914    0.1048   -0.4968 S   0  0  0  0  0  0  0  0  0  0  0  0
   -5.0071   -0.8245    0.7417 O   0  0  0  0  0  0  0  0  0  0  0  0
   -5.3263    1.2928   -0.5212 O   0  0  0  0  0  0  0  0  0  0  0  0
   -4.3477   -0.7355   -1.6714 O   0  0  0  0  0  0  0  0  0  0  0  0
    5.9553   -0.5603   -1.0541 O   0  0  0  0  0  0  0  0  0  0  0  0
    1.8738   -0.2565    0.8056 N   0  0  0  0  0  0  0  0  0  0  0  0
    4.5802    0.6714    0.3654 N   0  0  0  0  0  0  0  0  0  0  0  0
   -0.5091    0.2003    0.3860 C   0  0  0  0  0  0  0  0  0  0  0  0
   -1.7835   -0.2835    0.0056 C   0  0  0  0  0  0  0  0  0  0  0  0
    0.5776   -0.6881    0.4307 C   0  0  0  0  0  0  0  0  0  0  0  0
   -2.8700    0.6052   -0.0392 C   0  0  0  0  0  0  0  0  0  0  0  0
    2.9938   -1.1387    0.8602 C   0  0  0  0  0  0  0  0  0  0  0  0
   -0.3588    1.5586    0.7102 C   0  0  0  0  0  0  0  0  0  0  0  0
   -1.9336   -1.6416   -0.3188 C   0  0  0  0  0  0  0  0  0  0  0  0
    0.4102   -2.0345    0.1054 C   0  0  0  0  0  0  0  0  0  0  0  0
   -2.7027    1.9516    0.2866 C   0  0  0  0  0  0  0  0  0  0  0  0
    4.2438   -0.3833    1.2839 C   0  0  0  0  0  0  0  0  0  0  0  0
   -0.8430   -2.5103   -0.2687 C   0  0  0  0  0  0  0  0  0  0  0  0
   -1.4493    2.4274    0.6603 C   0  0  0  0  0  0  0  0  0  0  0  0
    5.4117    0.4927   -0.7315 C   0  0  0  0  0  0  0  0  0  0  0  0
    5.5762    1.7517   -1.5398 C   0  0  0  0  0  0  0  0  0  0  0  0
    2.8201   -1.9406    1.5875 H   0  0  0  0  0  0  0  0  0  0  0  0
    3.1758   -1.5925   -0.1219 H   0  0  0  0  0  0  0  0  0  0  0  0
    2.0204    0.7154    1.0397 H   0  0  0  0  0  0  0  0  0  0  0  0
    0.5898    1.9929    1.0092 H   0  0  0  0  0  0  0  0  0  0  0  0
   -2.8811   -2.1006   -0.5711 H   0  0  0  0  0  0  0  0  0  0  0  0
    1.2217   -2.7549    0.1306 H   0  0  0  0  0  0  0  0  0  0  0  0
    4.1010    0.0800    2.2666 H   0  0  0  0  0  0  0  0  0  0  0  0
    5.0888   -1.0767    1.3566 H   0  0  0  0  0  0  0  0  0  0  0  0
   -3.5236    2.6618    0.2647 H   0  0  0  0  0  0  0  0  0  0  0  0
   -0.9748   -3.5610   -0.5110 H   0  0  0  0  0  0  0  0  0  0  0  0
   -1.3199    3.4756    0.9144 H   0  0  0  0  0  0  0  0  0  0  0  0
    4.1708    1.5869    0.5282 H   0  0  0  0  0  0  0  0  0  0  0  0
   -5.0681   -0.3706    1.6150 H   0  0  0  0  0  0  0  0  0  0  0  0
    6.4033    1.6313   -2.2448 H   0  0  0  0  0  0  0  0  0  0  0  0
    4.6552    1.9504   -2.0947 H   0  0  0  0  0  0  0  0  0  0  0  0
    5.7965    2.5987   -0.8839 H   0  0  0  0  0  0  0  0  0  0  0  0
  1  2  1  0  0  0  0
  1  3  2  0  0  0  0
  1  4  2  0  0  0  0
  1 11  1  0  0  0  0
  2 34  1  0  0  0  0
  5 20  2  0  0  0  0
  6 10  1  0  0  0  0
  6 12  1  0  0  0  0
  6 24  1  0  0  0  0
  7 17  1  0  0  0  0
  7 20  1  0  0  0  0
  7 33  1  0  0  0  0
  8  9  2  0  0  0  0
  8 10  1  0  0  0  0
  8 13  1  0  0  0  0
  9 11  1  0  0  0  0
  9 14  1  0  0  0  0
 10 15  2  0  0  0  0
 11 16  2  0  0  0  0
 12 17  1  0  0  0  0
 12 22  1  0  0  0  0
 12 23  1  0  0  0  0
 13 19  2  0  0  0  0
 13 25  1  0  0  0  0
 14 18  2  0  0  0  0
 14 26  1  0  0  0  0
 15 18  1  0  0  0  0
 15 27  1  0  0  0  0
 16 19  1  0  0  0  0
 16 30  1  0  0  0  0
 17 28  1  0  0  0  0
 17 29  1  0  0  0  0
 18 31  1  0  0  0  0
 19 32  1  0  0  0  0
 20 21  1  0  0  0  0
 21 35  1  0  0  0  0
 21 36  1  0  0  0  0
 21 37  1  0  0  0  0
M  END
> <PUBCHEM_COMPOUND_CID>
121834

> <PUBCHEM_CONFORMER_RMSD>
0.8

> <PUBCHEM_CONFORMER_DIVERSEORDER>
1
13
12
8
17
7
19
21
18
14
5
9
20
4
11
16
6
10
3
2
15

> <PUBCHEM_MMFF94_PARTIAL_CHARGES>
28
1 1.49
10 0.1
11 -0.01
12 0.37
13 -0.15
14 -0.15
15 -0.15
16 -0.15
17 0.3
18 -0.15
19 -0.15
2 -0.68
20 0.57
21 0.06
24 0.4
25 0.15
26 0.15
27 0.15
3 -0.65
30 0.15
31 0.15
32 0.15
33 0.37
34 0.5
4 -0.65
5 -0.57
6 -0.87
7 -0.73

> <PUBCHEM_EFFECTIVE_ROTOR_COUNT>
6

> <PUBCHEM_PHARMACOPHORE_FEATURES>
10
1 2 acceptor
1 3 acceptor
1 4 acceptor
1 5 acceptor
1 6 cation
1 6 donor
1 7 donor
4 1 2 3 4 anion
6 8 9 10 14 15 18 rings
6 8 9 11 13 16 19 rings

> <PUBCHEM_HEAVY_ATOM_COUNT>
21

> <PUBCHEM_ATOM_DEF_STEREO_COUNT>
0

> <PUBCHEM_ATOM_UDEF_STEREO_COUNT>
0

> <PUBCHEM_BOND_DEF_STEREO_COUNT>
0

> <PUBCHEM_BOND_UDEF_STEREO_COUNT>
0

> <PUBCHEM_ISOTOPIC_ATOM_COUNT>
0

> <PUBCHEM_COMPONENT_COUNT>
1

> <PUBCHEM_CACTVS_TAUTO_COUNT>
2

> <PUBCHEM_CONFORMER_ID>
0001DBEA00000001

> <PUBCHEM_MMFF94_ENERGY>
58.2702

> <PUBCHEM_FEATURE_SELFOVERLAP>
50.83

> <PUBCHEM_SHAPE_FINGERPRINT>
10498660 4 18412546535609712336
10670039 82 18337397037618158796
10730089 173 18411139143377439120
10759866 29 18260260811602392370
10906281 52 18339930295270747105
12236239 1 18040152920548953794
12390115 104 17845100580073743081
12596602 18 17458062668315711378
12788726 201 18272652303326021992
12954195 1 17774449278339488216
13140716 1 18197772405211473459
13533116 47 14418400054618206048
13583140 156 16950574301918715552
14420673 8 9004855638172475124
14528608 73 18260548935552246348
14767858 380 18338788005183127863
14787075 74 18187080689344151283
14790565 3 18341614785233193329
14840074 17 17749401359887414412
15342168 16 16950573220357044654
15575132 122 18114181895585463324
21029758 27 18408320008332971305
21267235 1 18201152248405498879
21637258 2 14548724119543226189
23366157 5 17903638484188729722
23379529 103 16911976101282903711
23402539 116 18201139002109075495
23557571 272 17846505807267782932
23559900 14 18129379470533835088
2748010 2 18052802935223762571
2838139 119 16734926974910105069
3004659 81 18339923719850143434
3472631 163 18261118517135464428
34797466 226 16486678268785824849
3759504 43 17967813876856291659
474 4 17675928712022869048
5486654 2 18413105052824594043
56616090 284 17418377978434486034
6034566 193 16590300720629056332

> <PUBCHEM_SHAPE_MULTIPOLES>
402.58
12.51
2.32
1.16
12.12
0.05
-0.22
3.35
-4.6
-0.72
-0.02
0.84
0.12
-1.22

> <PUBCHEM_SHAPE_SELFOVERLAP>
842.567

> <PUBCHEM_SHAPE_VOLUME>
227.8

> <PUBCHEM_COORDINATE_TYPE>
2
5
10

$$$$
