121865
  -OEChem-03292013323D

 43 43  0     1  0  0  0  0  0999 V2000
    0.9273   -3.2770    0.5752 O   0  5  0  0  0  0  0  0  0  0  0  0
    0.2116   -2.4295   -1.3192 O   0  0  0  0  0  0  0  0  0  0  0  0
    4.8875    2.0170    0.1759 O   0  5  0  0  0  0  0  0  0  0  0  0
    5.1397    0.0636   -0.7933 O   0  0  0  0  0  0  0  0  0  0  0  0
   -3.9257    0.6901   -0.0114 N   0  0  1  0  0  0  0  0  0  0  0  0
   -0.8027   -0.4396    1.2264 N   0  0  0  0  0  0  0  0  0  0  0  0
   -0.4489    0.8032   -2.6112 N   0  0  0  0  0  0  0  0  0  0  0  0
    0.7831   -2.3108   -0.2101 N   0  3  0  0  0  0  0  0  0  0  0  0
    4.4429    0.8926   -0.1595 N   0  3  0  0  0  0  0  0  0  0  0  0
   -3.7437   -0.4936    0.8308 C   0  0  0  0  0  0  0  0  0  0  0  0
   -3.0538   -0.1545    2.1538 C   0  0  0  0  0  0  0  0  0  0  0  0
   -4.0484    0.3089   -1.4133 C   0  0  0  0  0  0  0  0  0  0  0  0
   -1.6714    0.4721    1.9626 C   0  0  0  0  0  0  0  0  0  0  0  0
   -2.6898   -0.0102   -2.0411 C   0  0  0  0  0  0  0  0  0  0  0  0
   -5.1024    1.4453    0.4225 C   0  0  0  0  0  0  0  0  0  0  0  0
   -1.7145    1.1671   -1.9838 C   0  0  0  0  0  0  0  0  0  0  0  0
    0.4926   -0.1290    0.8759 C   0  0  0  0  0  0  0  0  0  0  0  0
    1.2851   -1.0350    0.1710 C   0  0  0  0  0  0  0  0  0  0  0  0
    1.0090    1.1152    1.2376 C   0  0  0  0  0  0  0  0  0  0  0  0
    2.5940   -0.6967   -0.1724 C   0  0  0  0  0  0  0  0  0  0  0  0
    2.3180    1.4534    0.8942 C   0  0  0  0  0  0  0  0  0  0  0  0
    3.1105    0.5475    0.1894 C   0  0  0  0  0  0  0  0  0  0  0  0
   -3.1508   -1.2640    0.3271 H   0  0  0  0  0  0  0  0  0  0  0  0
   -4.7079   -0.9774    1.0393 H   0  0  0  0  0  0  0  0  0  0  0  0
   -2.9520   -1.0802    2.7351 H   0  0  0  0  0  0  0  0  0  0  0  0
   -3.6743    0.5180    2.7565 H   0  0  0  0  0  0  0  0  0  0  0  0
   -4.7331   -0.5395   -1.5422 H   0  0  0  0  0  0  0  0  0  0  0  0
   -4.4770    1.1383   -1.9921 H   0  0  0  0  0  0  0  0  0  0  0  0
   -1.2464    0.6683    2.9544 H   0  0  0  0  0  0  0  0  0  0  0  0
   -1.7715    1.4301    1.4406 H   0  0  0  0  0  0  0  0  0  0  0  0
   -2.2412   -0.8921   -1.5710 H   0  0  0  0  0  0  0  0  0  0  0  0
   -2.8582   -0.2836   -3.0913 H   0  0  0  0  0  0  0  0  0  0  0  0
   -5.2118    2.3574   -0.1756 H   0  0  0  0  0  0  0  0  0  0  0  0
   -6.0268    0.8637    0.3282 H   0  0  0  0  0  0  0  0  0  0  0  0
   -5.0064    1.7769    1.4612 H   0  0  0  0  0  0  0  0  0  0  0  0
   -1.1315   -1.3834    1.0605 H   0  0  0  0  0  0  0  0  0  0  0  0
   -1.5230    1.4754   -0.9534 H   0  0  0  0  0  0  0  0  0  0  0  0
   -2.1373    2.0284   -2.5119 H   0  0  0  0  0  0  0  0  0  0  0  0
    0.4352    1.8545    1.7879 H   0  0  0  0  0  0  0  0  0  0  0  0
    0.2185    1.5643   -2.4935 H   0  0  0  0  0  0  0  0  0  0  0  0
   -0.0484   -0.0053   -2.1388 H   0  0  0  0  0  0  0  0  0  0  0  0
    3.1952   -1.4178   -0.7228 H   0  0  0  0  0  0  0  0  0  0  0  0
    2.6875    2.4313    1.1926 H   0  0  0  0  0  0  0  0  0  0  0  0
  1  8  1  0  0  0  0
  2  8  2  0  0  0  0
  3  9  1  0  0  0  0
  4  9  2  0  0  0  0
  5 10  1  0  0  0  0
  5 12  1  0  0  0  0
  5 15  1  0  0  0  0
  6 13  1  0  0  0  0
  6 17  1  0  0  0  0
  6 36  1  0  0  0  0
  7 16  1  0  0  0  0
  7 40  1  0  0  0  0
  7 41  1  0  0  0  0
  8 18  1  0  0  0  0
  9 22  1  0  0  0  0
 10 11  1  0  0  0  0
 10 23  1  0  0  0  0
 10 24  1  0  0  0  0
 11 13  1  0  0  0  0
 11 25  1  0  0  0  0
 11 26  1  0  0  0  0
 12 14  1  0  0  0  0
 12 27  1  0  0  0  0
 12 28  1  0  0  0  0
 13 29  1  0  0  0  0
 13 30  1  0  0  0  0
 14 16  1  0  0  0  0
 14 31  1  0  0  0  0
 14 32  1  0  0  0  0
 15 33  1  0  0  0  0
 15 34  1  0  0  0  0
 15 35  1  0  0  0  0
 16 37  1  0  0  0  0
 16 38  1  0  0  0  0
 17 18  2  0  0  0  0
 17 19  1  0  0  0  0
 18 20  1  0  0  0  0
 19 21  2  0  0  0  0
 19 39  1  0  0  0  0
 20 22  2  0  0  0  0
 20 42  1  0  0  0  0
 21 22  1  0  0  0  0
 21 43  1  0  0  0  0
M  CHG  4   1  -1   3  -1   8   1   9   1
M  END
> <PUBCHEM_COMPOUND_CID>
121865

> <PUBCHEM_CONFORMER_RMSD>
1

> <PUBCHEM_CONFORMER_DIVERSEORDER>
1
101
128
33
122
70
115
97
35
107
106
12
77
123
39
92
19
111
75
72
103
80
28
119
98
88
45
117
110
15
108
25
21
40
116
94
32
38
104
22
61
95
60
47
126
120
67
18
131
53
3
81
66
20
85
102
29
17
127
68
49
86
54
96
37
87
51
79
52
10
64
46
83
118
65
34
24
44
36
42
6
69
76
57
50
90
27
109
91
58
23
9
114
100
112
89
7
30
55
43
14
5
71
41
16
78
31
63
105
8
74
93
99
13
48
130
84
129
124
82
2
62
125
73
4
121
113
59
11
26
56

> <PUBCHEM_MMFF94_PARTIAL_CHARGES>
26
1 -0.52
10 0.27
12 0.27
13 0.37
15 0.27
16 0.27
17 0.1
18 0.13
19 -0.15
2 -0.52
20 -0.15
21 -0.15
22 0.13
3 -0.52
36 0.4
39 0.15
4 -0.52
40 0.36
41 0.36
42 0.15
43 0.15
5 -0.81
6 -0.87
7 -0.99
8 0.91
9 0.91

> <PUBCHEM_EFFECTIVE_ROTOR_COUNT>
10

> <PUBCHEM_PHARMACOPHORE_FEATURES>
12
1 1 acceptor
1 1 anion
1 2 acceptor
1 3 acceptor
1 3 anion
1 4 acceptor
1 5 cation
1 6 cation
1 6 donor
1 7 cation
1 7 donor
6 17 18 19 20 21 22 rings

> <PUBCHEM_HEAVY_ATOM_COUNT>
22

> <PUBCHEM_ATOM_DEF_STEREO_COUNT>
0

> <PUBCHEM_ATOM_UDEF_STEREO_COUNT>
0

> <PUBCHEM_BOND_DEF_STEREO_COUNT>
0

> <PUBCHEM_BOND_UDEF_STEREO_COUNT>
0

> <PUBCHEM_ISOTOPIC_ATOM_COUNT>
0

> <PUBCHEM_COMPONENT_COUNT>
1

> <PUBCHEM_CACTVS_TAUTO_COUNT>
1

> <PUBCHEM_CONFORMER_ID>
0001DC0900000001

> <PUBCHEM_MMFF94_ENERGY>
59.2471

> <PUBCHEM_FEATURE_SELFOVERLAP>
61.059

> <PUBCHEM_SHAPE_FINGERPRINT>
10366900 7 18336252492968179309
10759866 29 17560240202713098525
12035759 4 17489586727488203790
12236239 1 17346601871873308729
12553582 1 16200145470548216379
12788726 201 16486136068500010137
12969540 114 18409447029173433080
14081887 123 16660354874994028837
14251764 3 18187364337499953460
16752209 62 15625933180842619009
17980427 23 16153999039901804071
18915476 22 18261951825941686603
20600515 1 16443643353889287285
20645476 183 17632569449469736797
21634736 98 16629667586982705417
22393880 68 17774992493102774665
23114952 82 18043807589604121803
23402539 116 17775574139222856920
23402655 69 17989492887707620513
23419403 2 17898864452124615606
23557571 272 17168727261867283947
23559900 14 16805883966588720298
23598291 2 17344641326803363963
2637199 183 17632568375126760359
53917941 68 17916294108195549056
603831 33 17704073950039984009
633830 44 18130781295723302464
8272917 22 17987524702233487035
90525 40 16343710893882788497

> <PUBCHEM_SHAPE_MULTIPOLES>
404.37
9.09
2.15
2.09
1.56
0.64
-1.66
0.29
4.64
-2.12
0.36
1.36
0.18
-0.61

> <PUBCHEM_SHAPE_SELFOVERLAP>
815.313

> <PUBCHEM_SHAPE_VOLUME>
238.7

> <PUBCHEM_COORDINATE_TYPE>
2
5
10

$$$$
