121945
  -OEChem-03292013323D

 51 52  0     1  0  0  0  0  0999 V2000
   -0.9313   -3.2742    0.0078 S   0  0  0  0  0  0  0  0  0  0  0  0
   -0.2552   -4.0477   -1.0162 O   0  0  0  0  0  0  0  0  0  0  0  0
   -1.5061   -3.9372    1.1627 O   0  0  0  0  0  0  0  0  0  0  0  0
   -2.8398    3.6644    1.4699 O   0  0  0  0  0  0  0  0  0  0  0  0
   -0.6264    3.3160    1.0913 O   0  0  0  0  0  0  0  0  0  0  0  0
   -2.1205   -2.2984   -0.7157 N   0  0  0  0  0  0  0  0  0  0  0  0
    3.6076    1.3884    0.0202 N   0  0  0  0  0  0  0  0  0  0  0  0
   -1.0459    2.9213   -1.5864 N   0  0  0  0  0  0  0  0  0  0  0  0
   -3.7641   -0.4803   -0.4306 C   0  0  0  0  0  0  0  0  0  0  0  0
   -2.6895    0.6087   -0.3294 C   0  0  0  0  0  0  0  0  0  0  0  0
   -3.2776   -1.8329    0.0791 C   0  0  0  0  0  0  0  0  0  0  0  0
   -3.2140    1.9502   -0.8606 C   0  0  0  0  0  0  0  0  0  0  0  0
    0.2062   -2.0675    0.6195 C   0  0  0  0  0  0  0  0  0  0  0  0
    1.0098   -1.2960   -0.2266 C   0  0  0  0  0  0  0  0  0  0  0  0
   -2.2274    3.1221   -0.7483 C   0  0  1  0  0  0  0  0  0  0  0  0
    1.8948   -0.3505    0.3441 C   0  0  0  0  0  0  0  0  0  0  0  0
    2.7045    0.4282   -0.4986 C   0  0  0  0  0  0  0  0  0  0  0  0
    0.2614   -1.9229    2.0015 C   0  0  0  0  0  0  0  0  0  0  0  0
    0.9606   -1.4348   -1.6233 C   0  0  0  0  0  0  0  0  0  0  0  0
    1.9437   -0.2114    1.7408 C   0  0  0  0  0  0  0  0  0  0  0  0
    1.1316   -0.9931    2.5628 C   0  0  0  0  0  0  0  0  0  0  0  0
    2.6428    0.2770   -1.8841 C   0  0  0  0  0  0  0  0  0  0  0  0
    1.7723   -0.6527   -2.4454 C   0  0  0  0  0  0  0  0  0  0  0  0
   -1.7768    3.3630    0.6792 C   0  0  0  0  0  0  0  0  0  0  0  0
    3.1768    2.7529    0.2315 C   0  0  0  0  0  0  0  0  0  0  0  0
    4.9621    1.0075    0.3550 C   0  0  0  0  0  0  0  0  0  0  0  0
   -4.6468   -0.1805    0.1467 H   0  0  0  0  0  0  0  0  0  0  0  0
   -4.0815   -0.5787   -1.4763 H   0  0  0  0  0  0  0  0  0  0  0  0
   -1.8063    0.3125   -0.9046 H   0  0  0  0  0  0  0  0  0  0  0  0
   -2.3791    0.7093    0.7168 H   0  0  0  0  0  0  0  0  0  0  0  0
   -4.0803   -2.5722   -0.0099 H   0  0  0  0  0  0  0  0  0  0  0  0
   -3.0057   -1.7441    1.1360 H   0  0  0  0  0  0  0  0  0  0  0  0
   -3.5079    1.8300   -1.9116 H   0  0  0  0  0  0  0  0  0  0  0  0
   -4.1318    2.2072   -0.3158 H   0  0  0  0  0  0  0  0  0  0  0  0
   -2.2642   -2.3615   -1.7310 H   0  0  0  0  0  0  0  0  0  0  0  0
   -2.7198    4.0383   -1.0951 H   0  0  0  0  0  0  0  0  0  0  0  0
   -0.3548   -2.5063    2.6780 H   0  0  0  0  0  0  0  0  0  0  0  0
    0.2862   -2.1056   -2.1399 H   0  0  0  0  0  0  0  0  0  0  0  0
    2.6086    0.5004    2.2235 H   0  0  0  0  0  0  0  0  0  0  0  0
    1.1786   -0.8747    3.6415 H   0  0  0  0  0  0  0  0  0  0  0  0
    3.2678    0.8810   -2.5372 H   0  0  0  0  0  0  0  0  0  0  0  0
    1.7188   -0.7628   -3.5247 H   0  0  0  0  0  0  0  0  0  0  0  0
   -0.4302    3.7305   -1.5142 H   0  0  0  0  0  0  0  0  0  0  0  0
   -0.5082    2.1224   -1.2531 H   0  0  0  0  0  0  0  0  0  0  0  0
    2.5260    2.8207    1.1092 H   0  0  0  0  0  0  0  0  0  0  0  0
    2.6235    3.1282   -0.6365 H   0  0  0  0  0  0  0  0  0  0  0  0
    4.0263    3.4258    0.3895 H   0  0  0  0  0  0  0  0  0  0  0  0
    5.4486    1.7561    0.9892 H   0  0  0  0  0  0  0  0  0  0  0  0
    5.5603    0.8961   -0.5555 H   0  0  0  0  0  0  0  0  0  0  0  0
    4.9843    0.0572    0.8994 H   0  0  0  0  0  0  0  0  0  0  0  0
   -2.5693    3.8299    2.3982 H   0  0  0  0  0  0  0  0  0  0  0  0
  1  2  2  0  0  0  0
  1  3  2  0  0  0  0
  1  6  1  0  0  0  0
  1 13  1  0  0  0  0
  4 24  1  0  0  0  0
  4 51  1  0  0  0  0
  5 24  2  0  0  0  0
  6 11  1  0  0  0  0
  6 35  1  0  0  0  0
  7 17  1  0  0  0  0
  7 25  1  0  0  0  0
  7 26  1  0  0  0  0
  8 15  1  0  0  0  0
  8 43  1  0  0  0  0
  8 44  1  0  0  0  0
  9 10  1  0  0  0  0
  9 11  1  0  0  0  0
  9 27  1  0  0  0  0
  9 28  1  0  0  0  0
 10 12  1  0  0  0  0
 10 29  1  0  0  0  0
 10 30  1  0  0  0  0
 11 31  1  0  0  0  0
 11 32  1  0  0  0  0
 12 15  1  0  0  0  0
 12 33  1  0  0  0  0
 12 34  1  0  0  0  0
 13 14  1  0  0  0  0
 13 18  2  0  0  0  0
 14 16  2  0  0  0  0
 14 19  1  0  0  0  0
 15 24  1  0  0  0  0
 15 36  1  0  0  0  0
 16 17  1  0  0  0  0
 16 20  1  0  0  0  0
 17 22  2  0  0  0  0
 18 21  1  0  0  0  0
 18 37  1  0  0  0  0
 19 23  2  0  0  0  0
 19 38  1  0  0  0  0
 20 21  2  0  0  0  0
 20 39  1  0  0  0  0
 21 40  1  0  0  0  0
 22 23  1  0  0  0  0
 22 41  1  0  0  0  0
 23 42  1  0  0  0  0
 25 45  1  0  0  0  0
 25 46  1  0  0  0  0
 25 47  1  0  0  0  0
 26 48  1  0  0  0  0
 26 49  1  0  0  0  0
 26 50  1  0  0  0  0
M  END
> <PUBCHEM_COMPOUND_CID>
121945

> <PUBCHEM_CONFORMER_RMSD>
1

> <PUBCHEM_CONFORMER_DIVERSEORDER>
1
81
59
7
84
16
28
36
21
30
15
69
46
79
64
22
87
45
35
93
5
39
13
49
54
74
4
17
76
85
27
109
58
42
92
71
43
47
99
98
41
55
10
77
14
34
6
65
75
101
26
31
53
56
72
68
60
70
48
73
40
11
51
88
91
18
24
110
97
50
103
29
20
80
67
19
23
9
112
63
113
90
96
114
82
3
33
8
57
102
2
25
66
106
78
95
62
52
105
44
89
86
61
108
37
111
32
104
94
115
38
83
12
100
107

> <PUBCHEM_MMFF94_PARTIAL_CHARGES>
31
1 1.45
11 0.36
13 -0.01
15 0.33
17 0.1
18 -0.15
19 -0.15
2 -0.65
20 -0.15
21 -0.15
22 -0.15
23 -0.15
24 0.66
25 0.37
26 0.37
3 -0.65
35 0.42
37 0.15
38 0.15
39 0.15
4 -0.65
40 0.15
41 0.15
42 0.15
43 0.36
44 0.36
5 -0.57
51 0.5
6 -0.91
7 -0.84
8 -0.99

> <PUBCHEM_EFFECTIVE_ROTOR_COUNT>
9

> <PUBCHEM_PHARMACOPHORE_FEATURES>
11
1 2 acceptor
1 3 acceptor
1 4 acceptor
1 5 acceptor
1 6 donor
1 7 cation
1 8 cation
1 8 donor
3 4 5 24 anion
6 13 14 16 18 20 21 rings
6 14 16 17 19 22 23 rings

> <PUBCHEM_HEAVY_ATOM_COUNT>
26

> <PUBCHEM_ATOM_DEF_STEREO_COUNT>
1

> <PUBCHEM_ATOM_UDEF_STEREO_COUNT>
0

> <PUBCHEM_BOND_DEF_STEREO_COUNT>
0

> <PUBCHEM_BOND_UDEF_STEREO_COUNT>
0

> <PUBCHEM_ISOTOPIC_ATOM_COUNT>
0

> <PUBCHEM_COMPONENT_COUNT>
1

> <PUBCHEM_CACTVS_TAUTO_COUNT>
1

> <PUBCHEM_CONFORMER_ID>
0001DC5900000001

> <PUBCHEM_MMFF94_ENERGY>
67.9439

> <PUBCHEM_FEATURE_SELFOVERLAP>
55.922

> <PUBCHEM_SHAPE_FINGERPRINT>
10498660 4 18410855447966089655
11578080 2 18052858860293702364
11640471 11 17821443564798810359
12293681 4 18266459987177240274
12788726 201 18118412975807021412
128993 33 17831602885031206605
13965767 371 17680425550660066237
14251757 17 17916317034794233438
151778 21 17548716079651201417
17818456 19 18335127722738014394
19930381 70 15239470717214004910
20465049 17 17335651629751532349
20600515 1 18191871338636018901
20905425 154 17328589934585562389
238 59 17689740574594935041
3493558 16 18189897707223423876
35225 105 18120341402647095621
3797600 57 18340189843632686348
469060 322 17677356981685538417
539174 4 17241584230870771274
550186 7 18341618165651478348

> <PUBCHEM_SHAPE_MULTIPOLES>
500.5
6.2
5.36
2.04
2.17
1.12
0.15
3.77
-0.49
-4.62
0.85
0.93
-0.41
-0.06

> <PUBCHEM_SHAPE_SELFOVERLAP>
1028.827

> <PUBCHEM_SHAPE_VOLUME>
288.7

> <PUBCHEM_COORDINATE_TYPE>
2
5
10

$$$$
