121939
  -OEChem-03292013323D

 29 28  0     1  0  0  0  0  0999 V2000
    2.0518   -2.0465   -0.4611 F   0  0  0  0  0  0  0  0  0  0  0  0
    3.7886   -0.7888   -0.8288 F   0  0  0  0  0  0  0  0  0  0  0  0
    1.6096   -0.7866    1.7784 O   0  0  0  0  0  0  0  0  0  0  0  0
    2.5952    1.2385    1.6702 O   0  0  0  0  0  0  0  0  0  0  0  0
    2.1995    1.5356   -1.0280 N   0  0  0  0  0  0  0  0  0  0  0  0
   -2.6449   -0.0897    0.2201 N   0  0  0  0  0  0  0  0  0  0  0  0
   -4.4590   -1.4793    0.6054 N   0  0  0  0  0  0  0  0  0  0  0  0
   -4.8442    0.4138   -0.6041 N   0  0  0  0  0  0  0  0  0  0  0  0
    1.7215    0.3031   -0.3978 C   0  0  1  0  0  0  0  0  0  0  0  0
    0.1959    0.1623   -0.6281 C   0  0  0  0  0  0  0  0  0  0  0  0
   -0.6569    1.3142   -0.0672 C   0  0  0  0  0  0  0  0  0  0  0  0
    2.4503   -0.8836   -1.0377 C   0  0  0  0  0  0  0  0  0  0  0  0
   -2.1399    1.1434   -0.3865 C   0  0  0  0  0  0  0  0  0  0  0  0
    2.0399    0.3048    1.0993 C   0  0  0  0  0  0  0  0  0  0  0  0
   -3.9074   -0.3411    0.0659 C   0  0  0  0  0  0  0  0  0  0  0  0
   -0.1490   -0.7821   -0.1877 H   0  0  0  0  0  0  0  0  0  0  0  0
    0.0026    0.0815   -1.7069 H   0  0  0  0  0  0  0  0  0  0  0  0
   -0.5257    1.3738    1.0196 H   0  0  0  0  0  0  0  0  0  0  0  0
   -0.3318    2.2715   -0.4881 H   0  0  0  0  0  0  0  0  0  0  0  0
    2.2746   -0.9574   -2.1158 H   0  0  0  0  0  0  0  0  0  0  0  0
   -2.2751    1.1188   -1.4746 H   0  0  0  0  0  0  0  0  0  0  0  0
   -2.6788    2.0119    0.0116 H   0  0  0  0  0  0  0  0  0  0  0  0
    3.2148    1.5910   -0.9526 H   0  0  0  0  0  0  0  0  0  0  0  0
    1.8348    2.3495   -0.5358 H   0  0  0  0  0  0  0  0  0  0  0  0
    1.8125   -0.7257    2.7362 H   0  0  0  0  0  0  0  0  0  0  0  0
   -3.8931   -2.1377    1.1296 H   0  0  0  0  0  0  0  0  0  0  0  0
   -5.4441   -1.6942    0.4966 H   0  0  0  0  0  0  0  0  0  0  0  0
   -5.8123    0.1159   -0.6600 H   0  0  0  0  0  0  0  0  0  0  0  0
   -4.6080    1.2854   -1.0647 H   0  0  0  0  0  0  0  0  0  0  0  0
  1 12  1  0  0  0  0
  2 12  1  0  0  0  0
  3 14  1  0  0  0  0
  3 25  1  0  0  0  0
  4 14  2  0  0  0  0
  5  9  1  0  0  0  0
  5 23  1  0  0  0  0
  5 24  1  0  0  0  0
  6 13  1  0  0  0  0
  6 15  2  0  0  0  0
  7 15  1  0  0  0  0
  7 26  1  0  0  0  0
  7 27  1  0  0  0  0
  8 15  1  0  0  0  0
  8 28  1  0  0  0  0
  8 29  1  0  0  0  0
  9 10  1  0  0  0  0
  9 12  1  0  0  0  0
  9 14  1  0  0  0  0
 10 11  1  0  0  0  0
 10 16  1  0  0  0  0
 10 17  1  0  0  0  0
 11 13  1  0  0  0  0
 11 18  1  0  0  0  0
 11 19  1  0  0  0  0
 12 20  1  0  0  0  0
 13 21  1  0  0  0  0
 13 22  1  0  0  0  0
M  END
> <PUBCHEM_COMPOUND_CID>
121939

> <PUBCHEM_CONFORMER_RMSD>
0.6

> <PUBCHEM_CONFORMER_DIVERSEORDER>
1
143
88
122
41
133
146
25
136
161
117
62
162
91
22
147
27
141
23
168
123
154
69
54
170
112
32
26
104
119
163
134
95
158
132
10
138
16
152
93
98
118
2
113
21
99
148
50
149
66
96
127
173
109
46
139
5
85
155
150
151
171
92
103
42
128
33
86
160
102
101
125
137
108
121
61
167
166
48
83
165
29
56
120
131
124
73
70
126
116
140
142
74
105
79
164
63
169
75
111
78
107
71
49
94
135
59
89
144
58
3
30
43
19
39
52
145
130
77
157
57
68
129
47
84
13
11
64
35
9
44
76
4
65
15
7
80
156
24
153
55
72
100
53
159
31
8
51
114
38
18
17
20
12
45
67
40
97
14
34
60
110
172
6
37
115
87
106
81
28
36
90
82

> <PUBCHEM_MMFF94_PARTIAL_CHARGES>
20
1 -0.34
12 0.68
13 0.25
14 0.66
15 0.55
2 -0.34
23 0.36
24 0.36
25 0.5
26 0.4
27 0.4
28 0.4
29 0.4
3 -0.65
4 -0.57
5 -0.99
6 -0.7
7 -0.85
8 -0.85
9 0.33

> <PUBCHEM_EFFECTIVE_ROTOR_COUNT>
6

> <PUBCHEM_PHARMACOPHORE_FEATURES>
8
1 3 acceptor
1 4 acceptor
1 5 cation
1 5 donor
1 7 donor
1 8 donor
3 3 4 14 anion
4 6 7 8 15 cation

> <PUBCHEM_HEAVY_ATOM_COUNT>
15

> <PUBCHEM_ATOM_DEF_STEREO_COUNT>
0

> <PUBCHEM_ATOM_UDEF_STEREO_COUNT>
1

> <PUBCHEM_BOND_DEF_STEREO_COUNT>
0

> <PUBCHEM_BOND_UDEF_STEREO_COUNT>
0

> <PUBCHEM_ISOTOPIC_ATOM_COUNT>
0

> <PUBCHEM_COMPONENT_COUNT>
1

> <PUBCHEM_CACTVS_TAUTO_COUNT>
2

> <PUBCHEM_CONFORMER_ID>
0001DC5300000001

> <PUBCHEM_MMFF94_ENERGY>
27.0396

> <PUBCHEM_FEATURE_SELFOVERLAP>
40.714

> <PUBCHEM_SHAPE_FINGERPRINT>
10382601 240 15984525810996356746
10980938 120 15554444132541466353
12932764 1 17418372493582193429
13296908 3 18409731768420078381
14252887 29 18341051908240987753
15757776 16 17313105250111747374
17041 49 14476957861389329482
18186145 218 17530683221466778501
19107657 162 18410573998648393171
20279233 1 18343293786875287265
20281407 28 18411140242878666805
20523700 14 16081378461645258947
20539784 86 17489579082704957968
20645476 183 15792025510086798131
20645477 70 18260548961369289223
212847 35 11239736170638079427
21730867 7 17917705812047329760
22169311 21 18342170077491391087
23048698 100 16486970713451699121
231179 274 7925622298302650166
23402655 69 15791725270424026709
23557571 272 18337375059664324265
23559900 14 18409166571819024821
3060560 45 16950288407647568782
31174 14 17489297594658963001
3286 77 17560802100072374181
581208 293 18341608248165718453
8030462 33 16226053253758174253

> <PUBCHEM_SHAPE_MULTIPOLES>
262.48
7.92
1.53
1.28
9.83
0.22
0.49
2.04
-0.29
-0.36
-0.09
-1.24
-0.01
0.78

> <PUBCHEM_SHAPE_SELFOVERLAP>
512.702

> <PUBCHEM_SHAPE_VOLUME>
156.9

> <PUBCHEM_COORDINATE_TYPE>
2
5
10

$$$$
