121906
  -OEChem-03292013323D

 54 56  0     1  0  0  0  0  0999 V2000
    0.6279    0.7483   -0.7333 O   0  0  0  0  0  0  0  0  0  0  0  0
    3.4656   -1.2341    0.2031 O   0  0  0  0  0  0  0  0  0  0  0  0
   -2.5774    0.9734    1.3553 O   0  0  0  0  0  0  0  0  0  0  0  0
   -3.9786    4.8452    1.0597 O   0  0  0  0  0  0  0  0  0  0  0  0
    4.0364    1.5668   -1.9945 O   0  0  0  0  0  0  0  0  0  0  0  0
    6.1815    1.1002   -2.5676 O   0  0  0  0  0  0  0  0  0  0  0  0
    1.0925   -0.4774    1.1742 N   0  0  0  0  0  0  0  0  0  0  0  0
   -1.8637    0.0301   -0.6515 N   0  0  0  0  0  0  0  0  0  0  0  0
   -4.1700    2.6624    0.2347 N   0  0  0  0  0  0  0  0  0  0  0  0
    4.3115    0.9114    0.5194 N   0  0  0  0  0  0  0  0  0  0  0  0
   -1.4800   -4.4624   -0.5211 N   0  0  0  0  0  0  0  0  0  0  0  0
   -3.6830   -4.3735   -0.7877 N   0  0  0  0  0  0  0  0  0  0  0  0
    2.2590    0.2920    1.5865 C   0  0  1  0  0  0  0  0  0  0  0  0
    2.5058   -0.1234    3.0322 C   0  0  0  0  0  0  0  0  0  0  0  0
    1.9720   -1.5528    3.0868 C   0  0  0  0  0  0  0  0  0  0  0  0
    0.7720   -1.5137    2.1526 C   0  0  0  0  0  0  0  0  0  0  0  0
   -0.9437   -0.9278   -0.1091 C   0  0  2  0  0  0  0  0  0  0  0  0
    0.3249   -0.1334    0.0724 C   0  0  0  0  0  0  0  0  0  0  0  0
    3.3922   -0.1094    0.6909 C   0  0  0  0  0  0  0  0  0  0  0  0
   -3.4695    1.8151   -0.6885 C   0  0  1  0  0  0  0  0  0  0  0  0
   -0.6952   -2.1159   -1.0299 C   0  0  0  0  0  0  0  0  0  0  0  0
   -2.6646    2.7863   -1.5311 C   0  0  0  0  0  0  0  0  0  0  0  0
   -2.6087    0.9065    0.1293 C   0  0  0  0  0  0  0  0  0  0  0  0
   -2.4394    3.9867   -0.6121 C   0  0  0  0  0  0  0  0  0  0  0  0
   -1.7620   -3.1743   -0.8794 C   0  0  0  0  0  0  0  0  0  0  0  0
   -3.6176    3.9352    0.3295 C   0  0  0  0  0  0  0  0  0  0  0  0
    5.5072    0.7723   -0.2802 C   0  0  0  0  0  0  0  0  0  0  0  0
   -3.1275   -3.1441   -1.0388 C   0  0  0  0  0  0  0  0  0  0  0  0
   -2.6640   -5.1448   -0.4792 C   0  0  0  0  0  0  0  0  0  0  0  0
    5.2965    1.1551   -1.7225 C   0  0  0  0  0  0  0  0  0  0  0  0
    2.0490    1.3627    1.4893 H   0  0  0  0  0  0  0  0  0  0  0  0
    3.5550   -0.0621    3.3368 H   0  0  0  0  0  0  0  0  0  0  0  0
    1.9146    0.5088    3.7059 H   0  0  0  0  0  0  0  0  0  0  0  0
    0.5867   -2.4739    1.6642 H   0  0  0  0  0  0  0  0  0  0  0  0
   -0.1270   -1.2027    2.6960 H   0  0  0  0  0  0  0  0  0  0  0  0
    1.7056   -1.8689    4.0992 H   0  0  0  0  0  0  0  0  0  0  0  0
    2.7268   -2.2491    2.7028 H   0  0  0  0  0  0  0  0  0  0  0  0
   -1.3468   -1.2499    0.8550 H   0  0  0  0  0  0  0  0  0  0  0  0
   -4.1858    1.2310   -1.2736 H   0  0  0  0  0  0  0  0  0  0  0  0
    0.2808   -2.5688   -0.8121 H   0  0  0  0  0  0  0  0  0  0  0  0
   -0.6594   -1.8007   -2.0807 H   0  0  0  0  0  0  0  0  0  0  0  0
   -1.9462    0.0896   -1.6626 H   0  0  0  0  0  0  0  0  0  0  0  0
   -1.7218    2.3927   -1.9216 H   0  0  0  0  0  0  0  0  0  0  0  0
   -3.2680    3.1084   -2.3896 H   0  0  0  0  0  0  0  0  0  0  0  0
   -2.4229    4.9268   -1.1684 H   0  0  0  0  0  0  0  0  0  0  0  0
   -1.5189    3.8770   -0.0304 H   0  0  0  0  0  0  0  0  0  0  0  0
   -4.9614    2.3572    0.7927 H   0  0  0  0  0  0  0  0  0  0  0  0
    4.1489    1.8089    0.9664 H   0  0  0  0  0  0  0  0  0  0  0  0
    6.2643    1.4332    0.1504 H   0  0  0  0  0  0  0  0  0  0  0  0
    5.8454   -0.2675   -0.2419 H   0  0  0  0  0  0  0  0  0  0  0  0
   -0.5649   -4.8441   -0.3219 H   0  0  0  0  0  0  0  0  0  0  0  0
   -3.7420   -2.3019   -1.3227 H   0  0  0  0  0  0  0  0  0  0  0  0
   -2.7142   -6.1923   -0.2183 H   0  0  0  0  0  0  0  0  0  0  0  0
    3.9250    1.8102   -2.9382 H   0  0  0  0  0  0  0  0  0  0  0  0
  1 18  2  0  0  0  0
  2 19  2  0  0  0  0
  3 23  2  0  0  0  0
  4 26  2  0  0  0  0
  5 30  1  0  0  0  0
  5 54  1  0  0  0  0
  6 30  2  0  0  0  0
  7 13  1  0  0  0  0
  7 16  1  0  0  0  0
  7 18  1  0  0  0  0
  8 17  1  0  0  0  0
  8 23  1  0  0  0  0
  8 42  1  0  0  0  0
  9 20  1  0  0  0  0
  9 26  1  0  0  0  0
  9 47  1  0  0  0  0
 10 19  1  0  0  0  0
 10 27  1  0  0  0  0
 10 48  1  0  0  0  0
 11 25  1  0  0  0  0
 11 29  1  0  0  0  0
 11 51  1  0  0  0  0
 12 28  1  0  0  0  0
 12 29  2  0  0  0  0
 13 14  1  0  0  0  0
 13 19  1  0  0  0  0
 13 31  1  0  0  0  0
 14 15  1  0  0  0  0
 14 32  1  0  0  0  0
 14 33  1  0  0  0  0
 15 16  1  0  0  0  0
 15 36  1  0  0  0  0
 15 37  1  0  0  0  0
 16 34  1  0  0  0  0
 16 35  1  0  0  0  0
 17 18  1  0  0  0  0
 17 21  1  0  0  0  0
 17 38  1  0  0  0  0
 20 22  1  0  0  0  0
 20 23  1  0  0  0  0
 20 39  1  0  0  0  0
 21 25  1  0  0  0  0
 21 40  1  0  0  0  0
 21 41  1  0  0  0  0
 22 24  1  0  0  0  0
 22 43  1  0  0  0  0
 22 44  1  0  0  0  0
 24 26  1  0  0  0  0
 24 45  1  0  0  0  0
 24 46  1  0  0  0  0
 25 28  2  0  0  0  0
 27 30  1  0  0  0  0
 27 49  1  0  0  0  0
 27 50  1  0  0  0  0
 28 52  1  0  0  0  0
 29 53  1  0  0  0  0
M  END
> <PUBCHEM_COMPOUND_CID>
121906

> <PUBCHEM_CONFORMER_RMSD>
1.2

> <PUBCHEM_CONFORMER_DIVERSEORDER>
1
9
30
17
7
25
27
14
21
10
11
26
22
19
20
8
24
6
18
13
4
29
5
12
16
3
28
15
2
23

> <PUBCHEM_MMFF94_PARTIAL_CHARGES>
34
1 -0.57
10 -0.73
11 0.03
12 -0.57
13 0.36
16 0.3
17 0.36
18 0.57
19 0.57
2 -0.57
20 0.36
21 0.18
23 0.57
24 0.06
25 -0.33
26 0.57
27 0.36
28 0.08
29 0.04
3 -0.57
30 0.66
4 -0.57
42 0.37
47 0.37
48 0.37
5 -0.65
51 0.27
52 0.15
53 0.15
54 0.5
6 -0.57
7 -0.66
8 -0.73
9 -0.73

> <PUBCHEM_EFFECTIVE_ROTOR_COUNT>
12.8

> <PUBCHEM_PHARMACOPHORE_FEATURES>
15
1 1 acceptor
1 10 donor
1 11 donor
1 2 acceptor
1 3 acceptor
1 4 acceptor
1 5 acceptor
1 6 acceptor
1 8 donor
1 9 donor
3 11 12 29 cation
3 5 6 30 anion
5 11 12 25 28 29 rings
5 7 13 14 15 16 rings
5 9 20 22 24 26 rings

> <PUBCHEM_HEAVY_ATOM_COUNT>
30

> <PUBCHEM_ATOM_DEF_STEREO_COUNT>
3

> <PUBCHEM_ATOM_UDEF_STEREO_COUNT>
0

> <PUBCHEM_BOND_DEF_STEREO_COUNT>
0

> <PUBCHEM_BOND_UDEF_STEREO_COUNT>
0

> <PUBCHEM_ISOTOPIC_ATOM_COUNT>
0

> <PUBCHEM_COMPONENT_COUNT>
1

> <PUBCHEM_CACTVS_TAUTO_COUNT>
24

> <PUBCHEM_CONFORMER_ID>
0001DC3200000001

> <PUBCHEM_MMFF94_ENERGY>
58.4771

> <PUBCHEM_FEATURE_SELFOVERLAP>
76.183

> <PUBCHEM_SHAPE_FINGERPRINT>
10169797 241 16095428338869270266
105312 117 18271528611232816420
10794284 68 17973192744238032587
10940486 97 18120069729498541250
11049842 53 18124861388060542602
12160290 23 17986361534721681343
12788726 201 18190445229290366675
13617811 41 18123460846063899126
13673619 4 17486506068239253862
13690498 29 18057896938272434222
15163728 17 18126010368768127925
15297060 5 18056764213367990384
15664445 248 17188124033854956984
15842332 3 17968916648759598506
18785283 64 17618219508261642835
19311894 1 18410860966846662420
20101258 96 18194409024510827619
20739085 24 17330250793812136506
21033648 29 18128802063140279809
21033650 10 18263937673702747784
21120745 212 18193847165473935381
21796203 349 18046937002599394451
22907989 373 18337653313483641599
23366157 5 17476634283656682965
3388396 114 17541678539540184068
340366 18 18192990418720896494
3610482 184 17896339033472430884
38570 142 17823436911346371828
4058900 60 17984149154228674009
57527585 21 17392802388953618670
621550 5 17557713752251482354
633830 44 17530686494448116418
6700243 42 17912954904504149454
7808743 9 18411130325482968232
79837 15 18124568943995541555

> <PUBCHEM_SHAPE_MULTIPOLES>
552.28
10.23
6.51
2.37
13.14
2.92
-1.18
-7.1
4.68
-14.03
1.58
3.55
0.03
-3.56

> <PUBCHEM_SHAPE_SELFOVERLAP>
1166.822

> <PUBCHEM_SHAPE_VOLUME>
310

> <PUBCHEM_COORDINATE_TYPE>
2
5
10

$$$$
