121963
  -OEChem-03292013323D

 48 50  0     1  0  0  0  0  0999 V2000
    2.9816   -1.6694    0.5436 S   0  0  0  0  0  0  0  0  0  0  0  0
    4.3029    1.7278   -1.1854 O   0  0  0  0  0  0  0  0  0  0  0  0
    3.9682   -2.5671   -0.0309 O   0  0  0  0  0  0  0  0  0  0  0  0
    3.0659   -1.3105    1.9475 O   0  0  0  0  0  0  0  0  0  0  0  0
    1.9986    2.7799    0.7599 O   0  0  0  0  0  0  0  0  0  0  0  0
   -0.7350    1.2225    2.0201 O   0  0  0  0  0  0  0  0  0  0  0  0
   -1.3878   -2.7953   -0.4860 O   0  0  0  0  0  0  0  0  0  0  0  0
   -4.2519    2.6571    1.3973 O   0  0  0  0  0  0  0  0  0  0  0  0
   -3.9346    0.6170    0.4311 O   0  0  0  0  0  0  0  0  0  0  0  0
   -3.4005   -3.4304    0.4539 O   0  0  0  0  0  0  0  0  0  0  0  0
    1.7085    0.4982    0.2301 N   0  0  0  0  0  0  0  0  0  0  0  0
   -1.3866    1.3670   -0.1992 N   0  0  0  0  0  0  0  0  0  0  0  0
    2.8052   -0.2012   -0.4182 C   0  0  1  0  0  0  0  0  0  0  0  0
    3.6652    1.0364   -0.1015 C   0  0  2  0  0  0  0  0  0  0  0  0
    0.4844   -0.0359    0.4816 C   0  0  0  0  0  0  0  0  0  0  0  0
    2.3369    1.6883    0.3656 C   0  0  0  0  0  0  0  0  0  0  0  0
    1.3751   -2.3977    0.2849 C   0  0  0  0  0  0  0  0  0  0  0  0
    0.2701   -1.3719    0.4685 C   0  0  0  0  0  0  0  0  0  0  0  0
   -0.5957    0.9052    0.8390 C   0  0  0  0  0  0  0  0  0  0  0  0
   -2.3789    2.4168   -0.0009 C   0  0  1  0  0  0  0  0  0  0  0  0
   -1.2661    1.0243   -1.6163 C   0  0  0  0  0  0  0  0  0  0  0  0
   -2.6677    2.9492   -1.3990 C   0  0  0  0  0  0  0  0  0  0  0  0
   -2.4247    1.7389   -2.2959 C   0  0  0  0  0  0  0  0  0  0  0  0
   -1.0771   -2.0265    0.6569 C   0  0  0  0  0  0  0  0  0  0  0  0
   -3.5875    1.7748    0.6116 C   0  0  0  0  0  0  0  0  0  0  0  0
    5.5060    1.0825   -1.5617 C   0  0  0  0  0  0  0  0  0  0  0  0
   -2.5902   -3.4551   -0.4627 C   0  0  0  0  0  0  0  0  0  0  0  0
   -2.7844   -4.2249   -1.7338 C   0  0  0  0  0  0  0  0  0  0  0  0
    2.6289   -0.3914   -1.4826 H   0  0  0  0  0  0  0  0  0  0  0  0
    4.3530    0.9134    0.7466 H   0  0  0  0  0  0  0  0  0  0  0  0
    1.2883   -3.2129    1.0104 H   0  0  0  0  0  0  0  0  0  0  0  0
    1.3534   -2.8109   -0.7281 H   0  0  0  0  0  0  0  0  0  0  0  0
   -1.9778    3.1786    0.6762 H   0  0  0  0  0  0  0  0  0  0  0  0
   -1.2984   -0.0589   -1.7602 H   0  0  0  0  0  0  0  0  0  0  0  0
   -0.3019    1.4023   -1.9734 H   0  0  0  0  0  0  0  0  0  0  0  0
   -1.9476    3.7370   -1.6519 H   0  0  0  0  0  0  0  0  0  0  0  0
   -3.6770    3.3552   -1.5160 H   0  0  0  0  0  0  0  0  0  0  0  0
   -3.3119    1.0947   -2.3026 H   0  0  0  0  0  0  0  0  0  0  0  0
   -2.1996    2.0136   -3.3303 H   0  0  0  0  0  0  0  0  0  0  0  0
   -1.8729   -1.2942    0.8229 H   0  0  0  0  0  0  0  0  0  0  0  0
   -1.0378   -2.6762    1.5404 H   0  0  0  0  0  0  0  0  0  0  0  0
    5.3110    0.0542   -1.8809 H   0  0  0  0  0  0  0  0  0  0  0  0
    6.2212    1.0894   -0.7334 H   0  0  0  0  0  0  0  0  0  0  0  0
    5.9433    1.6292   -2.4016 H   0  0  0  0  0  0  0  0  0  0  0  0
   -5.0478    2.2558    1.8068 H   0  0  0  0  0  0  0  0  0  0  0  0
   -1.9885   -4.9658   -1.8427 H   0  0  0  0  0  0  0  0  0  0  0  0
   -2.7907   -3.5384   -2.5842 H   0  0  0  0  0  0  0  0  0  0  0  0
   -3.7449   -4.7469   -1.6993 H   0  0  0  0  0  0  0  0  0  0  0  0
  1  3  2  0  0  0  0
  1  4  2  0  0  0  0
  1 13  1  0  0  0  0
  1 17  1  0  0  0  0
  2 14  1  0  0  0  0
  2 26  1  0  0  0  0
  5 16  2  0  0  0  0
  6 19  2  0  0  0  0
  7 24  1  0  0  0  0
  7 27  1  0  0  0  0
  8 25  1  0  0  0  0
  8 45  1  0  0  0  0
  9 25  2  0  0  0  0
 10 27  2  0  0  0  0
 11 13  1  0  0  0  0
 11 15  1  0  0  0  0
 11 16  1  0  0  0  0
 12 19  1  0  0  0  0
 12 20  1  0  0  0  0
 12 21  1  0  0  0  0
 13 14  1  0  0  0  0
 13 29  1  0  0  0  0
 14 16  1  0  0  0  0
 14 30  1  0  0  0  0
 15 18  2  0  0  0  0
 15 19  1  0  0  0  0
 17 18  1  0  0  0  0
 17 31  1  0  0  0  0
 17 32  1  0  0  0  0
 18 24  1  0  0  0  0
 20 22  1  0  0  0  0
 20 25  1  0  0  0  0
 20 33  1  0  0  0  0
 21 23  1  0  0  0  0
 21 34  1  0  0  0  0
 21 35  1  0  0  0  0
 22 23  1  0  0  0  0
 22 36  1  0  0  0  0
 22 37  1  0  0  0  0
 23 38  1  0  0  0  0
 23 39  1  0  0  0  0
 24 40  1  0  0  0  0
 24 41  1  0  0  0  0
 26 42  1  0  0  0  0
 26 43  1  0  0  0  0
 26 44  1  0  0  0  0
 27 28  1  0  0  0  0
 28 46  1  0  0  0  0
 28 47  1  0  0  0  0
 28 48  1  0  0  0  0
M  END
> <PUBCHEM_COMPOUND_CID>
121963

> <PUBCHEM_CONFORMER_RMSD>
1

> <PUBCHEM_CONFORMER_DIVERSEORDER>
1
5
17
8
9
15
19
3
11
10
7
14
6
12
18
16
4
2
13

> <PUBCHEM_MMFF94_PARTIAL_CHARGES>
27
1 1.1
10 -0.57
11 -0.39
12 -0.66
13 0.32
14 0.31
15 0.12
16 0.58
17 0.24
18 -0.28
19 0.62
2 -0.54
20 0.36
21 0.3
24 0.42
25 0.66
26 0.28
27 0.66
28 0.06
3 -0.65
4 -0.65
45 0.5
5 -0.57
6 -0.57
7 -0.43
8 -0.65
9 -0.57

> <PUBCHEM_EFFECTIVE_ROTOR_COUNT>
8.4

> <PUBCHEM_PHARMACOPHORE_FEATURES>
12
1 10 acceptor
1 2 acceptor
1 3 acceptor
1 4 acceptor
1 5 acceptor
1 6 acceptor
1 8 acceptor
1 9 acceptor
3 8 9 25 anion
4 11 13 14 16 rings
5 12 20 21 22 23 rings
6 1 11 13 15 17 18 rings

> <PUBCHEM_HEAVY_ATOM_COUNT>
28

> <PUBCHEM_ATOM_DEF_STEREO_COUNT>
3

> <PUBCHEM_ATOM_UDEF_STEREO_COUNT>
0

> <PUBCHEM_BOND_DEF_STEREO_COUNT>
0

> <PUBCHEM_BOND_UDEF_STEREO_COUNT>
0

> <PUBCHEM_ISOTOPIC_ATOM_COUNT>
0

> <PUBCHEM_COMPONENT_COUNT>
1

> <PUBCHEM_CACTVS_TAUTO_COUNT>
1

> <PUBCHEM_CONFORMER_ID>
0001DC6B00000001

> <PUBCHEM_MMFF94_ENERGY>
64.098

> <PUBCHEM_FEATURE_SELFOVERLAP>
61.222

> <PUBCHEM_SHAPE_FINGERPRINT>
10165383 225 18262817206307666052
104564 63 18267025135901118699
10871710 139 18117856609595074046
10930396 42 16828646395836671136
1100329 8 18338234839323800010
11578080 2 17631721798333799450
121448 382 17910918445576224551
12553582 1 17979347887171099427
12788726 201 18189605215154374138
13140716 1 18337944607151262138
13540713 5 18261105288604888154
13583140 156 16879340108887879482
13911987 19 17831581977109473582
14178342 30 18267849735684095600
14790565 3 18124328107598887736
15210252 30 17610041735615766197
17357779 13 17906998931441854375
19591789 44 18338234856440066571
21033648 29 17692495985473669224
21641784 216 18042690691874716886
23559900 14 18342184376187209964
23566358 2 18412552015840607446
238 59 17611996341194262333
25147074 1 18259979393024589922
283562 15 18120936372051115890
350125 39 18335703879530806186
469060 322 17896881169370951697
5252454 2 18334582334663416076
6443956 14 17475224078194697783
70251023 43 18054233399746374278
7164475 11 18336816598099127910
81228 2 18043525225600602105

> <PUBCHEM_SHAPE_MULTIPOLES>
517.29
8.17
4.88
1.66
5.38
4.21
0.4
-2.18
1.67
-5
1.18
-0.52
-0.5
-1.53

> <PUBCHEM_SHAPE_SELFOVERLAP>
1083.778

> <PUBCHEM_SHAPE_VOLUME>
294

> <PUBCHEM_COORDINATE_TYPE>
2
5
10

$$$$
