122071
  -OEChem-03292013323D

 46 48  0     0  0  0  0  0  0999 V2000
    4.5957    1.2166    0.6321 O   0  0  0  0  0  0  0  0  0  0  0  0
    2.3938   -2.8801   -0.0128 O   0  0  0  0  0  0  0  0  0  0  0  0
   -7.0984    0.8083   -0.6953 O   0  0  0  0  0  0  0  0  0  0  0  0
   -7.2783   -1.2862    0.1690 O   0  0  0  0  0  0  0  0  0  0  0  0
    2.2720    1.2244    0.5053 N   0  0  0  0  0  0  0  0  0  0  0  0
    3.5228   -0.8404    0.3103 N   0  0  0  0  0  0  0  0  0  0  0  0
   -0.1282   -1.2861    0.0518 N   0  0  0  0  0  0  0  0  0  0  0  0
   -0.1647    0.9252    0.3325 N   0  0  0  0  0  0  0  0  0  0  0  0
    1.1235    0.4617    0.3439 C   0  0  0  0  0  0  0  0  0  0  0  0
    1.1743   -0.8949    0.1730 C   0  0  0  0  0  0  0  0  0  0  0  0
    2.1756    2.6677    0.6854 C   0  0  0  0  0  0  0  0  0  0  0  0
    3.5393    0.5895    0.4935 C   0  0  0  0  0  0  0  0  0  0  0  0
    4.8176   -1.5129    0.2965 C   0  0  0  0  0  0  0  0  0  0  0  0
    2.3768   -1.6624    0.1417 C   0  0  0  0  0  0  0  0  0  0  0  0
    2.2142    3.4218   -0.6383 C   0  0  0  0  0  0  0  0  0  0  0  0
   -0.8965   -0.1552    0.1544 C   0  0  0  0  0  0  0  0  0  0  0  0
    5.4104   -1.6024   -1.1046 C   0  0  0  0  0  0  0  0  0  0  0  0
   -2.3364   -0.2008    0.0701 C   0  0  0  0  0  0  0  0  0  0  0  0
    2.1359    4.9312   -0.4580 C   0  0  0  0  0  0  0  0  0  0  0  0
    6.7513   -2.3220   -1.1312 C   0  0  0  0  0  0  0  0  0  0  0  0
   -3.0395    0.8910   -0.4385 C   0  0  0  0  0  0  0  0  0  0  0  0
   -3.0240   -1.3367    0.4968 C   0  0  0  0  0  0  0  0  0  0  0  0
   -4.4313    0.8471   -0.5201 C   0  0  0  0  0  0  0  0  0  0  0  0
   -4.4158   -1.3806    0.4149 C   0  0  0  0  0  0  0  0  0  0  0  0
   -5.1195   -0.2887   -0.0933 C   0  0  0  0  0  0  0  0  0  0  0  0
   -6.5705   -0.3351   -0.1788 C   0  0  0  0  0  0  0  0  0  0  0  0
    3.0130    2.9970    1.3125 H   0  0  0  0  0  0  0  0  0  0  0  0
    1.2593    2.9031    1.2403 H   0  0  0  0  0  0  0  0  0  0  0  0
    4.7027   -2.5220    0.7099 H   0  0  0  0  0  0  0  0  0  0  0  0
    5.5120   -0.9814    0.9577 H   0  0  0  0  0  0  0  0  0  0  0  0
   -0.4527   -2.2325   -0.0992 H   0  0  0  0  0  0  0  0  0  0  0  0
    3.1354    3.1744   -1.1795 H   0  0  0  0  0  0  0  0  0  0  0  0
    1.3832    3.0955   -1.2752 H   0  0  0  0  0  0  0  0  0  0  0  0
    4.7128   -2.1253   -1.7701 H   0  0  0  0  0  0  0  0  0  0  0  0
    5.5372   -0.5950   -1.5189 H   0  0  0  0  0  0  0  0  0  0  0  0
    2.9766    5.2972    0.1397 H   0  0  0  0  0  0  0  0  0  0  0  0
    2.1654    5.4318   -1.4307 H   0  0  0  0  0  0  0  0  0  0  0  0
    1.2062    5.2163    0.0445 H   0  0  0  0  0  0  0  0  0  0  0  0
    6.6514   -3.3480   -0.7629 H   0  0  0  0  0  0  0  0  0  0  0  0
    7.1401   -2.3631   -2.1535 H   0  0  0  0  0  0  0  0  0  0  0  0
    7.4857   -1.8023   -0.5078 H   0  0  0  0  0  0  0  0  0  0  0  0
   -2.5219    1.7845   -0.7792 H   0  0  0  0  0  0  0  0  0  0  0  0
   -2.5074   -2.1992    0.9101 H   0  0  0  0  0  0  0  0  0  0  0  0
   -4.9394    1.7187   -0.9229 H   0  0  0  0  0  0  0  0  0  0  0  0
   -4.9337   -2.2737    0.7550 H   0  0  0  0  0  0  0  0  0  0  0  0
   -8.0771    0.7670   -0.7482 H   0  0  0  0  0  0  0  0  0  0  0  0
  1 12  2  0  0  0  0
  2 14  2  0  0  0  0
  3 26  1  0  0  0  0
  3 46  1  0  0  0  0
  4 26  2  0  0  0  0
  5  9  1  0  0  0  0
  5 11  1  0  0  0  0
  5 12  1  0  0  0  0
  6 12  1  0  0  0  0
  6 13  1  0  0  0  0
  6 14  1  0  0  0  0
  7 10  1  0  0  0  0
  7 16  1  0  0  0  0
  7 31  1  0  0  0  0
  8  9  1  0  0  0  0
  8 16  2  0  0  0  0
  9 10  2  0  0  0  0
 10 14  1  0  0  0  0
 11 15  1  0  0  0  0
 11 27  1  0  0  0  0
 11 28  1  0  0  0  0
 13 17  1  0  0  0  0
 13 29  1  0  0  0  0
 13 30  1  0  0  0  0
 15 19  1  0  0  0  0
 15 32  1  0  0  0  0
 15 33  1  0  0  0  0
 16 18  1  0  0  0  0
 17 20  1  0  0  0  0
 17 34  1  0  0  0  0
 17 35  1  0  0  0  0
 18 21  2  0  0  0  0
 18 22  1  0  0  0  0
 19 36  1  0  0  0  0
 19 37  1  0  0  0  0
 19 38  1  0  0  0  0
 20 39  1  0  0  0  0
 20 40  1  0  0  0  0
 20 41  1  0  0  0  0
 21 23  1  0  0  0  0
 21 42  1  0  0  0  0
 22 24  2  0  0  0  0
 22 43  1  0  0  0  0
 23 25  2  0  0  0  0
 23 44  1  0  0  0  0
 24 25  1  0  0  0  0
 24 45  1  0  0  0  0
 25 26  1  0  0  0  0
M  END
> <PUBCHEM_COMPOUND_CID>
122071

> <PUBCHEM_CONFORMER_RMSD>
0.8

> <PUBCHEM_CONFORMER_DIVERSEORDER>
1
2
5
11
10
6
3
9
4
8
7

> <PUBCHEM_MMFF94_PARTIAL_CHARGES>
28
1 -0.57
10 -0.24
11 0.3
12 0.69
13 0.3
14 0.71
16 0.13
18 0.05
2 -0.57
21 -0.15
22 -0.15
23 -0.15
24 -0.15
25 0.09
26 0.63
3 -0.65
31 0.27
4 -0.57
42 0.15
43 0.15
44 0.15
45 0.15
46 0.5
5 -0.42
6 -0.42
7 0.03
8 -0.57
9 0.29

> <PUBCHEM_EFFECTIVE_ROTOR_COUNT>
6

> <PUBCHEM_PHARMACOPHORE_FEATURES>
12
1 1 acceptor
1 19 hydrophobe
1 2 acceptor
1 20 hydrophobe
1 3 acceptor
1 4 acceptor
1 7 donor
3 3 4 26 anion
3 7 8 16 cation
5 7 8 9 10 16 rings
6 18 21 22 23 24 25 rings
6 5 6 9 10 12 14 rings

> <PUBCHEM_HEAVY_ATOM_COUNT>
26

> <PUBCHEM_ATOM_DEF_STEREO_COUNT>
0

> <PUBCHEM_ATOM_UDEF_STEREO_COUNT>
0

> <PUBCHEM_BOND_DEF_STEREO_COUNT>
0

> <PUBCHEM_BOND_UDEF_STEREO_COUNT>
0

> <PUBCHEM_ISOTOPIC_ATOM_COUNT>
0

> <PUBCHEM_COMPONENT_COUNT>
1

> <PUBCHEM_CACTVS_TAUTO_COUNT>
4

> <PUBCHEM_CONFORMER_ID>
0001DCD700000001

> <PUBCHEM_MMFF94_ENERGY>
45.8641

> <PUBCHEM_FEATURE_SELFOVERLAP>
61.068

> <PUBCHEM_SHAPE_FINGERPRINT>
10050765 1 18193276514792306267
10366900 7 17603587404787028553
10411042 1 18338516310437773954
11386260 185 18337942459594177173
12166972 35 18272653441323543785
12236239 1 17418092127007549955
12616971 3 17917704734659313909
12788726 201 17899134919569171336
13533116 47 17989485242713020480
14170010 4 18413103983230193896
14341114 176 18412545422780665889
14790565 3 17398958665873907013
15081414 286 18411979187547171248
15183329 4 18338796711482639715
15439362 3 18194122043845732956
15849732 13 17989485204301174374
16728300 4 12533959084854420222
17844677 252 18411141329695485185
18681886 176 18412541007454416258
19427546 62 18264204897239440179
20554085 129 12180134228374739988
20645477 70 18272932700081409023
21049683 271 18334584538155465716
21065198 57 18408601491968038923
21133410 127 17679011841106921541
21267235 1 18271811185536583530
21365058 113 18336555949434738484
21792961 116 18041853796603100458
221357 26 18409727335454822125
23558518 356 17760070110580610698
23559900 14 18409163346409264305
239999 70 18411419522494450339
249057 3 18413950585566632015
29717793 49 17704073971156370638
3004659 81 18335138669929020354
3103668 31 18046063761663613380
335352 9 18412825781171849014
340366 18 18130787884498586278
350125 39 18408602578389374109
3545911 37 18408039611429884107
4073 2 18041281075203357883
46194498 28 18187924018725456061
59755656 215 18334012765996573435
9709674 26 18263363749343215323
9999458 23 18261670471487291254

> <PUBCHEM_SHAPE_MULTIPOLES>
491.67
16.19
3.73
0.84
18.13
5.4
0.1
-8.51
3.58
-6.32
0.69
-0.59
-0.01
1.38

> <PUBCHEM_SHAPE_SELFOVERLAP>
1057.53

> <PUBCHEM_SHAPE_VOLUME>
271

> <PUBCHEM_COORDINATE_TYPE>
2
5
10

$$$$
