122038
  -OEChem-03292013323D

 45 50  0     0  0  0  0  0  0999 V2000
    1.0886   -0.1628    2.0820 O   0  0  0  0  0  0  0  0  0  0  0  0
    3.6296    0.0699   -1.0961 O   0  0  0  0  0  0  0  0  0  0  0  0
   -0.6720   -0.2703    3.5814 O   0  0  0  0  0  0  0  0  0  0  0  0
    4.1046    4.7453   -0.5382 O   0  0  0  0  0  0  0  0  0  0  0  0
    4.0726   -4.6393   -1.2502 O   0  0  0  0  0  0  0  0  0  0  0  0
   -4.5136    1.3926   -2.3801 O   0  0  0  0  0  0  0  0  0  0  0  0
   -5.1125   -1.2790    1.3578 O   0  0  0  0  0  0  0  0  0  0  0  0
   -4.2977    0.0492   -0.4340 N   0  0  0  0  0  0  0  0  0  0  0  0
    1.2802   -0.0534    0.6358 C   0  0  0  0  0  0  0  0  0  0  0  0
   -0.1321   -0.0110    0.1480 C   0  0  0  0  0  0  0  0  0  0  0  0
    2.0406    1.2276    0.3552 C   0  0  0  0  0  0  0  0  0  0  0  0
    2.0317   -1.2825    0.1642 C   0  0  0  0  0  0  0  0  0  0  0  0
   -1.0011   -0.0895    1.2214 C   0  0  0  0  0  0  0  0  0  0  0  0
    3.1477    1.2105   -0.5008 C   0  0  0  0  0  0  0  0  0  0  0  0
    3.1398   -1.1441   -0.6793 C   0  0  0  0  0  0  0  0  0  0  0  0
   -0.2317   -0.1863    2.4524 C   0  0  0  0  0  0  0  0  0  0  0  0
   -0.6267    0.0892   -1.1429 C   0  0  0  0  0  0  0  0  0  0  0  0
    1.6458    2.4578    0.9104 C   0  0  0  0  0  0  0  0  0  0  0  0
    1.6278   -2.5797    0.5270 C   0  0  0  0  0  0  0  0  0  0  0  0
   -2.3757   -0.0731    1.0738 C   0  0  0  0  0  0  0  0  0  0  0  0
   -2.8812    0.0275   -0.2226 C   0  0  0  0  0  0  0  0  0  0  0  0
   -2.0127    0.1084   -1.3240 C   0  0  0  0  0  0  0  0  0  0  0  0
    3.8365    2.3898   -0.8038 C   0  0  0  0  0  0  0  0  0  0  0  0
    3.8210   -2.2689   -1.1568 C   0  0  0  0  0  0  0  0  0  0  0  0
    2.3375    3.6335    0.6135 C   0  0  0  0  0  0  0  0  0  0  0  0
    2.3119   -3.7018    0.0563 C   0  0  0  0  0  0  0  0  0  0  0  0
    3.4317    3.5995   -0.2452 C   0  0  0  0  0  0  0  0  0  0  0  0
    3.4075   -3.5463   -0.7871 C   0  0  0  0  0  0  0  0  0  0  0  0
   -4.9375    0.6969   -1.4717 C   0  0  0  0  0  0  0  0  0  0  0  0
   -5.2317   -0.5745    0.3687 C   0  0  0  0  0  0  0  0  0  0  0  0
   -6.3773    0.4523   -1.3028 C   0  0  0  0  0  0  0  0  0  0  0  0
   -6.5514   -0.2875   -0.2122 C   0  0  0  0  0  0  0  0  0  0  0  0
    0.0391    0.1453   -1.9976 H   0  0  0  0  0  0  0  0  0  0  0  0
    0.7891    2.5152    1.5772 H   0  0  0  0  0  0  0  0  0  0  0  0
    0.7700   -2.7311    1.1774 H   0  0  0  0  0  0  0  0  0  0  0  0
   -3.0129   -0.1116    1.9494 H   0  0  0  0  0  0  0  0  0  0  0  0
   -2.3877    0.1577   -2.3421 H   0  0  0  0  0  0  0  0  0  0  0  0
    4.6922    2.3562   -1.4744 H   0  0  0  0  0  0  0  0  0  0  0  0
    4.6782   -2.1474   -1.8149 H   0  0  0  0  0  0  0  0  0  0  0  0
    2.0132    4.5726    1.0535 H   0  0  0  0  0  0  0  0  0  0  0  0
    1.9753   -4.6915    0.3532 H   0  0  0  0  0  0  0  0  0  0  0  0
   -7.1416    0.8302   -1.9609 H   0  0  0  0  0  0  0  0  0  0  0  0
   -7.4854   -0.6396    0.1925 H   0  0  0  0  0  0  0  0  0  0  0  0
    4.8332    4.5363   -1.1477 H   0  0  0  0  0  0  0  0  0  0  0  0
    3.6501   -5.4397   -0.8939 H   0  0  0  0  0  0  0  0  0  0  0  0
  1  9  1  0  0  0  0
  1 16  1  0  0  0  0
  2 14  1  0  0  0  0
  2 15  1  0  0  0  0
  3 16  2  0  0  0  0
  4 27  1  0  0  0  0
  4 44  1  0  0  0  0
  5 28  1  0  0  0  0
  5 45  1  0  0  0  0
  6 29  2  0  0  0  0
  7 30  2  0  0  0  0
  8 21  1  0  0  0  0
  8 29  1  0  0  0  0
  8 30  1  0  0  0  0
  9 10  1  0  0  0  0
  9 11  1  0  0  0  0
  9 12  1  0  0  0  0
 10 13  2  0  0  0  0
 10 17  1  0  0  0  0
 11 14  2  0  0  0  0
 11 18  1  0  0  0  0
 12 15  2  0  0  0  0
 12 19  1  0  0  0  0
 13 16  1  0  0  0  0
 13 20  1  0  0  0  0
 14 23  1  0  0  0  0
 15 24  1  0  0  0  0
 17 22  2  0  0  0  0
 17 33  1  0  0  0  0
 18 25  2  0  0  0  0
 18 34  1  0  0  0  0
 19 26  2  0  0  0  0
 19 35  1  0  0  0  0
 20 21  2  0  0  0  0
 20 36  1  0  0  0  0
 21 22  1  0  0  0  0
 22 37  1  0  0  0  0
 23 27  2  0  0  0  0
 23 38  1  0  0  0  0
 24 28  2  0  0  0  0
 24 39  1  0  0  0  0
 25 27  1  0  0  0  0
 25 40  1  0  0  0  0
 26 28  1  0  0  0  0
 26 41  1  0  0  0  0
 29 31  1  0  0  0  0
 30 32  1  0  0  0  0
 31 32  2  0  0  0  0
 31 42  1  0  0  0  0
 32 43  1  0  0  0  0
M  END
> <PUBCHEM_COMPOUND_CID>
122038

> <PUBCHEM_CONFORMER_RMSD>
0.6

> <PUBCHEM_CONFORMER_DIVERSEORDER>
1
2
3

> <PUBCHEM_MMFF94_PARTIAL_CHARGES>
45
1 -0.43
10 -0.14
11 -0.14
12 -0.14
13 0.09
14 0.08
15 0.08
16 0.63
17 -0.15
18 -0.15
19 -0.15
2 -0.17
20 -0.15
21 0.12
22 -0.15
23 -0.15
24 -0.15
25 -0.15
26 -0.15
27 0.08
28 0.08
29 0.62
3 -0.57
30 0.62
31 -0.14
32 -0.14
33 0.15
34 0.15
35 0.15
36 0.15
37 0.15
38 0.15
39 0.15
4 -0.53
40 0.15
41 0.15
42 0.15
43 0.15
44 0.45
45 0.45
5 -0.53
6 -0.57
7 -0.57
8 -0.24
9 0.71

> <PUBCHEM_EFFECTIVE_ROTOR_COUNT>
1.6

> <PUBCHEM_PHARMACOPHORE_FEATURES>
12
1 2 acceptor
1 3 acceptor
1 4 donor
1 5 donor
1 6 acceptor
1 7 acceptor
5 1 9 10 13 16 rings
5 8 29 30 31 32 rings
6 10 13 17 20 21 22 rings
6 11 14 18 23 25 27 rings
6 12 15 19 24 26 28 rings
6 2 9 11 12 14 15 rings

> <PUBCHEM_HEAVY_ATOM_COUNT>
32

> <PUBCHEM_ATOM_DEF_STEREO_COUNT>
0

> <PUBCHEM_ATOM_UDEF_STEREO_COUNT>
0

> <PUBCHEM_BOND_DEF_STEREO_COUNT>
0

> <PUBCHEM_BOND_UDEF_STEREO_COUNT>
0

> <PUBCHEM_ISOTOPIC_ATOM_COUNT>
0

> <PUBCHEM_COMPONENT_COUNT>
1

> <PUBCHEM_CACTVS_TAUTO_COUNT>
5

> <PUBCHEM_CONFORMER_ID>
0001DCB600000001

> <PUBCHEM_MMFF94_ENERGY>
99.3862

> <PUBCHEM_FEATURE_SELFOVERLAP>
61.046

> <PUBCHEM_SHAPE_FINGERPRINT>
10074138 170 8899112353263545932
10369192 42 17971472050894923740
10693767 8 17988092101958150982
10721379 63 18272655640721273860
10930396 42 18043505276633430874
11115154 58 18121221969880341957
11582403 64 17825374443859907720
11720765 8 18192418685178884070
11763715 3 17764335863477584054
12730499 353 18336271257163064425
12788726 201 17181664974910558354
13009979 54 17559682719894329818
13911987 19 18051434038704963280
13955234 65 18413385457916656738
14415360 78 17694801996006589192
15219462 58 17905372616125929649
15324884 4 17606994890206162890
15328829 1 17416711105531557682
15357212 105 18262532416180978549
15950262 2 15432605132334345830
17349148 13 16773789273950702599
17844677 252 18411702054834754965
17909252 39 18411136896471701188
1813 80 17845097255515854694
19319366 153 18059571451088797486
21304303 282 17194287828043401196
22033318 11 17628386812833072929
22182313 1 17532676674476036219
23522609 53 17702687535362252489
23559900 14 18337383847472814787
23569914 152 17399763053788358735
238 59 18410019866130883914
244849 19 18041016054203698963
25222932 49 15982253180580762047
34797466 226 18334289890851323781
376196 1 18043520827486077952
44802255 64 17611777865183400332
46194498 28 18335133176924019597
495365 180 18337948012654236616
513532 50 17894345579419051474
5223283 242 18048879594252309293
57527295 17 17752775619212459170
6004065 56 18411418398046351562
6695519 79 17839477917742447747
70251023 43 18339366244887598592
9658208 31 17095531694975075635

> <PUBCHEM_SHAPE_MULTIPOLES>
612.48
11.85
4.53
1.98
21.68
0.14
-1.28
0.25
5.59
-11.35
1.25
1.21
-0.08
1.62

> <PUBCHEM_SHAPE_SELFOVERLAP>
1418.997

> <PUBCHEM_SHAPE_VOLUME>
309.7

> <PUBCHEM_COORDINATE_TYPE>
2
5
10

$$$$
