122092
  -OEChem-03292013323D

 49 51  0     1  0  0  0  0  0999 V2000
    0.3762    1.6482   -1.1363 O   0  0  0  0  0  0  0  0  0  0  0  0
    1.4200    3.0473    1.3639 O   0  0  0  0  0  0  0  0  0  0  0  0
   -0.1956    1.1082    2.3711 O   0  0  0  0  0  0  0  0  0  0  0  0
   -1.5113    0.3925   -0.4360 N   0  0  0  0  0  0  0  0  0  0  0  0
    3.8920    0.6630   -0.6943 N   0  0  1  0  0  0  0  0  0  0  0  0
   -2.4337   -1.3347   -1.5056 N   0  0  0  0  0  0  0  0  0  0  0  0
   -3.4068    1.1105    0.9033 N   0  0  0  0  0  0  0  0  0  0  0  0
    3.2883   -3.3266    0.9281 N   0  0  0  0  0  0  0  0  0  0  0  0
   -5.3602   -0.2971    0.5044 N   0  0  0  0  0  0  0  0  0  0  0  0
   -5.3280   -2.1349   -1.0282 N   0  0  0  0  0  0  0  0  0  0  0  0
    3.1173   -3.4638    2.3382 N   0  0  0  0  0  0  0  0  0  0  0  0
    1.7309    1.7641   -0.6426 C   0  0  1  0  0  0  0  0  0  0  0  0
    1.6403    1.7226    0.8796 C   0  0  2  0  0  0  0  0  0  0  0  0
    0.3952    0.8880    1.1066 C   0  0  2  0  0  0  0  0  0  0  0  0
   -0.4991    1.3640   -0.0280 C   0  0  1  0  0  0  0  0  0  0  0  0
    2.5517    0.6193   -1.2197 C   0  0  0  0  0  0  0  0  0  0  0  0
    4.6951   -0.4658   -1.1867 C   0  0  0  0  0  0  0  0  0  0  0  0
   -2.8021    0.3158    0.0075 C   0  0  0  0  0  0  0  0  0  0  0  0
   -1.3396   -0.6203   -1.3439 C   0  0  0  0  0  0  0  0  0  0  0  0
    4.5581    1.9283   -1.0369 C   0  0  0  0  0  0  0  0  0  0  0  0
    4.0607   -1.8145   -0.8397 C   0  0  0  0  0  0  0  0  0  0  0  0
   -3.3557   -0.7607   -0.6668 C   0  0  0  0  0  0  0  0  0  0  0  0
    3.8808   -2.0197    0.6655 C   0  0  0  0  0  0  0  0  0  0  0  0
   -4.6863   -1.0588   -0.3908 C   0  0  0  0  0  0  0  0  0  0  0  0
   -4.6883    0.7251    1.0872 C   0  0  0  0  0  0  0  0  0  0  0  0
    2.0819    2.7351   -1.0067 H   0  0  0  0  0  0  0  0  0  0  0  0
    2.5134    1.3296    1.4065 H   0  0  0  0  0  0  0  0  0  0  0  0
    0.6277   -0.1789    1.0105 H   0  0  0  0  0  0  0  0  0  0  0  0
   -1.0313    2.2900    0.2221 H   0  0  0  0  0  0  0  0  0  0  0  0
    2.5332    0.6725   -2.3169 H   0  0  0  0  0  0  0  0  0  0  0  0
    2.0255   -0.3048   -0.9626 H   0  0  0  0  0  0  0  0  0  0  0  0
    4.8302   -0.4043   -2.2745 H   0  0  0  0  0  0  0  0  0  0  0  0
    5.6943   -0.4293   -0.7344 H   0  0  0  0  0  0  0  0  0  0  0  0
    2.2196    3.5645    1.1669 H   0  0  0  0  0  0  0  0  0  0  0  0
   -0.3495    2.0633    2.4690 H   0  0  0  0  0  0  0  0  0  0  0  0
   -0.4012   -0.7957   -1.8520 H   0  0  0  0  0  0  0  0  0  0  0  0
    4.5155    2.1424   -2.1110 H   0  0  0  0  0  0  0  0  0  0  0  0
    4.1415    2.7750   -0.4832 H   0  0  0  0  0  0  0  0  0  0  0  0
    5.6147    1.8935   -0.7446 H   0  0  0  0  0  0  0  0  0  0  0  0
    4.7357   -2.5966   -1.2150 H   0  0  0  0  0  0  0  0  0  0  0  0
    3.1208   -1.9758   -1.3793 H   0  0  0  0  0  0  0  0  0  0  0  0
    4.8597   -1.9437    1.1561 H   0  0  0  0  0  0  0  0  0  0  0  0
    3.2388   -1.2325    1.0783 H   0  0  0  0  0  0  0  0  0  0  0  0
   -5.2583    1.3135    1.7984 H   0  0  0  0  0  0  0  0  0  0  0  0
    2.3795   -3.3937    0.4711 H   0  0  0  0  0  0  0  0  0  0  0  0
   -6.2956   -2.3313   -0.8110 H   0  0  0  0  0  0  0  0  0  0  0  0
   -4.8275   -2.7046   -1.6969 H   0  0  0  0  0  0  0  0  0  0  0  0
    2.7689   -4.4008    2.5369 H   0  0  0  0  0  0  0  0  0  0  0  0
    2.3904   -2.8233    2.6565 H   0  0  0  0  0  0  0  0  0  0  0  0
  1 12  1  0  0  0  0
  1 15  1  0  0  0  0
  2 13  1  0  0  0  0
  2 34  1  0  0  0  0
  3 14  1  0  0  0  0
  3 35  1  0  0  0  0
  4 15  1  0  0  0  0
  4 18  1  0  0  0  0
  4 19  1  0  0  0  0
  5 16  1  0  0  0  0
  5 17  1  0  0  0  0
  5 20  1  0  0  0  0
  6 19  2  0  0  0  0
  6 22  1  0  0  0  0
  7 18  2  0  0  0  0
  7 25  1  0  0  0  0
  8 11  1  0  0  0  0
  8 23  1  0  0  0  0
  8 45  1  0  0  0  0
  9 24  1  0  0  0  0
  9 25  2  0  0  0  0
 10 24  1  0  0  0  0
 10 46  1  0  0  0  0
 10 47  1  0  0  0  0
 11 48  1  0  0  0  0
 11 49  1  0  0  0  0
 12 13  1  0  0  0  0
 12 16  1  0  0  0  0
 12 26  1  0  0  0  0
 13 14  1  0  0  0  0
 13 27  1  0  0  0  0
 14 15  1  0  0  0  0
 14 28  1  0  0  0  0
 15 29  1  0  0  0  0
 16 30  1  0  0  0  0
 16 31  1  0  0  0  0
 17 21  1  0  0  0  0
 17 32  1  0  0  0  0
 17 33  1  0  0  0  0
 18 22  1  0  0  0  0
 19 36  1  0  0  0  0
 20 37  1  0  0  0  0
 20 38  1  0  0  0  0
 20 39  1  0  0  0  0
 21 23  1  0  0  0  0
 21 40  1  0  0  0  0
 21 41  1  0  0  0  0
 22 24  2  0  0  0  0
 23 42  1  0  0  0  0
 23 43  1  0  0  0  0
 25 44  1  0  0  0  0
M  END
> <PUBCHEM_COMPOUND_CID>
122092

> <PUBCHEM_CONFORMER_RMSD>
0.8

> <PUBCHEM_CONFORMER_DIVERSEORDER>
4
211
171
188
5
198
26
43
99
14
32
60
105
186
255
251
119
64
115
229
168
140
28
81
73
246
205
7
231
16
239
233
177
151
104
75
57
249
170
130
200
9
131
248
35
86
93
210
61
234
230
92
58
219
148
54
2
123
220
197
110
6
118
107
108
222
139
63
67
77
159
102
189
68
149
24
153
235
224
23
156
194
50
129
175
237
8
100
163
66
252
253
228
164
42
227
174
217
172
74
204
18
25
90
254
22
226
31
101
225
89
243
82
13
40
209
245
152
133
20
208
29
49
91
141
11
207
223
178
240
121
103
162
190
52
46
216
127
146
221
37
48
196
3
257
62
34
193
19
166
206
79
258
134
142
145
45
191
203
136
41
76
154
112
214
187
157
238
47
116
160
213
38
256
144
212
195
128
183
30
184
199
138
17
96
51
182
167
232
215
241
120
72
55
192
179
95
158
44
10
247
125
98
155
173
124
126
70
202
165
33
109
180
150
84
236
242
85
218
97
143
12
69
176
94
87
39
21
114
78
117
169
181
113
161
122
250
59
36
80
53
185
88
106
201
83
27
71
147
132
1
135
137
56
244
15
259
111
65

> <PUBCHEM_MMFF94_PARTIAL_CHARGES>
33
1 -0.56
10 -0.9
11 -0.72
12 0.28
13 0.28
14 0.28
15 0.54
16 0.27
17 0.27
18 0.11
19 0.04
2 -0.68
20 0.27
22 0.23
23 0.27
24 0.41
25 0.47
3 -0.68
34 0.4
35 0.4
36 0.15
4 0.05
44 0.15
45 0.36
46 0.4
47 0.4
48 0.36
49 0.36
5 -0.81
6 -0.57
7 -0.57
8 -0.63
9 -0.62

> <PUBCHEM_EFFECTIVE_ROTOR_COUNT>
8

> <PUBCHEM_PHARMACOPHORE_FEATURES>
16
1 1 acceptor
1 10 cation
1 10 donor
1 11 donor
1 2 acceptor
1 2 donor
1 3 acceptor
1 3 donor
1 5 cation
1 8 donor
3 4 6 19 cation
3 4 7 18 cation
3 7 9 25 cation
5 1 12 13 14 15 rings
5 4 6 18 19 22 rings
6 7 9 18 22 24 25 rings

> <PUBCHEM_HEAVY_ATOM_COUNT>
25

> <PUBCHEM_ATOM_DEF_STEREO_COUNT>
4

> <PUBCHEM_ATOM_UDEF_STEREO_COUNT>
0

> <PUBCHEM_BOND_DEF_STEREO_COUNT>
0

> <PUBCHEM_BOND_UDEF_STEREO_COUNT>
0

> <PUBCHEM_ISOTOPIC_ATOM_COUNT>
0

> <PUBCHEM_COMPONENT_COUNT>
1

> <PUBCHEM_CACTVS_TAUTO_COUNT>
3

> <PUBCHEM_CONFORMER_ID>
0001DCEC00000004

> <PUBCHEM_MMFF94_ENERGY>
53.0861

> <PUBCHEM_FEATURE_SELFOVERLAP>
83.141

> <PUBCHEM_SHAPE_FINGERPRINT>
11578080 2 18197476486086426432
11796584 16 18201445744151548509
12107183 9 18052548668443171409
12236239 1 18272379688792931260
12553582 1 18130781227272500678
12596602 18 17846501452207628066
12633257 1 16844747450849862021
12788726 201 17632033965320938560
12824470 246 18341050714287610356
13533116 47 18339920523982940519
14251757 17 16878231857249705978
15375462 189 18342459231605967388
15537594 2 18410020905481639614
17134984 74 18187644777163484918
17349148 13 16487262075348549981
1813 80 18260544545642470188
18681886 176 16988571268229001484
20511986 3 18201715176256524804
20567600 234 13398333682103009139
20567600 247 18333730238642001627
20626108 58 18060134353565359300
20775530 9 17902499399286247810
21421861 104 18268725917327834246
21703447 108 16698057309478908967
21860390 5 9727639423226046818
235170 7 16515687723607334446
23559900 14 16916804967325801540
3004659 81 18271820012153105580
3411729 13 16772661291037839664
345986 75 18269271262236651048
34797466 226 15140974966886353439
350125 39 17988371438088321173
460360 51 18265595620324088904
463206 1 18407761452110287186
5104073 3 17345765221482770811
6669772 16 16733261344291837552
8509985 295 17846502521580839389
9981440 41 16975606037182913145

> <PUBCHEM_SHAPE_MULTIPOLES>
457.03
11.32
3.11
1.74
6.3
1.78
0.73
5.45
-1.64
-3.83
1.48
-0.75
0.42
-2.53

> <PUBCHEM_SHAPE_SELFOVERLAP>
962.777

> <PUBCHEM_SHAPE_VOLUME>
254.5

> <PUBCHEM_COORDINATE_TYPE>
2
5
10

$$$$
