122010
  -OEChem-03292013323D

 61 62  0     0  0  0  0  0  0999 V2000
   -1.0006   -3.4339   -0.3849 S   0  0  0  0  0  0  0  0  0  0  0  0
    2.9945   -1.3522   -0.7140 O   0  0  0  0  0  0  0  0  0  0  0  0
   -1.1161   -4.5517    0.5361 O   0  0  0  0  0  0  0  0  0  0  0  0
   -0.9852   -3.6671   -1.8190 O   0  0  0  0  0  0  0  0  0  0  0  0
    4.7270    2.9832    0.3744 O   0  0  0  0  0  0  0  0  0  0  0  0
   -6.0702    0.3303    1.9621 O   0  0  0  0  0  0  0  0  0  0  0  0
    7.3076    3.3070   -0.2196 O   0  0  0  0  0  0  0  0  0  0  0  0
   -8.7403    3.8269   -0.5261 O   0  0  0  0  0  0  0  0  0  0  0  0
   -7.2420    3.0294   -2.0383 O   0  0  0  0  0  0  0  0  0  0  0  0
    0.4422   -2.5055    0.0268 C   0  0  0  0  0  0  0  0  0  0  0  0
    1.7069   -3.3088   -0.2211 C   0  0  0  0  0  0  0  0  0  0  0  0
    2.9556   -2.5069    0.1129 C   0  0  0  0  0  0  0  0  0  0  0  0
   -2.3364   -2.3319   -0.0275 C   0  0  0  0  0  0  0  0  0  0  0  0
    3.8437    0.8298   -0.1639 C   0  0  0  0  0  0  0  0  0  0  0  0
    2.4523    1.3371    0.0421 C   0  0  0  0  0  0  0  0  0  0  0  0
    4.0521   -0.4985   -0.5352 C   0  0  0  0  0  0  0  0  0  0  0  0
    1.9819    1.1611    1.4911 C   0  0  0  0  0  0  0  0  0  0  0  0
    4.9324    1.6837    0.0123 C   0  0  0  0  0  0  0  0  0  0  0  0
   -2.9126   -2.3234    1.2428 C   0  0  0  0  0  0  0  0  0  0  0  0
   -2.8147   -1.4718   -1.0162 C   0  0  0  0  0  0  0  0  0  0  0  0
    6.2296    1.2093   -0.1827 C   0  0  0  0  0  0  0  0  0  0  0  0
    5.3493   -0.9730   -0.7300 C   0  0  0  0  0  0  0  0  0  0  0  0
   -4.4455   -0.5949    0.5358 C   0  0  0  0  0  0  0  0  0  0  0  0
    6.4379   -0.1191   -0.5537 C   0  0  0  0  0  0  0  0  0  0  0  0
   -3.9671   -1.4549    1.5243 C   0  0  0  0  0  0  0  0  0  0  0  0
   -3.8691   -0.6034   -0.7344 C   0  0  0  0  0  0  0  0  0  0  0  0
    0.5794    1.7092    1.7009 C   0  0  0  0  0  0  0  0  0  0  0  0
   -5.5454    0.3098    0.8297 C   0  0  0  0  0  0  0  0  0  0  0  0
   -6.0736    1.2586   -0.2615 C   0  0  0  0  0  0  0  0  0  0  0  0
    7.3818    2.0820   -0.0035 C   0  0  0  0  0  0  0  0  0  0  0  0
   -7.2474    2.1164    0.1970 C   0  0  0  0  0  0  0  0  0  0  0  0
    8.7154    1.5060    0.4563 C   0  0  0  0  0  0  0  0  0  0  0  0
   -7.7234    3.0171   -0.9129 C   0  0  0  0  0  0  0  0  0  0  0  0
    0.4247   -1.5969   -0.5835 H   0  0  0  0  0  0  0  0  0  0  0  0
    0.3659   -2.2235    1.0819 H   0  0  0  0  0  0  0  0  0  0  0  0
    1.7435   -3.6078   -1.2759 H   0  0  0  0  0  0  0  0  0  0  0  0
    1.6948   -4.2287    0.3747 H   0  0  0  0  0  0  0  0  0  0  0  0
    3.8313   -3.1410   -0.0639 H   0  0  0  0  0  0  0  0  0  0  0  0
    2.9465   -2.2102    1.1687 H   0  0  0  0  0  0  0  0  0  0  0  0
    2.3589    2.3834   -0.2739 H   0  0  0  0  0  0  0  0  0  0  0  0
    1.7610    0.8055   -0.6256 H   0  0  0  0  0  0  0  0  0  0  0  0
    1.9938    0.0995    1.7648 H   0  0  0  0  0  0  0  0  0  0  0  0
    2.6681    1.6695    2.1789 H   0  0  0  0  0  0  0  0  0  0  0  0
   -2.5509   -2.9794    2.0294 H   0  0  0  0  0  0  0  0  0  0  0  0
   -2.3750   -1.4581   -2.0095 H   0  0  0  0  0  0  0  0  0  0  0  0
    5.5317   -1.9980   -1.0400 H   0  0  0  0  0  0  0  0  0  0  0  0
    7.4349   -0.5129   -0.7304 H   0  0  0  0  0  0  0  0  0  0  0  0
   -4.3979   -1.4663    2.5220 H   0  0  0  0  0  0  0  0  0  0  0  0
   -4.2058    0.0492   -1.5334 H   0  0  0  0  0  0  0  0  0  0  0  0
    0.5386    2.7792    1.4739 H   0  0  0  0  0  0  0  0  0  0  0  0
   -0.1421    1.1927    1.0595 H   0  0  0  0  0  0  0  0  0  0  0  0
    0.2692    1.5698    2.7412 H   0  0  0  0  0  0  0  0  0  0  0  0
   -5.2503    1.9126   -0.5733 H   0  0  0  0  0  0  0  0  0  0  0  0
   -6.3912    0.6511   -1.1176 H   0  0  0  0  0  0  0  0  0  0  0  0
    3.8733    3.0866    0.8222 H   0  0  0  0  0  0  0  0  0  0  0  0
   -6.9462    2.7410    1.0452 H   0  0  0  0  0  0  0  0  0  0  0  0
   -8.0823    1.4788    0.5076 H   0  0  0  0  0  0  0  0  0  0  0  0
    9.3001    1.1955   -0.4130 H   0  0  0  0  0  0  0  0  0  0  0  0
    8.5618    0.6623    1.1346 H   0  0  0  0  0  0  0  0  0  0  0  0
    9.2639    2.2748    1.0089 H   0  0  0  0  0  0  0  0  0  0  0  0
   -9.0388    4.4128   -1.2540 H   0  0  0  0  0  0  0  0  0  0  0  0
  1  3  2  0  0  0  0
  1  4  2  0  0  0  0
  1 10  1  0  0  0  0
  1 13  1  0  0  0  0
  2 12  1  0  0  0  0
  2 16  1  0  0  0  0
  5 18  1  0  0  0  0
  5 55  1  0  0  0  0
  6 28  2  0  0  0  0
  7 30  2  0  0  0  0
  8 33  1  0  0  0  0
  8 61  1  0  0  0  0
  9 33  2  0  0  0  0
 10 11  1  0  0  0  0
 10 34  1  0  0  0  0
 10 35  1  0  0  0  0
 11 12  1  0  0  0  0
 11 36  1  0  0  0  0
 11 37  1  0  0  0  0
 12 38  1  0  0  0  0
 12 39  1  0  0  0  0
 13 19  2  0  0  0  0
 13 20  1  0  0  0  0
 14 15  1  0  0  0  0
 14 16  2  0  0  0  0
 14 18  1  0  0  0  0
 15 17  1  0  0  0  0
 15 40  1  0  0  0  0
 15 41  1  0  0  0  0
 16 22  1  0  0  0  0
 17 27  1  0  0  0  0
 17 42  1  0  0  0  0
 17 43  1  0  0  0  0
 18 21  2  0  0  0  0
 19 25  1  0  0  0  0
 19 44  1  0  0  0  0
 20 26  2  0  0  0  0
 20 45  1  0  0  0  0
 21 24  1  0  0  0  0
 21 30  1  0  0  0  0
 22 24  2  0  0  0  0
 22 46  1  0  0  0  0
 23 25  2  0  0  0  0
 23 26  1  0  0  0  0
 23 28  1  0  0  0  0
 24 47  1  0  0  0  0
 25 48  1  0  0  0  0
 26 49  1  0  0  0  0
 27 50  1  0  0  0  0
 27 51  1  0  0  0  0
 27 52  1  0  0  0  0
 28 29  1  0  0  0  0
 29 31  1  0  0  0  0
 29 53  1  0  0  0  0
 29 54  1  0  0  0  0
 30 32  1  0  0  0  0
 31 33  1  0  0  0  0
 31 56  1  0  0  0  0
 31 57  1  0  0  0  0
 32 58  1  0  0  0  0
 32 59  1  0  0  0  0
 32 60  1  0  0  0  0
M  END
> <PUBCHEM_COMPOUND_CID>
122010

> <PUBCHEM_CONFORMER_RMSD>
1.2

> <PUBCHEM_CONFORMER_DIVERSEORDER>
1
22
43
21
72
44
26
41
71
20
10
80
25
15
42
14
69
35
32
55
11
70
46
23
62
30
27
17
74
8
68
75
2
65
49
28
73
5
18
36
48
13
31
4
33
54
9
19
39
40
58
77
76
37
6
53
60
57
38
67
7
12
78
24
47
61
59
50
16
66
52
64
29
56
3
51
45
79
63
34

> <PUBCHEM_MMFF94_PARTIAL_CHARGES>
38
1 1.2
10 0.11
12 0.28
13 -0.01
14 -0.14
15 0.14
16 0.08
18 0.08
19 -0.15
2 -0.36
20 -0.15
21 0.09
22 -0.15
23 0.09
24 -0.15
25 -0.15
26 -0.15
28 0.42
29 0.06
3 -0.65
30 0.42
31 0.06
32 0.06
33 0.66
4 -0.65
44 0.15
45 0.15
46 0.15
47 0.15
48 0.15
49 0.15
5 -0.53
55 0.45
6 -0.57
61 0.5
7 -0.57
8 -0.65
9 -0.57

> <PUBCHEM_EFFECTIVE_ROTOR_COUNT>
13

> <PUBCHEM_PHARMACOPHORE_FEATURES>
12
1 2 acceptor
1 27 hydrophobe
1 3 acceptor
1 4 acceptor
1 5 donor
1 6 acceptor
1 7 acceptor
1 8 acceptor
1 9 acceptor
3 8 9 33 anion
6 13 19 20 23 25 26 rings
6 14 16 18 21 22 24 rings

> <PUBCHEM_HEAVY_ATOM_COUNT>
33

> <PUBCHEM_ATOM_DEF_STEREO_COUNT>
0

> <PUBCHEM_ATOM_UDEF_STEREO_COUNT>
0

> <PUBCHEM_BOND_DEF_STEREO_COUNT>
0

> <PUBCHEM_BOND_UDEF_STEREO_COUNT>
0

> <PUBCHEM_ISOTOPIC_ATOM_COUNT>
0

> <PUBCHEM_COMPONENT_COUNT>
1

> <PUBCHEM_CACTVS_TAUTO_COUNT>
18

> <PUBCHEM_CONFORMER_ID>
0001DC9A00000001

> <PUBCHEM_MMFF94_ENERGY>
75.0605

> <PUBCHEM_FEATURE_SELFOVERLAP>
60.976

> <PUBCHEM_SHAPE_FINGERPRINT>
10280341 67 18200863072273033992
10533779 1 18411410696595522553
12838862 33 18201429264757601272
13944108 23 18269272361500462360
14394314 77 18272380784078423769
14931854 50 17988928842505668873
15183329 4 17989208131650117721
15350500 55 18261110747307620989
15803439 3 16774078479420615431
16992727 255 18338801216787808312
18608769 82 18124883606016367075
20511986 3 17988644164274958194
20691028 202 18335143106645899326
21033648 29 17968098595018522887
21133410 38 17701557103863537753
21133410 62 18410581673939932155
21585482 111 18408608050256843820
21585483 110 18340485565674852429
23516275 100 18262797350937997845
23569914 152 18057348119330993166
3862424 121 12894488045406220077
3918712 181 18411697656071085377
5372103 7 18339922620106264333
58902169 19 17773018767000271287
6009941 240 18334861636143744241
6327066 14 18413388730993375583

> <PUBCHEM_SHAPE_MULTIPOLES>
636.02
24.89
5.27
1.34
5.38
1.81
0.16
-34.06
-3.4
4.56
-1.06
1.95
-0.11
2.89

> <PUBCHEM_SHAPE_SELFOVERLAP>
1314.961

> <PUBCHEM_SHAPE_VOLUME>
363.9

> <PUBCHEM_COORDINATE_TYPE>
2
5
10

$$$$
