122023
  -OEChem-03292013323D

 54 55  0     0  0  0  0  0  0999 V2000
    1.6708    0.4855    1.3283 O   0  0  0  0  0  0  0  0  0  0  0  0
    5.6542    2.2862   -0.5642 O   0  0  0  0  0  0  0  0  0  0  0  0
    7.2824    0.4635   -1.6675 O   0  0  0  0  0  0  0  0  0  0  0  0
   -5.8682   -0.9673   -1.5023 N   0  0  0  0  0  0  0  0  0  0  0  0
   -6.4701   -1.1775    0.6704 N   0  0  0  0  0  0  0  0  0  0  0  0
   -6.2455   -2.2065   -1.1576 N   0  0  0  0  0  0  0  0  0  0  0  0
   -6.6103   -2.3775    0.1207 N   0  0  0  0  0  0  0  0  0  0  0  0
   -5.7298    1.1394   -0.1099 C   0  0  0  0  0  0  0  0  0  0  0  0
   -4.2568    1.4922   -0.5022 C   0  0  0  0  0  0  0  0  0  0  0  0
   -3.1742    0.8005    0.3410 C   0  0  0  0  0  0  0  0  0  0  0  0
   -1.7515    1.2369   -0.0284 C   0  0  0  0  0  0  0  0  0  0  0  0
   -6.6748    1.9801   -1.0101 C   0  0  0  0  0  0  0  0  0  0  0  0
   -5.9850    1.6217    1.3394 C   0  0  0  0  0  0  0  0  0  0  0  0
   -6.0257   -0.3583   -0.3244 C   0  0  0  0  0  0  0  0  0  0  0  0
   -0.6750    0.6176    0.8617 C   0  0  0  0  0  0  0  0  0  0  0  0
    0.7157    1.1053    0.4779 C   0  0  0  0  0  0  0  0  0  0  0  0
    2.9234    0.2854    0.8091 C   0  0  0  0  0  0  0  0  0  0  0  0
    3.4560   -0.9997    0.7058 C   0  0  0  0  0  0  0  0  0  0  0  0
    2.6736   -2.1883    1.1581 C   0  0  0  0  0  0  0  0  0  0  0  0
    3.6673    1.3850    0.3813 C   0  0  0  0  0  0  0  0  0  0  0  0
    4.7323   -1.1852    0.1746 C   0  0  0  0  0  0  0  0  0  0  0  0
    5.4761   -0.0854   -0.2534 C   0  0  0  0  0  0  0  0  0  0  0  0
    4.9436    1.1996   -0.1500 C   0  0  0  0  0  0  0  0  0  0  0  0
    1.8144   -2.7747    0.0418 C   0  0  0  0  0  0  0  0  0  0  0  0
    6.8063   -0.3005   -0.8056 C   0  0  0  0  0  0  0  0  0  0  0  0
    7.6509   -1.4782   -0.3347 C   0  0  0  0  0  0  0  0  0  0  0  0
   -4.0874    1.2402   -1.5576 H   0  0  0  0  0  0  0  0  0  0  0  0
   -4.1162    2.5789   -0.4236 H   0  0  0  0  0  0  0  0  0  0  0  0
   -3.2528   -0.2870    0.2292 H   0  0  0  0  0  0  0  0  0  0  0  0
   -3.3290    1.0245    1.4017 H   0  0  0  0  0  0  0  0  0  0  0  0
   -1.5569    0.9716   -1.0749 H   0  0  0  0  0  0  0  0  0  0  0  0
   -1.6856    2.3301    0.0387 H   0  0  0  0  0  0  0  0  0  0  0  0
   -6.5112    3.0545   -0.8685 H   0  0  0  0  0  0  0  0  0  0  0  0
   -6.5154    1.7581   -2.0717 H   0  0  0  0  0  0  0  0  0  0  0  0
   -7.7266    1.7662   -0.7862 H   0  0  0  0  0  0  0  0  0  0  0  0
   -5.4332    1.0219    2.0707 H   0  0  0  0  0  0  0  0  0  0  0  0
   -5.6999    2.6712    1.4720 H   0  0  0  0  0  0  0  0  0  0  0  0
   -7.0465    1.5283    1.5992 H   0  0  0  0  0  0  0  0  0  0  0  0
   -0.8673    0.8595    1.9143 H   0  0  0  0  0  0  0  0  0  0  0  0
   -0.7128   -0.4765    0.7935 H   0  0  0  0  0  0  0  0  0  0  0  0
    0.7821    2.1922    0.6026 H   0  0  0  0  0  0  0  0  0  0  0  0
    0.9124    0.8602   -0.5739 H   0  0  0  0  0  0  0  0  0  0  0  0
   -6.2538   -2.9705   -1.8249 H   0  0  0  0  0  0  0  0  0  0  0  0
    3.3558   -2.9627    1.5316 H   0  0  0  0  0  0  0  0  0  0  0  0
    2.0379   -1.9290    2.0134 H   0  0  0  0  0  0  0  0  0  0  0  0
    3.2565    2.3877    0.4694 H   0  0  0  0  0  0  0  0  0  0  0  0
    5.1260   -2.1946    0.0854 H   0  0  0  0  0  0  0  0  0  0  0  0
    1.0940   -2.0411   -0.3343 H   0  0  0  0  0  0  0  0  0  0  0  0
    1.2562   -3.6410    0.4106 H   0  0  0  0  0  0  0  0  0  0  0  0
    2.4314   -3.1022   -0.8019 H   0  0  0  0  0  0  0  0  0  0  0  0
    5.1247    3.0884   -0.4160 H   0  0  0  0  0  0  0  0  0  0  0  0
    8.7094   -1.2159   -0.4249 H   0  0  0  0  0  0  0  0  0  0  0  0
    7.4572   -1.6996    0.7184 H   0  0  0  0  0  0  0  0  0  0  0  0
    7.4383   -2.3529   -0.9540 H   0  0  0  0  0  0  0  0  0  0  0  0
  1 16  1  0  0  0  0
  1 17  1  0  0  0  0
  2 23  1  0  0  0  0
  2 51  1  0  0  0  0
  3 25  2  0  0  0  0
  4  6  1  0  0  0  0
  4 14  2  0  0  0  0
  5  7  2  0  0  0  0
  5 14  1  0  0  0  0
  6  7  1  0  0  0  0
  6 43  1  0  0  0  0
  8  9  1  0  0  0  0
  8 12  1  0  0  0  0
  8 13  1  0  0  0  0
  8 14  1  0  0  0  0
  9 10  1  0  0  0  0
  9 27  1  0  0  0  0
  9 28  1  0  0  0  0
 10 11  1  0  0  0  0
 10 29  1  0  0  0  0
 10 30  1  0  0  0  0
 11 15  1  0  0  0  0
 11 31  1  0  0  0  0
 11 32  1  0  0  0  0
 12 33  1  0  0  0  0
 12 34  1  0  0  0  0
 12 35  1  0  0  0  0
 13 36  1  0  0  0  0
 13 37  1  0  0  0  0
 13 38  1  0  0  0  0
 15 16  1  0  0  0  0
 15 39  1  0  0  0  0
 15 40  1  0  0  0  0
 16 41  1  0  0  0  0
 16 42  1  0  0  0  0
 17 18  1  0  0  0  0
 17 20  2  0  0  0  0
 18 19  1  0  0  0  0
 18 21  2  0  0  0  0
 19 24  1  0  0  0  0
 19 44  1  0  0  0  0
 19 45  1  0  0  0  0
 20 23  1  0  0  0  0
 20 46  1  0  0  0  0
 21 22  1  0  0  0  0
 21 47  1  0  0  0  0
 22 23  2  0  0  0  0
 22 25  1  0  0  0  0
 24 48  1  0  0  0  0
 24 49  1  0  0  0  0
 24 50  1  0  0  0  0
 25 26  1  0  0  0  0
 26 52  1  0  0  0  0
 26 53  1  0  0  0  0
 26 54  1  0  0  0  0
M  END
> <PUBCHEM_COMPOUND_CID>
122023

> <PUBCHEM_CONFORMER_RMSD>
1

> <PUBCHEM_CONFORMER_DIVERSEORDER>
1
111
11
142
33
8
73
221
36
155
61
203
94
108
150
104
205
32
229
80
97
172
10
21
96
134
81
40
114
149
204
46
77
54
85
12
2
87
127
47
145
26
113
7
193
105
76
158
25
207
13
69
167
91
53
211
100
43
72
107
166
122
4
22
70
185
35
117
202
177
75
64
28
34
180
126
128
210
184
79
78
197
115
152
125
23
102
45
160
226
130
57
67
101
138
5
151
132
19
162
58
29
15
139
27
183
209
141
188
60
159
6
168
120
187
30
217
131
89
219
62
71
175
98
66
181
99
146
38
191
148
44
170
179
24
74
65
143
135
215
198
124
3
116
55
178
123
37
88
228
31
194
50
84
20
9
129
48
176
173
140
41
186
118
92
147
93
52
169
156
220
51
171
212
133
16
224
199
49
90
109
136
112
216
14
106
195
59
206
153
86
190
164
63
42
103
161
121
182
137
154
225
119
82
83
208
56
196
174
201
39
144
17
165
189
95
163
200
214
213
110
227
68
192
157
222
218
223
18

> <PUBCHEM_MMFF94_PARTIAL_CHARGES>
23
1 -0.36
14 0.34
16 0.28
17 0.08
18 -0.14
19 0.14
2 -0.53
20 -0.15
21 -0.15
22 0.09
23 0.08
25 0.42
26 0.06
3 -0.57
4 -0.71
43 0.27
46 0.15
47 0.15
5 -0.23
51 0.45
6 0.57
7 -0.42
8 0.18

> <PUBCHEM_EFFECTIVE_ROTOR_COUNT>
10

> <PUBCHEM_PHARMACOPHORE_FEATURES>
9
1 1 acceptor
1 2 donor
1 24 hydrophobe
1 3 acceptor
3 4 5 14 cation
3 8 12 13 hydrophobe
5 4 5 6 7 14 rings
5 8 9 10 11 15 hydrophobe
6 17 18 20 21 22 23 rings

> <PUBCHEM_HEAVY_ATOM_COUNT>
26

> <PUBCHEM_ATOM_DEF_STEREO_COUNT>
0

> <PUBCHEM_ATOM_UDEF_STEREO_COUNT>
0

> <PUBCHEM_BOND_DEF_STEREO_COUNT>
0

> <PUBCHEM_BOND_UDEF_STEREO_COUNT>
0

> <PUBCHEM_ISOTOPIC_ATOM_COUNT>
0

> <PUBCHEM_COMPONENT_COUNT>
1

> <PUBCHEM_CACTVS_TAUTO_COUNT>
18

> <PUBCHEM_CONFORMER_ID>
0001DCA700000001

> <PUBCHEM_MMFF94_ENERGY>
60.1483

> <PUBCHEM_FEATURE_SELFOVERLAP>
45.671

> <PUBCHEM_SHAPE_FINGERPRINT>
10299344 5 18342461430566003825
10595046 47 18408319969419971689
10693767 8 18196938778272819654
11524674 6 16343699950685797333
12730499 353 17968384459614944400
13668630 136 17989491805649973316
15021287 119 14908173166872579377
15142383 8 10375876260104523842
15183329 4 18409163290701361425
15348495 7 12535052170557070861
15352257 5 18131353024748087119
15799311 1 18340497698862550787
17093844 174 11600007644428034393
18927931 339 17346595284374840085
20465049 17 18202283602593681766
21150785 3 17749110006147909349
21298829 104 8718827595972498254
21344244 181 17561373864132813254
220451 1 18411418380702848561
2303208 19 17775279495718317105
23081809 10 17240473685540798265
23516275 137 18126871316986535691
23522609 53 18199494149768179201
3004659 81 18411415094815386280
335352 9 18334022667103764854
335507 130 18114188531852955117
4073 2 18113902663245708739
4325135 7 18334294258500630959
465052 167 17632578258105230620
484989 97 18341055215450500626
504579 68 18342730794057005253
999808 66 17846501448097263927

> <PUBCHEM_SHAPE_MULTIPOLES>
497.54
25.05
2.58
1.18
9.4
1.27
-0.08
2.42
-7.88
1.62
-0.13
0.31
0
-1.12

> <PUBCHEM_SHAPE_SELFOVERLAP>
1020.869

> <PUBCHEM_SHAPE_VOLUME>
287.8

> <PUBCHEM_COORDINATE_TYPE>
2
5
10

$$$$
