122057
  -OEChem-03292013323D

 47 49  0     1  0  0  0  0  0999 V2000
    0.0882   -1.2089    1.4584 O   0  0  0  0  0  0  0  0  0  0  0  0
    2.4579   -4.2438    1.4796 O   0  0  0  0  0  0  0  0  0  0  0  0
    3.5361   -2.2536    1.2104 O   0  0  0  0  0  0  0  0  0  0  0  0
   -2.0159    0.1380   -1.4637 O   0  0  0  0  0  0  0  0  0  0  0  0
   -5.8832   -1.2137   -0.9549 O   0  0  0  0  0  0  0  0  0  0  0  0
    1.4825   -1.4142   -0.3774 N   0  0  0  0  0  0  0  0  0  0  0  0
   -0.9941    0.9462    0.4673 N   0  0  0  0  0  0  0  0  0  0  0  0
   -4.4145    0.5806   -0.6296 N   0  0  0  0  0  0  0  0  0  0  0  0
    1.4812    3.3233   -0.9760 N   0  0  0  0  0  0  0  0  0  0  0  0
    2.8784    4.6082    0.2982 N   0  0  0  0  0  0  0  0  0  0  0  0
    1.7080   -2.8486   -0.2556 C   0  0  1  0  0  0  0  0  0  0  0  0
    2.3107   -3.2609   -1.5935 C   0  0  0  0  0  0  0  0  0  0  0  0
    2.1364   -0.8774   -1.5680 C   0  0  0  0  0  0  0  0  0  0  0  0
    3.0366   -2.0011   -2.0591 C   0  0  0  0  0  0  0  0  0  0  0  0
    0.3692    0.7168    0.0866 C   0  0  2  0  0  0  0  0  0  0  0  0
    0.6224   -0.7218    0.4607 C   0  0  0  0  0  0  0  0  0  0  0  0
    1.3459    1.6319    0.8085 C   0  0  0  0  0  0  0  0  0  0  0  0
   -3.3905    0.9535    0.3047 C   0  0  1  0  0  0  0  0  0  0  0  0
   -3.6725    0.0849    1.5159 C   0  0  0  0  0  0  0  0  0  0  0  0
    2.6719   -3.0498    0.8748 C   0  0  0  0  0  0  0  0  0  0  0  0
    1.1340    3.0939    0.4411 C   0  0  1  0  0  0  0  0  0  0  0  0
   -2.0807    0.6365   -0.3430 C   0  0  0  0  0  0  0  0  0  0  0  0
   -4.3664   -1.1499    0.9416 C   0  0  0  0  0  0  0  0  0  0  0  0
   -5.0160   -0.6343   -0.3193 C   0  0  0  0  0  0  0  0  0  0  0  0
    2.1178    3.9850    1.1256 C   0  0  0  0  0  0  0  0  0  0  0  0
    2.4564    4.1790   -0.9334 C   0  0  0  0  0  0  0  0  0  0  0  0
    0.7609   -3.3519   -0.0337 H   0  0  0  0  0  0  0  0  0  0  0  0
    2.9802   -4.1239   -1.5278 H   0  0  0  0  0  0  0  0  0  0  0  0
    1.5094   -3.4997   -2.3033 H   0  0  0  0  0  0  0  0  0  0  0  0
    2.6918    0.0355   -1.3397 H   0  0  0  0  0  0  0  0  0  0  0  0
    1.3620   -0.6549   -2.3103 H   0  0  0  0  0  0  0  0  0  0  0  0
    3.1903   -1.9740   -3.1415 H   0  0  0  0  0  0  0  0  0  0  0  0
    4.0186   -1.9357   -1.5758 H   0  0  0  0  0  0  0  0  0  0  0  0
    0.4277    0.8572   -0.9953 H   0  0  0  0  0  0  0  0  0  0  0  0
    2.3785    1.3336    0.5854 H   0  0  0  0  0  0  0  0  0  0  0  0
    1.2365    1.5169    1.8958 H   0  0  0  0  0  0  0  0  0  0  0  0
   -3.4559    2.0241    0.5198 H   0  0  0  0  0  0  0  0  0  0  0  0
   -1.1704    1.3192    1.3961 H   0  0  0  0  0  0  0  0  0  0  0  0
   -4.3737    0.6058    2.1806 H   0  0  0  0  0  0  0  0  0  0  0  0
   -2.7945   -0.1836    2.1103 H   0  0  0  0  0  0  0  0  0  0  0  0
    0.1201    3.4430    0.6601 H   0  0  0  0  0  0  0  0  0  0  0  0
   -5.1124   -1.5539    1.6301 H   0  0  0  0  0  0  0  0  0  0  0  0
   -3.6428   -1.9257    0.6728 H   0  0  0  0  0  0  0  0  0  0  0  0
   -4.6513    1.1230   -1.4547 H   0  0  0  0  0  0  0  0  0  0  0  0
    2.1522    4.0810    2.2192 H   0  0  0  0  0  0  0  0  0  0  0  0
    3.0807   -4.3951    2.2223 H   0  0  0  0  0  0  0  0  0  0  0  0
    2.9417    4.5575   -1.8452 H   0  0  0  0  0  0  0  0  0  0  0  0
  1 16  2  0  0  0  0
  2 20  1  0  0  0  0
  2 46  1  0  0  0  0
  3 20  2  0  0  0  0
  4 22  2  0  0  0  0
  5 24  2  0  0  0  0
  6 11  1  0  0  0  0
  6 13  1  0  0  0  0
  6 16  1  0  0  0  0
  7 15  1  0  0  0  0
  7 22  1  0  0  0  0
  7 38  1  0  0  0  0
  8 18  1  0  0  0  0
  8 24  1  0  0  0  0
  8 44  1  0  0  0  0
  9 21  1  0  0  0  0
  9 26  2  0  0  0  0
 10 25  2  0  0  0  0
 10 26  1  0  0  0  0
 11 12  1  0  0  0  0
 11 20  1  0  0  0  0
 11 27  1  0  0  0  0
 12 14  1  0  0  0  0
 12 28  1  0  0  0  0
 12 29  1  0  0  0  0
 13 14  1  0  0  0  0
 13 30  1  0  0  0  0
 13 31  1  0  0  0  0
 14 32  1  0  0  0  0
 14 33  1  0  0  0  0
 15 16  1  0  0  0  0
 15 17  1  0  0  0  0
 15 34  1  0  0  0  0
 17 21  1  0  0  0  0
 17 35  1  0  0  0  0
 17 36  1  0  0  0  0
 18 19  1  0  0  0  0
 18 22  1  0  0  0  0
 18 37  1  0  0  0  0
 19 23  1  0  0  0  0
 19 39  1  0  0  0  0
 19 40  1  0  0  0  0
 21 25  1  0  0  0  0
 21 41  1  0  0  0  0
 23 24  1  0  0  0  0
 23 42  1  0  0  0  0
 23 43  1  0  0  0  0
 25 45  1  0  0  0  0
 26 47  1  0  0  0  0
M  END
> <PUBCHEM_COMPOUND_CID>
122057

> <PUBCHEM_CONFORMER_RMSD>
1

> <PUBCHEM_CONFORMER_DIVERSEORDER>
1
109
25
82
61
92
87
98
86
58
36
107
21
71
4
93
52
78
40
53
73
12
48
113
27
104
103
83
105
38
15
75
89
24
31
35
23
91
94
100
41
13
101
62
46
102
26
67
17
11
69
8
51
63
90
16
59
68
30
99
97
60
70
28
14
74
45
19
49
84
106
66
76
9
81
54
6
79
34
64
47
43
55
39
56
22
88
44
20
37
3
50
112
111
72
95
110
96
32
2
33
85
29
77
65
18
7
108
5
80
57
42
10

> <PUBCHEM_MMFF94_PARTIAL_CHARGES>
27
1 -0.57
10 -0.66
11 0.36
13 0.3
15 0.36
16 0.57
18 0.36
2 -0.65
20 0.66
21 0.31
22 0.57
23 0.06
24 0.57
25 0.33
26 0.6
3 -0.57
38 0.37
4 -0.57
44 0.37
45 0.06
46 0.5
47 0.06
5 -0.57
6 -0.66
7 -0.73
8 -0.73
9 -0.7

> <PUBCHEM_EFFECTIVE_ROTOR_COUNT>
10

> <PUBCHEM_PHARMACOPHORE_FEATURES>
13
1 1 acceptor
1 10 acceptor
1 2 acceptor
1 3 acceptor
1 4 acceptor
1 5 acceptor
1 7 donor
1 8 donor
3 2 3 20 anion
3 9 10 26 cation
5 6 11 12 13 14 rings
5 8 18 19 23 24 rings
5 9 10 21 25 26 rings

> <PUBCHEM_HEAVY_ATOM_COUNT>
26

> <PUBCHEM_ATOM_DEF_STEREO_COUNT>
3

> <PUBCHEM_ATOM_UDEF_STEREO_COUNT>
1

> <PUBCHEM_BOND_DEF_STEREO_COUNT>
0

> <PUBCHEM_BOND_UDEF_STEREO_COUNT>
0

> <PUBCHEM_ISOTOPIC_ATOM_COUNT>
0

> <PUBCHEM_COMPONENT_COUNT>
1

> <PUBCHEM_CACTVS_TAUTO_COUNT>
6

> <PUBCHEM_CONFORMER_ID>
0001DCC900000001

> <PUBCHEM_MMFF94_ENERGY>
55.705

> <PUBCHEM_FEATURE_SELFOVERLAP>
66.03

> <PUBCHEM_SHAPE_FINGERPRINT>
11045515 52 18121518863826464740
11991303 11 17614008803860945556
12160290 23 17182237820046753312
12553582 1 18124329211505261235
12597179 24 17979648049687099956
12788726 201 17543649533889986490
13257819 37 17687481464562373740
133893 2 18126256805416949389
13681431 1 18342461391769035840
13955234 65 18410295852187025849
14856354 85 14404033801251169366
15842332 3 17846234249887420153
1813 80 18200313191372025471
20567600 347 18122061167887781693
20600515 1 17911788085964290417
21304303 282 16459639834918729964
21344244 246 18200604699845910532
21796203 349 18050604834927925995
2255824 54 18342460365187111693
22956985 138 18260820540462223650
23366157 5 18408327696145232297
23557571 272 17763736599311488474
23559900 14 18340760469383170873
463206 1 18116433627334169875
59755656 520 17906444790208433372
6442390 28 17765445626722426273
6669772 16 18194684993782966268
6786 2 17977960303659558092
7164475 11 17615978703358805998
81228 2 17548981057341854576
9841814 1 18411141294692051907

> <PUBCHEM_SHAPE_MULTIPOLES>
480.82
8.42
6.06
1.62
15.6
4.3
0.18
-3.1
1.03
-10.81
-0.59
-0.77
-0.93
-0.13

> <PUBCHEM_SHAPE_SELFOVERLAP>
1020.596

> <PUBCHEM_SHAPE_VOLUME>
270.2

> <PUBCHEM_COORDINATE_TYPE>
2
5
10

$$$$
