122044
  -OEChem-03292013323D

 60 62  0     0  0  0  0  0  0999 V2000
   -2.0044    2.9432    1.3240 S   0  0  0  0  0  0  0  0  0  0  0  0
   -2.5302    2.9325    2.6841 O   0  0  0  0  0  0  0  0  0  0  0  0
   -2.3832    4.0334    0.4332 O   0  0  0  0  0  0  0  0  0  0  0  0
    2.0179    1.1842    1.4112 O   0  0  0  0  0  0  0  0  0  0  0  0
    3.2820    0.6833   -1.0073 O   0  0  0  0  0  0  0  0  0  0  0  0
    0.0169   -3.1302    0.7824 O   0  0  0  0  0  0  0  0  0  0  0  0
    4.7070   -1.6400   -1.5635 O   0  0  0  0  0  0  0  0  0  0  0  0
   -0.2867    2.8427    1.4139 N   0  0  0  0  0  0  0  0  0  0  0  0
   -0.0507    3.0686   -0.9231 N   0  0  0  0  0  0  0  0  0  0  0  0
    1.7344    1.9874   -2.1281 N   0  0  0  0  0  0  0  0  0  0  0  0
   -3.5247   -2.3223   -1.2924 C   0  0  0  0  0  0  0  0  0  0  0  0
   -3.1392   -0.9895   -0.6297 C   0  0  0  0  0  0  0  0  0  0  0  0
   -3.7835   -3.4681   -0.2881 C   0  0  0  0  0  0  0  0  0  0  0  0
   -2.3873   -2.7849   -2.2286 C   0  0  0  0  0  0  0  0  0  0  0  0
   -4.8173   -2.1381   -2.1166 C   0  0  0  0  0  0  0  0  0  0  0  0
   -3.0517   -0.9006    0.7596 C   0  0  0  0  0  0  0  0  0  0  0  0
   -2.8782    0.1315   -1.4180 C   0  0  0  0  0  0  0  0  0  0  0  0
   -2.4421    1.4296    0.5724 C   0  0  0  0  0  0  0  0  0  0  0  0
   -2.7031    0.3088    1.3606 C   0  0  0  0  0  0  0  0  0  0  0  0
   -2.5297    1.3409   -0.8171 C   0  0  0  0  0  0  0  0  0  0  0  0
    0.4365    2.5257    0.2119 C   0  0  0  0  0  0  0  0  0  0  0  0
    1.5522    1.7151    0.2566 C   0  0  0  0  0  0  0  0  0  0  0  0
    2.1668    1.4777   -0.9560 C   0  0  0  0  0  0  0  0  0  0  0  0
    2.0808   -0.1990    1.5131 C   0  0  0  0  0  0  0  0  0  0  0  0
    0.6369    2.7628   -2.0400 C   0  0  0  0  0  0  0  0  0  0  0  0
    3.8649    0.4802   -2.2890 C   0  0  0  0  0  0  0  0  0  0  0  0
    1.0049   -0.9792    1.0893 C   0  0  0  0  0  0  0  0  0  0  0  0
    3.2187   -0.8082    2.0419 C   0  0  0  0  0  0  0  0  0  0  0  0
    1.0672   -2.3687    1.1942 C   0  0  0  0  0  0  0  0  0  0  0  0
    3.2809   -2.1978    2.1468 C   0  0  0  0  0  0  0  0  0  0  0  0
    2.2050   -2.9780    1.7230 C   0  0  0  0  0  0  0  0  0  0  0  0
    5.0921   -0.3984   -2.1409 C   0  0  0  0  0  0  0  0  0  0  0  0
    0.1467   -4.5444    0.9204 C   0  0  0  0  0  0  0  0  0  0  0  0
   -4.6167   -3.2373    0.3861 H   0  0  0  0  0  0  0  0  0  0  0  0
   -2.8983   -3.6874    0.3186 H   0  0  0  0  0  0  0  0  0  0  0  0
   -4.0471   -4.3955   -0.8113 H   0  0  0  0  0  0  0  0  0  0  0  0
   -2.6206   -3.7536   -2.6857 H   0  0  0  0  0  0  0  0  0  0  0  0
   -2.2120   -2.0788   -3.0477 H   0  0  0  0  0  0  0  0  0  0  0  0
   -1.4437   -2.8932   -1.6816 H   0  0  0  0  0  0  0  0  0  0  0  0
   -4.6902   -1.4184   -2.9326 H   0  0  0  0  0  0  0  0  0  0  0  0
   -5.6395   -1.7791   -1.4862 H   0  0  0  0  0  0  0  0  0  0  0  0
   -5.1343   -3.0842   -2.5711 H   0  0  0  0  0  0  0  0  0  0  0  0
   -3.2411   -1.7404    1.4187 H   0  0  0  0  0  0  0  0  0  0  0  0
   -2.9471    0.0917   -2.5012 H   0  0  0  0  0  0  0  0  0  0  0  0
   -2.6320    0.3527    2.4438 H   0  0  0  0  0  0  0  0  0  0  0  0
   -2.3737    2.2037   -1.4562 H   0  0  0  0  0  0  0  0  0  0  0  0
    0.1204    2.4797    2.2853 H   0  0  0  0  0  0  0  0  0  0  0  0
    0.2667    3.1844   -2.9663 H   0  0  0  0  0  0  0  0  0  0  0  0
    4.1612    1.4380   -2.7327 H   0  0  0  0  0  0  0  0  0  0  0  0
    3.1396   -0.0250   -2.9387 H   0  0  0  0  0  0  0  0  0  0  0  0
    0.1088   -0.5244    0.6804 H   0  0  0  0  0  0  0  0  0  0  0  0
    4.0597   -0.2051    2.3726 H   0  0  0  0  0  0  0  0  0  0  0  0
    4.1677   -2.6711    2.5581 H   0  0  0  0  0  0  0  0  0  0  0  0
    2.3199   -4.0508    1.8334 H   0  0  0  0  0  0  0  0  0  0  0  0
    5.5572   -0.5865   -3.1129 H   0  0  0  0  0  0  0  0  0  0  0  0
    5.8205    0.0688   -1.4707 H   0  0  0  0  0  0  0  0  0  0  0  0
    5.5137   -2.1757   -1.4752 H   0  0  0  0  0  0  0  0  0  0  0  0
    0.9669   -4.9345    0.3082 H   0  0  0  0  0  0  0  0  0  0  0  0
    0.2365   -4.8390    1.9714 H   0  0  0  0  0  0  0  0  0  0  0  0
   -0.7756   -4.9944    0.5395 H   0  0  0  0  0  0  0  0  0  0  0  0
  1  2  2  0  0  0  0
  1  3  2  0  0  0  0
  1  8  1  0  0  0  0
  1 18  1  0  0  0  0
  4 22  1  0  0  0  0
  4 24  1  0  0  0  0
  5 23  1  0  0  0  0
  5 26  1  0  0  0  0
  6 29  1  0  0  0  0
  6 33  1  0  0  0  0
  7 32  1  0  0  0  0
  7 57  1  0  0  0  0
  8 21  1  0  0  0  0
  8 47  1  0  0  0  0
  9 21  1  0  0  0  0
  9 25  2  0  0  0  0
 10 23  2  0  0  0  0
 10 25  1  0  0  0  0
 11 12  1  0  0  0  0
 11 13  1  0  0  0  0
 11 14  1  0  0  0  0
 11 15  1  0  0  0  0
 12 16  2  0  0  0  0
 12 17  1  0  0  0  0
 13 34  1  0  0  0  0
 13 35  1  0  0  0  0
 13 36  1  0  0  0  0
 14 37  1  0  0  0  0
 14 38  1  0  0  0  0
 14 39  1  0  0  0  0
 15 40  1  0  0  0  0
 15 41  1  0  0  0  0
 15 42  1  0  0  0  0
 16 19  1  0  0  0  0
 16 43  1  0  0  0  0
 17 20  2  0  0  0  0
 17 44  1  0  0  0  0
 18 19  2  0  0  0  0
 18 20  1  0  0  0  0
 19 45  1  0  0  0  0
 20 46  1  0  0  0  0
 21 22  2  0  0  0  0
 22 23  1  0  0  0  0
 24 27  1  0  0  0  0
 24 28  2  0  0  0  0
 25 48  1  0  0  0  0
 26 32  1  0  0  0  0
 26 49  1  0  0  0  0
 26 50  1  0  0  0  0
 27 29  2  0  0  0  0
 27 51  1  0  0  0  0
 28 30  1  0  0  0  0
 28 52  1  0  0  0  0
 29 31  1  0  0  0  0
 30 31  2  0  0  0  0
 30 53  1  0  0  0  0
 31 54  1  0  0  0  0
 32 55  1  0  0  0  0
 32 56  1  0  0  0  0
 33 58  1  0  0  0  0
 33 59  1  0  0  0  0
 33 60  1  0  0  0  0
M  END
> <PUBCHEM_COMPOUND_CID>
122044

> <PUBCHEM_CONFORMER_RMSD>
1

> <PUBCHEM_CONFORMER_DIVERSEORDER>
1
129
59
32
111
130
69
110
47
127
16
2
17
53
24
94
72
121
89
109
12
85
119
128
80
48
52
135
57
102
58
14
65
86
37
29
46
27
5
92
44
99
45
124
73
26
75
22
100
91
83
11
49
78
15
71
20
3
103
21
31
132
62
113
56
106
25
6
74
23
131
105
13
88
116
93
19
60
115
84
118
87
126
33
41
101
70
66
28
108
61
120
34
64
77
54
125
18
122
133
82
107
114
42
8
90
123
63
112
117
10
38
104
39
30
36
76
4
97
43
51
81
95
134
55
9
68
50
40
35
7
96
79
67
98

> <PUBCHEM_MMFF94_PARTIAL_CHARGES>
41
1 1.45
10 -0.62
11 0.14
12 -0.14
16 -0.15
17 -0.15
18 -0.01
19 -0.15
2 -0.65
20 -0.15
21 0.51
22 0.08
23 0.39
24 0.08
25 0.47
26 0.28
27 -0.15
28 -0.15
29 0.08
3 -0.65
30 -0.15
31 -0.15
32 0.28
33 0.28
4 -0.17
43 0.15
44 0.15
45 0.15
46 0.15
47 0.42
48 0.15
5 -0.36
51 0.15
52 0.15
53 0.15
54 0.15
57 0.4
6 -0.36
7 -0.68
8 -0.76
9 -0.62

> <PUBCHEM_EFFECTIVE_ROTOR_COUNT>
10

> <PUBCHEM_PHARMACOPHORE_FEATURES>
12
1 2 acceptor
1 3 acceptor
1 4 acceptor
1 6 acceptor
1 7 acceptor
1 7 donor
1 8 donor
3 9 10 25 cation
4 11 13 14 15 hydrophobe
6 12 16 17 18 19 20 rings
6 24 27 28 29 30 31 rings
6 9 10 21 22 23 25 rings

> <PUBCHEM_HEAVY_ATOM_COUNT>
33

> <PUBCHEM_ATOM_DEF_STEREO_COUNT>
0

> <PUBCHEM_ATOM_UDEF_STEREO_COUNT>
0

> <PUBCHEM_BOND_DEF_STEREO_COUNT>
0

> <PUBCHEM_BOND_UDEF_STEREO_COUNT>
0

> <PUBCHEM_ISOTOPIC_ATOM_COUNT>
0

> <PUBCHEM_COMPONENT_COUNT>
1

> <PUBCHEM_CACTVS_TAUTO_COUNT>
3

> <PUBCHEM_CONFORMER_ID>
0001DCBC00000001

> <PUBCHEM_MMFF94_ENERGY>
107.8819

> <PUBCHEM_FEATURE_SELFOVERLAP>
60.916

> <PUBCHEM_SHAPE_FINGERPRINT>
10369192 42 15940118692635342508
11285246 1 18267891504130656302
11513181 2 18271517612106816794
12035759 4 18041853796591842670
12156800 1 18129661885965777110
14114206 34 18337679723221687973
14659021 117 18341624758326199844
15064986 96 17475547996101791537
17093844 170 15596938414756936499
18603816 31 16765128313722250670
20775438 99 17119433131690105951
20775530 9 18190714528013414723
21304303 94 17901953272228348175
238 59 17532362265473437917
35225 105 14688008057631600110
463206 1 18122039147923089323
581034 39 18125153828088707954
70251023 43 18198633313904145311

> <PUBCHEM_SHAPE_MULTIPOLES>
632.82
7.95
5.5
2.76
0.91
0.67
0.55
4.83
4.61
-2.38
-1.56
1.42
-0.02
-3.46

> <PUBCHEM_SHAPE_SELFOVERLAP>
1335.031

> <PUBCHEM_SHAPE_VOLUME>
357.4

> <PUBCHEM_COORDINATE_TYPE>
2
5
10

$$$$
