122021
  -OEChem-03292013323D

 70 72  0     1  0  0  0  0  0999 V2000
    4.3123    0.9586   -2.4750 O   0  0  0  0  0  0  0  0  0  0  0  0
   -0.9992    1.7545    2.8176 O   0  0  0  0  0  0  0  0  0  0  0  0
    0.2972    2.4063   -1.5546 O   0  0  0  0  0  0  0  0  0  0  0  0
   -5.9454   -3.0190   -1.7908 O   0  0  0  0  0  0  0  0  0  0  0  0
   -5.8287   -2.2738    0.3510 O   0  0  0  0  0  0  0  0  0  0  0  0
    1.2073    1.1724    0.2240 N   0  0  0  0  0  0  0  0  0  0  0  0
    2.2998    0.6569   -0.4316 N   0  0  0  0  0  0  0  0  0  0  0  0
   -0.6676    2.3057    0.5718 N   0  0  0  0  0  0  0  0  0  0  0  0
    5.1332   -0.3003   -0.6229 C   0  0  0  0  0  0  0  0  0  0  0  0
    5.5259   -0.2574    0.8601 C   0  0  0  0  0  0  0  0  0  0  0  0
    6.3055   -0.7883   -1.4846 C   0  0  0  0  0  0  0  0  0  0  0  0
    4.6521    1.0710   -1.0933 C   0  0  2  0  0  0  0  0  0  0  0  0
    6.0611   -1.6044    1.3407 C   0  0  0  0  0  0  0  0  0  0  0  0
    6.8392   -2.1345   -1.0001 C   0  0  0  0  0  0  0  0  0  0  0  0
    7.2204   -2.0904    0.4764 C   0  0  0  0  0  0  0  0  0  0  0  0
    3.4266    1.5735   -0.3261 C   0  0  0  0  0  0  0  0  0  0  0  0
    0.9258    0.8950    1.6073 C   0  0  2  0  0  0  0  0  0  0  0  0
    0.7008   -0.5792    1.9034 C   0  0  0  0  0  0  0  0  0  0  0  0
   -0.3652    1.6944    1.7716 C   0  0  0  0  0  0  0  0  0  0  0  0
   -0.3123   -1.1964    0.9382 C   0  0  0  0  0  0  0  0  0  0  0  0
    0.2782    2.0088   -0.3965 C   0  0  0  0  0  0  0  0  0  0  0  0
   -0.5621   -2.6699    1.2653 C   0  0  0  0  0  0  0  0  0  0  0  0
   -1.8252    3.1496    0.3528 C   0  0  0  0  0  0  0  0  0  0  0  0
   -1.5655   -3.3423    0.3232 C   0  0  0  0  0  0  0  0  0  0  0  0
   -2.9747   -2.7435    0.3132 C   0  0  0  0  0  0  0  0  0  0  0  0
   -3.0282    2.3552   -0.0671 C   0  0  0  0  0  0  0  0  0  0  0  0
   -3.9456   -3.4883   -0.6022 C   0  0  0  0  0  0  0  0  0  0  0  0
   -3.2703    2.1191   -1.4204 C   0  0  0  0  0  0  0  0  0  0  0  0
   -3.9033    1.8529    0.8960 C   0  0  0  0  0  0  0  0  0  0  0  0
   -4.3876    1.3809   -1.8106 C   0  0  0  0  0  0  0  0  0  0  0  0
   -5.0207    1.1146    0.5056 C   0  0  0  0  0  0  0  0  0  0  0  0
   -5.3209   -2.8603   -0.5945 C   0  0  0  0  0  0  0  0  0  0  0  0
   -5.2628    0.8787   -0.8478 C   0  0  0  0  0  0  0  0  0  0  0  0
    4.3272   -1.0367   -0.7488 H   0  0  0  0  0  0  0  0  0  0  0  0
    6.2872    0.5154    1.0254 H   0  0  0  0  0  0  0  0  0  0  0  0
    4.6663   -0.0031    1.4886 H   0  0  0  0  0  0  0  0  0  0  0  0
    7.1177   -0.0503   -1.4628 H   0  0  0  0  0  0  0  0  0  0  0  0
    6.0006   -0.8944   -2.5322 H   0  0  0  0  0  0  0  0  0  0  0  0
    5.4558    1.8122   -1.0154 H   0  0  0  0  0  0  0  0  0  0  0  0
    5.2535   -2.3466    1.3191 H   0  0  0  0  0  0  0  0  0  0  0  0
    6.3891   -1.5201    2.3829 H   0  0  0  0  0  0  0  0  0  0  0  0
    7.7125   -2.4210   -1.5970 H   0  0  0  0  0  0  0  0  0  0  0  0
    6.0771   -2.9076   -1.1577 H   0  0  0  0  0  0  0  0  0  0  0  0
    8.0806   -1.4231    0.6113 H   0  0  0  0  0  0  0  0  0  0  0  0
    7.5342   -3.0871    0.8064 H   0  0  0  0  0  0  0  0  0  0  0  0
    3.1389    2.5404   -0.7614 H   0  0  0  0  0  0  0  0  0  0  0  0
    3.6829    1.7663    0.7212 H   0  0  0  0  0  0  0  0  0  0  0  0
    1.7038    1.3351    2.2395 H   0  0  0  0  0  0  0  0  0  0  0  0
    2.0421    0.5246   -1.4083 H   0  0  0  0  0  0  0  0  0  0  0  0
    0.3516   -0.7014    2.9359 H   0  0  0  0  0  0  0  0  0  0  0  0
    1.6522   -1.1188    1.8193 H   0  0  0  0  0  0  0  0  0  0  0  0
    3.6689    0.2370   -2.5749 H   0  0  0  0  0  0  0  0  0  0  0  0
    0.0371   -1.1273   -0.0978 H   0  0  0  0  0  0  0  0  0  0  0  0
   -1.2591   -0.6511    1.0017 H   0  0  0  0  0  0  0  0  0  0  0  0
   -0.9263   -2.7597    2.2961 H   0  0  0  0  0  0  0  0  0  0  0  0
    0.3861   -3.2190    1.2149 H   0  0  0  0  0  0  0  0  0  0  0  0
   -2.0444    3.6961    1.2780 H   0  0  0  0  0  0  0  0  0  0  0  0
   -1.5838    3.8959   -0.4135 H   0  0  0  0  0  0  0  0  0  0  0  0
   -1.6360   -4.4010    0.6028 H   0  0  0  0  0  0  0  0  0  0  0  0
   -1.1623   -3.3193   -0.6972 H   0  0  0  0  0  0  0  0  0  0  0  0
   -2.9334   -1.6963   -0.0084 H   0  0  0  0  0  0  0  0  0  0  0  0
   -3.3676   -2.7375    1.3376 H   0  0  0  0  0  0  0  0  0  0  0  0
   -3.5549   -3.4685   -1.6262 H   0  0  0  0  0  0  0  0  0  0  0  0
   -4.0492   -4.5335   -0.2925 H   0  0  0  0  0  0  0  0  0  0  0  0
   -2.5969    2.5047   -2.1811 H   0  0  0  0  0  0  0  0  0  0  0  0
   -3.7283    2.0301    1.9535 H   0  0  0  0  0  0  0  0  0  0  0  0
   -4.5764    1.1971   -2.8643 H   0  0  0  0  0  0  0  0  0  0  0  0
   -5.7024    0.7238    1.2554 H   0  0  0  0  0  0  0  0  0  0  0  0
   -6.1339    0.3062   -1.1524 H   0  0  0  0  0  0  0  0  0  0  0  0
   -6.8365   -2.6087   -1.7947 H   0  0  0  0  0  0  0  0  0  0  0  0
  1 12  1  0  0  0  0
  1 52  1  0  0  0  0
  2 19  2  0  0  0  0
  3 21  2  0  0  0  0
  4 32  1  0  0  0  0
  4 70  1  0  0  0  0
  5 32  2  0  0  0  0
  6  7  1  0  0  0  0
  6 17  1  0  0  0  0
  6 21  1  0  0  0  0
  7 16  1  0  0  0  0
  7 49  1  0  0  0  0
  8 19  1  0  0  0  0
  8 21  1  0  0  0  0
  8 23  1  0  0  0  0
  9 10  1  0  0  0  0
  9 11  1  0  0  0  0
  9 12  1  0  0  0  0
  9 34  1  0  0  0  0
 10 13  1  0  0  0  0
 10 35  1  0  0  0  0
 10 36  1  0  0  0  0
 11 14  1  0  0  0  0
 11 37  1  0  0  0  0
 11 38  1  0  0  0  0
 12 16  1  0  0  0  0
 12 39  1  0  0  0  0
 13 15  1  0  0  0  0
 13 40  1  0  0  0  0
 13 41  1  0  0  0  0
 14 15  1  0  0  0  0
 14 42  1  0  0  0  0
 14 43  1  0  0  0  0
 15 44  1  0  0  0  0
 15 45  1  0  0  0  0
 16 46  1  0  0  0  0
 16 47  1  0  0  0  0
 17 18  1  0  0  0  0
 17 19  1  0  0  0  0
 17 48  1  0  0  0  0
 18 20  1  0  0  0  0
 18 50  1  0  0  0  0
 18 51  1  0  0  0  0
 20 22  1  0  0  0  0
 20 53  1  0  0  0  0
 20 54  1  0  0  0  0
 22 24  1  0  0  0  0
 22 55  1  0  0  0  0
 22 56  1  0  0  0  0
 23 26  1  0  0  0  0
 23 57  1  0  0  0  0
 23 58  1  0  0  0  0
 24 25  1  0  0  0  0
 24 59  1  0  0  0  0
 24 60  1  0  0  0  0
 25 27  1  0  0  0  0
 25 61  1  0  0  0  0
 25 62  1  0  0  0  0
 26 28  2  0  0  0  0
 26 29  1  0  0  0  0
 27 32  1  0  0  0  0
 27 63  1  0  0  0  0
 27 64  1  0  0  0  0
 28 30  1  0  0  0  0
 28 65  1  0  0  0  0
 29 31  2  0  0  0  0
 29 66  1  0  0  0  0
 30 33  2  0  0  0  0
 30 67  1  0  0  0  0
 31 33  1  0  0  0  0
 31 68  1  0  0  0  0
 33 69  1  0  0  0  0
M  END
> <PUBCHEM_COMPOUND_CID>
122021

> <PUBCHEM_CONFORMER_RMSD>
1.4

> <PUBCHEM_CONFORMER_DIVERSEORDER>
1
6
94
39
16
28
81
61
109
60
63
141
131
72
122
38
69
76
37
123
36
32
140
135
118
84
10
18
77
92
115
95
96
121
138
112
108
103
25
62
73
89
117
106
21
40
31
134
71
127
87
15
3
51
128
27
85
66
137
132
100
19
113
93
22
75
98
52
56
45
2
133
99
86
91
104
8
105
124
67
47
4
33
136
30
57
53
68
70
7
54
102
130
41
64
48
125
34
78
101
126
5
82
80
107
42
120
58
35
129
139
12
79
88
65
90
97
14
50
59
44
24
116
43
49
55
9
11
46
119
26
142
110
111
74
29
114
23
83
20
17
13

> <PUBCHEM_MMFF94_PARTIAL_CHARGES>
30
1 -0.68
12 0.28
16 0.27
17 0.36
19 0.57
2 -0.57
21 0.69
23 0.44
26 -0.14
27 0.06
28 -0.15
29 -0.15
3 -0.57
30 -0.15
31 -0.15
32 0.66
33 -0.15
4 -0.65
49 0.36
5 -0.57
52 0.4
6 -0.35
65 0.15
66 0.15
67 0.15
68 0.15
69 0.15
7 -0.64
70 0.5
8 -0.42

> <PUBCHEM_EFFECTIVE_ROTOR_COUNT>
14.8

> <PUBCHEM_PHARMACOPHORE_FEATURES>
13
1 1 acceptor
1 1 donor
1 2 acceptor
1 3 acceptor
1 4 acceptor
1 5 acceptor
1 7 donor
3 18 20 22 hydrophobe
3 24 25 27 hydrophobe
3 4 5 32 anion
5 6 8 17 19 21 rings
6 26 28 29 30 31 33 rings
6 9 10 11 13 14 15 rings

> <PUBCHEM_HEAVY_ATOM_COUNT>
33

> <PUBCHEM_ATOM_DEF_STEREO_COUNT>
0

> <PUBCHEM_ATOM_UDEF_STEREO_COUNT>
2

> <PUBCHEM_BOND_DEF_STEREO_COUNT>
0

> <PUBCHEM_BOND_UDEF_STEREO_COUNT>
0

> <PUBCHEM_ISOTOPIC_ATOM_COUNT>
0

> <PUBCHEM_COMPONENT_COUNT>
1

> <PUBCHEM_CACTVS_TAUTO_COUNT>
1

> <PUBCHEM_CONFORMER_ID>
0001DCA500000001

> <PUBCHEM_MMFF94_ENERGY>
43.5101

> <PUBCHEM_FEATURE_SELFOVERLAP>
66.032

> <PUBCHEM_SHAPE_FINGERPRINT>
11720765 8 18123750017669060629
11991303 11 17385737884320452290
12373685 5 18113051659027188912
12498461 61 18263635179499638722
1361 4 18341895203926906940
13782708 43 18131347539805480143
14289585 56 16877930634060835213
14931854 50 18262499499698594207
14951699 99 9367349257923068166
15082195 135 17897455110705334260
15183329 4 18113897178325155518
16067689 391 18272366456289466735
17627616 140 18115861911188687403
19311894 1 18411419518737410257
19958102 18 18114740529170273382
21703447 108 18196655314504230864
23536364 44 18336535097399878759
23559900 14 18413388761490897304
244849 19 17559659801885574216
4440575 13 18042957685293500050
4616759 239 12678594435802478606

> <PUBCHEM_SHAPE_MULTIPOLES>
634.83
16.89
4.52
1.97
19.82
2.99
-0.16
11.24
6.52
-6.51
0.38
0.41
-0.53
-1.37

> <PUBCHEM_SHAPE_SELFOVERLAP>
1304.206

> <PUBCHEM_SHAPE_VOLUME>
363.9

> <PUBCHEM_COORDINATE_TYPE>
2
5
10

$$$$
