122077
  -OEChem-03292013323D

 42 45  0     0  0  0  0  0  0999 V2000
    4.7503    0.1713   -2.5222 Cl  0  0  0  0  0  0  0  0  0  0  0  0
    2.0472   -3.0532   -0.2755 S   0  0  0  0  0  0  0  0  0  0  0  0
   -0.2341    0.9106    0.2579 O   0  0  0  0  0  0  0  0  0  0  0  0
   -2.4058    4.0622   -0.3632 O   0  0  0  0  0  0  0  0  0  0  0  0
   -2.9205    2.6832    1.3721 O   0  0  0  0  0  0  0  0  0  0  0  0
   -3.0793    0.4944   -0.3709 N   0  0  0  0  0  0  0  0  0  0  0  0
    0.0399   -1.3799   -0.0689 N   0  0  0  0  0  0  0  0  0  0  0  0
    2.2789   -0.5063    0.1008 N   0  0  0  0  0  0  0  0  0  0  0  0
   -4.3544   -0.0100   -0.2481 C   0  0  0  0  0  0  0  0  0  0  0  0
   -4.2389   -1.2921    0.2935 C   0  0  0  0  0  0  0  0  0  0  0  0
   -2.1642   -0.4219    0.0733 C   0  0  0  0  0  0  0  0  0  0  0  0
   -2.8514   -1.5383    0.4912 C   0  0  0  0  0  0  0  0  0  0  0  0
   -2.7532    1.8049   -0.8943 C   0  0  0  0  0  0  0  0  0  0  0  0
   -5.5887    0.5646   -0.5719 C   0  0  0  0  0  0  0  0  0  0  0  0
   -5.4111   -2.0391    0.5240 C   0  0  0  0  0  0  0  0  0  0  0  0
   -0.7479   -0.2170    0.0846 C   0  0  0  0  0  0  0  0  0  0  0  0
   -6.7376   -0.1949   -0.3342 C   0  0  0  0  0  0  0  0  0  0  0  0
   -6.6527   -1.4770    0.2053 C   0  0  0  0  0  0  0  0  0  0  0  0
   -2.7121    2.8563    0.1806 C   0  0  0  0  0  0  0  0  0  0  0  0
    1.4359   -1.4786   -0.0564 C   0  0  0  0  0  0  0  0  0  0  0  0
    3.5525   -1.0382    0.0460 C   0  0  0  0  0  0  0  0  0  0  0  0
    4.7177   -0.2136    0.1881 C   0  0  0  0  0  0  0  0  0  0  0  0
    3.6285   -2.4010   -0.1518 C   0  0  0  0  0  0  0  0  0  0  0  0
    5.3419    0.3836   -0.9106 C   0  0  0  0  0  0  0  0  0  0  0  0
    5.2337   -0.0103    1.4707 C   0  0  0  0  0  0  0  0  0  0  0  0
    6.4739    1.1778   -0.7279 C   0  0  0  0  0  0  0  0  0  0  0  0
    6.3657    0.7841    1.6535 C   0  0  0  0  0  0  0  0  0  0  0  0
    6.9858    1.3780    0.5542 C   0  0  0  0  0  0  0  0  0  0  0  0
   -2.4189   -2.4400    0.9043 H   0  0  0  0  0  0  0  0  0  0  0  0
   -3.5149    2.0769   -1.6319 H   0  0  0  0  0  0  0  0  0  0  0  0
   -1.7954    1.7536   -1.4190 H   0  0  0  0  0  0  0  0  0  0  0  0
   -5.6690    1.5631   -0.9877 H   0  0  0  0  0  0  0  0  0  0  0  0
   -5.3593   -3.0395    0.9439 H   0  0  0  0  0  0  0  0  0  0  0  0
   -7.7125    0.2226   -0.5732 H   0  0  0  0  0  0  0  0  0  0  0  0
   -7.5602   -2.0483    0.3815 H   0  0  0  0  0  0  0  0  0  0  0  0
   -0.4299   -2.2699   -0.2136 H   0  0  0  0  0  0  0  0  0  0  0  0
    4.5030   -3.0323   -0.2285 H   0  0  0  0  0  0  0  0  0  0  0  0
    4.7642   -0.4640    2.3408 H   0  0  0  0  0  0  0  0  0  0  0  0
   -2.3725    4.7709    0.3143 H   0  0  0  0  0  0  0  0  0  0  0  0
    6.9694    1.6485   -1.5733 H   0  0  0  0  0  0  0  0  0  0  0  0
    6.7643    0.9403    2.6516 H   0  0  0  0  0  0  0  0  0  0  0  0
    7.8671    1.9965    0.6967 H   0  0  0  0  0  0  0  0  0  0  0  0
  1 24  1  0  0  0  0
  2 20  1  0  0  0  0
  2 23  1  0  0  0  0
  3 16  2  0  0  0  0
  4 19  1  0  0  0  0
  4 39  1  0  0  0  0
  5 19  2  0  0  0  0
  6  9  1  0  0  0  0
  6 11  1  0  0  0  0
  6 13  1  0  0  0  0
  7 16  1  0  0  0  0
  7 20  1  0  0  0  0
  7 36  1  0  0  0  0
  8 20  2  0  0  0  0
  8 21  1  0  0  0  0
  9 10  1  0  0  0  0
  9 14  2  0  0  0  0
 10 12  1  0  0  0  0
 10 15  2  0  0  0  0
 11 12  2  0  0  0  0
 11 16  1  0  0  0  0
 12 29  1  0  0  0  0
 13 19  1  0  0  0  0
 13 30  1  0  0  0  0
 13 31  1  0  0  0  0
 14 17  1  0  0  0  0
 14 32  1  0  0  0  0
 15 18  1  0  0  0  0
 15 33  1  0  0  0  0
 17 18  2  0  0  0  0
 17 34  1  0  0  0  0
 18 35  1  0  0  0  0
 21 22  1  0  0  0  0
 21 23  2  0  0  0  0
 22 24  1  0  0  0  0
 22 25  2  0  0  0  0
 23 37  1  0  0  0  0
 24 26  2  0  0  0  0
 25 27  1  0  0  0  0
 25 38  1  0  0  0  0
 26 28  1  0  0  0  0
 26 40  1  0  0  0  0
 27 28  2  0  0  0  0
 27 41  1  0  0  0  0
 28 42  1  0  0  0  0
M  END
> <PUBCHEM_COMPOUND_CID>
122077

> <PUBCHEM_CONFORMER_RMSD>
0.8

> <PUBCHEM_CONFORMER_DIVERSEORDER>
1
11
52
61
51
33
56
29
13
54
49
14
25
67
15
12
57
10
72
9
7
41
22
45
23
75
38
39
26
76
71
3
21
70
53
24
47
77
58
35
36
19
59
37
74
48
60
79
62
80
64
73
42
40
55
65
31
28
18
34
50
68
78
20
46
17
30
43
44
2
32
69
6
63
5
27
16
66
4
8

> <PUBCHEM_MMFF94_PARTIAL_CHARGES>
39
1 -0.18
11 -0.24
12 -0.15
13 0.32
14 -0.15
15 -0.15
16 0.71
17 -0.15
18 -0.15
19 0.66
2 -0.08
20 0.44
21 0.17
22 0.05
23 -0.11
24 0.18
25 -0.15
26 -0.15
27 -0.15
28 -0.15
29 0.15
3 -0.57
32 0.15
33 0.15
34 0.15
35 0.15
36 0.37
37 0.15
38 0.15
39 0.5
4 -0.65
40 0.15
41 0.15
42 0.15
5 -0.57
6 0.05
7 -0.49
8 -0.57
9 -0.15

> <PUBCHEM_EFFECTIVE_ROTOR_COUNT>
6

> <PUBCHEM_PHARMACOPHORE_FEATURES>
10
1 3 acceptor
1 4 acceptor
1 5 acceptor
1 6 cation
1 7 donor
3 4 5 19 anion
5 2 8 20 21 23 rings
5 6 9 10 11 12 rings
6 22 24 25 26 27 28 rings
6 9 10 14 15 17 18 rings

> <PUBCHEM_HEAVY_ATOM_COUNT>
28

> <PUBCHEM_ATOM_DEF_STEREO_COUNT>
0

> <PUBCHEM_ATOM_UDEF_STEREO_COUNT>
0

> <PUBCHEM_BOND_DEF_STEREO_COUNT>
0

> <PUBCHEM_BOND_UDEF_STEREO_COUNT>
0

> <PUBCHEM_ISOTOPIC_ATOM_COUNT>
0

> <PUBCHEM_COMPONENT_COUNT>
1

> <PUBCHEM_CACTVS_TAUTO_COUNT>
3

> <PUBCHEM_CONFORMER_ID>
0001DCDD00000001

> <PUBCHEM_MMFF94_ENERGY>
60.7896

> <PUBCHEM_FEATURE_SELFOVERLAP>
50.895

> <PUBCHEM_SHAPE_FINGERPRINT>
10 15 18335695092238942834
10050765 1 18194682566509187394
10595046 47 18335984181601981114
10670039 82 18336281050453468948
10835480 77 18336538331689425285
11181472 205 16271101302564589635
11405975 8 9078819780038197919
11456790 92 11242251806557298895
11719270 70 18408037416749711866
12516196 113 18341894108473044619
12596602 18 17530677723565677186
12730499 353 17918279762230206574
12788726 201 18334290942764903419
13617811 41 18335698373224834509
13914758 101 15068609479432775791
14068700 686 18341615863111488615
14190465 44 18050831240060807209
14461889 52 18261394485463734194
14840074 17 17775000198300477951
14904525 67 16630525107172990145
15338160 23 17775014432149567009
15348495 7 12035740842049800158
15419008 145 18188756268588965808
15419008 47 18131911585266525200
15927050 60 17474676521045629332
15961568 22 18334297561135718924
17844677 252 18339930290348279014
18608769 82 18342453794066782770
19377110 9 18186806859129165354
21049683 271 18339926038784219761
21781055 127 8285372719471952615
22149856 69 18339096916622149363
23559900 14 18337104666071989225
24771750 20 17827371178356294781
2747138 104 18338529632656381579
283562 15 18335419020568441307
335352 9 18409443701554804975
34797466 226 17703795838223203716
350125 39 18411981373094454017
3918712 181 18336827584926496076
4073 2 18186806889548221867
4325135 7 18187646924820855702
44249763 50 17702650198773645734
469060 322 18338531788661496577
497634 4 17417820517375370795
5104073 3 18267019462338933722
5486654 2 18411703222274880158
550186 72 18411418380302707501
59755656 215 18413386553080504739
6371009 1 18261111911143856388

> <PUBCHEM_SHAPE_MULTIPOLES>
549.4
19.46
3.06
1.25
5.41
1.56
-0.33
1.91
0.9
-2.09
0.12
2.23
0.35
0.63

> <PUBCHEM_SHAPE_SELFOVERLAP>
1196.66

> <PUBCHEM_SHAPE_VOLUME>
302.5

> <PUBCHEM_COORDINATE_TYPE>
2
5
10

$$$$
