122182600
  -OEChem-03292013293D

 53 57  0     1  0  0  0  0  0999 V2000
   -4.8585   -0.7375    0.8018 O   0  0  0  0  0  0  0  0  0  0  0  0
   -2.7841    0.0103   -0.0693 O   0  0  0  0  0  0  0  0  0  0  0  0
   -6.9846    1.6852   -0.9890 O   0  0  0  0  0  0  0  0  0  0  0  0
   -4.2877    2.2871   -0.9310 O   0  0  0  0  0  0  0  0  0  0  0  0
   -0.7258    1.5834   -0.0619 O   0  0  0  0  0  0  0  0  0  0  0  0
    2.5496   -2.6124   -0.0857 O   0  0  0  0  0  0  0  0  0  0  0  0
    4.7784   -2.1506   -0.0200 O   0  0  0  0  0  0  0  0  0  0  0  0
    1.8078    2.1544   -0.0317 N   0  0  0  0  0  0  0  0  0  0  0  0
   -6.1815    1.1626    0.0619 C   0  0  2  0  0  0  0  0  0  0  0  0
   -4.9965    2.1026    0.2941 C   0  0  1  0  0  0  0  0  0  0  0  0
   -5.6948   -0.2572   -0.2575 C   0  0  2  0  0  0  0  0  0  0  0  0
   -4.0612    1.5078    1.3474 C   0  0  0  0  0  0  0  0  0  0  0  0
   -3.6917    0.0555    1.0273 C   0  0  1  0  0  0  0  0  0  0  0  0
   -6.8494   -1.2448   -0.3978 C   0  0  0  0  0  0  0  0  0  0  0  0
   -1.8657   -0.9973   -0.0708 C   0  0  0  0  0  0  0  0  0  0  0  0
   -0.4848   -0.7648   -0.0646 C   0  0  0  0  0  0  0  0  0  0  0  0
    0.4071   -1.8345   -0.0658 C   0  0  0  0  0  0  0  0  0  0  0  0
    2.3954   -0.2044   -0.0434 C   0  0  0  0  0  0  0  0  0  0  0  0
    1.4773    0.8455   -0.0439 C   0  0  0  0  0  0  0  0  0  0  0  0
    0.0232    0.6141   -0.0571 C   0  0  0  0  0  0  0  0  0  0  0  0
    1.8683   -1.6005   -0.0610 C   0  0  0  0  0  0  0  0  0  0  0  0
    3.7881    0.1227   -0.0271 C   0  0  0  0  0  0  0  0  0  0  0  0
   -2.3514   -2.3044   -0.0779 C   0  0  0  0  0  0  0  0  0  0  0  0
   -0.0871   -3.1460   -0.0728 C   0  0  0  0  0  0  0  0  0  0  0  0
    4.1388    1.4964   -0.0144 C   0  0  0  0  0  0  0  0  0  0  0  0
   -1.4634   -3.3773   -0.0790 C   0  0  0  0  0  0  0  0  0  0  0  0
    4.8752   -0.7928   -0.0213 C   0  0  0  0  0  0  0  0  0  0  0  0
    3.1210    2.4445   -0.0177 C   0  0  0  0  0  0  0  0  0  0  0  0
    5.4817    1.9112    0.0017 C   0  0  0  0  0  0  0  0  0  0  0  0
    6.5133    0.9803    0.0063 C   0  0  0  0  0  0  0  0  0  0  0  0
    6.2099   -0.3717   -0.0049 C   0  0  0  0  0  0  0  0  0  0  0  0
    7.9333    1.4327    0.0251 C   0  0  0  0  0  0  0  0  0  0  0  0
   -6.7918    1.1361    0.9739 H   0  0  0  0  0  0  0  0  0  0  0  0
   -5.3527    3.0906    0.6065 H   0  0  0  0  0  0  0  0  0  0  0  0
   -5.1347   -0.2723   -1.2010 H   0  0  0  0  0  0  0  0  0  0  0  0
   -3.1500    2.1119    1.4219 H   0  0  0  0  0  0  0  0  0  0  0  0
   -4.5763    1.5350    2.3154 H   0  0  0  0  0  0  0  0  0  0  0  0
   -3.1988   -0.3517    1.9205 H   0  0  0  0  0  0  0  0  0  0  0  0
   -7.4309   -1.3011    0.5290 H   0  0  0  0  0  0  0  0  0  0  0  0
   -6.4662   -2.2530   -0.5899 H   0  0  0  0  0  0  0  0  0  0  0  0
   -7.5194   -0.9665   -1.2166 H   0  0  0  0  0  0  0  0  0  0  0  0
   -7.2714    2.5761   -0.7250 H   0  0  0  0  0  0  0  0  0  0  0  0
   -3.5383    2.8795   -0.7492 H   0  0  0  0  0  0  0  0  0  0  0  0
   -3.4145   -2.5195   -0.1087 H   0  0  0  0  0  0  0  0  0  0  0  0
    0.5771   -4.0062   -0.0749 H   0  0  0  0  0  0  0  0  0  0  0  0
   -1.8418   -4.3954   -0.0904 H   0  0  0  0  0  0  0  0  0  0  0  0
    3.3390    3.5094   -0.0084 H   0  0  0  0  0  0  0  0  0  0  0  0
    5.7213    2.9735    0.0132 H   0  0  0  0  0  0  0  0  0  0  0  0
    7.0242   -1.0937    0.0029 H   0  0  0  0  0  0  0  0  0  0  0  0
    8.0458    2.4065   -0.4636 H   0  0  0  0  0  0  0  0  0  0  0  0
    8.5790    0.7295   -0.5120 H   0  0  0  0  0  0  0  0  0  0  0  0
    8.2875    1.5164    1.0574 H   0  0  0  0  0  0  0  0  0  0  0  0
    5.6535   -2.5731   -0.0171 H   0  0  0  0  0  0  0  0  0  0  0  0
  1 11  1  0  0  0  0
  1 13  1  0  0  0  0
  2 13  1  0  0  0  0
  2 15  1  0  0  0  0
  3  9  1  0  0  0  0
  3 42  1  0  0  0  0
  4 10  1  0  0  0  0
  4 43  1  0  0  0  0
  5 20  2  0  0  0  0
  6 21  2  0  0  0  0
  7 27  1  0  0  0  0
  7 53  1  0  0  0  0
  8 19  2  0  0  0  0
  8 28  1  0  0  0  0
  9 10  1  0  0  0  0
  9 11  1  0  0  0  0
  9 33  1  0  0  0  0
 10 12  1  0  0  0  0
 10 34  1  0  0  0  0
 11 14  1  0  0  0  0
 11 35  1  0  0  0  0
 12 13  1  0  0  0  0
 12 36  1  0  0  0  0
 12 37  1  0  0  0  0
 13 38  1  0  0  0  0
 14 39  1  0  0  0  0
 14 40  1  0  0  0  0
 14 41  1  0  0  0  0
 15 16  1  0  0  0  0
 15 23  2  0  0  0  0
 16 17  2  0  0  0  0
 16 20  1  0  0  0  0
 17 21  1  0  0  0  0
 17 24  1  0  0  0  0
 18 19  1  0  0  0  0
 18 21  1  0  0  0  0
 18 22  2  0  0  0  0
 19 20  1  0  0  0  0
 22 25  1  0  0  0  0
 22 27  1  0  0  0  0
 23 26  1  0  0  0  0
 23 44  1  0  0  0  0
 24 26  2  0  0  0  0
 24 45  1  0  0  0  0
 25 28  2  0  0  0  0
 25 29  1  0  0  0  0
 26 46  1  0  0  0  0
 27 31  2  0  0  0  0
 28 47  1  0  0  0  0
 29 30  2  0  0  0  0
 29 48  1  0  0  0  0
 30 31  1  0  0  0  0
 30 32  1  0  0  0  0
 31 49  1  0  0  0  0
 32 50  1  0  0  0  0
 32 51  1  0  0  0  0
 32 52  1  0  0  0  0
M  END
> <PUBCHEM_COMPOUND_CID>
122182600

> <PUBCHEM_CONFORMER_RMSD>
0.8

> <PUBCHEM_CONFORMER_DIVERSEORDER>
1
12
9
20
6
24
7
10
22
16
23
21
4
15
13
17
25
11
18
14
19
8
3
2
5

> <PUBCHEM_MMFF94_PARTIAL_CHARGES>
37
1 -0.56
10 0.28
11 0.28
13 0.56
15 0.08
16 0.09
17 0.09
18 0.09
19 0.4
2 -0.36
20 0.4
21 0.4
23 -0.15
24 -0.15
26 -0.15
27 0.08
28 0.16
29 -0.15
3 -0.68
30 -0.14
31 -0.15
32 0.14
4 -0.68
42 0.4
43 0.4
44 0.15
45 0.15
46 0.15
47 0.15
48 0.15
49 0.15
5 -0.57
53 0.45
6 -0.57
7 -0.53
8 -0.62
9 0.28

> <PUBCHEM_EFFECTIVE_ROTOR_COUNT>
3.2

> <PUBCHEM_PHARMACOPHORE_FEATURES>
15
1 1 acceptor
1 2 acceptor
1 3 acceptor
1 3 donor
1 4 acceptor
1 4 donor
1 5 acceptor
1 6 acceptor
1 7 donor
1 8 acceptor
6 1 9 10 11 12 13 rings
6 15 16 17 23 24 26 rings
6 16 17 18 19 20 21 rings
6 22 25 27 29 30 31 rings
6 8 18 19 22 25 28 rings

> <PUBCHEM_HEAVY_ATOM_COUNT>
32

> <PUBCHEM_ATOM_DEF_STEREO_COUNT>
4

> <PUBCHEM_ATOM_UDEF_STEREO_COUNT>
0

> <PUBCHEM_BOND_DEF_STEREO_COUNT>
0

> <PUBCHEM_BOND_UDEF_STEREO_COUNT>
0

> <PUBCHEM_ISOTOPIC_ATOM_COUNT>
0

> <PUBCHEM_COMPONENT_COUNT>
1

> <PUBCHEM_CACTVS_TAUTO_COUNT>
12

> <PUBCHEM_CONFORMER_ID>
07485BC800000001

> <PUBCHEM_MMFF94_ENERGY>
119.1609

> <PUBCHEM_FEATURE_SELFOVERLAP>
76.268

> <PUBCHEM_SHAPE_FINGERPRINT>
10 15 18259988188489572352
10050765 1 18411138039018203366
100830 39 18410293640099402945
10411042 1 17618223910488239462
10906281 52 18270697419297038894
11007060 377 18410299141725675915
11136131 41 18189327983769129418
11578080 2 16986574602362381954
12107183 9 18336820897804659338
12236239 1 17988925557082443211
12422481 6 17603871087129009804
12788726 201 17632585903015045544
12838862 33 18339626911465607216
13140716 1 18266462190674980146
13402501 40 18408041792835673989
13785724 45 17834394519559503434
13811026 1 18413109459640751694
14020679 6 17749115534066420602
14394314 77 18272660021636103897
14790565 3 18339366262114979600
15021287 119 17458346389782260148
15131766 46 16156821611173473292
15142383 8 17531242851431747868
15183329 4 18411702080055925896
1577012 14 18060144202194615633
15927050 60 18410291428097456314
16087824 20 18409731729291541524
18608769 82 18340208617657521203
18681886 176 18340481253095411433
19611394 137 17824556394719631595
20028762 73 18201719496745964638
20511986 3 18201146733171547130
20642791 178 18043260239625904596
20721686 56 18408045099907614666
21033648 144 18261107431998868581
21033648 29 18338223946838500296
21236236 1 18341331192858490111
21279426 13 18341620291512745782
21298829 104 18342462495786984937
21421861 104 18040985212835032098
21792934 111 18338785725220047392
21859007 373 17968649411325304093
23559900 14 18200028577470690432
23569917 315 18412270553264365783
23576562 1 18044389446267493900
3178227 256 18336559269475677961
335352 9 18411139147804444494
338550 245 18261961837995419292
350125 39 18410291406479168597
3633792 109 18341612556398185569
3680242 22 18335137541143964674
38695281 34 18202002114041525398
4017518 198 17703517640665932190
4073 2 18041565853262912266
4144715 1 18335153011163172674
5104073 3 18261965050662566779
59755656 215 18412831270371791572
59755656 520 18336822082835532367
6009941 240 17530969111194947360
6086070 43 17274817012817180594
6328613 192 18337397140502344260
6371009 1 18412824677154322249
7226269 152 18060424611914110872

> <PUBCHEM_SHAPE_MULTIPOLES>
612.48
18.36
3.28
0.76
0.72
1.53
-0.08
-9.26
0.92
-0.65
0.16
-0.76
-0.19
0.07

> <PUBCHEM_SHAPE_SELFOVERLAP>
1376.636

> <PUBCHEM_SHAPE_VOLUME>
318.7

> <PUBCHEM_COORDINATE_TYPE>
2
5
10

$$$$
