122171
  -OEChem-03292013323D

 46 48  0     1  0  0  0  0  0999 V2000
   -1.5868    1.6867   -0.6431 O   0  0  0  0  0  0  0  0  0  0  0  0
   -3.7631   -0.2754    1.5646 O   0  0  0  0  0  0  0  0  0  0  0  0
   -5.7227    1.1950    0.2486 O   0  0  0  0  0  0  0  0  0  0  0  0
   -5.5141    0.0466   -2.2931 O   0  0  0  0  0  0  0  0  0  0  0  0
    4.5878    1.7164   -1.0525 O   0  0  0  0  0  0  0  0  0  0  0  0
    1.4015    4.5630    0.5773 O   0  5  0  0  0  0  0  0  0  0  0  0
    0.3981    0.1702    0.6737 N   0  0  0  0  0  0  0  0  0  0  0  0
    2.9420   -0.3224   -0.4857 N   0  0  0  0  0  0  0  0  0  0  0  0
    1.0178    2.4844    0.5823 N   0  0  0  0  0  0  0  0  0  0  0  0
    3.0964    3.2829   -0.2703 N   0  0  0  0  0  0  0  0  0  0  0  0
   -1.9684    0.5760    0.1695 C   0  0  1  0  0  0  0  0  0  0  0  0
   -0.9169    0.3926    1.2704 C   0  0  0  0  0  0  0  0  0  0  0  0
   -3.3821    0.8203    0.7339 C   0  0  1  0  0  0  0  0  0  0  0  0
   -4.4469    0.9993   -0.3649 C   0  0  1  0  0  0  0  0  0  0  0  0
    0.7936   -1.1573    0.3951 C   0  0  0  0  0  0  0  0  0  0  0  0
    1.2533    1.2219    0.3798 C   0  0  0  0  0  0  0  0  0  0  0  0
    2.0639   -1.3773   -0.1816 C   0  0  0  0  0  0  0  0  0  0  0  0
   -0.0120   -2.2798    0.6620 C   0  0  0  0  0  0  0  0  0  0  0  0
   -4.5358   -0.2129   -1.2910 C   0  0  0  0  0  0  0  0  0  0  0  0
    2.5770    0.8901   -0.2295 C   0  0  0  0  0  0  0  0  0  0  0  0
    0.4246   -3.5742    0.3680 C   0  0  0  0  0  0  0  0  0  0  0  0
    1.6761   -3.7755   -0.1992 C   0  0  0  0  0  0  0  0  0  0  0  0
    2.4916   -2.6816   -0.4726 C   0  0  0  0  0  0  0  0  0  0  0  0
   -0.4742   -4.7282    0.6726 C   0  0  0  0  0  0  0  0  0  0  0  0
    3.5092    2.0086   -0.5526 C   0  0  0  0  0  0  0  0  0  0  0  0
    2.1659   -5.1483   -0.5229 C   0  0  0  0  0  0  0  0  0  0  0  0
    1.9244    3.4790    0.2612 C   0  0  0  0  0  0  0  0  0  0  0  0
   -1.9520   -0.3233   -0.4544 H   0  0  0  0  0  0  0  0  0  0  0  0
   -0.8772    1.3166    1.8637 H   0  0  0  0  0  0  0  0  0  0  0  0
   -1.1923   -0.3749    2.0003 H   0  0  0  0  0  0  0  0  0  0  0  0
   -3.3769    1.7177    1.3652 H   0  0  0  0  0  0  0  0  0  0  0  0
   -4.2465    1.8997   -0.9562 H   0  0  0  0  0  0  0  0  0  0  0  0
   -1.0052   -2.1733    1.0873 H   0  0  0  0  0  0  0  0  0  0  0  0
   -3.5969   -0.4303   -1.8045 H   0  0  0  0  0  0  0  0  0  0  0  0
   -4.8623   -1.1062   -0.7498 H   0  0  0  0  0  0  0  0  0  0  0  0
    3.4739   -2.8305   -0.9171 H   0  0  0  0  0  0  0  0  0  0  0  0
   -2.0980    1.6399   -1.4682 H   0  0  0  0  0  0  0  0  0  0  0  0
   -4.6550   -0.0883    1.9039 H   0  0  0  0  0  0  0  0  0  0  0  0
   -5.6555    1.9801    0.8185 H   0  0  0  0  0  0  0  0  0  0  0  0
   -0.7219   -5.2755   -0.2427 H   0  0  0  0  0  0  0  0  0  0  0  0
    0.0009   -5.4088    1.3866 H   0  0  0  0  0  0  0  0  0  0  0  0
   -1.4202   -4.4029    1.1193 H   0  0  0  0  0  0  0  0  0  0  0  0
    3.1681   -5.1283   -0.9652 H   0  0  0  0  0  0  0  0  0  0  0  0
    2.2255   -5.7603    0.3829 H   0  0  0  0  0  0  0  0  0  0  0  0
    1.5038   -5.6335   -1.2474 H   0  0  0  0  0  0  0  0  0  0  0  0
   -5.2162    0.8216   -2.7995 H   0  0  0  0  0  0  0  0  0  0  0  0
  1 11  1  0  0  0  0
  1 37  1  0  0  0  0
  2 13  1  0  0  0  0
  2 38  1  0  0  0  0
  3 14  1  0  0  0  0
  3 39  1  0  0  0  0
  4 19  1  0  0  0  0
  4 46  1  0  0  0  0
  5 25  2  0  0  0  0
  6 27  1  0  0  0  0
  7 12  1  0  0  0  0
  7 15  1  0  0  0  0
  7 16  1  0  0  0  0
  8 17  1  0  0  0  0
  8 20  2  0  0  0  0
  9 16  2  0  0  0  0
  9 27  1  0  0  0  0
 10 25  1  0  0  0  0
 10 27  2  0  0  0  0
 11 12  1  0  0  0  0
 11 13  1  0  0  0  0
 11 28  1  0  0  0  0
 12 29  1  0  0  0  0
 12 30  1  0  0  0  0
 13 14  1  0  0  0  0
 13 31  1  0  0  0  0
 14 19  1  0  0  0  0
 14 32  1  0  0  0  0
 15 17  2  0  0  0  0
 15 18  1  0  0  0  0
 16 20  1  0  0  0  0
 17 23  1  0  0  0  0
 18 21  2  0  0  0  0
 18 33  1  0  0  0  0
 19 34  1  0  0  0  0
 19 35  1  0  0  0  0
 20 25  1  0  0  0  0
 21 22  1  0  0  0  0
 21 24  1  0  0  0  0
 22 23  2  0  0  0  0
 22 26  1  0  0  0  0
 23 36  1  0  0  0  0
 24 40  1  0  0  0  0
 24 41  1  0  0  0  0
 24 42  1  0  0  0  0
 26 43  1  0  0  0  0
 26 44  1  0  0  0  0
 26 45  1  0  0  0  0
M  CHG  1   6  -1
M  END
> <PUBCHEM_COMPOUND_CID>
122171

> <PUBCHEM_CONFORMER_RMSD>
0.8

> <PUBCHEM_CONFORMER_DIVERSEORDER>
1
37
17
12
14
11
39
16
47
15
38
44
31
8
45
29
26
13
42
46
9
41
34
32
36
25
33
6
3
18
35
43
22
48
20
23
28
24
4
30
40
10
27
5
21
49
7
50
19
2

> <PUBCHEM_MMFF94_PARTIAL_CHARGES>
33
1 -0.68
10 -0.66
11 0.28
12 0.37
13 0.28
14 0.28
15 0.1
16 0.5
17 0.18
18 -0.15
19 0.28
2 -0.68
20 0.45
21 -0.14
22 -0.14
23 -0.15
24 0.14
25 0.78
26 0.14
27 0.52
3 -0.68
33 0.15
36 0.15
37 0.4
38 0.4
39 0.4
4 -0.68
46 0.4
5 -0.57
6 -0.86
7 -0.52
8 -0.63
9 -0.66

> <PUBCHEM_EFFECTIVE_ROTOR_COUNT>
5

> <PUBCHEM_PHARMACOPHORE_FEATURES>
15
1 1 acceptor
1 1 donor
1 10 donor
1 2 acceptor
1 2 donor
1 3 acceptor
1 3 donor
1 4 acceptor
1 4 donor
1 5 acceptor
1 8 acceptor
3 7 9 16 cation
6 15 17 18 21 22 23 rings
6 7 8 15 16 17 20 rings
6 9 10 16 20 25 27 rings

> <PUBCHEM_HEAVY_ATOM_COUNT>
27

> <PUBCHEM_ATOM_DEF_STEREO_COUNT>
0

> <PUBCHEM_ATOM_UDEF_STEREO_COUNT>
3

> <PUBCHEM_BOND_DEF_STEREO_COUNT>
0

> <PUBCHEM_BOND_UDEF_STEREO_COUNT>
0

> <PUBCHEM_ISOTOPIC_ATOM_COUNT>
0

> <PUBCHEM_COMPONENT_COUNT>
1

> <PUBCHEM_CACTVS_TAUTO_COUNT>
1

> <PUBCHEM_CONFORMER_ID>
0001DD3B00000001

> <PUBCHEM_MMFF94_ENERGY>
79.6701

> <PUBCHEM_FEATURE_SELFOVERLAP>
76.211

> <PUBCHEM_SHAPE_FINGERPRINT>
10411042 1 17833839261332950163
10693767 8 18059019371914199166
10930396 42 18192967398281584554
1100329 8 18410296917634593370
11014199 57 17762906458957299483
11582403 64 17677872699561222227
12107183 9 17695075392798259809
12553582 1 17688322183162686467
12730499 353 18335712662828792425
12788726 201 17037245758657770520
13004483 165 17112123046017726123
13009979 54 17485934029881359531
13140716 1 18053108612331117720
13540713 4 17624711433245947840
13692114 37 18053085500737421315
138480 1 18122068606686709850
13911987 19 18191613916014255494
15131766 46 14649595356412146038
15842332 3 17917154884377445849
15950262 2 15576153994243343950
16087824 20 16607737432314781464
16728300 4 17461690963079001728
17138139 8 17629175372854728839
1813 80 17770225946782205079
19591789 44 18122920977343210914
20645477 70 18334014952355921315
21133410 171 16527183990166718219
21452121 199 17975964380696264658
22033318 11 17482582706352115057
2255824 54 18412539882188535915
23559900 14 18191585246938924739
238 59 18408597072177555467
350125 39 17691145037849364064
4409770 3 17402315470235057190
463206 1 18192999210345040427
484989 97 18193285301926070234
59025328 239 17407063896326099807
5969126 39 17690840060822815158
6443956 14 18120378652871949876
7471813 234 18051130289753120278
81228 2 17108753588244415968
9777508 108 17836369615555640768

> <PUBCHEM_SHAPE_MULTIPOLES>
500.51
8.33
6.51
1.16
14.55
3.56
-0.26
-2.36
-3.64
-8.43
0.38
1.33
0.11
-0.19

> <PUBCHEM_SHAPE_SELFOVERLAP>
1077.967

> <PUBCHEM_SHAPE_VOLUME>
272.7

> <PUBCHEM_COORDINATE_TYPE>
2
5
10

$$$$
