122177428
  -OEChem-03292013293D

 50 54  0     0  0  0  0  0  0999 V2000
   -1.1298    3.2767    0.2528 O   0  0  0  0  0  0  0  0  0  0  0  0
    2.1864   -2.3810    0.3631 O   0  0  0  0  0  0  0  0  0  0  0  0
   -3.5320    2.5062    0.3139 O   0  0  0  0  0  0  0  0  0  0  0  0
   -2.0988   -2.6025   -0.3092 O   0  0  0  0  0  0  0  0  0  0  0  0
   -6.0183    1.8890    0.3949 O   0  0  0  0  0  0  0  0  0  0  0  0
   -7.1308   -2.6965   -0.0240 O   0  0  0  0  0  0  0  0  0  0  0  0
    6.8777   -0.3440    1.7063 O   0  0  0  0  0  0  0  0  0  0  0  0
    0.5563    1.6270   -0.0447 C   0  0  0  0  0  0  0  0  0  0  0  0
    1.6010    2.7157    0.0245 C   0  0  0  0  0  0  0  0  0  0  0  0
    0.9611    0.2791   -0.1809 C   0  0  0  0  0  0  0  0  0  0  0  0
    2.8013    2.3932   -0.8654 C   0  0  0  0  0  0  0  0  0  0  0  0
    2.4080   -0.0356   -0.2844 C   0  0  0  0  0  0  0  0  0  0  0  0
    3.3189    0.9991   -0.6047 C   0  0  0  0  0  0  0  0  0  0  0  0
   -0.8005    1.9616    0.0826 C   0  0  0  0  0  0  0  0  0  0  0  0
   -1.7787    0.9657    0.0437 C   0  0  0  0  0  0  0  0  0  0  0  0
   -1.4023   -0.3652   -0.1158 C   0  0  0  0  0  0  0  0  0  0  0  0
   -0.0445   -0.7041   -0.2275 C   0  0  0  0  0  0  0  0  0  0  0  0
    4.6901    0.7332   -0.7367 C   0  0  0  0  0  0  0  0  0  0  0  0
    2.9338   -1.3210   -0.0638 C   0  0  0  0  0  0  0  0  0  0  0  0
    5.1798   -0.5513   -0.5223 C   0  0  0  0  0  0  0  0  0  0  0  0
   -3.2035    1.3352    0.1695 C   0  0  0  0  0  0  0  0  0  0  0  0
   -2.4261   -1.4307   -0.1675 C   0  0  0  0  0  0  0  0  0  0  0  0
    4.3036   -1.5755   -0.1815 C   0  0  0  0  0  0  0  0  0  0  0  0
   -4.2268    0.2717    0.1181 C   0  0  0  0  0  0  0  0  0  0  0  0
   -3.8516   -1.0633   -0.0451 C   0  0  0  0  0  0  0  0  0  0  0  0
    6.6393   -0.8265   -0.6520 C   0  0  0  0  0  0  0  0  0  0  0  0
   -5.5810    0.6075    0.2339 C   0  0  0  0  0  0  0  0  0  0  0  0
   -4.8308   -2.0627   -0.0929 C   0  0  0  0  0  0  0  0  0  0  0  0
   -6.1792   -1.7239    0.0224 C   0  0  0  0  0  0  0  0  0  0  0  0
   -6.5535   -0.3916    0.1858 C   0  0  0  0  0  0  0  0  0  0  0  0
    7.4196   -0.6423    0.6426 C   0  0  0  0  0  0  0  0  0  0  0  0
    8.9112   -0.8433    0.5647 C   0  0  0  0  0  0  0  0  0  0  0  0
    1.1989    3.6836   -0.2947 H   0  0  0  0  0  0  0  0  0  0  0  0
    1.9195    2.8177    1.0699 H   0  0  0  0  0  0  0  0  0  0  0  0
    3.5862    3.1366   -0.6830 H   0  0  0  0  0  0  0  0  0  0  0  0
    2.5196    2.4614   -1.9240 H   0  0  0  0  0  0  0  0  0  0  0  0
    0.1965   -1.7455   -0.4060 H   0  0  0  0  0  0  0  0  0  0  0  0
    5.3718    1.5377   -1.0031 H   0  0  0  0  0  0  0  0  0  0  0  0
    4.6958   -2.5731    0.0054 H   0  0  0  0  0  0  0  0  0  0  0  0
    6.7989   -1.8543   -0.9998 H   0  0  0  0  0  0  0  0  0  0  0  0
    7.0772   -0.1646   -1.4091 H   0  0  0  0  0  0  0  0  0  0  0  0
   -2.0537    3.3716    0.5270 H   0  0  0  0  0  0  0  0  0  0  0  0
   -4.5513   -3.1058   -0.2197 H   0  0  0  0  0  0  0  0  0  0  0  0
    2.7458   -3.1700    0.4613 H   0  0  0  0  0  0  0  0  0  0  0  0
   -7.6058   -0.1326    0.2754 H   0  0  0  0  0  0  0  0  0  0  0  0
    9.3419   -0.1185   -0.1303 H   0  0  0  0  0  0  0  0  0  0  0  0
    9.1257   -1.8612    0.2300 H   0  0  0  0  0  0  0  0  0  0  0  0
    9.3562   -0.6947    1.5524 H   0  0  0  0  0  0  0  0  0  0  0  0
   -5.2725    2.5068    0.4160 H   0  0  0  0  0  0  0  0  0  0  0  0
   -6.6962   -3.5587   -0.1410 H   0  0  0  0  0  0  0  0  0  0  0  0
  1 14  1  0  0  0  0
  1 42  1  0  0  0  0
  2 19  1  0  0  0  0
  2 44  1  0  0  0  0
  3 21  2  0  0  0  0
  4 22  2  0  0  0  0
  5 27  1  0  0  0  0
  5 49  1  0  0  0  0
  6 29  1  0  0  0  0
  6 50  1  0  0  0  0
  7 31  2  0  0  0  0
  8  9  1  0  0  0  0
  8 10  1  0  0  0  0
  8 14  2  0  0  0  0
  9 11  1  0  0  0  0
  9 33  1  0  0  0  0
  9 34  1  0  0  0  0
 10 12  1  0  0  0  0
 10 17  2  0  0  0  0
 11 13  1  0  0  0  0
 11 35  1  0  0  0  0
 11 36  1  0  0  0  0
 12 13  2  0  0  0  0
 12 19  1  0  0  0  0
 13 18  1  0  0  0  0
 14 15  1  0  0  0  0
 15 16  2  0  0  0  0
 15 21  1  0  0  0  0
 16 17  1  0  0  0  0
 16 22  1  0  0  0  0
 17 37  1  0  0  0  0
 18 20  2  0  0  0  0
 18 38  1  0  0  0  0
 19 23  2  0  0  0  0
 20 23  1  0  0  0  0
 20 26  1  0  0  0  0
 21 24  1  0  0  0  0
 22 25  1  0  0  0  0
 23 39  1  0  0  0  0
 24 25  2  0  0  0  0
 24 27  1  0  0  0  0
 25 28  1  0  0  0  0
 26 31  1  0  0  0  0
 26 40  1  0  0  0  0
 26 41  1  0  0  0  0
 27 30  2  0  0  0  0
 28 29  2  0  0  0  0
 28 43  1  0  0  0  0
 29 30  1  0  0  0  0
 30 45  1  0  0  0  0
 31 32  1  0  0  0  0
 32 46  1  0  0  0  0
 32 47  1  0  0  0  0
 32 48  1  0  0  0  0
M  END
> <PUBCHEM_COMPOUND_CID>
122177428

> <PUBCHEM_CONFORMER_RMSD>
0.8

> <PUBCHEM_CONFORMER_DIVERSEORDER>
1
4
3
2

> <PUBCHEM_MMFF94_PARTIAL_CHARGES>
39
1 -0.53
11 0.14
13 -0.14
14 0.08
15 0.09
16 0.09
17 -0.15
18 -0.15
19 0.08
2 -0.53
20 -0.14
21 0.4
22 0.4
23 -0.15
24 0.09
25 0.09
26 0.2
27 0.08
28 -0.15
29 0.08
3 -0.57
30 -0.15
31 0.45
32 0.06
37 0.15
38 0.15
39 0.15
4 -0.57
42 0.45
43 0.15
44 0.45
45 0.15
49 0.45
5 -0.53
50 0.45
6 -0.53
7 -0.57
8 -0.14
9 0.14

> <PUBCHEM_EFFECTIVE_ROTOR_COUNT>
2.4

> <PUBCHEM_PHARMACOPHORE_FEATURES>
12
1 1 donor
1 2 donor
1 3 acceptor
1 4 acceptor
1 5 donor
1 6 donor
1 7 acceptor
6 12 13 18 19 20 23 rings
6 15 16 21 22 24 25 rings
6 24 25 27 28 29 30 rings
6 8 10 14 15 16 17 rings
6 8 9 10 11 12 13 rings

> <PUBCHEM_HEAVY_ATOM_COUNT>
32

> <PUBCHEM_ATOM_DEF_STEREO_COUNT>
0

> <PUBCHEM_ATOM_UDEF_STEREO_COUNT>
0

> <PUBCHEM_BOND_DEF_STEREO_COUNT>
0

> <PUBCHEM_BOND_UDEF_STEREO_COUNT>
0

> <PUBCHEM_ISOTOPIC_ATOM_COUNT>
0

> <PUBCHEM_COMPONENT_COUNT>
1

> <PUBCHEM_CACTVS_TAUTO_COUNT>
994

> <PUBCHEM_CONFORMER_ID>
0748479400000001

> <PUBCHEM_MMFF94_ENERGY>
102.2314

> <PUBCHEM_FEATURE_SELFOVERLAP>
60.984

> <PUBCHEM_SHAPE_FINGERPRINT>
10 15 18131625704401622954
10050765 1 18122626042561622878
10299344 5 18186804682113794710
10939801 23 18340766044493249180
11135926 11 18334571300618054727
11456790 92 18271823345511646081
11578080 2 16843590819734735170
11963148 33 18409443670499432558
12166972 35 17894916260298087388
12236239 1 18187369839073614941
12516196 113 18272652342096407856
12838862 33 18338782438573078956
13383668 362 18055343889363040608
13782708 43 17603303773430890363
13811026 1 18413666915724093253
13862211 1 18409732875994197988
14068700 675 18408325492911698068
14251764 18 18187367640857344398
14394314 77 18338798918442196065
14849402 71 18338518668264751120
15021287 119 17676497133221904517
15183329 4 18408326583526838383
15196674 1 18411704318261323205
15419008 47 17775279453048440568
15849732 13 17988924470577173574
15927050 60 17694221475826580724
16087824 20 18265897956933331157
18608769 82 18341891896533271218
18681886 176 18412823612202392746
20028762 73 18413110563452881582
20721686 56 18336266859227303905
21033648 29 17559936819562100098
21130935 74 18270963424129207658
21236236 1 18413394229147034925
21267235 1 18411145748435974687
21792934 111 18343578569140625913
22002106 203 18057874939392772631
23522609 53 18047789024161842421
23559900 14 18413103974545456657
3004659 81 18259703423510013820
335352 9 18411700968455929437
3383291 50 18409168848284515627
34797466 226 17346324821699493004
350125 39 18410295808862929629
397830 11 17774991445447083952
4073 2 17895765117602871962
439807 62 18261396689187605627
4461854 278 18059300958233797670
5104073 3 18271253828047157881
559249 180 18409730660144384213
59682541 35 18202275927840311754
59755656 520 16805326604018395579
6138700 20 18409451388654987183

> <PUBCHEM_SHAPE_MULTIPOLES>
617.46
20.1
2.95
0.79
14.79
0.98
0.08
-10.38
3.44
-2.56
-0.02
0.99
0.02
-0.94

> <PUBCHEM_SHAPE_SELFOVERLAP>
1404.442

> <PUBCHEM_SHAPE_VOLUME>
318.7

> <PUBCHEM_COORDINATE_TYPE>
2
5
10

$$$$
