122136
  -OEChem-03292013323D

 26 26  0     0  0  0  0  0  0999 V2000
   -2.5539    1.1272    0.1949 S   0  0  0  0  0  0  0  0  0  0  0  0
   -1.7836    0.1749   -0.9014 O   0  0  0  0  0  0  0  0  0  0  0  0
   -1.8304   -2.3590    0.2388 O   0  0  0  0  0  0  0  0  0  0  0  0
   -3.9372    1.5525   -0.5604 O   0  0  0  0  0  0  0  0  0  0  0  0
   -2.9061    0.3256    1.3525 O   0  0  0  0  0  0  0  0  0  0  0  0
   -1.7636    2.3330    0.3623 O   0  0  0  0  0  0  0  0  0  0  0  0
    4.7682    1.8223    0.3524 N   0  0  0  0  0  0  0  0  0  0  0  0
    3.0869    0.2791   -0.6007 C   0  0  0  0  0  0  0  0  0  0  0  0
    1.7859   -0.4155   -0.3801 C   0  0  0  0  0  0  0  0  0  0  0  0
    0.5924    0.2070   -0.7460 C   0  0  0  0  0  0  0  0  0  0  0  0
    3.5064    1.1338    0.6024 C   0  0  0  0  0  0  0  0  0  0  0  0
    1.7624   -1.6873    0.1924 C   0  0  0  0  0  0  0  0  0  0  0  0
   -0.6247   -0.4425   -0.5393 C   0  0  0  0  0  0  0  0  0  0  0  0
   -0.6481   -1.7144    0.0332 C   0  0  0  0  0  0  0  0  0  0  0  0
    0.5454   -2.3367    0.3991 C   0  0  0  0  0  0  0  0  0  0  0  0
    3.8662   -0.4625   -0.8225 H   0  0  0  0  0  0  0  0  0  0  0  0
    3.0181    0.9065   -1.4997 H   0  0  0  0  0  0  0  0  0  0  0  0
    0.6054    1.1981   -1.1929 H   0  0  0  0  0  0  0  0  0  0  0  0
    3.6142    0.5082    1.4958 H   0  0  0  0  0  0  0  0  0  0  0  0
    2.7359    1.8799    0.8279 H   0  0  0  0  0  0  0  0  0  0  0  0
    2.6853   -2.1819    0.4835 H   0  0  0  0  0  0  0  0  0  0  0  0
    0.5415   -3.3272    0.8464 H   0  0  0  0  0  0  0  0  0  0  0  0
    4.6789    2.4055   -0.4789 H   0  0  0  0  0  0  0  0  0  0  0  0
    5.4923    1.1380    0.1360 H   0  0  0  0  0  0  0  0  0  0  0  0
   -1.6526   -3.2254    0.6434 H   0  0  0  0  0  0  0  0  0  0  0  0
   -3.8313    1.8591   -1.4915 H   0  0  0  0  0  0  0  0  0  0  0  0
  1  2  1  0  0  0  0
  1  4  1  0  0  0  0
  1  5  2  0  0  0  0
  1  6  2  0  0  0  0
  2 13  1  0  0  0  0
  3 14  1  0  0  0  0
  3 25  1  0  0  0  0
  4 26  1  0  0  0  0
  7 11  1  0  0  0  0
  7 23  1  0  0  0  0
  7 24  1  0  0  0  0
  8  9  1  0  0  0  0
  8 11  1  0  0  0  0
  8 16  1  0  0  0  0
  8 17  1  0  0  0  0
  9 10  2  0  0  0  0
  9 12  1  0  0  0  0
 10 13  1  0  0  0  0
 10 18  1  0  0  0  0
 11 19  1  0  0  0  0
 11 20  1  0  0  0  0
 12 15  2  0  0  0  0
 12 21  1  0  0  0  0
 13 14  2  0  0  0  0
 14 15  1  0  0  0  0
 15 22  1  0  0  0  0
M  END
> <PUBCHEM_COMPOUND_CID>
122136

> <PUBCHEM_CONFORMER_RMSD>
0.6

> <PUBCHEM_CONFORMER_DIVERSEORDER>
1
24
27
28
5
20
17
15
12
18
16
23
7
26
21
13
9
14
2
8
3
25
11
6
4
10
19
22

> <PUBCHEM_MMFF94_PARTIAL_CHARGES>
22
1 1.67
10 -0.15
11 0.27
12 -0.15
13 0.08
14 0.08
15 -0.15
18 0.15
2 -0.27
21 0.15
22 0.15
23 0.36
24 0.36
25 0.45
26 0.5
3 -0.53
4 -0.68
5 -0.65
6 -0.65
7 -0.99
8 0.14
9 -0.14

> <PUBCHEM_EFFECTIVE_ROTOR_COUNT>
4

> <PUBCHEM_PHARMACOPHORE_FEATURES>
8
1 3 donor
1 4 acceptor
1 5 acceptor
1 6 acceptor
1 7 cation
1 7 donor
4 1 4 5 6 anion
6 9 10 12 13 14 15 rings

> <PUBCHEM_HEAVY_ATOM_COUNT>
15

> <PUBCHEM_ATOM_DEF_STEREO_COUNT>
0

> <PUBCHEM_ATOM_UDEF_STEREO_COUNT>
0

> <PUBCHEM_BOND_DEF_STEREO_COUNT>
0

> <PUBCHEM_BOND_UDEF_STEREO_COUNT>
0

> <PUBCHEM_ISOTOPIC_ATOM_COUNT>
0

> <PUBCHEM_COMPONENT_COUNT>
1

> <PUBCHEM_CACTVS_TAUTO_COUNT>
3

> <PUBCHEM_CONFORMER_ID>
0001DD1800000001

> <PUBCHEM_MMFF94_ENERGY>
26.2074

> <PUBCHEM_FEATURE_SELFOVERLAP>
40.653

> <PUBCHEM_SHAPE_FINGERPRINT>
122479 349 18341611546848535108
12346645 44 18410290320147659934
12382932 28 18408040723472784498
12390115 104 18268165308406227056
13140716 1 17396426477752201338
13380535 21 18336558148378768294
13764800 53 18410017662416996354
14123255 52 18410290285561419028
14897335 6 18410005524829082646
15775835 57 18200875076236951833
16945 1 18189347937822935918
1741750 31 18413388748146428938
18186145 218 18201449042860407420
204376 136 18408324393083052268
20510252 161 18267587003780984610
20671657 1 18265615368921339030
21524375 3 18342735170190511414
21665062 11 16468977969840874097
23402539 116 17983853664193713558
23419403 2 17400333033843451231
23500284 214 18343026618255415168
23557571 272 17915467305321190150
2748010 2 18188502258883549551
305870 269 18335698304547256850
6333272 397 18410293596875637785
7364860 26 18197778787237644846
81228 2 18045507670772547390

> <PUBCHEM_SHAPE_MULTIPOLES>
278.21
6.38
2.56
0.9
2.93
0.64
-0.05
-5.38
-0.8
-0.28
-0.47
-0.2
-0.09
0.3

> <PUBCHEM_SHAPE_SELFOVERLAP>
560.886

> <PUBCHEM_SHAPE_VOLUME>
163.6

> <PUBCHEM_COORDINATE_TYPE>
2
5
10

$$$$
