122177640
  -OEChem-03292013293D

 43 44  0     0  0  0  0  0  0999 V2000
    0.4920    0.4539   -0.8107 O   0  0  0  0  0  0  0  0  0  0  0  0
    0.8532   -2.2216   -0.2300 O   0  0  0  0  0  0  0  0  0  0  0  0
   -3.7304   -2.6190    0.9702 O   0  0  0  0  0  0  0  0  0  0  0  0
    5.1823   -0.1808    0.0840 O   0  0  0  0  0  0  0  0  0  0  0  0
   -1.6984    1.9640   -1.8289 O   0  0  0  0  0  0  0  0  0  0  0  0
   -2.3818    2.5461    0.2907 O   0  0  0  0  0  0  0  0  0  0  0  0
    2.6785    0.3961   -2.7088 O   0  0  0  0  0  0  0  0  0  0  0  0
   -4.4808    0.5963    1.5072 O   0  5  0  0  0  0  0  0  0  0  0  0
   -4.9772    0.0759   -0.5669 O   0  0  0  0  0  0  0  0  0  0  0  0
    3.4228   -1.6085   -1.9380 O   0  0  0  0  0  0  0  0  0  0  0  0
   -4.1829    0.0908    0.4011 N   0  3  0  0  0  0  0  0  0  0  0  0
   -0.5613   -0.2933   -0.3706 C   0  0  0  0  0  0  0  0  0  0  0  0
   -1.8212    0.2840   -0.2124 C   0  0  0  0  0  0  0  0  0  0  0  0
    1.5915    0.5638    0.0216 C   0  0  0  0  0  0  0  0  0  0  0  0
   -0.3715   -1.6442   -0.0788 C   0  0  0  0  0  0  0  0  0  0  0  0
   -2.8913   -0.4894    0.2376 C   0  0  0  0  0  0  0  0  0  0  0  0
    2.8494    0.1230   -0.3896 C   0  0  0  0  0  0  0  0  0  0  0  0
    2.5242    1.2470    2.1431 C   0  0  0  0  0  0  0  0  0  0  0  0
    1.4289    1.1259    1.2879 C   0  0  0  0  0  0  0  0  0  0  0  0
   -2.7015   -1.8402    0.5294 C   0  0  0  0  0  0  0  0  0  0  0  0
   -1.4416   -2.4176    0.3710 C   0  0  0  0  0  0  0  0  0  0  0  0
    3.9447    0.2440    0.4657 C   0  0  0  0  0  0  0  0  0  0  0  0
    3.7821    0.8059    1.7321 C   0  0  0  0  0  0  0  0  0  0  0  0
   -2.0024    1.6996   -0.5239 C   0  0  0  0  0  0  0  0  0  0  0  0
    2.3507    1.8479    3.4969 C   0  0  0  0  0  0  0  0  0  0  0  0
    3.0192   -0.4652   -1.7133 C   0  0  0  0  0  0  0  0  0  0  0  0
    0.9600   -3.6073    0.0905 C   0  0  0  0  0  0  0  0  0  0  0  0
   -1.8371    3.3230   -2.2571 C   0  0  0  0  0  0  0  0  0  0  0  0
    0.4539    1.4833    1.6100 H   0  0  0  0  0  0  0  0  0  0  0  0
   -1.3521   -3.4713    0.6124 H   0  0  0  0  0  0  0  0  0  0  0  0
    4.6398    0.8992    2.3938 H   0  0  0  0  0  0  0  0  0  0  0  0
    2.4786    2.9336    3.4451 H   0  0  0  0  0  0  0  0  0  0  0  0
    1.3561    1.6296    3.9004 H   0  0  0  0  0  0  0  0  0  0  0  0
    3.0798    1.4427    4.2069 H   0  0  0  0  0  0  0  0  0  0  0  0
   -3.4091   -3.5246    1.1193 H   0  0  0  0  0  0  0  0  0  0  0  0
    2.0008   -3.8980   -0.0867 H   0  0  0  0  0  0  0  0  0  0  0  0
    0.3419   -4.2240   -0.5709 H   0  0  0  0  0  0  0  0  0  0  0  0
    0.7554   -3.7938    1.1502 H   0  0  0  0  0  0  0  0  0  0  0  0
    5.1561   -0.5457   -0.8150 H   0  0  0  0  0  0  0  0  0  0  0  0
   -1.1637    3.9685   -1.6855 H   0  0  0  0  0  0  0  0  0  0  0  0
   -2.8750    3.6500   -2.1442 H   0  0  0  0  0  0  0  0  0  0  0  0
   -1.5636    3.3764   -3.3141 H   0  0  0  0  0  0  0  0  0  0  0  0
    2.7943   -0.0066   -3.5958 H   0  0  0  0  0  0  0  0  0  0  0  0
  1 12  1  0  0  0  0
  1 14  1  0  0  0  0
  2 15  1  0  0  0  0
  2 27  1  0  0  0  0
  3 20  1  0  0  0  0
  3 35  1  0  0  0  0
  4 22  1  0  0  0  0
  4 39  1  0  0  0  0
  5 24  1  0  0  0  0
  5 28  1  0  0  0  0
  6 24  2  0  0  0  0
  7 26  1  0  0  0  0
  7 43  1  0  0  0  0
  8 11  1  0  0  0  0
  9 11  2  0  0  0  0
 10 26  2  0  0  0  0
 11 16  1  0  0  0  0
 12 13  1  0  0  0  0
 12 15  2  0  0  0  0
 13 16  2  0  0  0  0
 13 24  1  0  0  0  0
 14 17  1  0  0  0  0
 14 19  2  0  0  0  0
 15 21  1  0  0  0  0
 16 20  1  0  0  0  0
 17 22  2  0  0  0  0
 17 26  1  0  0  0  0
 18 19  1  0  0  0  0
 18 23  2  0  0  0  0
 18 25  1  0  0  0  0
 19 29  1  0  0  0  0
 20 21  2  0  0  0  0
 21 30  1  0  0  0  0
 22 23  1  0  0  0  0
 23 31  1  0  0  0  0
 25 32  1  0  0  0  0
 25 33  1  0  0  0  0
 25 34  1  0  0  0  0
 27 36  1  0  0  0  0
 27 37  1  0  0  0  0
 27 38  1  0  0  0  0
 28 40  1  0  0  0  0
 28 41  1  0  0  0  0
 28 42  1  0  0  0  0
M  CHG  2   8  -1  11   1
M  END
> <PUBCHEM_COMPOUND_CID>
122177640

> <PUBCHEM_CONFORMER_RMSD>
0.8

> <PUBCHEM_CONFORMER_DIVERSEORDER>
1
35
38
31
30
12
19
17
20
7
25
40
4
28
22
11
18
16
13
39
10
6
33
27
37
24
5
29
9
36
14
23
21
15
34
32
8
26
3
2

> <PUBCHEM_MMFF94_PARTIAL_CHARGES>
34
1 -0.17
10 -0.57
11 0.91
12 0.08
13 0.09
14 0.08
15 0.08
16 0.13
17 0.09
18 -0.14
19 -0.15
2 -0.36
20 0.08
21 -0.15
22 0.08
23 -0.15
24 0.63
25 0.14
26 0.63
27 0.28
28 0.28
29 0.15
3 -0.53
30 0.15
31 0.15
35 0.45
39 0.45
4 -0.53
43 0.5
5 -0.43
6 -0.57
7 -0.65
8 -0.52
9 -0.52

> <PUBCHEM_EFFECTIVE_ROTOR_COUNT>
7

> <PUBCHEM_PHARMACOPHORE_FEATURES>
13
1 1 acceptor
1 10 acceptor
1 2 acceptor
1 3 donor
1 4 donor
1 6 acceptor
1 7 acceptor
1 8 acceptor
1 8 anion
1 9 acceptor
3 7 10 26 anion
6 12 13 15 16 20 21 rings
6 14 17 18 19 22 23 rings

> <PUBCHEM_HEAVY_ATOM_COUNT>
28

> <PUBCHEM_ATOM_DEF_STEREO_COUNT>
0

> <PUBCHEM_ATOM_UDEF_STEREO_COUNT>
0

> <PUBCHEM_BOND_DEF_STEREO_COUNT>
0

> <PUBCHEM_BOND_UDEF_STEREO_COUNT>
0

> <PUBCHEM_ISOTOPIC_ATOM_COUNT>
0

> <PUBCHEM_COMPONENT_COUNT>
1

> <PUBCHEM_CACTVS_TAUTO_COUNT>
24

> <PUBCHEM_CONFORMER_ID>
0748486800000001

> <PUBCHEM_MMFF94_ENERGY>
113.7007

> <PUBCHEM_FEATURE_SELFOVERLAP>
66.122

> <PUBCHEM_SHAPE_FINGERPRINT>
10165383 225 17977408052275011893
10366900 7 18272647960939628579
10369192 42 17699854222520190704
11582403 64 16832835234131849432
12236239 1 17022621983483185052
12553582 1 18113626711433371005
12633257 1 18199728393215323840
12788726 201 17385720262660655029
13140716 1 18263370359592853961
13402501 40 18201717401054449674
13726171 33 17753080398761112197
13911987 19 17129894788161206324
14022347 108 17970358232741315363
14251757 17 17988085495802213098
14856354 85 17686586424476484480
15295992 7 17846211206659805440
15513586 35 16322253121055740712
16752209 62 17968364685390418869
16945 1 18335425664386845879
17349148 13 18114729538818578295
19049666 15 18130228168602355376
20600515 1 18191022507238414669
21033648 29 18196906986070281136
21330990 113 18410298016781782675
22182313 1 17970343716415954221
23526113 38 17988645160232305114
23559900 14 18341628039665136692
23598288 3 16879047694777489997
238 59 17343749726016009300
25222932 49 16589174760497661201
3380486 77 17396937668674865335
350125 39 17974296417557145573
3524813 1 18343864411471017056
474 4 16558177349887916632
5265222 85 18337964506188386046
57527295 17 17701820986311325524
59755656 215 18338233752343373167
81228 2 17763442303499034506
90316 7 17968924405586527137

> <PUBCHEM_SHAPE_MULTIPOLES>
512.55
8.14
3.19
2.35
1.03
0.99
0.25
-0.53
1.5
1.78
-0.35
-2.11
-1.75
2.69

> <PUBCHEM_SHAPE_SELFOVERLAP>
1112.757

> <PUBCHEM_SHAPE_VOLUME>
281.4

> <PUBCHEM_COORDINATE_TYPE>
2
5
10

$$$$
