122193981
  -OEChem-03292013293D

 49 52  0     0  0  0  0  0  0999 V2000
    3.1566   -3.2021    0.3210 O   0  0  0  0  0  0  0  0  0  0  0  0
    5.9156    0.9079   -0.4542 O   0  0  0  0  0  0  0  0  0  0  0  0
   -3.8691   -0.3088    2.8970 O   0  0  0  0  0  0  0  0  0  0  0  0
   -2.5273   -0.5746   -0.2312 N   0  0  0  0  0  0  0  0  0  0  0  0
    0.4066    0.5032   -0.8837 N   0  0  0  0  0  0  0  0  0  0  0  0
    2.8446   -0.4872   -0.0709 N   0  0  0  0  0  0  0  0  0  0  0  0
    5.2790    1.1389    1.7366 N   0  0  0  0  0  0  0  0  0  0  0  0
   -2.9966    1.7349    2.3306 N   0  0  0  0  0  0  0  0  0  0  0  0
   -0.4865   -1.6974   -0.8929 C   0  0  0  0  0  0  0  0  0  0  0  0
    0.5718   -0.8146   -0.6879 C   0  0  0  0  0  0  0  0  0  0  0  0
   -1.8234   -1.1887   -1.3337 C   0  0  0  0  0  0  0  0  0  0  0  0
    1.8099   -1.3176   -0.2755 C   0  0  0  0  0  0  0  0  0  0  0  0
    2.6795    0.8306   -0.2664 C   0  0  0  0  0  0  0  0  0  0  0  0
   -0.3347   -3.0685   -0.6954 C   0  0  0  0  0  0  0  0  0  0  0  0
    1.4414    1.3335   -0.6793 C   0  0  0  0  0  0  0  0  0  0  0  0
    1.9555   -2.6895   -0.0799 C   0  0  0  0  0  0  0  0  0  0  0  0
    0.8932   -3.5674   -0.2870 C   0  0  0  0  0  0  0  0  0  0  0  0
    3.7376    1.7135   -0.0607 C   0  0  0  0  0  0  0  0  0  0  0  0
   -3.8044   -0.0485   -0.3333 C   0  0  0  0  0  0  0  0  0  0  0  0
    1.2960    2.7053   -0.8757 C   0  0  0  0  0  0  0  0  0  0  0  0
    3.5856    3.0847   -0.2583 C   0  0  0  0  0  0  0  0  0  0  0  0
   -4.4300    0.5324    0.7697 C   0  0  0  0  0  0  0  0  0  0  0  0
    2.3582    3.5832   -0.6682 C   0  0  0  0  0  0  0  0  0  0  0  0
   -4.4653   -0.1048   -1.5603 C   0  0  0  0  0  0  0  0  0  0  0  0
    5.0422    1.2230    0.3697 C   0  0  0  0  0  0  0  0  0  0  0  0
   -5.7163    1.0572    0.6458 C   0  0  0  0  0  0  0  0  0  0  0  0
   -5.7517    0.4201   -1.6845 C   0  0  0  0  0  0  0  0  0  0  0  0
   -6.3773    1.0011   -0.5813 C   0  0  0  0  0  0  0  0  0  0  0  0
   -3.7661    0.6076    2.0653 C   0  0  0  0  0  0  0  0  0  0  0  0
    3.3755   -3.3075    1.7248 C   0  0  0  0  0  0  0  0  0  0  0  0
   -1.6830   -0.4755   -2.1565 H   0  0  0  0  0  0  0  0  0  0  0  0
   -2.4115   -2.0217   -1.7404 H   0  0  0  0  0  0  0  0  0  0  0  0
   -1.1618   -3.7550   -0.8531 H   0  0  0  0  0  0  0  0  0  0  0  0
   -2.0615   -0.5239    0.6680 H   0  0  0  0  0  0  0  0  0  0  0  0
    1.0195   -4.6350   -0.1316 H   0  0  0  0  0  0  0  0  0  0  0  0
    0.3374    3.1079   -1.1968 H   0  0  0  0  0  0  0  0  0  0  0  0
    4.4151    3.7677   -0.0964 H   0  0  0  0  0  0  0  0  0  0  0  0
    2.2243    4.6489   -0.8265 H   0  0  0  0  0  0  0  0  0  0  0  0
   -4.0204   -0.5441   -2.4479 H   0  0  0  0  0  0  0  0  0  0  0  0
   -6.2148    1.5124    1.4978 H   0  0  0  0  0  0  0  0  0  0  0  0
   -6.2667    0.3772   -2.6398 H   0  0  0  0  0  0  0  0  0  0  0  0
   -7.3789    1.4098   -0.6780 H   0  0  0  0  0  0  0  0  0  0  0  0
    4.3738   -3.7237    1.8857 H   0  0  0  0  0  0  0  0  0  0  0  0
    3.3277   -2.3223    2.1995 H   0  0  0  0  0  0  0  0  0  0  0  0
    2.6399   -3.9790    2.1790 H   0  0  0  0  0  0  0  0  0  0  0  0
    4.5774    1.3992    2.4225 H   0  0  0  0  0  0  0  0  0  0  0  0
    6.1704    0.8104    2.0926 H   0  0  0  0  0  0  0  0  0  0  0  0
   -2.8950    2.4887    1.6584 H   0  0  0  0  0  0  0  0  0  0  0  0
   -2.5071    1.8367    3.2133 H   0  0  0  0  0  0  0  0  0  0  0  0
  1 16  1  0  0  0  0
  1 30  1  0  0  0  0
  2 25  2  0  0  0  0
  3 29  2  0  0  0  0
  4 11  1  0  0  0  0
  4 19  1  0  0  0  0
  4 34  1  0  0  0  0
  5 10  2  0  0  0  0
  5 15  1  0  0  0  0
  6 12  2  0  0  0  0
  6 13  1  0  0  0  0
  7 25  1  0  0  0  0
  7 46  1  0  0  0  0
  7 47  1  0  0  0  0
  8 29  1  0  0  0  0
  8 48  1  0  0  0  0
  8 49  1  0  0  0  0
  9 10  1  0  0  0  0
  9 11  1  0  0  0  0
  9 14  2  0  0  0  0
 10 12  1  0  0  0  0
 11 31  1  0  0  0  0
 11 32  1  0  0  0  0
 12 16  1  0  0  0  0
 13 15  1  0  0  0  0
 13 18  2  0  0  0  0
 14 17  1  0  0  0  0
 14 33  1  0  0  0  0
 15 20  2  0  0  0  0
 16 17  2  0  0  0  0
 17 35  1  0  0  0  0
 18 21  1  0  0  0  0
 18 25  1  0  0  0  0
 19 22  1  0  0  0  0
 19 24  2  0  0  0  0
 20 23  1  0  0  0  0
 20 36  1  0  0  0  0
 21 23  2  0  0  0  0
 21 37  1  0  0  0  0
 22 26  2  0  0  0  0
 22 29  1  0  0  0  0
 23 38  1  0  0  0  0
 24 27  1  0  0  0  0
 24 39  1  0  0  0  0
 26 28  1  0  0  0  0
 26 40  1  0  0  0  0
 27 28  2  0  0  0  0
 27 41  1  0  0  0  0
 28 42  1  0  0  0  0
 30 43  1  0  0  0  0
 30 44  1  0  0  0  0
 30 45  1  0  0  0  0
M  END
> <PUBCHEM_COMPOUND_CID>
122193981

> <PUBCHEM_CONFORMER_RMSD>
0.8

> <PUBCHEM_CONFORMER_DIVERSEORDER>
1
86
23
59
53
17
87
41
55
72
12
31
39
19
64
65
20
69
74
62
38
52
85
50
45
32
34
73
54
29
83
49
80
33
9
57
60
61
76
27
46
15
35
58
44
81
56
36
84
21
30
67
48
37
51
18
47
22
11
26
24
13
43
7
77
42
40
25
16
28
68
88
3
14
10
79
5
6
8
78
82
2
4
63
75
70
66
71

> <PUBCHEM_MMFF94_PARTIAL_CHARGES>
44
1 -0.36
10 0.31
11 0.51
12 0.31
13 0.31
14 -0.15
15 0.31
16 0.08
17 -0.15
18 0.09
19 0.1
2 -0.57
20 -0.15
21 -0.15
22 0.09
23 -0.15
24 -0.15
25 0.54
26 -0.15
27 -0.15
28 -0.15
29 0.54
3 -0.57
30 0.28
33 0.15
34 0.4
35 0.15
36 0.15
37 0.15
38 0.15
39 0.15
4 -0.87
40 0.15
41 0.15
42 0.15
46 0.37
47 0.37
48 0.37
49 0.37
5 -0.62
6 -0.62
7 -0.8
8 -0.8
9 -0.14

> <PUBCHEM_EFFECTIVE_ROTOR_COUNT>
6

> <PUBCHEM_PHARMACOPHORE_FEATURES>
13
1 1 acceptor
1 2 acceptor
1 3 acceptor
1 4 cation
1 4 donor
1 5 acceptor
1 6 acceptor
1 7 donor
1 8 donor
6 13 15 18 20 21 23 rings
6 19 22 24 26 27 28 rings
6 5 6 10 12 13 15 rings
6 9 10 12 14 16 17 rings

> <PUBCHEM_HEAVY_ATOM_COUNT>
30

> <PUBCHEM_ATOM_DEF_STEREO_COUNT>
0

> <PUBCHEM_ATOM_UDEF_STEREO_COUNT>
0

> <PUBCHEM_BOND_DEF_STEREO_COUNT>
0

> <PUBCHEM_BOND_UDEF_STEREO_COUNT>
0

> <PUBCHEM_ISOTOPIC_ATOM_COUNT>
0

> <PUBCHEM_COMPONENT_COUNT>
1

> <PUBCHEM_CACTVS_TAUTO_COUNT>
14

> <PUBCHEM_CONFORMER_ID>
0748883D00000001

> <PUBCHEM_MMFF94_ENERGY>
125.1718

> <PUBCHEM_FEATURE_SELFOVERLAP>
66.055

> <PUBCHEM_SHAPE_FINGERPRINT>
10411042 1 17905882583516625366
1100329 8 18268144434875783132
12128747 34 16444727386201915785
12166972 35 18200022933651509147
12422481 6 18188472615498872154
12788726 201 17203614749211773265
13140716 1 18118956138877609284
13583140 156 18114472231585776099
14739800 52 17489005133424740186
14790565 3 18191026896969798484
15420108 30 18271228513383808150
15475509 35 16588859053898865507
15475509 8 17843704179090314886
20511986 3 17917702471169941537
20739085 24 18338521828985472150
21033648 144 18335976507123177919
21298829 104 18343019957131092557
2132832 1 18127687132975159849
22122407 14 18195819470976921329
23569917 315 18343022241373453263
25147074 1 18200291308635563543
283562 15 17616525598397869175
335352 9 18410569630940986500
469060 322 17974862975737100923
474 4 18412545427123099551
5104073 3 18045769346340251560
6328613 192 18196658608676153212
6523845 18 17977986614581831725
7970288 3 8790619095423333869

> <PUBCHEM_SHAPE_MULTIPOLES>
574.87
13.07
4.12
1.77
10.78
1.9
1.31
-7.1
1.98
-6.1
-0.11
2.21
-0.07
-1.4

> <PUBCHEM_SHAPE_SELFOVERLAP>
1282.832

> <PUBCHEM_SHAPE_VOLUME>
304.9

> <PUBCHEM_COORDINATE_TYPE>
2
5
10

$$$$
