122177434
  -OEChem-03292013293D

 62 67  0     1  0  0  0  0  0999 V2000
   -1.6901    1.6941    1.9144 O   0  0  0  0  0  0  0  0  0  0  0  0
   -4.0883   -2.3090   -1.5483 O   0  0  0  0  0  0  0  0  0  0  0  0
    0.3912    2.6062    2.7694 O   0  0  0  0  0  0  0  0  0  0  0  0
    1.4692   -1.7367    0.8145 O   0  0  0  0  0  0  0  0  0  0  0  0
   -3.1809   -0.5474   -0.2868 N   0  0  0  0  0  0  0  0  0  0  0  0
   -1.3755   -1.5559    0.6084 N   0  0  0  0  0  0  0  0  0  0  0  0
    2.0330    0.4973    0.4154 N   0  0  0  0  0  0  0  0  0  0  0  0
    2.0631    3.0665    1.2587 N   0  0  0  0  0  0  0  0  0  0  0  0
    4.0389    1.0274   -0.7500 N   0  0  0  0  0  0  0  0  0  0  0  0
   -1.7001    1.0569    0.6447 C   0  0  2  0  0  0  0  0  0  0  0  0
   -2.2330   -0.3911    0.7817 C   0  0  1  0  0  0  0  0  0  0  0  0
   -0.3335    1.1740   -0.0046 C   0  0  0  0  0  0  0  0  0  0  0  0
   -2.2524   -2.6146    0.0413 C   0  0  2  0  0  0  0  0  0  0  0  0
   -2.7896    1.6708   -0.2232 C   0  0  0  0  0  0  0  0  0  0  0  0
   -3.6037    0.6724   -0.7789 C   0  0  0  0  0  0  0  0  0  0  0  0
   -3.3254   -1.8422   -0.7198 C   0  0  0  0  0  0  0  0  0  0  0  0
    0.7860    0.9995    1.0150 C   0  0  2  0  0  0  0  0  0  0  0  0
   -2.8711   -3.4988    1.1138 C   0  0  0  0  0  0  0  0  0  0  0  0
   -2.9857    2.9984   -0.5636 C   0  0  0  0  0  0  0  0  0  0  0  0
   -4.5905    0.9489   -1.7039 C   0  0  0  0  0  0  0  0  0  0  0  0
    1.0677    2.2742    1.7976 C   0  0  0  0  0  0  0  0  0  0  0  0
   -1.7877   -4.2427    1.8951 C   0  0  0  0  0  0  0  0  0  0  0  0
   -3.8582   -4.4903    0.4967 C   0  0  0  0  0  0  0  0  0  0  0  0
    2.9415    1.3873   -0.1622 C   0  0  0  0  0  0  0  0  0  0  0  0
    2.5510    2.8549   -0.0908 C   0  0  2  0  0  0  0  0  0  0  0  0
   -4.0023    3.3038   -1.4736 C   0  0  0  0  0  0  0  0  0  0  0  0
   -4.7929    2.2883   -2.0420 C   0  0  0  0  0  0  0  0  0  0  0  0
    2.2424   -0.8883    0.3790 C   0  0  0  0  0  0  0  0  0  0  0  0
    3.7019    3.8020   -0.4039 C   0  0  0  0  0  0  0  0  0  0  0  0
    3.5063   -1.3144   -0.2588 C   0  0  0  0  0  0  0  0  0  0  0  0
    4.3498   -0.3382   -0.7968 C   0  0  0  0  0  0  0  0  0  0  0  0
    3.8458   -2.6702   -0.3254 C   0  0  0  0  0  0  0  0  0  0  0  0
    5.5447   -0.7390   -1.4051 C   0  0  0  0  0  0  0  0  0  0  0  0
    5.0397   -3.0541   -0.9344 C   0  0  0  0  0  0  0  0  0  0  0  0
    5.8886   -2.0900   -1.4737 C   0  0  0  0  0  0  0  0  0  0  0  0
   -2.7945   -0.5003    1.7215 H   0  0  0  0  0  0  0  0  0  0  0  0
   -0.2382    2.1657   -0.4632 H   0  0  0  0  0  0  0  0  0  0  0  0
   -0.2363    0.4641   -0.8362 H   0  0  0  0  0  0  0  0  0  0  0  0
   -1.6676   -3.1999   -0.6774 H   0  0  0  0  0  0  0  0  0  0  0  0
   -0.9450   -1.8255    1.4875 H   0  0  0  0  0  0  0  0  0  0  0  0
    0.4974    0.2523    1.7645 H   0  0  0  0  0  0  0  0  0  0  0  0
   -3.4388   -2.8892    1.8297 H   0  0  0  0  0  0  0  0  0  0  0  0
   -1.3673    1.0611    2.5777 H   0  0  0  0  0  0  0  0  0  0  0  0
   -2.3601    3.7837   -0.1534 H   0  0  0  0  0  0  0  0  0  0  0  0
   -5.1998    0.1701   -2.1469 H   0  0  0  0  0  0  0  0  0  0  0  0
   -1.1301   -4.8064    1.2244 H   0  0  0  0  0  0  0  0  0  0  0  0
   -3.4064   -5.0417   -0.3349 H   0  0  0  0  0  0  0  0  0  0  0  0
   -4.7640   -3.9943    0.1366 H   0  0  0  0  0  0  0  0  0  0  0  0
   -4.1851   -5.2240    1.2422 H   0  0  0  0  0  0  0  0  0  0  0  0
   -2.2384   -4.9564    2.5940 H   0  0  0  0  0  0  0  0  0  0  0  0
   -1.1697   -3.5690    2.4951 H   0  0  0  0  0  0  0  0  0  0  0  0
    1.7306    3.0375   -0.7913 H   0  0  0  0  0  0  0  0  0  0  0  0
   -4.1757    4.3384   -1.7584 H   0  0  0  0  0  0  0  0  0  0  0  0
    2.2564    3.9528    1.7158 H   0  0  0  0  0  0  0  0  0  0  0  0
   -5.5682    2.5518   -2.7567 H   0  0  0  0  0  0  0  0  0  0  0  0
    4.0593    3.6632   -1.4298 H   0  0  0  0  0  0  0  0  0  0  0  0
    4.5487    3.6397    0.2728 H   0  0  0  0  0  0  0  0  0  0  0  0
    3.3866    4.8453   -0.2945 H   0  0  0  0  0  0  0  0  0  0  0  0
    3.1971   -3.4368    0.0890 H   0  0  0  0  0  0  0  0  0  0  0  0
    6.2172    0.0019   -1.8311 H   0  0  0  0  0  0  0  0  0  0  0  0
    5.3080   -4.1052   -0.9885 H   0  0  0  0  0  0  0  0  0  0  0  0
    6.8185   -2.3895   -1.9483 H   0  0  0  0  0  0  0  0  0  0  0  0
  1 10  1  0  0  0  0
  1 43  1  0  0  0  0
  2 16  2  0  0  0  0
  3 21  2  0  0  0  0
  4 28  2  0  0  0  0
  5 11  1  0  0  0  0
  5 15  1  0  0  0  0
  5 16  1  0  0  0  0
  6 11  1  0  0  0  0
  6 13  1  0  0  0  0
  6 40  1  0  0  0  0
  7 17  1  0  0  0  0
  7 24  1  0  0  0  0
  7 28  1  0  0  0  0
  8 21  1  0  0  0  0
  8 25  1  0  0  0  0
  8 54  1  0  0  0  0
  9 24  2  0  0  0  0
  9 31  1  0  0  0  0
 10 11  1  0  0  0  0
 10 12  1  0  0  0  0
 10 14  1  0  0  0  0
 11 36  1  0  0  0  0
 12 17  1  0  0  0  0
 12 37  1  0  0  0  0
 12 38  1  0  0  0  0
 13 16  1  0  0  0  0
 13 18  1  0  0  0  0
 13 39  1  0  0  0  0
 14 15  1  0  0  0  0
 14 19  2  0  0  0  0
 15 20  2  0  0  0  0
 17 21  1  0  0  0  0
 17 41  1  0  0  0  0
 18 22  1  0  0  0  0
 18 23  1  0  0  0  0
 18 42  1  0  0  0  0
 19 26  1  0  0  0  0
 19 44  1  0  0  0  0
 20 27  1  0  0  0  0
 20 45  1  0  0  0  0
 22 46  1  0  0  0  0
 22 50  1  0  0  0  0
 22 51  1  0  0  0  0
 23 47  1  0  0  0  0
 23 48  1  0  0  0  0
 23 49  1  0  0  0  0
 24 25  1  0  0  0  0
 25 29  1  0  0  0  0
 25 52  1  0  0  0  0
 26 27  2  0  0  0  0
 26 53  1  0  0  0  0
 27 55  1  0  0  0  0
 28 30  1  0  0  0  0
 29 56  1  0  0  0  0
 29 57  1  0  0  0  0
 29 58  1  0  0  0  0
 30 31  1  0  0  0  0
 30 32  2  0  0  0  0
 31 33  2  0  0  0  0
 32 34  1  0  0  0  0
 32 59  1  0  0  0  0
 33 35  1  0  0  0  0
 33 60  1  0  0  0  0
 34 35  2  0  0  0  0
 34 61  1  0  0  0  0
 35 62  1  0  0  0  0
M  END
> <PUBCHEM_COMPOUND_CID>
122177434

> <PUBCHEM_CONFORMER_RMSD>
0.8

> <PUBCHEM_CONFORMER_DIVERSEORDER>
1
3
2
4

> <PUBCHEM_MMFF94_PARTIAL_CHARGES>
41
1 -0.68
10 0.42
11 0.57
13 0.33
14 -0.14
15 0.12
16 0.57
17 0.36
19 -0.15
2 -0.57
20 -0.15
21 0.57
24 0.45
25 0.36
26 -0.15
27 -0.15
28 0.54
3 -0.57
30 0.09
31 0.18
32 -0.15
33 -0.15
34 -0.15
35 -0.15
4 -0.57
40 0.36
43 0.4
44 0.15
45 0.15
5 -0.48
53 0.15
54 0.37
55 0.15
59 0.15
6 -0.9
60 0.15
61 0.15
62 0.15
7 -0.42
8 -0.73
9 -0.63

> <PUBCHEM_EFFECTIVE_ROTOR_COUNT>
4.2

> <PUBCHEM_PHARMACOPHORE_FEATURES>
15
1 1 acceptor
1 1 donor
1 2 acceptor
1 3 acceptor
1 4 acceptor
1 6 cation
1 6 donor
1 8 donor
3 18 22 23 hydrophobe
5 5 10 11 14 15 rings
5 5 6 11 13 16 rings
6 14 15 19 20 26 27 rings
6 30 31 32 33 34 35 rings
6 7 8 17 21 24 25 rings
6 7 9 24 28 30 31 rings

> <PUBCHEM_HEAVY_ATOM_COUNT>
35

> <PUBCHEM_ATOM_DEF_STEREO_COUNT>
5

> <PUBCHEM_ATOM_UDEF_STEREO_COUNT>
0

> <PUBCHEM_BOND_DEF_STEREO_COUNT>
0

> <PUBCHEM_BOND_UDEF_STEREO_COUNT>
0

> <PUBCHEM_ISOTOPIC_ATOM_COUNT>
0

> <PUBCHEM_COMPONENT_COUNT>
1

> <PUBCHEM_CACTVS_TAUTO_COUNT>
19

> <PUBCHEM_CONFORMER_ID>
0748479A00000001

> <PUBCHEM_MMFF94_ENERGY>
130.0502

> <PUBCHEM_FEATURE_SELFOVERLAP>
76.581

> <PUBCHEM_SHAPE_FINGERPRINT>
10369192 42 13407664094985230094
10675989 125 17544192675559850684
10764073 3 18126315046038919307
107951 10 17169002071154965291
10974685 15 17968372459360391344
11115154 58 17345177910311991817
11445158 3 17684696131232453809
11621639 336 17117198395845355833
12788726 201 17769932372855682714
13690498 29 18337686311559543326
13944108 23 16961806629573394661
140371 6 18128545864456886280
14068700 686 17977381964606973028
14251757 5 18338242548642266566
15219462 58 17773877674085611937
15324884 4 16969965547301201169
15392192 29 17914636964047718742
16628084 112 17401776220027401886
17809404 112 17773855623633186930
17909252 39 18198636608429333434
19301676 85 18051698737286605054
19311894 1 18195822777463806114
19958102 18 18263073323511774085
20775438 99 17981849177650441077
21133410 32 17460906074785781018
221490 88 18340215201641360498
22393880 68 18334853922556248404
22440779 20 17100356394325522266
23559900 14 18343291566034687296
23572383 38 18272645711068160862
312425 83 18186803603729422492
3729539 64 18122059810867844927
3737641 26 18053399965104738082
4015057 19 18131061628212455561
4058900 60 17756148886932607389
4280585 95 18338793391615299058
4394409 98 17827906343965778418
44062 13 18411700963211461343
463206 1 18338528421976295846
474144 1 17536580816632830019
508706 21 18335693979124962103
613672 6 18059299739010776278
6376802 90 18335692862776882584
70251023 43 18129656542736745391
7399639 24 17764581414619784889
9709674 26 18338794619168973519

> <PUBCHEM_SHAPE_MULTIPOLES>
671.9
11.51
5.81
1.8
8.13
2.9
-0.47
3.17
7.91
-2.99
-1.17
-0.74
-0.6
3.3

> <PUBCHEM_SHAPE_SELFOVERLAP>
1500.766

> <PUBCHEM_SHAPE_VOLUME>
353.3

> <PUBCHEM_COORDINATE_TYPE>
2
5
10

$$$$
