122147
  -OEChem-03292013323D

 38 39  0     1  0  0  0  0  0999 V2000
   -0.1544   -2.6413   -0.3258 S   0  0  0  0  0  0  0  0  0  0  0  0
    2.3237   -1.0245   -0.4822 S   0  0  0  0  0  0  0  0  0  0  0  0
    4.0164    1.3193   -0.0488 S   0  0  0  0  0  0  0  0  0  0  0  0
   -0.1063   -2.8351   -1.7590 O   0  0  0  0  0  0  0  0  0  0  0  0
    0.3883   -3.5924    0.6207 O   0  0  0  0  0  0  0  0  0  0  0  0
    4.1546    2.3378    0.9778 O   0  0  0  0  0  0  0  0  0  0  0  0
    5.0082    0.2651   -0.1724 O   0  0  0  0  0  0  0  0  0  0  0  0
   -1.9443    0.9268    0.1695 N   0  0  0  0  0  0  0  0  0  0  0  0
    3.8196    2.0775   -1.5650 N   0  0  0  0  0  0  0  0  0  0  0  0
   -1.1832    0.1188    1.1237 C   0  0  1  0  0  0  0  0  0  0  0  0
   -1.8441   -1.2596    1.3663 C   0  0  0  0  0  0  0  0  0  0  0  0
    0.2263   -0.0020    0.6160 C   0  0  0  0  0  0  0  0  0  0  0  0
   -1.8205   -2.2033    0.1584 C   0  0  0  0  0  0  0  0  0  0  0  0
    0.6994   -1.1354   -0.0099 C   0  0  0  0  0  0  0  0  0  0  0  0
   -3.3243    1.0705    0.6041 C   0  0  0  0  0  0  0  0  0  0  0  0
    1.2538    0.9894    0.7049 C   0  0  0  0  0  0  0  0  0  0  0  0
   -4.1798    1.8547   -0.4057 C   0  0  0  0  0  0  0  0  0  0  0  0
    2.4404    0.5662    0.1434 C   0  0  0  0  0  0  0  0  0  0  0  0
   -4.1415    1.1562   -1.7676 C   0  0  0  0  0  0  0  0  0  0  0  0
   -5.6323    2.0113    0.0516 C   0  0  0  0  0  0  0  0  0  0  0  0
   -1.1470    0.6453    2.0876 H   0  0  0  0  0  0  0  0  0  0  0  0
   -2.8561   -1.1886    1.7734 H   0  0  0  0  0  0  0  0  0  0  0  0
   -1.2772   -1.7497    2.1723 H   0  0  0  0  0  0  0  0  0  0  0  0
   -2.3352   -3.1406    0.3922 H   0  0  0  0  0  0  0  0  0  0  0  0
   -2.3105   -1.7477   -0.7075 H   0  0  0  0  0  0  0  0  0  0  0  0
   -1.5213    1.8504    0.0784 H   0  0  0  0  0  0  0  0  0  0  0  0
   -3.3640    1.5778    1.5761 H   0  0  0  0  0  0  0  0  0  0  0  0
   -3.8293    0.1072    0.7098 H   0  0  0  0  0  0  0  0  0  0  0  0
    1.1255    1.9652    1.1563 H   0  0  0  0  0  0  0  0  0  0  0  0
   -3.7553    2.8603   -0.5231 H   0  0  0  0  0  0  0  0  0  0  0  0
   -4.5033    0.1244   -1.6978 H   0  0  0  0  0  0  0  0  0  0  0  0
   -4.7752    1.6843   -2.4887 H   0  0  0  0  0  0  0  0  0  0  0  0
   -3.1299    1.1357   -2.1855 H   0  0  0  0  0  0  0  0  0  0  0  0
   -6.1209    1.0374    0.1636 H   0  0  0  0  0  0  0  0  0  0  0  0
   -6.2079    2.5997   -0.6707 H   0  0  0  0  0  0  0  0  0  0  0  0
   -5.6781    2.5262    1.0168 H   0  0  0  0  0  0  0  0  0  0  0  0
    3.1590    2.8639   -1.6124 H   0  0  0  0  0  0  0  0  0  0  0  0
    4.6711    2.2444   -2.1161 H   0  0  0  0  0  0  0  0  0  0  0  0
  1  4  2  0  0  0  0
  1  5  2  0  0  0  0
  1 13  1  0  0  0  0
  1 14  1  0  0  0  0
  2 14  1  0  0  0  0
  2 18  1  0  0  0  0
  3  6  2  0  0  0  0
  3  7  2  0  0  0  0
  3  9  1  0  0  0  0
  3 18  1  0  0  0  0
  8 10  1  0  0  0  0
  8 15  1  0  0  0  0
  8 26  1  0  0  0  0
  9 37  1  0  0  0  0
  9 38  1  0  0  0  0
 10 11  1  0  0  0  0
 10 12  1  0  0  0  0
 10 21  1  0  0  0  0
 11 13  1  0  0  0  0
 11 22  1  0  0  0  0
 11 23  1  0  0  0  0
 12 14  2  0  0  0  0
 12 16  1  0  0  0  0
 13 24  1  0  0  0  0
 13 25  1  0  0  0  0
 15 17  1  0  0  0  0
 15 27  1  0  0  0  0
 15 28  1  0  0  0  0
 16 18  2  0  0  0  0
 16 29  1  0  0  0  0
 17 19  1  0  0  0  0
 17 20  1  0  0  0  0
 17 30  1  0  0  0  0
 19 31  1  0  0  0  0
 19 32  1  0  0  0  0
 19 33  1  0  0  0  0
 20 34  1  0  0  0  0
 20 35  1  0  0  0  0
 20 36  1  0  0  0  0
M  END
> <PUBCHEM_COMPOUND_CID>
122147

> <PUBCHEM_CONFORMER_RMSD>
0.6

> <PUBCHEM_CONFORMER_DIVERSEORDER>
3
8
11
1
13
6
10
7
4
2
12
5
9

> <PUBCHEM_MMFF94_PARTIAL_CHARGES>
20
1 1.26
10 0.45
12 -0.18
13 0.11
14 -0.02
15 0.27
16 -0.15
18 -0.02
2 -0.08
26 0.36
29 0.15
3 1.5
37 0.42
38 0.42
4 -0.65
5 -0.65
6 -0.65
7 -0.65
8 -0.9
9 -0.98

> <PUBCHEM_EFFECTIVE_ROTOR_COUNT>
4.6

> <PUBCHEM_PHARMACOPHORE_FEATURES>
10
1 4 acceptor
1 5 acceptor
1 6 acceptor
1 7 acceptor
1 8 cation
1 8 donor
1 9 donor
3 17 19 20 hydrophobe
5 2 12 14 16 18 rings
6 1 10 11 12 13 14 rings

> <PUBCHEM_HEAVY_ATOM_COUNT>
20

> <PUBCHEM_ATOM_DEF_STEREO_COUNT>
0

> <PUBCHEM_ATOM_UDEF_STEREO_COUNT>
1

> <PUBCHEM_BOND_DEF_STEREO_COUNT>
0

> <PUBCHEM_BOND_UDEF_STEREO_COUNT>
0

> <PUBCHEM_ISOTOPIC_ATOM_COUNT>
0

> <PUBCHEM_COMPONENT_COUNT>
1

> <PUBCHEM_CACTVS_TAUTO_COUNT>
1

> <PUBCHEM_CONFORMER_ID>
0001DD2300000003

> <PUBCHEM_MMFF94_ENERGY>
20.9075

> <PUBCHEM_FEATURE_SELFOVERLAP>
50.82

> <PUBCHEM_SHAPE_FINGERPRINT>
105312 117 18410015467752291108
11045515 52 17264957872044706335
11725454 13 17822286847489096897
11796584 16 13686288050914270949
12403259 415 18270126837134388040
12500047 106 18340770446354842200
12730499 353 18337681802449887697
12788726 201 18048018955451915395
12930653 34 17458635535670632899
12969540 114 18336535067018726485
13103583 49 8357972346877352589
13134695 92 17540810595231728135
13257819 101 17531517686182979309
13583140 156 17458636604764119840
15163728 17 18262537934474455821
15475509 84 11819275508471427479
16752209 62 18269826687302329106
167882 2 18265896856614094658
16945 1 18122919637187054442
173720 79 18115847724636661651
17834072 32 18336267928611324436
18186145 218 17773617081629705880
18222031 100 11169921567309572401
18785283 64 18115868494866831451
20602899 9 17489590090727483343
20645477 56 18337399338871238569
20645477 70 18199188378382000647
21499 59 18411696556907194673
21521239 73 17845927438160002687
21524375 3 18411981334360159330
22182313 1 18268732604375967507
2255824 54 17981040822019508683
22907989 373 18123191470172844501
23402655 69 18130784500222657401
23559900 14 18201446853049844886
23598288 3 17970076753500876690
238 59 18198064677488006935
25 1 18340202986553806793
2748010 2 18269295550097686258
2838139 119 18260258629727539237
298252 57 18409728469320771128
3060560 45 18341047406798711396
3759504 43 18334577974859822715
43658 37 18411980235033251761
4371632 12 14976273794444772328
474 4 18338237064079818785
53917941 68 18198606899712882516
559249 180 18411419527791503586
633830 44 17915759603668240505
81539 233 18336546006431979531

> <PUBCHEM_SHAPE_MULTIPOLES>
389.7
9.23
3.42
1.3
3.01
2.57
-0.38
-10.4
-1.74
-0.27
-0.46
0.39
0.01
0.49

> <PUBCHEM_SHAPE_SELFOVERLAP>
765.813

> <PUBCHEM_SHAPE_VOLUME>
234.5

> <PUBCHEM_COORDINATE_TYPE>
2
5
10

$$$$
