122113
  -OEChem-03292013323D

 35 36  0     1  0  0  0  0  0999 V2000
   -0.6534    2.6036   -0.1912 S   0  0  0  0  0  0  0  0  0  0  0  0
    4.2379   -3.5337   -0.1951 S   0  0  0  0  0  0  0  0  0  0  0  0
    0.3725   -1.6769    1.1627 O   0  0  0  0  0  0  0  0  0  0  0  0
    3.6727    2.0837   -0.5722 O   0  0  0  0  0  0  0  0  0  0  0  0
    2.3586    2.0480    1.2900 O   0  0  0  0  0  0  0  0  0  0  0  0
   -3.0336    0.8202    1.9649 O   0  0  0  0  0  0  0  0  0  0  0  0
    0.6694    0.3049   -0.0112 N   0  0  0  0  0  0  0  0  0  0  0  0
    1.5009    1.2090   -0.8142 C   0  0  1  0  0  0  0  0  0  0  0  0
   -0.5988    0.8944    0.4476 C   0  0  2  0  0  0  0  0  0  0  0  0
    0.6310    2.2977   -1.4266 C   0  0  0  0  0  0  0  0  0  0  0  0
   -1.8310    0.1258    0.0108 C   0  0  0  0  0  0  0  0  0  0  0  0
    1.0463   -0.9725    0.4069 C   0  0  0  0  0  0  0  0  0  0  0  0
    2.5270    1.8182    0.1016 C   0  0  0  0  0  0  0  0  0  0  0  0
    2.3563   -1.4936   -0.1296 C   0  0  0  0  0  0  0  0  0  0  0  0
   -2.9863    0.1281    0.7921 C   0  0  0  0  0  0  0  0  0  0  0  0
   -1.7997   -0.5882   -1.1868 C   0  0  0  0  0  0  0  0  0  0  0  0
    2.6456   -2.8854    0.4002 C   0  0  0  0  0  0  0  0  0  0  0  0
   -4.1110   -0.5841    0.3754 C   0  0  0  0  0  0  0  0  0  0  0  0
   -2.9245   -1.3006   -1.6033 C   0  0  0  0  0  0  0  0  0  0  0  0
   -4.0800   -1.2986   -0.8221 C   0  0  0  0  0  0  0  0  0  0  0  0
    2.0171    0.6397   -1.5931 H   0  0  0  0  0  0  0  0  0  0  0  0
   -0.5442    0.9234    1.5420 H   0  0  0  0  0  0  0  0  0  0  0  0
    1.1790    3.2154   -1.6583 H   0  0  0  0  0  0  0  0  0  0  0  0
    0.1459    1.9373   -2.3393 H   0  0  0  0  0  0  0  0  0  0  0  0
    3.1593   -0.8124    0.1689 H   0  0  0  0  0  0  0  0  0  0  0  0
    2.2977   -1.5201   -1.2236 H   0  0  0  0  0  0  0  0  0  0  0  0
   -0.9224   -0.5982   -1.8272 H   0  0  0  0  0  0  0  0  0  0  0  0
    1.8616   -3.5873    0.0958 H   0  0  0  0  0  0  0  0  0  0  0  0
    2.6773   -2.8842    1.4952 H   0  0  0  0  0  0  0  0  0  0  0  0
   -5.0181   -0.5912    0.9739 H   0  0  0  0  0  0  0  0  0  0  0  0
   -2.9020   -1.8539   -2.5375 H   0  0  0  0  0  0  0  0  0  0  0  0
   -4.9559   -1.8525   -1.1470 H   0  0  0  0  0  0  0  0  0  0  0  0
    4.3551    2.4827    0.0085 H   0  0  0  0  0  0  0  0  0  0  0  0
   -3.9119    0.7047    2.3664 H   0  0  0  0  0  0  0  0  0  0  0  0
    3.9323   -3.5179   -1.5009 H   0  0  0  0  0  0  0  0  0  0  0  0
  1  9  1  0  0  0  0
  1 10  1  0  0  0  0
  2 17  1  0  0  0  0
  2 35  1  0  0  0  0
  3 12  2  0  0  0  0
  4 13  1  0  0  0  0
  4 33  1  0  0  0  0
  5 13  2  0  0  0  0
  6 15  1  0  0  0  0
  6 34  1  0  0  0  0
  7  8  1  0  0  0  0
  7  9  1  0  0  0  0
  7 12  1  0  0  0  0
  8 10  1  0  0  0  0
  8 13  1  0  0  0  0
  8 21  1  0  0  0  0
  9 11  1  0  0  0  0
  9 22  1  0  0  0  0
 10 23  1  0  0  0  0
 10 24  1  0  0  0  0
 11 15  1  0  0  0  0
 11 16  2  0  0  0  0
 12 14  1  0  0  0  0
 14 17  1  0  0  0  0
 14 25  1  0  0  0  0
 14 26  1  0  0  0  0
 15 18  2  0  0  0  0
 16 19  1  0  0  0  0
 16 27  1  0  0  0  0
 17 28  1  0  0  0  0
 17 29  1  0  0  0  0
 18 20  1  0  0  0  0
 18 30  1  0  0  0  0
 19 20  2  0  0  0  0
 19 31  1  0  0  0  0
 20 32  1  0  0  0  0
M  END
> <PUBCHEM_COMPOUND_CID>
122113

> <PUBCHEM_CONFORMER_RMSD>
0.8

> <PUBCHEM_CONFORMER_DIVERSEORDER>
1
52
85
59
69
86
51
28
54
58
88
82
39
72
22
84
77
75
57
66
73
68
29
79
64
65
41
81
91
55
56
74
63
71
7
60
44
76
35
49
8
70
61
14
62
78
2
38
42
34
43
36
21
26
90
83
46
18
87
40
31
3
45
27
9
15
23
19
25
89
37
48
16
50
4
47
32
20
53
11
13
80
6
12
33
5
67
10
30
17
24

> <PUBCHEM_MMFF94_PARTIAL_CHARGES>
27
1 -0.46
10 0.23
11 -0.14
12 0.57
13 0.66
14 0.06
15 0.08
16 -0.15
17 0.23
18 -0.15
19 -0.15
2 -0.41
20 -0.15
27 0.15
3 -0.57
30 0.15
31 0.15
32 0.15
33 0.5
34 0.45
35 0.18
4 -0.65
5 -0.57
6 -0.53
7 -0.66
8 0.36
9 0.67

> <PUBCHEM_EFFECTIVE_ROTOR_COUNT>
6

> <PUBCHEM_PHARMACOPHORE_FEATURES>
7
1 3 acceptor
1 4 acceptor
1 5 acceptor
1 6 donor
3 4 5 13 anion
5 1 7 8 9 10 rings
6 11 15 16 18 19 20 rings

> <PUBCHEM_HEAVY_ATOM_COUNT>
20

> <PUBCHEM_ATOM_DEF_STEREO_COUNT>
0

> <PUBCHEM_ATOM_UDEF_STEREO_COUNT>
2

> <PUBCHEM_BOND_DEF_STEREO_COUNT>
0

> <PUBCHEM_BOND_UDEF_STEREO_COUNT>
0

> <PUBCHEM_ISOTOPIC_ATOM_COUNT>
0

> <PUBCHEM_COMPONENT_COUNT>
1

> <PUBCHEM_CACTVS_TAUTO_COUNT>
3

> <PUBCHEM_CONFORMER_ID>
0001DD0100000001

> <PUBCHEM_MMFF94_ENERGY>
47.0328

> <PUBCHEM_FEATURE_SELFOVERLAP>
35.577

> <PUBCHEM_SHAPE_FINGERPRINT>
10989021 7 18338231566231367074
11578080 2 17985800719135307561
11680986 33 18261684760838684794
12236239 1 18129388262305009357
12553582 1 18118399553507201163
13009979 54 18060421292073338555
13083527 12 18119217689279494306
13140716 1 18267308638387119433
13533116 47 18341893017847036459
13965767 371 17770539411050078073
14787075 74 16981510354446652161
16945 1 18188495816538067981
1813 80 18197226845137950718
20028762 73 17477210895274254518
20645477 70 18262501668129564183
21041028 32 18266468611171085249
22112679 90 18131072619339227345
23557571 272 17694499248568063798
23566358 27 18410301302199804782
23598288 3 17324078139950185570
23598291 2 18272093768641048551
2748010 2 18115012013942303341
34934 24 18343587373786840993
458136 41 18264219165284262600
474 4 18053100919638625249
6992083 37 18057050094874793979
70251023 43 18264478508326522275
7364860 26 18413387644297798250
77492 1 18201725089193608649
81228 2 17542758950941062649

> <PUBCHEM_SHAPE_MULTIPOLES>
390.83
7.11
3.62
1.33
0.1
0.06
0.05
-5.73
0.04
4.58
-0.46
-0.88
0.14
-0.75

> <PUBCHEM_SHAPE_SELFOVERLAP>
797.274

> <PUBCHEM_SHAPE_VOLUME>
228.4

> <PUBCHEM_COORDINATE_TYPE>
2
5
10

$$$$
