122100
  -OEChem-03292013323D

 33 35  0     1  0  0  0  0  0999 V2000
    4.2681    2.0093   -0.0624 O   0  0  0  0  0  0  0  0  0  0  0  0
    3.7613   -2.6635   -0.8538 O   0  0  0  0  0  0  0  0  0  0  0  0
   -0.2097    0.5861    0.3762 N   0  0  0  0  0  0  0  0  0  0  0  0
   -1.8167    1.8655   -0.4902 N   0  0  0  0  0  0  0  0  0  0  0  0
   -1.4597   -1.4649    0.7387 N   0  0  0  0  0  0  0  0  0  0  0  0
   -3.7836   -1.2228    0.0338 N   0  0  0  0  0  0  0  0  0  0  0  0
   -4.6413    0.8121   -0.8880 N   0  0  0  0  0  0  0  0  0  0  0  0
    2.2510    0.7116   -0.0312 C   0  0  2  0  0  0  0  0  0  0  0  0
    1.1031    0.1988    0.8631 C   0  0  2  0  0  0  0  0  0  0  0  0
    2.9193   -0.6646    0.1691 C   0  0  1  0  0  0  0  0  0  0  0  0
    1.5065   -1.2266    0.4319 C   0  0  0  0  0  0  0  0  0  0  0  0
    2.9922    1.9146    0.5507 C   0  0  0  0  0  0  0  0  0  0  0  0
    3.6179   -1.2625   -1.0417 C   0  0  0  0  0  0  0  0  0  0  0  0
   -1.3326   -0.1905    0.3395 C   0  0  0  0  0  0  0  0  0  0  0  0
   -0.5505    1.8111   -0.1329 C   0  0  0  0  0  0  0  0  0  0  0  0
   -2.3176    0.6212   -0.2004 C   0  0  0  0  0  0  0  0  0  0  0  0
   -3.5826    0.0614   -0.3486 C   0  0  0  0  0  0  0  0  0  0  0  0
   -2.7253   -1.8961    0.5462 C   0  0  0  0  0  0  0  0  0  0  0  0
    1.9729    0.8900   -1.0806 H   0  0  0  0  0  0  0  0  0  0  0  0
    1.2272    0.3821    1.9376 H   0  0  0  0  0  0  0  0  0  0  0  0
    3.5530   -0.7178    1.0663 H   0  0  0  0  0  0  0  0  0  0  0  0
    1.0165   -1.6116   -0.4716 H   0  0  0  0  0  0  0  0  0  0  0  0
    1.4497   -1.9898    1.2139 H   0  0  0  0  0  0  0  0  0  0  0  0
    2.4483    2.8426    0.3550 H   0  0  0  0  0  0  0  0  0  0  0  0
    3.1390    1.8261    1.6323 H   0  0  0  0  0  0  0  0  0  0  0  0
    4.6107   -0.8209   -1.1717 H   0  0  0  0  0  0  0  0  0  0  0  0
    3.0413   -1.1014   -1.9586 H   0  0  0  0  0  0  0  0  0  0  0  0
    0.1500    2.6298   -0.2156 H   0  0  0  0  0  0  0  0  0  0  0  0
    4.8019    1.2579    0.2465 H   0  0  0  0  0  0  0  0  0  0  0  0
    4.2145   -3.0120   -1.6404 H   0  0  0  0  0  0  0  0  0  0  0  0
   -2.9223   -2.9210    0.8418 H   0  0  0  0  0  0  0  0  0  0  0  0
   -5.5513    0.3829   -0.9854 H   0  0  0  0  0  0  0  0  0  0  0  0
   -4.4940    1.7706   -1.1740 H   0  0  0  0  0  0  0  0  0  0  0  0
  1 12  1  0  0  0  0
  1 29  1  0  0  0  0
  2 13  1  0  0  0  0
  2 30  1  0  0  0  0
  3  9  1  0  0  0  0
  3 14  1  0  0  0  0
  3 15  1  0  0  0  0
  4 15  2  0  0  0  0
  4 16  1  0  0  0  0
  5 14  2  0  0  0  0
  5 18  1  0  0  0  0
  6 17  1  0  0  0  0
  6 18  2  0  0  0  0
  7 17  1  0  0  0  0
  7 32  1  0  0  0  0
  7 33  1  0  0  0  0
  8  9  1  0  0  0  0
  8 10  1  0  0  0  0
  8 12  1  0  0  0  0
  8 19  1  0  0  0  0
  9 11  1  0  0  0  0
  9 20  1  0  0  0  0
 10 11  1  0  0  0  0
 10 13  1  0  0  0  0
 10 21  1  0  0  0  0
 11 22  1  0  0  0  0
 11 23  1  0  0  0  0
 12 24  1  0  0  0  0
 12 25  1  0  0  0  0
 13 26  1  0  0  0  0
 13 27  1  0  0  0  0
 14 16  1  0  0  0  0
 15 28  1  0  0  0  0
 16 17  2  0  0  0  0
 18 31  1  0  0  0  0
M  END
> <PUBCHEM_COMPOUND_CID>
122100

> <PUBCHEM_CONFORMER_RMSD>
0.6

> <PUBCHEM_CONFORMER_DIVERSEORDER>
1
74
21
54
44
71
20
40
73
62
48
65
67
81
3
26
82
13
86
84
41
17
68
29
79
36
83
80
39
15
56
33
38
2
45
42
5
72
7
69
50
49
37
6
85
4
25
52
8
63
32
28
47
9
46
35
23
34
12
61
19
51
77
59
18
31
30
11
16
76
66
78
27
43
70
24
14
10
75
22
60
55
58
53
64
57

> <PUBCHEM_MMFF94_PARTIAL_CHARGES>
21
1 -0.68
12 0.28
13 0.28
14 0.11
15 0.04
16 0.23
17 0.41
18 0.47
2 -0.68
28 0.15
29 0.4
3 0.22
30 0.4
31 0.15
32 0.4
33 0.4
4 -0.57
5 -0.57
6 -0.62
7 -0.9
9 0.09

> <PUBCHEM_EFFECTIVE_ROTOR_COUNT>
3.8

> <PUBCHEM_PHARMACOPHORE_FEATURES>
12
1 1 acceptor
1 1 donor
1 2 acceptor
1 2 donor
1 7 cation
1 7 donor
3 3 4 15 cation
3 3 5 14 cation
3 5 6 18 cation
4 8 9 10 11 rings
5 3 4 14 15 16 rings
6 5 6 14 16 17 18 rings

> <PUBCHEM_HEAVY_ATOM_COUNT>
18

> <PUBCHEM_ATOM_DEF_STEREO_COUNT>
0

> <PUBCHEM_ATOM_UDEF_STEREO_COUNT>
3

> <PUBCHEM_BOND_DEF_STEREO_COUNT>
0

> <PUBCHEM_BOND_UDEF_STEREO_COUNT>
0

> <PUBCHEM_ISOTOPIC_ATOM_COUNT>
0

> <PUBCHEM_COMPONENT_COUNT>
1

> <PUBCHEM_CACTVS_TAUTO_COUNT>
3

> <PUBCHEM_CONFORMER_ID>
0001DCF400000001

> <PUBCHEM_MMFF94_ENERGY>
40.1043

> <PUBCHEM_FEATURE_SELFOVERLAP>
61.501

> <PUBCHEM_SHAPE_FINGERPRINT>
10498660 4 18187079563883072461
10608611 8 18408599270895180688
10871710 139 15596395255960834124
11132069 177 18260823838933659985
13296908 3 18410293639941225395
13544592 145 18337108969217425439
14790565 3 16971967186692801472
15196674 1 18335979843953771187
15219456 202 18411138068997344234
15375358 24 18335695100200986745
15375462 6 18412547634704608644
15536298 74 18410572898625127472
16945 1 18263639559094083945
18186145 218 18114457881867704053
19422 9 18060424590249019121
200 152 17632570518415602239
20281475 54 18131633400191921323
20645476 183 17022911129382659083
20645477 70 18343579637896425031
20671657 53 18199475368186390174
20693207 138 18410299068953785988
20871999 31 18265346001604771846
21618674 68 18409728499691886628
221490 88 18411145731741648890
22802520 49 18410863139725047922
23402539 116 18115575088919189984
23557571 272 18188212120830864329
23559900 14 18410007732932707688
2748010 2 18335142050131494979
3286 77 16988549183100450683
34934 24 18262788674860348593
5104073 3 18335699459751146041
58051976 378 18338231665295358660
633830 44 18337942399421780381
7364860 26 18342738516460567336
9709674 26 18409448119636313771

> <PUBCHEM_SHAPE_MULTIPOLES>
333.79
8.06
2.38
0.87
0.55
0.25
-0.05
0.75
-1.97
-1.59
-0.19
-0.18
0.16
1.31

> <PUBCHEM_SHAPE_SELFOVERLAP>
721.417

> <PUBCHEM_SHAPE_VOLUME>
181

> <PUBCHEM_COORDINATE_TYPE>
2
5
10

$$$$
