122173247
  -OEChem-03292013293D

 54 59  0     1  0  0  0  0  0999 V2000
    0.3798    1.7724    0.8700 O   0  0  0  0  0  0  0  0  0  0  0  0
    0.3060    0.0192   -2.1795 O   0  0  0  0  0  0  0  0  0  0  0  0
   -1.9199    1.9374    1.6234 O   0  0  0  0  0  0  0  0  0  0  0  0
    3.4235   -1.1922    1.6183 O   0  0  0  0  0  0  0  0  0  0  0  0
    3.0858    1.7825    0.9497 O   0  0  0  0  0  0  0  0  0  0  0  0
   -1.1179   -3.1554   -1.0507 O   0  0  0  0  0  0  0  0  0  0  0  0
   -2.7155    0.7376   -1.6045 O   0  0  0  0  0  0  0  0  0  0  0  0
    1.2802    2.1169   -2.1876 O   0  0  0  0  0  0  0  0  0  0  0  0
   -3.7147    2.5342    0.3200 O   0  0  0  0  0  0  0  0  0  0  0  0
    5.2066   -1.6564    0.2639 O   0  0  0  0  0  0  0  0  0  0  0  0
    0.2906   -0.3633    0.0473 C   0  0  2  0  0  0  0  0  0  0  0  0
   -1.1488    0.1302    0.3207 C   0  0  1  0  0  0  0  0  0  0  0  0
    1.0612    0.9037   -0.0713 C   0  0  2  0  0  0  0  0  0  0  0  0
    0.1707   -1.0771   -1.2541 C   0  0  1  0  0  0  0  0  0  0  0  0
   -1.8304   -1.2289    0.2564 C   0  0  2  0  0  0  0  0  0  0  0  0
    2.4818    0.6086    0.4201 C   0  0  2  0  0  0  0  0  0  0  0  0
    1.0252   -1.2109    1.1269 C   0  0  0  0  0  0  0  0  0  0  0  0
   -0.8009    1.0711    1.4365 C   0  0  1  0  0  0  0  0  0  0  0  0
   -1.2396   -1.7395   -1.1182 C   0  0  2  0  0  0  0  0  0  0  0  0
    2.2488   -0.3856    1.5439 C   0  0  1  0  0  0  0  0  0  0  0  0
   -1.8801    1.1978   -0.5782 C   0  0  2  0  0  0  0  0  0  0  0  0
    0.9329    1.1137   -1.5826 C   0  0  0  0  0  0  0  0  0  0  0  0
   -3.3444   -1.3260    0.3749 C   0  0  0  0  0  0  0  0  0  0  0  0
    3.4559   -0.1401   -0.4948 C   0  0  2  0  0  0  0  0  0  0  0  0
   -2.6484    1.9609    0.4674 C   0  0  0  0  0  0  0  0  0  0  0  0
    4.1568   -1.0668    0.4719 C   0  0  0  0  0  0  0  0  0  0  0  0
   -3.7215   -2.2628    1.5377 C   0  0  0  0  0  0  0  0  0  0  0  0
   -3.9411    0.0685    0.6412 C   0  0  0  0  0  0  0  0  0  0  0  0
   -3.9389   -1.8842   -0.9313 C   0  0  0  0  0  0  0  0  0  0  0  0
    4.4563    0.7344   -1.2374 C   0  0  0  0  0  0  0  0  0  0  0  0
    0.9529   -1.8092   -1.4746 H   0  0  0  0  0  0  0  0  0  0  0  0
   -1.4226   -1.8765    1.0430 H   0  0  0  0  0  0  0  0  0  0  0  0
    1.3257   -2.1924    0.7413 H   0  0  0  0  0  0  0  0  0  0  0  0
    0.4125   -1.4068    2.0128 H   0  0  0  0  0  0  0  0  0  0  0  0
   -0.5329    0.6109    2.3916 H   0  0  0  0  0  0  0  0  0  0  0  0
   -1.8053   -1.4838   -2.0146 H   0  0  0  0  0  0  0  0  0  0  0  0
    2.0961    0.0991    2.5148 H   0  0  0  0  0  0  0  0  0  0  0  0
   -1.2163    1.9413   -1.0246 H   0  0  0  0  0  0  0  0  0  0  0  0
    2.9352   -0.7849   -1.2080 H   0  0  0  0  0  0  0  0  0  0  0  0
    3.8804    1.5209    1.4454 H   0  0  0  0  0  0  0  0  0  0  0  0
   -0.6889   -3.4502   -1.8719 H   0  0  0  0  0  0  0  0  0  0  0  0
   -3.6508    0.4769    1.6107 H   0  0  0  0  0  0  0  0  0  0  0  0
   -3.5877   -2.8967   -1.1550 H   0  0  0  0  0  0  0  0  0  0  0  0
   -3.8225   -1.2565   -1.8149 H   0  0  0  0  0  0  0  0  0  0  0  0
   -5.0267   -1.9854   -0.8098 H   0  0  0  0  0  0  0  0  0  0  0  0
   -3.3404   -1.8826    2.4924 H   0  0  0  0  0  0  0  0  0  0  0  0
   -4.8080   -2.3707    1.6326 H   0  0  0  0  0  0  0  0  0  0  0  0
   -4.3261    0.5913   -0.2322 H   0  0  0  0  0  0  0  0  0  0  0  0
   -4.9700   -0.1812    0.9821 H   0  0  0  0  0  0  0  0  0  0  0  0
   -3.3073   -3.2664    1.3861 H   0  0  0  0  0  0  0  0  0  0  0  0
    5.1472    1.2401   -0.5542 H   0  0  0  0  0  0  0  0  0  0  0  0
    3.9492    1.4917   -1.8418 H   0  0  0  0  0  0  0  0  0  0  0  0
    5.0683    0.1238   -1.9107 H   0  0  0  0  0  0  0  0  0  0  0  0
   -3.0680    1.5129   -2.0739 H   0  0  0  0  0  0  0  0  0  0  0  0
  1 13  1  0  0  0  0
  1 18  1  0  0  0  0
  2 14  1  0  0  0  0
  2 22  1  0  0  0  0
  3 18  1  0  0  0  0
  3 25  1  0  0  0  0
  4 20  1  0  0  0  0
  4 26  1  0  0  0  0
  5 16  1  0  0  0  0
  5 40  1  0  0  0  0
  6 19  1  0  0  0  0
  6 41  1  0  0  0  0
  7 21  1  0  0  0  0
  7 54  1  0  0  0  0
  8 22  2  0  0  0  0
  9 25  2  0  0  0  0
 10 26  2  0  0  0  0
 11 12  1  0  0  0  0
 11 13  1  0  0  0  0
 11 14  1  0  0  0  0
 11 17  1  0  0  0  0
 12 15  1  0  0  0  0
 12 18  1  0  0  0  0
 12 21  1  0  0  0  0
 13 16  1  0  0  0  0
 13 22  1  0  0  0  0
 14 19  1  0  0  0  0
 14 31  1  0  0  0  0
 15 19  1  0  0  0  0
 15 23  1  0  0  0  0
 15 32  1  0  0  0  0
 16 20  1  0  0  0  0
 16 24  1  0  0  0  0
 17 20  1  0  0  0  0
 17 33  1  0  0  0  0
 17 34  1  0  0  0  0
 18 35  1  0  0  0  0
 19 36  1  0  0  0  0
 20 37  1  0  0  0  0
 21 25  1  0  0  0  0
 21 38  1  0  0  0  0
 23 27  1  0  0  0  0
 23 28  1  0  0  0  0
 23 29  1  0  0  0  0
 24 26  1  0  0  0  0
 24 30  1  0  0  0  0
 24 39  1  0  0  0  0
 27 46  1  0  0  0  0
 27 47  1  0  0  0  0
 27 50  1  0  0  0  0
 28 42  1  0  0  0  0
 28 48  1  0  0  0  0
 28 49  1  0  0  0  0
 29 43  1  0  0  0  0
 29 44  1  0  0  0  0
 29 45  1  0  0  0  0
 30 51  1  0  0  0  0
 30 52  1  0  0  0  0
 30 53  1  0  0  0  0
M  END
> <PUBCHEM_COMPOUND_CID>
122173247

> <PUBCHEM_CONFORMER_RMSD>
0.8

> <PUBCHEM_CONFORMER_DIVERSEORDER>
1

> <PUBCHEM_MMFF94_PARTIAL_CHARGES>
24
1 -0.56
10 -0.57
13 0.34
14 0.28
16 0.28
18 0.56
19 0.28
2 -0.43
20 0.28
21 0.34
22 0.66
24 0.06
25 0.66
26 0.66
3 -0.43
4 -0.43
40 0.4
41 0.4
5 -0.68
54 0.4
6 -0.68
7 -0.68
8 -0.57
9 -0.57

> <PUBCHEM_EFFECTIVE_ROTOR_COUNT>
2.8

> <PUBCHEM_PHARMACOPHORE_FEATURES>
17
1 1 acceptor
1 10 acceptor
1 5 acceptor
1 5 donor
1 6 acceptor
1 6 donor
1 7 acceptor
1 7 donor
1 8 acceptor
1 9 acceptor
4 23 27 28 29 hydrophobe
5 1 11 12 13 18 rings
5 11 12 14 15 19 rings
5 11 13 16 17 20 rings
5 2 11 13 14 22 rings
5 3 12 18 21 25 rings
5 4 16 20 24 26 rings

> <PUBCHEM_HEAVY_ATOM_COUNT>
30

> <PUBCHEM_ATOM_DEF_STEREO_COUNT>
11

> <PUBCHEM_ATOM_UDEF_STEREO_COUNT>
0

> <PUBCHEM_BOND_DEF_STEREO_COUNT>
0

> <PUBCHEM_BOND_UDEF_STEREO_COUNT>
0

> <PUBCHEM_ISOTOPIC_ATOM_COUNT>
0

> <PUBCHEM_COMPONENT_COUNT>
1

> <PUBCHEM_CACTVS_TAUTO_COUNT>
4

> <PUBCHEM_CONFORMER_ID>
0748373F00000001

> <PUBCHEM_MMFF94_ENERGY>
221.4808

> <PUBCHEM_FEATURE_SELFOVERLAP>
89.437

> <PUBCHEM_SHAPE_FINGERPRINT>
10863032 1 18335417958798908912
10948715 1 18129096728098380881
11578080 2 18117810352887837444
121448 382 11887371600109456301
12236239 1 18260272936073093753
12553582 1 18199185268340784451
12633257 1 17346329240297778715
12714826 92 18341048605268653723
12788726 201 18341057422667954162
13009979 54 18261968400288696385
13140716 1 18060136522566568713
13224815 77 18201152238802499978
13544653 18 18336261357395575875
13583140 156 18261097595585101360
14223421 5 17984408900633271352
14787075 74 17906165514254413144
16752209 62 18342447145473258667
16945 1 18201427103829862218
17349148 13 18413386532085664373
17357779 13 14345799378749597211
1813 80 18040722429075997310
20691752 17 17916041224922006143
21033648 29 17631714002999493762
22182313 1 17773615835682878255
23419403 2 16540100360424481548
23493267 7 18271248218387137825
23559900 14 17773329937232763878
2748010 2 17916042169719482311
350125 39 18411706486792481353
4340502 62 18126574423340488857
5104073 3 18411415094999873360
6034566 193 15868611026325915876
633830 44 12175623992711900576

> <PUBCHEM_SHAPE_MULTIPOLES>
558.69
7.64
2.56
1.77
3.6
0.09
0.37
2.14
-0.98
-1.68
0
0.18
-0.14
-0.84

> <PUBCHEM_SHAPE_SELFOVERLAP>
1292.034

> <PUBCHEM_SHAPE_VOLUME>
291.5

> <PUBCHEM_COORDINATE_TYPE>
2
5
10

$$$$
