122173089
  -OEChem-03292013293D

 44 47  0     1  0  0  0  0  0999 V2000
   -3.0695   -0.7332    1.0849 O   0  0  0  0  0  0  0  0  0  0  0  0
   -0.9509   -1.7738   -1.6162 O   0  0  0  0  0  0  0  0  0  0  0  0
   -2.4105   -3.4896   -0.0765 O   0  0  0  0  0  0  0  0  0  0  0  0
   -5.8601   -0.3945    0.9891 O   0  0  0  0  0  0  0  0  0  0  0  0
   -1.4582    0.8551    0.1641 N   0  0  0  0  0  0  0  0  0  0  0  0
   -1.6672    3.0659   -0.0295 N   0  0  0  0  0  0  0  0  0  0  0  0
    0.9610    0.6557    0.0781 N   0  0  0  0  0  0  0  0  0  0  0  0
    2.0220    2.8398   -0.1676 N   0  0  0  0  0  0  0  0  0  0  0  0
    3.2879    0.8729   -0.0422 N   0  0  0  0  0  0  0  0  0  0  0  0
    0.7647    4.8715   -0.2997 N   0  0  0  0  0  0  0  0  0  0  0  0
   -2.1333   -1.2755   -1.0231 C   0  0  2  0  0  0  0  0  0  0  0  0
   -1.8589   -0.5945    0.3127 C   0  0  2  0  0  0  0  0  0  0  0  0
   -3.1039   -2.3733   -0.6334 C   0  0  2  0  0  0  0  0  0  0  0  0
   -3.9345   -1.7029    0.4535 C   0  0  2  0  0  0  0  0  0  0  0  0
   -5.1521   -0.9710   -0.0943 C   0  0  0  0  0  0  0  0  0  0  0  0
   -0.1883    1.3474    0.0643 C   0  0  0  0  0  0  0  0  0  0  0  0
   -2.3111    1.9251    0.1027 C   0  0  0  0  0  0  0  0  0  0  0  0
   -0.3395    2.7197   -0.0548 C   0  0  0  0  0  0  0  0  0  0  0  0
    0.8242    3.4729   -0.1739 C   0  0  0  0  0  0  0  0  0  0  0  0
    2.0161    1.4906   -0.0438 C   0  0  0  0  0  0  0  0  0  0  0  0
    3.6923   -0.4696    0.0633 C   0  0  0  0  0  0  0  0  0  0  0  0
    4.9201   -0.7844    0.6456 C   0  0  0  0  0  0  0  0  0  0  0  0
    2.8659   -1.4864   -0.4147 C   0  0  0  0  0  0  0  0  0  0  0  0
    5.3215   -2.1163    0.7499 C   0  0  0  0  0  0  0  0  0  0  0  0
    3.2671   -2.8182   -0.3104 C   0  0  0  0  0  0  0  0  0  0  0  0
    4.4950   -3.1333    0.2719 C   0  0  0  0  0  0  0  0  0  0  0  0
   -2.6092   -0.5778   -1.7227 H   0  0  0  0  0  0  0  0  0  0  0  0
   -1.0400   -1.0666    0.8689 H   0  0  0  0  0  0  0  0  0  0  0  0
   -3.6883   -2.7425   -1.4815 H   0  0  0  0  0  0  0  0  0  0  0  0
   -4.2429   -2.4055    1.2359 H   0  0  0  0  0  0  0  0  0  0  0  0
   -4.8646   -0.1613   -0.7720 H   0  0  0  0  0  0  0  0  0  0  0  0
   -5.8188   -1.6620   -0.6195 H   0  0  0  0  0  0  0  0  0  0  0  0
   -1.2118   -2.2851   -2.4009 H   0  0  0  0  0  0  0  0  0  0  0  0
   -3.0798   -4.1399    0.1969 H   0  0  0  0  0  0  0  0  0  0  0  0
   -3.3855    1.8168    0.1562 H   0  0  0  0  0  0  0  0  0  0  0  0
   -6.6325    0.0633    0.6158 H   0  0  0  0  0  0  0  0  0  0  0  0
    4.0462    1.5471    0.0012 H   0  0  0  0  0  0  0  0  0  0  0  0
   -0.1278    5.3465   -0.3049 H   0  0  0  0  0  0  0  0  0  0  0  0
    1.6244    5.3964   -0.3850 H   0  0  0  0  0  0  0  0  0  0  0  0
    5.5731   -0.0014    1.0226 H   0  0  0  0  0  0  0  0  0  0  0  0
    1.9258   -1.2876   -0.9177 H   0  0  0  0  0  0  0  0  0  0  0  0
    6.2776   -2.3616    1.2029 H   0  0  0  0  0  0  0  0  0  0  0  0
    2.6287   -3.6097   -0.6922 H   0  0  0  0  0  0  0  0  0  0  0  0
    4.8085   -4.1701    0.3508 H   0  0  0  0  0  0  0  0  0  0  0  0
  1 12  1  0  0  0  0
  1 14  1  0  0  0  0
  2 11  1  0  0  0  0
  2 33  1  0  0  0  0
  3 13  1  0  0  0  0
  3 34  1  0  0  0  0
  4 15  1  0  0  0  0
  4 36  1  0  0  0  0
  5 12  1  0  0  0  0
  5 16  1  0  0  0  0
  5 17  1  0  0  0  0
  6 17  2  0  0  0  0
  6 18  1  0  0  0  0
  7 16  2  0  0  0  0
  7 20  1  0  0  0  0
  8 19  1  0  0  0  0
  8 20  2  0  0  0  0
  9 20  1  0  0  0  0
  9 21  1  0  0  0  0
  9 37  1  0  0  0  0
 10 19  1  0  0  0  0
 10 38  1  0  0  0  0
 10 39  1  0  0  0  0
 11 12  1  0  0  0  0
 11 13  1  0  0  0  0
 11 27  1  0  0  0  0
 12 28  1  0  0  0  0
 13 14  1  0  0  0  0
 13 29  1  0  0  0  0
 14 15  1  0  0  0  0
 14 30  1  0  0  0  0
 15 31  1  0  0  0  0
 15 32  1  0  0  0  0
 16 18  1  0  0  0  0
 17 35  1  0  0  0  0
 18 19  2  0  0  0  0
 21 22  2  0  0  0  0
 21 23  1  0  0  0  0
 22 24  1  0  0  0  0
 22 40  1  0  0  0  0
 23 25  2  0  0  0  0
 23 41  1  0  0  0  0
 24 26  2  0  0  0  0
 24 42  1  0  0  0  0
 25 26  1  0  0  0  0
 25 43  1  0  0  0  0
 26 44  1  0  0  0  0
M  END
> <PUBCHEM_COMPOUND_CID>
122173089

> <PUBCHEM_CONFORMER_RMSD>
0.8

> <PUBCHEM_CONFORMER_DIVERSEORDER>
1
10
42
37
18
27
30
17
58
33
60
14
5
43
3
13
16
40
64
38
66
2
20
53
45
48
25
7
19
36
6
54
56
44
59
31
4
24
46
12
23
21
67
29
61
47
39
26
8
50
49
22
51
15
34
52
62
9
55
32
41
35
28
57
65
11
63

> <PUBCHEM_MMFF94_PARTIAL_CHARGES>
38
1 -0.56
10 -0.9
11 0.28
12 0.54
13 0.28
14 0.28
15 0.28
16 0.11
17 0.04
18 0.23
19 0.41
2 -0.68
20 0.72
21 0.1
22 -0.15
23 -0.15
24 -0.15
25 -0.15
26 -0.15
3 -0.68
33 0.4
34 0.4
35 0.15
36 0.4
37 0.4
38 0.4
39 0.4
4 -0.68
40 0.15
41 0.15
42 0.15
43 0.15
44 0.15
5 0.05
6 -0.57
7 -0.57
8 -0.62
9 -0.6

> <PUBCHEM_EFFECTIVE_ROTOR_COUNT>
5

> <PUBCHEM_PHARMACOPHORE_FEATURES>
16
1 1 acceptor
1 10 cation
1 10 donor
1 2 acceptor
1 2 donor
1 3 acceptor
1 3 donor
1 4 acceptor
1 4 donor
1 9 donor
3 5 6 17 cation
4 7 8 9 20 cation
5 1 11 12 13 14 rings
5 5 6 16 17 18 rings
6 21 22 23 24 25 26 rings
6 7 8 16 18 19 20 rings

> <PUBCHEM_HEAVY_ATOM_COUNT>
26

> <PUBCHEM_ATOM_DEF_STEREO_COUNT>
4

> <PUBCHEM_ATOM_UDEF_STEREO_COUNT>
0

> <PUBCHEM_BOND_DEF_STEREO_COUNT>
0

> <PUBCHEM_BOND_UDEF_STEREO_COUNT>
0

> <PUBCHEM_ISOTOPIC_ATOM_COUNT>
0

> <PUBCHEM_COMPONENT_COUNT>
1

> <PUBCHEM_CACTVS_TAUTO_COUNT>
17

> <PUBCHEM_CONFORMER_ID>
074836A100000001

> <PUBCHEM_MMFF94_ENERGY>
78.5936

> <PUBCHEM_FEATURE_SELFOVERLAP>
81.348

> <PUBCHEM_SHAPE_FINGERPRINT>
10411042 1 18409730633979344298
10616163 171 18268147561806945542
11135926 11 18192706971990187524
11265709 11 18410293601402414756
12035758 1 18124329220358933801
12107183 9 18341060661916905347
12403259 327 16343697780883605282
12422481 6 18057343694876549331
12553582 1 18412262865535656230
12788726 201 18262817172073969486
13004483 165 18411693258034610418
13140716 1 17692246756863574232
13533116 47 17909546495942274455
13785724 45 18269857362180433103
138480 1 14880031823614847916
14117953 113 18271529706307234279
1454969 45 18337950208141998048
14844126 61 18192140495979184818
14866123 147 18195246607837930913
15042514 8 18266459797887780584
15352361 1 18410009914538905626
15927050 60 17331121006654464420
16120349 21 18126577716815072267
17818456 19 17916883377956636233
1813 80 17821730541649616116
19141452 34 18196092149085097800
19930381 70 18048877695223026162
20775530 9 18409721842655841586
21421861 104 18339090387902372804
21478907 32 18337390448389298777
21796203 349 17976015151863159368
2255824 54 18050570943483021100
23559900 14 18267017443509177217
314173 41 18339932613941118334
3421961 26 18338797922136078424
463206 1 18335142041774149722
5104073 3 18198612247590927034
5309563 4 18337675320717204890
563151 97 17548408663130155677
56633871 153 18343303656521022047
6443956 14 18335984254579261572
7097593 13 18270121343380209567
79837 15 17693382139715497281

> <PUBCHEM_SHAPE_MULTIPOLES>
481.7
10.3
5.18
0.86
1.71
4.37
-0.08
-10.56
2.64
0.86
-0.63
-0.32
-0.38
-0.44

> <PUBCHEM_SHAPE_SELFOVERLAP>
1053.674

> <PUBCHEM_SHAPE_VOLUME>
259.1

> <PUBCHEM_COORDINATE_TYPE>
2
5
10

$$$$
