122186907
  -OEChem-03292013293D

 75 77  0     1  0  0  0  0  0999 V2000
   -1.9417   -0.2638    0.8644 O   0  0  0  0  0  0  0  0  0  0  0  0
    1.9285    2.0826   -0.0546 O   0  0  0  0  0  0  0  0  0  0  0  0
    0.9356   -3.1973   -0.9641 O   0  0  0  0  0  0  0  0  0  0  0  0
   -1.0918    2.5260   -1.1430 O   0  0  0  0  0  0  0  0  0  0  0  0
    4.4466   -1.3807   -0.8721 O   0  0  0  0  0  0  0  0  0  0  0  0
   -5.5214   -0.3160   -1.1163 O   0  0  0  0  0  0  0  0  0  0  0  0
    1.9462    3.4910   -1.8859 O   0  0  0  0  0  0  0  0  0  0  0  0
    6.1622   -0.1184    0.0226 O   0  0  0  0  0  0  0  0  0  0  0  0
   -4.7770   -1.1385   -3.1426 O   0  0  0  0  0  0  0  0  0  0  0  0
    0.5133   -0.3146    1.3788 C   0  0  2  0  0  0  0  0  0  0  0  0
   -0.9136    0.4028    1.6482 C   0  0  1  0  0  0  0  0  0  0  0  0
    0.8809   -0.1560   -0.1638 C   0  0  2  0  0  0  0  0  0  0  0  0
    2.0900   -1.0237   -0.7135 C   0  0  2  0  0  0  0  0  0  0  0  0
    0.4348   -1.8416    1.6756 C   0  0  0  0  0  0  0  0  0  0  0  0
   -0.8368    1.9028    1.1882 C   0  0  1  0  0  0  0  0  0  0  0  0
    0.8969    1.3142   -0.6329 C   0  0  1  0  0  0  0  0  0  0  0  0
   -1.4022    0.2924    3.1081 C   0  0  0  0  0  0  0  0  0  0  0  0
    1.9563   -2.5017   -0.2411 C   0  0  1  0  0  0  0  0  0  0  0  0
    1.6695   -2.6372    1.2500 C   0  0  0  0  0  0  0  0  0  0  0  0
    1.5550    0.2900    2.3568 C   0  0  0  0  0  0  0  0  0  0  0  0
   -3.0578   -0.6566    1.6901 C   0  0  1  0  0  0  0  0  0  0  0  0
   -2.8999    0.0888    3.0060 C   0  0  0  0  0  0  0  0  0  0  0  0
   -0.4200    1.9639   -0.2780 C   0  0  0  0  0  0  0  0  0  0  0  0
    3.4896   -0.5034   -0.3217 C   0  0  0  0  0  0  0  0  0  0  0  0
    2.0645   -1.0153   -2.2692 C   0  0  0  0  0  0  0  0  0  0  0  0
   -2.0860    2.7631    1.3871 C   0  0  0  0  0  0  0  0  0  0  0  0
   -4.3550   -0.3004    0.9640 C   0  0  0  0  0  0  0  0  0  0  0  0
   -3.0280   -2.1744    1.9068 C   0  0  0  0  0  0  0  0  0  0  0  0
   -4.2962   -0.6894   -0.5013 C   0  0  0  0  0  0  0  0  0  0  0  0
    2.3701    3.1551   -0.7883 C   0  0  0  0  0  0  0  0  0  0  0  0
    5.7620   -1.0757   -0.6258 C   0  0  0  0  0  0  0  0  0  0  0  0
    3.4610    3.8741   -0.0541 C   0  0  0  0  0  0  0  0  0  0  0  0
    6.6603   -2.0886   -1.2685 C   0  0  0  0  0  0  0  0  0  0  0  0
   -5.6300   -0.6004   -2.4498 C   0  0  0  0  0  0  0  0  0  0  0  0
   -6.9662   -0.1532   -2.9603 C   0  0  0  0  0  0  0  0  0  0  0  0
    0.0080   -0.5915   -0.6792 H   0  0  0  0  0  0  0  0  0  0  0  0
   -0.4209   -2.2719    1.1469 H   0  0  0  0  0  0  0  0  0  0  0  0
    0.2726   -2.0260    2.7426 H   0  0  0  0  0  0  0  0  0  0  0  0
   -0.0499    2.4135    1.7552 H   0  0  0  0  0  0  0  0  0  0  0  0
    0.9682    1.3258   -1.7266 H   0  0  0  0  0  0  0  0  0  0  0  0
   -1.1374    1.1617    3.7187 H   0  0  0  0  0  0  0  0  0  0  0  0
   -0.9811   -0.5789    3.6165 H   0  0  0  0  0  0  0  0  0  0  0  0
    2.8730   -3.0606   -0.4593 H   0  0  0  0  0  0  0  0  0  0  0  0
    2.5440   -2.3349    1.8340 H   0  0  0  0  0  0  0  0  0  0  0  0
    1.4888   -3.6922    1.4928 H   0  0  0  0  0  0  0  0  0  0  0  0
    1.7602    1.3457    2.1803 H   0  0  0  0  0  0  0  0  0  0  0  0
    2.5107   -0.2296    2.3453 H   0  0  0  0  0  0  0  0  0  0  0  0
    1.2093    0.2127    3.3936 H   0  0  0  0  0  0  0  0  0  0  0  0
   -3.3046   -0.4591    3.8638 H   0  0  0  0  0  0  0  0  0  0  0  0
   -3.4145    1.0533    2.9878 H   0  0  0  0  0  0  0  0  0  0  0  0
    3.6352   -0.4716    0.7555 H   0  0  0  0  0  0  0  0  0  0  0  0
    3.6661    0.4969   -0.7279 H   0  0  0  0  0  0  0  0  0  0  0  0
    2.3941   -0.0542   -2.6787 H   0  0  0  0  0  0  0  0  0  0  0  0
    1.0571   -1.2090   -2.6546 H   0  0  0  0  0  0  0  0  0  0  0  0
    2.7221   -1.7852   -2.6900 H   0  0  0  0  0  0  0  0  0  0  0  0
   -2.9498    2.3560    0.8569 H   0  0  0  0  0  0  0  0  0  0  0  0
   -1.9219    3.7749    0.9966 H   0  0  0  0  0  0  0  0  0  0  0  0
   -2.3311    2.8785    2.4459 H   0  0  0  0  0  0  0  0  0  0  0  0
   -4.5364    0.7804    1.0065 H   0  0  0  0  0  0  0  0  0  0  0  0
   -5.2276   -0.7525    1.4523 H   0  0  0  0  0  0  0  0  0  0  0  0
   -2.8739   -2.7162    0.9681 H   0  0  0  0  0  0  0  0  0  0  0  0
   -3.9516   -2.5332    2.3740 H   0  0  0  0  0  0  0  0  0  0  0  0
   -2.2050   -2.4670    2.5664 H   0  0  0  0  0  0  0  0  0  0  0  0
    0.9357   -4.1217   -0.6624 H   0  0  0  0  0  0  0  0  0  0  0  0
   -4.1614   -1.7699   -0.6158 H   0  0  0  0  0  0  0  0  0  0  0  0
   -3.4800   -0.1685   -1.0146 H   0  0  0  0  0  0  0  0  0  0  0  0
    3.0811    4.2442    0.9014 H   0  0  0  0  0  0  0  0  0  0  0  0
    3.7994    4.7267   -0.6497 H   0  0  0  0  0  0  0  0  0  0  0  0
    4.3066    3.1998    0.1030 H   0  0  0  0  0  0  0  0  0  0  0  0
    6.4554   -3.0792   -0.8550 H   0  0  0  0  0  0  0  0  0  0  0  0
    7.7033   -1.8327   -1.0613 H   0  0  0  0  0  0  0  0  0  0  0  0
    6.5079   -2.0838   -2.3506 H   0  0  0  0  0  0  0  0  0  0  0  0
   -7.0695    0.9270   -2.8303 H   0  0  0  0  0  0  0  0  0  0  0  0
   -7.7614   -0.6830   -2.4301 H   0  0  0  0  0  0  0  0  0  0  0  0
   -7.0435   -0.3850   -4.0264 H   0  0  0  0  0  0  0  0  0  0  0  0
  1 11  1  0  0  0  0
  1 21  1  0  0  0  0
  2 16  1  0  0  0  0
  2 30  1  0  0  0  0
  3 18  1  0  0  0  0
  3 64  1  0  0  0  0
  4 23  2  0  0  0  0
  5 24  1  0  0  0  0
  5 31  1  0  0  0  0
  6 29  1  0  0  0  0
  6 34  1  0  0  0  0
  7 30  2  0  0  0  0
  8 31  2  0  0  0  0
  9 34  2  0  0  0  0
 10 11  1  0  0  0  0
 10 12  1  0  0  0  0
 10 14  1  0  0  0  0
 10 20  1  0  0  0  0
 11 15  1  0  0  0  0
 11 17  1  0  0  0  0
 12 13  1  0  0  0  0
 12 16  1  0  0  0  0
 12 36  1  0  0  0  0
 13 18  1  0  0  0  0
 13 24  1  0  0  0  0
 13 25  1  0  0  0  0
 14 19  1  0  0  0  0
 14 37  1  0  0  0  0
 14 38  1  0  0  0  0
 15 23  1  0  0  0  0
 15 26  1  0  0  0  0
 15 39  1  0  0  0  0
 16 23  1  0  0  0  0
 16 40  1  0  0  0  0
 17 22  1  0  0  0  0
 17 41  1  0  0  0  0
 17 42  1  0  0  0  0
 18 19  1  0  0  0  0
 18 43  1  0  0  0  0
 19 44  1  0  0  0  0
 19 45  1  0  0  0  0
 20 46  1  0  0  0  0
 20 47  1  0  0  0  0
 20 48  1  0  0  0  0
 21 22  1  0  0  0  0
 21 27  1  0  0  0  0
 21 28  1  0  0  0  0
 22 49  1  0  0  0  0
 22 50  1  0  0  0  0
 24 51  1  0  0  0  0
 24 52  1  0  0  0  0
 25 53  1  0  0  0  0
 25 54  1  0  0  0  0
 25 55  1  0  0  0  0
 26 56  1  0  0  0  0
 26 57  1  0  0  0  0
 26 58  1  0  0  0  0
 27 29  1  0  0  0  0
 27 59  1  0  0  0  0
 27 60  1  0  0  0  0
 28 61  1  0  0  0  0
 28 62  1  0  0  0  0
 28 63  1  0  0  0  0
 29 65  1  0  0  0  0
 29 66  1  0  0  0  0
 30 32  1  0  0  0  0
 31 33  1  0  0  0  0
 32 67  1  0  0  0  0
 32 68  1  0  0  0  0
 32 69  1  0  0  0  0
 33 70  1  0  0  0  0
 33 71  1  0  0  0  0
 33 72  1  0  0  0  0
 34 35  1  0  0  0  0
 35 73  1  0  0  0  0
 35 74  1  0  0  0  0
 35 75  1  0  0  0  0
M  END
> <PUBCHEM_COMPOUND_CID>
122186907

> <PUBCHEM_CONFORMER_RMSD>
1.2

> <PUBCHEM_CONFORMER_DIVERSEORDER>
1
4
6
3
2
5

> <PUBCHEM_MMFF94_PARTIAL_CHARGES>
24
1 -0.56
11 0.28
15 0.06
16 0.34
18 0.28
2 -0.43
21 0.28
23 0.45
24 0.28
29 0.28
3 -0.68
30 0.66
31 0.66
32 0.06
33 0.06
34 0.66
35 0.06
4 -0.57
5 -0.43
6 -0.43
64 0.4
7 -0.57
8 -0.57
9 -0.57

> <PUBCHEM_EFFECTIVE_ROTOR_COUNT>
11

> <PUBCHEM_PHARMACOPHORE_FEATURES>
10
1 1 acceptor
1 3 acceptor
1 3 donor
1 4 acceptor
1 7 acceptor
1 8 acceptor
1 9 acceptor
5 1 11 17 21 22 rings
6 10 11 12 15 16 23 rings
6 10 12 13 14 18 19 rings

> <PUBCHEM_HEAVY_ATOM_COUNT>
35

> <PUBCHEM_ATOM_DEF_STEREO_COUNT>
8

> <PUBCHEM_ATOM_UDEF_STEREO_COUNT>
0

> <PUBCHEM_BOND_DEF_STEREO_COUNT>
0

> <PUBCHEM_BOND_UDEF_STEREO_COUNT>
0

> <PUBCHEM_ISOTOPIC_ATOM_COUNT>
0

> <PUBCHEM_COMPONENT_COUNT>
1

> <PUBCHEM_CACTVS_TAUTO_COUNT>
16

> <PUBCHEM_CONFORMER_ID>
07486C9B00000001

> <PUBCHEM_MMFF94_ENERGY>
121.0986

> <PUBCHEM_FEATURE_SELFOVERLAP>
50.769

> <PUBCHEM_SHAPE_FINGERPRINT>
10764073 3 16156479512453946792
10930396 42 18187630437564955096
11578080 2 15864070957529749923
11720765 8 17681520711913115331
13140716 1 17975731511964767466
13782708 43 17986128318541393214
14068700 675 17988634164725468310
14747281 78 17531237340846152557
14787075 74 17489877029250657050
15324884 4 17532947214170708913
16945 1 18051169996714936954
17980427 23 18057630727398327784
21033648 29 17168706474225538500
21033650 10 15357986706468737977
21223535 225 18261387785873882541
22121540 332 17168684411020653460
22393880 68 17822008769879263131
23419403 2 17822860891485501324
23559900 14 18262247719561194000
3380486 145 17902825992788472960
513532 50 17531790429644287551
57527293 21 17700147508355726574
57527295 17 18041266679010641951
57527573 199 16516508032570568277
6086070 43 17895185636362019626
70251023 43 18343013376765649117

> <PUBCHEM_SHAPE_MULTIPOLES>
667.46
11.96
3.64
3.09
2.48
2.78
0.14
-5.86
10.49
-3.91
0.75
5.09
-0.53
-0.55

> <PUBCHEM_SHAPE_SELFOVERLAP>
1383.186

> <PUBCHEM_SHAPE_VOLUME>
377

> <PUBCHEM_COORDINATE_TYPE>
2
5
10

$$$$
