122184
  -OEChem-03292013323D

 70 72  0     1  0  0  0  0  0999 V2000
   -3.6153   -2.0857   -0.3378 O   0  0  0  0  0  0  0  0  0  0  0  0
   -3.0663   -3.0266    1.7440 O   0  0  0  0  0  0  0  0  0  0  0  0
   -1.1612   -1.1554   -1.2267 O   0  0  0  0  0  0  0  0  0  0  0  0
    0.1552   -1.0737   -3.1182 O   0  0  0  0  0  0  0  0  0  0  0  0
    2.8886    2.4878    0.1372 O   0  0  0  0  0  0  0  0  0  0  0  0
   -1.6458    1.9508    3.1890 O   0  0  0  0  0  0  0  0  0  0  0  0
   -0.5142    0.0458    2.6930 O   0  0  0  0  0  0  0  0  0  0  0  0
    1.4607    1.0742   -1.9739 N   0  0  0  0  0  0  0  0  0  0  0  0
    1.9877    0.7257    1.3460 N   0  0  0  0  0  0  0  0  0  0  0  0
   -2.5116   -2.9830   -0.4893 C   0  0  2  0  0  0  0  0  0  0  0  0
   -4.0515   -2.2725    1.0187 C   0  0  0  0  0  0  0  0  0  0  0  0
   -1.9162   -3.0270    0.8970 C   0  0  0  0  0  0  0  0  0  0  0  0
    0.0652    0.8331   -1.6021 C   0  0  1  0  0  0  0  0  0  0  0  0
   -1.5585   -2.4791   -1.5519 C   0  0  0  0  0  0  0  0  0  0  0  0
    2.3618    0.4314   -1.0311 C   0  0  1  0  0  0  0  0  0  0  0  0
   -0.8308    1.8979   -2.2488 C   0  0  0  0  0  0  0  0  0  0  0  0
   -4.2168   -0.9043    1.6680 C   0  0  0  0  0  0  0  0  0  0  0  0
   -5.3613   -3.0502    1.0245 C   0  0  0  0  0  0  0  0  0  0  0  0
    3.7467    0.2530   -1.6704 C   0  0  0  0  0  0  0  0  0  0  0  0
   -0.2909   -0.5569   -2.1016 C   0  0  0  0  0  0  0  0  0  0  0  0
    2.4435    1.3423    0.1900 C   0  0  0  0  0  0  0  0  0  0  0  0
   -2.1694    2.0419   -1.5638 C   0  0  0  0  0  0  0  0  0  0  0  0
    4.7351   -0.4217   -0.7485 C   0  0  0  0  0  0  0  0  0  0  0  0
   -3.2534    1.2697   -1.9817 C   0  0  0  0  0  0  0  0  0  0  0  0
   -2.3216    2.9466   -0.5129 C   0  0  0  0  0  0  0  0  0  0  0  0
    5.5277    0.3450    0.1058 C   0  0  0  0  0  0  0  0  0  0  0  0
    4.8549   -1.8115   -0.7511 C   0  0  0  0  0  0  0  0  0  0  0  0
    1.9957    1.3928    2.6260 C   0  0  0  0  0  0  0  0  0  0  0  0
   -4.4894    1.4024   -1.3491 C   0  0  0  0  0  0  0  0  0  0  0  0
   -3.5577    3.0790    0.1198 C   0  0  0  0  0  0  0  0  0  0  0  0
    0.7000    2.1505    2.8845 C   0  0  0  0  0  0  0  0  0  0  0  0
    6.4402   -0.2780    0.9573 C   0  0  0  0  0  0  0  0  0  0  0  0
    5.7674   -2.4344    0.1006 C   0  0  0  0  0  0  0  0  0  0  0  0
   -4.6416    2.3069   -0.2984 C   0  0  0  0  0  0  0  0  0  0  0  0
    6.5600   -1.6676    0.9546 C   0  0  0  0  0  0  0  0  0  0  0  0
   -0.5169    1.2510    2.9011 C   0  0  0  0  0  0  0  0  0  0  0  0
   -2.9128   -3.9648   -0.7683 H   0  0  0  0  0  0  0  0  0  0  0  0
   -1.3223   -2.1399    1.1395 H   0  0  0  0  0  0  0  0  0  0  0  0
   -1.3114   -3.9198    1.0768 H   0  0  0  0  0  0  0  0  0  0  0  0
   -0.0586    0.8700   -0.5133 H   0  0  0  0  0  0  0  0  0  0  0  0
   -0.6804   -3.1312   -1.6187 H   0  0  0  0  0  0  0  0  0  0  0  0
   -2.0732   -2.4580   -2.5197 H   0  0  0  0  0  0  0  0  0  0  0  0
    2.0001   -0.5652   -0.7469 H   0  0  0  0  0  0  0  0  0  0  0  0
    1.6287    0.7550   -2.9273 H   0  0  0  0  0  0  0  0  0  0  0  0
   -0.9886    1.6841   -3.3147 H   0  0  0  0  0  0  0  0  0  0  0  0
   -0.3340    2.8779   -2.2176 H   0  0  0  0  0  0  0  0  0  0  0  0
   -3.2901   -0.3256    1.5867 H   0  0  0  0  0  0  0  0  0  0  0  0
   -5.0059   -0.3267    1.1778 H   0  0  0  0  0  0  0  0  0  0  0  0
   -4.4521   -0.9960    2.7334 H   0  0  0  0  0  0  0  0  0  0  0  0
   -5.2260   -4.0349    0.5626 H   0  0  0  0  0  0  0  0  0  0  0  0
   -5.7187   -3.2192    2.0456 H   0  0  0  0  0  0  0  0  0  0  0  0
   -6.1360   -2.5287    0.4527 H   0  0  0  0  0  0  0  0  0  0  0  0
    4.1599    1.2228   -1.9816 H   0  0  0  0  0  0  0  0  0  0  0  0
    3.6627   -0.3388   -2.5921 H   0  0  0  0  0  0  0  0  0  0  0  0
    1.6289   -0.2236    1.3073 H   0  0  0  0  0  0  0  0  0  0  0  0
   -3.1488    0.5616   -2.7994 H   0  0  0  0  0  0  0  0  0  0  0  0
   -1.4835    3.5501   -0.1746 H   0  0  0  0  0  0  0  0  0  0  0  0
    5.4543    1.4288    0.1136 H   0  0  0  0  0  0  0  0  0  0  0  0
    4.2410   -2.4196   -1.4102 H   0  0  0  0  0  0  0  0  0  0  0  0
    2.1469    0.6194    3.3868 H   0  0  0  0  0  0  0  0  0  0  0  0
    2.8457    2.0822    2.6696 H   0  0  0  0  0  0  0  0  0  0  0  0
   -5.3326    0.7994   -1.6731 H   0  0  0  0  0  0  0  0  0  0  0  0
   -3.6755    3.7812    0.9399 H   0  0  0  0  0  0  0  0  0  0  0  0
    0.7661    2.6501    3.8571 H   0  0  0  0  0  0  0  0  0  0  0  0
    0.5463    2.9060    2.1056 H   0  0  0  0  0  0  0  0  0  0  0  0
    7.0588    0.3191    1.6210 H   0  0  0  0  0  0  0  0  0  0  0  0
    5.8603   -3.5164    0.0992 H   0  0  0  0  0  0  0  0  0  0  0  0
   -5.6035    2.4084    0.1956 H   0  0  0  0  0  0  0  0  0  0  0  0
    7.2707   -2.1526    1.6174 H   0  0  0  0  0  0  0  0  0  0  0  0
   -2.4397    1.3749    3.2042 H   0  0  0  0  0  0  0  0  0  0  0  0
  1 10  1  0  0  0  0
  1 11  1  0  0  0  0
  2 11  1  0  0  0  0
  2 12  1  0  0  0  0
  3 14  1  0  0  0  0
  3 20  1  0  0  0  0
  4 20  2  0  0  0  0
  5 21  2  0  0  0  0
  6 36  1  0  0  0  0
  6 70  1  0  0  0  0
  7 36  2  0  0  0  0
  8 13  1  0  0  0  0
  8 15  1  0  0  0  0
  8 44  1  0  0  0  0
  9 21  1  0  0  0  0
  9 28  1  0  0  0  0
  9 55  1  0  0  0  0
 10 12  1  0  0  0  0
 10 14  1  0  0  0  0
 10 37  1  0  0  0  0
 11 17  1  0  0  0  0
 11 18  1  0  0  0  0
 12 38  1  0  0  0  0
 12 39  1  0  0  0  0
 13 16  1  0  0  0  0
 13 20  1  0  0  0  0
 13 40  1  0  0  0  0
 14 41  1  0  0  0  0
 14 42  1  0  0  0  0
 15 19  1  0  0  0  0
 15 21  1  0  0  0  0
 15 43  1  0  0  0  0
 16 22  1  0  0  0  0
 16 45  1  0  0  0  0
 16 46  1  0  0  0  0
 17 47  1  0  0  0  0
 17 48  1  0  0  0  0
 17 49  1  0  0  0  0
 18 50  1  0  0  0  0
 18 51  1  0  0  0  0
 18 52  1  0  0  0  0
 19 23  1  0  0  0  0
 19 53  1  0  0  0  0
 19 54  1  0  0  0  0
 22 24  2  0  0  0  0
 22 25  1  0  0  0  0
 23 26  2  0  0  0  0
 23 27  1  0  0  0  0
 24 29  1  0  0  0  0
 24 56  1  0  0  0  0
 25 30  2  0  0  0  0
 25 57  1  0  0  0  0
 26 32  1  0  0  0  0
 26 58  1  0  0  0  0
 27 33  2  0  0  0  0
 27 59  1  0  0  0  0
 28 31  1  0  0  0  0
 28 60  1  0  0  0  0
 28 61  1  0  0  0  0
 29 34  2  0  0  0  0
 29 62  1  0  0  0  0
 30 34  1  0  0  0  0
 30 63  1  0  0  0  0
 31 36  1  0  0  0  0
 31 64  1  0  0  0  0
 31 65  1  0  0  0  0
 32 35  2  0  0  0  0
 32 66  1  0  0  0  0
 33 35  1  0  0  0  0
 33 67  1  0  0  0  0
 34 68  1  0  0  0  0
 35 69  1  0  0  0  0
M  END
> <PUBCHEM_COMPOUND_CID>
122184

> <PUBCHEM_CONFORMER_RMSD>
1.4

> <PUBCHEM_CONFORMER_DIVERSEORDER>
1
66
67
65
57
64
13
63
36
9
32
34
46
23
30
51
17
60
27
21
7
40
16
35
55
45
47
24
31
68
52
5
62
4
18
33
43
50
14
48
69
53
61
54
12
28
42
20
49
22
11
10
26
2
25
56
29
41
59
58
44
19
6
70
39
15
8
3
38
37

> <PUBCHEM_MMFF94_PARTIAL_CHARGES>
47
1 -0.56
10 0.28
11 0.56
12 0.28
13 0.33
14 0.28
15 0.33
16 0.14
19 0.14
2 -0.56
20 0.66
21 0.57
22 -0.14
23 -0.14
24 -0.15
25 -0.15
26 -0.15
27 -0.15
28 0.3
29 -0.15
3 -0.43
30 -0.15
31 0.06
32 -0.15
33 -0.15
34 -0.15
35 -0.15
36 0.66
4 -0.57
44 0.36
5 -0.57
55 0.37
56 0.15
57 0.15
58 0.15
59 0.15
6 -0.65
62 0.15
63 0.15
66 0.15
67 0.15
68 0.15
69 0.15
7 -0.57
70 0.5
8 -0.9
9 -0.73

> <PUBCHEM_EFFECTIVE_ROTOR_COUNT>
16

> <PUBCHEM_PHARMACOPHORE_FEATURES>
14
1 1 acceptor
1 2 acceptor
1 4 acceptor
1 5 acceptor
1 6 acceptor
1 7 acceptor
1 8 cation
1 8 donor
1 9 donor
3 11 17 18 hydrophobe
3 6 7 36 anion
5 1 2 10 11 12 rings
6 22 24 25 29 30 34 rings
6 23 26 27 32 33 35 rings

> <PUBCHEM_HEAVY_ATOM_COUNT>
36

> <PUBCHEM_ATOM_DEF_STEREO_COUNT>
1

> <PUBCHEM_ATOM_UDEF_STEREO_COUNT>
2

> <PUBCHEM_BOND_DEF_STEREO_COUNT>
0

> <PUBCHEM_BOND_UDEF_STEREO_COUNT>
0

> <PUBCHEM_ISOTOPIC_ATOM_COUNT>
0

> <PUBCHEM_COMPONENT_COUNT>
1

> <PUBCHEM_CACTVS_TAUTO_COUNT>
2

> <PUBCHEM_CONFORMER_ID>
0001DD4800000001

> <PUBCHEM_MMFF94_ENERGY>
72.1055

> <PUBCHEM_FEATURE_SELFOVERLAP>
71.146

> <PUBCHEM_SHAPE_FINGERPRINT>
11578080 2 18340764944502327320
12128747 34 18340481175690989566
12156800 1 18189035630066856481
12633257 1 17202496673796535199
13383661 66 15793446134559325514
18603816 31 17533205377019732626
19315092 285 15980848068839298542
20764821 26 16988275499041739385
208703 8 17386295401793910459
2818148 4 17386549272573009690
35225 105 17832094547460275277
445580 42 17989202608190137256
484985 159 17676478450161704383
5104073 3 18261944211950542836
513202 73 18186806902517071179
563151 248 17677057823721366728
56638632 10 17060049393647435894
6009941 240 18337101273142433118
7226269 152 16987700317601818300

> <PUBCHEM_SHAPE_MULTIPOLES>
689.82
12.7
4.1
3.17
16.33
1.85
-1.57
6.18
-1.48
-5.6
-0.64
-0.8
-1.26
1.76

> <PUBCHEM_SHAPE_SELFOVERLAP>
1438.643

> <PUBCHEM_SHAPE_VOLUME>
389.9

> <PUBCHEM_COORDINATE_TYPE>
2
5
10

$$$$
