122165
  -OEChem-03292013323D

 56 57  0     1  0  0  0  0  0999 V2000
    3.4119    0.6234   -1.4411 O   0  0  0  0  0  0  0  0  0  0  0  0
   -0.8010    0.0701   -1.5121 O   0  0  0  0  0  0  0  0  0  0  0  0
    2.3452    1.7641    1.7564 O   0  0  0  0  0  0  0  0  0  0  0  0
   -4.1257   -1.8439   -1.8453 O   0  0  0  0  0  0  0  0  0  0  0  0
   -4.3390    0.1676   -0.7946 O   0  0  0  0  0  0  0  0  0  0  0  0
    3.4713   -1.2985    1.3732 O   0  0  0  0  0  0  0  0  0  0  0  0
   -1.9595   -0.2924    0.4584 N   0  0  0  0  0  0  0  0  0  0  0  0
    1.1364    1.3032   -0.1818 N   0  0  0  0  0  0  0  0  0  0  0  0
    3.1484   -2.1024   -0.7882 N   0  0  0  0  0  0  0  0  0  0  0  0
   -2.7203   -1.4454   -0.0052 C   0  0  1  0  0  0  0  0  0  0  0  0
   -0.1844    1.3919    0.3697 C   0  0  1  0  0  0  0  0  0  0  0  0
   -3.2832   -2.0740    1.2642 C   0  0  0  0  0  0  0  0  0  0  0  0
   -2.2285   -0.0157    1.8672 C   0  0  0  0  0  0  0  0  0  0  0  0
   -3.4256   -0.8877    2.2146 C   0  0  0  0  0  0  0  0  0  0  0  0
   -0.8353    2.7801    0.2401 C   0  0  2  0  0  0  0  0  0  0  0  0
    3.5580    1.3549   -0.2171 C   0  0  2  0  0  0  0  0  0  0  0  0
   -0.9997    0.3302   -0.3242 C   0  0  0  0  0  0  0  0  0  0  0  0
    4.1981    0.0110   -0.4108 C   0  0  1  0  0  0  0  0  0  0  0  0
    2.2925    1.4975    0.5615 C   0  0  0  0  0  0  0  0  0  0  0  0
   -0.5828    3.4356   -1.1362 C   0  0  0  0  0  0  0  0  0  0  0  0
   -0.3571    3.6796    1.3875 C   0  0  0  0  0  0  0  0  0  0  0  0
   -3.8068   -0.9275   -0.8989 C   0  0  0  0  0  0  0  0  0  0  0  0
    3.5724   -1.1879    0.1569 C   0  0  0  0  0  0  0  0  0  0  0  0
   -1.2960    4.7700   -1.3136 C   0  0  0  0  0  0  0  0  0  0  0  0
    2.5078   -3.3524   -0.4469 C   0  0  0  0  0  0  0  0  0  0  0  0
    0.9921   -3.2222   -0.3570 C   0  0  0  0  0  0  0  0  0  0  0  0
    0.3110   -4.5291    0.0234 C   0  0  0  0  0  0  0  0  0  0  0  0
   -2.0636   -2.1171   -0.5677 H   0  0  0  0  0  0  0  0  0  0  0  0
   -0.0863    1.1325    1.4274 H   0  0  0  0  0  0  0  0  0  0  0  0
   -2.5574   -2.7844    1.6787 H   0  0  0  0  0  0  0  0  0  0  0  0
   -4.2309   -2.5994    1.1128 H   0  0  0  0  0  0  0  0  0  0  0  0
   -1.3523   -0.3233    2.4485 H   0  0  0  0  0  0  0  0  0  0  0  0
   -2.4211    1.0467    2.0350 H   0  0  0  0  0  0  0  0  0  0  0  0
   -3.4380   -1.1848    3.2670 H   0  0  0  0  0  0  0  0  0  0  0  0
   -4.3575   -0.3500    2.0034 H   0  0  0  0  0  0  0  0  0  0  0  0
   -1.9214    2.6685    0.3591 H   0  0  0  0  0  0  0  0  0  0  0  0
    4.2020    2.2261   -0.2326 H   0  0  0  0  0  0  0  0  0  0  0  0
    5.2729   -0.0161   -0.5435 H   0  0  0  0  0  0  0  0  0  0  0  0
    1.2316    1.1017   -1.1738 H   0  0  0  0  0  0  0  0  0  0  0  0
    0.4899    3.5980   -1.2951 H   0  0  0  0  0  0  0  0  0  0  0  0
   -0.9249    2.7598   -1.9284 H   0  0  0  0  0  0  0  0  0  0  0  0
    0.6941    3.9599    1.2673 H   0  0  0  0  0  0  0  0  0  0  0  0
   -0.9460    4.6009    1.4374 H   0  0  0  0  0  0  0  0  0  0  0  0
   -0.4713    3.1804    2.3558 H   0  0  0  0  0  0  0  0  0  0  0  0
   -1.1773    5.1228   -2.3433 H   0  0  0  0  0  0  0  0  0  0  0  0
   -0.8829    5.5391   -0.6548 H   0  0  0  0  0  0  0  0  0  0  0  0
   -2.3673    4.6739   -1.1107 H   0  0  0  0  0  0  0  0  0  0  0  0
    3.2816   -1.8918   -1.7731 H   0  0  0  0  0  0  0  0  0  0  0  0
    2.7821   -4.0759   -1.2219 H   0  0  0  0  0  0  0  0  0  0  0  0
    2.9141   -3.7077    0.5068 H   0  0  0  0  0  0  0  0  0  0  0  0
   -4.8369   -1.5239   -2.4402 H   0  0  0  0  0  0  0  0  0  0  0  0
    0.5949   -2.8739   -1.3182 H   0  0  0  0  0  0  0  0  0  0  0  0
    0.7299   -2.4555    0.3824 H   0  0  0  0  0  0  0  0  0  0  0  0
   -0.7735   -4.3916    0.0747 H   0  0  0  0  0  0  0  0  0  0  0  0
    0.6566   -4.8791    1.0012 H   0  0  0  0  0  0  0  0  0  0  0  0
    0.5216   -5.3085   -0.7157 H   0  0  0  0  0  0  0  0  0  0  0  0
  1 16  1  0  0  0  0
  1 18  1  0  0  0  0
  2 17  2  0  0  0  0
  3 19  2  0  0  0  0
  4 22  1  0  0  0  0
  4 51  1  0  0  0  0
  5 22  2  0  0  0  0
  6 23  2  0  0  0  0
  7 10  1  0  0  0  0
  7 13  1  0  0  0  0
  7 17  1  0  0  0  0
  8 11  1  0  0  0  0
  8 19  1  0  0  0  0
  8 39  1  0  0  0  0
  9 23  1  0  0  0  0
  9 25  1  0  0  0  0
  9 48  1  0  0  0  0
 10 12  1  0  0  0  0
 10 22  1  0  0  0  0
 10 28  1  0  0  0  0
 11 15  1  0  0  0  0
 11 17  1  0  0  0  0
 11 29  1  0  0  0  0
 12 14  1  0  0  0  0
 12 30  1  0  0  0  0
 12 31  1  0  0  0  0
 13 14  1  0  0  0  0
 13 32  1  0  0  0  0
 13 33  1  0  0  0  0
 14 34  1  0  0  0  0
 14 35  1  0  0  0  0
 15 20  1  0  0  0  0
 15 21  1  0  0  0  0
 15 36  1  0  0  0  0
 16 18  1  0  0  0  0
 16 19  1  0  0  0  0
 16 37  1  0  0  0  0
 18 23  1  0  0  0  0
 18 38  1  0  0  0  0
 20 24  1  0  0  0  0
 20 40  1  0  0  0  0
 20 41  1  0  0  0  0
 21 42  1  0  0  0  0
 21 43  1  0  0  0  0
 21 44  1  0  0  0  0
 24 45  1  0  0  0  0
 24 46  1  0  0  0  0
 24 47  1  0  0  0  0
 25 26  1  0  0  0  0
 25 49  1  0  0  0  0
 25 50  1  0  0  0  0
 26 27  1  0  0  0  0
 26 52  1  0  0  0  0
 26 53  1  0  0  0  0
 27 54  1  0  0  0  0
 27 55  1  0  0  0  0
 27 56  1  0  0  0  0
M  END
> <PUBCHEM_COMPOUND_CID>
122165

> <PUBCHEM_CONFORMER_RMSD>
1.2

> <PUBCHEM_CONFORMER_DIVERSEORDER>
1
62
63
60
40
52
50
23
39
34
56
32
47
57
55
29
53
49
48
42
8
61
38
33
43
15
59
14
31
37
30
17
41
9
51
36
54
19
46
10
45
44
58
35
16
18
28
26
4
11
22
24
13
27
6
21
3
12
5
20
2
25
7

> <PUBCHEM_MMFF94_PARTIAL_CHARGES>
24
1 -0.3
10 0.36
11 0.36
13 0.3
16 0.05
17 0.57
18 0.05
19 0.63
2 -0.57
22 0.66
23 0.63
25 0.3
3 -0.57
37 0.1
38 0.1
39 0.37
4 -0.65
48 0.37
5 -0.57
51 0.5
6 -0.57
7 -0.66
8 -0.73
9 -0.73

> <PUBCHEM_EFFECTIVE_ROTOR_COUNT>
13.6

> <PUBCHEM_PHARMACOPHORE_FEATURES>
13
1 1 acceptor
1 2 acceptor
1 21 hydrophobe
1 24 hydrophobe
1 27 hydrophobe
1 3 acceptor
1 4 acceptor
1 5 acceptor
1 6 acceptor
1 8 donor
1 9 donor
3 4 5 22 anion
5 7 10 12 13 14 rings

> <PUBCHEM_HEAVY_ATOM_COUNT>
27

> <PUBCHEM_ATOM_DEF_STEREO_COUNT>
4

> <PUBCHEM_ATOM_UDEF_STEREO_COUNT>
1

> <PUBCHEM_BOND_DEF_STEREO_COUNT>
0

> <PUBCHEM_BOND_UDEF_STEREO_COUNT>
0

> <PUBCHEM_ISOTOPIC_ATOM_COUNT>
0

> <PUBCHEM_COMPONENT_COUNT>
1

> <PUBCHEM_CACTVS_TAUTO_COUNT>
4

> <PUBCHEM_CONFORMER_ID>
0001DD3500000001

> <PUBCHEM_MMFF94_ENERGY>
39.0151

> <PUBCHEM_FEATURE_SELFOVERLAP>
66.03

> <PUBCHEM_SHAPE_FINGERPRINT>
10764073 3 17185916820672025761
12422481 6 17619100255831074529
12553582 1 18339935890979975122
12596599 1 17632304492236321766
12788726 201 18191293888999911841
13122387 1 15960344938893465026
14178342 30 17478044321108977128
1813 80 18195833935498430965
20600515 1 17982481435312146300
21285901 2 18041262314959691319
23558518 356 17973154037444251573
23559900 14 18408035208898813556
3027735 51 18267576914812934051
38695281 34 17470452201683044532
463206 1 18341043120638193111
5309563 4 18335993076537280091
81228 2 18333725793404039625
9709674 26 18264210197360757206

> <PUBCHEM_SHAPE_MULTIPOLES>
505.49
7.4
5.65
1.68
1.04
1.54
0.39
-3.95
-0.51
-0.17
-1.12
-1.29
0.31
0.67

> <PUBCHEM_SHAPE_SELFOVERLAP>
1021.915

> <PUBCHEM_SHAPE_VOLUME>
295.5

> <PUBCHEM_COORDINATE_TYPE>
2
5
10

$$$$
