122185
  -OEChem-03292013323D

 47 47  0     1  0  0  0  0  0999 V2000
   -1.9833   -1.6446    1.8776 O   0  0  0  0  0  0  0  0  0  0  0  0
   -4.5848   -0.4219   -0.8366 O   0  0  0  0  0  0  0  0  0  0  0  0
   -1.9178   -0.7576   -0.2639 N   0  0  0  0  0  0  0  0  0  0  0  0
   -1.9523   -3.5322   -0.8628 N   0  0  0  0  0  0  0  0  0  0  0  0
    3.5358   -0.9640    0.6372 N   0  0  0  0  0  0  0  0  0  0  0  0
   -4.7233    1.0007    0.9616 N   0  0  0  0  0  0  0  0  0  0  0  0
    5.1934   -0.7430   -1.0871 N   0  0  0  0  0  0  0  0  0  0  0  0
    5.6019    0.0122    1.0242 N   0  0  0  0  0  0  0  0  0  0  0  0
   -1.0052   -2.9727    0.1034 C   0  0  1  0  0  0  0  0  0  0  0  0
    0.3206   -2.6315   -0.5925 C   0  0  0  0  0  0  0  0  0  0  0  0
   -2.5308    0.5049    0.0730 C   0  0  1  0  0  0  0  0  0  0  0  0
    1.3193   -1.9689    0.3668 C   0  0  0  0  0  0  0  0  0  0  0  0
   -2.0839    1.6340   -0.8625 C   0  0  0  0  0  0  0  0  0  0  0  0
   -1.6927   -1.7428    0.6868 C   0  0  0  0  0  0  0  0  0  0  0  0
   -0.7228    2.1816   -0.5081 C   0  0  0  0  0  0  0  0  0  0  0  0
    2.6332   -1.6080   -0.3188 C   0  0  0  0  0  0  0  0  0  0  0  0
   -4.0372    0.3091   -0.0146 C   0  0  0  0  0  0  0  0  0  0  0  0
    0.4230    1.6242   -1.0759 C   0  0  0  0  0  0  0  0  0  0  0  0
   -0.6105    3.2450    0.3876 C   0  0  0  0  0  0  0  0  0  0  0  0
    1.6807    2.1302   -0.7479 C   0  0  0  0  0  0  0  0  0  0  0  0
    0.6473    3.7511    0.7154 C   0  0  0  0  0  0  0  0  0  0  0  0
    1.7929    3.1937    0.1478 C   0  0  0  0  0  0  0  0  0  0  0  0
    4.6966   -0.5994    0.1892 C   0  0  0  0  0  0  0  0  0  0  0  0
   -0.8337   -3.6944    0.9100 H   0  0  0  0  0  0  0  0  0  0  0  0
    0.7667   -3.5530   -0.9890 H   0  0  0  0  0  0  0  0  0  0  0  0
    0.1615   -1.9717   -1.4545 H   0  0  0  0  0  0  0  0  0  0  0  0
   -2.2687    0.7457    1.1114 H   0  0  0  0  0  0  0  0  0  0  0  0
    0.8884   -1.0569    0.7967 H   0  0  0  0  0  0  0  0  0  0  0  0
    1.5207   -2.6431    1.2088 H   0  0  0  0  0  0  0  0  0  0  0  0
   -2.8070    2.4604   -0.8284 H   0  0  0  0  0  0  0  0  0  0  0  0
   -2.0852    1.2977   -1.9083 H   0  0  0  0  0  0  0  0  0  0  0  0
   -1.7460   -0.9612   -1.2439 H   0  0  0  0  0  0  0  0  0  0  0  0
    3.0910   -2.5248   -0.7104 H   0  0  0  0  0  0  0  0  0  0  0  0
    2.4275   -0.9376   -1.1612 H   0  0  0  0  0  0  0  0  0  0  0  0
   -1.5476   -4.3619   -1.2952 H   0  0  0  0  0  0  0  0  0  0  0  0
   -2.7911   -3.8475   -0.3763 H   0  0  0  0  0  0  0  0  0  0  0  0
    0.3491    0.7962   -1.7758 H   0  0  0  0  0  0  0  0  0  0  0  0
   -1.4955    3.6860    0.8385 H   0  0  0  0  0  0  0  0  0  0  0  0
    2.5731    1.6985   -1.1913 H   0  0  0  0  0  0  0  0  0  0  0  0
    0.7348    4.5785    1.4134 H   0  0  0  0  0  0  0  0  0  0  0  0
   -5.7343    0.9443    1.0257 H   0  0  0  0  0  0  0  0  0  0  0  0
   -4.2581    1.5989    1.6368 H   0  0  0  0  0  0  0  0  0  0  0  0
    2.7724    3.5873    0.4030 H   0  0  0  0  0  0  0  0  0  0  0  0
    6.1237   -0.4165   -1.3255 H   0  0  0  0  0  0  0  0  0  0  0  0
    4.6566   -1.1738   -1.8313 H   0  0  0  0  0  0  0  0  0  0  0  0
    6.5144    0.3056    0.6933 H   0  0  0  0  0  0  0  0  0  0  0  0
    5.3798    0.1887    1.9979 H   0  0  0  0  0  0  0  0  0  0  0  0
  1 14  2  0  0  0  0
  2 17  2  0  0  0  0
  3 11  1  0  0  0  0
  3 14  1  0  0  0  0
  3 32  1  0  0  0  0
  4  9  1  0  0  0  0
  4 35  1  0  0  0  0
  4 36  1  0  0  0  0
  5 16  1  0  0  0  0
  5 23  2  0  0  0  0
  6 17  1  0  0  0  0
  6 41  1  0  0  0  0
  6 42  1  0  0  0  0
  7 23  1  0  0  0  0
  7 44  1  0  0  0  0
  7 45  1  0  0  0  0
  8 23  1  0  0  0  0
  8 46  1  0  0  0  0
  8 47  1  0  0  0  0
  9 10  1  0  0  0  0
  9 14  1  0  0  0  0
  9 24  1  0  0  0  0
 10 12  1  0  0  0  0
 10 25  1  0  0  0  0
 10 26  1  0  0  0  0
 11 13  1  0  0  0  0
 11 17  1  0  0  0  0
 11 27  1  0  0  0  0
 12 16  1  0  0  0  0
 12 28  1  0  0  0  0
 12 29  1  0  0  0  0
 13 15  1  0  0  0  0
 13 30  1  0  0  0  0
 13 31  1  0  0  0  0
 15 18  2  0  0  0  0
 15 19  1  0  0  0  0
 16 33  1  0  0  0  0
 16 34  1  0  0  0  0
 18 20  1  0  0  0  0
 18 37  1  0  0  0  0
 19 21  2  0  0  0  0
 19 38  1  0  0  0  0
 20 22  2  0  0  0  0
 20 39  1  0  0  0  0
 21 22  1  0  0  0  0
 21 40  1  0  0  0  0
 22 43  1  0  0  0  0
M  END
> <PUBCHEM_COMPOUND_CID>
122185

> <PUBCHEM_CONFORMER_RMSD>
1

> <PUBCHEM_CONFORMER_DIVERSEORDER>
2
136
57
89
30
157
213
99
129
95
74
169
55
145
83
167
77
197
90
212
22
54
120
14
201
188
103
13
45
137
82
119
140
193
104
217
134
40
52
173
189
93
141
62
75
158
161
92
144
130
5
146
215
87
33
143
142
43
170
59
67
71
80
162
102
147
69
177
20
152
38
9
11
180
66
85
36
149
179
181
68
131
122
151
198
148
31
42
116
91
106
39
183
155
206
78
207
194
112
18
202
47
154
187
79
70
164
128
46
26
218
165
65
184
209
216
214
15
21
8
35
23
73
166
135
27
50
132
211
172
117
219
32
126
208
25
114
192
111
97
178
107
138
51
124
76
56
115
10
3
41
159
110
19
12
109
44
34
174
204
127
37
118
176
4
108
203
163
123
113
105
205
1
195
100
53
29
60
7
171
191
49
28
96
199
150
200
125
86
121
64
175
156
153
101
72
210
185
16
160
186
84
63
88
94
182
17
196
6
58
81
133
61
98
190
48
24
139
168

> <PUBCHEM_MMFF94_PARTIAL_CHARGES>
35
1 -0.57
11 0.36
13 0.14
14 0.57
15 -0.14
16 0.25
17 0.57
18 -0.15
19 -0.15
2 -0.57
20 -0.15
21 -0.15
22 -0.15
23 0.55
3 -0.73
32 0.37
35 0.36
36 0.36
37 0.15
38 0.15
39 0.15
4 -0.99
40 0.15
41 0.37
42 0.37
43 0.15
44 0.4
45 0.4
46 0.4
47 0.4
5 -0.7
6 -0.8
7 -0.85
8 -0.85
9 0.33

> <PUBCHEM_EFFECTIVE_ROTOR_COUNT>
10

> <PUBCHEM_PHARMACOPHORE_FEATURES>
10
1 1 acceptor
1 2 acceptor
1 3 donor
1 4 cation
1 4 donor
1 6 donor
1 7 donor
1 8 donor
4 5 7 8 23 cation
6 15 18 19 20 21 22 rings

> <PUBCHEM_HEAVY_ATOM_COUNT>
23

> <PUBCHEM_ATOM_DEF_STEREO_COUNT>
2

> <PUBCHEM_ATOM_UDEF_STEREO_COUNT>
0

> <PUBCHEM_BOND_DEF_STEREO_COUNT>
0

> <PUBCHEM_BOND_UDEF_STEREO_COUNT>
0

> <PUBCHEM_ISOTOPIC_ATOM_COUNT>
0

> <PUBCHEM_COMPONENT_COUNT>
1

> <PUBCHEM_CACTVS_TAUTO_COUNT>
8

> <PUBCHEM_CONFORMER_ID>
0001DD4900000002

> <PUBCHEM_MMFF94_ENERGY>
51.1348

> <PUBCHEM_FEATURE_SELFOVERLAP>
50.807

> <PUBCHEM_SHAPE_FINGERPRINT>
10006869 2 18049433743422088763
10498660 4 18193834838780496206
1100329 8 18410291453686755702
11112241 14 17415530337813732296
12011746 2 18408881806797184158
12035758 1 18408328787024292963
12553582 1 18410286982836979108
12645989 146 18271803472255901174
12788726 201 18265335015046897056
13140716 1 18335989782186275843
13402501 40 18412258403127796080
14081887 123 18339629058980442656
14787075 74 18261393316984014366
14790565 3 18339090271780688824
17492 54 18261944164157627391
19930381 70 18267018358532259943
20905425 154 17907308993462262046
22113638 7 18410572907188532676
539174 4 17764905727715902571

> <PUBCHEM_SHAPE_MULTIPOLES>
431.7
8.38
4.83
1.1
6.45
1.35
0.14
-2.04
0.77
-0.19
0.09
-0.09
-0.09
0.07

> <PUBCHEM_SHAPE_SELFOVERLAP>
871.256

> <PUBCHEM_SHAPE_VOLUME>
249.5

> <PUBCHEM_COORDINATE_TYPE>
2
5
10

$$$$
