122164958
  -OEChem-03292013293D

 35 37  0     1  0  0  0  0  0999 V2000
    2.3272    0.4402   -1.0002 O   0  0  0  0  0  0  0  0  0  0  0  0
    1.4029   -2.2879    1.1376 O   0  0  0  0  0  0  0  0  0  0  0  0
    3.6882   -2.2258   -0.3519 O   0  0  0  0  0  0  0  0  0  0  0  0
    4.1326    2.5087   -0.3892 O   0  0  0  0  0  0  0  0  0  0  0  0
    0.0376    0.3188   -0.1579 N   0  0  0  0  0  0  0  0  0  0  0  0
   -1.3193    2.0167    0.3661 N   0  0  0  0  0  0  0  0  0  0  0  0
   -1.5708   -1.4540   -0.5241 N   0  0  0  0  0  0  0  0  0  0  0  0
   -3.8227   -0.6082   -0.1439 N   0  0  0  0  0  0  0  0  0  0  0  0
   -4.2027    1.7491    0.4588 N   0  0  0  0  0  0  0  0  0  0  0  0
    1.9461   -1.0207    0.8260 C   0  0  2  0  0  0  0  0  0  0  0  0
    1.3235   -0.4261   -0.4320 C   0  0  2  0  0  0  0  0  0  0  0  0
    3.4162   -1.0842    0.4605 C   0  0  2  0  0  0  0  0  0  0  0  0
    3.6006    0.1800   -0.3693 C   0  0  2  0  0  0  0  0  0  0  0  0
    3.9741    1.3939    0.4706 C   0  0  0  0  0  0  0  0  0  0  0  0
   -1.2309   -0.1799   -0.2098 C   0  0  0  0  0  0  0  0  0  0  0  0
   -0.0676    1.6419    0.1922 C   0  0  0  0  0  0  0  0  0  0  0  0
   -2.0451    0.8860    0.1178 C   0  0  0  0  0  0  0  0  0  0  0  0
   -3.4829    0.7228    0.1622 C   0  0  0  0  0  0  0  0  0  0  0  0
   -2.8679   -1.5895   -0.4730 C   0  0  0  0  0  0  0  0  0  0  0  0
   -5.2392   -0.9819   -0.1405 C   0  0  0  0  0  0  0  0  0  0  0  0
    1.7960   -0.3544    1.6841 H   0  0  0  0  0  0  0  0  0  0  0  0
    1.0663   -1.1874   -1.1782 H   0  0  0  0  0  0  0  0  0  0  0  0
    4.0683   -1.1449    1.3369 H   0  0  0  0  0  0  0  0  0  0  0  0
    4.3298    0.0467   -1.1763 H   0  0  0  0  0  0  0  0  0  0  0  0
    4.9159    1.2255    1.0020 H   0  0  0  0  0  0  0  0  0  0  0  0
    3.1906    1.6404    1.1938 H   0  0  0  0  0  0  0  0  0  0  0  0
    1.9173   -2.6509    1.8786 H   0  0  0  0  0  0  0  0  0  0  0  0
    0.7967    2.2814    0.3076 H   0  0  0  0  0  0  0  0  0  0  0  0
    4.6295   -2.1918   -0.5941 H   0  0  0  0  0  0  0  0  0  0  0  0
    4.3732    3.2686    0.1679 H   0  0  0  0  0  0  0  0  0  0  0  0
   -3.3140   -2.5708   -0.7028 H   0  0  0  0  0  0  0  0  0  0  0  0
   -5.6841   -0.7709    0.8377 H   0  0  0  0  0  0  0  0  0  0  0  0
   -5.7798   -0.4153   -0.9058 H   0  0  0  0  0  0  0  0  0  0  0  0
   -5.3882   -2.0470   -0.3463 H   0  0  0  0  0  0  0  0  0  0  0  0
   -5.1951    1.4955    0.4549 H   0  0  0  0  0  0  0  0  0  0  0  0
  1 11  1  0  0  0  0
  1 13  1  0  0  0  0
  2 10  1  0  0  0  0
  2 27  1  0  0  0  0
  3 12  1  0  0  0  0
  3 29  1  0  0  0  0
  4 14  1  0  0  0  0
  4 30  1  0  0  0  0
  5 11  1  0  0  0  0
  5 15  1  0  0  0  0
  5 16  1  0  0  0  0
  6 16  2  0  0  0  0
  6 17  1  0  0  0  0
  7 15  1  0  0  0  0
  7 19  2  0  0  0  0
  8 18  1  0  0  0  0
  8 19  1  0  0  0  0
  8 20  1  0  0  0  0
  9 18  2  0  0  0  0
  9 35  1  0  0  0  0
 10 11  1  0  0  0  0
 10 12  1  0  0  0  0
 10 21  1  0  0  0  0
 11 22  1  0  0  0  0
 12 13  1  0  0  0  0
 12 23  1  0  0  0  0
 13 14  1  0  0  0  0
 13 24  1  0  0  0  0
 14 25  1  0  0  0  0
 14 26  1  0  0  0  0
 15 17  2  0  0  0  0
 16 28  1  0  0  0  0
 17 18  1  0  0  0  0
 19 31  1  0  0  0  0
 20 32  1  0  0  0  0
 20 33  1  0  0  0  0
 20 34  1  0  0  0  0
M  END
> <PUBCHEM_COMPOUND_CID>
122164958

> <PUBCHEM_CONFORMER_RMSD>
0.6

> <PUBCHEM_CONFORMER_DIVERSEORDER>
1
11
13
8
6
7
5
2
12
3
14
10
15
9
4

> <PUBCHEM_MMFF94_PARTIAL_CHARGES>
26
1 -0.56
10 0.28
11 0.54
12 0.28
13 0.28
14 0.28
15 -0.03
16 0.04
17 0.14
18 0.59
19 0.44
2 -0.68
20 0.37
27 0.4
28 0.15
29 0.4
3 -0.68
30 0.4
31 0.06
35 0.4
4 -0.68
5 0.05
6 -0.57
7 -0.58
8 -0.47
9 -0.85

> <PUBCHEM_EFFECTIVE_ROTOR_COUNT>
3

> <PUBCHEM_PHARMACOPHORE_FEATURES>
14
1 1 acceptor
1 2 acceptor
1 2 donor
1 3 acceptor
1 3 donor
1 4 acceptor
1 4 donor
1 9 donor
3 5 6 16 cation
3 7 8 19 cation
3 8 9 18 cation
5 1 10 11 12 13 rings
5 5 6 15 16 17 rings
6 7 8 15 17 18 19 rings

> <PUBCHEM_HEAVY_ATOM_COUNT>
20

> <PUBCHEM_ATOM_DEF_STEREO_COUNT>
4

> <PUBCHEM_ATOM_UDEF_STEREO_COUNT>
0

> <PUBCHEM_BOND_DEF_STEREO_COUNT>
0

> <PUBCHEM_BOND_UDEF_STEREO_COUNT>
0

> <PUBCHEM_ISOTOPIC_ATOM_COUNT>
0

> <PUBCHEM_COMPONENT_COUNT>
1

> <PUBCHEM_CACTVS_TAUTO_COUNT>
1

> <PUBCHEM_CONFORMER_ID>
074816DE00000001

> <PUBCHEM_MMFF94_ENERGY>
49.0085

> <PUBCHEM_FEATURE_SELFOVERLAP>
71.285

> <PUBCHEM_SHAPE_FINGERPRINT>
10616163 171 18342739623882213111
11578080 2 17969200305300536684
11806522 49 18338232799066082359
12236239 1 18261111859187179270
12403814 3 17967810540257182517
12670545 47 16128645366943097381
12670546 56 18408037395073609813
12916754 54 18340771433648641954
13167823 11 18410855434595975231
13224815 77 18333445439317892690
13675066 3 18041005011911416993
14251764 18 18201163235237550371
14787075 74 18193554690758717296
14790565 3 18054516811917405257
15196674 1 18412263917728550069
15375462 189 18407760318117108163
15536298 74 18411699876874599550
17492 89 18411137996041734422
18186145 218 17821446828910658238
19050596 39 18336262362428102394
19422 9 18341333309839276722
200 152 18333446526060838375
20281475 54 18343015584347112583
20510252 161 18060143107162480433
20645477 70 18410853239741197150
21267235 1 18411144627433952391
2255824 54 18113623352964468442
22854114 111 18261393325943200880
23402539 116 18271237231665570359
23463225 33 18337671906323134375
23557571 272 18059864982065101132
23559900 14 18058733490226812390
2871803 45 18334289864142704870
312423 11 18270975556820461816
34934 24 18270677692058574351
4214541 1 18340769247621200997
4340502 62 17312822701905033035
474 4 17968381272617640444
5104073 3 18411420587872680657
5374978 207 18412821399988169706
58051976 100 18190177884734473461
67856867 119 18410285939687381976
6913067 236 17823678931946399557
7097593 13 17829884335124132970
7364860 26 18341050723209763454
77779 3 18412545396673232367
9709674 26 18411706452185271374
9981440 41 18048314737560249024

> <PUBCHEM_SHAPE_MULTIPOLES>
363.21
9.32
2.34
0.81
2.85
0.18
-0.05
0.25
0.16
-1.06
-0.21
-0.32
-0.14
-0.74

> <PUBCHEM_SHAPE_SELFOVERLAP>
782.971

> <PUBCHEM_SHAPE_VOLUME>
198.5

> <PUBCHEM_COORDINATE_TYPE>
2
5
10

$$$$
