122219271
  -OEChem-03292013293D

 63 65  0     1  0  0  0  0  0999 V2000
    1.2980   -0.7203    1.7015 O   0  0  0  0  0  0  0  0  0  0  0  0
   -1.4281   -0.4511    1.5634 O   0  0  0  0  0  0  0  0  0  0  0  0
   -3.6291   -1.6028    0.8553 O   0  0  0  0  0  0  0  0  0  0  0  0
    0.9644    1.9283   -1.7192 O   0  0  0  0  0  0  0  0  0  0  0  0
   -5.3978    1.5046    0.2045 O   0  0  0  0  0  0  0  0  0  0  0  0
   -4.7954    0.4956    2.1397 O   0  0  0  0  0  0  0  0  0  0  0  0
   -1.3370    1.6674   -1.2118 N   0  0  0  0  0  0  0  0  0  0  0  0
    3.7009   -0.6780    0.1957 C   0  0  1  0  0  0  0  0  0  0  0  0
    4.9930   -0.2988   -0.5731 C   0  0  2  0  0  0  0  0  0  0  0  0
    2.6627    0.4635    0.0505 C   0  0  2  0  0  0  0  0  0  0  0  0
    3.2115   -2.0515   -0.2978 C   0  0  0  0  0  0  0  0  0  0  0  0
    3.2179    1.7895    0.6555 C   0  0  2  0  0  0  0  0  0  0  0  0
    6.0839   -1.3448   -0.3062 C   0  0  0  0  0  0  0  0  0  0  0  0
    4.2871   -3.1212   -0.0965 C   0  0  0  0  0  0  0  0  0  0  0  0
    5.6180   -2.7359   -0.7364 C   0  0  0  0  0  0  0  0  0  0  0  0
    5.4569    1.0978   -0.2653 C   0  0  0  0  0  0  0  0  0  0  0  0
    1.3117    0.1196    0.6050 C   0  0  0  0  0  0  0  0  0  0  0  0
    4.6615    2.0281    0.2799 C   0  0  0  0  0  0  0  0  0  0  0  0
    3.1015    1.8810    2.1841 C   0  0  0  0  0  0  0  0  0  0  0  0
    0.1630    0.5777    0.0953 C   0  0  0  0  0  0  0  0  0  0  0  0
   -2.2122    0.9740   -0.2513 C   0  0  2  0  0  0  0  0  0  0  0  0
   -1.1862    0.2665    0.6071 C   0  0  0  0  0  0  0  0  0  0  0  0
   -3.1553   -0.0204   -0.9033 C   0  0  0  0  0  0  0  0  0  0  0  0
    0.0412    1.4741   -1.0673 C   0  0  0  0  0  0  0  0  0  0  0  0
   -4.2438   -0.6116    0.0330 C   0  0  1  0  0  0  0  0  0  0  0  0
   -5.3689   -1.3300   -0.7756 C   0  0  0  0  0  0  0  0  0  0  0  0
   -1.9016    2.5521   -2.2137 C   0  0  0  0  0  0  0  0  0  0  0  0
   -4.8335    0.4952    0.9151 C   0  0  0  0  0  0  0  0  0  0  0  0
   -6.4624   -1.9687    0.0874 C   0  0  0  0  0  0  0  0  0  0  0  0
   -4.8218   -2.3799   -1.7558 C   0  0  0  0  0  0  0  0  0  0  0  0
    3.9499   -0.7865    1.2619 H   0  0  0  0  0  0  0  0  0  0  0  0
    4.7805   -0.3157   -1.6525 H   0  0  0  0  0  0  0  0  0  0  0  0
    2.5851    0.5948   -1.0345 H   0  0  0  0  0  0  0  0  0  0  0  0
    2.3113   -2.3810    0.2283 H   0  0  0  0  0  0  0  0  0  0  0  0
    2.9501   -1.9925   -1.3620 H   0  0  0  0  0  0  0  0  0  0  0  0
    2.6375    2.6223    0.2371 H   0  0  0  0  0  0  0  0  0  0  0  0
    6.3451   -1.3574    0.7598 H   0  0  0  0  0  0  0  0  0  0  0  0
    6.9996   -1.0905   -0.8540 H   0  0  0  0  0  0  0  0  0  0  0  0
    3.9413   -4.0734   -0.5145 H   0  0  0  0  0  0  0  0  0  0  0  0
    4.4374   -3.2825    0.9783 H   0  0  0  0  0  0  0  0  0  0  0  0
    6.3812   -3.4775   -0.4749 H   0  0  0  0  0  0  0  0  0  0  0  0
    5.5130   -2.7598   -1.8282 H   0  0  0  0  0  0  0  0  0  0  0  0
    6.4735    1.3716   -0.5342 H   0  0  0  0  0  0  0  0  0  0  0  0
    5.0669    3.0206    0.4601 H   0  0  0  0  0  0  0  0  0  0  0  0
    3.5502    2.8101    2.5554 H   0  0  0  0  0  0  0  0  0  0  0  0
    3.6085    1.0485    2.6834 H   0  0  0  0  0  0  0  0  0  0  0  0
    2.0555    1.8880    2.5066 H   0  0  0  0  0  0  0  0  0  0  0  0
   -2.7029    1.7524    0.3391 H   0  0  0  0  0  0  0  0  0  0  0  0
   -3.6699    0.4834   -1.7310 H   0  0  0  0  0  0  0  0  0  0  0  0
   -2.5603   -0.8262   -1.3531 H   0  0  0  0  0  0  0  0  0  0  0  0
    0.3844   -0.8842    1.9838 H   0  0  0  0  0  0  0  0  0  0  0  0
   -5.8726   -0.5695   -1.3890 H   0  0  0  0  0  0  0  0  0  0  0  0
   -2.4570    1.9608   -2.9454 H   0  0  0  0  0  0  0  0  0  0  0  0
   -1.1083    3.0979   -2.7316 H   0  0  0  0  0  0  0  0  0  0  0  0
   -2.5705    3.2645   -1.7235 H   0  0  0  0  0  0  0  0  0  0  0  0
   -6.0560   -2.7653    0.7193 H   0  0  0  0  0  0  0  0  0  0  0  0
   -7.2477   -2.4054   -0.5393 H   0  0  0  0  0  0  0  0  0  0  0  0
   -6.9387   -1.2285    0.7377 H   0  0  0  0  0  0  0  0  0  0  0  0
   -4.2621   -3.1639   -1.2360 H   0  0  0  0  0  0  0  0  0  0  0  0
   -5.6425   -2.8636   -2.2975 H   0  0  0  0  0  0  0  0  0  0  0  0
   -4.1702   -1.9300   -2.5103 H   0  0  0  0  0  0  0  0  0  0  0  0
   -2.9514   -2.0698    0.3390 H   0  0  0  0  0  0  0  0  0  0  0  0
   -5.7597    2.2049    0.7882 H   0  0  0  0  0  0  0  0  0  0  0  0
  1 17  1  0  0  0  0
  1 51  1  0  0  0  0
  2 22  2  0  0  0  0
  3 25  1  0  0  0  0
  3 62  1  0  0  0  0
  4 24  2  0  0  0  0
  5 28  1  0  0  0  0
  5 63  1  0  0  0  0
  6 28  2  0  0  0  0
  7 21  1  0  0  0  0
  7 24  1  0  0  0  0
  7 27  1  0  0  0  0
  8  9  1  0  0  0  0
  8 10  1  0  0  0  0
  8 11  1  0  0  0  0
  8 31  1  0  0  0  0
  9 13  1  0  0  0  0
  9 16  1  0  0  0  0
  9 32  1  0  0  0  0
 10 12  1  0  0  0  0
 10 17  1  0  0  0  0
 10 33  1  0  0  0  0
 11 14  1  0  0  0  0
 11 34  1  0  0  0  0
 11 35  1  0  0  0  0
 12 18  1  0  0  0  0
 12 19  1  0  0  0  0
 12 36  1  0  0  0  0
 13 15  1  0  0  0  0
 13 37  1  0  0  0  0
 13 38  1  0  0  0  0
 14 15  1  0  0  0  0
 14 39  1  0  0  0  0
 14 40  1  0  0  0  0
 15 41  1  0  0  0  0
 15 42  1  0  0  0  0
 16 18  2  0  0  0  0
 16 43  1  0  0  0  0
 17 20  2  0  0  0  0
 18 44  1  0  0  0  0
 19 45  1  0  0  0  0
 19 46  1  0  0  0  0
 19 47  1  0  0  0  0
 20 22  1  0  0  0  0
 20 24  1  0  0  0  0
 21 22  1  0  0  0  0
 21 23  1  0  0  0  0
 21 48  1  0  0  0  0
 23 25  1  0  0  0  0
 23 49  1  0  0  0  0
 23 50  1  0  0  0  0
 25 26  1  0  0  0  0
 25 28  1  0  0  0  0
 26 29  1  0  0  0  0
 26 30  1  0  0  0  0
 26 52  1  0  0  0  0
 27 53  1  0  0  0  0
 27 54  1  0  0  0  0
 27 55  1  0  0  0  0
 29 56  1  0  0  0  0
 29 57  1  0  0  0  0
 29 58  1  0  0  0  0
 30 59  1  0  0  0  0
 30 60  1  0  0  0  0
 30 61  1  0  0  0  0
M  END
> <PUBCHEM_COMPOUND_CID>
122219271

> <PUBCHEM_CONFORMER_RMSD>
0.8

> <PUBCHEM_CONFORMER_DIVERSEORDER>
1
10
9
13
14
19
20
17
18
7
11
12
6
4
5
16
15
3
2
8

> <PUBCHEM_MMFF94_PARTIAL_CHARGES>
25
1 -0.53
10 0.14
12 0.14
16 -0.29
17 -0.06
18 -0.29
2 -0.57
20 0.03
21 0.36
22 0.49
24 0.62
25 0.34
27 0.3
28 0.66
3 -0.68
4 -0.57
43 0.15
44 0.15
5 -0.65
51 0.45
6 -0.57
62 0.4
63 0.5
7 -0.66
9 0.14

> <PUBCHEM_EFFECTIVE_ROTOR_COUNT>
6.6

> <PUBCHEM_PHARMACOPHORE_FEATURES>
13
1 1 donor
1 2 acceptor
1 20 anion
1 3 acceptor
1 3 donor
1 4 acceptor
1 5 acceptor
1 6 acceptor
3 26 29 30 hydrophobe
3 5 6 28 anion
5 7 20 21 22 24 rings
6 8 9 10 12 16 18 rings
6 8 9 11 13 14 15 rings

> <PUBCHEM_HEAVY_ATOM_COUNT>
30

> <PUBCHEM_ATOM_DEF_STEREO_COUNT>
6

> <PUBCHEM_ATOM_UDEF_STEREO_COUNT>
0

> <PUBCHEM_BOND_DEF_STEREO_COUNT>
1

> <PUBCHEM_BOND_UDEF_STEREO_COUNT>
0

> <PUBCHEM_ISOTOPIC_ATOM_COUNT>
0

> <PUBCHEM_COMPONENT_COUNT>
1

> <PUBCHEM_CACTVS_TAUTO_COUNT>
12

> <PUBCHEM_CONFORMER_ID>
0748EB0700000001

> <PUBCHEM_MMFF94_ENERGY>
68.1014

> <PUBCHEM_FEATURE_SELFOVERLAP>
66.067

> <PUBCHEM_SHAPE_FINGERPRINT>
10165383 225 18197216069861726160
10595046 47 18201158835935836689
10670039 82 16732983068812398542
11552529 35 17702653518519453055
11796584 16 17775571922455444183
12107183 9 17914908538897790225
12236239 1 18059860570864532873
12403259 118 15913332381711389473
12422481 6 18272934882072463063
12553582 1 17531242864232104297
12596602 18 17275105054878163946
12623949 98 18272098188294590510
12633046 712 17846202359407184505
12633257 1 16773792627623848230
12730499 353 18341612676836429712
12788726 201 17240755177423311409
13103583 49 17775293729039151129
13150687 139 17896621651422606876
13533116 47 18202282537104201818
13583140 156 16917342620100722761
1361 2 18337107998823841844
13690498 29 18117566115688442510
13782708 43 18334293124640230066
14347332 77 18261949640108761858
14950920 106 17704352178100637241
15183329 4 18413390912498976283
15250474 111 17988634216297569439
15361156 5 18187658972029963453
15799311 1 18271255992114822462
15880784 105 18343302587052228537
17349148 13 16226046678147361152
17844677 252 18343306963423982169
1813 80 17676206883500050453
18222031 100 17968088759179242493
21033650 10 16588584180428955972
21641784 216 16081363021021565893
22393880 68 17969211253451020910
22950370 63 18273215296044226528
23516275 137 17701850780384660526
23522609 53 18127160578300889280
23559900 14 18408039619798415624
23569914 152 17252829812472317975
23569943 247 18189616034056115923
24771750 20 16738918489803106853
2838139 119 11170207461760385078
3633792 109 18412537696830858741
4073 2 18338519767032106562
4340502 62 17845926455298105354
46194498 28 18334012796662205548
465052 167 17846501430933336158
5104073 3 17561083622441581315
5326457 24 18270119140326192287
7495541 125 18343298154988876628
7970288 3 17842565033610222678

> <PUBCHEM_SHAPE_MULTIPOLES>
577.19
15.65
2.98
1.64
5.27
1.25
0.05
8.48
-0.06
-2.07
-0.85
1.16
-0.8
0.56

> <PUBCHEM_SHAPE_SELFOVERLAP>
1211.818

> <PUBCHEM_SHAPE_VOLUME>
320.3

> <PUBCHEM_COORDINATE_TYPE>
2
5
10

$$$$
