122257
  -OEChem-03292013323D

 39 42  0     1  0  0  0  0  0999 V2000
    0.7532    0.6092   -1.3497 O   0  0  0  0  0  0  0  0  0  0  0  0
    2.5353    2.0398    1.4210 O   0  0  0  0  0  0  0  0  0  0  0  0
    0.3908    3.2468    0.2977 O   0  0  0  0  0  0  0  0  0  0  0  0
    2.4874   -1.2710   -1.4101 O   0  0  0  0  0  0  0  0  0  0  0  0
    4.1032   -0.0629   -0.2487 N   0  0  0  0  0  0  0  0  0  0  0  0
   -1.3028    0.1029   -0.2624 N   0  0  0  0  0  0  0  0  0  0  0  0
   -2.0701   -1.9211    0.2792 N   0  0  0  0  0  0  0  0  0  0  0  0
   -3.3988    1.3278   -0.3598 N   0  0  0  0  0  0  0  0  0  0  0  0
   -5.2973   -0.1187    0.1496 N   0  0  0  0  0  0  0  0  0  0  0  0
   -5.0403   -2.4402    0.6711 N   0  0  0  0  0  0  0  0  0  0  0  0
    5.1374   -1.0722   -0.2413 C   0  0  0  0  0  0  0  0  0  0  0  0
    6.1941   -1.0628    0.8080 C   0  0  0  0  0  0  0  0  0  0  0  0
    5.1447   -2.1354    0.8017 C   0  0  0  0  0  0  0  0  0  0  0  0
    1.9761    0.9369   -0.6787 C   0  0  1  0  0  0  0  0  0  0  0  0
    1.6020    1.2056    0.7650 C   0  0  2  0  0  0  0  0  0  0  0  0
    0.2446    1.8645    0.6230 C   0  0  2  0  0  0  0  0  0  0  0  0
   -0.3467    1.1606   -0.5953 C   0  0  1  0  0  0  0  0  0  0  0  0
    2.8639   -0.2527   -0.8354 C   0  0  0  0  0  0  0  0  0  0  0  0
   -2.6614    0.2236   -0.1680 C   0  0  0  0  0  0  0  0  0  0  0  0
   -0.9975   -1.2046    0.0146 C   0  0  0  0  0  0  0  0  0  0  0  0
   -3.1171   -1.0410    0.1686 C   0  0  0  0  0  0  0  0  0  0  0  0
   -4.4909   -1.1926    0.3282 C   0  0  0  0  0  0  0  0  0  0  0  0
   -4.7099    1.0574   -0.1784 C   0  0  0  0  0  0  0  0  0  0  0  0
    5.4490   -1.3527   -1.2420 H   0  0  0  0  0  0  0  0  0  0  0  0
    6.1441   -0.3160    1.5909 H   0  0  0  0  0  0  0  0  0  0  0  0
    7.2000   -1.3399    0.5173 H   0  0  0  0  0  0  0  0  0  0  0  0
    5.4443   -3.1332    0.5054 H   0  0  0  0  0  0  0  0  0  0  0  0
    4.3912   -2.1061    1.5793 H   0  0  0  0  0  0  0  0  0  0  0  0
    2.4342    1.8035   -1.1697 H   0  0  0  0  0  0  0  0  0  0  0  0
    1.5119    0.2672    1.3260 H   0  0  0  0  0  0  0  0  0  0  0  0
   -0.3587    1.7988    1.5336 H   0  0  0  0  0  0  0  0  0  0  0  0
   -0.8718    1.8537   -1.2628 H   0  0  0  0  0  0  0  0  0  0  0  0
    4.3181    0.8264    0.1952 H   0  0  0  0  0  0  0  0  0  0  0  0
    2.1724    2.2500    2.2983 H   0  0  0  0  0  0  0  0  0  0  0  0
   -0.5026    3.6167    0.1940 H   0  0  0  0  0  0  0  0  0  0  0  0
    0.0159   -1.5810    0.0166 H   0  0  0  0  0  0  0  0  0  0  0  0
   -5.3854    1.8955   -0.3136 H   0  0  0  0  0  0  0  0  0  0  0  0
   -6.0415   -2.5248    0.7822 H   0  0  0  0  0  0  0  0  0  0  0  0
   -4.4405   -3.2429    0.8057 H   0  0  0  0  0  0  0  0  0  0  0  0
  1 14  1  0  0  0  0
  1 17  1  0  0  0  0
  2 15  1  0  0  0  0
  2 34  1  0  0  0  0
  3 16  1  0  0  0  0
  3 35  1  0  0  0  0
  4 18  2  0  0  0  0
  5 11  1  0  0  0  0
  5 18  1  0  0  0  0
  5 33  1  0  0  0  0
  6 17  1  0  0  0  0
  6 19  1  0  0  0  0
  6 20  1  0  0  0  0
  7 20  2  0  0  0  0
  7 21  1  0  0  0  0
  8 19  2  0  0  0  0
  8 23  1  0  0  0  0
  9 22  1  0  0  0  0
  9 23  2  0  0  0  0
 10 22  1  0  0  0  0
 10 38  1  0  0  0  0
 10 39  1  0  0  0  0
 11 12  1  0  0  0  0
 11 13  1  0  0  0  0
 11 24  1  0  0  0  0
 12 13  1  0  0  0  0
 12 25  1  0  0  0  0
 12 26  1  0  0  0  0
 13 27  1  0  0  0  0
 13 28  1  0  0  0  0
 14 15  1  0  0  0  0
 14 18  1  0  0  0  0
 14 29  1  0  0  0  0
 15 16  1  0  0  0  0
 15 30  1  0  0  0  0
 16 17  1  0  0  0  0
 16 31  1  0  0  0  0
 17 32  1  0  0  0  0
 19 21  1  0  0  0  0
 20 36  1  0  0  0  0
 21 22  2  0  0  0  0
 23 37  1  0  0  0  0
M  END
> <PUBCHEM_COMPOUND_CID>
122257

> <PUBCHEM_CONFORMER_RMSD>
0.8

> <PUBCHEM_CONFORMER_DIVERSEORDER>
11
4
28
55
57
5
56
27
23
24
50
42
16
51
37
39
35
13
14
44
45
53
59
60
54
21
18
34
47
26
31
19
58
12
48
25
40
61
10
30
2
62
29
6
38
52
9
7
49
43
36
32
3
33
41
8
46
20
1
17
22
15

> <PUBCHEM_MMFF94_PARTIAL_CHARGES>
35
1 -0.56
10 -0.9
11 0.05
12 -0.2
13 -0.2
14 0.34
15 0.28
16 0.28
17 0.54
18 0.57
19 0.11
2 -0.68
20 0.04
21 0.23
22 0.41
23 0.47
24 0.1
25 0.1
26 0.1
27 0.1
28 0.1
3 -0.68
33 0.37
34 0.4
35 0.4
36 0.15
37 0.15
38 0.4
39 0.4
4 -0.57
5 -0.58
6 0.05
7 -0.57
8 -0.57
9 -0.62

> <PUBCHEM_EFFECTIVE_ROTOR_COUNT>
5.6

> <PUBCHEM_PHARMACOPHORE_FEATURES>
15
1 1 acceptor
1 10 cation
1 10 donor
1 2 acceptor
1 2 donor
1 3 acceptor
1 3 donor
1 4 acceptor
1 5 donor
3 6 7 20 cation
3 6 8 19 cation
3 8 9 23 cation
5 1 14 15 16 17 rings
5 6 7 19 20 21 rings
6 8 9 19 21 22 23 rings

> <PUBCHEM_HEAVY_ATOM_COUNT>
23

> <PUBCHEM_ATOM_DEF_STEREO_COUNT>
3

> <PUBCHEM_ATOM_UDEF_STEREO_COUNT>
1

> <PUBCHEM_BOND_DEF_STEREO_COUNT>
0

> <PUBCHEM_BOND_UDEF_STEREO_COUNT>
0

> <PUBCHEM_ISOTOPIC_ATOM_COUNT>
0

> <PUBCHEM_COMPONENT_COUNT>
1

> <PUBCHEM_CACTVS_TAUTO_COUNT>
6

> <PUBCHEM_CONFORMER_ID>
0001DD910000000B

> <PUBCHEM_MMFF94_ENERGY>
51.3809

> <PUBCHEM_FEATURE_SELFOVERLAP>
76.754

> <PUBCHEM_SHAPE_FINGERPRINT>
10465860 250 18341613698373949380
10670039 82 9367354769015670242
11578080 2 13972860303285294315
11796584 16 18187923924557636266
12236239 1 17458068140235882436
12403259 226 18338515369708151669
12403260 363 18271807977765297077
12596602 18 14548728500172725230
12633257 1 17917993914322452926
12760667 363 18340199679476760406
12788726 201 18340782442283233648
13685833 64 18334860532147167035
13955234 65 18121507022670467608
14251751 18 18333732416158577190
14251764 18 18412268341660922473
14420673 8 18335702693677364115
14866123 147 17694799419104215067
15196674 1 18408044034676415407
15927050 60 17767682025606333972
17492 89 18120374526068326571
17804303 29 18336269024207292965
17980427 23 12607398910304146849
1813 80 17530674438095368316
19784866 135 18337948996233233576
19784866 140 15213297495971151532
20374829 77 18335421257291509703
20832881 197 18408887334404146513
21033648 29 16343128118107225626
21065201 7 18187075191996774753
21267235 1 18334304166431507171
21279426 13 18051976922195832741
21637258 2 17676479554094483954
23402539 116 18272927198607818917
23559900 14 18410852200296009073
3004659 81 18187090533894295326
316301 35 18264208187000097499
335352 9 18409730643370996069
3411729 13 18058163011681563680
3421961 26 18341330093388982608
3886686 26 16897633595253931906
4409770 3 17970619689287254293
465052 167 18343586244284015974
474 4 13398619576812232802
5104073 3 18271535298707503443
559249 180 18114178597245485299
59682541 35 18342164597740960506
7226269 152 18268709420116298945
8863177 126 18118414057859621379
9709674 26 18193839481999001643
9981440 41 15799090052562969612

> <PUBCHEM_SHAPE_MULTIPOLES>
419.97
12.45
2.52
1.01
4.38
0.56
-0.05
-8.02
2.17
-0.22
0.71
0.81
0.11
0.48

> <PUBCHEM_SHAPE_SELFOVERLAP>
915.087

> <PUBCHEM_SHAPE_VOLUME>
225

> <PUBCHEM_COORDINATE_TYPE>
2
5
10

$$$$
