122238
  -OEChem-03292013323D

 56 57  0     1  0  0  0  0  0999 V2000
   -1.9516   -1.7190    0.6433 O   0  0  0  0  0  0  0  0  0  0  0  0
    1.8273   -4.2014   -0.6715 O   0  0  0  0  0  0  0  0  0  0  0  0
    0.1155    0.6848   -0.9182 O   0  0  0  0  0  0  0  0  0  0  0  0
    6.2244   -1.3708   -0.4365 O   0  0  0  0  0  0  0  0  0  0  0  0
   -8.7251    1.1663    0.1918 O   0  0  0  0  0  0  0  0  0  0  0  0
   -6.9811    2.5865    0.5182 O   0  0  0  0  0  0  0  0  0  0  0  0
    0.4319   -1.1002    0.6882 C   0  0  2  0  0  0  0  0  0  0  0  0
    1.5737   -1.8660    0.0062 C   0  0  2  0  0  0  0  0  0  0  0  0
   -0.6423   -2.1493    1.0447 C   0  0  2  0  0  0  0  0  0  0  0  0
    1.2918   -3.3414    0.3188 C   0  0  1  0  0  0  0  0  0  0  0  0
   -0.2271   -3.4183    0.3085 C   0  0  0  0  0  0  0  0  0  0  0  0
   -0.3379   -0.2216   -0.2417 C   0  0  0  0  0  0  0  0  0  0  0  0
    2.9231   -1.4382    0.4882 C   0  0  0  0  0  0  0  0  0  0  0  0
   -1.7499   -0.6329   -0.1816 C   0  0  0  0  0  0  0  0  0  0  0  0
    3.8858   -0.9609   -0.3142 C   0  0  0  0  0  0  0  0  0  0  0  0
   -2.7253   -0.0173   -0.8523 C   0  0  0  0  0  0  0  0  0  0  0  0
    5.2412   -0.5333    0.1747 C   0  0  2  0  0  0  0  0  0  0  0  0
   -4.1705   -0.4253   -0.8010 C   0  0  0  0  0  0  0  0  0  0  0  0
    5.5789    0.9176   -0.1947 C   0  0  0  0  0  0  0  0  0  0  0  0
    4.5469    1.9269    0.3170 C   0  0  0  0  0  0  0  0  0  0  0  0
   -5.0565    0.7288   -0.3215 C   0  0  0  0  0  0  0  0  0  0  0  0
    4.8388    3.3670   -0.1171 C   0  0  0  0  0  0  0  0  0  0  0  0
   -6.5329    0.3465   -0.2669 C   0  0  0  0  0  0  0  0  0  0  0  0
    3.8505    4.3868    0.4503 C   0  0  0  0  0  0  0  0  0  0  0  0
    4.1782    5.7964   -0.0188 C   0  0  0  0  0  0  0  0  0  0  0  0
   -7.4077    1.4883    0.1862 C   0  0  0  0  0  0  0  0  0  0  0  0
    0.7272   -0.5215    1.5702 H   0  0  0  0  0  0  0  0  0  0  0  0
    1.5255   -1.7234   -1.0832 H   0  0  0  0  0  0  0  0  0  0  0  0
   -0.6509   -2.3297    2.1266 H   0  0  0  0  0  0  0  0  0  0  0  0
    1.6903   -3.6349    1.2980 H   0  0  0  0  0  0  0  0  0  0  0  0
   -0.6239   -3.4478   -0.7143 H   0  0  0  0  0  0  0  0  0  0  0  0
   -0.5971   -4.3207    0.8064 H   0  0  0  0  0  0  0  0  0  0  0  0
    3.1186   -1.5228    1.5549 H   0  0  0  0  0  0  0  0  0  0  0  0
    1.5411   -5.1060   -0.4585 H   0  0  0  0  0  0  0  0  0  0  0  0
    3.6992   -0.8784   -1.3824 H   0  0  0  0  0  0  0  0  0  0  0  0
   -2.4860    0.8291   -1.4919 H   0  0  0  0  0  0  0  0  0  0  0  0
    5.3305   -0.6575    1.2604 H   0  0  0  0  0  0  0  0  0  0  0  0
   -4.3207   -1.2945   -0.1505 H   0  0  0  0  0  0  0  0  0  0  0  0
   -4.4785   -0.7278   -1.8091 H   0  0  0  0  0  0  0  0  0  0  0  0
    6.5726    1.1667    0.1994 H   0  0  0  0  0  0  0  0  0  0  0  0
    5.6681    1.0057   -1.2860 H   0  0  0  0  0  0  0  0  0  0  0  0
    4.5136    1.8784    1.4124 H   0  0  0  0  0  0  0  0  0  0  0  0
    3.5453    1.6647   -0.0429 H   0  0  0  0  0  0  0  0  0  0  0  0
   -4.9285    1.5932   -0.9865 H   0  0  0  0  0  0  0  0  0  0  0  0
   -4.7277    1.0546    0.6743 H   0  0  0  0  0  0  0  0  0  0  0  0
    4.8261    3.4188   -1.2129 H   0  0  0  0  0  0  0  0  0  0  0  0
    5.8540    3.6363    0.2003 H   0  0  0  0  0  0  0  0  0  0  0  0
    6.0418   -2.2866   -0.1643 H   0  0  0  0  0  0  0  0  0  0  0  0
   -6.8696    0.0370   -1.2626 H   0  0  0  0  0  0  0  0  0  0  0  0
   -6.6748   -0.4866    0.4304 H   0  0  0  0  0  0  0  0  0  0  0  0
    3.8726    4.3553    1.5456 H   0  0  0  0  0  0  0  0  0  0  0  0
    2.8319    4.1294    0.1378 H   0  0  0  0  0  0  0  0  0  0  0  0
    5.1807    6.0945    0.3045 H   0  0  0  0  0  0  0  0  0  0  0  0
    4.1334    5.8671   -1.1104 H   0  0  0  0  0  0  0  0  0  0  0  0
    3.4607    6.5103    0.3975 H   0  0  0  0  0  0  0  0  0  0  0  0
   -9.2838    1.9153    0.4902 H   0  0  0  0  0  0  0  0  0  0  0  0
  1  9  1  0  0  0  0
  1 14  1  0  0  0  0
  2 10  1  0  0  0  0
  2 34  1  0  0  0  0
  3 12  2  0  0  0  0
  4 17  1  0  0  0  0
  4 48  1  0  0  0  0
  5 26  1  0  0  0  0
  5 56  1  0  0  0  0
  6 26  2  0  0  0  0
  7  8  1  0  0  0  0
  7  9  1  0  0  0  0
  7 12  1  0  0  0  0
  7 27  1  0  0  0  0
  8 10  1  0  0  0  0
  8 13  1  0  0  0  0
  8 28  1  0  0  0  0
  9 11  1  0  0  0  0
  9 29  1  0  0  0  0
 10 11  1  0  0  0  0
 10 30  1  0  0  0  0
 11 31  1  0  0  0  0
 11 32  1  0  0  0  0
 12 14  1  0  0  0  0
 13 15  2  3  0  0  0
 13 33  1  0  0  0  0
 14 16  2  3  0  0  0
 15 17  1  0  0  0  0
 15 35  1  0  0  0  0
 16 18  1  0  0  0  0
 16 36  1  0  0  0  0
 17 19  1  0  0  0  0
 17 37  1  0  0  0  0
 18 21  1  0  0  0  0
 18 38  1  0  0  0  0
 18 39  1  0  0  0  0
 19 20  1  0  0  0  0
 19 40  1  0  0  0  0
 19 41  1  0  0  0  0
 20 22  1  0  0  0  0
 20 42  1  0  0  0  0
 20 43  1  0  0  0  0
 21 23  1  0  0  0  0
 21 44  1  0  0  0  0
 21 45  1  0  0  0  0
 22 24  1  0  0  0  0
 22 46  1  0  0  0  0
 22 47  1  0  0  0  0
 23 26  1  0  0  0  0
 23 49  1  0  0  0  0
 23 50  1  0  0  0  0
 24 25  1  0  0  0  0
 24 51  1  0  0  0  0
 24 52  1  0  0  0  0
 25 53  1  0  0  0  0
 25 54  1  0  0  0  0
 25 55  1  0  0  0  0
M  END
> <PUBCHEM_COMPOUND_CID>
122238

> <PUBCHEM_CONFORMER_RMSD>
1

> <PUBCHEM_CONFORMER_DIVERSEORDER>
1
36
130
28
86
107
81
138
82
52
99
41
79
47
126
115
44
24
73
69
43
104
136
30
89
55
37
33
116
91
54
97
125
90
60
27
74
61
98
109
76
42
75
49
139
22
38
20
133
25
103
59
117
10
114
119
131
50
40
94
121
70
102
14
120
31
113
96
5
77
34
26
15
111
135
63
39
48
124
68
95
83
32
62
53
65
17
108
132
129
84
128
56
78
18
127
100
87
80
134
64
46
112
71
67
4
118
11
23
66
92
57
16
21
72
105
45
123
8
137
3
35
93
29
140
58
13
12
106
110
51
7
6
101
2
85
122
19
9
88

> <PUBCHEM_MMFF94_PARTIAL_CHARGES>
25
1 -0.36
10 0.28
12 0.49
13 -0.29
14 0.09
15 -0.29
16 -0.29
17 0.42
18 0.14
2 -0.68
23 0.06
26 0.66
3 -0.57
33 0.15
34 0.4
35 0.15
36 0.15
4 -0.68
48 0.4
5 -0.65
56 0.5
6 -0.57
7 0.06
8 0.14
9 0.28

> <PUBCHEM_EFFECTIVE_ROTOR_COUNT>
10.8

> <PUBCHEM_PHARMACOPHORE_FEATURES>
14
1 1 acceptor
1 2 acceptor
1 2 donor
1 25 hydrophobe
1 3 acceptor
1 4 acceptor
1 4 donor
1 5 acceptor
1 6 acceptor
3 5 6 26 anion
4 16 18 21 23 hydrophobe
4 19 20 22 24 hydrophobe
5 1 7 9 12 14 rings
5 7 8 9 10 11 rings

> <PUBCHEM_HEAVY_ATOM_COUNT>
26

> <PUBCHEM_ATOM_DEF_STEREO_COUNT>
5

> <PUBCHEM_ATOM_UDEF_STEREO_COUNT>
0

> <PUBCHEM_BOND_DEF_STEREO_COUNT>
0

> <PUBCHEM_BOND_UDEF_STEREO_COUNT>
2

> <PUBCHEM_ISOTOPIC_ATOM_COUNT>
0

> <PUBCHEM_COMPONENT_COUNT>
1

> <PUBCHEM_CACTVS_TAUTO_COUNT>
5

> <PUBCHEM_CONFORMER_ID>
0001DD7E00000001

> <PUBCHEM_MMFF94_ENERGY>
36.3481

> <PUBCHEM_FEATURE_SELFOVERLAP>
71.497

> <PUBCHEM_SHAPE_FINGERPRINT>
10411042 1 17689433789772477522
10673678 19 18341054098521178385
11456790 92 18260543382196528040
11796584 16 13973668547215869335
12925494 130 18265331896631952640
14251764 75 18264487454521873336
14790565 3 18411136961069965481
14849402 71 18408888451750517781
15840311 113 18411700980876750749
16120349 18 18410288095861295333
18335252 114 18339355276042440790
19053607 189 17980751959810585880
19301679 30 8862675593885001998
19427546 62 18410011039588774179
20715895 44 18411696630190683888
21033648 29 18335133254755754674
21049683 118 17532076345448462466
22224240 67 17894632527028389059
23559900 14 18339641239893199034
27425 322 18341894112504807911
4340502 62 15791736261050697675
5104073 3 17968087676905500450
5312510 48 18411698807280511056
550186 72 16680629101032935380
5758199 1 18261676983190760795
58902169 19 17988916773795092038
5951187 136 18271534160509976204

> <PUBCHEM_SHAPE_MULTIPOLES>
499.85
18.58
5.92
0.83
33.11
5.92
0
20.61
-0.07
-9.75
-0.59
0.17
-0.15
0.11

> <PUBCHEM_SHAPE_SELFOVERLAP>
1010.179

> <PUBCHEM_SHAPE_VOLUME>
292

> <PUBCHEM_COORDINATE_TYPE>
2
5
10

$$$$
