122204528
  -OEChem-03292013293D

 53 53  0     1  0  0  0  0  0999 V2000
   -3.6879    2.0044   -0.5371 O   0  0  0  0  0  0  0  0  0  0  0  0
   -5.9034    2.0123    0.1386 O   0  0  0  0  0  0  0  0  0  0  0  0
   -1.5477    1.5239    1.2717 O   0  0  0  0  0  0  0  0  0  0  0  0
    1.3622    0.2926   -1.6033 O   0  0  0  0  0  0  0  0  0  0  0  0
    4.6057   -1.8621   -0.0154 O   0  0  0  0  0  0  0  0  0  0  0  0
    6.0346   -0.7297   -1.3455 O   0  0  0  0  0  0  0  0  0  0  0  0
   -0.7680   -0.1903   -0.0742 N   0  0  0  0  0  0  0  0  0  0  0  0
    2.8563    0.0646    0.1581 N   0  0  0  0  0  0  0  0  0  0  0  0
   -4.2453    0.0553    0.0885 C   0  0  2  0  0  0  0  0  0  0  0  0
   -3.0009    0.7195   -0.5192 C   0  0  2  0  0  0  0  0  0  0  0  0
   -4.9104   -1.0292   -0.7318 C   0  0  0  0  0  0  0  0  0  0  0  0
   -4.8410    1.4672   -0.0598 C   0  0  0  0  0  0  0  0  0  0  0  0
    0.5087   -0.3546    0.5734 C   0  0  1  0  0  0  0  0  0  0  0  0
   -1.7130    0.7466    0.3260 C   0  0  0  0  0  0  0  0  0  0  0  0
    0.7152   -1.7696    1.1540 C   0  0  0  0  0  0  0  0  0  0  0  0
   -6.2042   -1.4869   -0.0500 C   0  0  0  0  0  0  0  0  0  0  0  0
   -3.9848   -2.2332   -0.9176 C   0  0  0  0  0  0  0  0  0  0  0  0
    1.5987    0.0242   -0.4272 C   0  0  0  0  0  0  0  0  0  0  0  0
    4.0502    0.4346   -0.5665 C   0  0  1  0  0  0  0  0  0  0  0  0
    4.6760    1.7041    0.0501 C   0  0  0  0  0  0  0  0  0  0  0  0
    0.7662   -2.8194    0.0397 C   0  0  0  0  0  0  0  0  0  0  0  0
   -0.3491   -2.1578    2.1859 C   0  0  0  0  0  0  0  0  0  0  0  0
    5.2671    1.4426    1.4382 C   0  0  0  0  0  0  0  0  0  0  0  0
    3.7081    2.8903    0.1013 C   0  0  0  0  0  0  0  0  0  0  0  0
    5.0068   -0.7493   -0.6778 C   0  0  0  0  0  0  0  0  0  0  0  0
   -4.1151   -0.2228    1.1426 H   0  0  0  0  0  0  0  0  0  0  0  0
   -2.8009    0.4222   -1.5578 H   0  0  0  0  0  0  0  0  0  0  0  0
   -5.1663   -0.6463   -1.7283 H   0  0  0  0  0  0  0  0  0  0  0  0
    0.5781    0.3655    1.3989 H   0  0  0  0  0  0  0  0  0  0  0  0
    1.6816   -1.8049    1.6721 H   0  0  0  0  0  0  0  0  0  0  0  0
   -6.0061   -1.8887    0.9499 H   0  0  0  0  0  0  0  0  0  0  0  0
   -3.6644   -2.6387    0.0486 H   0  0  0  0  0  0  0  0  0  0  0  0
   -3.0833   -1.9586   -1.4739 H   0  0  0  0  0  0  0  0  0  0  0  0
   -4.4867   -3.0314   -1.4745 H   0  0  0  0  0  0  0  0  0  0  0  0
   -6.7021   -2.2648   -0.6382 H   0  0  0  0  0  0  0  0  0  0  0  0
   -6.9042   -0.6525    0.0621 H   0  0  0  0  0  0  0  0  0  0  0  0
   -0.9694   -0.7675   -0.8854 H   0  0  0  0  0  0  0  0  0  0  0  0
    3.7581    0.6624   -1.5995 H   0  0  0  0  0  0  0  0  0  0  0  0
    5.5144    1.9975   -0.5966 H   0  0  0  0  0  0  0  0  0  0  0  0
   -1.3442   -2.2263    1.7338 H   0  0  0  0  0  0  0  0  0  0  0  0
    0.9558   -3.8125    0.4627 H   0  0  0  0  0  0  0  0  0  0  0  0
    1.5700   -2.6184   -0.6751 H   0  0  0  0  0  0  0  0  0  0  0  0
   -0.3912   -1.4184    2.9924 H   0  0  0  0  0  0  0  0  0  0  0  0
   -0.1174   -3.1299    2.6341 H   0  0  0  0  0  0  0  0  0  0  0  0
   -0.1779   -2.8752   -0.5120 H   0  0  0  0  0  0  0  0  0  0  0  0
    2.9585   -0.1864    1.1362 H   0  0  0  0  0  0  0  0  0  0  0  0
    4.4954    1.1606    2.1617 H   0  0  0  0  0  0  0  0  0  0  0  0
    5.7619    2.3433    1.8183 H   0  0  0  0  0  0  0  0  0  0  0  0
    6.0183    0.6470    1.4122 H   0  0  0  0  0  0  0  0  0  0  0  0
    2.8838    2.7128    0.7999 H   0  0  0  0  0  0  0  0  0  0  0  0
    4.2287    3.7977    0.4256 H   0  0  0  0  0  0  0  0  0  0  0  0
    3.2825    3.0857   -0.8885 H   0  0  0  0  0  0  0  0  0  0  0  0
    5.2355   -2.6050   -0.1319 H   0  0  0  0  0  0  0  0  0  0  0  0
  1 10  1  0  0  0  0
  1 12  1  0  0  0  0
  2 12  2  0  0  0  0
  3 14  2  0  0  0  0
  4 18  2  0  0  0  0
  5 25  1  0  0  0  0
  5 53  1  0  0  0  0
  6 25  2  0  0  0  0
  7 13  1  0  0  0  0
  7 14  1  0  0  0  0
  7 37  1  0  0  0  0
  8 18  1  0  0  0  0
  8 19  1  0  0  0  0
  8 46  1  0  0  0  0
  9 10  1  0  0  0  0
  9 11  1  0  0  0  0
  9 12  1  0  0  0  0
  9 26  1  0  0  0  0
 10 14  1  0  0  0  0
 10 27  1  0  0  0  0
 11 16  1  0  0  0  0
 11 17  1  0  0  0  0
 11 28  1  0  0  0  0
 13 15  1  0  0  0  0
 13 18  1  0  0  0  0
 13 29  1  0  0  0  0
 15 21  1  0  0  0  0
 15 22  1  0  0  0  0
 15 30  1  0  0  0  0
 16 31  1  0  0  0  0
 16 35  1  0  0  0  0
 16 36  1  0  0  0  0
 17 32  1  0  0  0  0
 17 33  1  0  0  0  0
 17 34  1  0  0  0  0
 19 20  1  0  0  0  0
 19 25  1  0  0  0  0
 19 38  1  0  0  0  0
 20 23  1  0  0  0  0
 20 24  1  0  0  0  0
 20 39  1  0  0  0  0
 21 41  1  0  0  0  0
 21 42  1  0  0  0  0
 21 45  1  0  0  0  0
 22 40  1  0  0  0  0
 22 43  1  0  0  0  0
 22 44  1  0  0  0  0
 23 47  1  0  0  0  0
 23 48  1  0  0  0  0
 23 49  1  0  0  0  0
 24 50  1  0  0  0  0
 24 51  1  0  0  0  0
 24 52  1  0  0  0  0
M  END
> <PUBCHEM_COMPOUND_CID>
122204528

> <PUBCHEM_CONFORMER_RMSD>
1

> <PUBCHEM_CONFORMER_DIVERSEORDER>
1
112
23
39
32
56
48
83
81
13
119
100
111
14
61
28
118
51
115
99
108
31
16
92
117
67
73
66
93
97
71
63
36
86
46
5
69
38
3
91
77
30
105
79
88
44
20
78
116
65
90
22
95
25
53
68
45
21
98
47
49
85
60
76
27
110
74
42
84
82
55
64
15
113
6
96
7
19
75
35
102
17
103
114
9
34
106
50
94
109
87
10
18
62
24
89
12
58
33
107
57
54
80
41
72
59
52
104
2
29
26
11
101
43
40
8
70
37
4

> <PUBCHEM_MMFF94_PARTIAL_CHARGES>
19
1 -0.41
10 0.31
12 0.67
13 0.36
14 0.58
18 0.57
19 0.36
2 -0.57
25 0.66
3 -0.57
37 0.37
4 -0.57
46 0.37
5 -0.65
53 0.5
6 -0.57
7 -0.73
8 -0.73
9 0.05

> <PUBCHEM_EFFECTIVE_ROTOR_COUNT>
10.6

> <PUBCHEM_PHARMACOPHORE_FEATURES>
12
1 2 acceptor
1 3 acceptor
1 4 acceptor
1 5 acceptor
1 6 acceptor
1 7 donor
1 8 donor
3 11 16 17 hydrophobe
3 15 21 22 hydrophobe
3 20 23 24 hydrophobe
3 5 6 25 anion
4 1 9 10 12 rings

> <PUBCHEM_HEAVY_ATOM_COUNT>
25

> <PUBCHEM_ATOM_DEF_STEREO_COUNT>
4

> <PUBCHEM_ATOM_UDEF_STEREO_COUNT>
0

> <PUBCHEM_BOND_DEF_STEREO_COUNT>
0

> <PUBCHEM_BOND_UDEF_STEREO_COUNT>
0

> <PUBCHEM_ISOTOPIC_ATOM_COUNT>
0

> <PUBCHEM_COMPONENT_COUNT>
1

> <PUBCHEM_CACTVS_TAUTO_COUNT>
4

> <PUBCHEM_CONFORMER_ID>
0748B17000000001

> <PUBCHEM_MMFF94_ENERGY>
37.1509

> <PUBCHEM_FEATURE_SELFOVERLAP>
60.959

> <PUBCHEM_SHAPE_FINGERPRINT>
11287383 113 18059857285325360148
12166972 35 18408329899416261996
12236239 1 18335702724047531519
12403259 415 18262250987883405168
12467345 10 18412825767907100223
13533116 47 18342459249149963262
13631057 29 18268422603128537415
14251764 38 18191025801151646813
14528608 73 18335137587602237557
14787075 74 18268144430337982353
17349148 13 16877664552072897797
173720 79 17677318524210396290
17844677 252 18343308067109121437
20197701 30 18334570261198850738
21033648 29 18187369856749863096
21150785 3 17458633353916845214
21709351 56 18114180830828758069
22393880 68 18335133155396675725
23402539 116 18412825776417478141
23559900 14 18342738529450951328
4325135 7 18270679882639893645
495365 180 18272365378821548978
5104073 3 18272368667811586155
5283173 99 18340769342126305826
53794403 172 18043256949417971980
59755656 215 18337678490307559014
59755656 520 17749113283208554075
633830 44 18410566301692439652
7495541 125 17346312743243556618

> <PUBCHEM_SHAPE_MULTIPOLES>
469.31
14.91
2.84
1.28
2.15
0.16
0.37
-3.1
-2.77
0.23
0.48
-0.72
0.46
0.33

> <PUBCHEM_SHAPE_SELFOVERLAP>
932.953

> <PUBCHEM_SHAPE_VOLUME>
277.6

> <PUBCHEM_COORDINATE_TYPE>
2
5
10

$$$$
