122216056
  -OEChem-03292013293D

 40 42  0     1  0  0  0  0  0999 V2000
   -2.1207    1.0267    0.4859 O   0  0  0  0  0  0  0  0  0  0  0  0
    0.3915    0.1239   -2.6820 O   0  0  0  0  0  0  0  0  0  0  0  0
   -0.2579    2.3707   -1.2450 O   0  0  0  0  0  0  0  0  0  0  0  0
   -0.0508   -2.4259   -1.0242 O   0  0  0  0  0  0  0  0  0  0  0  0
    2.1973    2.3641   -0.2520 O   0  0  0  0  0  0  0  0  0  0  0  0
    4.1410    1.3270    1.0705 O   0  0  0  0  0  0  0  0  0  0  0  0
   -5.9893   -0.6835    0.6652 O   0  0  0  0  0  0  0  0  0  0  0  0
   -4.1182   -0.9037    1.9424 O   0  0  0  0  0  0  0  0  0  0  0  0
   -0.2041   -0.0415   -1.3928 C   0  0  1  0  0  0  0  0  0  0  0  0
    0.1014    1.1888   -0.5255 C   0  0  2  0  0  0  0  0  0  0  0  0
   -1.7215   -0.2040   -1.5660 C   0  0  0  0  0  0  0  0  0  0  0  0
   -0.7222    1.1592    0.7842 C   0  0  1  0  0  0  0  0  0  0  0  0
   -2.4346   -0.1789   -0.2131 C   0  0  2  0  0  0  0  0  0  0  0  0
    0.4435   -1.3145   -0.8516 C   0  0  0  0  0  0  0  0  0  0  0  0
    1.5915    1.2966   -0.2272 C   0  0  0  0  0  0  0  0  0  0  0  0
    2.3048    0.0523    0.1286 C   0  0  0  0  0  0  0  0  0  0  0  0
    1.7449   -1.1963   -0.1504 C   0  0  0  0  0  0  0  0  0  0  0  0
   -0.5873    2.4305    1.6222 C   0  0  0  0  0  0  0  0  0  0  0  0
   -3.9459   -0.2284   -0.3932 C   0  0  0  0  0  0  0  0  0  0  0  0
    3.5521    0.1373    0.7592 C   0  0  0  0  0  0  0  0  0  0  0  0
    2.4307   -2.3607    0.2183 C   0  0  0  0  0  0  0  0  0  0  0  0
   -4.6482   -0.6409    0.8733 C   0  0  0  0  0  0  0  0  0  0  0  0
    4.2314   -1.0259    1.1203 C   0  0  0  0  0  0  0  0  0  0  0  0
    3.6705   -2.2726    0.8528 C   0  0  0  0  0  0  0  0  0  0  0  0
   -1.9593   -1.1269   -2.1095 H   0  0  0  0  0  0  0  0  0  0  0  0
   -2.0928    0.6156   -2.1966 H   0  0  0  0  0  0  0  0  0  0  0  0
   -0.4231    0.3118    1.4142 H   0  0  0  0  0  0  0  0  0  0  0  0
   -2.1043   -1.0321    0.3932 H   0  0  0  0  0  0  0  0  0  0  0  0
   -1.0092    3.3031    1.1128 H   0  0  0  0  0  0  0  0  0  0  0  0
   -1.1609    2.3219    2.5503 H   0  0  0  0  0  0  0  0  0  0  0  0
    0.4513    2.6377    1.8931 H   0  0  0  0  0  0  0  0  0  0  0  0
   -4.3296    0.7549   -0.6884 H   0  0  0  0  0  0  0  0  0  0  0  0
   -4.2083   -0.9687   -1.1579 H   0  0  0  0  0  0  0  0  0  0  0  0
    0.0789   -0.5976   -3.2545 H   0  0  0  0  0  0  0  0  0  0  0  0
    0.0482    3.1469   -0.7472 H   0  0  0  0  0  0  0  0  0  0  0  0
    2.0214   -3.3467    0.0148 H   0  0  0  0  0  0  0  0  0  0  0  0
    5.1969   -0.9682    1.6159 H   0  0  0  0  0  0  0  0  0  0  0  0
    4.2001   -3.1777    1.1358 H   0  0  0  0  0  0  0  0  0  0  0  0
    3.5279    2.0615    0.9141 H   0  0  0  0  0  0  0  0  0  0  0  0
   -6.4765   -0.9497    1.4739 H   0  0  0  0  0  0  0  0  0  0  0  0
  1 12  1  0  0  0  0
  1 13  1  0  0  0  0
  2  9  1  0  0  0  0
  2 34  1  0  0  0  0
  3 10  1  0  0  0  0
  3 35  1  0  0  0  0
  4 14  2  0  0  0  0
  5 15  2  0  0  0  0
  6 20  1  0  0  0  0
  6 39  1  0  0  0  0
  7 22  1  0  0  0  0
  7 40  1  0  0  0  0
  8 22  2  0  0  0  0
  9 10  1  0  0  0  0
  9 11  1  0  0  0  0
  9 14  1  0  0  0  0
 10 12  1  0  0  0  0
 10 15  1  0  0  0  0
 11 13  1  0  0  0  0
 11 25  1  0  0  0  0
 11 26  1  0  0  0  0
 12 18  1  0  0  0  0
 12 27  1  0  0  0  0
 13 19  1  0  0  0  0
 13 28  1  0  0  0  0
 14 17  1  0  0  0  0
 15 16  1  0  0  0  0
 16 17  2  0  0  0  0
 16 20  1  0  0  0  0
 17 21  1  0  0  0  0
 18 29  1  0  0  0  0
 18 30  1  0  0  0  0
 18 31  1  0  0  0  0
 19 22  1  0  0  0  0
 19 32  1  0  0  0  0
 19 33  1  0  0  0  0
 20 23  2  0  0  0  0
 21 24  2  0  0  0  0
 21 36  1  0  0  0  0
 23 24  1  0  0  0  0
 23 37  1  0  0  0  0
 24 38  1  0  0  0  0
M  END
> <PUBCHEM_COMPOUND_CID>
122216056

> <PUBCHEM_CONFORMER_RMSD>
0.6

> <PUBCHEM_CONFORMER_DIVERSEORDER>
1
22
24
12
15
2
14
9
11
4
21
13
7
18
6
20
10
3
5
8
17
19
23
16

> <PUBCHEM_MMFF94_PARTIAL_CHARGES>
29
1 -0.56
10 0.34
12 0.28
13 0.28
14 0.42
15 0.42
16 0.09
17 0.09
19 0.06
2 -0.68
20 0.08
21 -0.15
22 0.66
23 -0.15
24 -0.15
3 -0.68
34 0.4
35 0.4
36 0.15
37 0.15
38 0.15
39 0.45
4 -0.57
40 0.5
5 -0.57
6 -0.53
7 -0.65
8 -0.57
9 0.34

> <PUBCHEM_EFFECTIVE_ROTOR_COUNT>
2.8

> <PUBCHEM_PHARMACOPHORE_FEATURES>
14
1 1 acceptor
1 2 acceptor
1 2 donor
1 3 acceptor
1 3 donor
1 4 acceptor
1 5 acceptor
1 6 donor
1 7 acceptor
1 8 acceptor
3 7 8 22 anion
6 1 9 10 11 12 13 rings
6 16 17 20 21 23 24 rings
6 9 10 14 15 16 17 rings

> <PUBCHEM_HEAVY_ATOM_COUNT>
24

> <PUBCHEM_ATOM_DEF_STEREO_COUNT>
2

> <PUBCHEM_ATOM_UDEF_STEREO_COUNT>
2

> <PUBCHEM_BOND_DEF_STEREO_COUNT>
0

> <PUBCHEM_BOND_UDEF_STEREO_COUNT>
0

> <PUBCHEM_ISOTOPIC_ATOM_COUNT>
0

> <PUBCHEM_COMPONENT_COUNT>
1

> <PUBCHEM_CACTVS_TAUTO_COUNT>
5

> <PUBCHEM_CONFORMER_ID>
0748DE7800000001

> <PUBCHEM_MMFF94_ENERGY>
63.9599

> <PUBCHEM_FEATURE_SELFOVERLAP>
71.218

> <PUBCHEM_SHAPE_FINGERPRINT>
10863032 1 18267012852331425936
10948715 1 12175608590536859076
1100329 8 18054784250766354072
11796584 16 16877942741848091683
12592029 89 17314246629471330060
12596602 18 17703789279639701763
12633257 1 17774996895143780659
12892183 10 18341610404049689465
13140716 1 18123457543750220304
13544653 18 18335136475580384179
13965767 371 16555690070166135299
14178342 30 17983866579123001088
14223421 5 18126848192227446270
14341114 328 17917991698003127835
14787075 74 18341887553978437195
14790565 3 17684939389779886932
15163728 17 14404911356909630354
15375462 189 18201148927409270520
15375462 478 18201712916734104421
15422964 175 18187360978767164030
16945 1 18264468707310873372
1813 80 16950283987904376727
19862831 5 11746943070294916659
20028762 73 18272083924830253567
20261772 1 18272928323615190302
20739085 24 18341341006615830484
21069387 34 17313117332050079465
21421861 104 18197523786560426017
22112679 90 17345168160213275948
231179 274 12319738050873727779
23184049 59 18413666915687260839
23227448 37 11527360745683835971
23419403 2 17968361395086690013
23557571 272 17167853175988068253
23559900 14 17240202114536840070
2748010 2 18052234225708459710
3286 77 18113336388322928988
392239 28 17701790333435721930
394222 165 18054530246062936241
4072396 5 17846500314394819609
427121 178 15554456188593754951
463206 1 15357693085107906305
465052 167 18334581247598632355
5104073 3 18265885883072673024
6442390 28 14117513255636877557

> <PUBCHEM_SHAPE_MULTIPOLES>
446.95
8.18
2.46
1.66
6.89
0.41
0.43
-3.56
-4.9
-1.59
-0.29
0.64
0.1
-0.02

> <PUBCHEM_SHAPE_SELFOVERLAP>
983.212

> <PUBCHEM_SHAPE_VOLUME>
236.8

> <PUBCHEM_COORDINATE_TYPE>
2
5
10

$$$$
