122215475
  -OEChem-03292013293D

 62 65  0     1  0  0  0  0  0999 V2000
   -0.6653   -1.8112    0.2557 O   0  0  0  0  0  0  0  0  0  0  0  0
    1.5479   -1.0969    0.7631 O   0  0  0  0  0  0  0  0  0  0  0  0
   -2.4530    2.3822    0.9837 O   0  0  0  0  0  0  0  0  0  0  0  0
   -4.3179   -0.2828   -2.4786 O   0  0  0  0  0  0  0  0  0  0  0  0
   -0.0023    3.3493    0.9871 O   0  0  0  0  0  0  0  0  0  0  0  0
    4.3735    2.5312   -0.6805 O   0  0  0  0  0  0  0  0  0  0  0  0
    4.5924   -1.0113    0.5815 O   0  0  0  0  0  0  0  0  0  0  0  0
    0.1690   -1.1161    1.2178 C   0  0  1  0  0  0  0  0  0  0  0  0
   -0.3584    0.3375    1.3645 C   0  0  2  0  0  0  0  0  0  0  0  0
   -1.5553    0.2842    0.5031 C   0  0  0  0  0  0  0  0  0  0  0  0
   -1.6704   -0.9041   -0.0748 C   0  0  0  0  0  0  0  0  0  0  0  0
   -2.7442   -1.3648   -1.0104 C   0  0  0  0  0  0  0  0  0  0  0  0
    0.1192   -1.8934    2.5310 C   0  0  0  0  0  0  0  0  0  0  0  0
    0.8008    1.0905    0.8263 C   0  0  0  0  0  0  0  0  0  0  0  0
   -3.7572    1.0600   -0.5616 C   0  0  0  0  0  0  0  0  0  0  0  0
   -2.5643    1.3339    0.3488 C   0  0  0  0  0  0  0  0  0  0  0  0
   -3.6321   -0.1857   -1.4538 C   0  0  0  0  0  0  0  0  0  0  0  0
    1.8327    0.2188    0.5178 C   0  0  0  0  0  0  0  0  0  0  0  0
   -2.1007   -1.9734   -2.2715 C   0  0  0  0  0  0  0  0  0  0  0  0
   -3.6296   -2.4154   -0.3283 C   0  0  0  0  0  0  0  0  0  0  0  0
    0.6793   -3.3015    2.3431 C   0  0  0  0  0  0  0  0  0  0  0  0
   -1.3095   -1.9510    3.0674 C   0  0  0  0  0  0  0  0  0  0  0  0
    0.9562    2.4547    0.6423 C   0  0  0  0  0  0  0  0  0  0  0  0
   -3.9326    2.2884   -1.4737 C   0  0  0  0  0  0  0  0  0  0  0  0
   -4.9999    0.8957    0.3231 C   0  0  0  0  0  0  0  0  0  0  0  0
    3.0410    0.6618    0.0122 C   0  0  0  0  0  0  0  0  0  0  0  0
    2.1678    2.9252    0.1289 C   0  0  0  0  0  0  0  0  0  0  0  0
    3.2043    2.0332   -0.1851 C   0  0  0  0  0  0  0  0  0  0  0  0
    4.1072   -0.2778   -0.3032 C   0  0  0  0  0  0  0  0  0  0  0  0
    4.6458   -0.3729   -1.7422 C   0  0  0  0  0  0  0  0  0  0  0  0
    4.4623   -1.7550   -2.3694 C   0  0  0  0  0  0  0  0  0  0  0  0
    2.9932   -2.1331   -2.4645 C   0  0  0  0  0  0  0  0  0  0  0  0
   -0.5618    0.6372    2.3963 H   0  0  0  0  0  0  0  0  0  0  0  0
    0.7523   -1.3881    3.2722 H   0  0  0  0  0  0  0  0  0  0  0  0
   -2.8598   -2.3347   -2.9753 H   0  0  0  0  0  0  0  0  0  0  0  0
   -1.4555   -2.8261   -2.0297 H   0  0  0  0  0  0  0  0  0  0  0  0
   -1.4920   -1.2317   -2.8030 H   0  0  0  0  0  0  0  0  0  0  0  0
   -4.4643   -2.7105   -0.9747 H   0  0  0  0  0  0  0  0  0  0  0  0
   -4.0623   -2.0372    0.6042 H   0  0  0  0  0  0  0  0  0  0  0  0
   -3.0622   -3.3210   -0.0836 H   0  0  0  0  0  0  0  0  0  0  0  0
   -1.9849   -2.4856    2.3919 H   0  0  0  0  0  0  0  0  0  0  0  0
   -1.7325   -0.9643    3.2714 H   0  0  0  0  0  0  0  0  0  0  0  0
   -1.3240   -2.4945    4.0197 H   0  0  0  0  0  0  0  0  0  0  0  0
    0.0993   -3.8798    1.6161 H   0  0  0  0  0  0  0  0  0  0  0  0
    0.6560   -3.8500    3.2915 H   0  0  0  0  0  0  0  0  0  0  0  0
    1.7217   -3.2814    2.0090 H   0  0  0  0  0  0  0  0  0  0  0  0
   -5.8860    0.6471   -0.2718 H   0  0  0  0  0  0  0  0  0  0  0  0
   -4.8210    2.1986   -2.1092 H   0  0  0  0  0  0  0  0  0  0  0  0
   -3.0648    2.4102   -2.1330 H   0  0  0  0  0  0  0  0  0  0  0  0
   -4.0379    3.2135   -0.8953 H   0  0  0  0  0  0  0  0  0  0  0  0
   -5.2163    1.8134    0.8822 H   0  0  0  0  0  0  0  0  0  0  0  0
   -4.8624    0.0973    1.0602 H   0  0  0  0  0  0  0  0  0  0  0  0
    2.3140    3.9931   -0.0190 H   0  0  0  0  0  0  0  0  0  0  0  0
    0.3085    4.2484    0.7854 H   0  0  0  0  0  0  0  0  0  0  0  0
    5.7092   -0.1092   -1.7112 H   0  0  0  0  0  0  0  0  0  0  0  0
    4.1498    0.3762   -2.3698 H   0  0  0  0  0  0  0  0  0  0  0  0
    4.3034    3.4986   -0.7503 H   0  0  0  0  0  0  0  0  0  0  0  0
    4.9924   -2.5113   -1.7795 H   0  0  0  0  0  0  0  0  0  0  0  0
    4.9031   -1.7540   -3.3726 H   0  0  0  0  0  0  0  0  0  0  0  0
    2.8844   -3.0716   -3.0177 H   0  0  0  0  0  0  0  0  0  0  0  0
    2.5520   -2.2845   -1.4758 H   0  0  0  0  0  0  0  0  0  0  0  0
    2.4173   -1.3641   -2.9891 H   0  0  0  0  0  0  0  0  0  0  0  0
  1  8  1  0  0  0  0
  1 11  1  0  0  0  0
  2  8  1  0  0  0  0
  2 18  1  0  0  0  0
  3 16  2  0  0  0  0
  4 17  2  0  0  0  0
  5 23  1  0  0  0  0
  5 54  1  0  0  0  0
  6 28  1  0  0  0  0
  6 57  1  0  0  0  0
  7 29  2  0  0  0  0
  8  9  1  0  0  0  0
  8 13  1  0  0  0  0
  9 10  1  0  0  0  0
  9 14  1  0  0  0  0
  9 33  1  0  0  0  0
 10 11  2  0  0  0  0
 10 16  1  0  0  0  0
 11 12  1  0  0  0  0
 12 17  1  0  0  0  0
 12 19  1  0  0  0  0
 12 20  1  0  0  0  0
 13 21  1  0  0  0  0
 13 22  1  0  0  0  0
 13 34  1  0  0  0  0
 14 18  1  0  0  0  0
 14 23  2  0  0  0  0
 15 16  1  0  0  0  0
 15 17  1  0  0  0  0
 15 24  1  0  0  0  0
 15 25  1  0  0  0  0
 18 26  2  0  0  0  0
 19 35  1  0  0  0  0
 19 36  1  0  0  0  0
 19 37  1  0  0  0  0
 20 38  1  0  0  0  0
 20 39  1  0  0  0  0
 20 40  1  0  0  0  0
 21 44  1  0  0  0  0
 21 45  1  0  0  0  0
 21 46  1  0  0  0  0
 22 41  1  0  0  0  0
 22 42  1  0  0  0  0
 22 43  1  0  0  0  0
 23 27  1  0  0  0  0
 24 48  1  0  0  0  0
 24 49  1  0  0  0  0
 24 50  1  0  0  0  0
 25 47  1  0  0  0  0
 25 51  1  0  0  0  0
 25 52  1  0  0  0  0
 26 28  1  0  0  0  0
 26 29  1  0  0  0  0
 27 28  2  0  0  0  0
 27 53  1  0  0  0  0
 29 30  1  0  0  0  0
 30 31  1  0  0  0  0
 30 55  1  0  0  0  0
 30 56  1  0  0  0  0
 31 32  1  0  0  0  0
 31 58  1  0  0  0  0
 31 59  1  0  0  0  0
 32 60  1  0  0  0  0
 32 61  1  0  0  0  0
 32 62  1  0  0  0  0
M  END
> <PUBCHEM_COMPOUND_CID>
122215475

> <PUBCHEM_CONFORMER_RMSD>
0.8

> <PUBCHEM_CONFORMER_DIVERSEORDER>
2
7
5
10
12
9
6
4
13
11
1
3
8

> <PUBCHEM_MMFF94_PARTIAL_CHARGES>
26
1 -0.36
10 -0.12
11 -0.06
12 0.2
14 -0.14
15 0.12
16 0.49
17 0.45
18 0.08
2 -0.36
23 0.08
26 0.09
27 -0.15
28 0.08
29 0.42
3 -0.57
30 0.06
4 -0.57
5 -0.53
53 0.15
54 0.45
57 0.45
6 -0.53
7 -0.57
8 0.56
9 0.28

> <PUBCHEM_EFFECTIVE_ROTOR_COUNT>
4.8

> <PUBCHEM_PHARMACOPHORE_FEATURES>
15
1 1 acceptor
1 2 acceptor
1 3 acceptor
1 32 hydrophobe
1 4 acceptor
1 5 donor
1 6 donor
1 7 acceptor
3 12 19 20 hydrophobe
3 13 21 22 hydrophobe
3 15 24 25 hydrophobe
5 1 8 9 10 11 rings
5 2 8 9 14 18 rings
6 10 11 12 15 16 17 rings
6 14 18 23 26 27 28 rings

> <PUBCHEM_HEAVY_ATOM_COUNT>
32

> <PUBCHEM_ATOM_DEF_STEREO_COUNT>
2

> <PUBCHEM_ATOM_UDEF_STEREO_COUNT>
0

> <PUBCHEM_BOND_DEF_STEREO_COUNT>
0

> <PUBCHEM_BOND_UDEF_STEREO_COUNT>
0

> <PUBCHEM_ISOTOPIC_ATOM_COUNT>
0

> <PUBCHEM_COMPONENT_COUNT>
1

> <PUBCHEM_CACTVS_TAUTO_COUNT>
21

> <PUBCHEM_CONFORMER_ID>
0748DC3300000002

> <PUBCHEM_MMFF94_ENERGY>
92.4669

> <PUBCHEM_FEATURE_SELFOVERLAP>
76.854

> <PUBCHEM_SHAPE_FINGERPRINT>
10165383 225 17313679160932555803
105312 117 17312829281520623438
10764073 3 17689207474933013067
10906281 52 18339088176727796016
11578080 2 17387713802027467068
11796584 16 15698000738524451773
12035759 4 18267857298673000225
12160290 23 16735232875134121987
12788726 201 14404640786923748459
13149001 5 18188783854335355808
13544653 18 14549017689026464330
13642711 20 18191328016652141043
14251757 17 18272091543657962190
15163728 17 16517106011865233989
15324884 4 16825310524390681384
15420108 30 17187558348619577960
15775530 1 17832432268959780632
17909252 39 17843959475454735643
1813 80 12751235938886026451
19319366 153 17896318004875199755
20465049 17 18410294671181704301
20691752 17 17822277016003150432
20775438 99 16332670938320844591
21033648 29 16732971033771002100
221357 26 18268141131940054317
22182313 1 18118984700457665600
22393880 68 18335967710650373037
22907989 373 17169567413015136987
23559900 14 17846770837099664768
238 59 17982450700768314156
27425 322 18260548969748506973
2748010 2 16824460601654588144
3380486 145 16962961649088952491
404807 14 16121091481505692343
4280585 95 18057328276107838078
460360 51 17458620151213478722
46194498 28 18270113659720660359
463206 1 16988551459338549687
469060 322 16661206000743107547
57527295 17 18334297587042873706
633830 44 18334855030520835949
70251023 43 17483656168844523007
7399639 24 17406827857354764761
9709674 26 18266467688164456208
9981440 41 17334755965508671152

> <PUBCHEM_SHAPE_MULTIPOLES>
617.46
8.99
3.59
2.56
2.14
0.79
-0.12
1.21
-6.33
0.52
0.98
-0.05
-2.39
0.79

> <PUBCHEM_SHAPE_SELFOVERLAP>
1356.128

> <PUBCHEM_SHAPE_VOLUME>
332.4

> <PUBCHEM_COORDINATE_TYPE>
2
5
10

$$$$
