122292
  -OEChem-03292013323D

 44 46  0     1  0  0  0  0  0999 V2000
   -2.2878    1.1216   -0.1835 O   0  0  0  0  0  0  0  0  0  0  0  0
   -1.6847    2.7231    1.3756 O   0  0  0  0  0  0  0  0  0  0  0  0
   -0.0262   -2.1226   -2.6241 O   0  0  0  0  0  0  0  0  0  0  0  0
    3.4944    0.1797    2.2818 O   0  5  0  0  0  0  0  0  0  0  0  0
    3.1592   -1.5302    0.9348 O   0  0  0  0  0  0  0  0  0  0  0  0
    1.8623    2.0059   -1.2645 N   0  0  0  0  0  0  0  0  0  0  0  0
    2.9936   -0.3539    1.2834 N   0  3  0  0  0  0  0  0  0  0  0  0
    0.3438   -1.1016   -1.7655 N   0  0  0  0  0  0  0  0  0  0  0  0
   -0.6781   -3.1461   -1.9578 N   0  0  0  0  0  0  0  0  0  0  0  0
    0.6970    0.5179    0.8705 C   0  0  2  0  0  0  0  0  0  0  0  0
   -0.0577    1.5929    0.0744 C   0  0  0  0  0  0  0  0  0  0  0  0
    2.1553    0.4552    0.4649 C   0  0  0  0  0  0  0  0  0  0  0  0
    0.0401   -0.8186    0.6808 C   0  0  0  0  0  0  0  0  0  0  0  0
    0.5330    2.2572   -0.9482 C   0  0  0  0  0  0  0  0  0  0  0  0
    2.6943    1.1515   -0.5534 C   0  0  0  0  0  0  0  0  0  0  0  0
   -0.0735   -1.4762   -0.5497 C   0  0  0  0  0  0  0  0  0  0  0  0
   -1.4277    1.8988    0.5179 C   0  0  0  0  0  0  0  0  0  0  0  0
   -0.5120   -1.4971    1.7742 C   0  0  0  0  0  0  0  0  0  0  0  0
   -0.1372    3.2914   -1.8129 C   0  0  0  0  0  0  0  0  0  0  0  0
    4.1236    1.1183   -1.0214 C   0  0  0  0  0  0  0  0  0  0  0  0
   -0.7232   -2.7757   -0.6719 C   0  0  0  0  0  0  0  0  0  0  0  0
   -1.1443   -2.7626    1.6551 C   0  0  0  0  0  0  0  0  0  0  0  0
   -1.2746   -3.4487    0.4338 C   0  0  0  0  0  0  0  0  0  0  0  0
   -3.6707    1.3053    0.1367 C   0  0  0  0  0  0  0  0  0  0  0  0
   -4.5138    0.3975   -0.7457 C   0  0  0  0  0  0  0  0  0  0  0  0
   -3.8850    1.0172    1.6148 C   0  0  0  0  0  0  0  0  0  0  0  0
    0.6545    0.8175    1.9276 H   0  0  0  0  0  0  0  0  0  0  0  0
    2.2693    2.5266   -2.0333 H   0  0  0  0  0  0  0  0  0  0  0  0
   -0.4644   -1.0499    2.7663 H   0  0  0  0  0  0  0  0  0  0  0  0
    0.3845    4.2506   -1.7276 H   0  0  0  0  0  0  0  0  0  0  0  0
   -1.1839    3.4604   -1.5446 H   0  0  0  0  0  0  0  0  0  0  0  0
   -0.1141    2.9778   -2.8621 H   0  0  0  0  0  0  0  0  0  0  0  0
    4.7502    0.4281   -0.4501 H   0  0  0  0  0  0  0  0  0  0  0  0
    4.5705    2.1148   -0.9378 H   0  0  0  0  0  0  0  0  0  0  0  0
    4.1686    0.8079   -2.0710 H   0  0  0  0  0  0  0  0  0  0  0  0
   -1.5490   -3.2235    2.5551 H   0  0  0  0  0  0  0  0  0  0  0  0
   -3.9493    2.3434   -0.0848 H   0  0  0  0  0  0  0  0  0  0  0  0
   -1.7607   -4.4133    0.3625 H   0  0  0  0  0  0  0  0  0  0  0  0
   -5.5824    0.5293   -0.5518 H   0  0  0  0  0  0  0  0  0  0  0  0
   -4.3212    0.6086   -1.8031 H   0  0  0  0  0  0  0  0  0  0  0  0
   -4.2529   -0.6543   -0.5833 H   0  0  0  0  0  0  0  0  0  0  0  0
   -4.9487    0.8579    1.8250 H   0  0  0  0  0  0  0  0  0  0  0  0
   -3.5764    1.8391    2.2650 H   0  0  0  0  0  0  0  0  0  0  0  0
   -3.3382    0.1222    1.9309 H   0  0  0  0  0  0  0  0  0  0  0  0
  1 17  1  0  0  0  0
  1 24  1  0  0  0  0
  2 17  2  0  0  0  0
  3  8  1  0  0  0  0
  3  9  1  0  0  0  0
  4  7  1  0  0  0  0
  5  7  2  0  0  0  0
  6 14  1  0  0  0  0
  6 15  1  0  0  0  0
  6 28  1  0  0  0  0
  7 12  1  0  0  0  0
  8 16  2  0  0  0  0
  9 21  2  0  0  0  0
 10 11  1  0  0  0  0
 10 12  1  0  0  0  0
 10 13  1  0  0  0  0
 10 27  1  0  0  0  0
 11 14  2  0  0  0  0
 11 17  1  0  0  0  0
 12 15  2  0  0  0  0
 13 16  1  0  0  0  0
 13 18  2  0  0  0  0
 14 19  1  0  0  0  0
 15 20  1  0  0  0  0
 16 21  1  0  0  0  0
 18 22  1  0  0  0  0
 18 29  1  0  0  0  0
 19 30  1  0  0  0  0
 19 31  1  0  0  0  0
 19 32  1  0  0  0  0
 20 33  1  0  0  0  0
 20 34  1  0  0  0  0
 20 35  1  0  0  0  0
 21 23  1  0  0  0  0
 22 23  2  0  0  0  0
 22 36  1  0  0  0  0
 23 38  1  0  0  0  0
 24 25  1  0  0  0  0
 24 26  1  0  0  0  0
 24 37  1  0  0  0  0
 25 39  1  0  0  0  0
 25 40  1  0  0  0  0
 25 41  1  0  0  0  0
 26 42  1  0  0  0  0
 26 43  1  0  0  0  0
 26 44  1  0  0  0  0
M  CHG  2   4  -1   7   1
M  END
> <PUBCHEM_COMPOUND_CID>
122292

> <PUBCHEM_CONFORMER_RMSD>
0.8

> <PUBCHEM_CONFORMER_DIVERSEORDER>
1
6
16
14
5
15
8
12
9
10
7
13
4
11
3
2

> <PUBCHEM_MMFF94_PARTIAL_CHARGES>
28
1 -0.43
10 0.42
11 -0.12
12 0.07
13 -0.14
14 -0.04
15 -0.04
16 0.29
17 0.71
18 -0.15
19 0.14
2 -0.57
20 0.14
21 0.29
22 -0.15
23 -0.15
24 0.28
28 0.4
29 0.15
3 0.24
36 0.15
38 0.15
4 -0.52
5 -0.52
6 -0.6
7 0.84
8 -0.41
9 -0.41

> <PUBCHEM_EFFECTIVE_ROTOR_COUNT>
5.4

> <PUBCHEM_PHARMACOPHORE_FEATURES>
12
1 2 acceptor
1 4 acceptor
1 4 anion
1 5 acceptor
1 6 cation
1 6 donor
1 8 acceptor
1 9 acceptor
3 24 25 26 hydrophobe
5 3 8 9 16 21 rings
6 13 16 18 21 22 23 rings
6 6 10 11 12 14 15 rings

> <PUBCHEM_HEAVY_ATOM_COUNT>
26

> <PUBCHEM_ATOM_DEF_STEREO_COUNT>
1

> <PUBCHEM_ATOM_UDEF_STEREO_COUNT>
0

> <PUBCHEM_BOND_DEF_STEREO_COUNT>
0

> <PUBCHEM_BOND_UDEF_STEREO_COUNT>
0

> <PUBCHEM_ISOTOPIC_ATOM_COUNT>
0

> <PUBCHEM_COMPONENT_COUNT>
1

> <PUBCHEM_CACTVS_TAUTO_COUNT>
2

> <PUBCHEM_CONFORMER_ID>
0001DDB400000001

> <PUBCHEM_MMFF94_ENERGY>
74.659

> <PUBCHEM_FEATURE_SELFOVERLAP>
61.15

> <PUBCHEM_SHAPE_FINGERPRINT>
104564 63 17977395145734133255
11578080 2 17342662493367371929
12788726 201 18123466356496013075
13140716 1 18188760773450210848
13583140 156 17168435981564749457
14863182 85 18201727219660982941
16752209 62 18199189679293160150
16945 1 18342735225946082048
17492 54 18261390087617143749
20602899 9 17417824936733441206
20691752 17 17973466320342689309
20905425 154 17399791597402404946
229495 10 16154250785230468094
23419403 2 17264187900398685942
34934 24 18114467863614845108
6287921 2 17842005390332368223
6438718 38 18268992157934324058
81228 2 18122593245737436498

> <PUBCHEM_SHAPE_MULTIPOLES>
485.8
5.5
4.1
2.08
0.22
1.24
-0.39
-2.51
1.16
1.8
-1.09
-0.23
0.82
-1.02

> <PUBCHEM_SHAPE_SELFOVERLAP>
1046.658

> <PUBCHEM_SHAPE_VOLUME>
269.2

> <PUBCHEM_COORDINATE_TYPE>
2
5
10

$$$$
