122214229
  -OEChem-03292013293D

 71 72  0     1  0  0  0  0  0999 V2000
   -3.6449   -0.2653    0.2311 O   0  0  0  0  0  0  0  0  0  0  0  0
    1.0805    1.3507    0.6441 O   0  0  0  0  0  0  0  0  0  0  0  0
    4.3966    0.4916   -0.3478 O   0  0  0  0  0  0  0  0  0  0  0  0
    1.8635    2.8360   -1.5926 O   0  0  0  0  0  0  0  0  0  0  0  0
    2.1014   -1.3320   -0.4769 O   0  0  0  0  0  0  0  0  0  0  0  0
    3.0399    1.0260    1.7971 O   0  0  0  0  0  0  0  0  0  0  0  0
   -5.6451   -1.4000    0.1179 O   0  0  0  0  0  0  0  0  0  0  0  0
    4.2426   -2.1494   -0.6962 O   0  0  0  0  0  0  0  0  0  0  0  0
   -2.9720    2.8951    0.7334 N   0  0  2  0  0  0  0  0  0  0  0  0
   -3.3668    1.7423    1.5988 C   0  0  1  0  0  0  0  0  0  0  0  0
   -4.3114    0.8773    0.7568 C   0  0  1  0  0  0  0  0  0  0  0  0
   -3.4395    2.5916   -0.6256 C   0  0  0  0  0  0  0  0  0  0  0  0
   -4.7128    1.7967   -0.3867 C   0  0  0  0  0  0  0  0  0  0  0  0
   -1.4986    2.9983    0.8219 C   0  0  0  0  0  0  0  0  0  0  0  0
   -2.0955    1.1176    2.0652 C   0  0  0  0  0  0  0  0  0  0  0  0
   -1.0474    1.8217    1.6294 C   0  0  0  0  0  0  0  0  0  0  0  0
    0.3901    1.5520    1.8814 C   0  0  0  0  0  0  0  0  0  0  0  0
    3.0447    0.9025   -0.6448 C   0  0  1  0  0  0  0  0  0  0  0  0
    3.1585    2.2530   -1.4274 C   0  0  0  0  0  0  0  0  0  0  0  0
    2.4016   -0.2870   -1.4128 C   0  0  2  0  0  0  0  0  0  0  0  0
    2.4153    1.0933    0.7444 C   0  0  0  0  0  0  0  0  0  0  0  0
   -4.4348   -1.3431   -0.0468 C   0  0  0  0  0  0  0  0  0  0  0  0
    4.0289    3.2764   -0.6777 C   0  0  0  0  0  0  0  0  0  0  0  0
    3.7529    2.0560   -2.8345 C   0  0  0  0  0  0  0  0  0  0  0  0
    1.1480   -0.0180   -2.2359 C   0  0  0  0  0  0  0  0  0  0  0  0
   -3.5965   -2.4587   -0.5820 C   0  0  0  0  0  0  0  0  0  0  0  0
   -2.4745   -2.9769    0.2679 C   0  0  0  0  0  0  0  0  0  0  0  0
   -3.9102   -2.8882   -1.8182 C   0  0  0  0  0  0  0  0  0  0  0  0
    3.1203   -2.1930   -0.2127 C   0  0  0  0  0  0  0  0  0  0  0  0
   -4.9984   -2.3735   -2.7063 C   0  0  0  0  0  0  0  0  0  0  0  0
    2.6563   -3.2214    0.7675 C   0  0  0  0  0  0  0  0  0  0  0  0
    1.4735   -4.0691    0.4036 C   0  0  0  0  0  0  0  0  0  0  0  0
    3.3366   -3.2763    1.9274 C   0  0  0  0  0  0  0  0  0  0  0  0
    4.4971   -2.4262    2.3372 C   0  0  0  0  0  0  0  0  0  0  0  0
   -3.9124    2.1534    2.4571 H   0  0  0  0  0  0  0  0  0  0  0  0
   -5.1820    0.5863    1.3571 H   0  0  0  0  0  0  0  0  0  0  0  0
   -2.7253    1.9739   -1.1856 H   0  0  0  0  0  0  0  0  0  0  0  0
   -3.6301    3.5063   -1.1948 H   0  0  0  0  0  0  0  0  0  0  0  0
   -5.5236    2.4658   -0.0738 H   0  0  0  0  0  0  0  0  0  0  0  0
   -5.0231    1.2592   -1.2878 H   0  0  0  0  0  0  0  0  0  0  0  0
   -1.2387    3.9266    1.3426 H   0  0  0  0  0  0  0  0  0  0  0  0
   -1.0168    3.0182   -0.1621 H   0  0  0  0  0  0  0  0  0  0  0  0
   -2.0395    0.2320    2.6813 H   0  0  0  0  0  0  0  0  0  0  0  0
    0.5088    0.6578    2.5051 H   0  0  0  0  0  0  0  0  0  0  0  0
    0.8321    2.4063    2.4078 H   0  0  0  0  0  0  0  0  0  0  0  0
    3.1372   -0.6642   -2.1374 H   0  0  0  0  0  0  0  0  0  0  0  0
    3.6457    3.4656    0.3306 H   0  0  0  0  0  0  0  0  0  0  0  0
    4.0060    4.2470   -1.1887 H   0  0  0  0  0  0  0  0  0  0  0  0
    5.0768    2.9697   -0.6074 H   0  0  0  0  0  0  0  0  0  0  0  0
    3.1314    1.4463   -3.4908 H   0  0  0  0  0  0  0  0  0  0  0  0
    4.7477    1.6003   -2.7871 H   0  0  0  0  0  0  0  0  0  0  0  0
    3.8529    3.0218   -3.3451 H   0  0  0  0  0  0  0  0  0  0  0  0
    0.3231    0.3141   -1.5971 H   0  0  0  0  0  0  0  0  0  0  0  0
    1.2784    0.7138   -3.0318 H   0  0  0  0  0  0  0  0  0  0  0  0
    0.8052   -0.9507   -2.6999 H   0  0  0  0  0  0  0  0  0  0  0  0
    4.7763    1.0969    0.3103 H   0  0  0  0  0  0  0  0  0  0  0  0
    1.9621    3.6628   -2.0946 H   0  0  0  0  0  0  0  0  0  0  0  0
   -1.9761   -3.8307   -0.2024 H   0  0  0  0  0  0  0  0  0  0  0  0
   -1.7244   -2.1971    0.4333 H   0  0  0  0  0  0  0  0  0  0  0  0
   -2.8559   -3.3052    1.2400 H   0  0  0  0  0  0  0  0  0  0  0  0
   -3.3207   -3.7009   -2.2387 H   0  0  0  0  0  0  0  0  0  0  0  0
   -5.8270   -3.0875   -2.7340 H   0  0  0  0  0  0  0  0  0  0  0  0
   -4.6100   -2.2690   -3.7251 H   0  0  0  0  0  0  0  0  0  0  0  0
   -5.3859   -1.3939   -2.4174 H   0  0  0  0  0  0  0  0  0  0  0  0
    0.5843   -3.4480    0.2642 H   0  0  0  0  0  0  0  0  0  0  0  0
    1.6688   -4.6119   -0.5266 H   0  0  0  0  0  0  0  0  0  0  0  0
    1.2507   -4.8055    1.1825 H   0  0  0  0  0  0  0  0  0  0  0  0
    3.0259   -4.0144    2.6645 H   0  0  0  0  0  0  0  0  0  0  0  0
    5.4184   -3.0158    2.3108 H   0  0  0  0  0  0  0  0  0  0  0  0
    4.3453   -2.0852    3.3670 H   0  0  0  0  0  0  0  0  0  0  0  0
    4.6367   -1.5306    1.7288 H   0  0  0  0  0  0  0  0  0  0  0  0
  1 11  1  0  0  0  0
  1 22  1  0  0  0  0
  2 17  1  0  0  0  0
  2 21  1  0  0  0  0
  3 18  1  0  0  0  0
  3 56  1  0  0  0  0
  4 19  1  0  0  0  0
  4 57  1  0  0  0  0
  5 20  1  0  0  0  0
  5 29  1  0  0  0  0
  6 21  2  0  0  0  0
  7 22  2  0  0  0  0
  8 29  2  0  0  0  0
  9 10  1  0  0  0  0
  9 12  1  0  0  0  0
  9 14  1  0  0  0  0
 10 11  1  0  0  0  0
 10 15  1  0  0  0  0
 10 35  1  0  0  0  0
 11 13  1  0  0  0  0
 11 36  1  0  0  0  0
 12 13  1  0  0  0  0
 12 37  1  0  0  0  0
 12 38  1  0  0  0  0
 13 39  1  0  0  0  0
 13 40  1  0  0  0  0
 14 16  1  0  0  0  0
 14 41  1  0  0  0  0
 14 42  1  0  0  0  0
 15 16  2  0  0  0  0
 15 43  1  0  0  0  0
 16 17  1  0  0  0  0
 17 44  1  0  0  0  0
 17 45  1  0  0  0  0
 18 19  1  0  0  0  0
 18 20  1  0  0  0  0
 18 21  1  0  0  0  0
 19 23  1  0  0  0  0
 19 24  1  0  0  0  0
 20 25  1  0  0  0  0
 20 46  1  0  0  0  0
 22 26  1  0  0  0  0
 23 47  1  0  0  0  0
 23 48  1  0  0  0  0
 23 49  1  0  0  0  0
 24 50  1  0  0  0  0
 24 51  1  0  0  0  0
 24 52  1  0  0  0  0
 25 53  1  0  0  0  0
 25 54  1  0  0  0  0
 25 55  1  0  0  0  0
 26 27  1  0  0  0  0
 26 28  2  0  0  0  0
 27 58  1  0  0  0  0
 27 59  1  0  0  0  0
 27 60  1  0  0  0  0
 28 30  1  0  0  0  0
 28 61  1  0  0  0  0
 29 31  1  0  0  0  0
 30 62  1  0  0  0  0
 30 63  1  0  0  0  0
 30 64  1  0  0  0  0
 31 32  1  0  0  0  0
 31 33  2  0  0  0  0
 32 65  1  0  0  0  0
 32 66  1  0  0  0  0
 32 67  1  0  0  0  0
 33 34  1  0  0  0  0
 33 68  1  0  0  0  0
 34 69  1  0  0  0  0
 34 70  1  0  0  0  0
 34 71  1  0  0  0  0
M  END
> <PUBCHEM_COMPOUND_CID>
122214229

> <PUBCHEM_CONFORMER_RMSD>
1.2

> <PUBCHEM_CONFORMER_DIVERSEORDER>
2
256
210
39
230
135
82
49
283
121
159
252
274
139
244
114
240
45
260
286
137
134
175
143
173
96
61
222
110
23
294
190
194
105
46
43
293
207
116
185
195
52
160
93
168
310
91
261
86
287
265
281
124
103
97
311
200
188
277
223
59
227
180
44
132
232
62
158
236
145
239
184
42
303
218
140
152
167
219
191
123
98
22
64
215
250
216
270
157
271
305
233
66
130
267
24
187
155
142
163
306
309
161
212
60
70
217
106
186
69
174
193
276
85
296
78
34
170
109
118
254
172
28
156
189
149
146
79
243
38
9
234
136
278
50
269
241
181
203
57
292
148
63
165
55
308
30
75
112
7
166
26
15
54
80
199
73
90
272
144
273
291
154
208
225
284
204
302
253
214
87
16
259
19
177
248
237
125
211
228
307
220
299
262
92
53
13
162
297
33
150
65
21
224
275
117
128
100
202
206
58
226
11
122
47
129
89
72
264
298
77
51
312
18
251
304
183
257
176
108
192
12
221
67
238
213
88
153
288
131
178
48
74
10
37
247
197
83
209
300
126
95
246
99
20
182
282
295
29
279
107
249
147
6
164
266
280
17
245
289
111
119
285
115
120
36
235
242
27
133
301
102
196
8
290
56
1
41
169
151
113
179
141
171
255
127
263
231
76
205
81
31
198
268
4
35
3
71
201
229
32
14
5
94
258
138
101
68
84
104
25
40

> <PUBCHEM_MMFF94_PARTIAL_CHARGES>
35
1 -0.43
10 0.41
11 0.28
12 0.27
14 0.41
15 -0.29
16 -0.28
17 0.42
18 0.34
19 0.28
2 -0.43
20 0.28
21 0.66
22 0.71
26 -0.12
27 0.14
28 -0.29
29 0.71
3 -0.68
30 0.14
31 -0.12
32 0.14
33 -0.29
34 0.14
4 -0.68
43 0.15
5 -0.43
56 0.4
57 0.4
6 -0.57
61 0.15
68 0.15
7 -0.57
8 -0.57
9 -0.81

> <PUBCHEM_EFFECTIVE_ROTOR_COUNT>
12.8

> <PUBCHEM_PHARMACOPHORE_FEATURES>
15
1 27 hydrophobe
1 3 acceptor
1 3 donor
1 30 hydrophobe
1 32 hydrophobe
1 34 hydrophobe
1 4 acceptor
1 4 donor
1 6 acceptor
1 7 acceptor
1 8 acceptor
1 9 cation
3 19 23 24 hydrophobe
5 9 10 11 12 13 rings
5 9 10 14 15 16 rings

> <PUBCHEM_HEAVY_ATOM_COUNT>
34

> <PUBCHEM_ATOM_DEF_STEREO_COUNT>
4

> <PUBCHEM_ATOM_UDEF_STEREO_COUNT>
0

> <PUBCHEM_BOND_DEF_STEREO_COUNT>
2

> <PUBCHEM_BOND_UDEF_STEREO_COUNT>
0

> <PUBCHEM_ISOTOPIC_ATOM_COUNT>
0

> <PUBCHEM_COMPONENT_COUNT>
1

> <PUBCHEM_CACTVS_TAUTO_COUNT>
1

> <PUBCHEM_CONFORMER_ID>
0748D75500000002

> <PUBCHEM_MMFF94_ENERGY>
81.4211

> <PUBCHEM_FEATURE_SELFOVERLAP>
76.49

> <PUBCHEM_SHAPE_FINGERPRINT>
10032420 55 18127412482242799592
10074138 170 16328741356329568640
10928967 22 18201443640060964115
11007060 377 18120676862117912708
11135609 149 17314212390034165954
11421498 54 18195245756906937606
12788726 201 17988379112925737219
13560911 43 18260268521163738059
13726171 33 17559420078360456961
14117953 113 17257935888552179319
144659 178 18409724058816742840
15001296 14 18408890654604322315
15250474 111 18412543193613440043
15537594 2 18128833000369616643
161222 10 17769671801353348442
17138139 8 18057047015351626758
17909252 39 17273443675808132118
19315092 285 18191844886033403695
20764821 26 18272364266003208043
20775530 9 18342174496933786215
2132832 1 18337094701231183603
21458453 9 17128129994082923482
22393880 68 18270138875743323460
23559900 14 18200600176728499344
24941158 1 16370724825125399226
25222932 49 17774145937526069780
338550 245 18337387149769935403
340366 18 18045781178780076945
3493558 16 15952175185194149420
4394409 98 17832411013477387965
463206 1 18341621373374928353
469060 322 17611782237000885675
474144 1 18409450271415266803
5081480 168 16009031627213613566
57527573 199 17264386126683623152
6823239 73 16916799516600384448

> <PUBCHEM_SHAPE_MULTIPOLES>
647.77
11.47
5.4
2.49
6.82
2.51
-0.62
3.13
-2.29
-1.26
0.12
-0.88
-0.06
-5.2

> <PUBCHEM_SHAPE_SELFOVERLAP>
1331.934

> <PUBCHEM_SHAPE_VOLUME>
372.9

> <PUBCHEM_COORDINATE_TYPE>
2
5
10

$$$$
