122225500
  -OEChem-03292013293D

 63 67  0     1  0  0  0  0  0999 V2000
   -1.7147    1.0063   -0.6896 O   0  0  0  0  0  0  0  0  0  0  0  0
   -5.0136   -1.7035   -0.5732 O   0  0  0  0  0  0  0  0  0  0  0  0
   -5.1525    0.9442   -1.6419 O   0  0  0  0  0  0  0  0  0  0  0  0
   -4.2982    3.3400   -0.7254 O   0  0  0  0  0  0  0  0  0  0  0  0
    0.9538    0.4021   -1.7572 O   0  0  0  0  0  0  0  0  0  0  0  0
    1.0634   -2.7792    0.3294 O   0  0  0  0  0  0  0  0  0  0  0  0
   -1.0533   -4.1976    1.2521 O   0  0  0  0  0  0  0  0  0  0  0  0
   -1.2103   -2.9253    0.6846 N   0  0  0  0  0  0  0  0  0  0  0  0
    3.3426    0.3739   -0.2079 C   0  0  2  0  0  0  0  0  0  0  0  0
    4.3913    0.5058    0.9238 C   0  0  1  0  0  0  0  0  0  0  0  0
    1.9405    0.2228    0.4133 C   0  0  1  0  0  0  0  0  0  0  0  0
    3.7490   -0.7857   -1.1316 C   0  0  0  0  0  0  0  0  0  0  0  0
    5.7689    0.8160    0.3212 C   0  0  0  0  0  0  0  0  0  0  0  0
    6.2025   -0.2952   -0.6494 C   0  0  1  0  0  0  0  0  0  0  0  0
    1.5671    1.4682    1.2640 C   0  0  1  0  0  0  0  0  0  0  0  0
    5.1390   -0.5462   -1.7274 C   0  0  0  0  0  0  0  0  0  0  0  0
   -4.1733   -0.6595   -0.0962 C   0  0  1  0  0  0  0  0  0  0  0  0
   -3.9453    0.3717   -1.1731 C   0  0  2  0  0  0  0  0  0  0  0  0
   -3.0439    1.2944   -0.3296 C   0  0  2  0  0  0  0  0  0  0  0  0
    3.9836    1.5077    1.9693 C   0  0  0  0  0  0  0  0  0  0  0  0
    0.8844   -0.0514   -0.6177 C   0  0  0  0  0  0  0  0  0  0  0  0
   -4.8844    0.1033    1.1197 C   0  0  0  0  0  0  0  0  0  0  0  0
    2.7211    1.9312    2.1221 C   0  0  0  0  0  0  0  0  0  0  0  0
   -3.8045    2.4509    0.2589 C   0  0  2  0  0  0  0  0  0  0  0  0
   -2.7195   -1.2156    0.1303 C   0  0  0  0  0  0  0  0  0  0  0  0
   -4.9956    1.7163    1.0112 C   0  0  0  0  0  0  0  0  0  0  0  0
   -1.5090   -0.3745   -0.2852 C   0  0  0  0  0  0  0  0  0  0  0  0
   -0.2635   -0.8864   -0.2193 C   0  0  0  0  0  0  0  0  0  0  0  0
    7.5485    0.0419   -1.2882 C   0  0  0  0  0  0  0  0  0  0  0  0
    1.0751    2.6659    0.4393 C   0  0  0  0  0  0  0  0  0  0  0  0
   -2.4862   -2.4529    0.5942 C   0  0  0  0  0  0  0  0  0  0  0  0
   -0.0631   -2.2895    0.2797 C   0  0  0  0  0  0  0  0  0  0  0  0
    3.3568    1.2909   -0.8153 H   0  0  0  0  0  0  0  0  0  0  0  0
    4.4718   -0.4588    1.4469 H   0  0  0  0  0  0  0  0  0  0  0  0
    1.9888   -0.6348    1.0969 H   0  0  0  0  0  0  0  0  0  0  0  0
    3.0438   -0.9100   -1.9587 H   0  0  0  0  0  0  0  0  0  0  0  0
    3.7485   -1.7291   -0.5713 H   0  0  0  0  0  0  0  0  0  0  0  0
    5.7423    1.7825   -0.1997 H   0  0  0  0  0  0  0  0  0  0  0  0
    6.5154    0.9095    1.1206 H   0  0  0  0  0  0  0  0  0  0  0  0
    6.3282   -1.2219   -0.0733 H   0  0  0  0  0  0  0  0  0  0  0  0
    0.7495    1.1785    1.9379 H   0  0  0  0  0  0  0  0  0  0  0  0
    5.4242   -1.4131   -2.3354 H   0  0  0  0  0  0  0  0  0  0  0  0
    5.0910    0.3139   -2.4078 H   0  0  0  0  0  0  0  0  0  0  0  0
   -3.4418   -0.0397   -2.0580 H   0  0  0  0  0  0  0  0  0  0  0  0
   -2.8700    0.9642    0.7103 H   0  0  0  0  0  0  0  0  0  0  0  0
    4.7439    1.8712    2.6552 H   0  0  0  0  0  0  0  0  0  0  0  0
   -4.3431   -0.1316    2.0458 H   0  0  0  0  0  0  0  0  0  0  0  0
   -5.9009   -0.2863    1.2561 H   0  0  0  0  0  0  0  0  0  0  0  0
    2.5018    2.6462    2.9110 H   0  0  0  0  0  0  0  0  0  0  0  0
   -3.1898    3.0309    0.9573 H   0  0  0  0  0  0  0  0  0  0  0  0
   -5.9489    1.9625    0.5267 H   0  0  0  0  0  0  0  0  0  0  0  0
   -5.0683    2.1156    2.0303 H   0  0  0  0  0  0  0  0  0  0  0  0
    7.4900    0.9628   -1.8783 H   0  0  0  0  0  0  0  0  0  0  0  0
    7.8766   -0.7653   -1.9515 H   0  0  0  0  0  0  0  0  0  0  0  0
    8.3184    0.1793   -0.5217 H   0  0  0  0  0  0  0  0  0  0  0  0
    1.8205    2.9853   -0.2970 H   0  0  0  0  0  0  0  0  0  0  0  0
    0.8691    3.5250    1.0891 H   0  0  0  0  0  0  0  0  0  0  0  0
    0.1484    2.4521   -0.0922 H   0  0  0  0  0  0  0  0  0  0  0  0
   -3.2779   -3.1219    0.9100 H   0  0  0  0  0  0  0  0  0  0  0  0
   -4.6137   -2.0736   -1.3788 H   0  0  0  0  0  0  0  0  0  0  0  0
   -5.6998    0.2216   -1.9939 H   0  0  0  0  0  0  0  0  0  0  0  0
   -4.8565    3.9945   -0.2723 H   0  0  0  0  0  0  0  0  0  0  0  0
   -0.7365   -3.9603    2.1406 H   0  0  0  0  0  0  0  0  0  0  0  0
  1 19  1  0  0  0  0
  1 27  1  0  0  0  0
  2 17  1  0  0  0  0
  2 60  1  0  0  0  0
  3 18  1  0  0  0  0
  3 61  1  0  0  0  0
  4 24  1  0  0  0  0
  4 62  1  0  0  0  0
  5 21  2  0  0  0  0
  6 32  2  0  0  0  0
  7  8  1  0  0  0  0
  7 63  1  0  0  0  0
  8 31  1  0  0  0  0
  8 32  1  0  0  0  0
  9 10  1  0  0  0  0
  9 11  1  0  0  0  0
  9 12  1  0  0  0  0
  9 33  1  0  0  0  0
 10 13  1  0  0  0  0
 10 20  1  0  0  0  0
 10 34  1  0  0  0  0
 11 15  1  0  0  0  0
 11 21  1  0  0  0  0
 11 35  1  0  0  0  0
 12 16  1  0  0  0  0
 12 36  1  0  0  0  0
 12 37  1  0  0  0  0
 13 14  1  0  0  0  0
 13 38  1  0  0  0  0
 13 39  1  0  0  0  0
 14 16  1  0  0  0  0
 14 29  1  0  0  0  0
 14 40  1  0  0  0  0
 15 23  1  0  0  0  0
 15 30  1  0  0  0  0
 15 41  1  0  0  0  0
 16 42  1  0  0  0  0
 16 43  1  0  0  0  0
 17 18  1  0  0  0  0
 17 22  1  0  0  0  0
 17 25  1  0  0  0  0
 18 19  1  0  0  0  0
 18 44  1  0  0  0  0
 19 24  1  0  0  0  0
 19 45  1  0  0  0  0
 20 23  2  0  0  0  0
 20 46  1  0  0  0  0
 21 28  1  0  0  0  0
 22 26  1  0  0  0  0
 22 47  1  0  0  0  0
 22 48  1  0  0  0  0
 23 49  1  0  0  0  0
 24 26  1  0  0  0  0
 24 50  1  0  0  0  0
 25 27  1  0  0  0  0
 25 31  2  0  0  0  0
 26 51  1  0  0  0  0
 26 52  1  0  0  0  0
 27 28  2  0  0  0  0
 28 32  1  0  0  0  0
 29 53  1  0  0  0  0
 29 54  1  0  0  0  0
 29 55  1  0  0  0  0
 30 56  1  0  0  0  0
 30 57  1  0  0  0  0
 30 58  1  0  0  0  0
 31 59  1  0  0  0  0
M  END
> <PUBCHEM_COMPOUND_CID>
122225500

> <PUBCHEM_CONFORMER_RMSD>
0.8

> <PUBCHEM_CONFORMER_DIVERSEORDER>
1
9
11
7
2
5
6
4
3
12
10
8

> <PUBCHEM_MMFF94_PARTIAL_CHARGES>
30
1 -0.36
10 0.14
11 0.06
15 0.14
17 0.42
18 0.28
19 0.28
2 -0.68
20 -0.29
21 0.49
23 -0.29
24 0.28
25 -0.14
27 0.08
28 0.03
3 -0.68
31 -0.04
32 0.62
4 -0.68
46 0.15
49 0.15
5 -0.57
59 0.15
6 -0.57
60 0.4
61 0.4
62 0.4
63 0.4
7 -0.44
8 -0.13

> <PUBCHEM_EFFECTIVE_ROTOR_COUNT>
4.2

> <PUBCHEM_PHARMACOPHORE_FEATURES>
15
1 1 acceptor
1 2 acceptor
1 2 donor
1 28 anion
1 3 acceptor
1 3 donor
1 4 acceptor
1 4 donor
1 5 acceptor
1 6 acceptor
6 1 17 18 19 25 27 rings
6 17 18 19 22 24 26 rings
6 8 25 27 28 31 32 rings
6 9 10 11 15 20 23 rings
6 9 10 12 13 14 16 rings

> <PUBCHEM_HEAVY_ATOM_COUNT>
32

> <PUBCHEM_ATOM_DEF_STEREO_COUNT>
9

> <PUBCHEM_ATOM_UDEF_STEREO_COUNT>
0

> <PUBCHEM_BOND_DEF_STEREO_COUNT>
0

> <PUBCHEM_BOND_UDEF_STEREO_COUNT>
0

> <PUBCHEM_ISOTOPIC_ATOM_COUNT>
0

> <PUBCHEM_COMPONENT_COUNT>
1

> <PUBCHEM_CACTVS_TAUTO_COUNT>
2

> <PUBCHEM_CONFORMER_ID>
0749035C00000001

> <PUBCHEM_MMFF94_ENERGY>
176.5851

> <PUBCHEM_FEATURE_SELFOVERLAP>
76.944

> <PUBCHEM_SHAPE_FINGERPRINT>
10165383 225 18337400340210664945
10411042 1 17903084670353680291
10670039 82 18333449824527312692
10940486 97 18115596001141166246
11007060 377 18336830878870512952
11421498 54 17095518453596806192
11578080 2 17753038407198006597
11796584 16 18407763638945050746
12107698 1 17775565338661008221
12166972 35 15195559134983357882
12236239 1 16732979830333204044
12403259 415 18341891896301266553
12422481 6 17460297885603687554
12596602 18 16153430545135008160
12788726 201 18058734577270341384
13140716 1 17973729370316090059
13402501 40 18272653450503931940
13583140 156 17845937445713721222
13726171 33 18119830225042408456
13782708 43 18202001075018090126
14279260 333 17631178472681616302
14347329 18 18333453144837530720
14466204 15 18411409605588816728
14790565 3 18263083232201733426
14840074 17 16950284013927440198
14856354 85 18261119598765804198
14931854 50 18271514296302192533
15183329 4 18413106139456575306
15230672 131 18261957346035322530
15351339 4 18198340645973591216
15361156 5 18270121365192701972
15629462 23 16986609554969844712
15788980 27 15913329095649795013
1601671 61 18113335297844399628
17349148 13 17895467133383558151
18608769 82 18336557113428956059
20567600 75 18130792256964866052
21033648 144 16773224236395313856
21033648 29 18411411817365391161
21133410 62 17697897877833557513
21279426 13 18270967817505769982
21792961 116 18130520669757017566
22122407 14 15357694176161351279
22393880 68 18272360945708547501
23559900 14 18340771537513886164
3004659 81 18261958449947120262
3298306 158 18343019982710849710
350125 39 18408045096229663195
392239 28 18340214111104828867
4015057 19 17417522622369604392
404807 14 15334095199196507414
4073 2 18335987575559737114
4098825 35 16774082852176635135
437815 12 17775012284744617136
469060 322 18261966232306061073
508706 21 18411133671156561499
5265222 85 18264503948076940246
5283173 99 18412830170770687628
5385378 56 18264217915422743995
57527295 17 18060133193982530294
59755656 215 18410288121151233015
6328613 192 18336834186280401052
7226269 152 18343027657669318040
77296 10 16701444805655634468
9981440 41 18260820480833679083

> <PUBCHEM_SHAPE_MULTIPOLES>
612.48
14.28
3.23
1.56
11.44
1.29
-0.09
-3.57
3.79
-3.16
-1.35
0.91
-0.31
2.02

> <PUBCHEM_SHAPE_SELFOVERLAP>
1328.411

> <PUBCHEM_SHAPE_VOLUME>
327.3

> <PUBCHEM_COORDINATE_TYPE>
2
5
10

$$$$
