122214
  -OEChem-03292013323D

 32 33  0     1  0  0  0  0  0999 V2000
    6.2431    0.6682    2.5780 I   0  0  0  0  0  0  0  0  0  0  0  0
    3.3768   -0.0451   -0.4812 O   0  0  0  0  0  0  0  0  0  0  0  0
   -2.3686   -2.4977    1.1510 O   0  0  0  0  0  0  0  0  0  0  0  0
   -4.3242    2.6239    0.1517 O   0  5  0  0  0  0  0  0  0  0  0  0
   -4.8373    0.7761    1.2201 O   0  0  0  0  0  0  0  0  0  0  0  0
    4.3527    1.8711    0.3413 O   0  0  0  0  0  0  0  0  0  0  0  0
    0.8547   -0.9664   -1.3666 N   0  0  3  0  0  0  0  0  0  0  0  0
   -1.2117   -2.3330    0.4088 N   0  0  0  0  0  0  0  0  0  0  0  0
   -3.1581   -1.3606    1.1346 N   0  0  0  0  0  0  0  0  0  0  0  0
   -4.0579    1.4410    0.4889 N   0  3  0  0  0  0  0  0  0  0  0  0
   -0.3444   -0.4094   -0.9008 C   0  0  0  0  0  0  0  0  0  0  0  0
    1.7454   -0.2008   -2.2235 C   0  0  0  0  0  0  0  0  0  0  0  0
   -1.2648   -1.0882   -0.0811 C   0  0  0  0  0  0  0  0  0  0  0  0
    2.6156    0.7319   -1.3966 C   0  0  0  0  0  0  0  0  0  0  0  0
   -0.7207    0.9050   -1.2318 C   0  0  0  0  0  0  0  0  0  0  0  0
   -2.5021   -0.4701    0.3802 C   0  0  0  0  0  0  0  0  0  0  0  0
    1.2278   -2.3266   -1.0145 C   0  0  0  0  0  0  0  0  0  0  0  0
   -2.8591    0.8469    0.0369 C   0  0  0  0  0  0  0  0  0  0  0  0
   -1.9255    1.5068   -0.7826 C   0  0  0  0  0  0  0  0  0  0  0  0
    4.2213    0.6556    0.3459 C   0  0  0  0  0  0  0  0  0  0  0  0
    4.9370   -0.3286    1.2413 C   0  0  0  0  0  0  0  0  0  0  0  0
    1.2051    0.3409   -3.0079 H   0  0  0  0  0  0  0  0  0  0  0  0
    2.4038   -0.8907   -2.7677 H   0  0  0  0  0  0  0  0  0  0  0  0
    2.0162    1.4596   -0.8400 H   0  0  0  0  0  0  0  0  0  0  0  0
    3.2959    1.2748   -2.0630 H   0  0  0  0  0  0  0  0  0  0  0  0
   -0.0987    1.5377   -1.8604 H   0  0  0  0  0  0  0  0  0  0  0  0
    2.1982   -2.5994   -1.4456 H   0  0  0  0  0  0  0  0  0  0  0  0
    0.5054   -3.0509   -1.4054 H   0  0  0  0  0  0  0  0  0  0  0  0
    1.3391   -2.4410    0.0690 H   0  0  0  0  0  0  0  0  0  0  0  0
   -2.1127    2.5320   -1.1024 H   0  0  0  0  0  0  0  0  0  0  0  0
    5.5040   -1.0207    0.6104 H   0  0  0  0  0  0  0  0  0  0  0  0
    4.1866   -0.8927    1.8045 H   0  0  0  0  0  0  0  0  0  0  0  0
  1 21  1  0  0  0  0
  2 14  1  0  0  0  0
  2 20  1  0  0  0  0
  3  8  1  0  0  0  0
  3  9  1  0  0  0  0
  4 10  1  0  0  0  0
  5 10  2  0  0  0  0
  6 20  2  0  0  0  0
  7 11  1  0  0  0  0
  7 12  1  0  0  0  0
  7 17  1  0  0  0  0
  8 13  2  0  0  0  0
  9 16  2  0  0  0  0
 10 18  1  0  0  0  0
 11 13  1  0  0  0  0
 11 15  2  0  0  0  0
 12 14  1  0  0  0  0
 12 22  1  0  0  0  0
 12 23  1  0  0  0  0
 13 16  1  0  0  0  0
 14 24  1  0  0  0  0
 14 25  1  0  0  0  0
 15 19  1  0  0  0  0
 15 26  1  0  0  0  0
 16 18  1  0  0  0  0
 17 27  1  0  0  0  0
 17 28  1  0  0  0  0
 17 29  1  0  0  0  0
 18 19  2  0  0  0  0
 19 30  1  0  0  0  0
 20 21  1  0  0  0  0
 21 31  1  0  0  0  0
 21 32  1  0  0  0  0
M  CHG  2   4  -1  10   1
M  END
> <PUBCHEM_COMPOUND_CID>
122214

> <PUBCHEM_CONFORMER_RMSD>
0.8

> <PUBCHEM_CONFORMER_DIVERSEORDER>
4
214
225
13
237
18
158
55
258
192
176
141
224
45
248
8
255
90
230
167
6
139
177
128
80
76
102
267
108
116
242
147
218
153
271
251
16
38
21
109
215
145
250
7
236
41
262
132
227
88
52
122
28
270
193
44
234
111
123
107
210
118
156
243
11
216
14
213
66
190
200
83
65
157
148
53
27
149
124
207
37
137
127
84
94
235
246
30
169
151
226
86
155
222
5
40
209
152
46
35
130
77
197
249
146
184
165
49
110
196
117
259
24
3
223
62
252
104
232
93
178
162
136
134
34
180
22
99
81
203
217
221
160
183
97
166
56
238
186
266
264
164
150
106
244
29
260
268
17
115
26
36
60
51
168
175
135
64
159
133
47
19
63
233
140
182
131
20
85
202
179
112
231
154
198
229
269
113
103
57
43
119
245
82
189
256
161
241
143
15
92
69
212
138
195
72
78
101
67
61
194
87
188
74
239
68
204
89
263
12
42
261
254
247
144
219
172
25
170
228
48
120
100
70
253
199
33
75
171
265
105
58
59
257
32
211
2
95
31
9
79
91
205
181
10
54
174
126
191
23
1
185
201
163
129
50
39
173
220
98
121
96
114
125
240
142
187
73
206
208
71

> <PUBCHEM_MMFF94_PARTIAL_CHARGES>
23
1 -0.19
10 0.91
11 0.1
12 0.37
13 0.29
14 0.28
15 -0.15
16 0.29
17 0.37
18 0.13
19 -0.15
2 -0.43
20 0.66
21 0.25
26 0.15
3 0.24
30 0.15
4 -0.52
5 -0.52
6 -0.57
7 -0.84
8 -0.41
9 -0.41

> <PUBCHEM_EFFECTIVE_ROTOR_COUNT>
7

> <PUBCHEM_PHARMACOPHORE_FEATURES>
10
1 1 hydrophobe
1 4 acceptor
1 4 anion
1 5 acceptor
1 6 acceptor
1 7 cation
1 8 acceptor
1 9 acceptor
5 3 8 9 13 16 rings
6 11 13 15 16 18 19 rings

> <PUBCHEM_HEAVY_ATOM_COUNT>
21

> <PUBCHEM_ATOM_DEF_STEREO_COUNT>
0

> <PUBCHEM_ATOM_UDEF_STEREO_COUNT>
0

> <PUBCHEM_BOND_DEF_STEREO_COUNT>
0

> <PUBCHEM_BOND_UDEF_STEREO_COUNT>
0

> <PUBCHEM_ISOTOPIC_ATOM_COUNT>
0

> <PUBCHEM_COMPONENT_COUNT>
1

> <PUBCHEM_CACTVS_TAUTO_COUNT>
1

> <PUBCHEM_CONFORMER_ID>
0001DD6600000004

> <PUBCHEM_MMFF94_ENERGY>
68.6655

> <PUBCHEM_FEATURE_SELFOVERLAP>
51.008

> <PUBCHEM_SHAPE_FINGERPRINT>
10042902 136 11171070582730714129
10319926 262 18409732859447559010
10692045 39 18197494022358326602
10928967 22 15864611905178052674
11132069 177 18262252053167039981
12403259 118 18270954756484017752
12633257 1 18186236234501962108
12670546 177 10303815389016923162
12892183 10 18189051070331730602
13103583 49 17894901937320308296
14178342 30 18188223073282760471
14251764 30 14273732920242166304
14341114 328 17968096452040585208
14420673 8 17970343720854223362
15061688 2 17274814762428345100
15537594 2 16515682222318360418
16110190 28 18261946441002243912
173720 79 17822018614339593227
17780758 139 17823113719404906968
1813 80 15357982205675314950
193927 3 13623525736867254440
19784866 240 13551196558592683773
20871999 31 9943811096911194470
21033648 29 18060420244485965856
21065198 48 17968659440606377796
212916 134 18409452457653275651
21307412 95 11097860683538108497
21401589 2 17703782656741686648
21452121 103 18194403294934822909
21618674 25 18201162048845414343
21713013 43 7853577928711554568
235170 7 8213870327292038962
23557571 272 18196679412837773975
23559900 14 18266199248234414430
2748010 2 17900859035385251799
2838139 119 16630244714924000680
3737641 26 16372673061451681274
4072396 5 17458919149947075445
4340502 62 18337681806681655005
46194498 28 8430014461742258578
474 4 15769775780102427286
495365 180 17986965058772258175
5104073 3 18192730946961318617
57724786 102 16629971048872716664
58807428 26 18041002804029448635
5924683 9 18336819913402397851
633830 44 14835587811336860630
7064713 232 18259699004389632170
7097593 13 17822007618985880382
7970288 3 14923942332457217072
90316 7 17676489457867225589
9981440 41 18272927211134316859

> <PUBCHEM_SHAPE_MULTIPOLES>
394.84
11.64
2.31
2
13.64
0.38
-0.08
-7.8
-8.73
-1.84
-0.31
1.66
0.2
1.5

> <PUBCHEM_SHAPE_SELFOVERLAP>
805.968

> <PUBCHEM_SHAPE_VOLUME>
233.6

> <PUBCHEM_COORDINATE_TYPE>
2
5
10

$$$$
