122253
  -OEChem-03292013323D

 43 44  0     1  0  0  0  0  0999 V2000
   -1.0405    1.3474    1.1183 O   0  0  0  0  0  0  0  0  0  0  0  0
    0.4311   -0.2817    0.2406 O   0  0  0  0  0  0  0  0  0  0  0  0
   -3.2103   -0.1530   -2.0908 O   0  0  0  0  0  0  0  0  0  0  0  0
   -3.4632    1.9606   -0.3505 O   0  0  0  0  0  0  0  0  0  0  0  0
   -0.1018    3.9088    1.2790 O   0  0  0  0  0  0  0  0  0  0  0  0
   -2.8877   -2.8677    1.4650 O   0  0  0  0  0  0  0  0  0  0  0  0
   -1.7645   -1.9751   -0.3683 N   0  0  0  0  0  0  0  0  0  0  0  0
   -1.9641   -0.5769   -0.0619 C   0  0  2  0  0  0  0  0  0  0  0  0
   -2.0730    0.2642   -1.3390 C   0  0  2  0  0  0  0  0  0  0  0  0
   -2.2020    1.7516   -0.9904 C   0  0  2  0  0  0  0  0  0  0  0  0
   -1.0628    2.1751   -0.0540 C   0  0  1  0  0  0  0  0  0  0  0  0
   -0.8420   -0.0417    0.8388 C   0  0  2  0  0  0  0  0  0  0  0  0
   -1.1873    3.6198    0.4168 C   0  0  0  0  0  0  0  0  0  0  0  0
    1.4848    0.2056    1.0569 C   0  0  0  0  0  0  0  0  0  0  0  0
   -2.2464   -3.0021    0.4262 C   0  0  0  0  0  0  0  0  0  0  0  0
    2.7958   -0.0723    0.3819 C   0  0  0  0  0  0  0  0  0  0  0  0
   -1.9200   -4.3598   -0.1356 C   0  0  0  0  0  0  0  0  0  0  0  0
    3.4589   -1.2687    0.6316 C   0  0  0  0  0  0  0  0  0  0  0  0
    3.3362    0.8691   -0.4868 C   0  0  0  0  0  0  0  0  0  0  0  0
    4.6778   -1.5270    0.0046 C   0  0  0  0  0  0  0  0  0  0  0  0
    4.5551    0.6109   -1.1140 C   0  0  0  0  0  0  0  0  0  0  0  0
    5.2259   -0.5872   -0.8683 C   0  0  0  0  0  0  0  0  0  0  0  0
   -2.9131   -0.4959    0.4850 H   0  0  0  0  0  0  0  0  0  0  0  0
   -1.1914    0.1094   -1.9726 H   0  0  0  0  0  0  0  0  0  0  0  0
   -2.2044    2.3476   -1.9103 H   0  0  0  0  0  0  0  0  0  0  0  0
   -0.1001    2.0676   -0.5694 H   0  0  0  0  0  0  0  0  0  0  0  0
   -0.8737   -0.5752    1.7969 H   0  0  0  0  0  0  0  0  0  0  0  0
   -2.1036    3.7748    0.9947 H   0  0  0  0  0  0  0  0  0  0  0  0
   -1.1689    4.3137   -0.4291 H   0  0  0  0  0  0  0  0  0  0  0  0
   -1.1988   -2.2076   -1.1797 H   0  0  0  0  0  0  0  0  0  0  0  0
   -4.0014    0.0178   -1.5515 H   0  0  0  0  0  0  0  0  0  0  0  0
   -3.6388    2.9166   -0.3496 H   0  0  0  0  0  0  0  0  0  0  0  0
    1.4572   -0.2870    2.0372 H   0  0  0  0  0  0  0  0  0  0  0  0
    1.3932    1.2835    1.2332 H   0  0  0  0  0  0  0  0  0  0  0  0
   -0.1984    4.8339    1.5625 H   0  0  0  0  0  0  0  0  0  0  0  0
   -2.2045   -5.1344    0.5818 H   0  0  0  0  0  0  0  0  0  0  0  0
   -2.4718   -4.5133   -1.0671 H   0  0  0  0  0  0  0  0  0  0  0  0
   -0.8465   -4.4379   -0.3299 H   0  0  0  0  0  0  0  0  0  0  0  0
    3.0399   -2.0089    1.3078 H   0  0  0  0  0  0  0  0  0  0  0  0
    2.8208    1.8045   -0.6872 H   0  0  0  0  0  0  0  0  0  0  0  0
    5.1998   -2.4601    0.1953 H   0  0  0  0  0  0  0  0  0  0  0  0
    4.9816    1.3424   -1.7941 H   0  0  0  0  0  0  0  0  0  0  0  0
    6.1747   -0.7883   -1.3569 H   0  0  0  0  0  0  0  0  0  0  0  0
  1 11  1  0  0  0  0
  1 12  1  0  0  0  0
  2 12  1  0  0  0  0
  2 14  1  0  0  0  0
  3  9  1  0  0  0  0
  3 31  1  0  0  0  0
  4 10  1  0  0  0  0
  4 32  1  0  0  0  0
  5 13  1  0  0  0  0
  5 35  1  0  0  0  0
  6 15  2  0  0  0  0
  7  8  1  0  0  0  0
  7 15  1  0  0  0  0
  7 30  1  0  0  0  0
  8  9  1  0  0  0  0
  8 12  1  0  0  0  0
  8 23  1  0  0  0  0
  9 10  1  0  0  0  0
  9 24  1  0  0  0  0
 10 11  1  0  0  0  0
 10 25  1  0  0  0  0
 11 13  1  0  0  0  0
 11 26  1  0  0  0  0
 12 27  1  0  0  0  0
 13 28  1  0  0  0  0
 13 29  1  0  0  0  0
 14 16  1  0  0  0  0
 14 33  1  0  0  0  0
 14 34  1  0  0  0  0
 15 17  1  0  0  0  0
 16 18  2  0  0  0  0
 16 19  1  0  0  0  0
 17 36  1  0  0  0  0
 17 37  1  0  0  0  0
 17 38  1  0  0  0  0
 18 20  1  0  0  0  0
 18 39  1  0  0  0  0
 19 21  2  0  0  0  0
 19 40  1  0  0  0  0
 20 22  2  0  0  0  0
 20 41  1  0  0  0  0
 21 22  1  0  0  0  0
 21 42  1  0  0  0  0
 22 43  1  0  0  0  0
M  END
> <PUBCHEM_COMPOUND_CID>
122253

> <PUBCHEM_CONFORMER_RMSD>
0.8

> <PUBCHEM_CONFORMER_DIVERSEORDER>
1
17
10
18
5
8
12
14
16
2
15
9
11
13
19
3
7
6
4

> <PUBCHEM_MMFF94_PARTIAL_CHARGES>
31
1 -0.56
10 0.28
11 0.28
12 0.56
13 0.28
14 0.42
15 0.57
16 -0.14
17 0.06
18 -0.15
19 -0.15
2 -0.56
20 -0.15
21 -0.15
22 -0.15
3 -0.68
30 0.37
31 0.4
32 0.4
35 0.4
39 0.15
4 -0.68
40 0.15
41 0.15
42 0.15
43 0.15
5 -0.68
6 -0.57
7 -0.73
8 0.3
9 0.28

> <PUBCHEM_EFFECTIVE_ROTOR_COUNT>
7.2

> <PUBCHEM_PHARMACOPHORE_FEATURES>
12
1 1 acceptor
1 2 acceptor
1 3 acceptor
1 3 donor
1 4 acceptor
1 4 donor
1 5 acceptor
1 5 donor
1 6 acceptor
1 7 donor
6 1 8 9 10 11 12 rings
6 16 18 19 20 21 22 rings

> <PUBCHEM_HEAVY_ATOM_COUNT>
22

> <PUBCHEM_ATOM_DEF_STEREO_COUNT>
5

> <PUBCHEM_ATOM_UDEF_STEREO_COUNT>
0

> <PUBCHEM_BOND_DEF_STEREO_COUNT>
0

> <PUBCHEM_BOND_UDEF_STEREO_COUNT>
0

> <PUBCHEM_ISOTOPIC_ATOM_COUNT>
0

> <PUBCHEM_COMPONENT_COUNT>
1

> <PUBCHEM_CACTVS_TAUTO_COUNT>
2

> <PUBCHEM_CONFORMER_ID>
0001DD8D00000001

> <PUBCHEM_MMFF94_ENERGY>
54.243

> <PUBCHEM_FEATURE_SELFOVERLAP>
60.957

> <PUBCHEM_SHAPE_FINGERPRINT>
10764073 3 16478308610419268939
107951 10 18126013658659842479
11036077 51 18194685852269705010
12173636 292 18266169531091870636
12363563 72 16917058954601026824
12553582 1 18120088648154311666
12714826 92 18261953067266252659
12788726 201 18268982103410512089
13149001 5 18120906616570547477
14251757 5 18409732837539939452
14790565 3 18267306426622062281
1813 80 17979099371767942127
18785283 64 17255978766360211929
20645476 183 18189325780181211503
20775438 99 17405380831840064063
22182313 1 17685190057187577183
22907989 373 18410016550194722134
23557571 272 18411146848353628622
23558518 356 17838055905747024583
23559900 14 18342167853062465264
4921388 177 18411990143564995366
56616090 284 18270100375677074471
81228 2 18201420472664465705

> <PUBCHEM_SHAPE_MULTIPOLES>
412.55
8.2
4.51
1.32
12.37
1.1
0.24
2.67
2.65
-5.48
-1.29
-0.55
-0.2
0.26

> <PUBCHEM_SHAPE_SELFOVERLAP>
852.653

> <PUBCHEM_SHAPE_VOLUME>
232.3

> <PUBCHEM_COORDINATE_TYPE>
2
5
10

$$$$
