122225501
  -OEChem-03292013293D

 62 66  0     1  0  0  0  0  0999 V2000
   -1.7628    0.7617   -0.7558 O   0  0  0  0  0  0  0  0  0  0  0  0
   -5.0268   -1.9468   -0.2644 O   0  0  0  0  0  0  0  0  0  0  0  0
   -5.2091    0.5431   -1.6502 O   0  0  0  0  0  0  0  0  0  0  0  0
   -4.3781    3.0434   -1.0467 O   0  0  0  0  0  0  0  0  0  0  0  0
    0.9132    0.0666   -1.7470 O   0  0  0  0  0  0  0  0  0  0  0  0
    1.0623   -2.8279    0.7318 O   0  0  0  0  0  0  0  0  0  0  0  0
   -1.2010   -3.0038    1.0774 N   0  0  0  0  0  0  0  0  0  0  0  0
    3.3031    0.2579   -0.2112 C   0  0  2  0  0  0  0  0  0  0  0  0
    4.3508    0.5402    0.8936 C   0  0  1  0  0  0  0  0  0  0  0  0
    1.9034    0.1665    0.4270 C   0  0  1  0  0  0  0  0  0  0  0  0
    3.7235   -1.0010   -0.9870 C   0  0  0  0  0  0  0  0  0  0  0  0
    5.7240    0.7915    0.2546 C   0  0  0  0  0  0  0  0  0  0  0  0
    6.1709   -0.4247   -0.5738 C   0  0  1  0  0  0  0  0  0  0  0  0
    1.5150    1.5019    1.1197 C   0  0  1  0  0  0  0  0  0  0  0  0
    5.1099   -0.8189   -1.6106 C   0  0  0  0  0  0  0  0  0  0  0  0
   -4.1921   -0.8445    0.0694 C   0  0  1  0  0  0  0  0  0  0  0  0
   -3.9889    0.0472   -1.1298 C   0  0  2  0  0  0  0  0  0  0  0  0
   -3.0913    1.0784   -0.4179 C   0  0  2  0  0  0  0  0  0  0  0  0
    3.9312    1.6575    1.8096 C   0  0  0  0  0  0  0  0  0  0  0  0
    0.8502   -0.2449   -0.5604 C   0  0  0  0  0  0  0  0  0  0  0  0
   -4.8963    0.0535    1.1950 C   0  0  0  0  0  0  0  0  0  0  0  0
    2.6637    2.0808    1.9121 C   0  0  0  0  0  0  0  0  0  0  0  0
   -3.8612    2.2887    0.0331 C   0  0  2  0  0  0  0  0  0  0  0  0
   -5.0339    1.6380    0.8864 C   0  0  0  0  0  0  0  0  0  0  0  0
   -2.7293   -1.3534    0.3387 C   0  0  0  0  0  0  0  0  0  0  0  0
   -1.5374   -0.5555   -0.1852 C   0  0  0  0  0  0  0  0  0  0  0  0
   -0.2868   -1.0390   -0.0603 C   0  0  0  0  0  0  0  0  0  0  0  0
    7.5122   -0.1516   -1.2520 C   0  0  0  0  0  0  0  0  0  0  0  0
    1.0074    2.5835    0.1557 C   0  0  0  0  0  0  0  0  0  0  0  0
   -2.4765   -2.5260    0.9385 C   0  0  0  0  0  0  0  0  0  0  0  0
   -0.0692   -2.3622    0.6099 C   0  0  0  0  0  0  0  0  0  0  0  0
    3.3053    1.0937   -0.9262 H   0  0  0  0  0  0  0  0  0  0  0  0
    4.4439   -0.3520    1.5306 H   0  0  0  0  0  0  0  0  0  0  0  0
    1.9635   -0.5998    1.2105 H   0  0  0  0  0  0  0  0  0  0  0  0
    3.0193   -1.2342   -1.7911 H   0  0  0  0  0  0  0  0  0  0  0  0
    3.7352   -1.8686   -0.3154 H   0  0  0  0  0  0  0  0  0  0  0  0
    5.6849    1.6866   -0.3806 H   0  0  0  0  0  0  0  0  0  0  0  0
    6.4698    0.9914    1.0348 H   0  0  0  0  0  0  0  0  0  0  0  0
    6.3087   -1.2723    0.1111 H   0  0  0  0  0  0  0  0  0  0  0  0
    0.7016    1.2868    1.8258 H   0  0  0  0  0  0  0  0  0  0  0  0
    5.4056   -1.7501   -2.1086 H   0  0  0  0  0  0  0  0  0  0  0  0
    5.0507   -0.0491   -2.3910 H   0  0  0  0  0  0  0  0  0  0  0  0
   -3.4901   -0.4643   -1.9636 H   0  0  0  0  0  0  0  0  0  0  0  0
   -2.9013    0.8817    0.6526 H   0  0  0  0  0  0  0  0  0  0  0  0
    4.6874    2.1116    2.4441 H   0  0  0  0  0  0  0  0  0  0  0  0
   -4.3365   -0.0564    2.1333 H   0  0  0  0  0  0  0  0  0  0  0  0
   -5.9043   -0.3300    1.3964 H   0  0  0  0  0  0  0  0  0  0  0  0
    2.4359    2.8842    2.6081 H   0  0  0  0  0  0  0  0  0  0  0  0
   -3.2468    2.9581    0.6468 H   0  0  0  0  0  0  0  0  0  0  0  0
   -5.9957    1.8080    0.3862 H   0  0  0  0  0  0  0  0  0  0  0  0
   -5.1023    2.1614    1.8480 H   0  0  0  0  0  0  0  0  0  0  0  0
    7.4416    0.6893   -1.9502 H   0  0  0  0  0  0  0  0  0  0  0  0
    7.8499   -1.0298   -1.8123 H   0  0  0  0  0  0  0  0  0  0  0  0
    8.2808    0.0881   -0.5097 H   0  0  0  0  0  0  0  0  0  0  0  0
    1.7481    2.8196   -0.6159 H   0  0  0  0  0  0  0  0  0  0  0  0
    0.7911    3.5131    0.6959 H   0  0  0  0  0  0  0  0  0  0  0  0
    0.0829    2.2948   -0.3434 H   0  0  0  0  0  0  0  0  0  0  0  0
   -3.2559   -3.1691    1.3283 H   0  0  0  0  0  0  0  0  0  0  0  0
   -4.6342   -2.4083   -1.0252 H   0  0  0  0  0  0  0  0  0  0  0  0
   -5.7503   -0.2240   -1.9036 H   0  0  0  0  0  0  0  0  0  0  0  0
   -1.0899   -3.9015    1.5400 H   0  0  0  0  0  0  0  0  0  0  0  0
   -4.9408    3.7415   -0.6706 H   0  0  0  0  0  0  0  0  0  0  0  0
  1 18  1  0  0  0  0
  1 26  1  0  0  0  0
  2 16  1  0  0  0  0
  2 59  1  0  0  0  0
  3 17  1  0  0  0  0
  3 60  1  0  0  0  0
  4 23  1  0  0  0  0
  4 62  1  0  0  0  0
  5 20  2  0  0  0  0
  6 31  2  0  0  0  0
  7 30  1  0  0  0  0
  7 31  1  0  0  0  0
  7 61  1  0  0  0  0
  8  9  1  0  0  0  0
  8 10  1  0  0  0  0
  8 11  1  0  0  0  0
  8 32  1  0  0  0  0
  9 12  1  0  0  0  0
  9 19  1  0  0  0  0
  9 33  1  0  0  0  0
 10 14  1  0  0  0  0
 10 20  1  0  0  0  0
 10 34  1  0  0  0  0
 11 15  1  0  0  0  0
 11 35  1  0  0  0  0
 11 36  1  0  0  0  0
 12 13  1  0  0  0  0
 12 37  1  0  0  0  0
 12 38  1  0  0  0  0
 13 15  1  0  0  0  0
 13 28  1  0  0  0  0
 13 39  1  0  0  0  0
 14 22  1  0  0  0  0
 14 29  1  0  0  0  0
 14 40  1  0  0  0  0
 15 41  1  0  0  0  0
 15 42  1  0  0  0  0
 16 17  1  0  0  0  0
 16 21  1  0  0  0  0
 16 25  1  0  0  0  0
 17 18  1  0  0  0  0
 17 43  1  0  0  0  0
 18 23  1  0  0  0  0
 18 44  1  0  0  0  0
 19 22  2  0  0  0  0
 19 45  1  0  0  0  0
 20 27  1  0  0  0  0
 21 24  1  0  0  0  0
 21 46  1  0  0  0  0
 21 47  1  0  0  0  0
 22 48  1  0  0  0  0
 23 24  1  0  0  0  0
 23 49  1  0  0  0  0
 24 50  1  0  0  0  0
 24 51  1  0  0  0  0
 25 26  1  0  0  0  0
 25 30  2  0  0  0  0
 26 27  2  0  0  0  0
 27 31  1  0  0  0  0
 28 52  1  0  0  0  0
 28 53  1  0  0  0  0
 28 54  1  0  0  0  0
 29 55  1  0  0  0  0
 29 56  1  0  0  0  0
 29 57  1  0  0  0  0
 30 58  1  0  0  0  0
M  END
> <PUBCHEM_COMPOUND_CID>
122225501

> <PUBCHEM_CONFORMER_RMSD>
0.8

> <PUBCHEM_CONFORMER_DIVERSEORDER>
1
2
11
7
9
5
3
4
12
6
8
10

> <PUBCHEM_MMFF94_PARTIAL_CHARGES>
29
1 -0.36
10 0.06
14 0.14
16 0.42
17 0.28
18 0.28
19 -0.29
2 -0.68
20 0.49
22 -0.29
23 0.28
25 -0.14
26 0.08
27 0.03
3 -0.68
30 -0.04
31 0.62
4 -0.68
45 0.15
48 0.15
5 -0.57
58 0.15
59 0.4
6 -0.57
60 0.4
61 0.37
62 0.4
7 -0.54
9 0.14

> <PUBCHEM_EFFECTIVE_ROTOR_COUNT>
4.2

> <PUBCHEM_PHARMACOPHORE_FEATURES>
16
1 1 acceptor
1 2 acceptor
1 2 donor
1 27 anion
1 3 acceptor
1 3 donor
1 4 acceptor
1 4 donor
1 5 acceptor
1 6 acceptor
1 7 donor
6 1 16 17 18 25 26 rings
6 16 17 18 21 23 24 rings
6 7 25 26 27 30 31 rings
6 8 9 10 14 19 22 rings
6 8 9 11 12 13 15 rings

> <PUBCHEM_HEAVY_ATOM_COUNT>
31

> <PUBCHEM_ATOM_DEF_STEREO_COUNT>
9

> <PUBCHEM_ATOM_UDEF_STEREO_COUNT>
0

> <PUBCHEM_BOND_DEF_STEREO_COUNT>
0

> <PUBCHEM_BOND_UDEF_STEREO_COUNT>
0

> <PUBCHEM_ISOTOPIC_ATOM_COUNT>
0

> <PUBCHEM_COMPONENT_COUNT>
1

> <PUBCHEM_CACTVS_TAUTO_COUNT>
9

> <PUBCHEM_CONFORMER_ID>
0749035D00000001

> <PUBCHEM_MMFF94_ENERGY>
173.2491

> <PUBCHEM_FEATURE_SELFOVERLAP>
82.021

> <PUBCHEM_SHAPE_FINGERPRINT>
10165383 225 18335991861573277073
10411042 1 17829621900450219091
10670039 82 18187364311630222052
11421498 54 16732978687877833984
11545043 162 18337958994838016378
11578080 2 17606951798983950733
12107698 1 17918274255654585653
12166972 35 15697994167435212386
12236239 1 16443060608605717574
12403259 415 18412260644757995649
12422481 6 17387675151205475698
12596602 18 15791735204346135496
12788726 201 18200314291522009280
13140716 1 17899704745770780923
13402501 40 18342740715378223964
13583140 156 18060139894316277766
13782708 43 18271807968738207638
14279260 333 17773322236382534998
14347329 18 18259706705239587416
14466204 15 18409157814375570120
14856354 85 18114471135868033734
14931854 50 18269543975797024093
15183329 4 18410854339632451082
15351339 4 18196932171525714640
15361156 5 18267870660537563940
15629462 23 17057819408394653624
15788980 27 16271928220295146063
1601671 61 17967531264197913854
17349148 13 17749382724293250815
18393751 57 16331017371062873057
18608769 82 18262811764837030611
20567600 75 18272655649500775006
21033648 144 17059203916513490192
21033648 29 18060409248947585136
21133410 62 17768264422993273113
21279426 13 18268996397452212790
21792961 116 18200888305812150078
221357 26 18131346419014480625
22393880 68 18342448223515123241
23559900 14 18411421752320487476
3004659 81 18187930535361949114
3298306 158 18341894082804039494
350125 39 18334861602316593187
4015057 19 17560794484942475584
404807 14 15549139873779871326
4098825 35 17060342903491502195
437815 12 17917720097936880768
469060 322 18187939417232439977
508706 21 18409162238344677057
5104073 3 18114745911144104035
5265222 85 18190477128724325334
5283173 99 18411422791549956020
5385378 56 18263090920246551923
57527295 17 18272928289429635958
59755656 215 18409163316292206695
6086070 43 18199450130441646249
6328613 192 18335426807091305012
633830 44 18272077310141663060
7226269 152 18340774754033200448
77296 10 16916492791695453502

> <PUBCHEM_SHAPE_MULTIPOLES>
597.77
14.57
2.89
1.51
10.4
0.09
0.01
-2.16
3.71
-2.23
-0.96
0.52
-0.25
2.18

> <PUBCHEM_SHAPE_SELFOVERLAP>
1297.326

> <PUBCHEM_SHAPE_VOLUME>
318.8

> <PUBCHEM_COORDINATE_TYPE>
2
5
10

$$$$
