122367404
  -OEChem-03292013293D

 49 50  0     1  0  0  0  0  0999 V2000
   -4.5003    0.8161    0.5914 Cl  0  0  0  0  0  0  0  0  0  0  0  0
   -0.3302   -1.6677    2.7159 Cl  0  0  0  0  0  0  0  0  0  0  0  0
   -2.2819   -1.0019   -1.7869 O   0  0  0  0  0  0  0  0  0  0  0  0
   -1.9338    1.3209   -2.3021 O   0  0  0  0  0  0  0  0  0  0  0  0
   -3.3710   -1.1477    2.6616 O   0  0  0  0  0  0  0  0  0  0  0  0
    3.6128    0.7386    2.1568 O   0  0  0  0  0  0  0  0  0  0  0  0
   -1.8042    2.0817   -0.1246 O   0  0  0  0  0  0  0  0  0  0  0  0
    4.6896    1.2822    0.2138 O   0  0  0  0  0  0  0  0  0  0  0  0
    0.3764   -0.7728   -0.3973 C   0  0  2  0  0  0  0  0  0  0  0  0
    0.9341   -2.2196   -0.4666 C   0  0  2  0  0  0  0  0  0  0  0  0
    1.3318    0.1725    0.3905 C   0  0  1  0  0  0  0  0  0  0  0  0
    2.3512   -2.2431   -1.1044 C   0  0  2  0  0  0  0  0  0  0  0  0
   -0.9963   -0.7352    0.2212 C   0  0  0  0  0  0  0  0  0  0  0  0
   -2.1845   -0.2567   -0.5859 C   0  0  2  0  0  0  0  0  0  0  0  0
    2.7936   -0.1516    0.1998 C   0  0  0  0  0  0  0  0  0  0  0  0
    3.2534   -1.2139   -0.4759 C   0  0  0  0  0  0  0  0  0  0  0  0
   -0.0195   -3.1903   -1.1773 C   0  0  0  0  0  0  0  0  0  0  0  0
   -3.4010   -0.5401    0.3132 C   0  0  1  0  0  0  0  0  0  0  0  0
   -1.3145   -1.0960    1.4685 C   0  0  0  0  0  0  0  0  0  0  0  0
    2.3703   -2.0585   -2.6254 C   0  0  0  0  0  0  0  0  0  0  0  0
    1.0315    1.6024    0.0237 C   0  0  0  0  0  0  0  0  0  0  0  0
   -2.7699   -0.9439    1.6170 C   0  0  0  0  0  0  0  0  0  0  0  0
   -1.9518    1.1864   -0.9454 C   0  0  0  0  0  0  0  0  0  0  0  0
    3.8121    0.7044    0.8242 C   0  0  0  0  0  0  0  0  0  0  0  0
    1.1593    2.6330    0.8716 C   0  0  0  0  0  0  0  0  0  0  0  0
    0.8622    4.0501    0.5080 C   0  0  0  0  0  0  0  0  0  0  0  0
   -1.7194    2.6508   -2.7852 C   0  0  0  0  0  0  0  0  0  0  0  0
    0.3002   -0.4144   -1.4332 H   0  0  0  0  0  0  0  0  0  0  0  0
    1.0631   -2.6064    0.5521 H   0  0  0  0  0  0  0  0  0  0  0  0
    1.1597    0.0735    1.4658 H   0  0  0  0  0  0  0  0  0  0  0  0
    2.7863   -3.2287   -0.8891 H   0  0  0  0  0  0  0  0  0  0  0  0
    4.3234   -1.3846   -0.5731 H   0  0  0  0  0  0  0  0  0  0  0  0
   -0.3059   -2.8267   -2.1687 H   0  0  0  0  0  0  0  0  0  0  0  0
   -0.9323   -3.3527   -0.5959 H   0  0  0  0  0  0  0  0  0  0  0  0
    0.4539   -4.1706   -1.3013 H   0  0  0  0  0  0  0  0  0  0  0  0
   -3.9951   -1.3841   -0.0543 H   0  0  0  0  0  0  0  0  0  0  0  0
    3.3990   -2.0611   -3.0051 H   0  0  0  0  0  0  0  0  0  0  0  0
    1.8435   -2.8729   -3.1322 H   0  0  0  0  0  0  0  0  0  0  0  0
    1.9100   -1.1130   -2.9300 H   0  0  0  0  0  0  0  0  0  0  0  0
    0.7909    1.8136   -1.0150 H   0  0  0  0  0  0  0  0  0  0  0  0
   -2.5374   -1.9141   -1.5689 H   0  0  0  0  0  0  0  0  0  0  0  0
    1.4440    2.4509    1.9041 H   0  0  0  0  0  0  0  0  0  0  0  0
    1.7514    4.6681    0.6651 H   0  0  0  0  0  0  0  0  0  0  0  0
    0.5543    4.1559   -0.5368 H   0  0  0  0  0  0  0  0  0  0  0  0
    0.0579    4.4365    1.1414 H   0  0  0  0  0  0  0  0  0  0  0  0
    4.2720    1.3029    2.6143 H   0  0  0  0  0  0  0  0  0  0  0  0
   -1.8441    2.6407   -3.8713 H   0  0  0  0  0  0  0  0  0  0  0  0
   -0.7023    2.9771   -2.5529 H   0  0  0  0  0  0  0  0  0  0  0  0
   -2.4540    3.3395   -2.3566 H   0  0  0  0  0  0  0  0  0  0  0  0
  1 18  1  0  0  0  0
  2 19  1  0  0  0  0
  3 14  1  0  0  0  0
  3 41  1  0  0  0  0
  4 23  1  0  0  0  0
  4 27  1  0  0  0  0
  5 22  2  0  0  0  0
  6 24  1  0  0  0  0
  6 46  1  0  0  0  0
  7 23  2  0  0  0  0
  8 24  2  0  0  0  0
  9 10  1  0  0  0  0
  9 11  1  0  0  0  0
  9 13  1  0  0  0  0
  9 28  1  0  0  0  0
 10 12  1  0  0  0  0
 10 17  1  0  0  0  0
 10 29  1  0  0  0  0
 11 15  1  0  0  0  0
 11 21  1  0  0  0  0
 11 30  1  0  0  0  0
 12 16  1  0  0  0  0
 12 20  1  0  0  0  0
 12 31  1  0  0  0  0
 13 14  1  0  0  0  0
 13 19  2  0  0  0  0
 14 18  1  0  0  0  0
 14 23  1  0  0  0  0
 15 16  2  0  0  0  0
 15 24  1  0  0  0  0
 16 32  1  0  0  0  0
 17 33  1  0  0  0  0
 17 34  1  0  0  0  0
 17 35  1  0  0  0  0
 18 22  1  0  0  0  0
 18 36  1  0  0  0  0
 19 22  1  0  0  0  0
 20 37  1  0  0  0  0
 20 38  1  0  0  0  0
 20 39  1  0  0  0  0
 21 25  2  0  0  0  0
 21 40  1  0  0  0  0
 25 26  1  0  0  0  0
 25 42  1  0  0  0  0
 26 43  1  0  0  0  0
 26 44  1  0  0  0  0
 26 45  1  0  0  0  0
 27 47  1  0  0  0  0
 27 48  1  0  0  0  0
 27 49  1  0  0  0  0
M  END
> <PUBCHEM_COMPOUND_CID>
122367404

> <PUBCHEM_CONFORMER_RMSD>
0.8

> <PUBCHEM_CONFORMER_DIVERSEORDER>
1
5
4
6
3
2

> <PUBCHEM_MMFF94_PARTIAL_CHARGES>
29
1 -0.29
11 0.28
12 0.14
13 -0.28
14 0.48
15 -0.12
16 -0.29
18 0.35
19 0.15
2 -0.14
21 -0.29
22 0.49
23 0.66
24 0.71
25 -0.29
26 0.14
27 0.28
3 -0.68
32 0.15
4 -0.43
40 0.15
41 0.4
42 0.15
46 0.5
5 -0.57
6 -0.65
7 -0.57
8 -0.57
9 0.14

> <PUBCHEM_EFFECTIVE_ROTOR_COUNT>
6.2

> <PUBCHEM_PHARMACOPHORE_FEATURES>
10
1 26 hydrophobe
1 3 acceptor
1 3 donor
1 5 acceptor
1 6 acceptor
1 7 acceptor
1 8 acceptor
3 6 8 24 anion
5 13 14 18 19 22 rings
6 9 10 11 12 15 16 rings

> <PUBCHEM_HEAVY_ATOM_COUNT>
27

> <PUBCHEM_ATOM_DEF_STEREO_COUNT>
6

> <PUBCHEM_ATOM_UDEF_STEREO_COUNT>
0

> <PUBCHEM_BOND_DEF_STEREO_COUNT>
1

> <PUBCHEM_BOND_UDEF_STEREO_COUNT>
0

> <PUBCHEM_ISOTOPIC_ATOM_COUNT>
0

> <PUBCHEM_COMPONENT_COUNT>
1

> <PUBCHEM_CACTVS_TAUTO_COUNT>
5

> <PUBCHEM_CONFORMER_ID>
074B2DAC00000001

> <PUBCHEM_MMFF94_ENERGY>
62.0799

> <PUBCHEM_FEATURE_SELFOVERLAP>
50.801

> <PUBCHEM_SHAPE_FINGERPRINT>
10863032 1 17632298964908433835
11582403 64 17541604614287952716
11640471 11 16558477473153683936
12156800 1 12043934668577034892
12236239 1 16486694666886785395
12633257 1 18187648041438383305
13140716 1 17907855455141553466
13544592 271 18267845242752774924
13583140 156 17605529207047084944
14790565 3 18270411623431306712
16945 1 18341050834187888070
1813 80 16412126789546120078
18219364 16 18342169016207207504
19930381 70 18271803480454594255
20600515 1 17531822366978713817
20739085 24 18128564629074044490
22182313 1 18339924805964724878
23557571 272 17822581494819313830
23558518 356 17905889176464971744
23559900 14 17604727572655070382
238 59 17979875502311961116
2748010 2 18341049606143655286
35225 105 17025681971282269518
4340502 62 17846227704210074355
474 4 17988368181780411522
57527573 199 17539650683426250952
81228 2 18121230783395917408

> <PUBCHEM_SHAPE_MULTIPOLES>
524.17
6.4
3.56
2.51
0.68
2.16
-0.27
0.59
1.39
1.14
-0.87
-0.89
-0.43
2.58

> <PUBCHEM_SHAPE_SELFOVERLAP>
1090.312

> <PUBCHEM_SHAPE_VOLUME>
297.7

> <PUBCHEM_COORDINATE_TYPE>
2
5
10

$$$$
