122302
  -OEChem-03292013323D

 28 28  0     1  0  0  0  0  0999 V2000
    3.4393   -1.2398   -1.2916 F   0  0  0  0  0  0  0  0  0  0  0  0
    1.2341    1.0521   -1.5198 O   0  0  0  0  0  0  0  0  0  0  0  0
    2.4788    2.1743   -0.0118 O   0  0  0  0  0  0  0  0  0  0  0  0
   -3.1256    1.9525    0.0271 O   0  0  0  0  0  0  0  0  0  0  0  0
   -4.2786   -0.4431   -0.7822 O   0  0  0  0  0  0  0  0  0  0  0  0
    3.3353   -0.1120    1.1708 N   0  0  0  0  0  0  0  0  0  0  0  0
    2.0996   -0.2127    0.3668 C   0  0  2  0  0  0  0  0  0  0  0  0
    0.9370   -0.3947    1.3717 C   0  0  0  0  0  0  0  0  0  0  0  0
   -0.4598   -0.4044    0.7953 C   0  0  0  0  0  0  0  0  0  0  0  0
    2.3024   -1.4159   -0.5613 C   0  0  0  0  0  0  0  0  0  0  0  0
    1.9820    1.1185   -0.3902 C   0  0  0  0  0  0  0  0  0  0  0  0
   -1.1521    0.7894    0.6773 C   0  0  0  0  0  0  0  0  0  0  0  0
   -1.0202   -1.6068    0.3970 C   0  0  0  0  0  0  0  0  0  0  0  0
   -2.4418    0.7804    0.1457 C   0  0  0  0  0  0  0  0  0  0  0  0
   -2.3097   -1.6157   -0.1345 C   0  0  0  0  0  0  0  0  0  0  0  0
   -3.0205   -0.4221   -0.2603 C   0  0  0  0  0  0  0  0  0  0  0  0
    0.9731    0.4067    2.1254 H   0  0  0  0  0  0  0  0  0  0  0  0
    1.0841   -1.3210    1.9464 H   0  0  0  0  0  0  0  0  0  0  0  0
    1.4786   -1.5336   -1.2713 H   0  0  0  0  0  0  0  0  0  0  0  0
    2.4105   -2.3513   -0.0016 H   0  0  0  0  0  0  0  0  0  0  0  0
    3.2858    0.6954    1.7910 H   0  0  0  0  0  0  0  0  0  0  0  0
    4.1371    0.0373    0.5590 H   0  0  0  0  0  0  0  0  0  0  0  0
   -0.7063    1.7285    0.9937 H   0  0  0  0  0  0  0  0  0  0  0  0
   -0.4751   -2.5415    0.4914 H   0  0  0  0  0  0  0  0  0  0  0  0
   -2.7485   -2.5596   -0.4470 H   0  0  0  0  0  0  0  0  0  0  0  0
    1.1635    1.9236   -1.9642 H   0  0  0  0  0  0  0  0  0  0  0  0
   -3.9979    1.7601   -0.3588 H   0  0  0  0  0  0  0  0  0  0  0  0
   -4.5130   -1.3600   -1.0068 H   0  0  0  0  0  0  0  0  0  0  0  0
  1 10  1  0  0  0  0
  2 11  1  0  0  0  0
  2 26  1  0  0  0  0
  3 11  2  0  0  0  0
  4 14  1  0  0  0  0
  4 27  1  0  0  0  0
  5 16  1  0  0  0  0
  5 28  1  0  0  0  0
  6  7  1  0  0  0  0
  6 21  1  0  0  0  0
  6 22  1  0  0  0  0
  7  8  1  0  0  0  0
  7 10  1  0  0  0  0
  7 11  1  0  0  0  0
  8  9  1  0  0  0  0
  8 17  1  0  0  0  0
  8 18  1  0  0  0  0
  9 12  2  0  0  0  0
  9 13  1  0  0  0  0
 10 19  1  0  0  0  0
 10 20  1  0  0  0  0
 12 14  1  0  0  0  0
 12 23  1  0  0  0  0
 13 15  2  0  0  0  0
 13 24  1  0  0  0  0
 14 16  2  0  0  0  0
 15 16  1  0  0  0  0
 15 25  1  0  0  0  0
M  END
> <PUBCHEM_COMPOUND_CID>
122302

> <PUBCHEM_CONFORMER_RMSD>
0.6

> <PUBCHEM_CONFORMER_DIVERSEORDER>
1
24
15
17
7
25
11
28
21
13
19
5
12
22
16
8
18
27
3
26
14
6
20
23
2
10
30
4
9
29

> <PUBCHEM_MMFF94_PARTIAL_CHARGES>
24
1 -0.34
10 0.34
11 0.66
12 -0.15
13 -0.15
14 0.08
15 -0.15
16 0.08
2 -0.65
21 0.36
22 0.36
23 0.15
24 0.15
25 0.15
26 0.5
27 0.45
28 0.45
3 -0.57
4 -0.53
5 -0.53
6 -0.99
7 0.33
8 0.14
9 -0.14

> <PUBCHEM_EFFECTIVE_ROTOR_COUNT>
4

> <PUBCHEM_PHARMACOPHORE_FEATURES>
8
1 2 acceptor
1 3 acceptor
1 4 donor
1 5 donor
1 6 cation
1 6 donor
3 2 3 11 anion
6 9 12 13 14 15 16 rings

> <PUBCHEM_HEAVY_ATOM_COUNT>
16

> <PUBCHEM_ATOM_DEF_STEREO_COUNT>
1

> <PUBCHEM_ATOM_UDEF_STEREO_COUNT>
0

> <PUBCHEM_BOND_DEF_STEREO_COUNT>
0

> <PUBCHEM_BOND_UDEF_STEREO_COUNT>
0

> <PUBCHEM_ISOTOPIC_ATOM_COUNT>
0

> <PUBCHEM_COMPONENT_COUNT>
1

> <PUBCHEM_CACTVS_TAUTO_COUNT>
18

> <PUBCHEM_CONFORMER_ID>
0001DDBE00000001

> <PUBCHEM_MMFF94_ENERGY>
33.779

> <PUBCHEM_FEATURE_SELFOVERLAP>
40.662

> <PUBCHEM_SHAPE_FINGERPRINT>
10922523 26 18272370836886335495
12162725 195 18408880758825072697
12654903 92 18337957779235339462
12932764 1 17531245054306599123
14250199 8 18334582381601666037
14350558 41 17775006773636977054
15775835 57 17240198850145404031
16945 1 18334016055703723387
1813 80 16372680727863270570
18186145 218 18113336418767566607
18981168 100 16227480540152062996
20645476 183 18041548205263638507
20653085 51 18335711511550508865
20671657 53 17916039983697218846
22802520 49 18339657714374747371
230 275 17676772079784618456
23402539 116 18268408257077600891
23557571 272 18060410322478418969
23559900 14 17988076682983138690
2748010 2 18043262424925514098
5262128 65 18200331964642460548
549884 4 17894356578951466476
57812782 119 18342453746637318103
7364860 26 18271527593399270528
74978 22 18113905978359340458
7832392 63 18265896843729043321
93112 12 18411421708690559935
9709674 26 18341895229090542607
9981440 41 17465377921514138944

> <PUBCHEM_SHAPE_MULTIPOLES>
293.54
6.12
1.85
1.14
1.63
0.4
0.04
0.03
1.28
-0.04
0.24
-0.66
-0.08
0

> <PUBCHEM_SHAPE_SELFOVERLAP>
613.613

> <PUBCHEM_SHAPE_VOLUME>
166.1

> <PUBCHEM_COORDINATE_TYPE>
2
5
10

$$$$
