122367507
  -OEChem-03292013293D

 56 60  0     1  0  0  0  0  0999 V2000
   -2.4525    3.0142    1.6564 O   0  0  0  0  0  0  0  0  0  0  0  0
    0.3780    2.0885   -0.5099 O   0  0  0  0  0  0  0  0  0  0  0  0
   -4.5797    1.9336   -0.7333 O   0  0  0  0  0  0  0  0  0  0  0  0
   -3.4307   -2.8924   -0.8264 O   0  0  0  0  0  0  0  0  0  0  0  0
    1.5620   -0.2734    0.9852 O   0  0  0  0  0  0  0  0  0  0  0  0
    1.8589    3.0296    0.9881 O   0  0  0  0  0  0  0  0  0  0  0  0
   -1.8293   -4.8627   -0.5498 O   0  0  0  0  0  0  0  0  0  0  0  0
   -2.8281    3.1403    0.2693 C   0  0  1  0  0  0  0  0  0  0  0  0
   -1.3878    3.1034    0.7004 C   0  0  2  0  0  0  0  0  0  0  0  0
   -0.5591    1.8737    0.5458 C   0  0  1  0  0  0  0  0  0  0  0  0
   -3.4488    1.9020   -0.2649 C   0  0  0  0  0  0  0  0  0  0  0  0
   -1.3348    0.6268    0.2127 C   0  0  0  0  0  0  0  0  0  0  0  0
   -3.4196    4.4814   -0.0579 C   0  0  0  0  0  0  0  0  0  0  0  0
   -2.6805    0.6357   -0.1974 C   0  0  0  0  0  0  0  0  0  0  0  0
   -0.7274   -0.6292    0.2581 C   0  0  0  0  0  0  0  0  0  0  0  0
   -3.3551   -0.5598   -0.5396 C   0  0  0  0  0  0  0  0  0  0  0  0
   -1.3898   -1.8277   -0.0782 C   0  0  0  0  0  0  0  0  0  0  0  0
   -2.7105   -1.7973   -0.4809 C   0  0  0  0  0  0  0  0  0  0  0  0
    0.6636   -1.0066    0.6338 C   0  0  0  0  0  0  0  0  0  0  0  0
   -0.4840   -2.9456    0.0710 C   0  0  0  0  0  0  0  0  0  0  0  0
    0.7636   -2.4731    0.5005 C   0  0  0  0  0  0  0  0  0  0  0  0
    1.5558    2.6801   -0.1444 C   0  0  0  0  0  0  0  0  0  0  0  0
    2.4368    2.8200   -1.3660 C   0  0  0  0  0  0  0  0  0  0  0  0
    3.3456    1.6036   -1.5560 C   0  0  0  0  0  0  0  0  0  0  0  0
   -0.6664   -4.3021   -0.1359 C   0  0  0  0  0  0  0  0  0  0  0  0
    1.8467   -3.2969    0.7353 C   0  0  0  0  0  0  0  0  0  0  0  0
    4.3238    1.3699   -0.3841 C   0  0  1  0  0  0  0  0  0  0  0  0
    0.4154   -5.1610    0.0947 C   0  0  0  0  0  0  0  0  0  0  0  0
    1.6592   -4.6629    0.5259 C   0  0  0  0  0  0  0  0  0  0  0  0
    5.1388    0.0882   -0.6566 C   0  0  0  0  0  0  0  0  0  0  0  0
    5.2361    2.5801   -0.1613 C   0  0  0  0  0  0  0  0  0  0  0  0
    6.0998   -0.2806    0.4652 C   0  0  0  0  0  0  0  0  0  0  0  0
   -0.8075    4.0170    0.7107 H   0  0  0  0  0  0  0  0  0  0  0  0
   -0.0498    1.6979    1.5025 H   0  0  0  0  0  0  0  0  0  0  0  0
   -2.8800    5.3000    0.4304 H   0  0  0  0  0  0  0  0  0  0  0  0
   -4.4637    4.5286    0.2680 H   0  0  0  0  0  0  0  0  0  0  0  0
   -3.3870    4.6532   -1.1385 H   0  0  0  0  0  0  0  0  0  0  0  0
   -4.3980   -0.5214   -0.8496 H   0  0  0  0  0  0  0  0  0  0  0  0
    1.7961    2.9417   -2.2484 H   0  0  0  0  0  0  0  0  0  0  0  0
    2.9975    3.7563   -1.2878 H   0  0  0  0  0  0  0  0  0  0  0  0
    2.7205    0.7105   -1.6835 H   0  0  0  0  0  0  0  0  0  0  0  0
    3.9101    1.7312   -2.4881 H   0  0  0  0  0  0  0  0  0  0  0  0
    3.7530    1.2067    0.5369 H   0  0  0  0  0  0  0  0  0  0  0  0
    2.8023   -2.9078    1.0663 H   0  0  0  0  0  0  0  0  0  0  0  0
   -4.3333   -2.6298   -1.0749 H   0  0  0  0  0  0  0  0  0  0  0  0
    0.3125   -6.2334   -0.0565 H   0  0  0  0  0  0  0  0  0  0  0  0
    4.4450   -0.7495   -0.8018 H   0  0  0  0  0  0  0  0  0  0  0  0
    5.7059    0.1936   -1.5897 H   0  0  0  0  0  0  0  0  0  0  0  0
    2.4816   -5.3525    0.6968 H   0  0  0  0  0  0  0  0  0  0  0  0
    5.9213    2.4172    0.6758 H   0  0  0  0  0  0  0  0  0  0  0  0
    4.6651    3.4785    0.0890 H   0  0  0  0  0  0  0  0  0  0  0  0
    5.8343    2.7929   -1.0536 H   0  0  0  0  0  0  0  0  0  0  0  0
   -1.7212   -5.8261   -0.6250 H   0  0  0  0  0  0  0  0  0  0  0  0
    6.9301    0.4276    0.5366 H   0  0  0  0  0  0  0  0  0  0  0  0
    5.5844   -0.3166    1.4301 H   0  0  0  0  0  0  0  0  0  0  0  0
    6.5313   -1.2691    0.2760 H   0  0  0  0  0  0  0  0  0  0  0  0
  1  8  1  0  0  0  0
  1  9  1  0  0  0  0
  2 10  1  0  0  0  0
  2 22  1  0  0  0  0
  3 11  2  0  0  0  0
  4 18  1  0  0  0  0
  4 45  1  0  0  0  0
  5 19  2  0  0  0  0
  6 22  2  0  0  0  0
  7 25  1  0  0  0  0
  7 53  1  0  0  0  0
  8  9  1  0  0  0  0
  8 11  1  0  0  0  0
  8 13  1  0  0  0  0
  9 10  1  0  0  0  0
  9 33  1  0  0  0  0
 10 12  1  0  0  0  0
 10 34  1  0  0  0  0
 11 14  1  0  0  0  0
 12 14  1  0  0  0  0
 12 15  2  0  0  0  0
 13 35  1  0  0  0  0
 13 36  1  0  0  0  0
 13 37  1  0  0  0  0
 14 16  2  0  0  0  0
 15 17  1  0  0  0  0
 15 19  1  0  0  0  0
 16 18  1  0  0  0  0
 16 38  1  0  0  0  0
 17 18  2  0  0  0  0
 17 20  1  0  0  0  0
 19 21  1  0  0  0  0
 20 21  2  0  0  0  0
 20 25  1  0  0  0  0
 21 26  1  0  0  0  0
 22 23  1  0  0  0  0
 23 24  1  0  0  0  0
 23 39  1  0  0  0  0
 23 40  1  0  0  0  0
 24 27  1  0  0  0  0
 24 41  1  0  0  0  0
 24 42  1  0  0  0  0
 25 28  2  0  0  0  0
 26 29  2  0  0  0  0
 26 44  1  0  0  0  0
 27 30  1  0  0  0  0
 27 31  1  0  0  0  0
 27 43  1  0  0  0  0
 28 29  1  0  0  0  0
 28 46  1  0  0  0  0
 29 49  1  0  0  0  0
 30 32  1  0  0  0  0
 30 47  1  0  0  0  0
 30 48  1  0  0  0  0
 31 50  1  0  0  0  0
 31 51  1  0  0  0  0
 31 52  1  0  0  0  0
 32 54  1  0  0  0  0
 32 55  1  0  0  0  0
 32 56  1  0  0  0  0
M  END
> <PUBCHEM_COMPOUND_CID>
122367507

> <PUBCHEM_CONFORMER_RMSD>
0.8

> <PUBCHEM_CONFORMER_DIVERSEORDER>
3
13
47
53
38
20
8
41
33
32
24
25
51
26
46
23
29
1
14
31
6
43
50
22
9
36
30
55
44
5
59
11
16
7
39
17
27
45
15
18
4
40
57
2
54
28
37
35
21
12
49
58
10
48
19
34
52
42
56

> <PUBCHEM_MMFF94_PARTIAL_CHARGES>
32
1 -0.3
10 0.52
11 0.48
12 -0.14
13 0.09
14 0.09
15 0.09
16 -0.15
18 0.08
19 0.4
2 -0.43
21 0.09
22 0.66
23 0.06
25 0.08
26 -0.15
28 -0.15
29 -0.15
3 -0.57
33 0.1
38 0.15
4 -0.53
44 0.15
45 0.45
46 0.15
49 0.15
5 -0.57
53 0.45
6 -0.57
7 -0.53
8 0.05
9 -0.05

> <PUBCHEM_EFFECTIVE_ROTOR_COUNT>
6.4

> <PUBCHEM_PHARMACOPHORE_FEATURES>
13
1 1 acceptor
1 3 acceptor
1 31 hydrophobe
1 32 hydrophobe
1 4 donor
1 5 acceptor
1 6 acceptor
1 7 donor
4 23 24 27 30 hydrophobe
5 15 17 19 20 21 rings
6 12 14 15 16 17 18 rings
6 20 21 25 26 28 29 rings
7 1 8 9 10 11 12 14 rings

> <PUBCHEM_HEAVY_ATOM_COUNT>
32

> <PUBCHEM_ATOM_DEF_STEREO_COUNT>
3

> <PUBCHEM_ATOM_UDEF_STEREO_COUNT>
1

> <PUBCHEM_BOND_DEF_STEREO_COUNT>
0

> <PUBCHEM_BOND_UDEF_STEREO_COUNT>
0

> <PUBCHEM_ISOTOPIC_ATOM_COUNT>
0

> <PUBCHEM_COMPONENT_COUNT>
1

> <PUBCHEM_CACTVS_TAUTO_COUNT>
34

> <PUBCHEM_CONFORMER_ID>
074B2E1300000003

> <PUBCHEM_MMFF94_ENERGY>
89.5663

> <PUBCHEM_FEATURE_SELFOVERLAP>
66.354

> <PUBCHEM_SHAPE_FINGERPRINT>
10190108 129 18121813671072440753
10693767 8 17554593368765538287
1100329 8 18194965364356878859
11513181 2 17839737067399538430
12788726 201 18120942960636306392
13140716 1 18340207505001898713
138480 1 17545041502973911600
14028597 1 17773892904213639137
14117953 113 17185589118529440324
14363568 33 17402916430796501008
14659021 117 18123466339896418624
14725015 67 18269270325643616638
14790565 3 18338235968778470032
14866123 147 18412552032445223154
15297060 5 18200589182160660368
15320467 1 17977946779303544750
15403338 16 16517921815613295482
15439362 3 17975972068662207941
15927050 60 18341334384108654045
15961568 22 17186159765128053166
17627616 140 18193000305334126638
19591789 44 18193843871292164859
19611394 137 17684116607031853907
21033648 144 14954892081271908250
21133410 32 14641624335798385088
21796203 349 16971998019745262960
23559900 14 17549803509282350715
3178227 256 17903938982514513635
3380486 145 15817924093772421936
38695281 34 18337110047291484132
4017518 198 18340209567071965414
463206 1 17327183655319953250
5265222 85 18262821592139123956
5309563 4 16970558192674655694
6287921 2 17548412605777595600
9709674 26 16610541835531162095
9981440 41 18336830801180910377

> <PUBCHEM_SHAPE_MULTIPOLES>
617.46
8.45
7.8
1.02
7.36
7.68
0.03
-8.38
1.03
0.04
0.08
0.18
-0.46
-1.86

> <PUBCHEM_SHAPE_SELFOVERLAP>
1369.042

> <PUBCHEM_SHAPE_VOLUME>
329.1

> <PUBCHEM_COORDINATE_TYPE>
2
5
10

$$$$
