122395471
  -OEChem-03292013293D

 32 34  0     1  0  0  0  0  0999 V2000
   -2.1607    2.5377   -0.2104 F   0  0  0  0  0  0  0  0  0  0  0  0
   -2.1746   -0.1370    1.1426 O   0  0  0  0  0  0  0  0  0  0  0  0
   -3.6498    1.0772   -1.8956 O   0  0  0  0  0  0  0  0  0  0  0  0
   -4.5313   -1.6668    1.4485 O   0  0  0  0  0  0  0  0  0  0  0  0
    4.0048    2.2982    0.6707 O   0  0  0  0  0  0  0  0  0  0  0  0
    0.0338   -0.2058    0.2935 N   0  0  0  0  0  0  0  0  0  0  0  0
    1.0924   -2.0733   -0.4577 N   0  0  0  0  0  0  0  0  0  0  0  0
    1.9673    1.2644    0.5570 N   0  0  0  0  0  0  0  0  0  0  0  0
    3.9943    0.1336   -0.0404 N   0  0  0  0  0  0  0  0  0  0  0  0
    4.0788   -2.1301   -0.8024 N   0  0  0  0  0  0  0  0  0  0  0  0
   -1.0805    0.6478    0.6266 C   0  0  1  0  0  0  0  0  0  0  0  0
   -2.6998    0.4301   -1.0778 C   0  0  1  0  0  0  0  0  0  0  0  0
   -1.6050    1.3581   -0.6092 C   0  0  1  0  0  0  0  0  0  0  0  0
   -3.2924   -0.0159    0.2459 C   0  0  1  0  0  0  0  0  0  0  0  0
   -4.0297   -1.3400    0.1627 C   0  0  0  0  0  0  0  0  0  0  0  0
    1.3602    0.1675    0.2656 C   0  0  0  0  0  0  0  0  0  0  0  0
   -0.0482   -1.5058   -0.1453 C   0  0  0  0  0  0  0  0  0  0  0  0
    2.0321   -1.0756   -0.2226 C   0  0  0  0  0  0  0  0  0  0  0  0
    3.3615   -1.0532   -0.3632 C   0  0  0  0  0  0  0  0  0  0  0  0
    3.3465    1.2889    0.4115 C   0  0  0  0  0  0  0  0  0  0  0  0
   -0.7948    1.3635    1.4050 H   0  0  0  0  0  0  0  0  0  0  0  0
   -2.2691   -0.4108   -1.6330 H   0  0  0  0  0  0  0  0  0  0  0  0
   -0.8588    1.5889   -1.3741 H   0  0  0  0  0  0  0  0  0  0  0  0
   -3.9626    0.7468    0.6631 H   0  0  0  0  0  0  0  0  0  0  0  0
   -3.3630   -2.1498   -0.1479 H   0  0  0  0  0  0  0  0  0  0  0  0
   -4.8704   -1.2799   -0.5350 H   0  0  0  0  0  0  0  0  0  0  0  0
   -1.0329   -1.9857   -0.2036 H   0  0  0  0  0  0  0  0  0  0  0  0
   -4.3494    0.4344   -2.1013 H   0  0  0  0  0  0  0  0  0  0  0  0
   -4.9996   -2.5151    1.3661 H   0  0  0  0  0  0  0  0  0  0  0  0
    5.0044    0.1567   -0.1453 H   0  0  0  0  0  0  0  0  0  0  0  0
    3.6074   -2.9945   -1.0375 H   0  0  0  0  0  0  0  0  0  0  0  0
    5.0839   -2.0524   -0.8898 H   0  0  0  0  0  0  0  0  0  0  0  0
  1 13  1  0  0  0  0
  2 11  1  0  0  0  0
  2 14  1  0  0  0  0
  3 12  1  0  0  0  0
  3 28  1  0  0  0  0
  4 15  1  0  0  0  0
  4 29  1  0  0  0  0
  5 20  2  0  0  0  0
  6 11  1  0  0  0  0
  6 16  1  0  0  0  0
  6 17  1  0  0  0  0
  7 17  2  0  0  0  0
  7 18  1  0  0  0  0
  8 16  2  0  0  0  0
  8 20  1  0  0  0  0
  9 19  1  0  0  0  0
  9 20  1  0  0  0  0
  9 30  1  0  0  0  0
 10 19  1  0  0  0  0
 10 31  1  0  0  0  0
 10 32  1  0  0  0  0
 11 13  1  0  0  0  0
 11 21  1  0  0  0  0
 12 13  1  0  0  0  0
 12 14  1  0  0  0  0
 12 22  1  0  0  0  0
 13 23  1  0  0  0  0
 14 15  1  0  0  0  0
 14 24  1  0  0  0  0
 15 25  1  0  0  0  0
 15 26  1  0  0  0  0
 16 18  1  0  0  0  0
 17 27  1  0  0  0  0
 18 19  2  0  0  0  0
M  END
> <PUBCHEM_COMPOUND_CID>
122395471

> <PUBCHEM_CONFORMER_RMSD>
0.6

> <PUBCHEM_CONFORMER_DIVERSEORDER>
1
11
6
15
9
14
5
4
13
12
2
3
16
7
8
10

> <PUBCHEM_MMFF94_PARTIAL_CHARGES>
26
1 -0.34
10 -0.9
11 0.65
12 0.28
13 0.34
14 0.28
15 0.28
16 0.49
17 0.44
18 0.19
19 0.21
2 -0.56
20 0.84
27 0.06
28 0.4
29 0.4
3 -0.68
30 0.37
31 0.4
32 0.4
4 -0.68
5 -0.57
6 -0.47
7 -0.62
8 -0.66
9 -0.54

> <PUBCHEM_EFFECTIVE_ROTOR_COUNT>
3

> <PUBCHEM_PHARMACOPHORE_FEATURES>
14
1 10 cation
1 10 donor
1 2 acceptor
1 3 acceptor
1 3 donor
1 4 acceptor
1 4 donor
1 5 acceptor
1 8 donor
1 9 donor
3 6 7 17 cation
5 2 11 12 13 14 rings
5 6 7 16 17 18 rings
6 8 9 16 18 19 20 rings

> <PUBCHEM_HEAVY_ATOM_COUNT>
20

> <PUBCHEM_ATOM_DEF_STEREO_COUNT>
4

> <PUBCHEM_ATOM_UDEF_STEREO_COUNT>
0

> <PUBCHEM_BOND_DEF_STEREO_COUNT>
0

> <PUBCHEM_BOND_UDEF_STEREO_COUNT>
0

> <PUBCHEM_ISOTOPIC_ATOM_COUNT>
0

> <PUBCHEM_COMPONENT_COUNT>
1

> <PUBCHEM_CACTVS_TAUTO_COUNT>
9

> <PUBCHEM_CONFORMER_ID>
074B9B4F00000001

> <PUBCHEM_MMFF94_ENERGY>
71.5274

> <PUBCHEM_FEATURE_SELFOVERLAP>
71.25

> <PUBCHEM_SHAPE_FINGERPRINT>
10608611 8 18410290272702832392
10871710 139 16531736534739993844
11405975 8 18337107852415282321
12236239 1 16845294938261680170
12403259 226 18410292467668172708
12403259 415 18335423473684551508
12916754 54 18342181046294792931
13140716 1 18269838605994792400
13224815 77 18410570682337431291
13583140 156 17677871531256348842
15219456 202 18409446985912348329
16945 1 18270679758159642870
17349148 13 15068621599825132363
18186145 218 18262237724834386784
19422 9 17346877840659487983
200 152 17846488197912139589
20645477 70 18201992197024796767
20681677 76 18335698330016399684
21065201 7 17531242837913602930
21079973 296 18114465664496358515
21639500 275 18130498704387228824
221490 88 18340492179539561302
22182313 1 18335698360017886916
22943178 12 18335135375683530615
23402539 116 17386276705775117483
23557571 272 18040716974309048189
23559900 14 18114738231578956730
23598288 3 16845022208302770577
2748010 2 18410289190460699188
2871803 45 18335135393364981915
3268164 11 17313096467325899831
3286 77 18409168771153555646
474 4 16628248152142325920
5104073 3 18411139112684973489
6049 1 18336550434316544804
633830 44 17917440808317750100
77492 1 16917066646449591096
9709674 26 18408606980377255874

> <PUBCHEM_SHAPE_MULTIPOLES>
355.93
8.5
2.25
1.07
0.01
0.2
-0.16
-0.88
0.18
0.89
-0.09
-1.07
0.06
1.85

> <PUBCHEM_SHAPE_SELFOVERLAP>
777.219

> <PUBCHEM_SHAPE_VOLUME>
195

> <PUBCHEM_COORDINATE_TYPE>
2
5
10

$$$$
