122361331
  -OEChem-03292013293D

 57 58  0     1  0  0  0  0  0999 V2000
    1.1523    1.9850   -1.5470 S   0  0  0  0  0  0  0  0  0  0  0  0
   -2.6758    3.6571    0.6563 O   0  0  0  0  0  0  0  0  0  0  0  0
   -1.3876   -0.4066    1.6193 O   0  0  0  0  0  0  0  0  0  0  0  0
   -0.8433   -4.3372   -2.1620 O   0  0  0  0  0  0  0  0  0  0  0  0
    0.4184   -5.2749   -0.5280 O   0  0  0  0  0  0  0  0  0  0  0  0
   -7.5470    2.2339    0.3758 O   0  0  0  0  0  0  0  0  0  0  0  0
   -6.3547    0.4453   -0.3618 O   0  0  0  0  0  0  0  0  0  0  0  0
   -1.3850    0.4971   -0.5205 N   0  0  0  0  0  0  0  0  0  0  0  0
   -1.8346   -5.4636    1.0486 N   0  0  0  0  0  0  0  0  0  0  0  0
   -1.2689    1.8836   -0.1319 C   0  0  1  0  0  0  0  0  0  0  0  0
   -0.4795    2.6994   -1.1590 C   0  0  0  0  0  0  0  0  0  0  0  0
   -2.6270    2.5158    0.1904 C   0  0  0  0  0  0  0  0  0  0  0  0
   -1.5476   -1.8906   -0.2873 C   0  0  0  0  0  0  0  0  0  0  0  0
   -1.6041   -3.0495    0.7102 C   0  0  0  0  0  0  0  0  0  0  0  0
   -3.8905    1.6975   -0.0525 C   0  0  0  0  0  0  0  0  0  0  0  0
   -1.4349   -0.5401    0.3995 C   0  0  0  0  0  0  0  0  0  0  0  0
   -1.7910   -4.4107    0.0310 C   0  0  1  0  0  0  0  0  0  0  0  0
    2.0284    2.5301   -0.0643 C   0  0  0  0  0  0  0  0  0  0  0  0
    3.4664    2.0901   -0.0610 C   0  0  0  0  0  0  0  0  0  0  0  0
    3.8403    0.7688    0.2338 C   0  0  0  0  0  0  0  0  0  0  0  0
   -5.1697    2.4373    0.3216 C   0  0  0  0  0  0  0  0  0  0  0  0
    5.2114    0.4185    0.2218 C   0  0  0  0  0  0  0  0  0  0  0  0
    4.4306    3.0521   -0.3632 C   0  0  0  0  0  0  0  0  0  0  0  0
    2.8833   -0.2125    0.5401 C   0  0  0  0  0  0  0  0  0  0  0  0
    6.1683    1.3997   -0.0845 C   0  0  0  0  0  0  0  0  0  0  0  0
   -0.6230   -4.7366   -0.8823 C   0  0  0  0  0  0  0  0  0  0  0  0
    5.7789    2.7075   -0.3750 C   0  0  0  0  0  0  0  0  0  0  0  0
    5.5853   -0.9027    0.5166 C   0  0  0  0  0  0  0  0  0  0  0  0
    3.2727   -1.5203    0.8304 C   0  0  0  0  0  0  0  0  0  0  0  0
   -6.3931    1.5913    0.0664 C   0  0  0  0  0  0  0  0  0  0  0  0
    4.6211   -1.8648    0.8187 C   0  0  0  0  0  0  0  0  0  0  0  0
   -0.7330    1.8994    0.8260 H   0  0  0  0  0  0  0  0  0  0  0  0
   -1.0408    2.7336   -2.1003 H   0  0  0  0  0  0  0  0  0  0  0  0
   -0.3593    3.7391   -0.8353 H   0  0  0  0  0  0  0  0  0  0  0  0
   -1.4942    0.2860   -1.5085 H   0  0  0  0  0  0  0  0  0  0  0  0
   -2.4516   -1.8856   -0.9076 H   0  0  0  0  0  0  0  0  0  0  0  0
   -0.6789   -1.9924   -0.9473 H   0  0  0  0  0  0  0  0  0  0  0  0
   -0.6798   -3.0478    1.3045 H   0  0  0  0  0  0  0  0  0  0  0  0
   -2.4279   -2.8774    1.4157 H   0  0  0  0  0  0  0  0  0  0  0  0
   -3.8304    0.7824    0.5454 H   0  0  0  0  0  0  0  0  0  0  0  0
   -3.9179    1.4226   -1.1132 H   0  0  0  0  0  0  0  0  0  0  0  0
   -2.7230   -4.4398   -0.5443 H   0  0  0  0  0  0  0  0  0  0  0  0
    1.5308    2.1780    0.8451 H   0  0  0  0  0  0  0  0  0  0  0  0
    1.9736    3.6246   -0.0225 H   0  0  0  0  0  0  0  0  0  0  0  0
   -5.2567    3.3557   -0.2698 H   0  0  0  0  0  0  0  0  0  0  0  0
   -5.1517    2.7049    1.3840 H   0  0  0  0  0  0  0  0  0  0  0  0
    4.1486    4.0760   -0.5946 H   0  0  0  0  0  0  0  0  0  0  0  0
    1.8189   -0.0026    0.5767 H   0  0  0  0  0  0  0  0  0  0  0  0
    7.2278    1.1529   -0.0997 H   0  0  0  0  0  0  0  0  0  0  0  0
    6.5292    3.4566   -0.6109 H   0  0  0  0  0  0  0  0  0  0  0  0
   -2.0409   -6.3583    0.6054 H   0  0  0  0  0  0  0  0  0  0  0  0
   -2.6035   -5.2835    1.6931 H   0  0  0  0  0  0  0  0  0  0  0  0
    6.6334   -1.1945    0.5134 H   0  0  0  0  0  0  0  0  0  0  0  0
    2.5226   -2.2695    1.0676 H   0  0  0  0  0  0  0  0  0  0  0  0
    4.9234   -2.8831    1.0453 H   0  0  0  0  0  0  0  0  0  0  0  0
   -0.0796   -4.5379   -2.7441 H   0  0  0  0  0  0  0  0  0  0  0  0
   -8.3342    1.6721    0.2114 H   0  0  0  0  0  0  0  0  0  0  0  0
  1 11  1  0  0  0  0
  1 18  1  0  0  0  0
  2 12  2  0  0  0  0
  3 16  2  0  0  0  0
  4 26  1  0  0  0  0
  4 56  1  0  0  0  0
  5 26  2  0  0  0  0
  6 30  1  0  0  0  0
  6 57  1  0  0  0  0
  7 30  2  0  0  0  0
  8 10  1  0  0  0  0
  8 16  1  0  0  0  0
  8 35  1  0  0  0  0
  9 17  1  0  0  0  0
  9 51  1  0  0  0  0
  9 52  1  0  0  0  0
 10 11  1  0  0  0  0
 10 12  1  0  0  0  0
 10 32  1  0  0  0  0
 11 33  1  0  0  0  0
 11 34  1  0  0  0  0
 12 15  1  0  0  0  0
 13 14  1  0  0  0  0
 13 16  1  0  0  0  0
 13 36  1  0  0  0  0
 13 37  1  0  0  0  0
 14 17  1  0  0  0  0
 14 38  1  0  0  0  0
 14 39  1  0  0  0  0
 15 21  1  0  0  0  0
 15 40  1  0  0  0  0
 15 41  1  0  0  0  0
 17 26  1  0  0  0  0
 17 42  1  0  0  0  0
 18 19  1  0  0  0  0
 18 43  1  0  0  0  0
 18 44  1  0  0  0  0
 19 20  1  0  0  0  0
 19 23  2  0  0  0  0
 20 22  1  0  0  0  0
 20 24  2  0  0  0  0
 21 30  1  0  0  0  0
 21 45  1  0  0  0  0
 21 46  1  0  0  0  0
 22 25  1  0  0  0  0
 22 28  2  0  0  0  0
 23 27  1  0  0  0  0
 23 47  1  0  0  0  0
 24 29  1  0  0  0  0
 24 48  1  0  0  0  0
 25 27  2  0  0  0  0
 25 49  1  0  0  0  0
 27 50  1  0  0  0  0
 28 31  1  0  0  0  0
 28 53  1  0  0  0  0
 29 31  2  0  0  0  0
 29 54  1  0  0  0  0
 31 55  1  0  0  0  0
M  END
> <PUBCHEM_COMPOUND_CID>
122361331

> <PUBCHEM_CONFORMER_RMSD>
1.2

> <PUBCHEM_CONFORMER_DIVERSEORDER>
1
2
5
60
42
31
32
47
39
11
44
33
58
45
28
12
43
57
17
13
36
55
56
48
65
66
19
40
7
29
16
15
46
38
3
53
18
34
41
35
67
49
59
30
10
64
27
8
54
63
22
24
21
6
52
25
62
37
61
26
14
20
4
50
23
51
9

> <PUBCHEM_MMFF94_PARTIAL_CHARGES>
40
1 -0.46
10 0.36
11 0.23
12 0.45
13 0.06
15 0.06
16 0.57
17 0.33
18 0.37
19 -0.14
2 -0.57
21 0.06
23 -0.15
24 -0.15
25 -0.15
26 0.66
27 -0.15
28 -0.15
29 -0.15
3 -0.57
30 0.66
31 -0.15
35 0.37
4 -0.65
47 0.15
48 0.15
49 0.15
5 -0.57
50 0.15
51 0.36
52 0.36
53 0.15
54 0.15
55 0.15
56 0.5
57 0.5
6 -0.65
7 -0.57
8 -0.73
9 -0.99

> <PUBCHEM_EFFECTIVE_ROTOR_COUNT>
14

> <PUBCHEM_PHARMACOPHORE_FEATURES>
13
1 2 acceptor
1 3 acceptor
1 4 acceptor
1 5 acceptor
1 6 acceptor
1 7 acceptor
1 8 donor
1 9 cation
1 9 donor
3 4 5 26 anion
3 6 7 30 anion
6 19 20 22 23 25 27 rings
6 20 22 24 28 29 31 rings

> <PUBCHEM_HEAVY_ATOM_COUNT>
31

> <PUBCHEM_ATOM_DEF_STEREO_COUNT>
2

> <PUBCHEM_ATOM_UDEF_STEREO_COUNT>
0

> <PUBCHEM_BOND_DEF_STEREO_COUNT>
0

> <PUBCHEM_BOND_UDEF_STEREO_COUNT>
0

> <PUBCHEM_ISOTOPIC_ATOM_COUNT>
0

> <PUBCHEM_COMPONENT_COUNT>
1

> <PUBCHEM_CACTVS_TAUTO_COUNT>
9

> <PUBCHEM_CONFORMER_ID>
074B15F300000001

> <PUBCHEM_MMFF94_ENERGY>
62.193

> <PUBCHEM_FEATURE_SELFOVERLAP>
66.116

> <PUBCHEM_SHAPE_FINGERPRINT>
11552529 35 18339358699311074340
11578080 2 17844509197510824984
13533116 47 18410291389489957112
1361 2 18338516309672980451
14790565 3 18409728426883034409
15483637 11 18192149510751366362
15484559 13 15582538639143801692
16728300 4 17101411694135018194
19930381 70 17761771767468660186
20028762 73 18269833134374800855
21133410 171 17259283194630727538
21133410 221 14878003293646051418
3383291 50 18338511950291452010
4017518 198 18341902870222504270
463206 1 17398672793029818906
5309563 4 17617661402773245330

> <PUBCHEM_SHAPE_MULTIPOLES>
596.64
14.53
7.3
1.12
4.69
12.65
-0.31
-13.43
2.19
5.5
-1.3
0.09
0.63
-1.46

> <PUBCHEM_SHAPE_SELFOVERLAP>
1224.349

> <PUBCHEM_SHAPE_VOLUME>
342.3

> <PUBCHEM_COORDINATE_TYPE>
2
5
10

$$$$
