122392826
  -OEChem-03292013293D

 64 66  0     1  0  0  0  0  0999 V2000
    1.4298   -0.8697   -0.2149 O   0  0  0  0  0  0  0  0  0  0  0  0
    5.5666    0.2880    0.5324 O   0  0  0  0  0  0  0  0  0  0  0  0
    1.8853    2.1126    1.0698 O   0  0  0  0  0  0  0  0  0  0  0  0
    1.5541   -1.0638    2.0829 O   0  0  0  0  0  0  0  0  0  0  0  0
   -2.1650    1.8203    2.4713 O   0  0  0  0  0  0  0  0  0  0  0  0
   -0.2380   -5.3998   -1.5545 O   0  0  0  0  0  0  0  0  0  0  0  0
   -3.7827   -3.5575    1.0583 O   0  0  0  0  0  0  0  0  0  0  0  0
   -0.8509    2.1905    0.0303 N   0  0  0  0  0  0  0  0  0  0  0  0
   -0.1766    1.7468   -1.1783 C   0  0  2  0  0  0  0  0  0  0  0  0
   -0.4202    0.2195   -1.3855 C   0  0  2  0  0  0  0  0  0  0  0  0
    1.2719    2.2973   -1.2561 C   0  0  2  0  0  0  0  0  0  0  0  0
    0.0024   -0.6854   -0.1929 C   0  0  1  0  0  0  0  0  0  0  0  0
    3.5647    1.2797   -0.4715 C   0  0  2  0  0  0  0  0  0  0  0  0
    2.1996    1.8950   -0.1018 C   0  0  0  0  0  0  0  0  0  0  0  0
    4.1494    0.4126    0.6820 C   0  0  1  0  0  0  0  0  0  0  0  0
    3.5712   -1.0205    0.7239 C   0  0  2  0  0  0  0  0  0  0  0  0
    0.1764   -0.2446   -2.7235 C   0  0  0  0  0  0  0  0  0  0  0  0
    1.2506    3.8334   -1.3285 C   0  0  0  0  0  0  0  0  0  0  0  0
   -0.7107   -2.0291   -0.2119 C   0  0  0  0  0  0  0  0  0  0  0  0
    4.5011    2.4179   -0.8882 C   0  0  0  0  0  0  0  0  0  0  0  0
    2.0771   -1.0044    0.9787 C   0  0  0  0  0  0  0  0  0  0  0  0
    4.2501   -1.8862    1.7918 C   0  0  0  0  0  0  0  0  0  0  0  0
   -2.2194    2.3255    0.1266 C   0  0  0  0  0  0  0  0  0  0  0  0
   -1.9348   -2.1789    0.4399 C   0  0  0  0  0  0  0  0  0  0  0  0
   -0.1406   -3.1114   -0.8823 C   0  0  0  0  0  0  0  0  0  0  0  0
   -2.8674    2.1384    1.3476 C   0  0  0  0  0  0  0  0  0  0  0  0
   -2.9570    2.6513   -1.0115 C   0  0  0  0  0  0  0  0  0  0  0  0
   -0.7944   -4.3433   -0.9008 C   0  0  0  0  0  0  0  0  0  0  0  0
   -2.5886   -3.4109    0.4216 C   0  0  0  0  0  0  0  0  0  0  0  0
   -2.0183   -4.4931   -0.2487 C   0  0  0  0  0  0  0  0  0  0  0  0
   -4.2528    2.2769    1.4304 C   0  0  0  0  0  0  0  0  0  0  0  0
   -4.3424    2.7900   -0.9288 C   0  0  0  0  0  0  0  0  0  0  0  0
   -4.9904    2.6026    0.2921 C   0  0  0  0  0  0  0  0  0  0  0  0
   -0.6430    2.2188   -2.0504 H   0  0  0  0  0  0  0  0  0  0  0  0
   -1.5090    0.1045   -1.4939 H   0  0  0  0  0  0  0  0  0  0  0  0
    1.7262    1.9416   -2.1877 H   0  0  0  0  0  0  0  0  0  0  0  0
   -0.2703   -0.1887    0.7456 H   0  0  0  0  0  0  0  0  0  0  0  0
    3.4221    0.6331   -1.3462 H   0  0  0  0  0  0  0  0  0  0  0  0
    3.9823    0.9062    1.6464 H   0  0  0  0  0  0  0  0  0  0  0  0
    3.7530   -1.5248   -0.2350 H   0  0  0  0  0  0  0  0  0  0  0  0
    1.2696   -0.2811   -2.6991 H   0  0  0  0  0  0  0  0  0  0  0  0
   -0.1187    0.4310   -3.5339 H   0  0  0  0  0  0  0  0  0  0  0  0
   -0.1872   -1.2397   -2.9958 H   0  0  0  0  0  0  0  0  0  0  0  0
   -0.3455    2.0845    0.9042 H   0  0  0  0  0  0  0  0  0  0  0  0
    0.6542    4.1763   -2.1806 H   0  0  0  0  0  0  0  0  0  0  0  0
    2.2580    4.2431   -1.4455 H   0  0  0  0  0  0  0  0  0  0  0  0
    0.8315    4.2761   -0.4182 H   0  0  0  0  0  0  0  0  0  0  0  0
    4.6556    3.1228   -0.0640 H   0  0  0  0  0  0  0  0  0  0  0  0
    4.0912    2.9778   -1.7339 H   0  0  0  0  0  0  0  0  0  0  0  0
    5.4774    2.0416   -1.2092 H   0  0  0  0  0  0  0  0  0  0  0  0
    4.1901   -1.4178    2.7805 H   0  0  0  0  0  0  0  0  0  0  0  0
    5.3064   -2.0521    1.5574 H   0  0  0  0  0  0  0  0  0  0  0  0
    3.7683   -2.8680    1.8610 H   0  0  0  0  0  0  0  0  0  0  0  0
    5.7364   -0.1666   -0.3105 H   0  0  0  0  0  0  0  0  0  0  0  0
   -2.3799   -1.3342    0.9603 H   0  0  0  0  0  0  0  0  0  0  0  0
    0.8108   -3.0057   -1.3975 H   0  0  0  0  0  0  0  0  0  0  0  0
   -2.5087    2.8376   -1.9807 H   0  0  0  0  0  0  0  0  0  0  0  0
   -2.5278   -5.4533   -0.2628 H   0  0  0  0  0  0  0  0  0  0  0  0
   -4.7710    2.1341    2.3749 H   0  0  0  0  0  0  0  0  0  0  0  0
   -4.9169    3.0501   -1.8132 H   0  0  0  0  0  0  0  0  0  0  0  0
   -6.0690    2.7120    0.3566 H   0  0  0  0  0  0  0  0  0  0  0  0
   -2.7827    1.7280    3.2169 H   0  0  0  0  0  0  0  0  0  0  0  0
    0.6061   -5.1190   -1.9476 H   0  0  0  0  0  0  0  0  0  0  0  0
   -4.0280   -2.7099    1.4675 H   0  0  0  0  0  0  0  0  0  0  0  0
  1 12  1  0  0  0  0
  1 21  1  0  0  0  0
  2 15  1  0  0  0  0
  2 54  1  0  0  0  0
  3 14  2  0  0  0  0
  4 21  2  0  0  0  0
  5 26  1  0  0  0  0
  5 62  1  0  0  0  0
  6 28  1  0  0  0  0
  6 63  1  0  0  0  0
  7 29  1  0  0  0  0
  7 64  1  0  0  0  0
  8  9  1  0  0  0  0
  8 23  1  0  0  0  0
  8 44  1  0  0  0  0
  9 10  1  0  0  0  0
  9 11  1  0  0  0  0
  9 34  1  0  0  0  0
 10 12  1  0  0  0  0
 10 17  1  0  0  0  0
 10 35  1  0  0  0  0
 11 14  1  0  0  0  0
 11 18  1  0  0  0  0
 11 36  1  0  0  0  0
 12 19  1  0  0  0  0
 12 37  1  0  0  0  0
 13 14  1  0  0  0  0
 13 15  1  0  0  0  0
 13 20  1  0  0  0  0
 13 38  1  0  0  0  0
 15 16  1  0  0  0  0
 15 39  1  0  0  0  0
 16 21  1  0  0  0  0
 16 22  1  0  0  0  0
 16 40  1  0  0  0  0
 17 41  1  0  0  0  0
 17 42  1  0  0  0  0
 17 43  1  0  0  0  0
 18 45  1  0  0  0  0
 18 46  1  0  0  0  0
 18 47  1  0  0  0  0
 19 24  2  0  0  0  0
 19 25  1  0  0  0  0
 20 48  1  0  0  0  0
 20 49  1  0  0  0  0
 20 50  1  0  0  0  0
 22 51  1  0  0  0  0
 22 52  1  0  0  0  0
 22 53  1  0  0  0  0
 23 26  1  0  0  0  0
 23 27  2  0  0  0  0
 24 29  1  0  0  0  0
 24 55  1  0  0  0  0
 25 28  2  0  0  0  0
 25 56  1  0  0  0  0
 26 31  2  0  0  0  0
 27 32  1  0  0  0  0
 27 57  1  0  0  0  0
 28 30  1  0  0  0  0
 29 30  2  0  0  0  0
 30 58  1  0  0  0  0
 31 33  1  0  0  0  0
 31 59  1  0  0  0  0
 32 33  2  0  0  0  0
 32 60  1  0  0  0  0
 33 61  1  0  0  0  0
M  END
> <PUBCHEM_COMPOUND_CID>
122392826

> <PUBCHEM_CONFORMER_RMSD>
0.8

> <PUBCHEM_CONFORMER_DIVERSEORDER>
1
11
30
32
42
31
9
27
15
7
41
19
18
3
20
2
23
29
38
34
33
26
40
36
25
16
8
13
22
5
4
21
17
28
12
35
39
10
37
24
14
6

> <PUBCHEM_MMFF94_PARTIAL_CHARGES>
40
1 -0.43
11 0.06
12 0.42
13 0.06
14 0.45
15 0.28
16 0.06
19 -0.14
2 -0.68
21 0.66
23 0.1
24 -0.15
25 -0.15
26 0.08
27 -0.15
28 0.08
29 0.08
3 -0.57
30 -0.15
31 -0.15
32 -0.15
33 -0.15
4 -0.57
44 0.4
5 -0.53
54 0.4
55 0.15
56 0.15
57 0.15
58 0.15
59 0.15
6 -0.53
60 0.15
61 0.15
62 0.45
63 0.45
64 0.45
7 -0.53
8 -0.87
9 0.37

> <PUBCHEM_EFFECTIVE_ROTOR_COUNT>
4.6

> <PUBCHEM_PHARMACOPHORE_FEATURES>
11
1 2 acceptor
1 2 donor
1 3 acceptor
1 4 acceptor
1 5 donor
1 6 donor
1 7 donor
1 8 cation
1 8 donor
6 19 24 25 28 29 30 rings
6 23 26 27 31 32 33 rings

> <PUBCHEM_HEAVY_ATOM_COUNT>
33

> <PUBCHEM_ATOM_DEF_STEREO_COUNT>
6

> <PUBCHEM_ATOM_UDEF_STEREO_COUNT>
1

> <PUBCHEM_BOND_DEF_STEREO_COUNT>
0

> <PUBCHEM_BOND_UDEF_STEREO_COUNT>
0

> <PUBCHEM_ISOTOPIC_ATOM_COUNT>
0

> <PUBCHEM_COMPONENT_COUNT>
1

> <PUBCHEM_CACTVS_TAUTO_COUNT>
120

> <PUBCHEM_CONFORMER_ID>
074B90FA00000001

> <PUBCHEM_MMFF94_ENERGY>
105.938

> <PUBCHEM_FEATURE_SELFOVERLAP>
55.827

> <PUBCHEM_SHAPE_FINGERPRINT>
10074138 170 18191276361006554674
10675989 125 17470165225021428509
1100329 8 18335975377003368368
11421498 54 17686904225336823192
11513181 2 18272654562558350567
12156800 1 18193305015883689662
12788726 201 18049173459829652492
13004483 165 18121778602126566995
13140716 1 18334842923609480424
13540713 5 18114737261655033956
13692114 37 18341315770005054311
14178342 30 18120073221259395264
14863182 85 17902810565223253823
15297060 5 18202283563274202056
16114785 44 17771877636347982058
17138139 8 17841956071634443781
20028762 73 18270386193113777735
20775438 99 16111999032004801687
21344244 78 17834099119929164747
21583282 1 17532110336172811060
23558518 356 18047195434212002396
23559900 14 16964082601351491541
2818148 4 18259981579130898600
283562 15 17759799643352125100
345986 75 17903340843028450378
35225 105 18131348652602917091
4409770 3 18267584800699904863

> <PUBCHEM_SHAPE_MULTIPOLES>
633.06
8.24
6.66
1.87
1.57
8.52
-0.03
-6.23
-3.47
-4.49
2.06
-0.04
-0.11
-1.19

> <PUBCHEM_SHAPE_SELFOVERLAP>
1341.274

> <PUBCHEM_SHAPE_VOLUME>
350.6

> <PUBCHEM_COORDINATE_TYPE>
2
5
10

$$$$
