122400111
  -OEChem-03292013293D

 48 51  0     1  0  0  0  0  0999 V2000
   -1.7905    3.2051    0.4169 O   0  0  0  0  0  0  0  0  0  0  0  0
    0.1386    2.1798   -0.5996 O   0  0  0  0  0  0  0  0  0  0  0  0
    2.5823    2.2541    1.2695 O   0  0  0  0  0  0  0  0  0  0  0  0
    4.8527    3.3138    0.4168 O   0  0  0  0  0  0  0  0  0  0  0  0
   -2.4194    0.9296   -0.0262 N   0  0  0  0  0  0  0  0  0  0  0  0
   -0.0465   -3.2945    0.2289 N   0  0  0  0  0  0  0  0  0  0  0  0
    2.4130    0.7937   -0.5639 N   0  0  0  0  0  0  0  0  0  0  0  0
   -3.6981    0.2471   -0.2221 C   0  0  2  0  0  0  0  0  0  0  0  0
   -4.6488    1.1491    0.5654 C   0  0  0  0  0  0  0  0  0  0  0  0
   -4.0803    2.5470    0.3336 C   0  0  0  0  0  0  0  0  0  0  0  0
   -1.1919    0.2174   -0.0773 C   0  0  0  0  0  0  0  0  0  0  0  0
   -2.5899    2.3019    0.2243 C   0  0  0  0  0  0  0  0  0  0  0  0
   -3.6510   -1.1622    0.2937 C   0  0  0  0  0  0  0  0  0  0  0  0
   -4.0804    0.2222   -1.7145 C   0  0  0  0  0  0  0  0  0  0  0  0
   -1.2151   -1.1877    0.1044 C   0  0  0  0  0  0  0  0  0  0  0  0
   -2.5012   -1.8350    0.4274 C   0  0  0  0  0  0  0  0  0  0  0  0
    0.0281    0.8597   -0.2796 C   0  0  0  0  0  0  0  0  0  0  0  0
   -0.0331   -1.9520    0.0612 C   0  0  0  0  0  0  0  0  0  0  0  0
    1.2047    0.1177   -0.3268 C   0  0  0  0  0  0  0  0  0  0  0  0
    1.1831   -1.2734   -0.1624 C   0  0  0  0  0  0  0  0  0  0  0  0
    2.3711   -2.0163   -0.2116 C   0  0  0  0  0  0  0  0  0  0  0  0
    1.1193   -3.9780    0.1753 C   0  0  0  0  0  0  0  0  0  0  0  0
    2.3460   -3.3912   -0.0413 C   0  0  0  0  0  0  0  0  0  0  0  0
    3.0066    1.7906    0.2149 C   0  0  0  0  0  0  0  0  0  0  0  0
    1.0346   -5.4555    0.3642 C   0  0  0  0  0  0  0  0  0  0  0  0
    4.3239    2.2718   -0.3880 C   0  0  2  0  0  0  0  0  0  0  0  0
    5.3420    1.1454   -0.4834 C   0  0  0  0  0  0  0  0  0  0  0  0
   -4.6091    0.9194    1.6389 H   0  0  0  0  0  0  0  0  0  0  0  0
   -5.6937    1.0701    0.2480 H   0  0  0  0  0  0  0  0  0  0  0  0
   -4.3052    3.2122    1.1714 H   0  0  0  0  0  0  0  0  0  0  0  0
   -4.4410    2.9919   -0.5985 H   0  0  0  0  0  0  0  0  0  0  0  0
   -4.5880   -1.6608    0.5262 H   0  0  0  0  0  0  0  0  0  0  0  0
   -3.3647   -0.3685   -2.2993 H   0  0  0  0  0  0  0  0  0  0  0  0
   -5.0739   -0.2172   -1.8613 H   0  0  0  0  0  0  0  0  0  0  0  0
   -4.0908    1.2254   -2.1545 H   0  0  0  0  0  0  0  0  0  0  0  0
   -2.5106   -2.8606    0.7788 H   0  0  0  0  0  0  0  0  0  0  0  0
    3.3419   -1.5550   -0.3699 H   0  0  0  0  0  0  0  0  0  0  0  0
    3.0218    0.3323   -1.2334 H   0  0  0  0  0  0  0  0  0  0  0  0
    1.0015    2.3509   -1.0110 H   0  0  0  0  0  0  0  0  0  0  0  0
    3.2619   -3.9704   -0.0761 H   0  0  0  0  0  0  0  0  0  0  0  0
    1.6226   -5.7626    1.2350 H   0  0  0  0  0  0  0  0  0  0  0  0
   -0.0007   -5.7726    0.5276 H   0  0  0  0  0  0  0  0  0  0  0  0
    1.4105   -5.9751   -0.5229 H   0  0  0  0  0  0  0  0  0  0  0  0
    4.1152    2.6852   -1.3813 H   0  0  0  0  0  0  0  0  0  0  0  0
    5.4564    0.6418    0.4834 H   0  0  0  0  0  0  0  0  0  0  0  0
    6.3277    1.5408   -0.7525 H   0  0  0  0  0  0  0  0  0  0  0  0
    5.0690    0.3924   -1.2276 H   0  0  0  0  0  0  0  0  0  0  0  0
    5.6014    3.7051   -0.0648 H   0  0  0  0  0  0  0  0  0  0  0  0
  1 12  2  0  0  0  0
  2 17  1  0  0  0  0
  2 39  1  0  0  0  0
  3 24  2  0  0  0  0
  4 26  1  0  0  0  0
  4 48  1  0  0  0  0
  5  8  1  0  0  0  0
  5 11  1  0  0  0  0
  5 12  1  0  0  0  0
  6 18  1  0  0  0  0
  6 22  2  0  0  0  0
  7 19  1  0  0  0  0
  7 24  1  0  0  0  0
  7 38  1  0  0  0  0
  8  9  1  0  0  0  0
  8 13  1  0  0  0  0
  8 14  1  0  0  0  0
  9 10  1  0  0  0  0
  9 28  1  0  0  0  0
  9 29  1  0  0  0  0
 10 12  1  0  0  0  0
 10 30  1  0  0  0  0
 10 31  1  0  0  0  0
 11 15  2  0  0  0  0
 11 17  1  0  0  0  0
 13 16  2  0  0  0  0
 13 32  1  0  0  0  0
 14 33  1  0  0  0  0
 14 34  1  0  0  0  0
 14 35  1  0  0  0  0
 15 16  1  0  0  0  0
 15 18  1  0  0  0  0
 16 36  1  0  0  0  0
 17 19  2  0  0  0  0
 18 20  2  0  0  0  0
 19 20  1  0  0  0  0
 20 21  1  0  0  0  0
 21 23  2  0  0  0  0
 21 37  1  0  0  0  0
 22 23  1  0  0  0  0
 22 25  1  0  0  0  0
 23 40  1  0  0  0  0
 24 26  1  0  0  0  0
 25 41  1  0  0  0  0
 25 42  1  0  0  0  0
 25 43  1  0  0  0  0
 26 27  1  0  0  0  0
 26 44  1  0  0  0  0
 27 45  1  0  0  0  0
 27 46  1  0  0  0  0
 27 47  1  0  0  0  0
M  END
> <PUBCHEM_COMPOUND_CID>
122400111

> <PUBCHEM_CONFORMER_RMSD>
0.8

> <PUBCHEM_CONFORMER_DIVERSEORDER>
1
2

> <PUBCHEM_MMFF94_PARTIAL_CHARGES>
30
1 -0.57
10 0.06
11 0.12
12 0.57
13 -0.29
15 0.03
16 -0.18
17 0.08
18 0.31
19 0.12
2 -0.53
21 -0.15
22 0.17
23 -0.15
24 0.57
25 0.14
26 0.34
3 -0.57
32 0.15
36 0.15
37 0.15
38 0.37
39 0.45
4 -0.68
40 0.15
48 0.4
5 -0.48
6 -0.62
7 -0.55
8 0.44

> <PUBCHEM_EFFECTIVE_ROTOR_COUNT>
3.4

> <PUBCHEM_PHARMACOPHORE_FEATURES>
11
1 1 acceptor
1 2 donor
1 3 acceptor
1 4 acceptor
1 4 donor
1 6 acceptor
1 7 donor
5 5 8 9 10 12 rings
6 11 15 17 18 19 20 rings
6 5 8 11 13 15 16 rings
6 6 18 20 21 22 23 rings

> <PUBCHEM_HEAVY_ATOM_COUNT>
27

> <PUBCHEM_ATOM_DEF_STEREO_COUNT>
2

> <PUBCHEM_ATOM_UDEF_STEREO_COUNT>
0

> <PUBCHEM_BOND_DEF_STEREO_COUNT>
0

> <PUBCHEM_BOND_UDEF_STEREO_COUNT>
0

> <PUBCHEM_ISOTOPIC_ATOM_COUNT>
0

> <PUBCHEM_COMPONENT_COUNT>
1

> <PUBCHEM_CACTVS_TAUTO_COUNT>
999

> <PUBCHEM_CONFORMER_ID>
074BAD6F00000001

> <PUBCHEM_MMFF94_ENERGY>
106.6009

> <PUBCHEM_FEATURE_SELFOVERLAP>
55.986

> <PUBCHEM_SHAPE_FINGERPRINT>
10006869 2 17985842432591013313
10074138 170 17692499601893888328
10319926 262 17838602711852934488
10411042 1 17400925193933398571
10967382 1 17905049149259389343
1100329 8 17475239002784337553
11135609 187 18337094762130729517
12403259 226 17758118103483403421
12553582 1 17833266420143575687
12788726 201 17324077526391763506
12930653 34 18337117851299743531
13140716 1 18408325462482676739
13540713 5 18057596582856912053
138480 1 17977948977841562050
13911987 19 18191576656930577573
14223421 5 18336548214166586445
14251757 5 17832160681182239068
14466204 15 18413101771670573184
14790565 3 18409736183630887740
14844126 61 17687176904721827810
15042514 8 17687751953287229266
15230672 131 18335988645396646444
15664445 248 17840601292456803534
15927050 60 18413111671185185231
16728300 4 17679274572391807402
16945 1 18265332798849092295
19591789 44 18194687200704715442
20028762 73 17695638733404157951
20510252 161 18270125758596404304
20600515 1 17047390402712453252
20739085 24 18187087217794557332
20775438 99 17542171911175800069
21033648 29 18198620128101956784
21279426 13 18341903961433938252
21796203 349 17258821059599938634
22182313 1 18264227935286039590
23366157 5 18115592521990919314
23559900 14 18195520402896060498
2748010 2 18334869336988574135
283562 15 18269274737118446163
3091708 16 9189312997974909050
3298306 158 18343027705214359766
335352 9 17255966667875045927
350125 39 18409452453775163172
352729 6 17903083570129103519
4409770 3 17902784502950796903
5104073 3 18263375711454564377
5265222 85 18121797273130254780
59755656 215 18337673139253275951
6442390 28 18410858810709509660
7364860 26 18339361834093653926
79837 15 18192435383959503538
84936 182 18343019965108383224
9709674 26 18266744567647973023
9981440 41 18336545009777930539

> <PUBCHEM_SHAPE_MULTIPOLES>
517.23
8.68
5.66
0.85
0.36
5.59
0.15
-7.9
0.4
5.6
-1.07
-0.36
-0.18
-0.11

> <PUBCHEM_SHAPE_SELFOVERLAP>
1146.542

> <PUBCHEM_SHAPE_VOLUME>
276

> <PUBCHEM_COORDINATE_TYPE>
2
5
10

$$$$
