12241133
  -OEChem-03292013303D

 40 40  0     1  0  0  0  0  0999 V2000
    0.0506    0.0149    1.9477 O   0  0  0  0  0  0  0  0  0  0  0  0
   -0.6394   -1.3083   -2.0877 O   0  0  0  0  0  0  0  0  0  0  0  0
   -2.5242    2.5121   -0.7566 O   0  0  0  0  0  0  0  0  0  0  0  0
   -4.6749    1.7812    0.9698 O   0  0  0  0  0  0  0  0  0  0  0  0
   -5.1450   -2.6775    0.4277 O   0  0  0  0  0  0  0  0  0  0  0  0
    6.6854   -1.0438   -0.2361 O   0  5  0  0  0  0  0  0  0  0  0  0
    6.5539    1.1356   -0.0089 O   0  0  0  0  0  0  0  0  0  0  0  0
   -1.8652    0.3691   -0.0603 N   0  0  0  0  0  0  0  0  0  0  0  0
   -4.6432   -0.0204   -0.5346 N   0  0  0  0  0  0  0  0  0  0  0  0
    6.0174    0.0021   -0.0510 N   0  3  0  0  0  0  0  0  0  0  0  0
   -0.4606    0.4407   -0.3885 C   0  0  1  0  0  0  0  0  0  0  0  0
    0.3495   -0.4096    0.6136 C   0  0  1  0  0  0  0  0  0  0  0  0
    1.8475   -0.3007    0.4396 C   0  0  0  0  0  0  0  0  0  0  0  0
   -0.2603    0.0422   -1.8556 C   0  0  0  0  0  0  0  0  0  0  0  0
    2.6108   -1.4500    0.2339 C   0  0  0  0  0  0  0  0  0  0  0  0
    2.4659    0.9487    0.4830 C   0  0  0  0  0  0  0  0  0  0  0  0
   -2.7392    1.4093   -0.2797 C   0  0  0  0  0  0  0  0  0  0  0  0
    3.9925   -1.3498    0.0718 C   0  0  0  0  0  0  0  0  0  0  0  0
    3.8476    1.0491    0.3209 C   0  0  0  0  0  0  0  0  0  0  0  0
    4.6109   -0.1002    0.1153 C   0  0  0  0  0  0  0  0  0  0  0  0
   -4.1442    1.0807    0.1229 C   0  0  0  0  0  0  0  0  0  0  0  0
   -5.9683   -0.5430   -0.2966 C   0  0  0  0  0  0  0  0  0  0  0  0
   -5.9676   -1.5825    0.8094 C   0  0  0  0  0  0  0  0  0  0  0  0
   -0.1776    1.4958   -0.2870 H   0  0  0  0  0  0  0  0  0  0  0  0
    0.0387   -1.4597    0.5467 H   0  0  0  0  0  0  0  0  0  0  0  0
    0.7865    0.1605   -2.1531 H   0  0  0  0  0  0  0  0  0  0  0  0
   -0.8679    0.6764   -2.5108 H   0  0  0  0  0  0  0  0  0  0  0  0
   -2.2298   -0.5110    0.2939 H   0  0  0  0  0  0  0  0  0  0  0  0
    2.1424   -2.4298    0.1965 H   0  0  0  0  0  0  0  0  0  0  0  0
    1.8916    1.8549    0.6536 H   0  0  0  0  0  0  0  0  0  0  0  0
   -0.9125   -0.0490    2.0655 H   0  0  0  0  0  0  0  0  0  0  0  0
    4.5552   -2.2662   -0.0870 H   0  0  0  0  0  0  0  0  0  0  0  0
    4.2956    2.0386    0.3629 H   0  0  0  0  0  0  0  0  0  0  0  0
   -0.4862   -1.4900   -3.0306 H   0  0  0  0  0  0  0  0  0  0  0  0
   -4.0581   -0.5019   -1.2114 H   0  0  0  0  0  0  0  0  0  0  0  0
   -6.3006   -0.9894   -1.2396 H   0  0  0  0  0  0  0  0  0  0  0  0
   -6.6400    0.2824   -0.0394 H   0  0  0  0  0  0  0  0  0  0  0  0
   -6.9822   -1.9540    0.9820 H   0  0  0  0  0  0  0  0  0  0  0  0
   -5.5769   -1.1659    1.7436 H   0  0  0  0  0  0  0  0  0  0  0  0
   -5.1726   -3.3219    1.1555 H   0  0  0  0  0  0  0  0  0  0  0  0
  1 12  1  0  0  0  0
  1 31  1  0  0  0  0
  2 14  1  0  0  0  0
  2 34  1  0  0  0  0
  3 17  2  0  0  0  0
  4 21  2  0  0  0  0
  5 23  1  0  0  0  0
  5 40  1  0  0  0  0
  6 10  1  0  0  0  0
  7 10  2  0  0  0  0
  8 11  1  0  0  0  0
  8 17  1  0  0  0  0
  8 28  1  0  0  0  0
  9 21  1  0  0  0  0
  9 22  1  0  0  0  0
  9 35  1  0  0  0  0
 10 20  1  0  0  0  0
 11 12  1  0  0  0  0
 11 14  1  0  0  0  0
 11 24  1  0  0  0  0
 12 13  1  0  0  0  0
 12 25  1  0  0  0  0
 13 15  2  0  0  0  0
 13 16  1  0  0  0  0
 14 26  1  0  0  0  0
 14 27  1  0  0  0  0
 15 18  1  0  0  0  0
 15 29  1  0  0  0  0
 16 19  2  0  0  0  0
 16 30  1  0  0  0  0
 17 21  1  0  0  0  0
 18 20  2  0  0  0  0
 18 32  1  0  0  0  0
 19 20  1  0  0  0  0
 19 33  1  0  0  0  0
 22 23  1  0  0  0  0
 22 36  1  0  0  0  0
 22 37  1  0  0  0  0
 23 38  1  0  0  0  0
 23 39  1  0  0  0  0
M  CHG  2   6  -1  10   1
M  END
> <PUBCHEM_COMPOUND_CID>
12241133

> <PUBCHEM_CONFORMER_RMSD>
1

> <PUBCHEM_CONFORMER_DIVERSEORDER>
1
32
23
30
44
29
27
24
36
16
21
48
14
31
15
43
19
40
2
39
18
22
33
41
11
28
17
10
37
45
38
34
13
4
47
46
12
8
6
42
35
7
49
5
26
20
3
25
9

> <PUBCHEM_MMFF94_PARTIAL_CHARGES>
32
1 -0.68
10 0.91
11 0.3
12 0.42
13 -0.14
14 0.28
15 -0.15
16 -0.15
17 0.63
18 -0.15
19 -0.15
2 -0.68
20 0.13
21 0.63
22 0.3
23 0.28
28 0.37
29 0.15
3 -0.57
30 0.15
31 0.4
32 0.15
33 0.15
34 0.4
35 0.37
4 -0.57
40 0.4
5 -0.68
6 -0.52
7 -0.52
8 -0.73
9 -0.73

> <PUBCHEM_EFFECTIVE_ROTOR_COUNT>
10

> <PUBCHEM_PHARMACOPHORE_FEATURES>
14
1 1 acceptor
1 1 donor
1 2 acceptor
1 2 donor
1 3 acceptor
1 4 acceptor
1 5 acceptor
1 5 donor
1 6 acceptor
1 6 anion
1 7 acceptor
1 8 donor
1 9 donor
6 13 15 16 18 19 20 rings

> <PUBCHEM_HEAVY_ATOM_COUNT>
23

> <PUBCHEM_ATOM_DEF_STEREO_COUNT>
2

> <PUBCHEM_ATOM_UDEF_STEREO_COUNT>
0

> <PUBCHEM_BOND_DEF_STEREO_COUNT>
0

> <PUBCHEM_BOND_UDEF_STEREO_COUNT>
0

> <PUBCHEM_ISOTOPIC_ATOM_COUNT>
0

> <PUBCHEM_COMPONENT_COUNT>
1

> <PUBCHEM_CACTVS_TAUTO_COUNT>
4

> <PUBCHEM_CONFORMER_ID>
00BAC8ED00000001

> <PUBCHEM_MMFF94_ENERGY>
43.0369

> <PUBCHEM_FEATURE_SELFOVERLAP>
71.148

> <PUBCHEM_SHAPE_FINGERPRINT>
11089746 13 13695870341546189406
12236239 1 17989205915557632592
12730499 353 18413108364582210418
13533116 47 12757416251403198512
13782708 43 17459467758889080050
13914758 101 10087651394485322518
14251718 22 18334294262257586408
14251732 16 18409448115673461040
14787075 74 17967817171243828817
14856354 85 16630528470823484629
17980427 23 13407074735019664335
18222031 100 16805319998247774652
18335252 98 18411141368086440338
19489759 90 10809345533715805885
21054139 6 17458341974540042667
21267235 1 18411141341746599396
21315759 40 17676205741718977706
23402539 116 8934998161988646083
23559900 14 18334568071271899529
3009799 131 13840261498751330663
347723 3 14476961185699239454
4073 2 18260835894796155475
4325135 7 18187083957660853559
5104073 3 18342450400799734146
6913067 236 15719386226931382078
7062679 117 18334295370823534963
7495541 125 18202279229710443209
9996256 80 18334010571499880690

> <PUBCHEM_SHAPE_MULTIPOLES>
417.3
16.01
1.92
1.2
2.8
0.14
0.33
3.32
-1.48
-2.28
-0.07
-0.54
0.13
0.44

> <PUBCHEM_SHAPE_SELFOVERLAP>
854.364

> <PUBCHEM_SHAPE_VOLUME>
239.4

> <PUBCHEM_COORDINATE_TYPE>
2
5
10

$$$$
