122518
  -OEChem-03292013323D

 36 36  0     1  0  0  0  0  0999 V2000
   -2.0748    1.1940    1.1655 O   0  0  0  0  0  0  0  0  0  0  0  0
    0.2527    2.9140   -1.5679 O   0  0  0  0  0  0  0  0  0  0  0  0
   -3.4850   -2.4253    0.0799 O   0  0  0  0  0  0  0  0  0  0  0  0
    0.4992    1.8185    0.4718 N   0  0  0  0  0  0  0  0  0  0  0  0
   -2.1927   -0.1153   -0.7491 N   0  0  0  0  0  0  0  0  0  0  0  0
   -5.4143   -1.2168    0.4005 N   0  0  0  0  0  0  0  0  0  0  0  0
   -0.0154    0.5332    0.0714 C   0  0  1  0  0  0  0  0  0  0  0  0
    0.5882   -0.6131    0.8912 C   0  0  0  0  0  0  0  0  0  0  0  0
    1.9705   -0.9994    0.4248 C   0  0  0  0  0  0  0  0  0  0  0  0
   -1.5282    0.5761    0.2543 C   0  0  0  0  0  0  0  0  0  0  0  0
    2.1110   -1.9741   -0.5508 C   0  0  0  0  0  0  0  0  0  0  0  0
    3.0753   -0.3724    0.9797 C   0  0  0  0  0  0  0  0  0  0  0  0
    0.5892    2.9033   -0.3867 C   0  0  0  0  0  0  0  0  0  0  0  0
   -3.6331   -0.1907   -0.8410 C   0  0  0  0  0  0  0  0  0  0  0  0
    3.3886   -2.3310   -0.9821 C   0  0  0  0  0  0  0  0  0  0  0  0
    4.3528   -0.7294    0.5483 C   0  0  0  0  0  0  0  0  0  0  0  0
    4.5093   -1.7087   -0.4327 C   0  0  0  0  0  0  0  0  0  0  0  0
    1.1377    4.1288    0.2938 C   0  0  0  0  0  0  0  0  0  0  0  0
   -4.1309   -1.3919   -0.0708 C   0  0  0  0  0  0  0  0  0  0  0  0
    0.2069    0.4002   -0.9952 H   0  0  0  0  0  0  0  0  0  0  0  0
   -0.0580   -1.4997    0.8301 H   0  0  0  0  0  0  0  0  0  0  0  0
    0.6155   -0.3567    1.9592 H   0  0  0  0  0  0  0  0  0  0  0  0
    0.7390    1.9514    1.4504 H   0  0  0  0  0  0  0  0  0  0  0  0
    1.2441   -2.4624   -0.9866 H   0  0  0  0  0  0  0  0  0  0  0  0
    2.9643    0.3911    1.7443 H   0  0  0  0  0  0  0  0  0  0  0  0
   -1.6535   -0.6172   -1.4486 H   0  0  0  0  0  0  0  0  0  0  0  0
   -4.0709    0.7334   -0.4505 H   0  0  0  0  0  0  0  0  0  0  0  0
   -3.9044   -0.3057   -1.8944 H   0  0  0  0  0  0  0  0  0  0  0  0
    3.5106   -3.0929   -1.7465 H   0  0  0  0  0  0  0  0  0  0  0  0
    5.2256   -0.2448    0.9759 H   0  0  0  0  0  0  0  0  0  0  0  0
    5.5041   -1.9865   -0.7687 H   0  0  0  0  0  0  0  0  0  0  0  0
    1.4371    4.8640   -0.4582 H   0  0  0  0  0  0  0  0  0  0  0  0
    0.3671    4.5627    0.9367 H   0  0  0  0  0  0  0  0  0  0  0  0
    2.0130    3.8707    0.8971 H   0  0  0  0  0  0  0  0  0  0  0  0
   -5.9407   -0.3626    0.2475 H   0  0  0  0  0  0  0  0  0  0  0  0
   -5.8806   -1.9498    0.9247 H   0  0  0  0  0  0  0  0  0  0  0  0
  1 10  2  0  0  0  0
  2 13  2  0  0  0  0
  3 19  2  0  0  0  0
  4  7  1  0  0  0  0
  4 13  1  0  0  0  0
  4 23  1  0  0  0  0
  5 10  1  0  0  0  0
  5 14  1  0  0  0  0
  5 26  1  0  0  0  0
  6 19  1  0  0  0  0
  6 35  1  0  0  0  0
  6 36  1  0  0  0  0
  7  8  1  0  0  0  0
  7 10  1  0  0  0  0
  7 20  1  0  0  0  0
  8  9  1  0  0  0  0
  8 21  1  0  0  0  0
  8 22  1  0  0  0  0
  9 11  2  0  0  0  0
  9 12  1  0  0  0  0
 11 15  1  0  0  0  0
 11 24  1  0  0  0  0
 12 16  2  0  0  0  0
 12 25  1  0  0  0  0
 13 18  1  0  0  0  0
 14 19  1  0  0  0  0
 14 27  1  0  0  0  0
 14 28  1  0  0  0  0
 15 17  2  0  0  0  0
 15 29  1  0  0  0  0
 16 17  1  0  0  0  0
 16 30  1  0  0  0  0
 17 31  1  0  0  0  0
 18 32  1  0  0  0  0
 18 33  1  0  0  0  0
 18 34  1  0  0  0  0
M  END
> <PUBCHEM_COMPOUND_CID>
122518

> <PUBCHEM_CONFORMER_RMSD>
0.8

> <PUBCHEM_CONFORMER_DIVERSEORDER>
1
35
36
86
11
2
90
73
68
7
82
33
43
102
40
19
77
62
28
50
27
63
29
83
84
69
44
70
22
96
5
4
21
71
74
66
17
12
79
85
94
72
54
60
20
55
32
48
64
6
56
53
101
76
15
51
78
59
24
14
9
8
97
91
67
81
98
30
41
57
23
39
52
42
47
38
34
75
80
99
16
93
45
26
13
25
31
65
95
58
49
46
88
3
92
100
61
89
37
18
10
87
103

> <PUBCHEM_MMFF94_PARTIAL_CHARGES>
28
1 -0.57
10 0.57
11 -0.15
12 -0.15
13 0.57
14 0.36
15 -0.15
16 -0.15
17 -0.15
18 0.06
19 0.57
2 -0.57
23 0.37
24 0.15
25 0.15
26 0.37
29 0.15
3 -0.57
30 0.15
31 0.15
35 0.37
36 0.37
4 -0.73
5 -0.73
6 -0.8
7 0.36
8 0.14
9 -0.14

> <PUBCHEM_EFFECTIVE_ROTOR_COUNT>
8

> <PUBCHEM_PHARMACOPHORE_FEATURES>
7
1 1 acceptor
1 2 acceptor
1 3 acceptor
1 4 donor
1 5 donor
1 6 donor
6 9 11 12 15 16 17 rings

> <PUBCHEM_HEAVY_ATOM_COUNT>
19

> <PUBCHEM_ATOM_DEF_STEREO_COUNT>
1

> <PUBCHEM_ATOM_UDEF_STEREO_COUNT>
0

> <PUBCHEM_BOND_DEF_STEREO_COUNT>
0

> <PUBCHEM_BOND_UDEF_STEREO_COUNT>
0

> <PUBCHEM_ISOTOPIC_ATOM_COUNT>
0

> <PUBCHEM_COMPONENT_COUNT>
1

> <PUBCHEM_CACTVS_TAUTO_COUNT>
8

> <PUBCHEM_CONFORMER_ID>
0001DE9600000001

> <PUBCHEM_MMFF94_ENERGY>
42.2999

> <PUBCHEM_FEATURE_SELFOVERLAP>
35.522

> <PUBCHEM_SHAPE_FINGERPRINT>
11045515 52 18260267408450489356
12173636 292 17331114993288884276
12553582 1 18335694993191074227
12841375 25 18409728456704932983
13149001 5 17822866397158970619
13533116 47 18055630866662764415
13544653 18 17989197140559697087
14251757 5 18117270351218673797
15502722 9 18119245310177238341
17357779 13 18267282275556116476
17492 54 18043264611802593060
1813 80 18410863139645809711
18785283 64 18046628077336700869
20388580 30 18411982498496789055
20645477 70 18192416684083158311
20671657 53 18334571343714959491
20693207 138 17749669714055500723
20871999 31 18261952934343494319
221490 88 18190182480302202339
23402539 116 18261954021271108250
23419403 2 17752730715540597324
23557571 272 18196647402641416252
23559900 14 18338788022684574641
314173 41 18408885152672062283
458136 41 17759256467438281417
5104073 3 17844803690591581394
621550 5 17917431965496929232
6442390 28 17189264794486346344
6443956 14 18410290328363613260
7364860 26 18267019651254145017
81228 2 18046350725708209040
9709674 26 18118119406255471211
9841814 1 18114449150040975289

> <PUBCHEM_SHAPE_MULTIPOLES>
358.46
8.66
3.87
1.05
4.63
4.87
0.11
-8.87
0.01
-0.79
0.75
-0.19
0.18
0.56

> <PUBCHEM_SHAPE_SELFOVERLAP>
729.393

> <PUBCHEM_SHAPE_VOLUME>
206.6

> <PUBCHEM_COORDINATE_TYPE>
2
5
10

$$$$
