122633
  -OEChem-03292013323D

 34 33  0     0  0  0  0  0  0999 V2000
    1.5356    0.2379   -0.0369 N   0  0  0  0  0  0  0  0  0  0  0  0
   -1.5137   -0.2480   -0.0518 N   0  0  0  0  0  0  0  0  0  0  0  0
    2.7970   -0.3431   -0.0111 N   0  0  0  0  0  0  0  0  0  0  0  0
   -2.7750    0.3319   -0.0062 N   0  0  0  0  0  0  0  0  0  0  0  0
    4.9369   -0.1209   -1.0677 N   0  0  0  0  0  0  0  0  0  0  0  0
    3.2165    1.2676   -1.6468 N   0  0  0  0  0  0  0  0  0  0  0  0
   -4.8925    0.2441   -0.9831 N   0  0  0  0  0  0  0  0  0  0  0  0
   -3.3115   -1.2120   -1.7596 N   0  0  0  0  0  0  0  0  0  0  0  0
    0.9607   -1.4662    1.7249 C   0  0  0  0  0  0  0  0  0  0  0  0
   -0.9441    1.3823    1.7801 C   0  0  0  0  0  0  0  0  0  0  0  0
    0.7045   -0.3078    0.7921 C   0  0  0  0  0  0  0  0  0  0  0  0
   -0.6851    0.2629    0.8016 C   0  0  0  0  0  0  0  0  0  0  0  0
    0.6185   -2.7839    1.0537 C   0  0  0  0  0  0  0  0  0  0  0  0
   -0.6724    2.7312    1.1392 C   0  0  0  0  0  0  0  0  0  0  0  0
    3.6208    0.2212   -0.8540 C   0  0  0  0  0  0  0  0  0  0  0  0
   -3.5961   -0.1970   -0.8745 C   0  0  0  0  0  0  0  0  0  0  0  0
    2.0044   -1.4663    2.0533 H   0  0  0  0  0  0  0  0  0  0  0  0
    0.3463   -1.3397    2.6233 H   0  0  0  0  0  0  0  0  0  0  0  0
   -0.2939    1.2503    2.6519 H   0  0  0  0  0  0  0  0  0  0  0  0
   -1.9754    1.3335    2.1433 H   0  0  0  0  0  0  0  0  0  0  0  0
   -0.4392   -2.8244    0.7743 H   0  0  0  0  0  0  0  0  0  0  0  0
    0.8230   -3.6196    1.7299 H   0  0  0  0  0  0  0  0  0  0  0  0
    1.2087   -2.9275    0.1426 H   0  0  0  0  0  0  0  0  0  0  0  0
    0.3698    2.8120    0.8138 H   0  0  0  0  0  0  0  0  0  0  0  0
   -0.8697    3.5377    1.8521 H   0  0  0  0  0  0  0  0  0  0  0  0
   -1.3072    2.8874    0.2610 H   0  0  0  0  0  0  0  0  0  0  0  0
    5.3718   -0.8776   -0.5511 H   0  0  0  0  0  0  0  0  0  0  0  0
    5.5092    0.3722   -1.7442 H   0  0  0  0  0  0  0  0  0  0  0  0
    3.8505    1.7104   -2.3029 H   0  0  0  0  0  0  0  0  0  0  0  0
    2.2702    1.6294   -1.5976 H   0  0  0  0  0  0  0  0  0  0  0  0
   -5.2436    0.9899   -0.3921 H   0  0  0  0  0  0  0  0  0  0  0  0
   -5.5359   -0.1617   -1.6536 H   0  0  0  0  0  0  0  0  0  0  0  0
   -2.3910   -1.6365   -1.7915 H   0  0  0  0  0  0  0  0  0  0  0  0
   -4.0114   -1.5655   -2.4028 H   0  0  0  0  0  0  0  0  0  0  0  0
  1  3  1  0  0  0  0
  1 11  2  3  0  0  0
  2  4  1  0  0  0  0
  2 12  2  3  0  0  0
  3 15  2  0  0  0  0
  4 16  2  0  0  0  0
  5 15  1  0  0  0  0
  5 27  1  0  0  0  0
  5 28  1  0  0  0  0
  6 15  1  0  0  0  0
  6 29  1  0  0  0  0
  6 30  1  0  0  0  0
  7 16  1  0  0  0  0
  7 31  1  0  0  0  0
  7 32  1  0  0  0  0
  8 16  1  0  0  0  0
  8 33  1  0  0  0  0
  8 34  1  0  0  0  0
  9 11  1  0  0  0  0
  9 13  1  0  0  0  0
  9 17  1  0  0  0  0
  9 18  1  0  0  0  0
 10 12  1  0  0  0  0
 10 14  1  0  0  0  0
 10 19  1  0  0  0  0
 10 20  1  0  0  0  0
 11 12  1  0  0  0  0
 13 21  1  0  0  0  0
 13 22  1  0  0  0  0
 13 23  1  0  0  0  0
 14 24  1  0  0  0  0
 14 25  1  0  0  0  0
 14 26  1  0  0  0  0
M  END
> <PUBCHEM_COMPOUND_CID>
122633

> <PUBCHEM_CONFORMER_RMSD>
0.6

> <PUBCHEM_CONFORMER_DIVERSEORDER>
1
11
30
20
32
10
7
15
24
18
9
31
35
34
8
13
29
19
14
17
2
27
12
21
33
26
28
6
25
16
22
4
3
23
5

> <PUBCHEM_MMFF94_PARTIAL_CHARGES>
22
1 -0.45
10 0.06
11 0.39
12 0.39
15 0.55
16 0.55
2 -0.45
27 0.4
28 0.4
29 0.4
3 -0.45
30 0.4
31 0.4
32 0.4
33 0.4
34 0.4
4 -0.45
5 -0.85
6 -0.85
7 -0.85
8 -0.85
9 0.06

> <PUBCHEM_EFFECTIVE_ROTOR_COUNT>
5

> <PUBCHEM_PHARMACOPHORE_FEATURES>
10
1 1 acceptor
1 13 hydrophobe
1 14 hydrophobe
1 2 acceptor
1 5 donor
1 6 donor
1 7 donor
1 8 donor
4 3 5 6 15 cation
4 4 7 8 16 cation

> <PUBCHEM_HEAVY_ATOM_COUNT>
16

> <PUBCHEM_ATOM_DEF_STEREO_COUNT>
0

> <PUBCHEM_ATOM_UDEF_STEREO_COUNT>
0

> <PUBCHEM_BOND_DEF_STEREO_COUNT>
0

> <PUBCHEM_BOND_UDEF_STEREO_COUNT>
2

> <PUBCHEM_ISOTOPIC_ATOM_COUNT>
0

> <PUBCHEM_COMPONENT_COUNT>
1

> <PUBCHEM_CACTVS_TAUTO_COUNT>
5

> <PUBCHEM_CONFORMER_ID>
0001DF0900000001

> <PUBCHEM_MMFF94_ENERGY>
40.1764

> <PUBCHEM_FEATURE_SELFOVERLAP>
50.856

> <PUBCHEM_SHAPE_FINGERPRINT>
10014705 185 17532387546410701732
10465860 71 17989200477991872661
10756046 5 18122907521031142367
10756046 70 17473552347614886753
12119455 92 16950277425574331478
122479 349 14923952283616469940
12616999 72 18187914072103158515
12633257 1 11891613602448783452
12824470 246 15554180176678502654
14445660 50 10809636956126872372
15422964 175 13110698120256778676
17041 50 17917413364062479365
18186145 218 18261395597680304584
187816 3 18411423925093897840
18915476 22 17386577847048426603
192875 21 18334293146114956048
19784866 140 18343585114338345323
19786989 88 17313370202676714187
20374829 77 16988840575262097615
20388580 30 17559669723645285573
20711985 344 17631731548268074985
20871999 31 18060417980816875669
21499 59 17821729450606785086
22620623 9 17059509434569878905
228727 97 18412830152989217769
23382010 3 18116990185678908387
23402539 116 18341625801887078032
23419403 2 17834132105129518809
23500284 214 14707213214217458837
23557571 272 17203035310335512440
23598291 2 17977668610633903243
266924 1 18194965140833567154
3250762 1 17546164563601267459
603831 33 18341048510610587618
81539 233 16877938317704813250

> <PUBCHEM_SHAPE_MULTIPOLES>
289.42
7.52
2.15
1.79
0.11
0.08
-0.04
-0.16
6.48
0.01
-1.25
-0.06
-0.01
-1.5

> <PUBCHEM_SHAPE_SELFOVERLAP>
558.105

> <PUBCHEM_SHAPE_VOLUME>
172

> <PUBCHEM_COORDINATE_TYPE>
2
5
10

$$$$
