122619
  -OEChem-03292013323D

 31 33  0     1  0  0  0  0  0999 V2000
    3.3358    2.0837   -0.4230 F   0  0  0  0  0  0  0  0  0  0  0  0
    2.0025   -0.5183   -0.9444 O   0  0  0  0  0  0  0  0  0  0  0  0
    1.2152    2.2760    1.1696 O   0  0  0  0  0  0  0  0  0  0  0  0
    3.8241   -2.5784   -0.3888 O   0  0  0  0  0  0  0  0  0  0  0  0
   -0.2118   -0.2592   -0.1334 N   0  0  0  0  0  0  0  0  0  0  0  0
   -1.6355   -1.8935    0.3971 N   0  0  0  0  0  0  0  0  0  0  0  0
   -1.7872    1.5420   -0.5534 N   0  0  0  0  0  0  0  0  0  0  0  0
   -4.0897    0.8026   -0.2257 N   0  0  0  0  0  0  0  0  0  0  0  0
   -4.6406   -1.4322    0.4293 N   0  0  0  0  0  0  0  0  0  0  0  0
    1.0577    0.4169   -0.3884 C   0  0  1  0  0  0  0  0  0  0  0  0
    1.7140    0.9923    0.8559 C   0  0  1  0  0  0  0  0  0  0  0  0
    3.1616    1.0299    0.4270 C   0  0  1  0  0  0  0  0  0  0  0  0
    3.3071   -0.2462   -0.3847 C   0  0  1  0  0  0  0  0  0  0  0  0
    3.7278   -1.4433    0.4544 C   0  0  0  0  0  0  0  0  0  0  0  0
   -1.4636    0.2838   -0.2190 C   0  0  0  0  0  0  0  0  0  0  0  0
   -0.3691   -1.5692    0.2395 C   0  0  0  0  0  0  0  0  0  0  0  0
   -2.3306   -0.7447    0.1137 C   0  0  0  0  0  0  0  0  0  0  0  0
   -3.6902   -0.4494    0.1032 C   0  0  0  0  0  0  0  0  0  0  0  0
   -3.1276    1.7072   -0.5290 C   0  0  0  0  0  0  0  0  0  0  0  0
    0.8640    1.1870   -1.1454 H   0  0  0  0  0  0  0  0  0  0  0  0
    1.5803    0.3329    1.7216 H   0  0  0  0  0  0  0  0  0  0  0  0
    3.8755    1.1456    1.2460 H   0  0  0  0  0  0  0  0  0  0  0  0
    3.9947   -0.1125   -1.2267 H   0  0  0  0  0  0  0  0  0  0  0  0
    2.9995   -1.6730    1.2385 H   0  0  0  0  0  0  0  0  0  0  0  0
    4.7038   -1.2755    0.9192 H   0  0  0  0  0  0  0  0  0  0  0  0
    1.7548    2.6285    1.8976 H   0  0  0  0  0  0  0  0  0  0  0  0
    0.4677   -2.2382    0.3868 H   0  0  0  0  0  0  0  0  0  0  0  0
    2.9521   -2.7148   -0.7973 H   0  0  0  0  0  0  0  0  0  0  0  0
   -3.4834    2.6989   -0.7871 H   0  0  0  0  0  0  0  0  0  0  0  0
   -5.6227   -1.1932    0.4146 H   0  0  0  0  0  0  0  0  0  0  0  0
   -4.3449   -2.3672    0.6752 H   0  0  0  0  0  0  0  0  0  0  0  0
  1 12  1  0  0  0  0
  2 10  1  0  0  0  0
  2 13  1  0  0  0  0
  3 11  1  0  0  0  0
  3 26  1  0  0  0  0
  4 14  1  0  0  0  0
  4 28  1  0  0  0  0
  5 10  1  0  0  0  0
  5 15  1  0  0  0  0
  5 16  1  0  0  0  0
  6 16  2  0  0  0  0
  6 17  1  0  0  0  0
  7 15  2  0  0  0  0
  7 19  1  0  0  0  0
  8 18  1  0  0  0  0
  8 19  2  0  0  0  0
  9 18  1  0  0  0  0
  9 30  1  0  0  0  0
  9 31  1  0  0  0  0
 10 11  1  0  0  0  0
 10 20  1  0  0  0  0
 11 12  1  0  0  0  0
 11 21  1  0  0  0  0
 12 13  1  0  0  0  0
 12 22  1  0  0  0  0
 13 14  1  0  0  0  0
 13 23  1  0  0  0  0
 14 24  1  0  0  0  0
 14 25  1  0  0  0  0
 15 17  1  0  0  0  0
 16 27  1  0  0  0  0
 17 18  2  0  0  0  0
 19 29  1  0  0  0  0
M  END
> <PUBCHEM_COMPOUND_CID>
122619

> <PUBCHEM_CONFORMER_RMSD>
0.6

> <PUBCHEM_CONFORMER_DIVERSEORDER>
1
12
14
8
6
7
11
4
2
10
13
5
15
9
3

> <PUBCHEM_MMFF94_PARTIAL_CHARGES>
25
1 -0.34
10 0.54
11 0.28
12 0.34
13 0.28
14 0.28
15 0.11
16 0.04
17 0.23
18 0.41
19 0.47
2 -0.56
26 0.4
27 0.15
28 0.4
29 0.15
3 -0.68
30 0.4
31 0.4
4 -0.68
5 0.05
6 -0.57
7 -0.57
8 -0.62
9 -0.9

> <PUBCHEM_EFFECTIVE_ROTOR_COUNT>
3

> <PUBCHEM_PHARMACOPHORE_FEATURES>
13
1 2 acceptor
1 3 acceptor
1 3 donor
1 4 acceptor
1 4 donor
1 9 cation
1 9 donor
3 5 6 16 cation
3 5 7 15 cation
3 7 8 19 cation
5 2 10 11 12 13 rings
5 5 6 15 16 17 rings
6 7 8 15 17 18 19 rings

> <PUBCHEM_HEAVY_ATOM_COUNT>
19

> <PUBCHEM_ATOM_DEF_STEREO_COUNT>
4

> <PUBCHEM_ATOM_UDEF_STEREO_COUNT>
0

> <PUBCHEM_BOND_DEF_STEREO_COUNT>
0

> <PUBCHEM_BOND_UDEF_STEREO_COUNT>
0

> <PUBCHEM_ISOTOPIC_ATOM_COUNT>
0

> <PUBCHEM_COMPONENT_COUNT>
1

> <PUBCHEM_CACTVS_TAUTO_COUNT>
3

> <PUBCHEM_CONFORMER_ID>
0001DEFB00000001

> <PUBCHEM_MMFF94_ENERGY>
40.1586

> <PUBCHEM_FEATURE_SELFOVERLAP>
66.58

> <PUBCHEM_SHAPE_FINGERPRINT>
10608611 8 18411133670951183805
1100329 8 16538483584441923962
12403259 226 18410851058150816709
12403259 415 18334010571426222693
13134695 92 17703211924503034928
13581323 91 18333729151993637501
13675066 3 18271796891937890818
14866123 147 16902156994179188194
15196674 1 18408885135718546085
15219456 202 18341610434024640021
15442244 35 18339080380829000744
15536298 74 18409727352777213530
15653759 3 18408602573761785665
16945 1 18124021588461469888
17804303 29 18336268950697158655
18186145 218 18343027657336761789
19049666 15 18411979165486168424
19591789 44 18408885118507567675
200 152 17704062985188936933
20510252 161 18410576210498749473
20645477 70 18272374170060740190
21267235 1 18408330981568392914
21501502 16 18341044228675899558
23402539 116 18338508751168875575
23559900 14 18410571769428393924
3004659 81 17970355811403582014
3286 77 18413385432283892629
335352 9 18193555571501397957
474 4 16083070726237080716
5104073 3 18409730655759818385
633830 44 18260259738002655079
69090 78 18272366516428986103
7364860 26 18411419540354327182
77779 3 18408042909437155813
81228 2 17971466558058519235
9709674 26 18408045134315137338

> <PUBCHEM_SHAPE_MULTIPOLES>
341.22
8.11
2.3
0.82
1.81
0.07
0.06
1.54
-0.11
-0.97
0.17
-0.27
-0.16
0.79

> <PUBCHEM_SHAPE_SELFOVERLAP>
745.587

> <PUBCHEM_SHAPE_VOLUME>
187.6

> <PUBCHEM_COORDINATE_TYPE>
2
5
10

$$$$
