122659
  -OEChem-03292013323D

 60 61  0     0  0  0  0  0  0999 V2000
   -1.8290   -1.7977    2.1336 O   0  0  0  0  0  0  0  0  0  0  0  0
    0.7839   -1.8237    1.3215 O   0  0  0  0  0  0  0  0  0  0  0  0
    1.0241    2.9457    1.1758 O   0  0  0  0  0  0  0  0  0  0  0  0
   -1.3855    2.4498   -0.0080 O   0  0  0  0  0  0  0  0  0  0  0  0
    4.5640    0.3124   -0.6718 O   0  0  0  0  0  0  0  0  0  0  0  0
   -4.8375   -0.5687   -1.3686 O   0  0  0  0  0  0  0  0  0  0  0  0
    4.3199    3.4056    0.6446 O   0  0  0  0  0  0  0  0  0  0  0  0
   -4.4282    2.7757   -1.4209 O   0  0  0  0  0  0  0  0  0  0  0  0
   -0.4302    0.6511    1.9488 C   0  0  0  0  0  0  0  0  0  0  0  0
    0.8916    0.5627    1.2546 C   0  0  0  0  0  0  0  0  0  0  0  0
   -1.6103    0.3249    1.0586 C   0  0  0  0  0  0  0  0  0  0  0  0
    2.6738   -0.7558    0.3232 C   0  0  0  0  0  0  0  0  0  0  0  0
    1.4463   -0.6847    0.9679 C   0  0  0  0  0  0  0  0  0  0  0  0
    1.5697    1.7271    0.8940 C   0  0  0  0  0  0  0  0  0  0  0  0
   -2.2516   -0.8950    1.2020 C   0  0  0  0  0  0  0  0  0  0  0  0
    2.8024    1.6442    0.2467 C   0  0  0  0  0  0  0  0  0  0  0  0
   -2.0283    1.2525    0.1179 C   0  0  0  0  0  0  0  0  0  0  0  0
    3.3572    0.3969   -0.0400 C   0  0  0  0  0  0  0  0  0  0  0  0
   -3.3400   -1.1953    0.3830 C   0  0  0  0  0  0  0  0  0  0  0  0
    3.2741   -2.1047    0.0147 C   0  0  0  0  0  0  0  0  0  0  0  0
   -3.1167    0.9521   -0.7012 C   0  0  0  0  0  0  0  0  0  0  0  0
   -3.7725   -0.2718   -0.5688 C   0  0  0  0  0  0  0  0  0  0  0  0
   -4.0430   -2.5077    0.5253 C   0  0  0  0  0  0  0  0  0  0  0  0
    3.5114    2.8621   -0.1304 C   0  0  0  0  0  0  0  0  0  0  0  0
    2.8567   -2.6216   -1.3332 C   0  0  0  0  0  0  0  0  0  0  0  0
   -3.5693    1.9179   -1.6965 C   0  0  0  0  0  0  0  0  0  0  0  0
    2.1741   -3.7486   -1.6121 C   0  0  0  0  0  0  0  0  0  0  0  0
    3.2702    3.4957   -1.4937 C   0  0  0  0  0  0  0  0  0  0  0  0
   -2.9915    1.8912   -3.1050 C   0  0  0  0  0  0  0  0  0  0  0  0
   -2.4146   -1.7105    3.4301 C   0  0  0  0  0  0  0  0  0  0  0  0
    1.7866   -4.2102   -2.9883 C   0  0  0  0  0  0  0  0  0  0  0  0
    1.7420   -4.6715   -0.5036 C   0  0  0  0  0  0  0  0  0  0  0  0
   -0.5952    1.6449    2.3865 H   0  0  0  0  0  0  0  0  0  0  0  0
   -0.3903    0.0107    2.8376 H   0  0  0  0  0  0  0  0  0  0  0  0
    4.3705   -2.0544    0.0377 H   0  0  0  0  0  0  0  0  0  0  0  0
    3.0691   -2.7867    0.8432 H   0  0  0  0  0  0  0  0  0  0  0  0
   -4.4465   -2.8551   -0.4318 H   0  0  0  0  0  0  0  0  0  0  0  0
   -3.3671   -3.2982    0.8681 H   0  0  0  0  0  0  0  0  0  0  0  0
   -4.8678   -2.4157    1.2390 H   0  0  0  0  0  0  0  0  0  0  0  0
    3.1547   -2.0030   -2.1792 H   0  0  0  0  0  0  0  0  0  0  0  0
    1.0435   -2.5570    0.7465 H   0  0  0  0  0  0  0  0  0  0  0  0
    1.6115    3.6634    0.8905 H   0  0  0  0  0  0  0  0  0  0  0  0
   -1.8040    2.9985   -0.6901 H   0  0  0  0  0  0  0  0  0  0  0  0
    4.6224   -0.5068   -1.1875 H   0  0  0  0  0  0  0  0  0  0  0  0
    2.5324    2.9187   -2.0584 H   0  0  0  0  0  0  0  0  0  0  0  0
    4.2086    3.5108   -2.0538 H   0  0  0  0  0  0  0  0  0  0  0  0
    2.8907    4.5113   -1.3559 H   0  0  0  0  0  0  0  0  0  0  0  0
   -2.2518    1.0913   -3.1998 H   0  0  0  0  0  0  0  0  0  0  0  0
   -2.5035    2.8471   -3.3113 H   0  0  0  0  0  0  0  0  0  0  0  0
   -3.7976    1.7113   -3.8207 H   0  0  0  0  0  0  0  0  0  0  0  0
   -5.0434    0.1713   -1.9614 H   0  0  0  0  0  0  0  0  0  0  0  0
   -2.4761   -0.6747    3.7797 H   0  0  0  0  0  0  0  0  0  0  0  0
   -1.7897   -2.2772    4.1260 H   0  0  0  0  0  0  0  0  0  0  0  0
   -3.4143   -2.1546    3.4200 H   0  0  0  0  0  0  0  0  0  0  0  0
    2.1058   -3.4980   -3.7563 H   0  0  0  0  0  0  0  0  0  0  0  0
    2.2503   -5.1757   -3.2140 H   0  0  0  0  0  0  0  0  0  0  0  0
    0.6995   -4.3164   -3.0622 H   0  0  0  0  0  0  0  0  0  0  0  0
    1.9263   -5.7112   -0.7997 H   0  0  0  0  0  0  0  0  0  0  0  0
    2.2656   -4.5445    0.4437 H   0  0  0  0  0  0  0  0  0  0  0  0
    0.6667   -4.5650   -0.3256 H   0  0  0  0  0  0  0  0  0  0  0  0
  1 15  1  0  0  0  0
  1 30  1  0  0  0  0
  2 13  1  0  0  0  0
  2 41  1  0  0  0  0
  3 14  1  0  0  0  0
  3 42  1  0  0  0  0
  4 17  1  0  0  0  0
  4 43  1  0  0  0  0
  5 18  1  0  0  0  0
  5 44  1  0  0  0  0
  6 22  1  0  0  0  0
  6 51  1  0  0  0  0
  7 24  2  0  0  0  0
  8 26  2  0  0  0  0
  9 10  1  0  0  0  0
  9 11  1  0  0  0  0
  9 33  1  0  0  0  0
  9 34  1  0  0  0  0
 10 13  1  0  0  0  0
 10 14  2  0  0  0  0
 11 15  2  0  0  0  0
 11 17  1  0  0  0  0
 12 13  2  0  0  0  0
 12 18  1  0  0  0  0
 12 20  1  0  0  0  0
 14 16  1  0  0  0  0
 15 19  1  0  0  0  0
 16 18  2  0  0  0  0
 16 24  1  0  0  0  0
 17 21  2  0  0  0  0
 19 22  2  0  0  0  0
 19 23  1  0  0  0  0
 20 25  1  0  0  0  0
 20 35  1  0  0  0  0
 20 36  1  0  0  0  0
 21 22  1  0  0  0  0
 21 26  1  0  0  0  0
 23 37  1  0  0  0  0
 23 38  1  0  0  0  0
 23 39  1  0  0  0  0
 24 28  1  0  0  0  0
 25 27  2  0  0  0  0
 25 40  1  0  0  0  0
 26 29  1  0  0  0  0
 27 31  1  0  0  0  0
 27 32  1  0  0  0  0
 28 45  1  0  0  0  0
 28 46  1  0  0  0  0
 28 47  1  0  0  0  0
 29 48  1  0  0  0  0
 29 49  1  0  0  0  0
 29 50  1  0  0  0  0
 30 52  1  0  0  0  0
 30 53  1  0  0  0  0
 30 54  1  0  0  0  0
 31 55  1  0  0  0  0
 31 56  1  0  0  0  0
 31 57  1  0  0  0  0
 32 58  1  0  0  0  0
 32 59  1  0  0  0  0
 32 60  1  0  0  0  0
M  END
> <PUBCHEM_COMPOUND_CID>
122659

> <PUBCHEM_CONFORMER_RMSD>
1

> <PUBCHEM_CONFORMER_DIVERSEORDER>
4
62
8
26
71
46
43
17
6
61
70
42
30
24
53
57
58
23
35
72
13
67
41
51
75
31
64
52
22
54
28
65
73
14
48
3
12
45
50
76
7
68
59
49
10
55
27
37
63
56
39
33
69
19
44
66
20
38
2
78
34
21
36
15
11
77
60
5
1
74
32
9
40
47
16
29
25
18

> <PUBCHEM_MMFF94_PARTIAL_CHARGES>
38
1 -0.36
10 -0.14
11 -0.14
12 -0.14
13 0.08
14 0.08
15 0.08
16 0.09
17 0.08
18 0.08
19 -0.14
2 -0.53
20 0.28
21 0.09
22 0.08
23 0.14
24 0.42
25 -0.29
26 0.42
27 -0.28
28 0.06
29 0.06
3 -0.53
30 0.28
31 0.14
32 0.14
4 -0.53
40 0.15
41 0.45
42 0.45
43 0.45
44 0.45
5 -0.53
51 0.45
6 -0.53
7 -0.57
8 -0.57
9 0.29

> <PUBCHEM_EFFECTIVE_ROTOR_COUNT>
7

> <PUBCHEM_PHARMACOPHORE_FEATURES>
11
1 1 acceptor
1 2 donor
1 3 donor
1 4 donor
1 5 donor
1 6 donor
1 7 acceptor
1 8 acceptor
3 27 31 32 hydrophobe
6 10 12 13 14 16 18 rings
6 11 15 17 19 21 22 rings

> <PUBCHEM_HEAVY_ATOM_COUNT>
32

> <PUBCHEM_ATOM_DEF_STEREO_COUNT>
0

> <PUBCHEM_ATOM_UDEF_STEREO_COUNT>
0

> <PUBCHEM_BOND_DEF_STEREO_COUNT>
0

> <PUBCHEM_BOND_UDEF_STEREO_COUNT>
0

> <PUBCHEM_ISOTOPIC_ATOM_COUNT>
0

> <PUBCHEM_COMPONENT_COUNT>
1

> <PUBCHEM_CACTVS_TAUTO_COUNT>
924

> <PUBCHEM_CONFORMER_ID>
0001DF2300000004

> <PUBCHEM_MMFF94_ENERGY>
117.1338

> <PUBCHEM_FEATURE_SELFOVERLAP>
55.829

> <PUBCHEM_SHAPE_FINGERPRINT>
11135926 11 18270692948442020046
11640471 11 14852149776360764321
11720765 8 17835781020589663820
12788726 201 16969441612710052454
13149001 5 18117284652989731457
13383661 66 16695557083956156031
13911987 19 18054798544328182128
14114206 34 17257686338194558966
14251757 17 18192988219306965127
14659021 117 17188132293652749478
16628084 112 16465601361210720623
17138139 8 16914232255681450934
19315092 285 16053460658593542767
20465049 17 17616251382496078637
21285901 2 18261670501963882787
21344244 181 17485117372315703526
22393880 68 18261108573953890168
22440779 20 17030841872325023705
23114952 82 18410014338133492625
23559900 14 18339069385770615728
238 59 18341041956628020654
26353 1 17903940859113853044
3493558 16 13340376504173304308
4280585 95 17907578026409930334
44802255 64 17538028122839937396
46194498 28 18408604764290046063
463206 1 17846199060735645303
5080951 261 17340120453577566964
550186 7 17678743564547547820
613672 6 17982165617840616750
7399639 24 18192711365546000115
9709674 26 18408601431400542867

> <PUBCHEM_SHAPE_MULTIPOLES>
611.59
8.65
5.42
2.61
2.95
2.91
-0.36
-2.18
-3.33
-5.55
-3.01
2.01
1.06
3.61

> <PUBCHEM_SHAPE_SELFOVERLAP>
1309.245

> <PUBCHEM_SHAPE_VOLUME>
340.6

> <PUBCHEM_COORDINATE_TYPE>
2
5
10

$$$$
