122652
  -OEChem-03292013323D

 33 34  0     1  0  0  0  0  0999 V2000
   -2.8315    1.8100   -0.4476 P   0  0  0  0  0  0  0  0  0  0  0  0
   -2.8493   -2.2421    1.4325 F   0  0  0  0  0  0  0  0  0  0  0  0
   -1.6327   -0.4184   -0.1578 O   0  0  0  0  0  0  0  0  0  0  0  0
   -3.1493    1.8457    1.1367 O   0  0  0  0  0  0  0  0  0  0  0  0
   -4.2199    2.2977   -1.1160 O   0  0  0  0  0  0  0  0  0  0  0  0
   -1.6169    2.5795   -0.8735 O   0  0  0  0  0  0  0  0  0  0  0  0
    1.0122   -1.5624   -0.0947 N   0  0  0  0  0  0  0  0  0  0  0  0
    2.8299   -1.1412   -1.2803 N   0  0  0  0  0  0  0  0  0  0  0  0
    1.0095    0.3437    1.4049 N   0  0  0  0  0  0  0  0  0  0  0  0
    2.9152    1.8015    0.9590 N   0  0  0  0  0  0  0  0  0  0  0  0
    4.5198    1.3309   -0.7530 N   0  0  0  0  0  0  0  0  0  0  0  0
   -1.4446   -1.8075   -0.3889 C   0  0  1  0  0  0  0  0  0  0  0  0
   -0.1904   -2.2599    0.3605 C   0  0  0  0  0  0  0  0  0  0  0  0
    1.5023   -0.4040    0.4061 C   0  0  0  0  0  0  0  0  0  0  0  0
   -2.6767   -2.5430    0.1152 C   0  0  0  0  0  0  0  0  0  0  0  0
    2.6389   -0.1540   -0.3463 C   0  0  0  0  0  0  0  0  0  0  0  0
    1.8279   -1.9759   -1.0988 C   0  0  0  0  0  0  0  0  0  0  0  0
   -2.7863    0.0711   -0.8281 C   0  0  0  0  0  0  0  0  0  0  0  0
    3.3553    0.9985   -0.0395 C   0  0  0  0  0  0  0  0  0  0  0  0
    1.7864    1.4296    1.6096 C   0  0  0  0  0  0  0  0  0  0  0  0
   -1.3128   -1.9824   -1.4642 H   0  0  0  0  0  0  0  0  0  0  0  0
   -0.2758   -2.0636    1.4361 H   0  0  0  0  0  0  0  0  0  0  0  0
   -0.0125   -3.3331    0.2258 H   0  0  0  0  0  0  0  0  0  0  0  0
   -3.6032   -2.3256   -0.4190 H   0  0  0  0  0  0  0  0  0  0  0  0
   -2.5249   -3.6257    0.0477 H   0  0  0  0  0  0  0  0  0  0  0  0
    1.6543   -2.8806   -1.6654 H   0  0  0  0  0  0  0  0  0  0  0  0
   -2.7086   -0.0906   -1.9074 H   0  0  0  0  0  0  0  0  0  0  0  0
   -3.7158   -0.3486   -0.4402 H   0  0  0  0  0  0  0  0  0  0  0  0
    1.4627    2.0960    2.4020 H   0  0  0  0  0  0  0  0  0  0  0  0
    4.8497    0.7339   -1.4993 H   0  0  0  0  0  0  0  0  0  0  0  0
    5.0225    2.1742   -0.5120 H   0  0  0  0  0  0  0  0  0  0  0  0
   -3.1939    2.7130    1.5926 H   0  0  0  0  0  0  0  0  0  0  0  0
   -4.4606    3.2475   -1.0713 H   0  0  0  0  0  0  0  0  0  0  0  0
  1  4  1  0  0  0  0
  1  5  1  0  0  0  0
  1  6  2  0  0  0  0
  1 18  1  0  0  0  0
  2 15  1  0  0  0  0
  3 12  1  0  0  0  0
  3 18  1  0  0  0  0
  4 32  1  0  0  0  0
  5 33  1  0  0  0  0
  7 13  1  0  0  0  0
  7 14  1  0  0  0  0
  7 17  1  0  0  0  0
  8 16  1  0  0  0  0
  8 17  2  0  0  0  0
  9 14  2  0  0  0  0
  9 20  1  0  0  0  0
 10 19  1  0  0  0  0
 10 20  2  0  0  0  0
 11 19  1  0  0  0  0
 11 30  1  0  0  0  0
 11 31  1  0  0  0  0
 12 13  1  0  0  0  0
 12 15  1  0  0  0  0
 12 21  1  0  0  0  0
 13 22  1  0  0  0  0
 13 23  1  0  0  0  0
 14 16  1  0  0  0  0
 15 24  1  0  0  0  0
 15 25  1  0  0  0  0
 16 19  2  0  0  0  0
 17 26  1  0  0  0  0
 18 27  1  0  0  0  0
 18 28  1  0  0  0  0
 20 29  1  0  0  0  0
M  END
> <PUBCHEM_COMPOUND_CID>
122652

> <PUBCHEM_CONFORMER_RMSD>
0.8

> <PUBCHEM_CONFORMER_DIVERSEORDER>
1
5
16
27
26
32
31
12
6
2
29
21
23
22
9
30
15
7
10
3
28
25
24
19
18
17
33
14
4
11
20
13
8

> <PUBCHEM_MMFF94_PARTIAL_CHARGES>
26
1 1.24
10 -0.62
11 -0.9
12 0.28
13 0.26
14 0.11
15 0.34
16 0.23
17 0.04
18 0.28
19 0.41
2 -0.34
20 0.47
26 0.15
29 0.15
3 -0.56
30 0.4
31 0.4
32 0.5
33 0.5
4 -0.77
5 -0.77
6 -0.7
7 0.05
8 -0.57
9 -0.57

> <PUBCHEM_EFFECTIVE_ROTOR_COUNT>
6

> <PUBCHEM_PHARMACOPHORE_FEATURES>
12
1 11 cation
1 11 donor
1 3 acceptor
1 4 acceptor
1 5 acceptor
1 6 acceptor
3 7 8 17 cation
3 7 9 14 cation
3 9 10 20 cation
4 1 4 5 6 anion
5 7 8 14 16 17 rings
6 9 10 14 16 19 20 rings

> <PUBCHEM_HEAVY_ATOM_COUNT>
20

> <PUBCHEM_ATOM_DEF_STEREO_COUNT>
0

> <PUBCHEM_ATOM_UDEF_STEREO_COUNT>
1

> <PUBCHEM_BOND_DEF_STEREO_COUNT>
0

> <PUBCHEM_BOND_UDEF_STEREO_COUNT>
0

> <PUBCHEM_ISOTOPIC_ATOM_COUNT>
0

> <PUBCHEM_COMPONENT_COUNT>
1

> <PUBCHEM_CACTVS_TAUTO_COUNT>
3

> <PUBCHEM_CONFORMER_ID>
0001DF1C00000001

> <PUBCHEM_MMFF94_ENERGY>
6.221

> <PUBCHEM_FEATURE_SELFOVERLAP>
61.541

> <PUBCHEM_SHAPE_FINGERPRINT>
10165383 225 17974028170800216525
10498660 4 18334287626860642885
10608611 8 18341611542200224382
12403259 226 17913205657379791778
128993 33 18193554471979532229
13294875 104 18119513350243468578
13464514 151 18271810077698408062
13764800 53 18333728044198309531
13965767 371 17241878800864995404
14251745 187 18341888610688143308
14386348 128 18339924792790010117
14957384 54 17386829639295294212
17357779 13 18126271181099886655
18219364 16 18339933593288471001
18981168 100 18334293141429507695
19049666 15 18413111653831106090
20510252 161 18336547234903733891
20600515 1 17243584384329937071
21524375 3 18121210988102549191
22182937 141 18341620304270943073
22802520 49 18343024388861452742
23114952 82 18201452341443023806
23557571 272 18264491869800942751
23559900 14 18200880544537889718
238 59 17774137081324468405
25 1 18272654502391085192
2748010 2 18342737446333378002
3524813 1 18057605567142349434
3797600 57 15793739579683748717
54672768 99 17685485460190166156
549884 4 17914602874396242437
6049 1 18271254901161337663
6287921 2 18053678150120766352
6442390 28 18335434434910940347
7808743 9 18259985980898059492
81228 2 18261396693451034915

> <PUBCHEM_SHAPE_MULTIPOLES>
359.78
6.98
3.26
1.31
0.09
0.18
-0.26
-3.79
1.34
-2.48
0.05
0.07
-0.23
1.53

> <PUBCHEM_SHAPE_SELFOVERLAP>
743.831

> <PUBCHEM_SHAPE_VOLUME>
209.2

> <PUBCHEM_COORDINATE_TYPE>
2
5
10

$$$$
