122647
  -OEChem-03292013323D

 36 37  0     1  0  0  0  0  0999 V2000
    0.9810   -0.7054    0.8497 O   0  0  0  0  0  0  0  0  0  0  0  0
    3.8019    2.0559   -0.4287 O   0  0  0  0  0  0  0  0  0  0  0  0
    3.8707   -0.6868   -1.4165 O   0  0  0  0  0  0  0  0  0  0  0  0
   -0.3150    0.7560   -0.4982 O   0  0  0  0  0  0  0  0  0  0  0  0
    2.3037    1.6374    1.8601 O   0  0  0  0  0  0  0  0  0  0  0  0
    1.0572   -3.3707    0.2506 O   0  0  0  0  0  0  0  0  0  0  0  0
   -5.7302   -0.3489    0.1189 N   0  0  0  0  0  0  0  0  0  0  0  0
    2.6690    1.1939   -0.4941 C   0  0  1  0  0  0  0  0  0  0  0  0
    3.0947   -0.2624   -0.2989 C   0  0  1  0  0  0  0  0  0  0  0  0
    1.6664    1.6154    0.5816 C   0  0  1  0  0  0  0  0  0  0  0  0
    1.8575   -1.1619   -0.1838 C   0  0  1  0  0  0  0  0  0  0  0  0
    0.5012    0.6304    0.6614 C   0  0  2  0  0  0  0  0  0  0  0  0
    2.2412   -2.6011    0.1485 C   0  0  0  0  0  0  0  0  0  0  0  0
   -1.6486    0.4840   -0.3452 C   0  0  0  0  0  0  0  0  0  0  0  0
   -2.0501   -0.7769    0.0826 C   0  0  0  0  0  0  0  0  0  0  0  0
   -2.5886    1.4710   -0.6206 C   0  0  0  0  0  0  0  0  0  0  0  0
   -3.4083   -1.0542    0.2366 C   0  0  0  0  0  0  0  0  0  0  0  0
   -3.9470    1.1935   -0.4664 C   0  0  0  0  0  0  0  0  0  0  0  0
   -4.3567   -0.0691   -0.0378 C   0  0  0  0  0  0  0  0  0  0  0  0
    2.2318    1.3233   -1.4911 H   0  0  0  0  0  0  0  0  0  0  0  0
    3.7248   -0.3429    0.5957 H   0  0  0  0  0  0  0  0  0  0  0  0
    1.3033    2.6292    0.3763 H   0  0  0  0  0  0  0  0  0  0  0  0
    1.3006   -1.1759   -1.1302 H   0  0  0  0  0  0  0  0  0  0  0  0
   -0.0858    0.8733    1.5578 H   0  0  0  0  0  0  0  0  0  0  0  0
    2.7576   -2.6538    1.1128 H   0  0  0  0  0  0  0  0  0  0  0  0
    2.8737   -3.0438   -0.6260 H   0  0  0  0  0  0  0  0  0  0  0  0
    4.2958    1.8479    0.3823 H   0  0  0  0  0  0  0  0  0  0  0  0
    4.3222   -1.5112   -1.1698 H   0  0  0  0  0  0  0  0  0  0  0  0
    2.9562    2.3578    1.8484 H   0  0  0  0  0  0  0  0  0  0  0  0
    1.3234   -4.2799    0.4694 H   0  0  0  0  0  0  0  0  0  0  0  0
   -1.3320   -1.5648    0.2842 H   0  0  0  0  0  0  0  0  0  0  0  0
   -2.2735    2.4556   -0.9545 H   0  0  0  0  0  0  0  0  0  0  0  0
   -3.7153   -2.0431    0.5675 H   0  0  0  0  0  0  0  0  0  0  0  0
   -4.6764    1.9698   -0.6832 H   0  0  0  0  0  0  0  0  0  0  0  0
   -6.4182    0.3648   -0.0811 H   0  0  0  0  0  0  0  0  0  0  0  0
   -6.0282   -1.2644    0.4285 H   0  0  0  0  0  0  0  0  0  0  0  0
  1 11  1  0  0  0  0
  1 12  1  0  0  0  0
  2  8  1  0  0  0  0
  2 27  1  0  0  0  0
  3  9  1  0  0  0  0
  3 28  1  0  0  0  0
  4 12  1  0  0  0  0
  4 14  1  0  0  0  0
  5 10  1  0  0  0  0
  5 29  1  0  0  0  0
  6 13  1  0  0  0  0
  6 30  1  0  0  0  0
  7 19  1  0  0  0  0
  7 35  1  0  0  0  0
  7 36  1  0  0  0  0
  8  9  1  0  0  0  0
  8 10  1  0  0  0  0
  8 20  1  0  0  0  0
  9 11  1  0  0  0  0
  9 21  1  0  0  0  0
 10 12  1  0  0  0  0
 10 22  1  0  0  0  0
 11 13  1  0  0  0  0
 11 23  1  0  0  0  0
 12 24  1  0  0  0  0
 13 25  1  0  0  0  0
 13 26  1  0  0  0  0
 14 15  2  0  0  0  0
 14 16  1  0  0  0  0
 15 17  1  0  0  0  0
 15 31  1  0  0  0  0
 16 18  2  0  0  0  0
 16 32  1  0  0  0  0
 17 19  2  0  0  0  0
 17 33  1  0  0  0  0
 18 19  1  0  0  0  0
 18 34  1  0  0  0  0
M  END
> <PUBCHEM_COMPOUND_CID>
122647

> <PUBCHEM_CONFORMER_RMSD>
0.6

> <PUBCHEM_CONFORMER_DIVERSEORDER>
1
26
31
22
30
27
10
36
33
12
18
2
35
28
15
16
23
5
24
25
21
32
6
3
8
11
7
29
37
17
13
34
9
20
4
14
19

> <PUBCHEM_MMFF94_PARTIAL_CHARGES>
29
1 -0.56
10 0.28
11 0.28
12 0.56
13 0.28
14 0.08
15 -0.15
16 -0.15
17 -0.15
18 -0.15
19 0.1
2 -0.68
27 0.4
28 0.4
29 0.4
3 -0.68
30 0.4
31 0.15
32 0.15
33 0.15
34 0.15
35 0.4
36 0.4
4 -0.36
5 -0.68
6 -0.68
7 -0.9
8 0.28
9 0.28

> <PUBCHEM_EFFECTIVE_ROTOR_COUNT>
4.2

> <PUBCHEM_PHARMACOPHORE_FEATURES>
14
1 1 acceptor
1 2 acceptor
1 2 donor
1 3 acceptor
1 3 donor
1 4 acceptor
1 5 acceptor
1 5 donor
1 6 acceptor
1 6 donor
1 7 cation
1 7 donor
6 1 8 9 10 11 12 rings
6 14 15 16 17 18 19 rings

> <PUBCHEM_HEAVY_ATOM_COUNT>
19

> <PUBCHEM_ATOM_DEF_STEREO_COUNT>
5

> <PUBCHEM_ATOM_UDEF_STEREO_COUNT>
0

> <PUBCHEM_BOND_DEF_STEREO_COUNT>
0

> <PUBCHEM_BOND_UDEF_STEREO_COUNT>
0

> <PUBCHEM_ISOTOPIC_ATOM_COUNT>
0

> <PUBCHEM_COMPONENT_COUNT>
1

> <PUBCHEM_CACTVS_TAUTO_COUNT>
1

> <PUBCHEM_CONFORMER_ID>
0001DF1700000001

> <PUBCHEM_MMFF94_ENERGY>
71.3224

> <PUBCHEM_FEATURE_SELFOVERLAP>
71.107

> <PUBCHEM_SHAPE_FINGERPRINT>
10366900 7 18335708243149111099
10498660 4 17749381530192226629
10608611 8 18335414647732778933
10616163 171 18336267937554771335
11471102 20 18413108376675697940
11615757 297 17989491814192246641
12616999 72 18186806859203089470
12730499 353 18335711563153699291
13533116 47 18343018866446029331
13675066 3 12535621692121697861
14617045 38 18335996311101386367
14866123 147 16325125543806564251
15375358 24 18113335340820459243
15375462 6 18409165498251403981
15442244 35 18051411773382893657
15502722 9 18408604734193541582
15536298 74 18411698790189838405
16945 1 18265060124386770280
17834074 16 18409731751023944343
1813 80 15840729404310535964
18186145 218 18411421691515997857
20281475 54 18339080363680604713
20600515 1 17107590914895936170
20645477 70 18201722838208843815
221490 88 18335428941125613578
2255824 54 18410292510517644924
23557571 272 17022900112733074789
23559900 14 18335132047279178565
2838139 119 16226915348858665054
2871803 45 18409169904645094111
3060560 45 18334015016775091148
3323516 105 18410859845295247191
33824 294 18408885148192270714
474 4 16154283852015375996
495365 180 18128232572193823793
5104073 3 18335420124142954265
543358 83 18268998583215844529
7364860 26 18339073800722903442
77779 3 18409168792675923157
81228 2 17188111930853446890
8272917 22 18341055129514016791
9709674 26 18333734589802555603

> <PUBCHEM_SHAPE_MULTIPOLES>
350.81
8.74
2.48
0.98
8.79
1.58
0.17
-0.57
-1.23
-2.27
0.23
-0.72
-0.29
0.6

> <PUBCHEM_SHAPE_SELFOVERLAP>
735.241

> <PUBCHEM_SHAPE_VOLUME>
195.4

> <PUBCHEM_COORDINATE_TYPE>
2
5
10

$$$$
