122678117
  -OEChem-03292013293D

 59 63  0     1  0  0  0  0  0999 V2000
   -1.3256   -1.6349   -2.2077 O   0  0  0  0  0  0  0  0  0  0  0  0
   -2.3334   -1.1386    2.3529 O   0  0  0  0  0  0  0  0  0  0  0  0
   -2.4345    1.8718   -2.2150 O   0  0  0  0  0  0  0  0  0  0  0  0
   -2.4597    0.1117    0.3635 N   0  0  0  0  0  0  0  0  0  0  0  0
   -1.9520    3.5958    0.9019 N   0  0  0  0  0  0  0  0  0  0  0  0
   -1.8113    3.2176    2.1795 N   0  0  0  0  0  0  0  0  0  0  0  0
   -2.4284    4.1277   -1.7665 N   0  0  0  0  0  0  0  0  0  0  0  0
    4.7045    1.3180    0.0943 N   0  0  0  0  0  0  0  0  0  0  0  0
    6.0190    1.3798    0.3677 N   0  0  0  0  0  0  0  0  0  0  0  0
   -1.4363   -2.8708   -0.1786 C   0  0  1  0  0  0  0  0  0  0  0  0
   -2.7585   -2.2533    0.2981 C   0  0  1  0  0  0  0  0  0  0  0  0
   -1.6530   -4.2238   -0.8640 C   0  0  0  0  0  0  0  0  0  0  0  0
   -3.5763   -3.2370    1.1416 C   0  0  0  0  0  0  0  0  0  0  0  0
   -3.7850   -4.5680    0.4278 C   0  0  0  0  0  0  0  0  0  0  0  0
   -2.4564   -5.1839    0.0061 C   0  0  0  0  0  0  0  0  0  0  0  0
   -0.7640   -1.9595   -1.1641 C   0  0  0  0  0  0  0  0  0  0  0  0
   -2.4902   -1.0396    1.1402 C   0  0  0  0  0  0  0  0  0  0  0  0
    0.6024   -1.4469   -0.8617 C   0  0  0  0  0  0  0  0  0  0  0  0
   -2.2352    1.4390    0.7995 C   0  0  0  0  0  0  0  0  0  0  0  0
   -2.2080    2.5769    0.0241 C   0  0  0  0  0  0  0  0  0  0  0  0
    1.4802   -2.2126   -0.0943 C   0  0  0  0  0  0  0  0  0  0  0  0
    1.0033   -0.2018   -1.3461 C   0  0  0  0  0  0  0  0  0  0  0  0
   -1.7708    4.9673    0.4742 C   0  0  0  0  0  0  0  0  0  0  0  0
   -1.9914    1.8943    2.1136 C   0  0  0  0  0  0  0  0  0  0  0  0
   -2.5683    5.2153   -0.8019 C   0  0  0  0  0  0  0  0  0  0  0  0
   -2.3692    2.7856   -1.3957 C   0  0  0  0  0  0  0  0  0  0  0  0
    2.7591   -1.7330    0.1886 C   0  0  0  0  0  0  0  0  0  0  0  0
    2.2823    0.2776   -1.0632 C   0  0  0  0  0  0  0  0  0  0  0  0
    3.1603   -0.4880   -0.2959 C   0  0  0  0  0  0  0  0  0  0  0  0
    4.4767    0.0055   -0.0038 C   0  0  0  0  0  0  0  0  0  0  0  0
    5.6364   -0.7646    0.2054 C   0  0  0  0  0  0  0  0  0  0  0  0
    6.6239    0.1596    0.4446 C   0  0  0  0  0  0  0  0  0  0  0  0
    8.0593    0.0126    0.7345 C   0  0  0  0  0  0  0  0  0  0  0  0
   -0.8157   -3.0250    0.7096 H   0  0  0  0  0  0  0  0  0  0  0  0
   -3.3747   -1.9705   -0.5667 H   0  0  0  0  0  0  0  0  0  0  0  0
   -4.5509   -2.7983    1.3897 H   0  0  0  0  0  0  0  0  0  0  0  0
   -3.0773   -3.4415    2.0982 H   0  0  0  0  0  0  0  0  0  0  0  0
   -0.6849   -4.6782   -1.1088 H   0  0  0  0  0  0  0  0  0  0  0  0
   -2.1782   -4.0898   -1.8190 H   0  0  0  0  0  0  0  0  0  0  0  0
   -4.4169   -4.4151   -0.4556 H   0  0  0  0  0  0  0  0  0  0  0  0
   -4.3198   -5.2606    1.0875 H   0  0  0  0  0  0  0  0  0  0  0  0
   -1.8731   -5.4473    0.8969 H   0  0  0  0  0  0  0  0  0  0  0  0
   -2.6390   -6.1142   -0.5433 H   0  0  0  0  0  0  0  0  0  0  0  0
   -2.6132    0.0287   -0.6386 H   0  0  0  0  0  0  0  0  0  0  0  0
    1.2201   -3.2011    0.2710 H   0  0  0  0  0  0  0  0  0  0  0  0
    0.3308    0.4090   -1.9425 H   0  0  0  0  0  0  0  0  0  0  0  0
   -0.6971    5.0981    0.3002 H   0  0  0  0  0  0  0  0  0  0  0  0
   -2.0919    5.6362    1.2784 H   0  0  0  0  0  0  0  0  0  0  0  0
   -1.9303    1.3280    3.0315 H   0  0  0  0  0  0  0  0  0  0  0  0
   -2.2552    6.1450   -1.2864 H   0  0  0  0  0  0  0  0  0  0  0  0
   -3.6376    5.2911   -0.5730 H   0  0  0  0  0  0  0  0  0  0  0  0
    3.4192   -2.3519    0.7912 H   0  0  0  0  0  0  0  0  0  0  0  0
    2.5677    1.2487   -1.4607 H   0  0  0  0  0  0  0  0  0  0  0  0
   -2.5374    4.3455   -2.7522 H   0  0  0  0  0  0  0  0  0  0  0  0
    5.7570   -1.8387    0.1825 H   0  0  0  0  0  0  0  0  0  0  0  0
    6.4398    2.2926    0.4899 H   0  0  0  0  0  0  0  0  0  0  0  0
    8.6626    0.5139   -0.0292 H   0  0  0  0  0  0  0  0  0  0  0  0
    8.3050    0.4486    1.7083 H   0  0  0  0  0  0  0  0  0  0  0  0
    8.3517   -1.0422    0.7551 H   0  0  0  0  0  0  0  0  0  0  0  0
  1 16  2  0  0  0  0
  2 17  2  0  0  0  0
  3 26  2  0  0  0  0
  4 17  1  0  0  0  0
  4 19  1  0  0  0  0
  4 44  1  0  0  0  0
  5  6  1  0  0  0  0
  5 20  1  0  0  0  0
  5 23  1  0  0  0  0
  6 24  2  0  0  0  0
  7 25  1  0  0  0  0
  7 26  1  0  0  0  0
  7 54  1  0  0  0  0
  8  9  1  0  0  0  0
  8 30  2  0  0  0  0
  9 32  1  0  0  0  0
  9 56  1  0  0  0  0
 10 11  1  0  0  0  0
 10 12  1  0  0  0  0
 10 16  1  0  0  0  0
 10 34  1  0  0  0  0
 11 13  1  0  0  0  0
 11 17  1  0  0  0  0
 11 35  1  0  0  0  0
 12 15  1  0  0  0  0
 12 38  1  0  0  0  0
 12 39  1  0  0  0  0
 13 14  1  0  0  0  0
 13 36  1  0  0  0  0
 13 37  1  0  0  0  0
 14 15  1  0  0  0  0
 14 40  1  0  0  0  0
 14 41  1  0  0  0  0
 15 42  1  0  0  0  0
 15 43  1  0  0  0  0
 16 18  1  0  0  0  0
 18 21  2  0  0  0  0
 18 22  1  0  0  0  0
 19 20  2  0  0  0  0
 19 24  1  0  0  0  0
 20 26  1  0  0  0  0
 21 27  1  0  0  0  0
 21 45  1  0  0  0  0
 22 28  2  0  0  0  0
 22 46  1  0  0  0  0
 23 25  1  0  0  0  0
 23 47  1  0  0  0  0
 23 48  1  0  0  0  0
 24 49  1  0  0  0  0
 25 50  1  0  0  0  0
 25 51  1  0  0  0  0
 27 29  2  0  0  0  0
 27 52  1  0  0  0  0
 28 29  1  0  0  0  0
 28 53  1  0  0  0  0
 29 30  1  0  0  0  0
 30 31  1  0  0  0  0
 31 32  2  0  0  0  0
 31 55  1  0  0  0  0
 32 33  1  0  0  0  0
 33 57  1  0  0  0  0
 33 58  1  0  0  0  0
 33 59  1  0  0  0  0
M  END
> <PUBCHEM_COMPOUND_CID>
122678117

> <PUBCHEM_CONFORMER_RMSD>
1

> <PUBCHEM_CONFORMER_DIVERSEORDER>
3
139
99
133
49
25
140
15
51
119
27
64
36
30
156
93
124
23
13
42
44
38
107
68
82
35
122
110
80
115
75
88
76
153
14
57
72
97
54
89
58
114
40
41
132
148
106
32
145
6
108
146
53
138
55
87
47
100
12
28
98
63
137
78
136
17
102
10
135
141
155
22
128
147
71
8
79
60
112
125
33
118
121
37
113
9
16
19
95
117
50
21
149
85
24
74
45
130
46
101
48
142
52
69
34
56
92
7
77
126
84
18
127
61
70
104
59
62
29
43
11
26
152
151
105
83
131
94
66
111
2
144
123
116
120
81
154
129
86
39
67
5
103
91
73
31
20
143
65
90
109
150
1
134
4
96

> <PUBCHEM_MMFF94_PARTIAL_CHARGES>
38
1 -0.57
10 0.06
11 0.06
16 0.42
17 0.57
18 0.09
19 0.06
2 -0.57
20 -0.24
21 -0.15
22 -0.15
23 0.26
24 0.14
25 0.3
26 0.71
27 -0.15
28 -0.15
29 0.05
3 -0.57
30 0.23
31 -0.15
32 -0.33
33 0.18
4 -0.49
44 0.37
45 0.15
46 0.15
49 0.15
5 0.31
52 0.15
53 0.15
54 0.37
55 0.15
56 0.27
6 -0.71
7 -0.73
8 -0.71
9 0.3

> <PUBCHEM_EFFECTIVE_ROTOR_COUNT>
7.8

> <PUBCHEM_PHARMACOPHORE_FEATURES>
13
1 1 acceptor
1 2 acceptor
1 3 acceptor
1 4 donor
1 6 acceptor
1 7 donor
1 8 acceptor
1 9 donor
5 5 6 19 20 24 rings
5 8 9 30 31 32 rings
6 10 11 12 13 14 15 rings
6 18 21 22 27 28 29 rings
6 5 7 20 23 25 26 rings

> <PUBCHEM_HEAVY_ATOM_COUNT>
33

> <PUBCHEM_ATOM_DEF_STEREO_COUNT>
2

> <PUBCHEM_ATOM_UDEF_STEREO_COUNT>
0

> <PUBCHEM_BOND_DEF_STEREO_COUNT>
0

> <PUBCHEM_BOND_UDEF_STEREO_COUNT>
0

> <PUBCHEM_ISOTOPIC_ATOM_COUNT>
0

> <PUBCHEM_COMPONENT_COUNT>
1

> <PUBCHEM_CACTVS_TAUTO_COUNT>
1001

> <PUBCHEM_CONFORMER_ID>
074FEB6500000003

> <PUBCHEM_MMFF94_ENERGY>
65.3148

> <PUBCHEM_FEATURE_SELFOVERLAP>
66.092

> <PUBCHEM_SHAPE_FINGERPRINT>
100830 39 18411980270173744488
10653451 467 18335712637634437185
10930396 42 18339908424421388379
11456790 92 18046079404931700227
12104220 1 18265893739190576194
12107183 9 18047462328349678602
12156800 1 17028203169141438181
12522641 24 16609161317891228929
12655364 131 17760616228531325706
12788726 201 18266998636301107855
14202776 33 18262257594102438428
14394314 77 17978240670303208201
14856354 85 18124607620234558246
15274700 34 17824009795712928769
15326921 28 18196074574717161368
15347590 135 17830155155204445392
15950262 2 15120731729600769971
16992779 147 16974788550140157368
19309040 13 16556515764069201920
20600515 1 18198082446000040287
21796203 349 17468799566833799883
22956985 138 17328863712659846147
23366157 5 17185882130173650295
23522609 53 17822872905432194516
25019877 29 17202787980708157055
3117164 225 18120648042739741442
3418910 222 18121223349525127988
3504750 166 18200870807668097566
376196 1 17758676650831667193
4409770 3 18408877443411130607
469060 322 18196111033945529050
6677587 24 16090042403151332997
7399639 24 17977971007171740569
9981440 41 18193558861414821609

> <PUBCHEM_SHAPE_MULTIPOLES>
631.63
11.56
7.61
1.74
35.09
3.55
0.04
-0.97
3.48
-14.56
-0.57
-1.71
0.95
0.97

> <PUBCHEM_SHAPE_SELFOVERLAP>
1385.784

> <PUBCHEM_SHAPE_VOLUME>
338.2

> <PUBCHEM_COORDINATE_TYPE>
2
5
10

$$$$
