122636
  -OEChem-03292013323D

 32 34  0     1  0  0  0  0  0999 V2000
   -2.0989   -0.2620    0.8883 O   0  0  0  0  0  0  0  0  0  0  0  0
   -3.4434    2.3809    0.0293 O   0  0  0  0  0  0  0  0  0  0  0  0
   -3.9637   -2.3192    0.5633 O   0  0  0  0  0  0  0  0  0  0  0  0
    0.1276   -0.1223    0.0816 N   0  0  0  0  0  0  0  0  0  0  0  0
    1.5183   -1.8249   -0.2776 N   0  0  0  0  0  0  0  0  0  0  0  0
    4.1056    0.7966    0.1176 N   0  0  0  0  0  0  0  0  0  0  0  0
    4.5043   -1.5180   -0.3203 N   0  0  0  0  0  0  0  0  0  0  0  0
   -1.1313    0.5930    0.2551 C   0  0  1  0  0  0  0  0  0  0  0  0
   -1.7593    1.0791   -1.0432 C   0  0  0  0  0  0  0  0  0  0  0  0
   -3.2208    1.1553   -0.6647 C   0  0  1  0  0  0  0  0  0  0  0  0
   -3.3925   -0.0151    0.2978 C   0  0  1  0  0  0  0  0  0  0  0  0
   -3.8422   -1.2898   -0.4026 C   0  0  0  0  0  0  0  0  0  0  0  0
    1.3924    0.4118    0.1372 C   0  0  0  0  0  0  0  0  0  0  0  0
    0.2594   -1.4630   -0.1687 C   0  0  0  0  0  0  0  0  0  0  0  0
    2.2387   -0.6688   -0.0895 C   0  0  0  0  0  0  0  0  0  0  0  0
    1.8530    1.7023    0.3585 C   0  0  0  0  0  0  0  0  0  0  0  0
    3.6168   -0.4504   -0.0951 C   0  0  0  0  0  0  0  0  0  0  0  0
    3.2358    1.8145    0.3330 C   0  0  0  0  0  0  0  0  0  0  0  0
   -0.9423    1.4236    0.9448 H   0  0  0  0  0  0  0  0  0  0  0  0
   -1.6174    0.3447   -1.8449 H   0  0  0  0  0  0  0  0  0  0  0  0
   -1.3315    2.0334   -1.3659 H   0  0  0  0  0  0  0  0  0  0  0  0
   -3.8971    1.1317   -1.5232 H   0  0  0  0  0  0  0  0  0  0  0  0
   -4.0774    0.2212    1.1201 H   0  0  0  0  0  0  0  0  0  0  0  0
   -3.1088   -1.6167   -1.1468 H   0  0  0  0  0  0  0  0  0  0  0  0
   -4.8123   -1.1479   -0.8888 H   0  0  0  0  0  0  0  0  0  0  0  0
   -0.5902   -2.1249   -0.2669 H   0  0  0  0  0  0  0  0  0  0  0  0
   -2.9608    2.3589    0.8724 H   0  0  0  0  0  0  0  0  0  0  0  0
    1.2014    2.5475    0.5328 H   0  0  0  0  0  0  0  0  0  0  0  0
   -4.2524   -3.1203    0.0937 H   0  0  0  0  0  0  0  0  0  0  0  0
    3.7053    2.7809    0.4939 H   0  0  0  0  0  0  0  0  0  0  0  0
    4.1504   -2.4516   -0.4795 H   0  0  0  0  0  0  0  0  0  0  0  0
    5.4995   -1.3405   -0.3203 H   0  0  0  0  0  0  0  0  0  0  0  0
  1  8  1  0  0  0  0
  1 11  1  0  0  0  0
  2 10  1  0  0  0  0
  2 27  1  0  0  0  0
  3 12  1  0  0  0  0
  3 29  1  0  0  0  0
  4  8  1  0  0  0  0
  4 13  1  0  0  0  0
  4 14  1  0  0  0  0
  5 14  2  0  0  0  0
  5 15  1  0  0  0  0
  6 17  2  0  0  0  0
  6 18  1  0  0  0  0
  7 17  1  0  0  0  0
  7 31  1  0  0  0  0
  7 32  1  0  0  0  0
  8  9  1  0  0  0  0
  8 19  1  0  0  0  0
  9 10  1  0  0  0  0
  9 20  1  0  0  0  0
  9 21  1  0  0  0  0
 10 11  1  0  0  0  0
 10 22  1  0  0  0  0
 11 12  1  0  0  0  0
 11 23  1  0  0  0  0
 12 24  1  0  0  0  0
 12 25  1  0  0  0  0
 13 15  2  0  0  0  0
 13 16  1  0  0  0  0
 14 26  1  0  0  0  0
 15 17  1  0  0  0  0
 16 18  2  0  0  0  0
 16 28  1  0  0  0  0
 18 30  1  0  0  0  0
M  END
> <PUBCHEM_COMPOUND_CID>
122636

> <PUBCHEM_CONFORMER_RMSD>
0.6

> <PUBCHEM_CONFORMER_DIVERSEORDER>
1
9
14
6
13
4
8
2
12
5
11
10
3
7

> <PUBCHEM_MMFF94_PARTIAL_CHARGES>
24
1 -0.56
10 0.28
11 0.28
12 0.28
13 -0.15
14 0.04
15 0.23
16 -0.15
17 0.41
18 0.16
2 -0.68
26 0.15
27 0.4
28 0.15
29 0.4
3 -0.68
30 0.15
31 0.4
32 0.4
4 0.05
5 -0.57
6 -0.62
7 -0.9
8 0.54

> <PUBCHEM_EFFECTIVE_ROTOR_COUNT>
3

> <PUBCHEM_PHARMACOPHORE_FEATURES>
11
1 1 acceptor
1 2 acceptor
1 2 donor
1 3 acceptor
1 3 donor
1 7 donor
3 4 5 14 cation
3 6 7 17 cation
5 1 8 9 10 11 rings
5 4 5 13 14 15 rings
6 6 13 15 16 17 18 rings

> <PUBCHEM_HEAVY_ATOM_COUNT>
18

> <PUBCHEM_ATOM_DEF_STEREO_COUNT>
3

> <PUBCHEM_ATOM_UDEF_STEREO_COUNT>
0

> <PUBCHEM_BOND_DEF_STEREO_COUNT>
0

> <PUBCHEM_BOND_UDEF_STEREO_COUNT>
0

> <PUBCHEM_ISOTOPIC_ATOM_COUNT>
0

> <PUBCHEM_COMPONENT_COUNT>
1

> <PUBCHEM_CACTVS_TAUTO_COUNT>
2

> <PUBCHEM_CONFORMER_ID>
0001DF0C00000001

> <PUBCHEM_MMFF94_ENERGY>
40.8312

> <PUBCHEM_FEATURE_SELFOVERLAP>
55.939

> <PUBCHEM_SHAPE_FINGERPRINT>
10608611 8 18409726244612464477
11405975 8 18338797818887941441
11471102 20 18341326704664976108
11615757 297 18060423529376175352
12032990 46 18412830162027499430
12403259 226 18410569621533575048
12403259 415 18342174505254974968
12500047 106 18190174599274441605
12916754 54 18341334465459740515
13296908 3 18411980256239127764
13675066 3 17989198231713291040
14289901 80 18334858341808642201
15196674 1 18411418406203509604
15219456 202 18409165502192917137
18175812 5 18335420153506033357
18186145 218 18131078129734938248
200 152 18060131055542049047
20645477 56 18189336775920182997
20645477 70 18130783408889118270
21267235 1 18412553106171515063
21501502 16 18335133151196426483
221490 88 18411423925104798074
23402539 116 17676199169580283892
23402655 69 18272086072054502852
23557571 272 18187080681001778845
23559900 14 18409721850850053016
25 1 18337669694362170916
2748010 2 18269280217612708246
2871803 45 18335412513297614999
3286 77 18409727382947349876
335352 9 18195808470731843348
4214541 1 18410855426069298673
4990 188 18202291277626244126
5104073 3 18412260627609561424
5283173 99 18115569518874024477
633830 44 17675928681404268276
77779 3 18411419513893673836
8809292 202 18334018280633952187
9709674 26 18408889567761208043

> <PUBCHEM_SHAPE_MULTIPOLES>
332.9
8.48
2.21
0.77
0.23
0.01
0.05
0.94
0.06
-0.63
-0.03
-0.33
-0.05
0.77

> <PUBCHEM_SHAPE_SELFOVERLAP>
724.288

> <PUBCHEM_SHAPE_VOLUME>
182.6

> <PUBCHEM_COORDINATE_TYPE>
2
5
10

$$$$
