122668
  -OEChem-03292013323D

 53 55  0     1  0  0  0  0  0999 V2000
    0.2077    3.4509   -1.8046 O   0  5  0  0  0  0  0  0  0  0  0  0
   -1.8846    3.1253   -1.2257 O   0  0  0  0  0  0  0  0  0  0  0  0
   -2.6030    1.2347    0.2222 N   0  0  3  0  0  0  0  0  0  0  0  0
   -0.6748    2.7995   -1.1986 N   0  3  0  0  0  0  0  0  0  0  0  0
    4.6939   -1.4523   -0.6170 N   0  0  0  0  0  0  0  0  0  0  0  0
    5.0388   -0.0867    1.3383 N   0  0  0  0  0  0  0  0  0  0  0  0
    3.2482    1.1356    2.2825 N   0  0  0  0  0  0  0  0  0  0  0  0
    6.8072   -1.3040    0.3916 N   0  0  0  0  0  0  0  0  0  0  0  0
   -1.2328    0.8885    0.2371 C   0  0  0  0  0  0  0  0  0  0  0  0
   -3.4803    0.7027   -0.7994 C   0  0  0  0  0  0  0  0  0  0  0  0
   -3.1458    2.1138    1.2366 C   0  0  0  0  0  0  0  0  0  0  0  0
    1.4601    0.1623    0.2969 C   0  0  0  0  0  0  0  0  0  0  0  0
   -0.2898    1.6492   -0.4540 C   0  0  0  0  0  0  0  0  0  0  0  0
   -0.8294   -0.2353    0.9583 C   0  0  0  0  0  0  0  0  0  0  0  0
    2.8565   -0.2158    0.3283 C   0  0  0  0  0  0  0  0  0  0  0  0
    1.0566    1.2862   -0.4241 C   0  0  0  0  0  0  0  0  0  0  0  0
   -3.9246   -0.6881   -0.4407 C   0  0  0  0  0  0  0  0  0  0  0  0
    0.5170   -0.5985    0.9880 C   0  0  0  0  0  0  0  0  0  0  0  0
    3.3990   -1.0733   -0.6078 C   0  0  0  0  0  0  0  0  0  0  0  0
   -3.4281    1.3342    2.5066 C   0  0  0  0  0  0  0  0  0  0  0  0
    2.5581   -1.6502   -1.7007 C   0  0  0  0  0  0  0  0  0  0  0  0
    3.7334    0.2503    1.2875 C   0  0  0  0  0  0  0  0  0  0  0  0
   -3.1724   -1.7777   -0.8605 C   0  0  0  0  0  0  0  0  0  0  0  0
   -5.0821   -0.8669    0.3057 C   0  0  0  0  0  0  0  0  0  0  0  0
    2.5501   -0.7721   -2.9477 C   0  0  0  0  0  0  0  0  0  0  0  0
   -3.5849   -3.0682   -0.5281 C   0  0  0  0  0  0  0  0  0  0  0  0
   -5.4945   -2.1572    0.6382 C   0  0  0  0  0  0  0  0  0  0  0  0
    5.4462   -0.9291    0.3698 C   0  0  0  0  0  0  0  0  0  0  0  0
   -4.7459   -3.2578    0.2213 C   0  0  0  0  0  0  0  0  0  0  0  0
   -2.9817    0.6881   -1.7781 H   0  0  0  0  0  0  0  0  0  0  0  0
   -4.3592    1.3448   -0.9427 H   0  0  0  0  0  0  0  0  0  0  0  0
   -2.4505    2.9324    1.4592 H   0  0  0  0  0  0  0  0  0  0  0  0
   -4.0737    2.5839    0.8901 H   0  0  0  0  0  0  0  0  0  0  0  0
   -1.5459   -0.8379    1.5098 H   0  0  0  0  0  0  0  0  0  0  0  0
    1.8112    1.8691   -0.9486 H   0  0  0  0  0  0  0  0  0  0  0  0
    0.8148   -1.4767    1.5560 H   0  0  0  0  0  0  0  0  0  0  0  0
   -4.0933    0.4853    2.3514 H   0  0  0  0  0  0  0  0  0  0  0  0
   -2.5061    0.9589    2.9614 H   0  0  0  0  0  0  0  0  0  0  0  0
   -3.9027    1.9917    3.2430 H   0  0  0  0  0  0  0  0  0  0  0  0
    2.9697   -2.6305   -1.9755 H   0  0  0  0  0  0  0  0  0  0  0  0
    1.5336   -1.8579   -1.3755 H   0  0  0  0  0  0  0  0  0  0  0  0
   -2.2705   -1.6446   -1.4514 H   0  0  0  0  0  0  0  0  0  0  0  0
   -5.6808   -0.0186    0.6253 H   0  0  0  0  0  0  0  0  0  0  0  0
    2.1175    0.2131   -2.7606 H   0  0  0  0  0  0  0  0  0  0  0  0
    1.9626   -1.2505   -3.7380 H   0  0  0  0  0  0  0  0  0  0  0  0
    3.5663   -0.6219   -3.3285 H   0  0  0  0  0  0  0  0  0  0  0  0
   -3.0029   -3.9252   -0.8542 H   0  0  0  0  0  0  0  0  0  0  0  0
   -6.4000   -2.3051    1.2192 H   0  0  0  0  0  0  0  0  0  0  0  0
   -5.0676   -4.2626    0.4794 H   0  0  0  0  0  0  0  0  0  0  0  0
    2.5566    0.7212    2.9010 H   0  0  0  0  0  0  0  0  0  0  0  0
    2.9349    2.0316    1.9195 H   0  0  0  0  0  0  0  0  0  0  0  0
    7.1602   -1.9350   -0.3145 H   0  0  0  0  0  0  0  0  0  0  0  0
    7.4122   -0.9375    1.1135 H   0  0  0  0  0  0  0  0  0  0  0  0
  1  4  1  0  0  0  0
  2  4  2  0  0  0  0
  3  9  1  0  0  0  0
  3 10  1  0  0  0  0
  3 11  1  0  0  0  0
  4 13  1  0  0  0  0
  5 19  1  0  0  0  0
  5 28  2  0  0  0  0
  6 22  2  0  0  0  0
  6 28  1  0  0  0  0
  7 22  1  0  0  0  0
  7 50  1  0  0  0  0
  7 51  1  0  0  0  0
  8 28  1  0  0  0  0
  8 52  1  0  0  0  0
  8 53  1  0  0  0  0
  9 13  2  0  0  0  0
  9 14  1  0  0  0  0
 10 17  1  0  0  0  0
 10 30  1  0  0  0  0
 10 31  1  0  0  0  0
 11 20  1  0  0  0  0
 11 32  1  0  0  0  0
 11 33  1  0  0  0  0
 12 15  1  0  0  0  0
 12 16  2  0  0  0  0
 12 18  1  0  0  0  0
 13 16  1  0  0  0  0
 14 18  2  0  0  0  0
 14 34  1  0  0  0  0
 15 19  2  0  0  0  0
 15 22  1  0  0  0  0
 16 35  1  0  0  0  0
 17 23  2  0  0  0  0
 17 24  1  0  0  0  0
 18 36  1  0  0  0  0
 19 21  1  0  0  0  0
 20 37  1  0  0  0  0
 20 38  1  0  0  0  0
 20 39  1  0  0  0  0
 21 25  1  0  0  0  0
 21 40  1  0  0  0  0
 21 41  1  0  0  0  0
 23 26  1  0  0  0  0
 23 42  1  0  0  0  0
 24 27  2  0  0  0  0
 24 43  1  0  0  0  0
 25 44  1  0  0  0  0
 25 45  1  0  0  0  0
 25 46  1  0  0  0  0
 26 29  2  0  0  0  0
 26 47  1  0  0  0  0
 27 29  1  0  0  0  0
 27 48  1  0  0  0  0
 29 49  1  0  0  0  0
M  CHG  2   1  -1   4   1
M  END
> <PUBCHEM_COMPOUND_CID>
122668

> <PUBCHEM_CONFORMER_RMSD>
0.8

> <PUBCHEM_CONFORMER_DIVERSEORDER>
2
10
11
25
5
24
14
3
23
20
1
21
13
17
15
27
19
4
12
6
26
16
8
7
18
22
9
28

> <PUBCHEM_MMFF94_PARTIAL_CHARGES>
37
1 -0.52
10 0.51
11 0.37
13 0.13
14 -0.15
16 -0.15
17 -0.14
18 -0.15
19 0.17
2 -0.52
21 0.14
22 0.41
23 -0.15
24 -0.15
26 -0.15
27 -0.15
28 0.72
29 -0.15
3 -0.84
34 0.15
35 0.15
36 0.15
4 0.91
42 0.15
43 0.15
47 0.15
48 0.15
49 0.15
5 -0.62
50 0.4
51 0.4
52 0.4
53 0.4
6 -0.62
7 -0.9
8 -0.9
9 0.1

> <PUBCHEM_EFFECTIVE_ROTOR_COUNT>
7

> <PUBCHEM_PHARMACOPHORE_FEATURES>
11
1 1 acceptor
1 1 anion
1 2 acceptor
1 25 hydrophobe
1 3 cation
1 7 donor
1 8 donor
4 5 6 8 28 cation
6 17 23 24 26 27 29 rings
6 5 6 15 19 22 28 rings
6 9 12 13 14 16 18 rings

> <PUBCHEM_HEAVY_ATOM_COUNT>
29

> <PUBCHEM_ATOM_DEF_STEREO_COUNT>
0

> <PUBCHEM_ATOM_UDEF_STEREO_COUNT>
0

> <PUBCHEM_BOND_DEF_STEREO_COUNT>
0

> <PUBCHEM_BOND_UDEF_STEREO_COUNT>
0

> <PUBCHEM_ISOTOPIC_ATOM_COUNT>
0

> <PUBCHEM_COMPONENT_COUNT>
1

> <PUBCHEM_CACTVS_TAUTO_COUNT>
17

> <PUBCHEM_CONFORMER_ID>
0001DF2C00000002

> <PUBCHEM_MMFF94_ENERGY>
132.6246

> <PUBCHEM_FEATURE_SELFOVERLAP>
55.901

> <PUBCHEM_SHAPE_FINGERPRINT>
10369192 42 17489020583055489112
11135609 12 18341055194022883491
11370993 144 17346326947032824363
12128747 34 17131001849834838945
12166972 35 17022901276548152174
12236239 1 16154003327080531176
12422481 6 17917424375873511910
12553582 1 17895205380395510969
12596599 1 18411430505205568901
13009979 54 18340495564163727465
133893 2 17752221723097895389
13544653 18 17988356070236218223
13583140 156 16486969557630951217
13782708 43 18341328895541798650
14178342 30 18271536312082440143
14294032 229 17387966466132136621
17349148 13 17385437713498580402
17492 89 18119811563229905851
17686467 74 18262232331257731864
17913733 40 15913322486254763566
1813 80 18335706091475984471
19141452 34 18340493253344753825
22122407 14 15913608354866454665
23402539 116 18040714723698523892
23557571 272 18340200795777893396
23559900 14 18130776871854084664
4073 2 18131355163884497490
4280585 95 18261664948138314639
469060 322 18260556610553192667
5080951 261 18195499581232329830
5104073 3 17917425389939396970
6371380 46 17124541003181958405
7471813 234 17675928694574189444
7495541 125 18272364270635428328
7970288 3 18262234533938437227

> <PUBCHEM_SHAPE_MULTIPOLES>
555.18
12.44
3.31
1.94
6.62
0.58
-0.41
-9.42
3.77
-3.93
-1.12
0.99
0.8
0.49

> <PUBCHEM_SHAPE_SELFOVERLAP>
1199.933

> <PUBCHEM_SHAPE_VOLUME>
301.7

> <PUBCHEM_COORDINATE_TYPE>
2
5
10

$$$$
