122624
  -OEChem-03292013323D

 40 42  0     1  0  0  0  0  0999 V2000
    4.4341   -1.0771    0.8399 S   0  0  0  0  0  0  0  0  0  0  0  0
   -0.1667    3.8781    0.8377 S   0  0  0  0  0  0  0  0  0  0  0  0
    2.4952    0.4391   -1.4870 O   0  0  0  0  0  0  0  0  0  0  0  0
   -0.3290   -1.5170   -0.1006 O   0  0  0  0  0  0  0  0  0  0  0  0
    0.7842   -3.3750   -0.8495 O   0  0  0  0  0  0  0  0  0  0  0  0
    1.9510   -1.6136    0.1078 N   0  0  0  0  0  0  0  0  0  0  0  0
    1.2262    1.8919   -0.2022 N   0  0  0  0  0  0  0  0  0  0  0  0
    1.9078   -0.2811    0.6972 C   0  0  1  0  0  0  0  0  0  0  0  0
    3.1156   -0.0958    1.6022 C   0  0  0  0  0  0  0  0  0  0  0  0
    1.9090    0.7047   -0.4361 C   0  0  0  0  0  0  0  0  0  0  0  0
    3.2867   -2.1850   -0.0078 C   0  0  0  0  0  0  0  0  0  0  0  0
    1.1574    2.9341   -1.2193 C   0  0  0  0  0  0  0  0  0  0  0  0
    0.4201    2.1730    0.9791 C   0  0  0  0  0  0  0  0  0  0  0  0
    0.9472    4.2691   -0.5298 C   0  0  0  0  0  0  0  0  0  0  0  0
    0.7980   -2.2625   -0.3270 C   0  0  0  0  0  0  0  0  0  0  0  0
   -1.5662   -2.1088   -0.5125 C   0  0  0  0  0  0  0  0  0  0  0  0
   -2.6897   -1.1669   -0.1938 C   0  0  0  0  0  0  0  0  0  0  0  0
   -3.3235   -1.2443    1.0415 C   0  0  0  0  0  0  0  0  0  0  0  0
   -3.0869   -0.2247   -1.1362 C   0  0  0  0  0  0  0  0  0  0  0  0
   -4.3679   -0.3685    1.3381 C   0  0  0  0  0  0  0  0  0  0  0  0
   -4.1312    0.6510   -0.8394 C   0  0  0  0  0  0  0  0  0  0  0  0
   -4.7717    0.5792    0.3977 C   0  0  0  0  0  0  0  0  0  0  0  0
    0.9970   -0.1977    1.2939 H   0  0  0  0  0  0  0  0  0  0  0  0
    3.4218    0.9480    1.7146 H   0  0  0  0  0  0  0  0  0  0  0  0
    2.9207   -0.5134    2.5953 H   0  0  0  0  0  0  0  0  0  0  0  0
    3.2884   -3.1809    0.4451 H   0  0  0  0  0  0  0  0  0  0  0  0
    3.5417   -2.2793   -1.0676 H   0  0  0  0  0  0  0  0  0  0  0  0
    2.0615    2.9348   -1.8369 H   0  0  0  0  0  0  0  0  0  0  0  0
    0.3111    2.6915   -1.8745 H   0  0  0  0  0  0  0  0  0  0  0  0
    1.0255    2.0519    1.8813 H   0  0  0  0  0  0  0  0  0  0  0  0
   -0.4324    1.4883    1.0083 H   0  0  0  0  0  0  0  0  0  0  0  0
    1.8869    4.6489   -0.1165 H   0  0  0  0  0  0  0  0  0  0  0  0
    0.5235    5.0211   -1.2001 H   0  0  0  0  0  0  0  0  0  0  0  0
   -1.5375   -2.3135   -1.5901 H   0  0  0  0  0  0  0  0  0  0  0  0
   -1.7117   -3.0629    0.0092 H   0  0  0  0  0  0  0  0  0  0  0  0
   -3.0152   -1.9769    1.7823 H   0  0  0  0  0  0  0  0  0  0  0  0
   -2.5928   -0.1578   -2.1015 H   0  0  0  0  0  0  0  0  0  0  0  0
   -4.8660   -0.4238    2.3016 H   0  0  0  0  0  0  0  0  0  0  0  0
   -4.4448    1.3899   -1.5710 H   0  0  0  0  0  0  0  0  0  0  0  0
   -5.5843    1.2616    0.6289 H   0  0  0  0  0  0  0  0  0  0  0  0
  1  9  1  0  0  0  0
  1 11  1  0  0  0  0
  2 13  1  0  0  0  0
  2 14  1  0  0  0  0
  3 10  2  0  0  0  0
  4 15  1  0  0  0  0
  4 16  1  0  0  0  0
  5 15  2  0  0  0  0
  6  8  1  0  0  0  0
  6 11  1  0  0  0  0
  6 15  1  0  0  0  0
  7 10  1  0  0  0  0
  7 12  1  0  0  0  0
  7 13  1  0  0  0  0
  8  9  1  0  0  0  0
  8 10  1  0  0  0  0
  8 23  1  0  0  0  0
  9 24  1  0  0  0  0
  9 25  1  0  0  0  0
 11 26  1  0  0  0  0
 11 27  1  0  0  0  0
 12 14  1  0  0  0  0
 12 28  1  0  0  0  0
 12 29  1  0  0  0  0
 13 30  1  0  0  0  0
 13 31  1  0  0  0  0
 14 32  1  0  0  0  0
 14 33  1  0  0  0  0
 16 17  1  0  0  0  0
 16 34  1  0  0  0  0
 16 35  1  0  0  0  0
 17 18  2  0  0  0  0
 17 19  1  0  0  0  0
 18 20  1  0  0  0  0
 18 36  1  0  0  0  0
 19 21  2  0  0  0  0
 19 37  1  0  0  0  0
 20 22  2  0  0  0  0
 20 38  1  0  0  0  0
 21 22  1  0  0  0  0
 21 39  1  0  0  0  0
 22 40  1  0  0  0  0
M  END
> <PUBCHEM_COMPOUND_CID>
122624

> <PUBCHEM_CONFORMER_RMSD>
0.8

> <PUBCHEM_CONFORMER_DIVERSEORDER>
1
25
11
49
3
17
34
44
45
53
71
24
51
35
28
61
13
64
75
76
69
7
73
78
46
67
9
19
29
12
50
26
4
37
52
63
40
14
2
59
81
21
41
70
38
43
79
77
36
18
27
60
47
57
20
32
8
6
55
30
80
62
31
33
10
23
16
54
72
48
56
15
68
66
58
39
22
5
74
65
42

> <PUBCHEM_MMFF94_PARTIAL_CHARGES>
27
1 -0.46
10 0.57
11 0.53
12 0.3
13 0.53
14 0.23
15 0.78
16 0.42
17 -0.14
18 -0.15
19 -0.15
2 -0.46
20 -0.15
21 -0.15
22 -0.15
3 -0.57
36 0.15
37 0.15
38 0.15
39 0.15
4 -0.43
40 0.15
5 -0.57
6 -0.66
7 -0.66
8 0.36
9 0.23

> <PUBCHEM_EFFECTIVE_ROTOR_COUNT>
8

> <PUBCHEM_PHARMACOPHORE_FEATURES>
5
1 3 acceptor
1 5 acceptor
5 1 6 8 9 11 rings
5 2 7 12 13 14 rings
6 17 18 19 20 21 22 rings

> <PUBCHEM_HEAVY_ATOM_COUNT>
22

> <PUBCHEM_ATOM_DEF_STEREO_COUNT>
1

> <PUBCHEM_ATOM_UDEF_STEREO_COUNT>
0

> <PUBCHEM_BOND_DEF_STEREO_COUNT>
0

> <PUBCHEM_BOND_UDEF_STEREO_COUNT>
0

> <PUBCHEM_ISOTOPIC_ATOM_COUNT>
0

> <PUBCHEM_COMPONENT_COUNT>
1

> <PUBCHEM_CACTVS_TAUTO_COUNT>
1

> <PUBCHEM_CONFORMER_ID>
0001DF0000000001

> <PUBCHEM_MMFF94_ENERGY>
49.9908

> <PUBCHEM_FEATURE_SELFOVERLAP>
25.373

> <PUBCHEM_SHAPE_FINGERPRINT>
104564 63 18125440800222084982
10688039 33 18115870693995302733
12035759 4 18262540129809301596
12156800 1 16905290679579951341
12166972 35 18272362105544909555
12293681 4 18187939321830867819
12553582 1 18339933631785278013
12633257 1 18261969504738837899
12788726 201 18189332369309981538
128993 33 17977674435058085805
13004483 165 18263911156099603722
13140716 1 18339640178313311315
13402501 40 18117263775792412189
13583140 156 17894901937273530547
14123250 116 17479181211926475997
14363568 33 18263378029977611916
14790565 3 17832137595902412472
14866123 147 16532566025942360563
14955137 171 18338245945961488698
15081414 286 18413112749379517264
151778 21 18192727854368989649
15210252 30 18262255338501062756
15238133 3 18261402087607841637
1601671 61 18410011065864194086
17093844 170 17977937991157216697
17357779 13 18197487433455974942
18785283 64 18263939881067862393
19930381 70 18123187068453890353
20465049 17 17979104843645298605
20600515 1 18131067169020558280
20671657 1 18122061176350914316
20739085 24 18411143532586115528
21524375 3 17403741545722650660
21665062 11 18410013234232172834
21864079 5 18196379332299749815
22113638 7 18342167878183324927
23419403 2 11123909020216297366
238 59 18049410885890775437
3052486 1 18048326543865916308
3472631 163 15554448462427605515
350125 39 18122907800568487563
3524813 1 17969212361774051751
474 4 18413386549334663659
5048184 11 17907022029855255605
5252454 2 17904210569932942637
5939293 188 18410856598363132228
81228 2 17976543814533740104
8509985 295 18334007277154404531

> <PUBCHEM_SHAPE_MULTIPOLES>
432.88
7.85
4.6
1.32
6.04
4.81
-0.11
-3.3
-1.9
-2.29
0.68
0.04
0.27
-0.28

> <PUBCHEM_SHAPE_SELFOVERLAP>
884.504

> <PUBCHEM_SHAPE_VOLUME>
253.7

> <PUBCHEM_COORDINATE_TYPE>
2
5
10

$$$$
