122707128
  -OEChem-03292013293D

 68 71  0     1  0  0  0  0  0999 V2000
    2.4578   -1.2682    0.5310 O   0  0  0  0  0  0  0  0  0  0  0  0
    3.3881    0.3944   -0.8755 O   0  0  0  0  0  0  0  0  0  0  0  0
    3.9430   -3.2183   -0.7827 O   0  0  0  0  0  0  0  0  0  0  0  0
    6.6112   -2.1271   -0.3080 O   0  0  0  0  0  0  0  0  0  0  0  0
    6.4824    0.4151    1.0960 O   0  0  0  0  0  0  0  0  0  0  0  0
    5.4195    2.8621    0.5738 O   0  0  0  0  0  0  0  0  0  0  0  0
    4.0568    2.8228   -1.2530 O   0  0  0  0  0  0  0  0  0  0  0  0
   -4.0701    0.6410   -1.0276 N   0  0  1  0  0  0  0  0  0  0  0  0
   -1.5578    1.6080    0.1390 C   0  0  2  0  0  0  0  0  0  0  0  0
   -2.9362    1.7295    0.8587 C   0  0  1  0  0  0  0  0  0  0  0  0
   -3.8145    0.5349    0.4251 C   0  0  2  0  0  0  0  0  0  0  0  0
   -1.8350    1.6583   -1.3897 C   0  0  0  0  0  0  0  0  0  0  0  0
   -0.8890    0.2609    0.4561 C   0  0  0  0  0  0  0  0  0  0  0  0
   -3.1817   -0.7898    0.9031 C   0  0  0  0  0  0  0  0  0  0  0  0
   -2.8630    0.6185   -1.8548 C   0  0  0  0  0  0  0  0  0  0  0  0
   -1.6758   -0.8647    0.7889 C   0  0  0  0  0  0  0  0  0  0  0  0
   -0.6730    2.8185    0.5100 C   0  0  0  0  0  0  0  0  0  0  0  0
   -2.8464    1.8595    2.3879 C   0  0  0  0  0  0  0  0  0  0  0  0
   -5.0648   -0.3098   -1.5138 C   0  0  0  0  0  0  0  0  0  0  0  0
    0.5050    0.0945    0.3631 C   0  0  0  0  0  0  0  0  0  0  0  0
   -1.0569   -2.0978    1.0562 C   0  0  0  0  0  0  0  0  0  0  0  0
    1.1059   -1.1384    0.6244 C   0  0  0  0  0  0  0  0  0  0  0  0
    0.3261   -2.2332    0.9750 C   0  0  0  0  0  0  0  0  0  0  0  0
   -6.4373    0.0281   -1.0096 C   0  0  0  0  0  0  0  0  0  0  0  0
    3.0505   -0.9864   -0.7356 C   0  0  1  0  0  0  0  0  0  0  0  0
   -7.2565   -0.7238   -0.2494 C   0  0  0  0  0  0  0  0  0  0  0  0
    4.2963   -1.8485   -0.9407 C   0  0  1  0  0  0  0  0  0  0  0  0
    5.3974   -1.4630    0.0461 C   0  0  2  0  0  0  0  0  0  0  0  0
    5.6530    0.0451   -0.0045 C   0  0  1  0  0  0  0  0  0  0  0  0
    4.3495    0.8335    0.0818 C   0  0  1  0  0  0  0  0  0  0  0  0
   -8.6254   -0.3226    0.2226 C   0  0  0  0  0  0  0  0  0  0  0  0
   -6.8275   -2.0962    0.2005 C   0  0  0  0  0  0  0  0  0  0  0  0
    4.5685    2.2632   -0.2947 C   0  0  0  0  0  0  0  0  0  0  0  0
   -3.4301    2.6512    0.5139 H   0  0  0  0  0  0  0  0  0  0  0  0
   -4.7770    0.6429    0.9411 H   0  0  0  0  0  0  0  0  0  0  0  0
   -0.9064    1.5179   -1.9584 H   0  0  0  0  0  0  0  0  0  0  0  0
   -2.2104    2.6567   -1.6549 H   0  0  0  0  0  0  0  0  0  0  0  0
   -3.6255   -1.6507    0.3939 H   0  0  0  0  0  0  0  0  0  0  0  0
   -3.4283   -0.9173    1.9663 H   0  0  0  0  0  0  0  0  0  0  0  0
   -3.1226    0.8560   -2.8943 H   0  0  0  0  0  0  0  0  0  0  0  0
   -2.4124   -0.3811   -1.8729 H   0  0  0  0  0  0  0  0  0  0  0  0
   -1.2338    3.7564    0.4212 H   0  0  0  0  0  0  0  0  0  0  0  0
    0.1944    2.9105   -0.1535 H   0  0  0  0  0  0  0  0  0  0  0  0
   -0.2959    2.7478    1.5363 H   0  0  0  0  0  0  0  0  0  0  0  0
   -3.8468    1.8369    2.8337 H   0  0  0  0  0  0  0  0  0  0  0  0
   -2.3923    2.8148    2.6705 H   0  0  0  0  0  0  0  0  0  0  0  0
   -2.2553    1.0637    2.8494 H   0  0  0  0  0  0  0  0  0  0  0  0
   -5.1389   -0.2181   -2.6067 H   0  0  0  0  0  0  0  0  0  0  0  0
   -4.7578   -1.3424   -1.3475 H   0  0  0  0  0  0  0  0  0  0  0  0
    1.1303    0.9386    0.0927 H   0  0  0  0  0  0  0  0  0  0  0  0
   -1.6575   -2.9629    1.3276 H   0  0  0  0  0  0  0  0  0  0  0  0
    0.7873   -3.1950    1.1806 H   0  0  0  0  0  0  0  0  0  0  0  0
   -6.8036    1.0101   -1.3092 H   0  0  0  0  0  0  0  0  0  0  0  0
    2.3349   -1.2337   -1.5314 H   0  0  0  0  0  0  0  0  0  0  0  0
    4.6731   -1.7209   -1.9634 H   0  0  0  0  0  0  0  0  0  0  0  0
    5.1514   -1.7950    1.0612 H   0  0  0  0  0  0  0  0  0  0  0  0
    6.2021    0.3008   -0.9192 H   0  0  0  0  0  0  0  0  0  0  0  0
    3.9055    0.8161    1.0846 H   0  0  0  0  0  0  0  0  0  0  0  0
   -6.5117   -2.0625    1.2484 H   0  0  0  0  0  0  0  0  0  0  0  0
   -7.6713   -2.7923    0.1264 H   0  0  0  0  0  0  0  0  0  0  0  0
   -9.3833   -1.0074   -0.1711 H   0  0  0  0  0  0  0  0  0  0  0  0
   -8.6712   -0.3381    1.3163 H   0  0  0  0  0  0  0  0  0  0  0  0
   -8.8836    0.6886   -0.1086 H   0  0  0  0  0  0  0  0  0  0  0  0
   -6.0257   -2.5443   -0.3869 H   0  0  0  0  0  0  0  0  0  0  0  0
    3.2463   -3.4192   -1.4306 H   0  0  0  0  0  0  0  0  0  0  0  0
    6.8407   -1.8747   -1.2186 H   0  0  0  0  0  0  0  0  0  0  0  0
    6.0109    0.1922    1.9168 H   0  0  0  0  0  0  0  0  0  0  0  0
    5.5776    3.8022    0.3425 H   0  0  0  0  0  0  0  0  0  0  0  0
  1 22  1  0  0  0  0
  1 25  1  0  0  0  0
  2 25  1  0  0  0  0
  2 30  1  0  0  0  0
  3 27  1  0  0  0  0
  3 65  1  0  0  0  0
  4 28  1  0  0  0  0
  4 66  1  0  0  0  0
  5 29  1  0  0  0  0
  5 67  1  0  0  0  0
  6 33  1  0  0  0  0
  6 68  1  0  0  0  0
  7 33  2  0  0  0  0
  8 11  1  0  0  0  0
  8 15  1  0  0  0  0
  8 19  1  0  0  0  0
  9 10  1  0  0  0  0
  9 12  1  0  0  0  0
  9 13  1  0  0  0  0
  9 17  1  0  0  0  0
 10 11  1  0  0  0  0
 10 18  1  0  0  0  0
 10 34  1  0  0  0  0
 11 14  1  0  0  0  0
 11 35  1  0  0  0  0
 12 15  1  0  0  0  0
 12 36  1  0  0  0  0
 12 37  1  0  0  0  0
 13 16  2  0  0  0  0
 13 20  1  0  0  0  0
 14 16  1  0  0  0  0
 14 38  1  0  0  0  0
 14 39  1  0  0  0  0
 15 40  1  0  0  0  0
 15 41  1  0  0  0  0
 16 21  1  0  0  0  0
 17 42  1  0  0  0  0
 17 43  1  0  0  0  0
 17 44  1  0  0  0  0
 18 45  1  0  0  0  0
 18 46  1  0  0  0  0
 18 47  1  0  0  0  0
 19 24  1  0  0  0  0
 19 48  1  0  0  0  0
 19 49  1  0  0  0  0
 20 22  2  0  0  0  0
 20 50  1  0  0  0  0
 21 23  2  0  0  0  0
 21 51  1  0  0  0  0
 22 23  1  0  0  0  0
 23 52  1  0  0  0  0
 24 26  2  0  0  0  0
 24 53  1  0  0  0  0
 25 27  1  0  0  0  0
 25 54  1  0  0  0  0
 26 31  1  0  0  0  0
 26 32  1  0  0  0  0
 27 28  1  0  0  0  0
 27 55  1  0  0  0  0
 28 29  1  0  0  0  0
 28 56  1  0  0  0  0
 29 30  1  0  0  0  0
 29 57  1  0  0  0  0
 30 33  1  0  0  0  0
 30 58  1  0  0  0  0
 31 61  1  0  0  0  0
 31 62  1  0  0  0  0
 31 63  1  0  0  0  0
 32 59  1  0  0  0  0
 32 60  1  0  0  0  0
 32 64  1  0  0  0  0
M  END
> <PUBCHEM_COMPOUND_CID>
122707128

> <PUBCHEM_CONFORMER_RMSD>
1

> <PUBCHEM_CONFORMER_DIVERSEORDER>
1
131
8
109
113
89
153
98
106
111
141
122
53
76
27
136
73
148
127
163
119
160
60
88
137
165
149
65
40
156
93
125
116
11
159
100
164
83
47
143
50
171
145
147
34
168
123
64
61
144
24
31
82
26
142
49
121
63
55
154
84
79
124
30
101
74
20
87
155
115
150
158
172
108
90
103
166
86
46
173
117
99
41
32
6
152
167
80
161
35
126
45
38
110
21
12
140
25
33
133
28
151
94
114
66
16
169
146
48
56
95
135
68
138
37
42
23
72
97
44
102
170
14
81
62
2
4
107
78
75
162
104
57
139
59
77
22
19
112
118
54
58
85
29
39
5
43
3
134
157
10
52
15
120
13
105
70
69
18
130
9
128
36
67
91
7
17
71
92
129
132
51
96

> <PUBCHEM_MMFF94_PARTIAL_CHARGES>
37
1 -0.36
11 0.27
13 -0.14
14 0.14
15 0.27
16 -0.14
19 0.41
2 -0.56
20 -0.15
21 -0.15
22 0.08
23 -0.15
24 -0.29
25 0.56
26 -0.28
27 0.28
28 0.28
29 0.28
3 -0.68
30 0.34
31 0.14
32 0.14
33 0.66
4 -0.68
5 -0.68
50 0.15
51 0.15
52 0.15
53 0.15
6 -0.65
65 0.4
66 0.4
67 0.4
68 0.5
7 -0.57
8 -0.81
9 0.14

> <PUBCHEM_EFFECTIVE_ROTOR_COUNT>
7.2

> <PUBCHEM_PHARMACOPHORE_FEATURES>
17
1 1 acceptor
1 2 acceptor
1 3 acceptor
1 3 donor
1 4 acceptor
1 4 donor
1 5 acceptor
1 5 donor
1 6 acceptor
1 7 acceptor
1 8 cation
3 26 31 32 hydrophobe
3 6 7 33 anion
6 13 16 20 21 22 23 rings
6 2 25 27 28 29 30 rings
6 8 9 10 11 12 15 rings
6 9 10 11 13 14 16 rings

> <PUBCHEM_HEAVY_ATOM_COUNT>
33

> <PUBCHEM_ATOM_DEF_STEREO_COUNT>
7

> <PUBCHEM_ATOM_UDEF_STEREO_COUNT>
1

> <PUBCHEM_BOND_DEF_STEREO_COUNT>
0

> <PUBCHEM_BOND_UDEF_STEREO_COUNT>
0

> <PUBCHEM_ISOTOPIC_ATOM_COUNT>
0

> <PUBCHEM_COMPONENT_COUNT>
1

> <PUBCHEM_CACTVS_TAUTO_COUNT>
3

> <PUBCHEM_CONFORMER_ID>
07505CB800000001

> <PUBCHEM_MMFF94_ENERGY>
99.2089

> <PUBCHEM_FEATURE_SELFOVERLAP>
87.915

> <PUBCHEM_SHAPE_FINGERPRINT>
11135609 187 18338233885825469561
12107698 1 18341048511043039566
12166972 35 18040716961070881316
12645989 146 18267308625903553566
13533116 47 18343584061876380412
13560911 43 18041270003183817616
13583140 156 16805324375262782104
13914758 101 15430310300657894411
14040221 97 17609232481862363981
14617045 38 10447928391139262416
14856354 85 17417809574352627863
15003188 100 18260547827308090438
15082195 135 18189632669191433438
17349148 13 18270399387474538448
173720 79 15213010562265002955
1813 80 14189574143898838882
18608769 82 18115306800109458155
19377110 9 17632298968812835736
20157964 124 18411981373563660046
20554085 129 15574705894495849657
21033648 29 17603864469043686492
21403212 168 11239998937185544399
21521721 280 18335421301021735699
21623110 236 18336275612313059473
21859007 373 17313929845499972108
22149856 69 18272661147164610651
23522609 53 17488767647767059801
23559900 14 18410298004398144514
23569943 247 17763469409660892050
24771750 20 17612322148676670637
2838139 119 14996282501199709055
3552219 110 18272942622574208305
3633792 109 18335697213958158949
4325135 7 18130786763342985094
44317340 157 18272364265707678813
484989 97 18187936122154247339
497634 4 18341051814010306389
508706 21 17749954349864410484

> <PUBCHEM_SHAPE_MULTIPOLES>
633.06
18.78
3
1.43
8.27
0.45
-0.02
-4.44
2.73
-3.44
-0.21
1.09
0.41
0.24

> <PUBCHEM_SHAPE_SELFOVERLAP>
1346.189

> <PUBCHEM_SHAPE_VOLUME>
348.8

> <PUBCHEM_COORDINATE_TYPE>
2
5
10

$$$$
