122797
  -OEChem-03292013323D

 49 53  0     1  0  0  0  0  0999 V2000
   -1.6028    3.6389    0.4628 O   0  0  0  0  0  0  0  0  0  0  0  0
    2.4510    3.2282    0.6052 O   0  0  0  0  0  0  0  0  0  0  0  0
   -2.3523    2.6052   -1.4526 O   0  0  0  0  0  0  0  0  0  0  0  0
    3.8829   -2.4698   -1.4237 O   0  0  0  0  0  0  0  0  0  0  0  0
    5.1400   -1.4120    0.3379 O   0  0  0  0  0  0  0  0  0  0  0  0
   -1.6120   -2.4227    2.2366 O   0  0  0  0  0  0  0  0  0  0  0  0
   -4.2842   -1.3648   -1.5948 O   0  0  0  0  0  0  0  0  0  0  0  0
   -3.9442   -2.7516    0.7779 O   0  0  0  0  0  0  0  0  0  0  0  0
    0.2406    2.3010    0.8865 C   0  0  1  0  0  0  0  0  0  0  0  0
   -0.1148    2.1632   -0.5837 C   0  0  1  0  0  0  0  0  0  0  0  0
    0.0960    0.7249   -1.0799 C   0  0  1  0  0  0  0  0  0  0  0  0
    1.7351    2.0970    1.1001 C   0  0  1  0  0  0  0  0  0  0  0  0
    1.4787    0.2164   -0.6502 C   0  0  0  0  0  0  0  0  0  0  0  0
   -0.3704    3.6445    1.2077 C   0  0  0  0  0  0  0  0  0  0  0  0
    2.2259    0.8442    0.3939 C   0  0  0  0  0  0  0  0  0  0  0  0
   -1.4890    2.7841   -0.6092 C   0  0  0  0  0  0  0  0  0  0  0  0
   -0.9777   -0.1989   -0.5856 C   0  0  0  0  0  0  0  0  0  0  0  0
    2.0060   -0.9160   -1.3018 C   0  0  0  0  0  0  0  0  0  0  0  0
    3.4803    0.3247    0.7646 C   0  0  0  0  0  0  0  0  0  0  0  0
    3.2372   -1.3912   -0.9022 C   0  0  0  0  0  0  0  0  0  0  0  0
    3.9530   -0.7890    0.1027 C   0  0  0  0  0  0  0  0  0  0  0  0
   -2.1446   -0.3557   -1.3250 C   0  0  0  0  0  0  0  0  0  0  0  0
   -0.7965   -0.8900    0.6073 C   0  0  0  0  0  0  0  0  0  0  0  0
   -1.7951   -1.7488    1.0666 C   0  0  0  0  0  0  0  0  0  0  0  0
   -3.1433   -1.2143   -0.8657 C   0  0  0  0  0  0  0  0  0  0  0  0
    5.0877   -2.4786   -0.6313 C   0  0  0  0  0  0  0  0  0  0  0  0
   -2.9686   -1.9110    0.3300 C   0  0  0  0  0  0  0  0  0  0  0  0
   -2.0578   -1.7817    3.4300 C   0  0  0  0  0  0  0  0  0  0  0  0
   -5.3611   -0.4760   -1.3040 C   0  0  0  0  0  0  0  0  0  0  0  0
   -0.3065    1.5572    1.4789 H   0  0  0  0  0  0  0  0  0  0  0  0
    0.5197    2.8309   -1.1863 H   0  0  0  0  0  0  0  0  0  0  0  0
    0.0780    0.7406   -2.1789 H   0  0  0  0  0  0  0  0  0  0  0  0
    1.9336    2.0254    2.1756 H   0  0  0  0  0  0  0  0  0  0  0  0
   -0.5929    3.7493    2.2734 H   0  0  0  0  0  0  0  0  0  0  0  0
    0.2274    4.5007    0.8795 H   0  0  0  0  0  0  0  0  0  0  0  0
    1.4574   -1.4092   -2.0982 H   0  0  0  0  0  0  0  0  0  0  0  0
    4.0676    0.7909    1.5494 H   0  0  0  0  0  0  0  0  0  0  0  0
    2.7247    3.0560   -0.3116 H   0  0  0  0  0  0  0  0  0  0  0  0
   -2.2797    0.1638   -2.2699 H   0  0  0  0  0  0  0  0  0  0  0  0
    0.0923   -0.7865    1.2212 H   0  0  0  0  0  0  0  0  0  0  0  0
    5.1536   -3.4367   -0.1030 H   0  0  0  0  0  0  0  0  0  0  0  0
    5.9498   -2.3861   -1.3019 H   0  0  0  0  0  0  0  0  0  0  0  0
   -4.6620   -2.7717    0.1219 H   0  0  0  0  0  0  0  0  0  0  0  0
   -1.5210   -0.8399    3.5825 H   0  0  0  0  0  0  0  0  0  0  0  0
   -1.8480   -2.4445    4.2740 H   0  0  0  0  0  0  0  0  0  0  0  0
   -3.1360   -1.5972    3.3892 H   0  0  0  0  0  0  0  0  0  0  0  0
   -6.2090   -0.7456   -1.9397 H   0  0  0  0  0  0  0  0  0  0  0  0
   -5.0729    0.5567   -1.5243 H   0  0  0  0  0  0  0  0  0  0  0  0
   -5.6667   -0.5645   -0.2566 H   0  0  0  0  0  0  0  0  0  0  0  0
  1 14  1  0  0  0  0
  1 16  1  0  0  0  0
  2 12  1  0  0  0  0
  2 38  1  0  0  0  0
  3 16  2  0  0  0  0
  4 20  1  0  0  0  0
  4 26  1  0  0  0  0
  5 21  1  0  0  0  0
  5 26  1  0  0  0  0
  6 24  1  0  0  0  0
  6 28  1  0  0  0  0
  7 25  1  0  0  0  0
  7 29  1  0  0  0  0
  8 27  1  0  0  0  0
  8 43  1  0  0  0  0
  9 10  1  0  0  0  0
  9 12  1  0  0  0  0
  9 14  1  0  0  0  0
  9 30  1  0  0  0  0
 10 11  1  0  0  0  0
 10 16  1  0  0  0  0
 10 31  1  0  0  0  0
 11 13  1  0  0  0  0
 11 17  1  0  0  0  0
 11 32  1  0  0  0  0
 12 15  1  0  0  0  0
 12 33  1  0  0  0  0
 13 15  1  0  0  0  0
 13 18  2  0  0  0  0
 14 34  1  0  0  0  0
 14 35  1  0  0  0  0
 15 19  2  0  0  0  0
 17 22  2  0  0  0  0
 17 23  1  0  0  0  0
 18 20  1  0  0  0  0
 18 36  1  0  0  0  0
 19 21  1  0  0  0  0
 19 37  1  0  0  0  0
 20 21  2  0  0  0  0
 22 25  1  0  0  0  0
 22 39  1  0  0  0  0
 23 24  2  0  0  0  0
 23 40  1  0  0  0  0
 24 27  1  0  0  0  0
 25 27  2  0  0  0  0
 26 41  1  0  0  0  0
 26 42  1  0  0  0  0
 28 44  1  0  0  0  0
 28 45  1  0  0  0  0
 28 46  1  0  0  0  0
 29 47  1  0  0  0  0
 29 48  1  0  0  0  0
 29 49  1  0  0  0  0
M  END
> <PUBCHEM_COMPOUND_CID>
122797

> <PUBCHEM_CONFORMER_RMSD>
0.8

> <PUBCHEM_CONFORMER_DIVERSEORDER>
1
2

> <PUBCHEM_MMFF94_PARTIAL_CHARGES>
34
1 -0.43
10 0.06
11 0.29
12 0.42
13 -0.14
14 0.28
15 -0.14
16 0.66
17 -0.14
18 -0.15
19 -0.15
2 -0.68
20 0.08
21 0.08
22 -0.15
23 -0.15
24 0.08
25 0.08
26 0.56
27 0.08
28 0.28
29 0.28
3 -0.57
36 0.15
37 0.15
38 0.4
39 0.15
4 -0.36
40 0.15
43 0.45
5 -0.36
6 -0.36
7 -0.36
8 -0.53

> <PUBCHEM_EFFECTIVE_ROTOR_COUNT>
4.4

> <PUBCHEM_PHARMACOPHORE_FEATURES>
13
1 2 acceptor
1 2 donor
1 3 acceptor
1 4 acceptor
1 5 acceptor
1 6 acceptor
1 7 acceptor
1 8 donor
5 1 9 10 14 16 rings
5 4 5 20 21 26 rings
6 13 15 18 19 20 21 rings
6 17 22 23 24 25 27 rings
6 9 10 11 12 13 15 rings

> <PUBCHEM_HEAVY_ATOM_COUNT>
29

> <PUBCHEM_ATOM_DEF_STEREO_COUNT>
4

> <PUBCHEM_ATOM_UDEF_STEREO_COUNT>
0

> <PUBCHEM_BOND_DEF_STEREO_COUNT>
0

> <PUBCHEM_BOND_UDEF_STEREO_COUNT>
0

> <PUBCHEM_ISOTOPIC_ATOM_COUNT>
0

> <PUBCHEM_COMPONENT_COUNT>
1

> <PUBCHEM_CACTVS_TAUTO_COUNT>
4

> <PUBCHEM_CONFORMER_ID>
0001DFAD00000001

> <PUBCHEM_MMFF94_ENERGY>
109.7265

> <PUBCHEM_FEATURE_SELFOVERLAP>
66.222

> <PUBCHEM_SHAPE_FINGERPRINT>
10119406 146 17190400607853026366
10906281 52 18191018108960314505
1100329 8 17328856600473201935
11582403 64 16102115401322081413
11640471 11 16625766627523440633
12156800 1 17768498657048480041
12160290 23 17907048108395367972
12363563 72 18411987974570003342
12422481 6 17915205480389337419
12553582 1 18199209393578281294
12788726 201 18335977554351256147
13134695 92 18199742716778534717
13140716 1 18342182158765344505
13544653 18 18413671322698201158
13911987 19 17760380176980908068
14022347 108 17749377209301924557
14251740 79 18189332364392417799
14844126 61 18126554631714548166
14866123 147 18123471579376529859
15927050 60 17478334132253348815
16752209 62 17968367944932843255
17357779 13 18411412925503369902
19315092 285 16699747202784078343
20600515 1 17097473526413699060
21279426 13 18337934720215765701
23558518 356 18411417267895446456
23559900 14 18041555948883438454
3027735 51 18265055721602758619
3178227 256 18050863113229668121
3380486 145 18194965372946787458
3383291 50 17261039818188718495
35225 105 17762095096701074192
463206 1 18411129268647467183
484985 159 17272582607637433302
57527295 17 18120059880869201215
59755656 520 17905326221625752765
6004065 56 18127112277140590799
70251023 43 18343297063424196574
81228 2 18335706005128589741
9709674 26 18410847768184704244
9981440 41 17483944996515249630

> <PUBCHEM_SHAPE_MULTIPOLES>
549.85
8.36
4.23
1.96
2.84
3.47
1.42
-7.84
-2.46
-0.47
1.16
-1.67
-1.05
1.96

> <PUBCHEM_SHAPE_SELFOVERLAP>
1233.821

> <PUBCHEM_SHAPE_VOLUME>
291.2

> <PUBCHEM_COORDINATE_TYPE>
2
5
10

$$$$
