122790
  -OEChem-03292013323D

 42 44  0     0  0  0  0  0  0999 V2000
   -3.5839    0.0020   -1.2068 S   0  0  0  0  0  0  0  0  0  0  0  0
    3.5840    0.0001   -1.2069 S   0  0  0  0  0  0  0  0  0  0  0  0
   -6.0973    0.0011   -2.0063 N   0  0  0  0  0  0  0  0  0  0  0  0
    6.0975    0.0032   -2.0061 N   0  0  0  0  0  0  0  0  0  0  0  0
   -5.7592    0.0017    0.3311 N   0  0  0  0  0  0  0  0  0  0  0  0
    5.7591   -0.0013    0.3313 N   0  0  0  0  0  0  0  0  0  0  0  0
   -1.3937    0.0001    0.4707 C   0  0  0  0  0  0  0  0  0  0  0  0
    1.3937   -0.0013    0.4705 C   0  0  0  0  0  0  0  0  0  0  0  0
   -0.7055    1.2248    0.4709 C   0  0  0  0  0  0  0  0  0  0  0  0
    0.7066    1.2242    0.4707 C   0  0  0  0  0  0  0  0  0  0  0  0
   -0.7066   -1.2254    0.4704 C   0  0  0  0  0  0  0  0  0  0  0  0
    0.7055   -1.2260    0.4704 C   0  0  0  0  0  0  0  0  0  0  0  0
   -2.8987    0.0006    0.4725 C   0  0  0  0  0  0  0  0  0  0  0  0
    2.8987   -0.0013    0.4724 C   0  0  0  0  0  0  0  0  0  0  0  0
   -1.3919    2.4504    0.4714 C   0  0  0  0  0  0  0  0  0  0  0  0
    1.3940    2.4493    0.4711 C   0  0  0  0  0  0  0  0  0  0  0  0
   -1.3940   -2.4505    0.4704 C   0  0  0  0  0  0  0  0  0  0  0  0
    1.3918   -2.4516    0.4702 C   0  0  0  0  0  0  0  0  0  0  0  0
   -0.6940    3.6583    0.4715 C   0  0  0  0  0  0  0  0  0  0  0  0
    0.6972    3.6577    0.4714 C   0  0  0  0  0  0  0  0  0  0  0  0
   -0.6972   -3.6590    0.4699 C   0  0  0  0  0  0  0  0  0  0  0  0
    0.6939   -3.6595    0.4697 C   0  0  0  0  0  0  0  0  0  0  0  0
   -5.3159    0.0025   -0.8852 C   0  0  0  0  0  0  0  0  0  0  0  0
    5.3160   -0.0002   -0.8851 C   0  0  0  0  0  0  0  0  0  0  0  0
   -3.3022   -0.8445    1.0381 H   0  0  0  0  0  0  0  0  0  0  0  0
   -3.3013    0.8454    1.0392 H   0  0  0  0  0  0  0  0  0  0  0  0
    3.3018    0.8429    1.0395 H   0  0  0  0  0  0  0  0  0  0  0  0
    3.3016   -0.8469    1.0376 H   0  0  0  0  0  0  0  0  0  0  0  0
   -2.4726    2.5358    0.4489 H   0  0  0  0  0  0  0  0  0  0  0  0
    2.4749    2.5338    0.4484 H   0  0  0  0  0  0  0  0  0  0  0  0
   -2.4749   -2.5350    0.4478 H   0  0  0  0  0  0  0  0  0  0  0  0
    2.4726   -2.5370    0.4474 H   0  0  0  0  0  0  0  0  0  0  0  0
   -1.2363    4.5994    0.4653 H   0  0  0  0  0  0  0  0  0  0  0  0
    1.2402    4.5983    0.4652 H   0  0  0  0  0  0  0  0  0  0  0  0
   -1.2403   -4.5996    0.4633 H   0  0  0  0  0  0  0  0  0  0  0  0
    1.2362   -4.6005    0.4630 H   0  0  0  0  0  0  0  0  0  0  0  0
   -7.1096    0.0000   -1.9456 H   0  0  0  0  0  0  0  0  0  0  0  0
   -5.6867    0.0005   -2.9337 H   0  0  0  0  0  0  0  0  0  0  0  0
    7.1098    0.0038   -1.9453 H   0  0  0  0  0  0  0  0  0  0  0  0
    5.6870    0.0045   -2.9335 H   0  0  0  0  0  0  0  0  0  0  0  0
   -6.7849    0.0010    0.3094 H   0  0  0  0  0  0  0  0  0  0  0  0
    6.7848   -0.0003    0.3097 H   0  0  0  0  0  0  0  0  0  0  0  0
  1 13  1  0  0  0  0
  1 23  1  0  0  0  0
  2 14  1  0  0  0  0
  2 24  1  0  0  0  0
  3 23  1  0  0  0  0
  3 37  1  0  0  0  0
  3 38  1  0  0  0  0
  4 24  1  0  0  0  0
  4 39  1  0  0  0  0
  4 40  1  0  0  0  0
  5 23  2  0  0  0  0
  5 41  1  0  0  0  0
  6 24  2  0  0  0  0
  6 42  1  0  0  0  0
  7  9  2  0  0  0  0
  7 11  1  0  0  0  0
  7 13  1  0  0  0  0
  8 10  2  0  0  0  0
  8 12  1  0  0  0  0
  8 14  1  0  0  0  0
  9 10  1  0  0  0  0
  9 15  1  0  0  0  0
 10 16  1  0  0  0  0
 11 12  1  0  0  0  0
 11 17  2  0  0  0  0
 12 18  2  0  0  0  0
 13 25  1  0  0  0  0
 13 26  1  0  0  0  0
 14 27  1  0  0  0  0
 14 28  1  0  0  0  0
 15 19  2  0  0  0  0
 15 29  1  0  0  0  0
 16 20  2  0  0  0  0
 16 30  1  0  0  0  0
 17 21  1  0  0  0  0
 17 31  1  0  0  0  0
 18 22  1  0  0  0  0
 18 32  1  0  0  0  0
 19 20  1  0  0  0  0
 19 33  1  0  0  0  0
 20 34  1  0  0  0  0
 21 22  2  0  0  0  0
 21 35  1  0  0  0  0
 22 36  1  0  0  0  0
M  END
> <PUBCHEM_COMPOUND_CID>
122790

> <PUBCHEM_CONFORMER_RMSD>
0.8

> <PUBCHEM_CONFORMER_DIVERSEORDER>
1
10
7
2
9
8
12
11
6
5
4
3

> <PUBCHEM_MMFF94_PARTIAL_CHARGES>
34
1 -0.37
13 0.37
14 0.37
15 -0.15
16 -0.15
17 -0.15
18 -0.15
19 -0.15
2 -0.37
20 -0.15
21 -0.15
22 -0.15
23 0.64
24 0.64
29 0.15
3 -0.85
30 0.15
31 0.15
32 0.15
33 0.15
34 0.15
35 0.15
36 0.15
37 0.4
38 0.4
39 0.4
4 -0.85
40 0.4
41 0.4
42 0.4
5 -0.85
6 -0.85
7 -0.14
8 -0.14

> <PUBCHEM_EFFECTIVE_ROTOR_COUNT>
6

> <PUBCHEM_PHARMACOPHORE_FEATURES>
9
1 3 donor
1 4 donor
1 5 donor
1 6 donor
3 3 5 23 cation
3 4 6 24 cation
6 11 12 17 18 21 22 rings
6 7 8 9 10 11 12 rings
6 9 10 15 16 19 20 rings

> <PUBCHEM_HEAVY_ATOM_COUNT>
24

> <PUBCHEM_ATOM_DEF_STEREO_COUNT>
0

> <PUBCHEM_ATOM_UDEF_STEREO_COUNT>
0

> <PUBCHEM_BOND_DEF_STEREO_COUNT>
0

> <PUBCHEM_BOND_UDEF_STEREO_COUNT>
0

> <PUBCHEM_ISOTOPIC_ATOM_COUNT>
0

> <PUBCHEM_COMPONENT_COUNT>
1

> <PUBCHEM_CACTVS_TAUTO_COUNT>
1

> <PUBCHEM_CONFORMER_ID>
0001DFA600000001

> <PUBCHEM_MMFF94_ENERGY>
81.2335

> <PUBCHEM_FEATURE_SELFOVERLAP>
45.799

> <PUBCHEM_SHAPE_FINGERPRINT>
10165383 225 18113334215602468159
10411042 1 18051142676961431250
10693767 8 18130775742520818367
10906281 52 18199769057770834060
10930396 42 18122031383149720280
10967382 1 18410569583126562219
1100329 8 18338797939104678290
11445158 3 17390836388901375125
11578080 2 17825666922596013636
11680986 33 18054508273141930584
12011746 2 18410573989446418470
12293681 160 18409730646858607819
12403260 363 18048030779739454714
12553582 1 18411700980396351929
12730499 353 18262227916105113215
12788726 201 18339927022104636928
13140716 1 18266740370836554432
13149001 5 18267022949635722812
13540713 4 18050568744068973011
13540713 5 18050568434831327720
13911987 19 18334301967376317679
14178342 30 17400901021772860003
14767858 380 18409730646858621102
14790565 3 18338817640189230752
15439362 3 18195241354930189781
16752209 62 18409732820824333048
16945 1 18410575084663079394
17492 54 18333450932454457075
19591789 44 18337965591717586729
20642791 13 18130511838350260448
20775438 99 17409899841635973583
21637258 2 15697711536785128213
21641784 216 18187937109912511780
22122407 14 15358566119279271180
22182313 1 18050568748363940265
2334 1 17978228592727850562
23366157 5 17610350337901915002
23402539 116 18272093772925407836
23558518 356 17686337568858326115
23559900 14 18269283512274935876
238 59 17541886141315883719
25147074 1 18122624955127431699
266924 87 18193274100767088573
2748010 2 18122626329516966323
283562 15 18341615850284804048
2838139 119 16370720443794274647
3060560 45 18339065069270577519
3084891 72 18410577288472302090
3178227 256 18336280015228973179
350125 39 18047479099822084883
3759504 43 17676773161900573803
4058900 60 17967813782909979091
484989 97 18191308389237063131

> <PUBCHEM_SHAPE_MULTIPOLES>
481.68
10.27
4.18
1.24
0
0.01
0.71
-0.01
7.32
0
-1.63
0
0
0

> <PUBCHEM_SHAPE_SELFOVERLAP>
1024.317

> <PUBCHEM_SHAPE_VOLUME>
269.5

> <PUBCHEM_COORDINATE_TYPE>
2
5
10

$$$$
