122706239
  -OEChem-03292013293D

 34 36  0     1  0  0  0  0  0999 V2000
    2.0523   -0.4956   -0.9928 O   0  0  0  0  0  0  0  0  0  0  0  0
    1.2277    2.2846    1.1275 O   0  0  0  0  0  0  0  0  0  0  0  0
    3.7389   -2.6404   -0.3558 O   0  0  0  0  0  0  0  0  0  0  0  0
    3.5413    2.1516   -0.3836 N   0  3  0  0  0  0  0  0  0  0  0  0
   -0.2352   -0.2710   -0.1634 N   0  0  0  0  0  0  0  0  0  0  0  0
   -1.6682   -1.8943    0.3668 N   0  0  0  0  0  0  0  0  0  0  0  0
   -1.7932    1.5536   -0.5419 N   0  0  0  0  0  0  0  0  0  0  0  0
   -4.0996    0.8362   -0.1924 N   0  0  0  0  0  0  0  0  0  0  0  0
   -4.6675   -1.4000    0.4424 N   0  0  0  0  0  0  0  0  0  0  0  0
    3.1984    0.9807    0.4767 C   0  0  1  0  0  0  0  0  0  0  0  0
    1.7224    0.9962    0.8205 C   0  0  2  0  0  0  0  0  0  0  0  0
    3.3314   -0.2867   -0.3557 C   0  0  1  0  0  0  0  0  0  0  0  0
    1.0826    0.4167   -0.4370 C   0  0  1  0  0  0  0  0  0  0  0  0
    3.6440   -1.5120    0.4950 C   0  0  0  0  0  0  0  0  0  0  0  0
   -1.4797    0.2879   -0.2267 C   0  0  0  0  0  0  0  0  0  0  0  0
   -0.4004   -1.5822    0.1965 C   0  0  0  0  0  0  0  0  0  0  0  0
   -2.3539   -0.7347    0.1055 C   0  0  0  0  0  0  0  0  0  0  0  0
   -3.7100   -0.4241    0.1161 C   0  0  0  0  0  0  0  0  0  0  0  0
   -3.1314    1.7335   -0.4977 C   0  0  0  0  0  0  0  0  0  0  0  0
    3.8619    1.0405    1.3436 H   0  0  0  0  0  0  0  0  0  0  0  0
    1.5343    0.3448    1.6829 H   0  0  0  0  0  0  0  0  0  0  0  0
    4.0815   -0.1996   -1.1504 H   0  0  0  0  0  0  0  0  0  0  0  0
    0.8559    1.1804   -1.1906 H   0  0  0  0  0  0  0  0  0  0  0  0
    2.9968    2.1715   -1.2562 H   0  0  0  0  0  0  0  0  0  0  0  0
    4.5367    2.1425   -0.6437 H   0  0  0  0  0  0  0  0  0  0  0  0
    3.3650    3.0374    0.1090 H   0  0  0  0  0  0  0  0  0  0  0  0
    2.8509   -1.7103    1.2226 H   0  0  0  0  0  0  0  0  0  0  0  0
    4.5950   -1.3887    1.0224 H   0  0  0  0  0  0  0  0  0  0  0  0
    1.7308    2.6154    1.8911 H   0  0  0  0  0  0  0  0  0  0  0  0
    0.4321   -2.2606    0.3221 H   0  0  0  0  0  0  0  0  0  0  0  0
    3.9409   -3.4075    0.2065 H   0  0  0  0  0  0  0  0  0  0  0  0
   -3.4792    2.7322   -0.7395 H   0  0  0  0  0  0  0  0  0  0  0  0
   -4.3794   -2.3412    0.6733 H   0  0  0  0  0  0  0  0  0  0  0  0
   -5.6469   -1.1497    0.4435 H   0  0  0  0  0  0  0  0  0  0  0  0
  1 12  1  0  0  0  0
  1 13  1  0  0  0  0
  2 11  1  0  0  0  0
  2 29  1  0  0  0  0
  3 14  1  0  0  0  0
  3 31  1  0  0  0  0
  4 10  1  0  0  0  0
  4 24  1  0  0  0  0
  4 25  1  0  0  0  0
  4 26  1  0  0  0  0
  5 13  1  0  0  0  0
  5 15  1  0  0  0  0
  5 16  1  0  0  0  0
  6 16  2  0  0  0  0
  6 17  1  0  0  0  0
  7 15  2  0  0  0  0
  7 19  1  0  0  0  0
  8 18  1  0  0  0  0
  8 19  2  0  0  0  0
  9 18  1  0  0  0  0
  9 33  1  0  0  0  0
  9 34  1  0  0  0  0
 10 11  1  0  0  0  0
 10 12  1  0  0  0  0
 10 20  1  0  0  0  0
 11 13  1  0  0  0  0
 11 21  1  0  0  0  0
 12 14  1  0  0  0  0
 12 22  1  0  0  0  0
 13 23  1  0  0  0  0
 14 27  1  0  0  0  0
 14 28  1  0  0  0  0
 15 17  1  0  0  0  0
 16 30  1  0  0  0  0
 17 18  2  0  0  0  0
 19 32  1  0  0  0  0
M  CHG  1   4   1
M  END
> <PUBCHEM_COMPOUND_CID>
122706239

> <PUBCHEM_CONFORMER_RMSD>
0.6

> <PUBCHEM_CONFORMER_DIVERSEORDER>
2
10
13
1
16
8
14
9
4
15
11
3
5
12
7
6

> <PUBCHEM_MMFF94_PARTIAL_CHARGES>
28
1 -0.56
10 0.5
11 0.28
12 0.28
13 0.54
14 0.28
15 0.11
16 0.04
17 0.23
18 0.41
19 0.47
2 -0.68
24 0.45
25 0.45
26 0.45
29 0.4
3 -0.68
30 0.15
31 0.4
32 0.15
33 0.4
34 0.4
4 -0.85
5 0.05
6 -0.57
7 -0.57
8 -0.62
9 -0.9

> <PUBCHEM_EFFECTIVE_ROTOR_COUNT>
3

> <PUBCHEM_PHARMACOPHORE_FEATURES>
15
1 1 acceptor
1 2 acceptor
1 2 donor
1 3 acceptor
1 3 donor
1 4 cation
1 4 donor
1 9 cation
1 9 donor
3 5 6 16 cation
3 5 7 15 cation
3 7 8 19 cation
5 1 10 11 12 13 rings
5 5 6 15 16 17 rings
6 7 8 15 17 18 19 rings

> <PUBCHEM_HEAVY_ATOM_COUNT>
19

> <PUBCHEM_ATOM_DEF_STEREO_COUNT>
4

> <PUBCHEM_ATOM_UDEF_STEREO_COUNT>
0

> <PUBCHEM_BOND_DEF_STEREO_COUNT>
0

> <PUBCHEM_BOND_UDEF_STEREO_COUNT>
0

> <PUBCHEM_ISOTOPIC_ATOM_COUNT>
0

> <PUBCHEM_COMPONENT_COUNT>
1

> <PUBCHEM_CACTVS_TAUTO_COUNT>
4

> <PUBCHEM_CONFORMER_ID>
0750593F00000002

> <PUBCHEM_MMFF94_ENERGY>
44.5319

> <PUBCHEM_FEATURE_SELFOVERLAP>
76.737

> <PUBCHEM_SHAPE_FINGERPRINT>
10366900 7 18196370548643295032
10608611 8 18411133666640379269
1100329 8 16466424886597400938
11578080 2 14188458015085013626
12403259 226 18410851053866405421
12403259 415 18261391122683162997
13134695 92 17631434701645746120
13581323 91 18334010626970354645
13675066 3 18271515412655676330
14866123 147 16829816817052457202
15196674 1 18409166610700524997
15219456 202 18341891909006625445
15442244 35 18339080376544589456
15536298 74 18409445873473900050
15653759 3 18408884044464628033
16945 1 18124864905353369000
17804303 29 18336268950707714671
18186145 218 18271814488223697557
19049666 15 18411979156906776800
19591789 44 18408884014706234363
200 152 17703780406463679477
20510252 161 18410857681175224585
20645477 70 18201726154256191462
21267235 1 18408893931579836498
21501502 16 18341043124885128742
23402539 116 18338508755474366359
23559900 14 18411697652239717910
3004659 81 17970355807103352934
3286 77 18412260627556787255
335352 9 18193837042167336541
4214541 1 18335983090563925076
474 4 16227466289804432172
5104073 3 18409450276010317713
633830 44 18334005073793996879
69090 78 18272366512139287063
7364860 26 18411419536069909414
77779 3 18408323284939194413
81228 2 17972030611839680099
9709674 26 18408326609297122746

> <PUBCHEM_SHAPE_MULTIPOLES>
343.52
8.22
2.36
0.82
2.12
0.1
0.05
1.21
0.02
-1.17
0.14
-0.28
-0.15
0.72

> <PUBCHEM_SHAPE_SELFOVERLAP>
743.952

> <PUBCHEM_SHAPE_VOLUME>
186

> <PUBCHEM_COORDINATE_TYPE>
2
5
10

$$$$
