122759
  -OEChem-03292013323D

 31 32  0     1  0  0  0  0  0999 V2000
   -2.1772   -1.3571   -1.7836 O   0  0  0  0  0  0  0  0  0  0  0  0
   -2.7226   -2.6331    0.0011 O   0  0  0  0  0  0  0  0  0  0  0  0
   -2.7261    2.4263    0.9808 O   0  0  0  0  0  0  0  0  0  0  0  0
    2.0327   -2.1122   -0.1169 N   0  0  0  0  0  0  0  0  0  0  0  0
   -1.7627    0.8134   -0.3909 N   0  0  0  0  0  0  0  0  0  0  0  0
   -1.7065    3.0350   -0.9840 N   0  0  0  0  0  0  0  0  0  0  0  0
   -0.9300   -0.6323    1.4207 C   0  0  0  0  0  0  0  0  0  0  0  0
    0.3623   -0.9632    0.7866 C   0  0  0  0  0  0  0  0  0  0  0  0
   -2.0700   -0.3410    0.4158 C   0  0  2  0  0  0  0  0  0  0  0  0
    1.3876   -0.0460    0.4226 C   0  0  0  0  0  0  0  0  0  0  0  0
    2.4240   -0.7926   -0.1419 C   0  0  0  0  0  0  0  0  0  0  0  0
    0.7882   -2.2254    0.4424 C   0  0  0  0  0  0  0  0  0  0  0  0
    1.5338    1.3522    0.5197 C   0  0  0  0  0  0  0  0  0  0  0  0
    3.6039   -0.2087   -0.6163 C   0  0  0  0  0  0  0  0  0  0  0  0
   -2.3545   -1.5556   -0.4554 C   0  0  0  0  0  0  0  0  0  0  0  0
    2.7086    1.9500    0.0493 C   0  0  0  0  0  0  0  0  0  0  0  0
    3.7265    1.1796   -0.5095 C   0  0  0  0  0  0  0  0  0  0  0  0
   -2.1180    2.1107   -0.0405 C   0  0  0  0  0  0  0  0  0  0  0  0
   -0.8044    0.2331    2.0842 H   0  0  0  0  0  0  0  0  0  0  0  0
   -1.2340   -1.4643    2.0700 H   0  0  0  0  0  0  0  0  0  0  0  0
   -2.9921   -0.1263    0.9694 H   0  0  0  0  0  0  0  0  0  0  0  0
    0.3204   -3.1947    0.5451 H   0  0  0  0  0  0  0  0  0  0  0  0
    2.5851   -2.8852   -0.4616 H   0  0  0  0  0  0  0  0  0  0  0  0
    0.7560    1.9690    0.9596 H   0  0  0  0  0  0  0  0  0  0  0  0
   -1.2442    0.6768   -1.2537 H   0  0  0  0  0  0  0  0  0  0  0  0
    4.3969   -0.8075   -1.0514 H   0  0  0  0  0  0  0  0  0  0  0  0
    2.8276    3.0277    0.1231 H   0  0  0  0  0  0  0  0  0  0  0  0
    4.6308    1.6646   -0.8682 H   0  0  0  0  0  0  0  0  0  0  0  0
   -2.3730   -2.1650   -2.3045 H   0  0  0  0  0  0  0  0  0  0  0  0
   -1.2025    2.7557   -1.8189 H   0  0  0  0  0  0  0  0  0  0  0  0
   -1.8941    4.0250   -0.8663 H   0  0  0  0  0  0  0  0  0  0  0  0
  1 15  1  0  0  0  0
  1 29  1  0  0  0  0
  2 15  2  0  0  0  0
  3 18  2  0  0  0  0
  4 11  1  0  0  0  0
  4 12  1  0  0  0  0
  4 23  1  0  0  0  0
  5  9  1  0  0  0  0
  5 18  1  0  0  0  0
  5 25  1  0  0  0  0
  6 18  1  0  0  0  0
  6 30  1  0  0  0  0
  6 31  1  0  0  0  0
  7  8  1  0  0  0  0
  7  9  1  0  0  0  0
  7 19  1  0  0  0  0
  7 20  1  0  0  0  0
  8 10  1  0  0  0  0
  8 12  2  0  0  0  0
  9 15  1  0  0  0  0
  9 21  1  0  0  0  0
 10 11  1  0  0  0  0
 10 13  2  0  0  0  0
 11 14  2  0  0  0  0
 12 22  1  0  0  0  0
 13 16  1  0  0  0  0
 13 24  1  0  0  0  0
 14 17  1  0  0  0  0
 14 26  1  0  0  0  0
 16 17  2  0  0  0  0
 16 27  1  0  0  0  0
 17 28  1  0  0  0  0
M  END
> <PUBCHEM_COMPOUND_CID>
122759

> <PUBCHEM_CONFORMER_RMSD>
0.6

> <PUBCHEM_CONFORMER_DIVERSEORDER>
2
34
84
107
46
41
49
27
99
102
1
94
17
51
4
62
24
104
56
89
12
106
48
25
3
95
54
105
16
98
90
103
44
92
15
61
78
52
29
13
81
83
93
64
68
7
8
80
91
18
86
43
67
9
100
37
10
36
79
19
87
96
33
101
50
57
74
59
39
85
6
63
5
66
38
77
45
97
47
11
28
76
42
14
53
75
70
22
58
60
73
32
30
65
82
55
23
72
88
69
71
31
35
20
40
21
26

> <PUBCHEM_MMFF94_PARTIAL_CHARGES>
27
1 -0.65
11 -0.15
12 -0.3
13 -0.15
14 -0.15
15 0.66
16 -0.15
17 -0.15
18 0.69
2 -0.57
22 0.15
23 0.27
24 0.15
25 0.37
26 0.15
27 0.15
28 0.15
29 0.5
3 -0.57
30 0.37
31 0.37
4 0.03
5 -0.73
6 -0.8
7 0.18
8 -0.18
9 0.36

> <PUBCHEM_EFFECTIVE_ROTOR_COUNT>
5

> <PUBCHEM_PHARMACOPHORE_FEATURES>
10
1 1 acceptor
1 2 acceptor
1 3 acceptor
1 4 cation
1 4 donor
1 5 donor
1 6 donor
3 1 2 15 anion
5 4 8 10 11 12 rings
6 10 11 13 14 16 17 rings

> <PUBCHEM_HEAVY_ATOM_COUNT>
18

> <PUBCHEM_ATOM_DEF_STEREO_COUNT>
0

> <PUBCHEM_ATOM_UDEF_STEREO_COUNT>
1

> <PUBCHEM_BOND_DEF_STEREO_COUNT>
0

> <PUBCHEM_BOND_UDEF_STEREO_COUNT>
0

> <PUBCHEM_ISOTOPIC_ATOM_COUNT>
0

> <PUBCHEM_COMPONENT_COUNT>
1

> <PUBCHEM_CACTVS_TAUTO_COUNT>
3

> <PUBCHEM_CONFORMER_ID>
0001DF8700000002

> <PUBCHEM_MMFF94_ENERGY>
29.258

> <PUBCHEM_FEATURE_SELFOVERLAP>
50.949

> <PUBCHEM_SHAPE_FINGERPRINT>
10062212 137 18336539413968683202
10498660 4 18263076763854560765
11715629 250 18410575067736677264
12403259 226 18268992171235814712
12403260 363 18337664343333963176
13140716 1 18337389336351257840
13299463 15 18271806877520647690
13544592 271 17329701536361926704
14251745 187 18410569617555209832
14863182 85 14607520825798078183
15775835 57 18341905098924927528
16945 1 18336267963361141394
17134986 127 17902221213963757341
17492 54 17254817089201739829
18186145 218 18130803269324166778
20344682 6 18195525011364372402
21501502 16 18335419041452342930
21524375 3 17972883562132039225
22094290 62 18048597019151806920
2334 1 18408886260947412184
23402539 116 18195238051988406622
23419403 2 16027293811082513862
23557571 272 18266467674826068663
23559900 14 18128256693558592958
238 59 17031875258404806069
25 1 18190471450091484616
2748010 2 17331123205207636992
353137 74 18263915695452994611
7832392 63 18339925892290893544

> <PUBCHEM_SHAPE_MULTIPOLES>
337.88
5.56
3.16
1.08
2.27
1.11
-0.09
0.96
-1.16
-1.92
-0.25
-0.52
-0.07
-0.29

> <PUBCHEM_SHAPE_SELFOVERLAP>
725.393

> <PUBCHEM_SHAPE_VOLUME>
186.2

> <PUBCHEM_COORDINATE_TYPE>
2
5
10

$$$$
