122706486
  -OEChem-03292013293D

 33 34  0     1  0  0  0  0  0999 V2000
   -1.4448    1.2147    0.7200 O   0  0  0  0  0  0  0  0  0  0  0  0
   -0.7005   -0.7090   -0.4484 O   0  0  0  0  0  0  0  0  0  0  0  0
   -5.0689   -0.6995    0.2009 O   0  0  0  0  0  0  0  0  0  0  0  0
   -2.6864   -2.2364    0.7883 O   0  0  0  0  0  0  0  0  0  0  0  0
   -4.4215    1.7282   -1.3455 O   0  0  0  0  0  0  0  0  0  0  0  0
    4.7168   -1.1012   -0.1286 O   0  5  0  0  0  0  0  0  0  0  0  0
    3.1991    2.0619    1.3844 O   0  0  0  0  0  0  0  0  0  0  0  0
    4.4080    1.9632   -0.5379 O   0  0  0  0  0  0  0  0  0  0  0  0
   -3.7542   -0.2843   -0.1739 C   0  0  2  0  0  0  0  0  0  0  0  0
   -2.7738   -0.8183    0.8713 C   0  0  2  0  0  0  0  0  0  0  0  0
   -3.6980    1.2434   -0.2195 C   0  0  1  0  0  0  0  0  0  0  0  0
   -1.3777   -0.2138    0.7057 C   0  0  2  0  0  0  0  0  0  0  0  0
   -2.2609    1.7397   -0.3244 C   0  0  0  0  0  0  0  0  0  0  0  0
    0.6619   -0.8008   -0.3663 C   0  0  0  0  0  0  0  0  0  0  0  0
    1.4256    0.3417   -0.1279 C   0  0  0  0  0  0  0  0  0  0  0  0
    1.2874   -2.0378   -0.5221 C   0  0  0  0  0  0  0  0  0  0  0  0
    2.8148    0.2475   -0.0449 C   0  0  0  0  0  0  0  0  0  0  0  0
    2.6767   -2.1322   -0.4394 C   0  0  0  0  0  0  0  0  0  0  0  0
    3.4404   -0.9895   -0.2007 C   0  0  0  0  0  0  0  0  0  0  0  0
    3.5560    1.4826    0.2090 C   0  0  0  0  0  0  0  0  0  0  0  0
   -3.5597   -0.7195   -1.1606 H   0  0  0  0  0  0  0  0  0  0  0  0
   -3.1588   -0.5722    1.8695 H   0  0  0  0  0  0  0  0  0  0  0  0
   -4.1711    1.6530    0.6815 H   0  0  0  0  0  0  0  0  0  0  0  0
   -0.8013   -0.5095    1.5936 H   0  0  0  0  0  0  0  0  0  0  0  0
   -1.8234    1.4958   -1.3006 H   0  0  0  0  0  0  0  0  0  0  0  0
   -2.2384    2.8328   -0.2503 H   0  0  0  0  0  0  0  0  0  0  0  0
   -5.2748   -0.3106    1.0680 H   0  0  0  0  0  0  0  0  0  0  0  0
   -2.0597   -2.5331    1.4701 H   0  0  0  0  0  0  0  0  0  0  0  0
   -4.3778    2.6995   -1.3275 H   0  0  0  0  0  0  0  0  0  0  0  0
    0.9471    1.3121   -0.0304 H   0  0  0  0  0  0  0  0  0  0  0  0
    0.6970   -2.9309   -0.7076 H   0  0  0  0  0  0  0  0  0  0  0  0
    3.1381   -3.1106   -0.5649 H   0  0  0  0  0  0  0  0  0  0  0  0
    3.6979    2.8901    1.5505 H   0  0  0  0  0  0  0  0  0  0  0  0
  1 12  1  0  0  0  0
  1 13  1  0  0  0  0
  2 12  1  0  0  0  0
  2 14  1  0  0  0  0
  3  9  1  0  0  0  0
  3 27  1  0  0  0  0
  4 10  1  0  0  0  0
  4 28  1  0  0  0  0
  5 11  1  0  0  0  0
  5 29  1  0  0  0  0
  6 19  1  0  0  0  0
  7 20  1  0  0  0  0
  7 33  1  0  0  0  0
  8 20  2  0  0  0  0
  9 10  1  0  0  0  0
  9 11  1  0  0  0  0
  9 21  1  0  0  0  0
 10 12  1  0  0  0  0
 10 22  1  0  0  0  0
 11 13  1  0  0  0  0
 11 23  1  0  0  0  0
 12 24  1  0  0  0  0
 13 25  1  0  0  0  0
 13 26  1  0  0  0  0
 14 15  2  0  0  0  0
 14 16  1  0  0  0  0
 15 17  1  0  0  0  0
 15 30  1  0  0  0  0
 16 18  2  0  0  0  0
 16 31  1  0  0  0  0
 17 19  2  0  0  0  0
 17 20  1  0  0  0  0
 18 19  1  0  0  0  0
 18 32  1  0  0  0  0
M  CHG  1   6  -1
M  END
> <PUBCHEM_COMPOUND_CID>
122706486

> <PUBCHEM_CONFORMER_RMSD>
0.6

> <PUBCHEM_CONFORMER_DIVERSEORDER>
1
68
102
12
86
85
83
77
47
71
33
73
81
97
87
64
99
84
26
90
19
37
36
32
43
46
93
72
56
59
61
91
100
94
101
80
69
35
51
41
21
50
75
15
27
95
5
34
78
17
7
103
96
74
49
60
30
38
76
54
98
9
63
55
92
3
82
44
48
53
65
28
58
2
66
67
42
11
24
40
4
88
45
70
13
22
16
52
39
20
62
57
18
23
10
89
31
6
79
14
29
8
25

> <PUBCHEM_MMFF94_PARTIAL_CHARGES>
27
1 -0.56
10 0.28
11 0.28
12 0.56
13 0.28
14 0.08
15 -0.15
16 -0.15
17 0.09
18 -0.15
19 -0.17
2 -0.36
20 0.63
27 0.4
28 0.4
29 0.4
3 -0.68
30 0.15
31 0.15
32 0.15
33 0.5
4 -0.68
5 -0.68
6 -0.83
7 -0.65
8 -0.57
9 0.28

> <PUBCHEM_EFFECTIVE_ROTOR_COUNT>
4.2

> <PUBCHEM_PHARMACOPHORE_FEATURES>
13
1 1 acceptor
1 2 acceptor
1 3 acceptor
1 3 donor
1 4 acceptor
1 4 donor
1 5 acceptor
1 5 donor
1 7 acceptor
1 8 acceptor
3 7 8 20 anion
6 1 9 10 11 12 13 rings
6 14 15 16 17 18 19 rings

> <PUBCHEM_HEAVY_ATOM_COUNT>
20

> <PUBCHEM_ATOM_DEF_STEREO_COUNT>
4

> <PUBCHEM_ATOM_UDEF_STEREO_COUNT>
0

> <PUBCHEM_BOND_DEF_STEREO_COUNT>
0

> <PUBCHEM_BOND_UDEF_STEREO_COUNT>
0

> <PUBCHEM_ISOTOPIC_ATOM_COUNT>
0

> <PUBCHEM_COMPONENT_COUNT>
1

> <PUBCHEM_CACTVS_TAUTO_COUNT>
1

> <PUBCHEM_CONFORMER_ID>
07505A3600000001

> <PUBCHEM_MMFF94_ENERGY>
76.7881

> <PUBCHEM_FEATURE_SELFOVERLAP>
66.08

> <PUBCHEM_SHAPE_FINGERPRINT>
10366900 7 18336840735667398202
10498660 4 18409454712749054708
10608611 8 18410293588216839028
10646746 165 18187082823615342526
11370993 70 18408038494306117339
11405975 8 18335703797456968419
11471102 20 18342738482048107486
11595378 159 16009023934806302837
11615757 297 17775291551285114074
12403259 226 18266457607649313748
12403259 415 18261396615914594957
12403260 363 18340481158342074546
12500047 106 18187366489199921627
12507557 5 18341891862210274370
12507560 40 18335142002934106428
12633257 1 18193558869904496920
128620 24 16702300144013236615
12916754 54 18272940388378700363
13224815 77 18273218603216400235
15196674 1 18410576175817134077
15219456 202 18409450279988727531
15375358 24 18334574642181296739
15375462 6 18412267241901381344
15961568 22 17676492804026953892
17802600 8 18341331115448423186
18186145 218 18339370673046470515
200 152 17774999042811719879
20645477 56 18187369771029299789
20645477 70 18130793334643182022
20681677 76 18411698807068975368
21065198 57 18335422335434068786
21065201 7 17530969055466120427
21267235 1 18341061739078587462
21524375 3 18272374221837581342
21709351 56 18411979148538518574
221490 88 18411992342657264110
22854114 111 18273496788654331200
23402539 116 18335134263999300663
23557571 272 18113904849178418053
23559900 14 18268144258386608490
312423 11 17631467686561776738
350125 39 18411986884022414606
351380 180 18410290272628810530
3545911 37 18409172133738414772
4028521 119 18188205395471274093
4214541 1 18335986380698842783
495365 180 18270948077498265880
5104073 3 18409452466427781955
5283173 99 18260821558743979965
7808743 9 17834675277418775432
9709674 26 18340212886274758103

> <PUBCHEM_SHAPE_MULTIPOLES>
364.64
9.76
2.39
0.92
2
0.09
-0.06
2.02
0.74
-1.08
0
0.29
0.2
1.33

> <PUBCHEM_SHAPE_SELFOVERLAP>
775.874

> <PUBCHEM_SHAPE_VOLUME>
200.1

> <PUBCHEM_COORDINATE_TYPE>
2
5
10

$$$$
