122739
  -OEChem-03292013323D

 57 60  0     1  0  0  0  0  0999 V2000
   -0.4259    0.5260   -2.3172 O   0  0  0  0  0  0  0  0  0  0  0  0
   -3.0235    2.4852    0.0228 O   0  0  0  0  0  0  0  0  0  0  0  0
   -1.2480   -2.6120    0.3031 O   0  0  0  0  0  0  0  0  0  0  0  0
   -0.9773   -1.6444   -2.5104 O   0  0  0  0  0  0  0  0  0  0  0  0
    3.6448   -0.8560   -0.1901 O   0  0  0  0  0  0  0  0  0  0  0  0
    1.0957   -1.3192    1.7441 O   0  0  0  0  0  0  0  0  0  0  0  0
    5.4828   -1.6285    0.9771 O   0  0  0  0  0  0  0  0  0  0  0  0
   -0.1708    1.4052   -0.0241 C   0  0  2  0  0  0  0  0  0  0  0  0
   -1.4628    0.6069    0.4355 C   0  0  2  0  0  0  0  0  0  0  0  0
   -1.9135   -0.4456   -0.6402 C   0  0  2  0  0  0  0  0  0  0  0  0
    1.1386    0.5194    0.1769 C   0  0  1  0  0  0  0  0  0  0  0  0
   -2.6736    1.4579    0.9465 C   0  0  2  0  0  0  0  0  0  0  0  0
   -3.3865   -0.2546   -1.0793 C   0  0  0  0  0  0  0  0  0  0  0  0
    0.0077    2.7288    0.7660 C   0  0  0  0  0  0  0  0  0  0  0  0
    2.5201    1.2445   -0.0151 C   0  0  1  0  0  0  0  0  0  0  0  0
   -4.1623   -0.5276    0.2102 C   0  0  2  0  0  0  0  0  0  0  0  0
   -0.4342    1.7158   -1.5140 C   0  0  0  0  0  0  0  0  0  0  0  0
   -3.9315    0.6049    1.2301 C   0  0  0  0  0  0  0  0  0  0  0  0
   -2.0978   -1.7560    0.1213 C   0  0  0  0  0  0  0  0  0  0  0  0
    1.3227    3.4574    0.4895 C   0  0  0  0  0  0  0  0  0  0  0  0
    2.5424    2.5828    0.7526 C   0  0  0  0  0  0  0  0  0  0  0  0
   -1.0587   -0.5899   -1.8851 C   0  0  0  0  0  0  0  0  0  0  0  0
   -3.4902   -1.8016    0.6572 C   0  0  0  0  0  0  0  0  0  0  0  0
    3.6863    0.3630    0.5117 C   0  0  0  0  0  0  0  0  0  0  0  0
    2.8428    1.4803   -1.5083 C   0  0  0  0  0  0  0  0  0  0  0  0
    1.1229   -0.1079    1.5534 C   0  0  0  0  0  0  0  0  0  0  0  0
   -3.9969   -2.8314    1.3352 C   0  0  0  0  0  0  0  0  0  0  0  0
    4.6068   -1.7808    0.1365 C   0  0  0  0  0  0  0  0  0  0  0  0
    4.4396   -3.0226   -0.6858 C   0  0  0  0  0  0  0  0  0  0  0  0
   -1.1937    0.0556    1.3441 H   0  0  0  0  0  0  0  0  0  0  0  0
    1.1082   -0.3291   -0.5165 H   0  0  0  0  0  0  0  0  0  0  0  0
   -2.3904    1.9643    1.8767 H   0  0  0  0  0  0  0  0  0  0  0  0
   -3.6659   -0.9854   -1.8536 H   0  0  0  0  0  0  0  0  0  0  0  0
   -3.5881    0.7292   -1.5129 H   0  0  0  0  0  0  0  0  0  0  0  0
   -0.0547    2.5271    1.8426 H   0  0  0  0  0  0  0  0  0  0  0  0
   -0.8023    3.4298    0.5381 H   0  0  0  0  0  0  0  0  0  0  0  0
   -5.2299   -0.6804    0.0226 H   0  0  0  0  0  0  0  0  0  0  0  0
   -1.3875    2.2241   -1.6843 H   0  0  0  0  0  0  0  0  0  0  0  0
    0.3103    2.3868   -1.9379 H   0  0  0  0  0  0  0  0  0  0  0  0
   -4.8145    1.2566    1.2211 H   0  0  0  0  0  0  0  0  0  0  0  0
   -3.8643    0.1876    2.2430 H   0  0  0  0  0  0  0  0  0  0  0  0
    1.3386    3.8368   -0.5372 H   0  0  0  0  0  0  0  0  0  0  0  0
    1.3777    4.3426    1.1351 H   0  0  0  0  0  0  0  0  0  0  0  0
    3.4485    3.1480    0.4989 H   0  0  0  0  0  0  0  0  0  0  0  0
    2.6015    2.3922    1.8322 H   0  0  0  0  0  0  0  0  0  0  0  0
    3.6121    0.1859    1.5912 H   0  0  0  0  0  0  0  0  0  0  0  0
    4.6497    0.8586    0.3326 H   0  0  0  0  0  0  0  0  0  0  0  0
    3.9067    1.7049   -1.6539 H   0  0  0  0  0  0  0  0  0  0  0  0
    2.6082    0.6009   -2.1178 H   0  0  0  0  0  0  0  0  0  0  0  0
    2.3117    2.3330   -1.9308 H   0  0  0  0  0  0  0  0  0  0  0  0
    1.1397    0.5855    2.4109 H   0  0  0  0  0  0  0  0  0  0  0  0
   -3.7145    3.0315    0.4344 H   0  0  0  0  0  0  0  0  0  0  0  0
   -5.0270   -2.8162    1.6743 H   0  0  0  0  0  0  0  0  0  0  0  0
   -3.4022   -3.7077    1.5688 H   0  0  0  0  0  0  0  0  0  0  0  0
    4.5513   -2.7815   -1.7458 H   0  0  0  0  0  0  0  0  0  0  0  0
    3.4585   -3.4636   -0.4926 H   0  0  0  0  0  0  0  0  0  0  0  0
    5.2095   -3.7483   -0.4090 H   0  0  0  0  0  0  0  0  0  0  0  0
  1 17  1  0  0  0  0
  1 22  1  0  0  0  0
  2 12  1  0  0  0  0
  2 52  1  0  0  0  0
  3 19  2  0  0  0  0
  4 22  2  0  0  0  0
  5 24  1  0  0  0  0
  5 28  1  0  0  0  0
  6 26  2  0  0  0  0
  7 28  2  0  0  0  0
  8  9  1  0  0  0  0
  8 11  1  0  0  0  0
  8 14  1  0  0  0  0
  8 17  1  0  0  0  0
  9 10  1  0  0  0  0
  9 12  1  0  0  0  0
  9 30  1  0  0  0  0
 10 13  1  0  0  0  0
 10 19  1  0  0  0  0
 10 22  1  0  0  0  0
 11 15  1  0  0  0  0
 11 26  1  0  0  0  0
 11 31  1  0  0  0  0
 12 18  1  0  0  0  0
 12 32  1  0  0  0  0
 13 16  1  0  0  0  0
 13 33  1  0  0  0  0
 13 34  1  0  0  0  0
 14 20  1  0  0  0  0
 14 35  1  0  0  0  0
 14 36  1  0  0  0  0
 15 21  1  0  0  0  0
 15 24  1  0  0  0  0
 15 25  1  0  0  0  0
 16 18  1  0  0  0  0
 16 23  1  0  0  0  0
 16 37  1  0  0  0  0
 17 38  1  0  0  0  0
 17 39  1  0  0  0  0
 18 40  1  0  0  0  0
 18 41  1  0  0  0  0
 19 23  1  0  0  0  0
 20 21  1  0  0  0  0
 20 42  1  0  0  0  0
 20 43  1  0  0  0  0
 21 44  1  0  0  0  0
 21 45  1  0  0  0  0
 23 27  2  0  0  0  0
 24 46  1  0  0  0  0
 24 47  1  0  0  0  0
 25 48  1  0  0  0  0
 25 49  1  0  0  0  0
 25 50  1  0  0  0  0
 26 51  1  0  0  0  0
 27 53  1  0  0  0  0
 27 54  1  0  0  0  0
 28 29  1  0  0  0  0
 29 55  1  0  0  0  0
 29 56  1  0  0  0  0
 29 57  1  0  0  0  0
M  END
> <PUBCHEM_COMPOUND_CID>
122739

> <PUBCHEM_CONFORMER_RMSD>
0.8

> <PUBCHEM_CONFORMER_DIVERSEORDER>
1
8
7
52
36
31
43
5
18
53
17
29
60
3
54
30
14
25
15
9
46
35
27
58
51
50
16
10
56
49
22
45
19
4
42
2
32
44
34
20
26
55
6
12
13
23
57
59
21
28
61
39
37
38
40
33
47
48
11
24
41

> <PUBCHEM_MMFF94_PARTIAL_CHARGES>
24
1 -0.43
10 0.12
11 0.06
12 0.28
16 0.14
17 0.28
19 0.49
2 -0.68
22 0.66
23 -0.12
24 0.28
26 0.45
27 -0.3
28 0.66
29 0.06
3 -0.57
4 -0.57
5 -0.43
51 0.06
52 0.4
53 0.15
54 0.15
6 -0.57
7 -0.57

> <PUBCHEM_EFFECTIVE_ROTOR_COUNT>
6

> <PUBCHEM_PHARMACOPHORE_FEATURES>
9
1 2 acceptor
1 2 donor
1 3 acceptor
1 4 acceptor
1 6 acceptor
1 7 acceptor
6 1 8 9 10 17 22 rings
6 8 11 14 15 20 21 rings
8 9 10 12 13 16 18 19 23 rings

> <PUBCHEM_HEAVY_ATOM_COUNT>
29

> <PUBCHEM_ATOM_DEF_STEREO_COUNT>
5

> <PUBCHEM_ATOM_UDEF_STEREO_COUNT>
2

> <PUBCHEM_BOND_DEF_STEREO_COUNT>
0

> <PUBCHEM_BOND_UDEF_STEREO_COUNT>
0

> <PUBCHEM_ISOTOPIC_ATOM_COUNT>
0

> <PUBCHEM_COMPONENT_COUNT>
1

> <PUBCHEM_CACTVS_TAUTO_COUNT>
2

> <PUBCHEM_CONFORMER_ID>
0001DF7300000001

> <PUBCHEM_MMFF94_ENERGY>
112.8582

> <PUBCHEM_FEATURE_SELFOVERLAP>
45.7

> <PUBCHEM_SHAPE_FINGERPRINT>
10863032 1 18266745868727197009
1100329 8 16179895442101938026
11578080 2 17896860227216646189
11725454 13 12247415457221625003
12011746 2 18262792961569870029
12422481 6 17558566706923295554
12596599 1 18186236246869925691
12623949 98 17975997649540222435
12633257 1 18270981075864013017
12788726 201 18059310772602625688
12892183 10 18197221558101254585
13140716 1 18271813397244385281
13224815 77 17169254026320478449
13533116 47 18339363097257163667
13583140 156 18195522817073895333
14223421 5 18265329693424246081
14787075 74 17256244277260247441
14790565 3 17402614048136102936
14866123 147 17908427956870152178
15209289 33 18259989245157074290
16945 1 18339929341213241045
17349148 13 16988279906305692725
17492 89 18266180710965835795
1813 80 18114749227074900004
19930381 70 18195246847797053707
20691752 17 16370996468573491595
20775530 9 18188489193820187042
21403212 168 18055354631081762913
23559900 14 18339637948861664608
23566358 27 18263649618329932380
3286 77 18335422408653890376
5104073 3 18272378611009263721
5486654 36 18408329864939823210
6287921 2 17899982925911171006
70251023 43 18127387150926341951
7097593 13 18129097994987048348

> <PUBCHEM_SHAPE_MULTIPOLES>
555.72
8.42
3.57
1.72
4.41
0.1
-0.83
-5.96
2.01
1.65
0.61
-0.38
-0.26
0.28

> <PUBCHEM_SHAPE_SELFOVERLAP>
1198.842

> <PUBCHEM_SHAPE_VOLUME>
298.5

> <PUBCHEM_COORDINATE_TYPE>
2
5
10

$$$$
