122706012
  -OEChem-03292013293D

 44 44  0     1  0  0  0  0  0999 V2000
   -0.9577   -2.2954    1.4196 O   0  0  0  0  0  0  0  0  0  0  0  0
   -0.4811    2.0672    0.5815 O   0  0  0  0  0  0  0  0  0  0  0  0
    0.3592   -4.3001    0.0648 O   0  0  0  0  0  0  0  0  0  0  0  0
    4.4493    0.2281   -2.1527 O   0  0  0  0  0  0  0  0  0  0  0  0
    3.8370    0.5340    2.0879 O   0  5  0  0  0  0  0  0  0  0  0  0
    5.3491    0.6131    0.3814 O   0  0  0  0  0  0  0  0  0  0  0  0
   -5.1717    2.0364   -1.0706 O   0  5  0  0  0  0  0  0  0  0  0  0
   -6.1553    0.6474    0.4579 O   0  0  0  0  0  0  0  0  0  0  0  0
    1.8807    0.5532    0.4792 N   0  0  0  0  0  0  0  0  0  0  0  0
   -2.8870    0.7929   -0.0820 N   0  0  0  0  0  0  0  0  0  0  0  0
   -0.6873   -2.1530    0.0205 C   0  0  2  0  0  0  0  0  0  0  0  0
    0.6675   -1.4555   -0.1668 C   0  0  0  0  0  0  0  0  0  0  0  0
   -1.8168   -1.3343   -0.5986 C   0  0  0  0  0  0  0  0  0  0  0  0
    0.6532    0.0157    0.1913 C   0  0  0  0  0  0  0  0  0  0  0  0
   -0.6564   -3.5595   -0.5833 C   0  0  0  0  0  0  0  0  0  0  0  0
   -1.7884    0.1069   -0.1288 C   0  0  0  0  0  0  0  0  0  0  0  0
   -0.4858    0.7309    0.2310 C   0  0  0  0  0  0  0  0  0  0  0  0
    3.0986    0.1078   -0.1387 C   0  0  1  0  0  0  0  0  0  0  0  0
    3.2560    0.7125   -1.5381 C   0  0  1  0  0  0  0  0  0  0  0  0
    4.1979    0.4455    0.8815 C   0  0  0  0  0  0  0  0  0  0  0  0
    3.3053    2.2370   -1.5078 C   0  0  0  0  0  0  0  0  0  0  0  0
   -4.0744    0.0451   -0.4619 C   0  0  0  0  0  0  0  0  0  0  0  0
   -0.6438    2.2186    1.9777 C   0  0  0  0  0  0  0  0  0  0  0  0
   -5.2482    1.0053   -0.3450 C   0  0  0  0  0  0  0  0  0  0  0  0
    1.0037   -1.5602   -1.2063 H   0  0  0  0  0  0  0  0  0  0  0  0
    1.3888   -1.9671    0.4841 H   0  0  0  0  0  0  0  0  0  0  0  0
   -2.7384   -1.8544   -0.3357 H   0  0  0  0  0  0  0  0  0  0  0  0
   -1.7320   -1.3222   -1.6927 H   0  0  0  0  0  0  0  0  0  0  0  0
   -0.4506   -3.5343   -1.6585 H   0  0  0  0  0  0  0  0  0  0  0  0
   -1.6056   -4.0786   -0.4121 H   0  0  0  0  0  0  0  0  0  0  0  0
    1.8666    1.5085    0.8266 H   0  0  0  0  0  0  0  0  0  0  0  0
    3.1634   -0.9842   -0.2180 H   0  0  0  0  0  0  0  0  0  0  0  0
   -0.9513   -1.4178    1.8356 H   0  0  0  0  0  0  0  0  0  0  0  0
    2.4197    0.4074   -2.1780 H   0  0  0  0  0  0  0  0  0  0  0  0
    0.3632   -5.1888   -0.3296 H   0  0  0  0  0  0  0  0  0  0  0  0
    4.1524    2.6095   -0.9234 H   0  0  0  0  0  0  0  0  0  0  0  0
    3.4474    2.6225   -2.5240 H   0  0  0  0  0  0  0  0  0  0  0  0
    2.3839    2.6726   -1.1109 H   0  0  0  0  0  0  0  0  0  0  0  0
   -4.2815   -0.7789    0.2313 H   0  0  0  0  0  0  0  0  0  0  0  0
   -4.0427   -0.3096   -1.4988 H   0  0  0  0  0  0  0  0  0  0  0  0
   -0.6436    3.2888    2.2056 H   0  0  0  0  0  0  0  0  0  0  0  0
    0.1795    1.7579    2.5346 H   0  0  0  0  0  0  0  0  0  0  0  0
   -1.5997    1.8041    2.3165 H   0  0  0  0  0  0  0  0  0  0  0  0
    4.3867   -0.7416   -2.1887 H   0  0  0  0  0  0  0  0  0  0  0  0
  1 11  1  0  0  0  0
  1 33  1  0  0  0  0
  2 17  1  0  0  0  0
  2 23  1  0  0  0  0
  3 15  1  0  0  0  0
  3 35  1  0  0  0  0
  4 19  1  0  0  0  0
  4 44  1  0  0  0  0
  5 20  1  0  0  0  0
  6 20  2  0  0  0  0
  7 24  1  0  0  0  0
  8 24  2  0  0  0  0
  9 14  1  0  0  0  0
  9 18  1  0  0  0  0
  9 31  1  0  0  0  0
 10 16  2  0  0  0  0
 10 22  1  0  0  0  0
 11 12  1  0  0  0  0
 11 13  1  0  0  0  0
 11 15  1  0  0  0  0
 12 14  1  0  0  0  0
 12 25  1  0  0  0  0
 12 26  1  0  0  0  0
 13 16  1  0  0  0  0
 13 27  1  0  0  0  0
 13 28  1  0  0  0  0
 14 17  2  0  0  0  0
 15 29  1  0  0  0  0
 15 30  1  0  0  0  0
 16 17  1  0  0  0  0
 18 19  1  0  0  0  0
 18 20  1  0  0  0  0
 18 32  1  0  0  0  0
 19 21  1  0  0  0  0
 19 34  1  0  0  0  0
 21 36  1  0  0  0  0
 21 37  1  0  0  0  0
 21 38  1  0  0  0  0
 22 24  1  0  0  0  0
 22 39  1  0  0  0  0
 22 40  1  0  0  0  0
 23 41  1  0  0  0  0
 23 42  1  0  0  0  0
 23 43  1  0  0  0  0
M  CHG  2   5  -1   7  -1
M  END
> <PUBCHEM_COMPOUND_CID>
122706012

> <PUBCHEM_CONFORMER_RMSD>
1

> <PUBCHEM_CONFORMER_DIVERSEORDER>
1
30
28
26
44
19
21
47
31
51
45
52
43
38
34
33
7
50
48
15
37
39
36
49
53
42
2
22
32
40
12
20
25
46
24
13
54
10
9
55
29
16
14
41
4
8
6
3
18
27
35
23
5
11
17

> <PUBCHEM_MMFF94_PARTIAL_CHARGES>
27
1 -0.68
10 -0.7
11 0.28
12 0.14
13 0.06
14 -0.04
15 0.28
16 0.37
17 0.09
18 0.26
19 0.28
2 -0.36
20 0.91
22 0.14
23 0.28
24 0.91
3 -0.68
31 0.4
33 0.4
35 0.4
4 -0.68
44 0.4
5 -0.9
6 -0.9
7 -0.9
8 -0.9
9 -0.87

> <PUBCHEM_EFFECTIVE_ROTOR_COUNT>
8.6

> <PUBCHEM_PHARMACOPHORE_FEATURES>
17
1 1 acceptor
1 1 donor
1 10 acceptor
1 2 acceptor
1 3 acceptor
1 3 donor
1 4 acceptor
1 4 donor
1 5 acceptor
1 6 acceptor
1 7 acceptor
1 8 acceptor
1 9 cation
1 9 donor
3 5 6 20 anion
3 7 8 24 anion
6 11 12 13 14 16 17 rings

> <PUBCHEM_HEAVY_ATOM_COUNT>
24

> <PUBCHEM_ATOM_DEF_STEREO_COUNT>
3

> <PUBCHEM_ATOM_UDEF_STEREO_COUNT>
0

> <PUBCHEM_BOND_DEF_STEREO_COUNT>
0

> <PUBCHEM_BOND_UDEF_STEREO_COUNT>
0

> <PUBCHEM_ISOTOPIC_ATOM_COUNT>
0

> <PUBCHEM_COMPONENT_COUNT>
1

> <PUBCHEM_CACTVS_TAUTO_COUNT>
8

> <PUBCHEM_CONFORMER_ID>
0750585C00000001

> <PUBCHEM_MMFF94_ENERGY>
67.9154

> <PUBCHEM_FEATURE_SELFOVERLAP>
86.414

> <PUBCHEM_SHAPE_FINGERPRINT>
10090160 65 18335696109919214959
10366900 7 17346325920889243832
10906281 52 17774442810256300080
11578080 2 17321221991431033356
12236239 1 17967527991543798912
12293681 160 18202570565889925985
12553582 1 17690286332137564082
12592029 89 17749669597494862857
12788726 201 17829894591596037418
12895836 83 18188784966610846092
133893 2 17829908541475202730
13533116 47 18130220450921054026
13583140 156 17023481848457282112
14115302 16 18410292553683855492
14790565 3 18412830187824404689
15775530 1 17481413199003420449
16752209 62 18265614462677997314
17980427 23 18194944461421202748
19784866 9 18334849477344147027
20600515 1 18271230742313416656
20645476 183 18187931728317989038
21781051 124 18262255381535267827
23366157 5 17828489068101422939
23402539 116 18130212835268545396
23557571 272 17985550185598043834
23558518 356 17913228480382179328
23559900 14 18202008759231164156
23598288 3 17971479739144650778
3084891 72 18343018899877404811
350125 39 18195806263329642954
3759504 43 18187650236477978527
394222 165 18040995103279285131
4340502 62 17312825953158242507
5385378 56 18340774720011020579
59755656 215 18269835324681852670
59755656 520 18409439293768775094
7226269 152 18273207616753815768
81228 2 17917447431431984896
81539 233 18262515888861090127

> <PUBCHEM_SHAPE_MULTIPOLES>
436.99
10.14
3.3
1.51
4.94
4.05
0.1
-6.97
-2.04
1.23
0.11
-1.63
-0.72
-0.12

> <PUBCHEM_SHAPE_SELFOVERLAP>
893.682

> <PUBCHEM_SHAPE_VOLUME>
250

> <PUBCHEM_COORDINATE_TYPE>
2
5
10

$$$$
