122873
  -OEChem-03292013323D

 29 30  0     1  0  0  0  0  0999 V2000
   -3.6046    0.4568   -0.4774 P   0  0  2  0  0  0  0  0  0  0  0  0
   -1.0820    0.5313    0.1015 O   0  0  0  0  0  0  0  0  0  0  0  0
   -3.3769   -1.1240   -0.2163 O   0  0  0  0  0  0  0  0  0  0  0  0
   -3.8876    1.0628    0.9953 O   0  0  0  0  0  0  0  0  0  0  0  0
   -4.6565    0.7828   -1.4955 O   0  0  0  0  0  0  0  0  0  0  0  0
    1.2312    1.1988    1.7099 O   0  0  0  0  0  0  0  0  0  0  0  0
    1.4274   -0.7126    0.4345 N   0  0  0  0  0  0  0  0  0  0  0  0
    3.0509    1.0468    0.3617 N   0  0  0  0  0  0  0  0  0  0  0  0
    4.9122    0.8858   -1.0230 N   0  0  0  0  0  0  0  0  0  0  0  0
   -0.9955   -0.8993    0.0760 C   0  0  1  0  0  0  0  0  0  0  0  0
    0.1937   -1.3037    0.9352 C   0  0  0  0  0  0  0  0  0  0  0  0
   -2.2882   -1.5008    0.6197 C   0  0  0  0  0  0  0  0  0  0  0  0
   -1.9779    1.0415   -0.8827 C   0  0  0  0  0  0  0  0  0  0  0  0
    2.1534   -1.4239   -0.4941 C   0  0  0  0  0  0  0  0  0  0  0  0
    1.8687    0.5469    0.8808 C   0  0  0  0  0  0  0  0  0  0  0  0
    3.2918   -0.9600   -1.0060 C   0  0  0  0  0  0  0  0  0  0  0  0
    3.7400    0.3708   -0.5197 C   0  0  0  0  0  0  0  0  0  0  0  0
   -0.8344   -1.2205   -0.9614 H   0  0  0  0  0  0  0  0  0  0  0  0
    0.2985   -2.3946    0.9816 H   0  0  0  0  0  0  0  0  0  0  0  0
    0.0441   -0.9496    1.9628 H   0  0  0  0  0  0  0  0  0  0  0  0
   -2.2365   -2.5937    0.6337 H   0  0  0  0  0  0  0  0  0  0  0  0
   -2.4990   -1.1502    1.6356 H   0  0  0  0  0  0  0  0  0  0  0  0
   -1.9398    2.1336   -0.8481 H   0  0  0  0  0  0  0  0  0  0  0  0
   -1.6594    0.7211   -1.8799 H   0  0  0  0  0  0  0  0  0  0  0  0
    1.7573   -2.3858   -0.8001 H   0  0  0  0  0  0  0  0  0  0  0  0
   -4.7576    0.8975    1.4170 H   0  0  0  0  0  0  0  0  0  0  0  0
    3.8754   -1.5026   -1.7376 H   0  0  0  0  0  0  0  0  0  0  0  0
    5.2559    1.7906   -0.7197 H   0  0  0  0  0  0  0  0  0  0  0  0
    5.4691    0.3856   -1.7081 H   0  0  0  0  0  0  0  0  0  0  0  0
  1  3  1  0  0  0  0
  1  4  1  0  0  0  0
  1  5  2  0  0  0  0
  1 13  1  0  0  0  0
  2 10  1  0  0  0  0
  2 13  1  0  0  0  0
  3 12  1  0  0  0  0
  4 26  1  0  0  0  0
  6 15  2  0  0  0  0
  7 11  1  0  0  0  0
  7 14  1  0  0  0  0
  7 15  1  0  0  0  0
  8 15  1  0  0  0  0
  8 17  2  0  0  0  0
  9 17  1  0  0  0  0
  9 28  1  0  0  0  0
  9 29  1  0  0  0  0
 10 11  1  0  0  0  0
 10 12  1  0  0  0  0
 10 18  1  0  0  0  0
 11 19  1  0  0  0  0
 11 20  1  0  0  0  0
 12 21  1  0  0  0  0
 12 22  1  0  0  0  0
 13 23  1  0  0  0  0
 13 24  1  0  0  0  0
 14 16  2  0  0  0  0
 14 25  1  0  0  0  0
 16 17  1  0  0  0  0
 16 27  1  0  0  0  0
M  END
> <PUBCHEM_COMPOUND_CID>
122873

> <PUBCHEM_CONFORMER_RMSD>
0.6

> <PUBCHEM_CONFORMER_DIVERSEORDER>
1
7
4
12
11
3
9
8
10
5
2
6

> <PUBCHEM_MMFF94_PARTIAL_CHARGES>
22
1 1.24
10 0.28
11 0.3
12 0.28
13 0.28
14 -0.04
15 0.84
16 -0.14
17 0.49
2 -0.56
25 0.15
26 0.5
27 0.15
28 0.4
29 0.4
3 -0.55
4 -0.77
5 -0.7
6 -0.57
7 -0.47
8 -0.66
9 -0.85

> <PUBCHEM_EFFECTIVE_ROTOR_COUNT>
3

> <PUBCHEM_PHARMACOPHORE_FEATURES>
8
1 2 acceptor
1 4 acceptor
1 5 acceptor
1 6 acceptor
1 8 donor
1 9 donor
6 1 2 3 10 12 13 rings
6 7 8 14 15 16 17 rings

> <PUBCHEM_HEAVY_ATOM_COUNT>
17

> <PUBCHEM_ATOM_DEF_STEREO_COUNT>
1

> <PUBCHEM_ATOM_UDEF_STEREO_COUNT>
0

> <PUBCHEM_BOND_DEF_STEREO_COUNT>
0

> <PUBCHEM_BOND_UDEF_STEREO_COUNT>
0

> <PUBCHEM_ISOTOPIC_ATOM_COUNT>
0

> <PUBCHEM_COMPONENT_COUNT>
1

> <PUBCHEM_CACTVS_TAUTO_COUNT>
3

> <PUBCHEM_CONFORMER_ID>
0001DFF900000001

> <PUBCHEM_MMFF94_ENERGY>
22.2691

> <PUBCHEM_FEATURE_SELFOVERLAP>
40.655

> <PUBCHEM_SHAPE_FINGERPRINT>
10498660 4 18113891659175700653
10751810 167 16415480424289924849
11132069 177 18040433300034632669
11471102 20 18202283598092869058
11543360 7 17274811489473406823
12251169 10 10737289060685395632
13583140 156 14707205565323575911
13693222 15 8142077658967643819
13764800 53 17531254954343373259
14252887 29 11602809199702186264
14289901 80 12829207767494286861
14993402 34 16702026383098483086
15775835 57 16660640769592053828
16752209 62 13829855647760263987
18186145 218 18410014303731614563
19050596 39 12901553433583953797
19862831 5 17275386495094111875
200 152 17203892954768824810
20361792 2 15339115740834415890
20645477 70 18130234769988877358
20871999 31 18339073899929502007
21637258 2 13757804664114913476
22646028 28 13110959842467560695
231179 274 17967248689461726892
23402539 116 18113894996613059958
23402655 69 18272373066111304366
23557571 272 18263092165496793455
23559900 14 18410860937140385806
25 1 18341898467611798474
2838139 119 17532945011670229468
3060560 45 17703782631088011982
3472631 163 17603303773588951645
4028521 119 18261106357734798511
42 15 11095884877921163919
474 4 15864926485514728068
4990 188 18272929410267971887
74978 22 16917059001450067091
93112 12 17846491560840059239
9882013 296 11530773612422451419

> <PUBCHEM_SHAPE_MULTIPOLES>
309.41
8.68
1.55
1.24
0.65
0.32
0.16
-2.88
-3.04
0.2
0.05
-0.05
-0.27
0.55

> <PUBCHEM_SHAPE_SELFOVERLAP>
629.722

> <PUBCHEM_SHAPE_VOLUME>
179.2

> <PUBCHEM_COORDINATE_TYPE>
2
5
10

$$$$
