122851
  -OEChem-03292013323D

 48 51  0     1  0  0  0  0  0999 V2000
    4.2687    0.9136   -0.0990 O   0  0  0  0  0  0  0  0  0  0  0  0
    6.8613    1.6779    0.2610 O   0  0  0  0  0  0  0  0  0  0  0  0
    0.8334   -2.4774   -0.4070 O   0  0  0  0  0  0  0  0  0  0  0  0
   -0.2940    2.1927   -0.0004 O   0  0  0  0  0  0  0  0  0  0  0  0
   -2.4724    2.8693    0.0246 O   0  0  0  0  0  0  0  0  0  0  0  0
   -3.5804   -0.0067    2.2458 O   0  0  0  0  0  0  0  0  0  0  0  0
   -7.5614   -0.7945   -0.2449 O   0  0  0  0  0  0  0  0  0  0  0  0
    5.2802   -0.1002    0.0518 C   0  0  1  0  0  0  0  0  0  0  0  0
    4.9506   -1.3596   -0.7656 C   0  0  0  0  0  0  0  0  0  0  0  0
    3.5981   -1.9375   -0.3738 C   0  0  0  0  0  0  0  0  0  0  0  0
    2.5756   -0.8435   -0.2784 C   0  0  0  0  0  0  0  0  0  0  0  0
    2.9646    0.4959   -0.1406 C   0  0  0  0  0  0  0  0  0  0  0  0
    6.5773    0.5169   -0.4917 C   0  0  0  0  0  0  0  0  0  0  0  0
    5.4701   -0.3958    1.5473 C   0  0  0  0  0  0  0  0  0  0  0  0
    1.2088   -1.1677   -0.2961 C   0  0  0  0  0  0  0  0  0  0  0  0
    0.2403   -0.1649   -0.2046 C   0  0  0  0  0  0  0  0  0  0  0  0
    2.0005    1.5020   -0.0579 C   0  0  0  0  0  0  0  0  0  0  0  0
    0.6522    1.1551   -0.0903 C   0  0  0  0  0  0  0  0  0  0  0  0
   -1.1837   -0.4571   -0.2228 C   0  0  0  0  0  0  0  0  0  0  0  0
   -2.0926    0.5266   -0.1433 C   0  0  0  0  0  0  0  0  0  0  0  0
   -1.6643    1.9478   -0.0311 C   0  0  0  0  0  0  0  0  0  0  0  0
   -3.5257    0.1788   -0.1499 C   0  0  0  0  0  0  0  0  0  0  0  0
    0.6635   -3.2030    0.8066 C   0  0  0  0  0  0  0  0  0  0  0  0
   -4.2122   -0.0735    1.0391 C   0  0  0  0  0  0  0  0  0  0  0  0
   -4.1983    0.1037   -1.3705 C   0  0  0  0  0  0  0  0  0  0  0  0
   -5.5678   -0.4005    1.0072 C   0  0  0  0  0  0  0  0  0  0  0  0
   -5.5538   -0.2232   -1.4023 C   0  0  0  0  0  0  0  0  0  0  0  0
   -6.2386   -0.4754   -0.2135 C   0  0  0  0  0  0  0  0  0  0  0  0
    5.7301   -2.1224   -0.6520 H   0  0  0  0  0  0  0  0  0  0  0  0
    4.9123   -1.0948   -1.8316 H   0  0  0  0  0  0  0  0  0  0  0  0
    3.6751   -2.4510    0.5906 H   0  0  0  0  0  0  0  0  0  0  0  0
    3.3069   -2.6793   -1.1266 H   0  0  0  0  0  0  0  0  0  0  0  0
    6.4720    0.8154   -1.5404 H   0  0  0  0  0  0  0  0  0  0  0  0
    7.4235   -0.1722   -0.4066 H   0  0  0  0  0  0  0  0  0  0  0  0
    6.2896   -1.1028    1.7139 H   0  0  0  0  0  0  0  0  0  0  0  0
    5.6753    0.5172    2.1175 H   0  0  0  0  0  0  0  0  0  0  0  0
    4.5641   -0.8160    1.9963 H   0  0  0  0  0  0  0  0  0  0  0  0
    2.2966    2.5432    0.0367 H   0  0  0  0  0  0  0  0  0  0  0  0
   -1.4990   -1.4927   -0.3067 H   0  0  0  0  0  0  0  0  0  0  0  0
    6.1089    2.2860    0.1615 H   0  0  0  0  0  0  0  0  0  0  0  0
   -0.1168   -2.7511    1.4270 H   0  0  0  0  0  0  0  0  0  0  0  0
    1.5994   -3.2524    1.3704 H   0  0  0  0  0  0  0  0  0  0  0  0
    0.3575   -4.2221    0.5544 H   0  0  0  0  0  0  0  0  0  0  0  0
   -3.6800    0.2981   -2.3065 H   0  0  0  0  0  0  0  0  0  0  0  0
   -6.1034   -0.5972    1.9329 H   0  0  0  0  0  0  0  0  0  0  0  0
   -6.0711   -0.2798   -2.3561 H   0  0  0  0  0  0  0  0  0  0  0  0
   -4.2172   -0.2128    2.9515 H   0  0  0  0  0  0  0  0  0  0  0  0
   -7.8737   -0.9360    0.6653 H   0  0  0  0  0  0  0  0  0  0  0  0
  1  8  1  0  0  0  0
  1 12  1  0  0  0  0
  2 13  1  0  0  0  0
  2 40  1  0  0  0  0
  3 15  1  0  0  0  0
  3 23  1  0  0  0  0
  4 18  1  0  0  0  0
  4 21  1  0  0  0  0
  5 21  2  0  0  0  0
  6 24  1  0  0  0  0
  6 47  1  0  0  0  0
  7 28  1  0  0  0  0
  7 48  1  0  0  0  0
  8  9  1  0  0  0  0
  8 13  1  0  0  0  0
  8 14  1  0  0  0  0
  9 10  1  0  0  0  0
  9 29  1  0  0  0  0
  9 30  1  0  0  0  0
 10 11  1  0  0  0  0
 10 31  1  0  0  0  0
 10 32  1  0  0  0  0
 11 12  2  0  0  0  0
 11 15  1  0  0  0  0
 12 17  1  0  0  0  0
 13 33  1  0  0  0  0
 13 34  1  0  0  0  0
 14 35  1  0  0  0  0
 14 36  1  0  0  0  0
 14 37  1  0  0  0  0
 15 16  2  0  0  0  0
 16 18  1  0  0  0  0
 16 19  1  0  0  0  0
 17 18  2  0  0  0  0
 17 38  1  0  0  0  0
 19 20  2  0  0  0  0
 19 39  1  0  0  0  0
 20 21  1  0  0  0  0
 20 22  1  0  0  0  0
 22 24  2  0  0  0  0
 22 25  1  0  0  0  0
 23 41  1  0  0  0  0
 23 42  1  0  0  0  0
 23 43  1  0  0  0  0
 24 26  1  0  0  0  0
 25 27  2  0  0  0  0
 25 44  1  0  0  0  0
 26 28  2  0  0  0  0
 26 45  1  0  0  0  0
 27 28  1  0  0  0  0
 27 46  1  0  0  0  0
M  END
> <PUBCHEM_COMPOUND_CID>
122851

> <PUBCHEM_CONFORMER_RMSD>
0.8

> <PUBCHEM_CONFORMER_DIVERSEORDER>
5
8
3
10
7
9
2
4
6
1

> <PUBCHEM_MMFF94_PARTIAL_CHARGES>
34
1 -0.36
10 0.14
11 -0.14
12 0.08
13 0.28
15 0.08
16 0.03
17 -0.15
18 0.08
19 -0.18
2 -0.68
20 -0.01
21 0.71
22 0.03
23 0.28
24 0.08
25 -0.15
26 -0.15
27 -0.15
28 0.08
3 -0.36
38 0.15
39 0.15
4 -0.23
40 0.4
44 0.15
45 0.15
46 0.15
47 0.45
48 0.45
5 -0.57
6 -0.53
7 -0.53
8 0.28

> <PUBCHEM_EFFECTIVE_ROTOR_COUNT>
3.8

> <PUBCHEM_PHARMACOPHORE_FEATURES>
11
1 1 acceptor
1 2 acceptor
1 2 donor
1 3 acceptor
1 5 acceptor
1 6 donor
1 7 donor
6 1 8 9 10 11 12 rings
6 11 12 15 16 17 18 rings
6 22 24 25 26 27 28 rings
6 4 16 18 19 20 21 rings

> <PUBCHEM_HEAVY_ATOM_COUNT>
28

> <PUBCHEM_ATOM_DEF_STEREO_COUNT>
0

> <PUBCHEM_ATOM_UDEF_STEREO_COUNT>
1

> <PUBCHEM_BOND_DEF_STEREO_COUNT>
0

> <PUBCHEM_BOND_UDEF_STEREO_COUNT>
0

> <PUBCHEM_ISOTOPIC_ATOM_COUNT>
0

> <PUBCHEM_COMPONENT_COUNT>
1

> <PUBCHEM_CACTVS_TAUTO_COUNT>
12

> <PUBCHEM_CONFORMER_ID>
0001DFE300000005

> <PUBCHEM_MMFF94_ENERGY>
108.8799

> <PUBCHEM_FEATURE_SELFOVERLAP>
55.884

> <PUBCHEM_SHAPE_FINGERPRINT>
10 15 18113895009904533408
10050765 1 18122624951133306765
1100329 8 18338516477076237702
11315181 36 17458069274234167229
11421498 54 17131558228082654739
11488393 25 17486502494641932726
11578080 2 17170666671360720983
11719270 70 18334006177363786730
11796584 16 16226051101873700866
11963148 33 18335976549456587651
12236239 1 17704076174922843379
12516196 113 18343581841578553481
12596602 18 17203611462812744531
12838862 33 18338497721038523629
12916748 109 18411420592621256340
13140716 1 18266462198805816443
13402501 40 18260553342220574611
13533116 47 17418097577474347838
13583140 156 16950284026960132120
13685833 64 18408606976778341331
13862211 1 18410571769112084142
13911987 19 18115606939990215925
14787075 74 18272650143215590184
14840074 17 18202560674885997247
14849402 71 17274255188077249800
15196674 1 18340206263714242844
15849732 13 17603586353010625550
15927050 60 17693657430081732804
17349148 13 17968385562793784964
17492 89 18124032321791081694
19489759 90 16587742028042691461
200 152 18342736295930891765
20028762 73 18272651259459519639
20511986 3 17988642927229100449
21236236 1 18341051818268713969
21267235 1 18341899575538949924
21521721 280 18341333374627627416
21623969 137 18335426772071962683
21641784 216 18188226311656798388
22149856 69 18270977764454693041
22224240 67 18411980290746630858
22956985 138 17681258968111907826
23516275 137 16988026940668720718
23522609 53 17844556416054580048
23536379 177 15554452890090364046
23559900 14 17168145693331166221
23569914 152 16972499363073107759
23569943 247 17557725576872189182
2747138 104 18339654411486718835
283562 15 18338237063779275105
3178227 256 18336272318346898001
335352 9 18411986867512497926
350125 39 18412825785113505060
4258327 124 17387147540823059316
4325135 7 18202001032099604548
4340502 62 16805038519698874394
474229 33 18409450288826880790
5104073 3 18197214750715104680
5486654 2 18410296929817764878
57527295 17 18116126937146756735
5758199 1 18202284723047331194
59682541 35 18342452681991727594
59755656 215 18408041797056833830

> <PUBCHEM_SHAPE_MULTIPOLES>
535.14
16.71
2.27
1.14
2.68
0.37
0.34
0.4
-0.14
-1.21
0.15
0.89
0.2
0.18

> <PUBCHEM_SHAPE_SELFOVERLAP>
1184.864

> <PUBCHEM_SHAPE_VOLUME>
286.3

> <PUBCHEM_COORDINATE_TYPE>
2
5
10

$$$$
