12301973
  -OEChem-03292013303D

 40 42  0     1  0  0  0  0  0999 V2000
    3.8649   -0.8714   -1.7076 O   0  0  0  0  0  0  0  0  0  0  0  0
    3.7914    0.3225    1.7734 O   0  0  0  0  0  0  0  0  0  0  0  0
    2.6701    2.5285    0.6415 O   0  0  0  0  0  0  0  0  0  0  0  0
   -0.2156   -2.6666    0.0303 O   0  0  0  0  0  0  0  0  0  0  0  0
    0.2738    2.8212   -0.2789 O   0  0  0  0  0  0  0  0  0  0  0  0
   -2.7234   -2.3529   -0.0288 O   0  0  0  0  0  0  0  0  0  0  0  0
   -2.2460    2.9622   -0.2911 O   0  0  0  0  0  0  0  0  0  0  0  0
   -5.0180   -0.8670   -0.1516 O   0  0  0  0  0  0  0  0  0  0  0  0
    3.7107   -0.9829   -0.2881 C   0  0  1  0  0  0  0  0  0  0  0  0
    3.7986    0.4145    0.3470 C   0  0  1  0  0  0  0  0  0  0  0  0
    2.3597   -1.6538    0.0244 C   0  0  0  0  0  0  0  0  0  0  0  0
    2.6593    1.3292   -0.1310 C   0  0  1  0  0  0  0  0  0  0  0  0
    1.1637   -0.7286   -0.0514 C   0  0  0  0  0  0  0  0  0  0  0  0
    1.2960    0.6721   -0.0876 C   0  0  0  0  0  0  0  0  0  0  0  0
    4.8555   -1.8824    0.1912 C   0  0  0  0  0  0  0  0  0  0  0  0
   -0.1192   -1.3040   -0.0409 C   0  0  0  0  0  0  0  0  0  0  0  0
    0.1373    1.4655   -0.1631 C   0  0  0  0  0  0  0  0  0  0  0  0
   -1.2640   -0.5026   -0.0957 C   0  0  0  0  0  0  0  0  0  0  0  0
   -1.1349    0.8817   -0.1611 C   0  0  0  0  0  0  0  0  0  0  0  0
   -2.5984   -1.1352   -0.0888 C   0  0  0  0  0  0  0  0  0  0  0  0
   -2.3312    1.7417   -0.2307 C   0  0  0  0  0  0  0  0  0  0  0  0
   -3.7848   -0.2483   -0.1582 C   0  0  0  0  0  0  0  0  0  0  0  0
   -3.6524    1.0805   -0.2240 C   0  0  0  0  0  0  0  0  0  0  0  0
   -5.4932   -1.0239    1.1710 C   0  0  0  0  0  0  0  0  0  0  0  0
    4.7444    0.8994    0.0716 H   0  0  0  0  0  0  0  0  0  0  0  0
    2.3879   -2.0602    1.0441 H   0  0  0  0  0  0  0  0  0  0  0  0
    2.2201   -2.4837   -0.6803 H   0  0  0  0  0  0  0  0  0  0  0  0
    2.8444    1.6065   -1.1773 H   0  0  0  0  0  0  0  0  0  0  0  0
    4.8413   -2.8446   -0.3342 H   0  0  0  0  0  0  0  0  0  0  0  0
    5.8267   -1.4250   -0.0302 H   0  0  0  0  0  0  0  0  0  0  0  0
    4.8053   -2.0872    1.2651 H   0  0  0  0  0  0  0  0  0  0  0  0
    3.7981   -1.7615   -2.0932 H   0  0  0  0  0  0  0  0  0  0  0  0
    4.6534   -0.0289    2.0526 H   0  0  0  0  0  0  0  0  0  0  0  0
    3.5502    2.9308    0.5459 H   0  0  0  0  0  0  0  0  0  0  0  0
    0.5561   -3.0468    0.4780 H   0  0  0  0  0  0  0  0  0  0  0  0
    1.1963    3.0709   -0.4407 H   0  0  0  0  0  0  0  0  0  0  0  0
   -4.5245    1.7244   -0.2760 H   0  0  0  0  0  0  0  0  0  0  0  0
   -6.4600   -1.5344    1.1274 H   0  0  0  0  0  0  0  0  0  0  0  0
   -5.6471   -0.0534    1.6558 H   0  0  0  0  0  0  0  0  0  0  0  0
   -4.8146   -1.6397    1.7716 H   0  0  0  0  0  0  0  0  0  0  0  0
  1  9  1  0  0  0  0
  1 32  1  0  0  0  0
  2 10  1  0  0  0  0
  2 33  1  0  0  0  0
  3 12  1  0  0  0  0
  3 34  1  0  0  0  0
  4 16  1  0  0  0  0
  4 35  1  0  0  0  0
  5 17  1  0  0  0  0
  5 36  1  0  0  0  0
  6 20  2  0  0  0  0
  7 21  2  0  0  0  0
  8 22  1  0  0  0  0
  8 24  1  0  0  0  0
  9 10  1  0  0  0  0
  9 11  1  0  0  0  0
  9 15  1  0  0  0  0
 10 12  1  0  0  0  0
 10 25  1  0  0  0  0
 11 13  1  0  0  0  0
 11 26  1  0  0  0  0
 11 27  1  0  0  0  0
 12 14  1  0  0  0  0
 12 28  1  0  0  0  0
 13 14  2  0  0  0  0
 13 16  1  0  0  0  0
 14 17  1  0  0  0  0
 15 29  1  0  0  0  0
 15 30  1  0  0  0  0
 15 31  1  0  0  0  0
 16 18  2  0  0  0  0
 17 19  2  0  0  0  0
 18 19  1  0  0  0  0
 18 20  1  0  0  0  0
 19 21  1  0  0  0  0
 20 22  1  0  0  0  0
 21 23  1  0  0  0  0
 22 23  2  0  0  0  0
 23 37  1  0  0  0  0
 24 38  1  0  0  0  0
 24 39  1  0  0  0  0
 24 40  1  0  0  0  0
M  END
> <PUBCHEM_COMPOUND_CID>
12301973

> <PUBCHEM_CONFORMER_RMSD>
0.6

> <PUBCHEM_CONFORMER_DIVERSEORDER>
3
5
2
4
1

> <PUBCHEM_MMFF94_PARTIAL_CHARGES>
29
1 -0.68
10 0.28
11 0.14
12 0.42
13 -0.14
14 -0.14
16 0.08
17 0.08
18 0.09
19 0.09
2 -0.68
20 0.47
21 0.47
22 0.09
23 -0.14
24 0.28
3 -0.68
32 0.4
33 0.4
34 0.4
35 0.45
36 0.45
37 0.15
4 -0.53
5 -0.53
6 -0.57
7 -0.57
8 -0.36
9 0.28

> <PUBCHEM_EFFECTIVE_ROTOR_COUNT>
1.8

> <PUBCHEM_PHARMACOPHORE_FEATURES>
14
1 1 acceptor
1 1 donor
1 2 acceptor
1 2 donor
1 3 acceptor
1 3 donor
1 4 donor
1 5 donor
1 6 acceptor
1 7 acceptor
1 8 acceptor
6 13 14 16 17 18 19 rings
6 18 19 20 21 22 23 rings
6 9 10 11 12 13 14 rings

> <PUBCHEM_HEAVY_ATOM_COUNT>
24

> <PUBCHEM_ATOM_DEF_STEREO_COUNT>
0

> <PUBCHEM_ATOM_UDEF_STEREO_COUNT>
3

> <PUBCHEM_BOND_DEF_STEREO_COUNT>
0

> <PUBCHEM_BOND_UDEF_STEREO_COUNT>
0

> <PUBCHEM_ISOTOPIC_ATOM_COUNT>
0

> <PUBCHEM_COMPONENT_COUNT>
1

> <PUBCHEM_CACTVS_TAUTO_COUNT>
27

> <PUBCHEM_CONFORMER_ID>
00BBB69500000003

> <PUBCHEM_MMFF94_ENERGY>
85.6186

> <PUBCHEM_FEATURE_SELFOVERLAP>
71.121

> <PUBCHEM_SHAPE_FINGERPRINT>
10319926 262 18124290759185365330
10967382 1 18338234989388828397
1100329 8 17328018768349478979
11132069 177 18412256246568812825
11578080 2 17272840159503296427
12236239 1 17530686477020372654
12403259 226 18410849941164329892
12403259 415 18343579625127639008
12553582 1 18409445908065727567
13140716 1 18122056503378965275
13224815 77 18411980251986241544
13862211 1 18410008849666837895
14178342 30 18265321812201404168
14223421 5 18340200907536655176
14866123 147 17120867483568322914
15196674 1 18410011013755043309
15536298 74 18343300383565219852
15848702 151 17846225418675101471
16752209 62 18334857182257188258
16945 1 18194114127497624684
17492 89 18266457796386035038
17804303 29 18411421682915461957
1813 80 17530683242614639141
18186145 218 18201722808260025914
19141452 34 18130790100875874807
19591789 44 18410012096187041663
20028762 73 18201435921968460127
20261772 1 18341897424156310971
20510252 161 18343299245341241265
20905425 154 18051694339402863838
21033648 29 17774140341083145299
21267235 1 18409456868479524870
21279426 13 18337105653856211565
221490 88 18409452505098278522
22182313 1 18336247003472577861
23184049 59 18342741840211567831
2334 1 18410571820598924740
23402539 116 18342167861367628263
23557571 272 18271530805992486662
23559900 14 18341609279379901534
2748010 2 18410849958391334252
2871803 45 18335133185693301927
335352 9 18338233757044477197
350125 39 18410297994858910284
474 4 16516829124494065532
5104073 3 18340201895426697840
59755656 215 18263924328838146957
7364860 26 18270680986536243708
9709674 26 18411698832886427262

> <PUBCHEM_SHAPE_MULTIPOLES>
446.95
9.49
2.81
0.89
2.69
0.97
-0.1
-3.55
-1.36
0.2
0.03
-0.51
-0.05
0.77

> <PUBCHEM_SHAPE_SELFOVERLAP>
989.709

> <PUBCHEM_SHAPE_VOLUME>
236.5

> <PUBCHEM_COORDINATE_TYPE>
2
5
10

$$$$
