12309904
  -OEChem-03292013303D

 33 35  0     1  0  0  0  0  0999 V2000
    0.4206   -0.5136   -0.0212 O   0  0  0  0  0  0  0  0  0  0  0  0
    1.8660    3.3232   -0.1578 O   0  0  0  0  0  0  0  0  0  0  0  0
    2.0770   -2.6466   -0.0192 O   0  0  0  0  0  0  0  0  0  0  0  0
    4.8207   -2.3039   -0.0108 O   0  0  0  0  0  0  0  0  0  0  0  0
   -4.3380   -0.4854   -2.1139 O   0  0  0  0  0  0  0  0  0  0  0  0
   -5.8413   -0.7503    0.2084 O   0  0  0  0  0  0  0  0  0  0  0  0
   -0.3427    0.5777    0.5164 C   0  0  1  0  0  0  0  0  0  0  0  0
   -0.0454    1.8754   -0.2323 C   0  0  0  0  0  0  0  0  0  0  0  0
   -1.8121    0.2226    0.4307 C   0  0  0  0  0  0  0  0  0  0  0  0
    2.3245    1.0102   -0.0437 C   0  0  0  0  0  0  0  0  0  0  0  0
    1.4261    2.1803   -0.1232 C   0  0  0  0  0  0  0  0  0  0  0  0
    1.7704   -0.2730   -0.0195 C   0  0  0  0  0  0  0  0  0  0  0  0
   -2.4103    0.0290   -0.8139 C   0  0  0  0  0  0  0  0  0  0  0  0
    2.6070   -1.3898   -0.0222 C   0  0  0  0  0  0  0  0  0  0  0  0
   -2.5659    0.0901    1.5964 C   0  0  0  0  0  0  0  0  0  0  0  0
    3.7111    1.1805   -0.0365 C   0  0  0  0  0  0  0  0  0  0  0  0
    3.9921   -1.2221   -0.0165 C   0  0  0  0  0  0  0  0  0  0  0  0
    4.5425    0.0600   -0.0187 C   0  0  0  0  0  0  0  0  0  0  0  0
   -3.7642   -0.2976   -0.8929 C   0  0  0  0  0  0  0  0  0  0  0  0
   -3.9195   -0.2364    1.5175 C   0  0  0  0  0  0  0  0  0  0  0  0
   -4.5187   -0.4304    0.2729 C   0  0  0  0  0  0  0  0  0  0  0  0
   -0.0643    0.6893    1.5748 H   0  0  0  0  0  0  0  0  0  0  0  0
   -0.6128    2.7055    0.2035 H   0  0  0  0  0  0  0  0  0  0  0  0
   -0.2765    1.8105   -1.3015 H   0  0  0  0  0  0  0  0  0  0  0  0
   -1.8249    0.1190   -1.7254 H   0  0  0  0  0  0  0  0  0  0  0  0
   -2.1134    0.2381    2.5733 H   0  0  0  0  0  0  0  0  0  0  0  0
    4.1593    2.1698   -0.0550 H   0  0  0  0  0  0  0  0  0  0  0  0
    5.6203    0.2009   -0.0157 H   0  0  0  0  0  0  0  0  0  0  0  0
   -4.5019   -0.3385    2.4292 H   0  0  0  0  0  0  0  0  0  0  0  0
    1.1070   -2.5700   -0.0200 H   0  0  0  0  0  0  0  0  0  0  0  0
    5.7434   -1.9966   -0.0078 H   0  0  0  0  0  0  0  0  0  0  0  0
   -3.6661   -0.3521   -2.8044 H   0  0  0  0  0  0  0  0  0  0  0  0
   -6.0872   -0.8474   -0.7280 H   0  0  0  0  0  0  0  0  0  0  0  0
  1  7  1  0  0  0  0
  1 12  1  0  0  0  0
  2 11  2  0  0  0  0
  3 14  1  0  0  0  0
  3 30  1  0  0  0  0
  4 17  1  0  0  0  0
  4 31  1  0  0  0  0
  5 19  1  0  0  0  0
  5 32  1  0  0  0  0
  6 21  1  0  0  0  0
  6 33  1  0  0  0  0
  7  8  1  0  0  0  0
  7  9  1  0  0  0  0
  7 22  1  0  0  0  0
  8 11  1  0  0  0  0
  8 23  1  0  0  0  0
  8 24  1  0  0  0  0
  9 13  2  0  0  0  0
  9 15  1  0  0  0  0
 10 11  1  0  0  0  0
 10 12  2  0  0  0  0
 10 16  1  0  0  0  0
 12 14  1  0  0  0  0
 13 19  1  0  0  0  0
 13 25  1  0  0  0  0
 14 17  2  0  0  0  0
 15 20  2  0  0  0  0
 15 26  1  0  0  0  0
 16 18  2  0  0  0  0
 16 27  1  0  0  0  0
 17 18  1  0  0  0  0
 18 28  1  0  0  0  0
 19 21  2  0  0  0  0
 20 21  1  0  0  0  0
 20 29  1  0  0  0  0
M  END
> <PUBCHEM_COMPOUND_CID>
12309904

> <PUBCHEM_CONFORMER_RMSD>
0.6

> <PUBCHEM_CONFORMER_DIVERSEORDER>
1
12
9
8
5
14
3
13
11
4
16
6
7
2
10
15

> <PUBCHEM_MMFF94_PARTIAL_CHARGES>
30
1 -0.36
10 0.09
11 0.42
12 0.08
13 -0.15
14 0.08
15 -0.15
16 -0.15
17 0.08
18 -0.15
19 0.08
2 -0.57
20 -0.15
21 0.08
25 0.15
26 0.15
27 0.15
28 0.15
29 0.15
3 -0.53
30 0.45
31 0.45
32 0.45
33 0.45
4 -0.53
5 -0.53
6 -0.53
7 0.42
8 0.06
9 -0.14

> <PUBCHEM_EFFECTIVE_ROTOR_COUNT>
1.6

> <PUBCHEM_PHARMACOPHORE_FEATURES>
9
1 1 acceptor
1 2 acceptor
1 3 donor
1 4 donor
1 5 donor
1 6 donor
6 1 7 8 10 11 12 rings
6 10 12 14 16 17 18 rings
6 9 13 15 19 20 21 rings

> <PUBCHEM_HEAVY_ATOM_COUNT>
21

> <PUBCHEM_ATOM_DEF_STEREO_COUNT>
0

> <PUBCHEM_ATOM_UDEF_STEREO_COUNT>
1

> <PUBCHEM_BOND_DEF_STEREO_COUNT>
0

> <PUBCHEM_BOND_UDEF_STEREO_COUNT>
0

> <PUBCHEM_ISOTOPIC_ATOM_COUNT>
0

> <PUBCHEM_COMPONENT_COUNT>
1

> <PUBCHEM_CACTVS_TAUTO_COUNT>
220

> <PUBCHEM_CONFORMER_ID>
00BBD59000000001

> <PUBCHEM_MMFF94_ENERGY>
57.7984

> <PUBCHEM_FEATURE_SELFOVERLAP>
45.711

> <PUBCHEM_SHAPE_FINGERPRINT>
11471102 20 18408606993499456520
11796584 16 16443057271389794610
12107183 9 17552655651219300907
12236239 1 17846502547656305913
12363563 72 18262808363011461066
12553582 1 18411706452438024174
12596602 18 17203324550159439171
13134695 92 18409449202221539988
13140716 1 18122626321544573976
13533116 47 18270684276718264345
13544653 18 18335425629826731820
13862211 1 18337673019294943330
14386348 63 17749112205514017419
15196674 1 18337956692862087488
15375462 189 18060420209345330634
15848702 151 18411141324899065625
15961568 22 15792864505856534988
17349148 13 18060139851229149071
17357779 13 18186513289514454397
17818456 19 17486791687748493241
1813 80 18200047148334109660
18186145 218 17530961389234333529
18222031 100 18342174436762039498
200 152 18343300362248684529
20028762 73 18202280282289518190
20511986 3 17846487124355068473
20645477 70 18261109715982719768
21033648 29 17749658684400117221
21033650 10 15503222150558000046
21065201 7 16370721565128858897
21267235 1 18340495486838478558
21641784 216 17968961699078118996
221357 26 18260540118105869685
221490 88 18190748724210670546
2255824 54 18341619273410421444
22646028 1 17988923375112410843
23175994 123 18040721368097716701
23402539 116 18339361847141962898
23557571 272 17022899077714748837
23559900 14 17240768410084979968
23596394 208 17967807241242127507
2871803 45 18187647964429534722
314194 84 18413388735103602782
33824 294 18408885157383208866
34797466 226 16515698757161825630
46194498 28 17531530996144334741
474 4 18126564758941483856
5104073 3 18267861692994230856
5281201 14 17821447975851595069
573450 72 17132117944289029529
59682541 52 18192685931456614239
602551 16 15338829910824086487
7471813 234 18059851779162014857
77492 1 17775011227765976393
7970288 3 18338235942898909818
9709674 26 18115876363621354019
9981440 41 17191772191961485104

> <PUBCHEM_SHAPE_MULTIPOLES>
396.95
10.63
2.26
1.11
5.96
0.71
0.09
-4.56
0.48
-3.37
0.15
1.82
-0.09
-0.18

> <PUBCHEM_SHAPE_SELFOVERLAP>
882.428

> <PUBCHEM_SHAPE_VOLUME>
210.8

> <PUBCHEM_COORDINATE_TYPE>
2
5
10

$$$$
