12305202
  -OEChem-03292013303D

 60 64  0     1  0  0  0  0  0999 V2000
    1.4814   -1.5142    0.4650 O   0  0  0  0  0  0  0  0  0  0  0  0
   -2.0712    2.8125   -0.0267 O   0  0  0  0  0  0  0  0  0  0  0  0
    0.5296    3.0586   -0.5867 O   0  0  0  0  0  0  0  0  0  0  0  0
   -6.7432   -1.4363   -0.7192 O   0  0  0  0  0  0  0  0  0  0  0  0
    5.1232   -1.6468   -0.2321 O   0  0  0  0  0  0  0  0  0  0  0  0
    7.1842   -1.3716    0.6870 O   0  0  0  0  0  0  0  0  0  0  0  0
    0.5934   -0.5305   -0.0896 C   0  0  1  0  0  0  0  0  0  0  0  0
   -0.7943   -0.7111    0.5762 C   0  0  1  0  0  0  0  0  0  0  0  0
    1.2082    0.8602    0.1458 C   0  0  1  0  0  0  0  0  0  0  0  0
   -3.2549    0.2255    0.7914 C   0  0  2  0  0  0  0  0  0  0  0  0
   -1.7536    0.4724    0.3974 C   0  0  0  0  0  0  0  0  0  0  0  0
   -3.7531   -1.2519    0.5664 C   0  0  2  0  0  0  0  0  0  0  0  0
    2.3694    0.9087   -0.8958 C   0  0  2  0  0  0  0  0  0  0  0  0
    0.6100   -0.6716   -1.6248 C   0  0  0  0  0  0  0  0  0  0  0  0
   -1.4086   -2.0579    0.1581 C   0  0  0  0  0  0  0  0  0  0  0  0
   -2.7074   -2.3136    0.8925 C   0  0  0  0  0  0  0  0  0  0  0  0
    1.7743    0.1939   -2.1245 C   0  0  0  0  0  0  0  0  0  0  0  0
   -4.2493    1.1864    0.0420 C   0  0  0  0  0  0  0  0  0  0  0  0
    0.1826    1.9441   -0.1896 C   0  0  0  0  0  0  0  0  0  0  0  0
   -4.3203   -1.4418   -0.8550 C   0  0  0  0  0  0  0  0  0  0  0  0
   -1.2710    1.6901    0.0495 C   0  0  0  0  0  0  0  0  0  0  0  0
    1.6530    1.1236    1.5925 C   0  0  0  0  0  0  0  0  0  0  0  0
   -3.3511    0.5271    2.3100 C   0  0  0  0  0  0  0  0  0  0  0  0
   -5.6484    0.6059   -0.1412 C   0  0  0  0  0  0  0  0  0  0  0  0
   -5.6093   -0.6320   -1.0359 C   0  0  2  0  0  0  0  0  0  0  0  0
    3.6605    0.2604   -0.4778 C   0  0  0  0  0  0  0  0  0  0  0  0
    4.6834    1.0834    0.1133 C   0  0  0  0  0  0  0  0  0  0  0  0
    3.9191   -1.0433   -0.6217 C   0  0  0  0  0  0  0  0  0  0  0  0
    5.8487    0.5567    0.5016 C   0  0  0  0  0  0  0  0  0  0  0  0
    6.1146   -0.8871    0.3318 C   0  0  0  0  0  0  0  0  0  0  0  0
   -0.6187   -0.7884    1.6603 H   0  0  0  0  0  0  0  0  0  0  0  0
   -4.5860   -1.4498    1.2580 H   0  0  0  0  0  0  0  0  0  0  0  0
    2.5980    1.9395   -1.1977 H   0  0  0  0  0  0  0  0  0  0  0  0
   -0.3199   -0.3103   -2.0790 H   0  0  0  0  0  0  0  0  0  0  0  0
    0.7521   -1.7102   -1.9433 H   0  0  0  0  0  0  0  0  0  0  0  0
   -0.7269   -2.8812    0.3982 H   0  0  0  0  0  0  0  0  0  0  0  0
   -1.5758   -2.0977   -0.9239 H   0  0  0  0  0  0  0  0  0  0  0  0
   -3.0859   -3.3098    0.6333 H   0  0  0  0  0  0  0  0  0  0  0  0
   -2.5207   -2.3332    1.9733 H   0  0  0  0  0  0  0  0  0  0  0  0
    2.4900   -0.3789   -2.7236 H   0  0  0  0  0  0  0  0  0  0  0  0
    1.3661    0.9486   -2.8107 H   0  0  0  0  0  0  0  0  0  0  0  0
   -3.8699    1.4166   -0.9625 H   0  0  0  0  0  0  0  0  0  0  0  0
   -4.3460    2.1379    0.5791 H   0  0  0  0  0  0  0  0  0  0  0  0
   -3.5800   -1.1044   -1.5909 H   0  0  0  0  0  0  0  0  0  0  0  0
   -4.5130   -2.5030   -1.0519 H   0  0  0  0  0  0  0  0  0  0  0  0
    2.3432    0.3616    1.9675 H   0  0  0  0  0  0  0  0  0  0  0  0
    2.1492    2.0976    1.6762 H   0  0  0  0  0  0  0  0  0  0  0  0
    0.7967    1.1466    2.2762 H   0  0  0  0  0  0  0  0  0  0  0  0
   -2.7089   -0.1362    2.8997 H   0  0  0  0  0  0  0  0  0  0  0  0
   -3.0493    1.5572    2.5340 H   0  0  0  0  0  0  0  0  0  0  0  0
   -4.3765    0.4037    2.6763 H   0  0  0  0  0  0  0  0  0  0  0  0
   -6.0965    0.3755    0.8335 H   0  0  0  0  0  0  0  0  0  0  0  0
   -6.3083    1.3549   -0.5960 H   0  0  0  0  0  0  0  0  0  0  0  0
   -5.7053   -0.3377   -2.0874 H   0  0  0  0  0  0  0  0  0  0  0  0
    1.2565   -2.3824    0.0924 H   0  0  0  0  0  0  0  0  0  0  0  0
   -1.5053    3.5698   -0.2551 H   0  0  0  0  0  0  0  0  0  0  0  0
    4.4975    2.1442    0.2435 H   0  0  0  0  0  0  0  0  0  0  0  0
    3.2938   -1.7985   -1.0735 H   0  0  0  0  0  0  0  0  0  0  0  0
   -6.7419   -2.1969   -1.3251 H   0  0  0  0  0  0  0  0  0  0  0  0
    6.6233    1.1693    0.9481 H   0  0  0  0  0  0  0  0  0  0  0  0
  1  7  1  0  0  0  0
  1 55  1  0  0  0  0
  2 21  1  0  0  0  0
  2 56  1  0  0  0  0
  3 19  2  0  0  0  0
  4 25  1  0  0  0  0
  4 59  1  0  0  0  0
  5 28  1  0  0  0  0
  5 30  1  0  0  0  0
  6 30  2  0  0  0  0
  7  8  1  0  0  0  0
  7  9  1  0  0  0  0
  7 14  1  0  0  0  0
  8 11  1  0  0  0  0
  8 15  1  0  0  0  0
  8 31  1  0  0  0  0
  9 13  1  0  0  0  0
  9 19  1  0  0  0  0
  9 22  1  0  0  0  0
 10 11  1  0  0  0  0
 10 12  1  0  0  0  0
 10 18  1  0  0  0  0
 10 23  1  0  0  0  0
 11 21  2  0  0  0  0
 12 16  1  0  0  0  0
 12 20  1  0  0  0  0
 12 32  1  0  0  0  0
 13 17  1  0  0  0  0
 13 26  1  0  0  0  0
 13 33  1  0  0  0  0
 14 17  1  0  0  0  0
 14 34  1  0  0  0  0
 14 35  1  0  0  0  0
 15 16  1  0  0  0  0
 15 36  1  0  0  0  0
 15 37  1  0  0  0  0
 16 38  1  0  0  0  0
 16 39  1  0  0  0  0
 17 40  1  0  0  0  0
 17 41  1  0  0  0  0
 18 24  1  0  0  0  0
 18 42  1  0  0  0  0
 18 43  1  0  0  0  0
 19 21  1  0  0  0  0
 20 25  1  0  0  0  0
 20 44  1  0  0  0  0
 20 45  1  0  0  0  0
 22 46  1  0  0  0  0
 22 47  1  0  0  0  0
 22 48  1  0  0  0  0
 23 49  1  0  0  0  0
 23 50  1  0  0  0  0
 23 51  1  0  0  0  0
 24 25  1  0  0  0  0
 24 52  1  0  0  0  0
 24 53  1  0  0  0  0
 25 54  1  0  0  0  0
 26 27  1  0  0  0  0
 26 28  2  0  0  0  0
 27 29  2  0  0  0  0
 27 57  1  0  0  0  0
 28 58  1  0  0  0  0
 29 30  1  0  0  0  0
 29 60  1  0  0  0  0
M  END
> <PUBCHEM_COMPOUND_CID>
12305202

> <PUBCHEM_CONFORMER_RMSD>
0.8

> <PUBCHEM_CONFORMER_DIVERSEORDER>
1
3
2

> <PUBCHEM_MMFF94_PARTIAL_CHARGES>
26
1 -0.68
10 0.14
11 -0.28
13 0.14
19 0.49
2 -0.53
21 0.09
25 0.28
26 -0.14
27 -0.15
28 -0.07
29 -0.14
3 -0.57
30 0.71
4 -0.68
5 -0.23
55 0.4
56 0.45
57 0.15
58 0.15
59 0.4
6 -0.57
60 0.15
7 0.28
8 0.14
9 0.06

> <PUBCHEM_EFFECTIVE_ROTOR_COUNT>
2.8

> <PUBCHEM_PHARMACOPHORE_FEATURES>
12
1 1 acceptor
1 1 donor
1 2 donor
1 3 acceptor
1 4 acceptor
1 4 donor
1 6 acceptor
5 7 9 13 14 17 rings
6 10 12 18 20 24 25 rings
6 5 26 27 28 29 30 rings
6 7 8 9 11 19 21 rings
6 8 10 11 12 15 16 rings

> <PUBCHEM_HEAVY_ATOM_COUNT>
30

> <PUBCHEM_ATOM_DEF_STEREO_COUNT>
7

> <PUBCHEM_ATOM_UDEF_STEREO_COUNT>
0

> <PUBCHEM_BOND_DEF_STEREO_COUNT>
0

> <PUBCHEM_BOND_UDEF_STEREO_COUNT>
0

> <PUBCHEM_ISOTOPIC_ATOM_COUNT>
0

> <PUBCHEM_COMPONENT_COUNT>
1

> <PUBCHEM_CACTVS_TAUTO_COUNT>
9

> <PUBCHEM_CONFORMER_ID>
00BBC33200000001

> <PUBCHEM_MMFF94_ENERGY>
115.6073

> <PUBCHEM_FEATURE_SELFOVERLAP>
61.136

> <PUBCHEM_SHAPE_FINGERPRINT>
10 15 18201426005626432128
10906281 52 18269014079531825013
10930396 42 18196905917176780360
11315181 36 17989208157018832441
11578080 2 17242150543683827084
11796584 16 17023183868184477682
12011746 2 18409162216811805169
12107698 1 18059571434314876245
12166972 35 17895195562532620175
12236239 1 18272369780434987999
12403260 363 18412267246070306837
12516196 113 18413105069698651096
12553582 1 18193866857904326965
12596602 18 13973971982175819238
12788726 201 16153971470744017053
13140716 1 18194418894361784169
13224815 77 17989216975082491421
13782708 43 17774734060905351398
13862211 1 18409729564521567734
13914758 101 17968370170026518149
14068700 675 18411134749289012989
14294032 229 17751349583456323405
15183329 4 15719106950777453910
15788980 27 18113908168702743592
17349148 13 18202008754492902929
17492 89 17976821209782604123
17857418 61 18409448068592500514
17980427 23 17703523150544242289
200 152 17704074014849549671
20028762 73 18273213101622537142
20511986 3 18342164566436803790
20775438 99 16547452885803038799
21236236 1 18341049631903240721
21267235 1 18409732898313137723
21521721 280 9367344855745295838
22079108 93 14979954787723079182
23402539 116 18412261727063270205
23559900 14 18336823220622070561
23569917 315 18334863831036550267
3004659 81 18040151829832917422
3009799 131 18260260871700006405
335352 9 18335422365820437685
3383291 50 18261114110273075115
34797466 226 15984830384434012280
3633792 109 18260537897613000231
392239 28 18271813389134329848
404807 14 17261322397336124898
474113 269 17678436611994207826
504579 68 18187938296177196324
5104073 3 18340499966051324336
5265222 85 11026101044497656682
59755656 215 18261111833945318262
70251023 43 17468205886985416059
7226269 152 18187366527648502712
7495541 125 17846776334536347744

> <PUBCHEM_SHAPE_MULTIPOLES>
582.17
14.02
2.32
1.38
6.73
0.6
0.03
-5.3
0.28
-0.66
0.03
-0.39
0.02
-0.42

> <PUBCHEM_SHAPE_SELFOVERLAP>
1277.918

> <PUBCHEM_SHAPE_VOLUME>
309.9

> <PUBCHEM_COORDINATE_TYPE>
2
5
10

$$$$
