12305769
  -OEChem-03292013303D

 34 36  0     1  0  0  0  0  0999 V2000
   -0.4004   -0.3522    0.5643 O   0  0  0  0  0  0  0  0  0  0  0  0
    0.2592    1.7374    1.4778 O   0  0  0  0  0  0  0  0  0  0  0  0
   -1.8132    2.7826   -0.3061 O   0  0  0  0  0  0  0  0  0  0  0  0
   -4.5199    1.5859   -0.6661 O   0  0  0  0  0  0  0  0  0  0  0  0
   -4.3489   -3.0986    0.2911 O   0  0  0  0  0  0  0  0  0  0  0  0
    3.9679   -2.4992   -0.7112 O   0  0  0  0  0  0  0  0  0  0  0  0
    5.8815   -0.8706    0.4758 O   0  0  0  0  0  0  0  0  0  0  0  0
   -0.1842    1.0577    0.3163 C   0  0  1  0  0  0  0  0  0  0  0  0
    0.8039    1.2153   -0.8326 C   0  0  0  0  0  0  0  0  0  0  0  0
   -1.5355    1.6262   -0.0558 C   0  0  0  0  0  0  0  0  0  0  0  0
   -2.4656    0.5290   -0.0369 C   0  0  0  0  0  0  0  0  0  0  0  0
   -1.7327   -0.5808    0.3335 C   0  0  0  0  0  0  0  0  0  0  0  0
    2.1574    0.6559   -0.4849 C   0  0  0  0  0  0  0  0  0  0  0  0
   -3.8179    0.4851   -0.3060 C   0  0  0  0  0  0  0  0  0  0  0  0
   -2.3420   -1.8146    0.4514 C   0  0  0  0  0  0  0  0  0  0  0  0
    2.4384   -0.6748   -0.7614 C   0  0  0  0  0  0  0  0  0  0  0  0
    3.1052    1.4786    0.1079 C   0  0  0  0  0  0  0  0  0  0  0  0
   -4.4452   -0.7561   -0.1911 C   0  0  0  0  0  0  0  0  0  0  0  0
   -3.7129   -1.8979    0.1848 C   0  0  0  0  0  0  0  0  0  0  0  0
    3.6926   -1.1934   -0.4387 C   0  0  0  0  0  0  0  0  0  0  0  0
    4.3592    0.9601    0.4306 C   0  0  0  0  0  0  0  0  0  0  0  0
    4.6530   -0.3758    0.1572 C   0  0  0  0  0  0  0  0  0  0  0  0
    0.9156    2.2755   -1.0968 H   0  0  0  0  0  0  0  0  0  0  0  0
    0.4304    0.7173   -1.7376 H   0  0  0  0  0  0  0  0  0  0  0  0
   -1.7755   -2.6931    0.7418 H   0  0  0  0  0  0  0  0  0  0  0  0
   -0.4824    1.7794    2.1051 H   0  0  0  0  0  0  0  0  0  0  0  0
    1.6941   -1.3156   -1.2270 H   0  0  0  0  0  0  0  0  0  0  0  0
    2.8877    2.5206    0.3248 H   0  0  0  0  0  0  0  0  0  0  0  0
   -5.5108   -0.8368   -0.3944 H   0  0  0  0  0  0  0  0  0  0  0  0
    5.0981    1.6081    0.8944 H   0  0  0  0  0  0  0  0  0  0  0  0
   -3.9204    2.3507   -0.6942 H   0  0  0  0  0  0  0  0  0  0  0  0
   -5.2890   -2.9778    0.0733 H   0  0  0  0  0  0  0  0  0  0  0  0
    4.8781   -2.6865   -0.4228 H   0  0  0  0  0  0  0  0  0  0  0  0
    6.4132   -0.1628    0.8790 H   0  0  0  0  0  0  0  0  0  0  0  0
  1  8  1  0  0  0  0
  1 12  1  0  0  0  0
  2  8  1  0  0  0  0
  2 26  1  0  0  0  0
  3 10  2  0  0  0  0
  4 14  1  0  0  0  0
  4 31  1  0  0  0  0
  5 19  1  0  0  0  0
  5 32  1  0  0  0  0
  6 20  1  0  0  0  0
  6 33  1  0  0  0  0
  7 22  1  0  0  0  0
  7 34  1  0  0  0  0
  8  9  1  0  0  0  0
  8 10  1  0  0  0  0
  9 13  1  0  0  0  0
  9 23  1  0  0  0  0
  9 24  1  0  0  0  0
 10 11  1  0  0  0  0
 11 12  1  0  0  0  0
 11 14  2  0  0  0  0
 12 15  2  0  0  0  0
 13 16  2  0  0  0  0
 13 17  1  0  0  0  0
 14 18  1  0  0  0  0
 15 19  1  0  0  0  0
 15 25  1  0  0  0  0
 16 20  1  0  0  0  0
 16 27  1  0  0  0  0
 17 21  2  0  0  0  0
 17 28  1  0  0  0  0
 18 19  2  0  0  0  0
 18 29  1  0  0  0  0
 20 22  2  0  0  0  0
 21 22  1  0  0  0  0
 21 30  1  0  0  0  0
M  END
> <PUBCHEM_COMPOUND_CID>
12305769

> <PUBCHEM_CONFORMER_RMSD>
0.6

> <PUBCHEM_CONFORMER_DIVERSEORDER>
1
10
16
3
8
14
4
11
9
15
17
13
5
12
6
2
18
7

> <PUBCHEM_MMFF94_PARTIAL_CHARGES>
32
1 -0.36
10 0.42
11 0.09
12 0.08
13 -0.14
14 0.08
15 -0.15
16 -0.15
17 -0.15
18 -0.15
19 0.08
2 -0.68
20 0.08
21 -0.15
22 0.08
25 0.15
26 0.4
27 0.15
28 0.15
29 0.15
3 -0.57
30 0.15
31 0.45
32 0.45
33 0.45
34 0.45
4 -0.53
5 -0.53
6 -0.53
7 -0.53
8 0.62
9 0.14

> <PUBCHEM_EFFECTIVE_ROTOR_COUNT>
2.4

> <PUBCHEM_PHARMACOPHORE_FEATURES>
11
1 1 acceptor
1 2 acceptor
1 2 donor
1 3 acceptor
1 4 donor
1 5 donor
1 6 donor
1 7 donor
5 1 8 10 11 12 rings
6 11 12 14 15 18 19 rings
6 13 16 17 20 21 22 rings

> <PUBCHEM_HEAVY_ATOM_COUNT>
22

> <PUBCHEM_ATOM_DEF_STEREO_COUNT>
0

> <PUBCHEM_ATOM_UDEF_STEREO_COUNT>
1

> <PUBCHEM_BOND_DEF_STEREO_COUNT>
0

> <PUBCHEM_BOND_UDEF_STEREO_COUNT>
0

> <PUBCHEM_ISOTOPIC_ATOM_COUNT>
0

> <PUBCHEM_COMPONENT_COUNT>
1

> <PUBCHEM_CACTVS_TAUTO_COUNT>
216

> <PUBCHEM_CONFORMER_ID>
00BBC56900000001

> <PUBCHEM_MMFF94_ENERGY>
55.137

> <PUBCHEM_FEATURE_SELFOVERLAP>
55.965

> <PUBCHEM_SHAPE_FINGERPRINT>
10616163 171 18411139125538687254
10835480 77 18340196466440867948
11405975 8 18412831278392208849
11796584 16 18408881806902776402
13167823 11 18334855051990345762
13544653 18 18201442501324528664
13583140 156 17989197187735875932
14341114 328 13110966413836426710
14790565 3 17835242247403440193
14866123 147 17406562402917259032
15196674 1 18409449219353429462
15352361 1 18410294747853000583
15788980 27 18040998457448269601
17349148 13 17894631474191299394
17492 89 18410578387863013238
17834072 14 18411982468284305486
1813 80 17458348562935108381
18186145 218 14634873092988528364
19141452 34 18409452462291296757
19862831 5 17095240336661528593
200 152 17989484108720477532
20281475 54 18340215188318862137
20374829 77 18335699455250384507
20626108 58 18115299098525759776
21250096 35 18273497879185861570
21267235 1 18334020518580984099
221490 88 18338520840979366120
23402539 116 18335132090149879829
23557571 272 18335982051239985265
23559900 14 18412540999085949552
26918003 58 18343016671142779976
3004659 81 18260266352478994670
335352 9 18408322164517421405
4214541 1 18408885126770084309
463206 1 18123190362056321319
4921388 177 16660936576943378947
5104073 3 18341895216332008184
5283173 99 18335976480778646405
559249 180 18187640276053141435
633830 44 16371014009241293645
67856867 119 18188212121554155308
9709674 26 18341336599995267750

> <PUBCHEM_SHAPE_MULTIPOLES>
411.66
10.93
2.61
0.85
5.18
0.66
-0.05
4.94
0.11
-1.67
0.03
0.2
-0.12
0.9

> <PUBCHEM_SHAPE_SELFOVERLAP>
920.623

> <PUBCHEM_SHAPE_VOLUME>
218.9

> <PUBCHEM_COORDINATE_TYPE>
2
5
10

$$$$
