12309366
  -OEChem-03292013303D

 60 63  0     1  0  0  0  0  0999 V2000
   -1.7896   -2.5656   -0.7110 O   0  0  0  0  0  0  0  0  0  0  0  0
   -0.9366    1.0525   -2.2659 O   0  0  0  0  0  0  0  0  0  0  0  0
   -0.6683    1.8755    1.2556 O   0  0  0  0  0  0  0  0  0  0  0  0
   -4.6178    1.7604   -0.4926 O   0  0  0  0  0  0  0  0  0  0  0  0
    6.4320    0.5199    0.5493 O   0  0  0  0  0  0  0  0  0  0  0  0
   -2.2978   -0.1389   -0.5871 C   0  0  1  0  0  0  0  0  0  0  0  0
   -1.3883   -1.3320   -0.0880 C   0  0  2  0  0  0  0  0  0  0  0  0
    0.1225   -1.1337   -0.3658 C   0  0  1  0  0  0  0  0  0  0  0  0
    0.6920    0.1851    0.2060 C   0  0  1  0  0  0  0  0  0  0  0  0
   -3.2427    0.1548    0.6384 C   0  0  2  0  0  0  0  0  0  0  0  0
   -1.4547    1.1323   -0.9332 C   0  0  1  0  0  0  0  0  0  0  0  0
    2.1919    0.4128   -0.2641 C   0  0  2  0  0  0  0  0  0  0  0  0
   -0.2431    1.4014   -0.0231 C   0  0  1  0  0  0  0  0  0  0  0  0
   -1.7431   -1.5135    1.3999 C   0  0  0  0  0  0  0  0  0  0  0  0
   -3.2097   -1.1209    1.4723 C   0  0  0  0  0  0  0  0  0  0  0  0
    0.9664   -2.3241    0.1384 C   0  0  0  0  0  0  0  0  0  0  0  0
   -3.1330   -0.5505   -1.8275 C   0  0  0  0  0  0  0  0  0  0  0  0
    3.0102   -0.8767   -0.1048 C   0  0  0  0  0  0  0  0  0  0  0  0
    2.8161    1.5242    0.6342 C   0  0  0  0  0  0  0  0  0  0  0  0
   -4.6678    0.6058    0.3346 C   0  0  1  0  0  0  0  0  0  0  0  0
    2.4416   -2.0793    0.0877 C   0  0  0  0  0  0  0  0  0  0  0  0
    2.2723    0.8353   -1.7514 C   0  0  0  0  0  0  0  0  0  0  0  0
    4.5147   -0.7533   -0.1693 C   0  0  0  0  0  0  0  0  0  0  0  0
    4.3318    1.6660    0.5017 C   0  0  0  0  0  0  0  0  0  0  0  0
    5.0355    0.3387    0.7609 C   0  0  2  0  0  0  0  0  0  0  0  0
   -5.4346    0.9240    1.6049 C   0  0  0  0  0  0  0  0  0  0  0  0
    0.2561   -1.1548   -1.4524 H   0  0  0  0  0  0  0  0  0  0  0  0
    0.7530    0.0377    1.2959 H   0  0  0  0  0  0  0  0  0  0  0  0
   -2.7905    0.9455    1.2451 H   0  0  0  0  0  0  0  0  0  0  0  0
   -2.1072    2.0119   -0.9189 H   0  0  0  0  0  0  0  0  0  0  0  0
    0.3201    2.2325   -0.4559 H   0  0  0  0  0  0  0  0  0  0  0  0
   -1.1617   -0.8468    2.0448 H   0  0  0  0  0  0  0  0  0  0  0  0
   -1.6085   -2.5382    1.7620 H   0  0  0  0  0  0  0  0  0  0  0  0
   -3.8465   -1.9022    1.0410 H   0  0  0  0  0  0  0  0  0  0  0  0
   -3.5161   -0.9586    2.5100 H   0  0  0  0  0  0  0  0  0  0  0  0
    0.7533   -3.2084   -0.4740 H   0  0  0  0  0  0  0  0  0  0  0  0
    0.7104   -2.5802    1.1724 H   0  0  0  0  0  0  0  0  0  0  0  0
   -3.6701    0.2970   -2.2639 H   0  0  0  0  0  0  0  0  0  0  0  0
   -2.4968   -0.9597   -2.6206 H   0  0  0  0  0  0  0  0  0  0  0  0
   -3.8652   -1.3284   -1.5849 H   0  0  0  0  0  0  0  0  0  0  0  0
    2.5916    1.3117    1.6885 H   0  0  0  0  0  0  0  0  0  0  0  0
    2.3610    2.4970    0.4151 H   0  0  0  0  0  0  0  0  0  0  0  0
   -5.2185   -0.1691   -0.2092 H   0  0  0  0  0  0  0  0  0  0  0  0
    3.0714   -2.9566    0.2139 H   0  0  0  0  0  0  0  0  0  0  0  0
   -1.3853   -3.3091   -0.2344 H   0  0  0  0  0  0  0  0  0  0  0  0
    3.3065    0.9596   -2.0902 H   0  0  0  0  0  0  0  0  0  0  0  0
    1.8181    0.0895   -2.4116 H   0  0  0  0  0  0  0  0  0  0  0  0
    1.7768    1.7922   -1.9374 H   0  0  0  0  0  0  0  0  0  0  0  0
    5.0084   -1.7001    0.0851 H   0  0  0  0  0  0  0  0  0  0  0  0
    4.8232   -0.5433   -1.2013 H   0  0  0  0  0  0  0  0  0  0  0  0
    4.5999    2.0509   -0.4898 H   0  0  0  0  0  0  0  0  0  0  0  0
    4.6967    2.4184    1.2120 H   0  0  0  0  0  0  0  0  0  0  0  0
   -0.6624    0.1469   -2.4668 H   0  0  0  0  0  0  0  0  0  0  0  0
    4.8913    0.0450    1.8079 H   0  0  0  0  0  0  0  0  0  0  0  0
   -1.1890    2.6837    1.1101 H   0  0  0  0  0  0  0  0  0  0  0  0
   -6.4205    1.3358    1.3611 H   0  0  0  0  0  0  0  0  0  0  0  0
   -5.5882    0.0398    2.2295 H   0  0  0  0  0  0  0  0  0  0  0  0
   -4.9197    1.6894    2.1963 H   0  0  0  0  0  0  0  0  0  0  0  0
   -5.5332    2.0198   -0.6934 H   0  0  0  0  0  0  0  0  0  0  0  0
    6.8672   -0.3323    0.7223 H   0  0  0  0  0  0  0  0  0  0  0  0
  1  7  1  0  0  0  0
  1 45  1  0  0  0  0
  2 11  1  0  0  0  0
  2 53  1  0  0  0  0
  3 13  1  0  0  0  0
  3 55  1  0  0  0  0
  4 20  1  0  0  0  0
  4 59  1  0  0  0  0
  5 25  1  0  0  0  0
  5 60  1  0  0  0  0
  6  7  1  0  0  0  0
  6 10  1  0  0  0  0
  6 11  1  0  0  0  0
  6 17  1  0  0  0  0
  7  8  1  0  0  0  0
  7 14  1  0  0  0  0
  8  9  1  0  0  0  0
  8 16  1  0  0  0  0
  8 27  1  0  0  0  0
  9 12  1  0  0  0  0
  9 13  1  0  0  0  0
  9 28  1  0  0  0  0
 10 15  1  0  0  0  0
 10 20  1  0  0  0  0
 10 29  1  0  0  0  0
 11 13  1  0  0  0  0
 11 30  1  0  0  0  0
 12 18  1  0  0  0  0
 12 19  1  0  0  0  0
 12 22  1  0  0  0  0
 13 31  1  0  0  0  0
 14 15  1  0  0  0  0
 14 32  1  0  0  0  0
 14 33  1  0  0  0  0
 15 34  1  0  0  0  0
 15 35  1  0  0  0  0
 16 21  1  0  0  0  0
 16 36  1  0  0  0  0
 16 37  1  0  0  0  0
 17 38  1  0  0  0  0
 17 39  1  0  0  0  0
 17 40  1  0  0  0  0
 18 21  2  0  0  0  0
 18 23  1  0  0  0  0
 19 24  1  0  0  0  0
 19 41  1  0  0  0  0
 19 42  1  0  0  0  0
 20 26  1  0  0  0  0
 20 43  1  0  0  0  0
 21 44  1  0  0  0  0
 22 46  1  0  0  0  0
 22 47  1  0  0  0  0
 22 48  1  0  0  0  0
 23 25  1  0  0  0  0
 23 49  1  0  0  0  0
 23 50  1  0  0  0  0
 24 25  1  0  0  0  0
 24 51  1  0  0  0  0
 24 52  1  0  0  0  0
 25 54  1  0  0  0  0
 26 56  1  0  0  0  0
 26 57  1  0  0  0  0
 26 58  1  0  0  0  0
M  END
> <PUBCHEM_COMPOUND_CID>
12309366

> <PUBCHEM_CONFORMER_RMSD>
0.6

> <PUBCHEM_CONFORMER_DIVERSEORDER>
1
2
3
4
5

> <PUBCHEM_MMFF94_PARTIAL_CHARGES>
21
1 -0.68
11 0.28
12 0.14
13 0.28
16 0.14
18 -0.28
2 -0.68
20 0.28
21 -0.29
23 0.14
25 0.28
3 -0.68
4 -0.68
44 0.15
45 0.4
5 -0.68
53 0.4
55 0.4
59 0.4
60 0.4
7 0.28

> <PUBCHEM_EFFECTIVE_ROTOR_COUNT>
3

> <PUBCHEM_PHARMACOPHORE_FEATURES>
14
1 1 acceptor
1 1 donor
1 2 acceptor
1 2 donor
1 3 acceptor
1 3 donor
1 4 acceptor
1 4 donor
1 5 acceptor
1 5 donor
5 6 7 10 14 15 rings
6 12 18 19 23 24 25 rings
6 6 7 8 9 11 13 rings
6 8 9 12 16 18 21 rings

> <PUBCHEM_HEAVY_ATOM_COUNT>
26

> <PUBCHEM_ATOM_DEF_STEREO_COUNT>
9

> <PUBCHEM_ATOM_UDEF_STEREO_COUNT>
1

> <PUBCHEM_BOND_DEF_STEREO_COUNT>
0

> <PUBCHEM_BOND_UDEF_STEREO_COUNT>
0

> <PUBCHEM_ISOTOPIC_ATOM_COUNT>
0

> <PUBCHEM_COMPONENT_COUNT>
1

> <PUBCHEM_CACTVS_TAUTO_COUNT>
1

> <PUBCHEM_CONFORMER_ID>
00BBD37600000001

> <PUBCHEM_MMFF94_ENERGY>
105.3103

> <PUBCHEM_FEATURE_SELFOVERLAP>
71.269

> <PUBCHEM_SHAPE_FINGERPRINT>
10493431 412 18413110563051519507
10863032 1 17989483039653324999
10948715 1 18272654498470625251
11089746 13 17418088828129950912
12035758 1 17895209787670084929
12236239 1 17275102812493713343
12403259 415 18333724711657239396
12403814 3 17967527991232387375
12422481 6 18040714749236485372
12633257 1 18339348747781782688
12788726 201 17417817175474460432
12969540 114 18341600483102276301
13140716 1 18189057666889956696
13224815 77 18261955249315113894
13288520 33 11386364837778440091
13583140 156 17131549539316049483
13675066 3 18334300880749494075
14178342 30 18188779481932470251
14790565 3 18343589507784324169
15163728 17 15624559856327887689
15196674 1 18412262865419624442
15238133 3 18340784666485663633
15840311 113 18056211172447134513
16945 1 18335703896504947221
17349148 13 18260542329713015072
1813 80 16153436055551448255
19784866 170 18260832596239880410
200 152 18130779083999404102
20871999 31 11599732774209120514
21033648 29 18189034473898357517
21637258 2 14057010468234718473
22182313 1 17896593990429713775
23402539 116 18060131068374450188
23557571 272 18059296586162019110
23559900 14 17895764984912715394
2838139 119 17275103908053733705
296302 2 18272368672175312938
335352 9 18413389822294552070
34934 24 17918275350438495592
350125 39 18335708226264744892
3680242 22 18410568449587557738
4340502 62 18412553097902963753
5104073 3 18264761229186062872
59755656 215 18338803321484975878
633830 44 17987793137774188396
7226269 152 18131351907930230256

> <PUBCHEM_SHAPE_MULTIPOLES>
505.72
10.42
2.19
1.49
4.3
0.7
0.4
-3.37
-3.36
0.02
-0.11
-1.16
-0.25
0.22

> <PUBCHEM_SHAPE_SELFOVERLAP>
1077.55

> <PUBCHEM_SHAPE_VOLUME>
277.8

> <PUBCHEM_COORDINATE_TYPE>
2
5
10

$$$$
