12305580
  -OEChem-03292013303D

 59 63  0     1  0  0  0  0  0999 V2000
    0.4859    0.7471    2.1704 O   0  0  0  0  0  0  0  0  0  0  0  0
    2.4350    1.8890    1.5717 O   0  0  0  0  0  0  0  0  0  0  0  0
    1.1495    3.0179   -0.5869 O   0  0  0  0  0  0  0  0  0  0  0  0
   -2.4070   -1.8858    0.2961 O   0  0  0  0  0  0  0  0  0  0  0  0
    3.5962   -0.5138    1.7367 O   0  0  0  0  0  0  0  0  0  0  0  0
    2.7981    1.1750   -1.5918 O   0  0  0  0  0  0  0  0  0  0  0  0
   -4.4285   -2.0680   -0.8070 O   0  0  0  0  0  0  0  0  0  0  0  0
   -0.8951    0.0766    0.2034 C   0  0  1  0  0  0  0  0  0  0  0  0
    1.6644   -0.0149    0.2468 C   0  0  1  0  0  0  0  0  0  0  0  0
    0.3763   -0.6784   -0.3671 C   0  0  1  0  0  0  0  0  0  0  0  0
   -0.7869    1.5420   -0.3851 C   0  0  2  0  0  0  0  0  0  0  0  0
    1.2731    1.2358    1.0662 C   0  0  1  0  0  0  0  0  0  0  0  0
    0.3767    2.2607    0.3370 C   0  0  1  0  0  0  0  0  0  0  0  0
    2.4741   -1.0770    1.0630 C   0  0  1  0  0  0  0  0  0  0  0  0
   -2.1480    2.3380   -0.5269 C   0  0  0  0  0  0  0  0  0  0  0  0
   -2.2348   -0.5669   -0.2207 C   0  0  2  0  0  0  0  0  0  0  0  0
   -0.7309    0.1162    1.7490 C   0  0  0  0  0  0  0  0  0  0  0  0
    0.3843   -2.2185   -0.2300 C   0  0  0  0  0  0  0  0  0  0  0  0
    2.9432   -2.0495   -0.0260 C   0  0  1  0  0  0  0  0  0  0  0  0
    2.6575    0.1841   -0.8969 C   0  0  0  0  0  0  0  0  0  0  0  0
    1.7470   -2.8638   -0.5421 C   0  0  0  0  0  0  0  0  0  0  0  0
   -3.2488    1.7345    0.3630 C   0  0  0  0  0  0  0  0  0  0  0  0
   -3.4758    0.2401    0.1748 C   0  0  0  0  0  0  0  0  0  0  0  0
    3.4259   -1.0835   -1.0806 C   0  0  0  0  0  0  0  0  0  0  0  0
   -2.6158    2.2744   -2.0062 C   0  0  0  0  0  0  0  0  0  0  0  0
   -2.0560    3.8411   -0.1799 C   0  0  0  0  0  0  0  0  0  0  0  0
    4.3945   -1.2424   -1.9833 C   0  0  0  0  0  0  0  0  0  0  0  0
   -3.5547   -2.5217   -0.0806 C   0  0  0  0  0  0  0  0  0  0  0  0
   -3.5993   -3.8884    0.5329 C   0  0  0  0  0  0  0  0  0  0  0  0
    0.3814   -0.5094   -1.4550 H   0  0  0  0  0  0  0  0  0  0  0  0
   -0.4538    1.4250   -1.4271 H   0  0  0  0  0  0  0  0  0  0  0  0
    0.0030    2.9611    1.0895 H   0  0  0  0  0  0  0  0  0  0  0  0
    1.8720   -1.5731    1.8308 H   0  0  0  0  0  0  0  0  0  0  0  0
   -2.2091   -0.6599   -1.3150 H   0  0  0  0  0  0  0  0  0  0  0  0
   -1.5456    0.6502    2.2414 H   0  0  0  0  0  0  0  0  0  0  0  0
   -0.7337   -0.8930    2.1739 H   0  0  0  0  0  0  0  0  0  0  0  0
   -0.3590   -2.6609   -0.9031 H   0  0  0  0  0  0  0  0  0  0  0  0
    0.0920   -2.5093    0.7856 H   0  0  0  0  0  0  0  0  0  0  0  0
    3.7616   -2.6950    0.3103 H   0  0  0  0  0  0  0  0  0  0  0  0
    1.7623   -3.8561   -0.0738 H   0  0  0  0  0  0  0  0  0  0  0  0
    1.8328   -3.0392   -1.6221 H   0  0  0  0  0  0  0  0  0  0  0  0
   -4.2025    2.2551    0.1992 H   0  0  0  0  0  0  0  0  0  0  0  0
   -3.0062    1.9284    1.4145 H   0  0  0  0  0  0  0  0  0  0  0  0
   -3.9419   -0.1514    1.0885 H   0  0  0  0  0  0  0  0  0  0  0  0
   -4.2324    0.1553   -0.6142 H   0  0  0  0  0  0  0  0  0  0  0  0
   -3.5917    2.7569   -2.1351 H   0  0  0  0  0  0  0  0  0  0  0  0
   -1.9054    2.7921   -2.6616 H   0  0  0  0  0  0  0  0  0  0  0  0
   -2.7090    1.2485   -2.3727 H   0  0  0  0  0  0  0  0  0  0  0  0
   -1.8564    4.0026    0.8844 H   0  0  0  0  0  0  0  0  0  0  0  0
   -1.2701    4.3366   -0.7597 H   0  0  0  0  0  0  0  0  0  0  0  0
   -2.9978    4.3567   -0.4036 H   0  0  0  0  0  0  0  0  0  0  0  0
    2.2076    2.8144    1.7617 H   0  0  0  0  0  0  0  0  0  0  0  0
    1.3874    2.4469   -1.3348 H   0  0  0  0  0  0  0  0  0  0  0  0
    4.0939    0.0539    1.1264 H   0  0  0  0  0  0  0  0  0  0  0  0
    4.9386   -2.1784   -2.0503 H   0  0  0  0  0  0  0  0  0  0  0  0
    4.6666   -0.4517   -2.6736 H   0  0  0  0  0  0  0  0  0  0  0  0
   -3.6006   -3.8048    1.6226 H   0  0  0  0  0  0  0  0  0  0  0  0
   -2.7423   -4.4750    0.1925 H   0  0  0  0  0  0  0  0  0  0  0  0
   -4.5159   -4.3968    0.2205 H   0  0  0  0  0  0  0  0  0  0  0  0
  1 12  1  0  0  0  0
  1 17  1  0  0  0  0
  2 12  1  0  0  0  0
  2 52  1  0  0  0  0
  3 13  1  0  0  0  0
  3 53  1  0  0  0  0
  4 16  1  0  0  0  0
  4 28  1  0  0  0  0
  5 14  1  0  0  0  0
  5 54  1  0  0  0  0
  6 20  2  0  0  0  0
  7 28  2  0  0  0  0
  8 10  1  0  0  0  0
  8 11  1  0  0  0  0
  8 16  1  0  0  0  0
  8 17  1  0  0  0  0
  9 10  1  0  0  0  0
  9 12  1  0  0  0  0
  9 14  1  0  0  0  0
  9 20  1  0  0  0  0
 10 18  1  0  0  0  0
 10 30  1  0  0  0  0
 11 13  1  0  0  0  0
 11 15  1  0  0  0  0
 11 31  1  0  0  0  0
 12 13  1  0  0  0  0
 13 32  1  0  0  0  0
 14 19  1  0  0  0  0
 14 33  1  0  0  0  0
 15 22  1  0  0  0  0
 15 25  1  0  0  0  0
 15 26  1  0  0  0  0
 16 23  1  0  0  0  0
 16 34  1  0  0  0  0
 17 35  1  0  0  0  0
 17 36  1  0  0  0  0
 18 21  1  0  0  0  0
 18 37  1  0  0  0  0
 18 38  1  0  0  0  0
 19 21  1  0  0  0  0
 19 24  1  0  0  0  0
 19 39  1  0  0  0  0
 20 24  1  0  0  0  0
 21 40  1  0  0  0  0
 21 41  1  0  0  0  0
 22 23  1  0  0  0  0
 22 42  1  0  0  0  0
 22 43  1  0  0  0  0
 23 44  1  0  0  0  0
 23 45  1  0  0  0  0
 24 27  2  0  0  0  0
 25 46  1  0  0  0  0
 25 47  1  0  0  0  0
 25 48  1  0  0  0  0
 26 49  1  0  0  0  0
 26 50  1  0  0  0  0
 26 51  1  0  0  0  0
 27 55  1  0  0  0  0
 27 56  1  0  0  0  0
 28 29  1  0  0  0  0
 29 57  1  0  0  0  0
 29 58  1  0  0  0  0
 29 59  1  0  0  0  0
M  END
> <PUBCHEM_COMPOUND_CID>
12305580

> <PUBCHEM_CONFORMER_RMSD>
0.8

> <PUBCHEM_CONFORMER_DIVERSEORDER>
1
2

> <PUBCHEM_MMFF94_PARTIAL_CHARGES>
24
1 -0.56
12 0.56
13 0.28
14 0.28
16 0.28
17 0.28
19 0.14
2 -0.68
20 0.49
24 -0.12
27 -0.3
28 0.66
29 0.06
3 -0.68
4 -0.43
5 -0.68
52 0.4
53 0.4
54 0.4
55 0.15
56 0.15
6 -0.57
7 -0.57
9 0.06

> <PUBCHEM_EFFECTIVE_ROTOR_COUNT>
4

> <PUBCHEM_PHARMACOPHORE_FEATURES>
13
1 1 acceptor
1 2 acceptor
1 2 donor
1 3 acceptor
1 3 donor
1 5 acceptor
1 5 donor
1 6 acceptor
1 7 acceptor
3 15 25 26 hydrophobe
6 8 11 15 16 22 23 rings
8 1 8 9 10 11 12 13 17 rings
8 9 10 14 18 19 20 21 24 rings

> <PUBCHEM_HEAVY_ATOM_COUNT>
29

> <PUBCHEM_ATOM_DEF_STEREO_COUNT>
9

> <PUBCHEM_ATOM_UDEF_STEREO_COUNT>
0

> <PUBCHEM_BOND_DEF_STEREO_COUNT>
0

> <PUBCHEM_BOND_UDEF_STEREO_COUNT>
0

> <PUBCHEM_ISOTOPIC_ATOM_COUNT>
0

> <PUBCHEM_COMPONENT_COUNT>
1

> <PUBCHEM_CACTVS_TAUTO_COUNT>
1

> <PUBCHEM_CONFORMER_ID>
00BBC4AC00000001

> <PUBCHEM_MMFF94_ENERGY>
137.0721

> <PUBCHEM_FEATURE_SELFOVERLAP>
66.079

> <PUBCHEM_SHAPE_FINGERPRINT>
10165383 225 18051427171231436049
10863032 1 18192152599070164092
10948715 1 16445061629521280556
1100329 8 17402322681944635419
11578080 2 18060418031924129825
116883 192 18410566310630410215
12173636 292 17906166253199992477
12553582 1 18408891758642895899
12714826 92 18341060622566178667
12788726 201 18187088338781041075
13140716 1 18340760520321638889
13224815 77 18341327790916934836
14178342 30 18339066108341414202
14223421 5 18342450473909155419
14790565 3 17544761583119033013
15664445 248 17978519950762438997
16728300 4 17467584555351753384
16945 1 18197773293663158928
17357779 13 18270387395604471543
17980427 23 17749384859103065116
19591789 44 18050569848039604660
20600515 1 18057593275315395800
20691752 17 18188492509566042555
20739085 24 18051153650534067075
20775438 99 17906688736335145965
20905425 154 18341055202190720950
21197605 99 16173421122749704619
22182313 1 18131340913214501842
22393880 68 18338246955616192966
22907989 373 18335700525140464101
23184049 29 18409721889705166763
2334 1 18194960983732563609
23419403 2 17632289095046941408
23557571 272 18339347643432004945
23559900 14 18412543240763219237
2748010 2 18270666645392282264
2818148 4 18195552439283909765
2838139 119 17241352217375414510
3380486 77 16467206093867655355
70251023 43 18264225753400396738
81228 2 18333446556558074385
9709674 26 18271512109746652351

> <PUBCHEM_SHAPE_MULTIPOLES>
555.72
6.91
4.17
1.58
0.6
1
-0.13
3.26
2.01
-4.27
0.38
1.04
-0.5
0.9

> <PUBCHEM_SHAPE_SELFOVERLAP>
1222.941

> <PUBCHEM_SHAPE_VOLUME>
290.5

> <PUBCHEM_COORDINATE_TYPE>
2
5
10

$$$$
