12303703
  -OEChem-03292013303D

 53 54  0     1  0  0  0  0  0999 V2000
   -2.7055    2.4148    0.1978 O   0  0  0  0  0  0  0  0  0  0  0  0
    1.6336    0.4976    0.3003 O   0  0  0  0  0  0  0  0  0  0  0  0
   -1.8784    4.5580    0.1549 O   0  0  0  0  0  0  0  0  0  0  0  0
   -5.7904   -0.5126   -1.3326 O   0  0  0  0  0  0  0  0  0  0  0  0
    2.6179   -0.9847   -1.1539 O   0  0  0  0  0  0  0  0  0  0  0  0
    5.2356   -1.8945   -0.2345 O   0  0  0  0  0  0  0  0  0  0  0  0
    6.9000    0.1532   -1.1781 O   0  0  0  0  0  0  0  0  0  0  0  0
   -0.6952    1.1773    0.4419 C   0  0  2  0  0  0  0  0  0  0  0  0
    0.3035    0.1061   -0.0874 C   0  0  2  0  0  0  0  0  0  0  0  0
   -2.1545    1.1101   -0.0567 C   0  0  1  0  0  0  0  0  0  0  0  0
    0.1794   -1.3422    0.4594 C   0  0  0  0  0  0  0  0  0  0  0  0
   -0.4384    2.6125    0.0515 C   0  0  0  0  0  0  0  0  0  0  0  0
   -3.0147    0.1128    0.6562 C   0  0  0  0  0  0  0  0  0  0  0  0
   -0.9914   -2.1722   -0.0116 C   0  0  0  0  0  0  0  0  0  0  0  0
   -1.7194    3.3512    0.1318 C   0  0  0  0  0  0  0  0  0  0  0  0
   -3.8892   -0.7447    0.0877 C   0  0  0  0  0  0  0  0  0  0  0  0
   -4.2901   -1.9931    0.8584 C   0  0  0  0  0  0  0  0  0  0  0  0
   -3.2727   -3.1375    0.6181 C   0  0  0  0  0  0  0  0  0  0  0  0
   -1.8719   -2.6470    0.8956 C   0  0  0  0  0  0  0  0  0  0  0  0
    0.6501    3.2567   -0.3797 C   0  0  0  0  0  0  0  0  0  0  0  0
   -1.1085   -2.3443   -1.5002 C   0  0  0  0  0  0  0  0  0  0  0  0
   -4.3843   -0.6689   -1.3279 C   0  0  0  0  0  0  0  0  0  0  0  0
    2.6302   -0.3183   -0.1274 C   0  0  0  0  0  0  0  0  0  0  0  0
    3.7684   -0.3328    0.8412 C   0  0  0  0  0  0  0  0  0  0  0  0
    5.1619   -0.5755    0.3082 C   0  0  2  0  0  0  0  0  0  0  0  0
    5.5668    0.4369   -0.7630 C   0  0  0  0  0  0  0  0  0  0  0  0
    3.5573   -0.1189    2.1501 C   0  0  0  0  0  0  0  0  0  0  0  0
   -0.6654    1.1570    1.5414 H   0  0  0  0  0  0  0  0  0  0  0  0
    0.2633    0.1088   -1.1843 H   0  0  0  0  0  0  0  0  0  0  0  0
   -2.1661    0.9502   -1.1413 H   0  0  0  0  0  0  0  0  0  0  0  0
    1.0509   -1.9713    0.2559 H   0  0  0  0  0  0  0  0  0  0  0  0
    0.1755   -1.2674    1.5569 H   0  0  0  0  0  0  0  0  0  0  0  0
   -2.7690   -0.0282    1.7084 H   0  0  0  0  0  0  0  0  0  0  0  0
   -5.2953   -2.3223    0.5712 H   0  0  0  0  0  0  0  0  0  0  0  0
   -4.3418   -1.7723    1.9330 H   0  0  0  0  0  0  0  0  0  0  0  0
   -3.4982   -3.9748    1.2885 H   0  0  0  0  0  0  0  0  0  0  0  0
   -3.3812   -3.5221   -0.4000 H   0  0  0  0  0  0  0  0  0  0  0  0
   -1.6642   -2.4858    1.9531 H   0  0  0  0  0  0  0  0  0  0  0  0
    0.6199    4.3098   -0.6422 H   0  0  0  0  0  0  0  0  0  0  0  0
    1.6085    2.7677   -0.4943 H   0  0  0  0  0  0  0  0  0  0  0  0
   -0.1455   -2.6617   -1.9153 H   0  0  0  0  0  0  0  0  0  0  0  0
   -1.8361   -3.1070   -1.7868 H   0  0  0  0  0  0  0  0  0  0  0  0
   -1.3954   -1.4051   -1.9815 H   0  0  0  0  0  0  0  0  0  0  0  0
   -3.9626    0.1643   -1.8940 H   0  0  0  0  0  0  0  0  0  0  0  0
   -4.1394   -1.5868   -1.8709 H   0  0  0  0  0  0  0  0  0  0  0  0
    5.9029   -0.5412    1.1165 H   0  0  0  0  0  0  0  0  0  0  0  0
   -5.9982    0.3224   -0.8791 H   0  0  0  0  0  0  0  0  0  0  0  0
    4.9387    0.3578   -1.6554 H   0  0  0  0  0  0  0  0  0  0  0  0
    5.5249    1.4660   -0.3915 H   0  0  0  0  0  0  0  0  0  0  0  0
    4.3810   -0.1209    2.8570 H   0  0  0  0  0  0  0  0  0  0  0  0
    2.5680    0.0518    2.5610 H   0  0  0  0  0  0  0  0  0  0  0  0
    4.9965   -2.5189    0.4720 H   0  0  0  0  0  0  0  0  0  0  0  0
    7.4768    0.2603   -0.4026 H   0  0  0  0  0  0  0  0  0  0  0  0
  1 10  1  0  0  0  0
  1 15  1  0  0  0  0
  2  9  1  0  0  0  0
  2 23  1  0  0  0  0
  3 15  2  0  0  0  0
  4 22  1  0  0  0  0
  4 47  1  0  0  0  0
  5 23  2  0  0  0  0
  6 25  1  0  0  0  0
  6 52  1  0  0  0  0
  7 26  1  0  0  0  0
  7 53  1  0  0  0  0
  8  9  1  0  0  0  0
  8 10  1  0  0  0  0
  8 12  1  0  0  0  0
  8 28  1  0  0  0  0
  9 11  1  0  0  0  0
  9 29  1  0  0  0  0
 10 13  1  0  0  0  0
 10 30  1  0  0  0  0
 11 14  1  0  0  0  0
 11 31  1  0  0  0  0
 11 32  1  0  0  0  0
 12 15  1  0  0  0  0
 12 20  2  0  0  0  0
 13 16  2  0  0  0  0
 13 33  1  0  0  0  0
 14 19  2  0  0  0  0
 14 21  1  0  0  0  0
 16 17  1  0  0  0  0
 16 22  1  0  0  0  0
 17 18  1  0  0  0  0
 17 34  1  0  0  0  0
 17 35  1  0  0  0  0
 18 19  1  0  0  0  0
 18 36  1  0  0  0  0
 18 37  1  0  0  0  0
 19 38  1  0  0  0  0
 20 39  1  0  0  0  0
 20 40  1  0  0  0  0
 21 41  1  0  0  0  0
 21 42  1  0  0  0  0
 21 43  1  0  0  0  0
 22 44  1  0  0  0  0
 22 45  1  0  0  0  0
 23 24  1  0  0  0  0
 24 25  1  0  0  0  0
 24 27  2  0  0  0  0
 25 26  1  0  0  0  0
 25 46  1  0  0  0  0
 26 48  1  0  0  0  0
 26 49  1  0  0  0  0
 27 50  1  0  0  0  0
 27 51  1  0  0  0  0
M  END
> <PUBCHEM_COMPOUND_CID>
12303703

> <PUBCHEM_CONFORMER_RMSD>
0.8

> <PUBCHEM_CONFORMER_DIVERSEORDER>
1
178
195
72
151
119
142
61
156
177
118
250
200
28
163
202
64
133
94
144
120
19
256
20
247
100
254
140
135
98
121
48
216
174
208
42
246
141
56
213
52
77
199
210
93
225
89
47
243
44
196
21
148
220
149
108
73
113
180
157
181
211
38
253
249
26
82
158
164
165
129
190
96
85
39
169
86
33
191
176
106
162
261
49
172
182
232
226
221
185
41
78
186
111
90
228
235
197
6
104
128
115
167
117
81
83
160
198
95
227
147
240
184
5
7
130
60
122
171
12
168
170
87
62
103
257
203
11
239
107
74
234
179
238
29
209
146
63
137
166
139
18
187
131
206
66
259
233
43
258
102
161
242
188
4
75
79
262
236
194
138
71
8
244
153
219
112
99
36
231
224
155
65
145
207
173
230
218
27
127
114
16
214
15
150
201
212
9
189
88
17
222
23
125
68
248
229
205
91
2
109
110
22
69
35
51
245
101
134
143
67
3
34
97
159
10
154
84
70
260
105
217
40
30
255
53
223
175
54
126
251
32
252
57
13
31
123
59
215
92
132
14
45
193
204
37
152
136
192
116
50
183
124
25
55
24
237
76
46
80
241
58

> <PUBCHEM_MMFF94_PARTIAL_CHARGES>
36
1 -0.43
10 0.42
11 0.14
12 -0.12
13 -0.29
14 -0.28
15 0.71
16 -0.28
17 0.14
18 0.14
19 -0.29
2 -0.43
20 -0.3
21 0.14
22 0.42
23 0.71
24 -0.12
25 0.42
26 0.28
27 -0.3
3 -0.57
33 0.15
38 0.15
39 0.15
4 -0.68
40 0.15
47 0.4
5 -0.57
50 0.15
51 0.15
52 0.4
53 0.4
6 -0.68
7 -0.68
8 0.14
9 0.28

> <PUBCHEM_EFFECTIVE_ROTOR_COUNT>
7

> <PUBCHEM_PHARMACOPHORE_FEATURES>
10
1 27 hydrophobe
1 3 acceptor
1 4 acceptor
1 4 donor
1 5 acceptor
1 6 acceptor
1 6 donor
1 7 acceptor
1 7 donor
5 1 8 10 12 15 rings

> <PUBCHEM_HEAVY_ATOM_COUNT>
27

> <PUBCHEM_ATOM_DEF_STEREO_COUNT>
3

> <PUBCHEM_ATOM_UDEF_STEREO_COUNT>
1

> <PUBCHEM_BOND_DEF_STEREO_COUNT>
2

> <PUBCHEM_BOND_UDEF_STEREO_COUNT>
0

> <PUBCHEM_ISOTOPIC_ATOM_COUNT>
0

> <PUBCHEM_COMPONENT_COUNT>
1

> <PUBCHEM_CACTVS_TAUTO_COUNT>
1

> <PUBCHEM_CONFORMER_ID>
00BBBD5700000001

> <PUBCHEM_MMFF94_ENERGY>
75.7697

> <PUBCHEM_FEATURE_SELFOVERLAP>
50.757

> <PUBCHEM_SHAPE_FINGERPRINT>
10319926 262 18268129995738930346
10366900 7 18201434783606252410
10369192 42 17055815303941064504
10411042 1 18193844962177246611
10670039 82 18336833009648642532
10675989 125 17036118214180003821
10906281 52 18338238142522622993
1100329 8 18335985363261033865
11056379 131 18338526235553456364
11578080 2 17242987271805379853
12011746 2 18411973672592411255
12107183 9 17684926909047698890
12236239 1 17530682126208140786
12553582 1 18409740573029169265
12596602 18 17531247292354189362
12788726 201 18334573538464418610
13140716 1 18265619956172699763
13583140 156 16732991928760457952
13782708 43 17846786174707590222
138480 1 15743316723858568393
14251757 5 18187651370233573274
14790565 3 17618793457041623953
15042514 8 18409453565712588251
15250474 111 18115863015190461658
15927050 60 17765430947051995509
16087824 20 18409453549619902561
16752209 62 18336257951401828450
18222031 100 18341884233899989569
20775438 99 16832583717011231471
21033648 29 17704065209671195762
21236236 1 18342178821427718177
21285901 2 18131634460980298287
2297311 6 18338808891667285382
23402539 116 18341889675897873271
23557571 272 18272093760256868268
23559900 14 18338231690790713168
283562 15 18340204081870824089
3004659 81 18113614637742342103
335352 9 18409167740788672423
484989 97 18116989104556088047
57527452 28 16487250011386647335
59755656 215 18338231553468083575
7226269 152 18334012800392942739
9709674 26 18270125600136476830

> <PUBCHEM_SHAPE_MULTIPOLES>
514.56
11.42
4.12
1.24
14.16
4.15
0.04
-5.2
-2.59
-3.96
0.27
0.34
-0.49
0.14

> <PUBCHEM_SHAPE_SELFOVERLAP>
1062.002

> <PUBCHEM_SHAPE_VOLUME>
292.5

> <PUBCHEM_COORDINATE_TYPE>
2
5
10

$$$$
