12306674
  -OEChem-03292013303D

 40 42  0     1  0  0  0  0  0999 V2000
   -0.2039    1.5149    1.8500 O   0  0  0  0  0  0  0  0  0  0  0  0
    0.8593   -2.5233    0.9589 O   0  0  0  0  0  0  0  0  0  0  0  0
    4.3006    2.1685   -0.0457 O   0  0  0  0  0  0  0  0  0  0  0  0
   -6.7118   -0.9425    0.1276 O   0  0  0  0  0  0  0  0  0  0  0  0
   -0.2770   -0.7049    0.1190 N   0  0  0  0  0  0  0  0  0  0  0  0
    1.7350    1.5896    0.4969 N   0  0  0  0  0  0  0  0  0  0  0  0
   -7.0151    1.1487   -0.7828 N   0  0  0  0  0  0  0  0  0  0  0  0
   -0.3603    0.6563   -0.4344 C   0  0  1  0  0  0  0  0  0  0  0  0
   -1.8754    0.9102   -0.6122 C   0  0  0  0  0  0  0  0  0  0  0  0
    0.2917    1.6504    0.5218 C   0  0  1  0  0  0  0  0  0  0  0  0
   -2.4894   -0.3427   -0.0691 C   0  0  0  0  0  0  0  0  0  0  0  0
   -1.5444   -1.2022    0.3187 C   0  0  0  0  0  0  0  0  0  0  0  0
    0.8694   -1.4107    0.4277 C   0  0  0  0  0  0  0  0  0  0  0  0
    2.5562    0.5271    0.1768 C   0  0  0  0  0  0  0  0  0  0  0  0
    2.1949   -0.8286    0.0770 C   0  0  0  0  0  0  0  0  0  0  0  0
   -3.9017   -0.5390   -0.0050 C   0  0  0  0  0  0  0  0  0  0  0  0
    3.9001    0.8577   -0.1258 C   0  0  0  0  0  0  0  0  0  0  0  0
    3.1570   -1.7865   -0.3160 C   0  0  0  0  0  0  0  0  0  0  0  0
    4.8430   -0.0951   -0.5118 C   0  0  0  0  0  0  0  0  0  0  0  0
    4.4678   -1.4228   -0.6112 C   0  0  0  0  0  0  0  0  0  0  0  0
   -4.7940    0.3775   -0.4168 C   0  0  0  0  0  0  0  0  0  0  0  0
    6.2495    0.2946   -0.8249 C   0  0  0  0  0  0  0  0  0  0  0  0
   -6.2514    0.1026   -0.3186 C   0  0  0  0  0  0  0  0  0  0  0  0
    0.1389    0.6700   -1.4121 H   0  0  0  0  0  0  0  0  0  0  0  0
   -2.1108    1.0364   -1.6754 H   0  0  0  0  0  0  0  0  0  0  0  0
   -2.2091    1.8031   -0.0725 H   0  0  0  0  0  0  0  0  0  0  0  0
    0.0174    2.6614    0.1974 H   0  0  0  0  0  0  0  0  0  0  0  0
   -1.6930   -2.1858    0.7403 H   0  0  0  0  0  0  0  0  0  0  0  0
    2.2079    2.4658    0.6995 H   0  0  0  0  0  0  0  0  0  0  0  0
   -4.2401   -1.4878    0.4040 H   0  0  0  0  0  0  0  0  0  0  0  0
    0.3480    2.0843    2.4123 H   0  0  0  0  0  0  0  0  0  0  0  0
    2.8939   -2.8395   -0.4014 H   0  0  0  0  0  0  0  0  0  0  0  0
    5.1768   -2.1891   -0.9115 H   0  0  0  0  0  0  0  0  0  0  0  0
   -4.4933    1.3344   -0.8303 H   0  0  0  0  0  0  0  0  0  0  0  0
    6.8554   -0.5748   -1.1044 H   0  0  0  0  0  0  0  0  0  0  0  0
    6.2806    0.9898   -1.6706 H   0  0  0  0  0  0  0  0  0  0  0  0
    6.7299    0.7494    0.0478 H   0  0  0  0  0  0  0  0  0  0  0  0
    5.2352    2.2774   -0.2768 H   0  0  0  0  0  0  0  0  0  0  0  0
   -6.6141    2.0067   -1.1487 H   0  0  0  0  0  0  0  0  0  0  0  0
   -8.0283    1.0940   -0.7737 H   0  0  0  0  0  0  0  0  0  0  0  0
  1 10  1  0  0  0  0
  1 31  1  0  0  0  0
  2 13  2  0  0  0  0
  3 17  1  0  0  0  0
  3 38  1  0  0  0  0
  4 23  2  0  0  0  0
  5  8  1  0  0  0  0
  5 12  1  0  0  0  0
  5 13  1  0  0  0  0
  6 10  1  0  0  0  0
  6 14  1  0  0  0  0
  6 29  1  0  0  0  0
  7 23  1  0  0  0  0
  7 39  1  0  0  0  0
  7 40  1  0  0  0  0
  8  9  1  0  0  0  0
  8 10  1  0  0  0  0
  8 24  1  0  0  0  0
  9 11  1  0  0  0  0
  9 25  1  0  0  0  0
  9 26  1  0  0  0  0
 10 27  1  0  0  0  0
 11 12  2  0  0  0  0
 11 16  1  0  0  0  0
 12 28  1  0  0  0  0
 13 15  1  0  0  0  0
 14 15  2  0  0  0  0
 14 17  1  0  0  0  0
 15 18  1  0  0  0  0
 16 21  2  0  0  0  0
 16 30  1  0  0  0  0
 17 19  2  0  0  0  0
 18 20  2  0  0  0  0
 18 32  1  0  0  0  0
 19 20  1  0  0  0  0
 19 22  1  0  0  0  0
 20 33  1  0  0  0  0
 21 23  1  0  0  0  0
 21 34  1  0  0  0  0
 22 35  1  0  0  0  0
 22 36  1  0  0  0  0
 22 37  1  0  0  0  0
M  END
> <PUBCHEM_COMPOUND_CID>
12306674

> <PUBCHEM_CONFORMER_RMSD>
0.6

> <PUBCHEM_CONFORMER_DIVERSEORDER>
1
3
2

> <PUBCHEM_MMFF94_PARTIAL_CHARGES>
33
1 -0.68
10 0.65
11 -0.14
12 -0.04
13 0.54
14 0.1
15 0.09
16 -0.15
17 0.08
18 -0.15
19 -0.14
2 -0.57
20 -0.15
21 -0.14
22 0.14
23 0.62
28 0.15
29 0.4
3 -0.53
30 0.15
31 0.4
32 0.15
33 0.15
34 0.15
38 0.45
39 0.37
4 -0.57
40 0.37
5 -0.47
6 -0.87
7 -0.8
8 0.3
9 0.14

> <PUBCHEM_EFFECTIVE_ROTOR_COUNT>
2.6

> <PUBCHEM_PHARMACOPHORE_FEATURES>
11
1 1 acceptor
1 1 donor
1 2 acceptor
1 3 donor
1 4 acceptor
1 6 cation
1 6 donor
1 7 donor
5 5 8 9 11 12 rings
6 14 15 17 18 19 20 rings
7 5 6 8 10 13 14 15 rings

> <PUBCHEM_HEAVY_ATOM_COUNT>
23

> <PUBCHEM_ATOM_DEF_STEREO_COUNT>
2

> <PUBCHEM_ATOM_UDEF_STEREO_COUNT>
0

> <PUBCHEM_BOND_DEF_STEREO_COUNT>
1

> <PUBCHEM_BOND_UDEF_STEREO_COUNT>
0

> <PUBCHEM_ISOTOPIC_ATOM_COUNT>
0

> <PUBCHEM_COMPONENT_COUNT>
1

> <PUBCHEM_CACTVS_TAUTO_COUNT>
14

> <PUBCHEM_CONFORMER_ID>
00BBC8F200000001

> <PUBCHEM_MMFF94_ENERGY>
84.1605

> <PUBCHEM_FEATURE_SELFOVERLAP>
55.914

> <PUBCHEM_SHAPE_FINGERPRINT>
10411042 1 17977945688498669118
106641 1 9079107844090437094
11135609 187 18267586986675630992
12011746 2 18410858758747506271
12236239 1 17704075097044203785
12516196 113 17846777416688543737
12730499 353 18334299768342889218
12788726 201 17703230616184564985
12838862 33 18341315765683927484
13533116 47 12895086080446439924
14170010 4 18410574015891676325
14528608 73 18408882936737677119
14790565 3 18411141299256265097
14933364 13 18409168797371648221
15048467 5 17967814938071266679
15183329 4 18343021060873812553
15196674 1 18337954596569900374
15475509 35 13613967635237563454
17834072 33 18273212010927066671
19784866 140 18130505249780094889
200 152 18060421300699566152
20612939 158 18412267250285912433
20645477 70 18342175531488356214
21267235 1 18343309141256932518
21279426 13 18267021657246439781
21521721 280 18410018766366016387
221357 26 18342457015213204908
22224240 67 11674882220693111148
23559900 14 18269555095683637472
2871803 45 18409450254625079694
29717793 49 17560805411365708644
3004659 81 18409167706043766572
335352 9 18410014351772736254
350125 39 18409448047249857677
3545911 37 18334859428350946015
4073 2 18041283270258544123
4340502 62 18186517717704682074
4463277 17 18409449168193565269
465052 167 17775288274262036303
59755656 215 18408323272049024519
59755656 520 17240479234216837435
6328613 192 18411420567068353925

> <PUBCHEM_SHAPE_MULTIPOLES>
434.91
14.54
1.93
0.9
17.29
0.16
0.18
-1.18
-4.66
-1.4
0.39
-0.08
-0.15
0.46

> <PUBCHEM_SHAPE_SELFOVERLAP>
947.833

> <PUBCHEM_SHAPE_VOLUME>
234.8

> <PUBCHEM_COORDINATE_TYPE>
2
5
10

$$$$
