1231560
  -OEChem-03292013313D

 46 48  0     0  0  0  0  0  0999 V2000
   -5.9262    3.1885    0.8773 Cl  0  0  0  0  0  0  0  0  0  0  0  0
    7.6868    0.6594   -0.2261 Cl  0  0  0  0  0  0  0  0  0  0  0  0
   -0.5735    0.5247    0.7462 S   0  0  0  0  0  0  0  0  0  0  0  0
   -5.7819   -1.9195    0.6441 O   0  0  0  0  0  0  0  0  0  0  0  0
    0.2937    0.5793   -2.9762 O   0  0  0  0  0  0  0  0  0  0  0  0
   -6.9764    0.4374    1.4301 O   0  0  0  0  0  0  0  0  0  0  0  0
    6.0509   -2.6661    1.3454 O   0  0  0  0  0  0  0  0  0  0  0  0
    6.5519   -2.2741   -0.8368 O   0  0  0  0  0  0  0  0  0  0  0  0
    1.4017    0.5644   -0.9061 N   0  0  0  0  0  0  0  0  0  0  0  0
    2.0024    0.5422    1.4043 N   0  0  0  0  0  0  0  0  0  0  0  0
   -0.9424    0.5420   -0.9336 C   0  0  0  0  0  0  0  0  0  0  0  0
   -3.4332    0.5155   -0.6977 C   0  0  0  0  0  0  0  0  0  0  0  0
    1.1434    0.5459    0.4450 C   0  0  0  0  0  0  0  0  0  0  0  0
    0.2967    0.5639   -1.7526 C   0  0  0  0  0  0  0  0  0  0  0  0
   -2.1692    0.5369   -1.4572 C   0  0  0  0  0  0  0  0  0  0  0  0
   -4.0134   -0.7021   -0.3837 C   0  0  0  0  0  0  0  0  0  0  0  0
   -5.2092   -0.7227    0.3341 C   0  0  0  0  0  0  0  0  0  0  0  0
   -4.0140    1.7129   -0.3148 C   0  0  0  0  0  0  0  0  0  0  0  0
    2.7619    0.5834   -1.4244 C   0  0  0  0  0  0  0  0  0  0  0  0
   -5.8074    0.4744    0.7275 C   0  0  0  0  0  0  0  0  0  0  0  0
   -5.2097    1.6922    0.4031 C   0  0  0  0  0  0  0  0  0  0  0  0
    3.3542    0.5590    1.0166 C   0  0  0  0  0  0  0  0  0  0  0  0
    4.0284   -0.6403    0.8121 C   0  0  0  0  0  0  0  0  0  0  0  0
    4.0054    1.7754    0.8411 C   0  0  0  0  0  0  0  0  0  0  0  0
    5.3692   -0.6229    0.4275 C   0  0  0  0  0  0  0  0  0  0  0  0
   -5.5593   -2.9983   -0.2616 C   0  0  0  0  0  0  0  0  0  0  0  0
    5.3462    1.7928    0.4567 C   0  0  0  0  0  0  0  0  0  0  0  0
    6.0281    0.5936    0.2498 C   0  0  0  0  0  0  0  0  0  0  0  0
   -6.7457   -3.9372   -0.2113 C   0  0  0  0  0  0  0  0  0  0  0  0
    6.0406   -1.9005    0.2216 C   0  0  0  0  0  0  0  0  0  0  0  0
   -2.3040    0.5475   -2.5366 H   0  0  0  0  0  0  0  0  0  0  0  0
   -3.5072   -1.6168   -0.6796 H   0  0  0  0  0  0  0  0  0  0  0  0
   -3.5455    2.6608   -0.5703 H   0  0  0  0  0  0  0  0  0  0  0  0
    3.2796   -0.3619   -1.3040 H   0  0  0  0  0  0  0  0  0  0  0  0
    3.2620    1.5349   -1.2810 H   0  0  0  0  0  0  0  0  0  0  0  0
    2.6620    0.5958   -2.5214 H   0  0  0  0  0  0  0  0  0  0  0  0
    3.5080   -1.5851    0.9539 H   0  0  0  0  0  0  0  0  0  0  0  0
    3.4833    2.7145    1.0052 H   0  0  0  0  0  0  0  0  0  0  0  0
   -5.4624   -2.6499   -1.2976 H   0  0  0  0  0  0  0  0  0  0  0  0
   -4.6510   -3.5354    0.0330 H   0  0  0  0  0  0  0  0  0  0  0  0
    5.8450    2.7493    0.3231 H   0  0  0  0  0  0  0  0  0  0  0  0
   -6.6038   -4.7846   -0.8880 H   0  0  0  0  0  0  0  0  0  0  0  0
   -6.8931   -4.3181    0.8047 H   0  0  0  0  0  0  0  0  0  0  0  0
   -7.6654   -3.4122   -0.4903 H   0  0  0  0  0  0  0  0  0  0  0  0
   -7.2485    1.3520    1.6195 H   0  0  0  0  0  0  0  0  0  0  0  0
    6.5042   -3.5237    1.1989 H   0  0  0  0  0  0  0  0  0  0  0  0
  1 21  1  0  0  0  0
  2 28  1  0  0  0  0
  3 11  1  0  0  0  0
  3 13  1  0  0  0  0
  4 17  1  0  0  0  0
  4 26  1  0  0  0  0
  5 14  2  0  0  0  0
  6 20  1  0  0  0  0
  6 45  1  0  0  0  0
  7 30  1  0  0  0  0
  7 46  1  0  0  0  0
  8 30  2  0  0  0  0
  9 13  1  0  0  0  0
  9 14  1  0  0  0  0
  9 19  1  0  0  0  0
 10 13  2  0  0  0  0
 10 22  1  0  0  0  0
 11 14  1  0  0  0  0
 11 15  2  0  0  0  0
 12 15  1  0  0  0  0
 12 16  2  0  0  0  0
 12 18  1  0  0  0  0
 15 31  1  0  0  0  0
 16 17  1  0  0  0  0
 16 32  1  0  0  0  0
 17 20  2  0  0  0  0
 18 21  2  0  0  0  0
 18 33  1  0  0  0  0
 19 34  1  0  0  0  0
 19 35  1  0  0  0  0
 19 36  1  0  0  0  0
 20 21  1  0  0  0  0
 22 23  2  0  0  0  0
 22 24  1  0  0  0  0
 23 25  1  0  0  0  0
 23 37  1  0  0  0  0
 24 27  2  0  0  0  0
 24 38  1  0  0  0  0
 25 28  2  0  0  0  0
 25 30  1  0  0  0  0
 26 29  1  0  0  0  0
 26 39  1  0  0  0  0
 26 40  1  0  0  0  0
 27 28  1  0  0  0  0
 27 41  1  0  0  0  0
 29 42  1  0  0  0  0
 29 43  1  0  0  0  0
 29 44  1  0  0  0  0
M  END
> <PUBCHEM_COMPOUND_CID>
1231560

> <PUBCHEM_CONFORMER_RMSD>
0.8

> <PUBCHEM_CONFORMER_DIVERSEORDER>
4
8
17
3
13
16
15
2
11
9
14
10
1
19
20
12
7
18
5
6

> <PUBCHEM_MMFF94_PARTIAL_CHARGES>
37
1 -0.18
10 -0.63
11 0.12
12 0.03
13 0.65
14 0.62
15 -0.18
16 -0.15
17 0.08
18 -0.15
19 0.3
2 -0.18
20 0.08
21 0.18
22 0.18
23 -0.15
24 -0.15
25 0.09
26 0.28
27 -0.15
28 0.18
3 -0.24
30 0.63
31 0.15
32 0.15
33 0.15
37 0.15
38 0.15
4 -0.36
41 0.15
45 0.45
46 0.5
5 -0.57
6 -0.53
7 -0.65
8 -0.57
9 -0.42

> <PUBCHEM_EFFECTIVE_ROTOR_COUNT>
5.4

> <PUBCHEM_PHARMACOPHORE_FEATURES>
9
1 4 acceptor
1 5 acceptor
1 6 donor
1 7 acceptor
1 8 acceptor
3 7 8 30 anion
5 3 9 11 13 14 rings
6 12 16 17 18 20 21 rings
6 22 23 24 25 27 28 rings

> <PUBCHEM_HEAVY_ATOM_COUNT>
30

> <PUBCHEM_ATOM_DEF_STEREO_COUNT>
0

> <PUBCHEM_ATOM_UDEF_STEREO_COUNT>
0

> <PUBCHEM_BOND_DEF_STEREO_COUNT>
1

> <PUBCHEM_BOND_UDEF_STEREO_COUNT>
0

> <PUBCHEM_ISOTOPIC_ATOM_COUNT>
0

> <PUBCHEM_COMPONENT_COUNT>
1

> <PUBCHEM_CACTVS_TAUTO_COUNT>
3

> <PUBCHEM_CONFORMER_ID>
0012CAC800000004

> <PUBCHEM_MMFF94_ENERGY>
115.7129

> <PUBCHEM_FEATURE_SELFOVERLAP>
45.73

> <PUBCHEM_SHAPE_FINGERPRINT>
10 15 17561084743586326413
10299344 5 18407760331054698874
10319926 262 18201444662141465399
11089746 13 12103843466818935128
11331351 85 17822294522364196773
117089 54 17608941116457511163
12166972 35 18186806876526130380
12516196 113 17095243614017273564
12596602 18 18413106177684201857
12616971 3 17489576875255473540
12730499 353 18260823814076310464
13533116 47 18410853236221300104
1361 4 18409446982019087410
13782708 43 18187635878455107762
14251764 30 18260824874110195624
14341114 176 18410572877182400776
14767858 380 14923951124312929462
14849402 71 18042974353381281860
14856354 85 18412547630657743285
14933364 13 18411982451162965400
15142383 8 17845928538357757024
15183329 4 15123789578447838208
15188451 53 18338230587743838383
15301273 46 17894909590577723645
15348495 7 18344145903828219417
15352257 5 18408603669174086322
17913733 40 15554456218806343143
18222031 100 16660637470967701332
21130935 74 18411417311039915282
21641784 216 13912602689649054366
21774942 28 9871480811358435846
21792938 703 17241339091164683826
21814621 53 18060410301003686938
2303208 19 17967809410543406100
23081809 10 17489575784196753764
23516275 137 18268449952943040482
23522609 53 18042712557601485892
23569943 247 17315907772334258618
24771293 8 17313106393354433252
2838139 119 10952053368045646499
312425 54 18334856099761834793
3383291 50 17386574690717326827
34797466 226 17458633311441808916
3663271 9 18412262856586999560
397830 11 18201442497061255815
4073 2 18333736818384050618
4144715 1 18272378520614762433
4169191 19 12390928181951639410
465052 167 18131632284117401526
4938544 92 18261951861177287453
5028188 123 18334582352069573956
5104073 3 18059850701024366769
5385378 56 14548475638252082740

> <PUBCHEM_SHAPE_MULTIPOLES>
585.67
22.39
3.02
1.53
3.57
2.46
0.82
8.07
-5.95
-5.24
-0.6
0.21
-0.26
-0.86

> <PUBCHEM_SHAPE_SELFOVERLAP>
1244.667

> <PUBCHEM_SHAPE_VOLUME>
331.4

> <PUBCHEM_COORDINATE_TYPE>
2
5
10

$$$$
