123131965
  -OEChem-03292013293D

 64 64  0     1  0  0  0  0  0999 V2000
    1.1004   -0.1326   -2.6905 O   0  0  0  0  0  0  0  0  0  0  0  0
    1.8835   -2.7921   -0.4069 O   0  0  0  0  0  0  0  0  0  0  0  0
   -0.8466   -3.1343   -0.0522 O   0  0  0  0  0  0  0  0  0  0  0  0
    4.7838   -0.9002    1.5567 O   0  0  0  0  0  0  0  0  0  0  0  0
   -3.5886   -0.1004   -0.7458 O   0  0  0  0  0  0  0  0  0  0  0  0
    1.5973    3.6855    1.9015 O   0  0  0  0  0  0  0  0  0  0  0  0
   -2.6283   -0.9981    1.1548 O   0  0  0  0  0  0  0  0  0  0  0  0
    0.4419   -3.3113    1.8570 O   0  0  0  0  0  0  0  0  0  0  0  0
    1.8856    0.4170   -0.4165 C   0  0  2  0  0  0  0  0  0  0  0  0
    1.7192   -0.6729   -1.5201 C   0  0  1  0  0  0  0  0  0  0  0  0
    2.5420    1.6959   -1.0128 C   0  0  0  0  0  0  0  0  0  0  0  0
    0.9630   -1.9649   -1.1295 C   0  0  2  0  0  0  0  0  0  0  0  0
    2.6802   -0.1018    0.7863 C   0  0  0  0  0  0  0  0  0  0  0  0
    2.7558    2.8799   -0.0448 C   0  0  1  0  0  0  0  0  0  0  0  0
   -0.3254   -1.8172   -0.2900 C   0  0  1  0  0  0  0  0  0  0  0  0
    4.1132   -0.4076    0.4049 C   0  0  0  0  0  0  0  0  0  0  0  0
   -1.4467   -1.0298   -0.9744 C   0  0  0  0  0  0  0  0  0  0  0  0
    3.3284    4.0871   -0.7885 C   0  0  0  0  0  0  0  0  0  0  0  0
    1.5134    3.3241    0.7277 C   0  0  0  0  0  0  0  0  0  0  0  0
   -2.6071   -0.7414   -0.0408 C   0  0  0  0  0  0  0  0  0  0  0  0
    2.8634   -3.3380   -1.2717 C   0  0  0  0  0  0  0  0  0  0  0  0
    0.2067    3.3322    0.0159 C   0  0  0  0  0  0  0  0  0  0  0  0
   -0.3711   -3.7626    1.0617 C   0  0  0  0  0  0  0  0  0  0  0  0
   -4.6920    0.4771   -0.0062 C   0  0  1  0  0  0  0  0  0  0  0  0
   -0.9122    3.0775    0.7070 C   0  0  0  0  0  0  0  0  0  0  0  0
   -4.5320    2.0069   -0.0079 C   0  0  0  0  0  0  0  0  0  0  0  0
   -0.9982   -5.1185    1.1809 C   0  0  0  0  0  0  0  0  0  0  0  0
   -5.9753    0.0637   -0.7155 C   0  0  0  0  0  0  0  0  0  0  0  0
   -2.1834    2.8615    0.0566 C   0  0  0  0  0  0  0  0  0  0  0  0
   -3.2708    2.4153    0.7031 C   0  0  0  0  0  0  0  0  0  0  0  0
    0.8847    0.6910   -0.0710 H   0  0  0  0  0  0  0  0  0  0  0  0
    2.7236   -0.8908   -1.8772 H   0  0  0  0  0  0  0  0  0  0  0  0
    1.9114    2.0457   -1.8407 H   0  0  0  0  0  0  0  0  0  0  0  0
    3.4987    1.4428   -1.4868 H   0  0  0  0  0  0  0  0  0  0  0  0
    0.6721   -2.5071   -2.0411 H   0  0  0  0  0  0  0  0  0  0  0  0
    2.2109   -0.9847    1.2308 H   0  0  0  0  0  0  0  0  0  0  0  0
    2.6699    0.6349    1.5990 H   0  0  0  0  0  0  0  0  0  0  0  0
    3.4949    2.5769    0.7069 H   0  0  0  0  0  0  0  0  0  0  0  0
   -0.0938   -1.3384    0.6690 H   0  0  0  0  0  0  0  0  0  0  0  0
    4.2127   -1.1609   -0.3707 H   0  0  0  0  0  0  0  0  0  0  0  0
    4.6549    0.4873    0.0892 H   0  0  0  0  0  0  0  0  0  0  0  0
   -1.8376   -1.6014   -1.8243 H   0  0  0  0  0  0  0  0  0  0  0  0
   -1.0783   -0.0616   -1.3253 H   0  0  0  0  0  0  0  0  0  0  0  0
    2.6426    4.4408   -1.5661 H   0  0  0  0  0  0  0  0  0  0  0  0
    4.2818    3.8348   -1.2643 H   0  0  0  0  0  0  0  0  0  0  0  0
    3.5044    4.9218   -0.1011 H   0  0  0  0  0  0  0  0  0  0  0  0
    1.1397   -0.8091   -3.3878 H   0  0  0  0  0  0  0  0  0  0  0  0
    3.4959   -3.9980   -0.6695 H   0  0  0  0  0  0  0  0  0  0  0  0
    3.5260   -2.6194   -1.7505 H   0  0  0  0  0  0  0  0  0  0  0  0
    2.3898   -3.9600   -2.0390 H   0  0  0  0  0  0  0  0  0  0  0  0
    0.2110    3.4213   -1.0643 H   0  0  0  0  0  0  0  0  0  0  0  0
    5.7036   -1.0811    1.2980 H   0  0  0  0  0  0  0  0  0  0  0  0
   -4.7234    0.0985    1.0226 H   0  0  0  0  0  0  0  0  0  0  0  0
   -0.8771    2.9346    1.7840 H   0  0  0  0  0  0  0  0  0  0  0  0
   -5.3867    2.4795    0.4896 H   0  0  0  0  0  0  0  0  0  0  0  0
   -4.5141    2.3753   -1.0416 H   0  0  0  0  0  0  0  0  0  0  0  0
   -2.0826   -5.0184    1.2723 H   0  0  0  0  0  0  0  0  0  0  0  0
   -0.6175   -5.6166    2.0771 H   0  0  0  0  0  0  0  0  0  0  0  0
   -0.7388   -5.7241    0.3089 H   0  0  0  0  0  0  0  0  0  0  0  0
   -5.9726    0.3944   -1.7601 H   0  0  0  0  0  0  0  0  0  0  0  0
   -6.8565    0.4791   -0.2173 H   0  0  0  0  0  0  0  0  0  0  0  0
   -6.0653   -1.0278   -0.7318 H   0  0  0  0  0  0  0  0  0  0  0  0
   -2.2168    2.9841   -1.0233 H   0  0  0  0  0  0  0  0  0  0  0  0
   -3.2421    2.2548    1.7784 H   0  0  0  0  0  0  0  0  0  0  0  0
  1 10  1  0  0  0  0
  1 47  1  0  0  0  0
  2 12  1  0  0  0  0
  2 21  1  0  0  0  0
  3 15  1  0  0  0  0
  3 23  1  0  0  0  0
  4 16  1  0  0  0  0
  4 52  1  0  0  0  0
  5 20  1  0  0  0  0
  5 24  1  0  0  0  0
  6 19  2  0  0  0  0
  7 20  2  0  0  0  0
  8 23  2  0  0  0  0
  9 10  1  0  0  0  0
  9 11  1  0  0  0  0
  9 13  1  0  0  0  0
  9 31  1  0  0  0  0
 10 12  1  0  0  0  0
 10 32  1  0  0  0  0
 11 14  1  0  0  0  0
 11 33  1  0  0  0  0
 11 34  1  0  0  0  0
 12 15  1  0  0  0  0
 12 35  1  0  0  0  0
 13 16  1  0  0  0  0
 13 36  1  0  0  0  0
 13 37  1  0  0  0  0
 14 18  1  0  0  0  0
 14 19  1  0  0  0  0
 14 38  1  0  0  0  0
 15 17  1  0  0  0  0
 15 39  1  0  0  0  0
 16 40  1  0  0  0  0
 16 41  1  0  0  0  0
 17 20  1  0  0  0  0
 17 42  1  0  0  0  0
 17 43  1  0  0  0  0
 18 44  1  0  0  0  0
 18 45  1  0  0  0  0
 18 46  1  0  0  0  0
 19 22  1  0  0  0  0
 21 48  1  0  0  0  0
 21 49  1  0  0  0  0
 21 50  1  0  0  0  0
 22 25  2  0  0  0  0
 22 51  1  0  0  0  0
 23 27  1  0  0  0  0
 24 26  1  0  0  0  0
 24 28  1  0  0  0  0
 24 53  1  0  0  0  0
 25 29  1  0  0  0  0
 25 54  1  0  0  0  0
 26 30  1  0  0  0  0
 26 55  1  0  0  0  0
 26 56  1  0  0  0  0
 27 57  1  0  0  0  0
 27 58  1  0  0  0  0
 27 59  1  0  0  0  0
 28 60  1  0  0  0  0
 28 61  1  0  0  0  0
 28 62  1  0  0  0  0
 29 30  2  0  0  0  0
 29 63  1  0  0  0  0
 30 64  1  0  0  0  0
M  END
> <PUBCHEM_COMPOUND_CID>
123131965

> <PUBCHEM_CONFORMER_RMSD>
0.8

> <PUBCHEM_CONFORMER_DIVERSEORDER>
2
8
9
17
16
7
15
11
1
13
5
3
12
10
14
6
4

> <PUBCHEM_MMFF94_PARTIAL_CHARGES>
31
1 -0.68
10 0.28
12 0.28
14 0.06
15 0.28
16 0.28
17 0.06
19 0.49
2 -0.56
20 0.66
21 0.28
22 -0.14
23 0.66
24 0.28
25 -0.15
26 0.14
27 0.06
29 -0.15
3 -0.43
30 -0.29
4 -0.68
47 0.4
5 -0.43
51 0.15
52 0.4
54 0.15
6 -0.57
63 0.15
64 0.15
7 -0.57
8 -0.57

> <PUBCHEM_EFFECTIVE_ROTOR_COUNT>
7

> <PUBCHEM_PHARMACOPHORE_FEATURES>
8
1 1 acceptor
1 1 donor
1 2 acceptor
1 4 acceptor
1 4 donor
1 6 acceptor
1 7 acceptor
1 8 acceptor

> <PUBCHEM_HEAVY_ATOM_COUNT>
30

> <PUBCHEM_ATOM_DEF_STEREO_COUNT>
6

> <PUBCHEM_ATOM_UDEF_STEREO_COUNT>
0

> <PUBCHEM_BOND_DEF_STEREO_COUNT>
2

> <PUBCHEM_BOND_UDEF_STEREO_COUNT>
0

> <PUBCHEM_ISOTOPIC_ATOM_COUNT>
0

> <PUBCHEM_COMPONENT_COUNT>
1

> <PUBCHEM_CACTVS_TAUTO_COUNT>
20

> <PUBCHEM_CONFORMER_ID>
0756D83D00000002

> <PUBCHEM_MMFF94_ENERGY>
73.0106

> <PUBCHEM_FEATURE_SELFOVERLAP>
40.607

> <PUBCHEM_SHAPE_FINGERPRINT>
10006869 2 17834391606948891906
10675989 125 18412825768482742809
10759866 29 18189620617160668908
1100329 8 18336537309133852290
12539773 59 14168501316020257135
12633257 1 18262785354850661174
12788726 201 18339933623933470974
13122387 1 16465592560711740377
13140716 1 18193272116787713806
14466204 15 18264761074034522096
14725015 67 18339911650343279889
17974551 9 18118111705294271818
19930381 70 18412544323596215589
20764821 26 18338800138608241321
392239 28 17907860600544113570
463206 1 17977961089739059889
57091435 65 17833551198023386147

> <PUBCHEM_SHAPE_MULTIPOLES>
570.43
8.1
6.73
1.56
7.85
2.21
-0.15
-3.33
-0.39
-2.54
2.34
-0.91
0.6
0.27

> <PUBCHEM_SHAPE_SELFOVERLAP>
1132.927

> <PUBCHEM_SHAPE_VOLUME>
335.1

> <PUBCHEM_COORDINATE_TYPE>
2
5
10

$$$$
