12310232
  -OEChem-03292013303D

 69 73  0     1  0  0  0  0  0999 V2000
   -1.0646   -2.2397   -1.9463 O   0  0  0  0  0  0  0  0  0  0  0  0
    0.1271    2.1314   -0.1754 O   0  0  0  0  0  0  0  0  0  0  0  0
   -2.1632   -3.1168   -0.0526 O   0  0  0  0  0  0  0  0  0  0  0  0
    0.2287   -2.7252    1.4609 O   0  0  0  0  0  0  0  0  0  0  0  0
    2.9160    0.2681    0.8881 O   0  0  0  0  0  0  0  0  0  0  0  0
   -3.7701   -1.8084    1.4992 O   0  0  0  0  0  0  0  0  0  0  0  0
    1.7925    2.6123    1.2418 O   0  0  0  0  0  0  0  0  0  0  0  0
   -5.8386   -0.1949    1.9538 O   0  0  0  0  0  0  0  0  0  0  0  0
    3.2799    1.3928   -1.0886 O   0  0  0  0  0  0  0  0  0  0  0  0
    5.8958    1.4631   -0.6986 O   0  0  0  0  0  0  0  0  0  0  0  0
   -0.3046   -0.1574   -1.0674 C   0  0  2  0  0  0  0  0  0  0  0  0
   -1.3398   -0.7802   -0.0929 C   0  0  1  0  0  0  0  0  0  0  0  0
   -2.8158   -0.1670   -0.1376 C   0  0  2  0  0  0  0  0  0  0  0  0
    1.1662   -0.4787   -0.6154 C   0  0  2  0  0  0  0  0  0  0  0  0
   -1.1305   -2.2596   -0.5036 C   0  0  2  0  0  0  0  0  0  0  0  0
   -0.4163    1.3489   -1.2711 C   0  0  1  0  0  0  0  0  0  0  0  0
   -2.7097    1.4020   -0.2228 C   0  0  1  0  0  0  0  0  0  0  0  0
    1.4243   -2.0215   -0.5411 C   0  0  2  0  0  0  0  0  0  0  0  0
   -0.5949   -0.9431   -2.3576 C   0  0  0  0  0  0  0  0  0  0  0  0
    0.2201   -2.7901    0.0356 C   0  0  1  0  0  0  0  0  0  0  0  0
   -1.8593    1.8348   -1.4325 C   0  0  0  0  0  0  0  0  0  0  0  0
    1.5108    0.3049    0.6529 C   0  0  2  0  0  0  0  0  0  0  0  0
   -3.5492   -0.4399    1.2200 C   0  0  1  0  0  0  0  0  0  0  0  0
   -3.6762   -0.7291   -1.3060 C   0  0  0  0  0  0  0  0  0  0  0  0
   -4.0605    2.1008   -0.0951 C   0  0  0  0  0  0  0  0  0  0  0  0
    2.7359   -2.4454    0.1233 C   0  0  0  0  0  0  0  0  0  0  0  0
    1.1839    1.7747    0.5786 C   0  0  0  0  0  0  0  0  0  0  0  0
   -4.8958    0.2666    1.3119 C   0  0  0  0  0  0  0  0  0  0  0  0
   -5.0609    1.5696    0.6260 C   0  0  0  0  0  0  0  0  0  0  0  0
   -4.2478    3.4524   -0.7272 C   0  0  0  0  0  0  0  0  0  0  0  0
    3.6973    0.8541   -0.0706 C   0  0  0  0  0  0  0  0  0  0  0  0
    5.1742    0.7441    0.3000 C   0  0  1  0  0  0  0  0  0  0  0  0
    5.6175   -0.7296    0.2936 C   0  0  0  0  0  0  0  0  0  0  0  0
    5.4287    1.4454    1.6327 C   0  0  0  0  0  0  0  0  0  0  0  0
    7.0988   -0.9394    0.5837 C   0  0  0  0  0  0  0  0  0  0  0  0
   -1.0153   -0.6340    0.9430 H   0  0  0  0  0  0  0  0  0  0  0  0
    1.7989   -0.1564   -1.4476 H   0  0  0  0  0  0  0  0  0  0  0  0
    0.1496    1.6516   -2.1612 H   0  0  0  0  0  0  0  0  0  0  0  0
   -2.1611    1.7393    0.6711 H   0  0  0  0  0  0  0  0  0  0  0  0
    1.5208   -2.3631   -1.5822 H   0  0  0  0  0  0  0  0  0  0  0  0
   -1.3597   -0.4889   -2.9894 H   0  0  0  0  0  0  0  0  0  0  0  0
    0.2857   -1.0685   -2.9967 H   0  0  0  0  0  0  0  0  0  0  0  0
    0.3207   -3.8498   -0.2344 H   0  0  0  0  0  0  0  0  0  0  0  0
   -2.2948    1.4892   -2.3744 H   0  0  0  0  0  0  0  0  0  0  0  0
   -1.8269    2.9295   -1.4918 H   0  0  0  0  0  0  0  0  0  0  0  0
    1.0158   -0.1043    1.5376 H   0  0  0  0  0  0  0  0  0  0  0  0
   -2.9459   -0.0493    2.0496 H   0  0  0  0  0  0  0  0  0  0  0  0
   -4.7070   -0.3624   -1.2781 H   0  0  0  0  0  0  0  0  0  0  0  0
   -3.2956   -0.4479   -2.2871 H   0  0  0  0  0  0  0  0  0  0  0  0
   -3.7522   -1.8181   -1.2881 H   0  0  0  0  0  0  0  0  0  0  0  0
    2.8213   -3.5385    0.1229 H   0  0  0  0  0  0  0  0  0  0  0  0
    3.5645   -2.0758   -0.4740 H   0  0  0  0  0  0  0  0  0  0  0  0
    2.8223   -2.1207    1.1621 H   0  0  0  0  0  0  0  0  0  0  0  0
   -1.8314   -4.0298   -0.0470 H   0  0  0  0  0  0  0  0  0  0  0  0
    0.9502   -3.2918    1.7816 H   0  0  0  0  0  0  0  0  0  0  0  0
   -6.0173    2.0682    0.7409 H   0  0  0  0  0  0  0  0  0  0  0  0
   -4.3337   -2.1778    0.7994 H   0  0  0  0  0  0  0  0  0  0  0  0
   -5.2276    3.8851   -0.4967 H   0  0  0  0  0  0  0  0  0  0  0  0
   -4.1742    3.3819   -1.8170 H   0  0  0  0  0  0  0  0  0  0  0  0
   -3.4908    4.1535   -0.3610 H   0  0  0  0  0  0  0  0  0  0  0  0
    5.0510   -1.3013    1.0348 H   0  0  0  0  0  0  0  0  0  0  0  0
    5.4278   -1.1569   -0.6977 H   0  0  0  0  0  0  0  0  0  0  0  0
    4.9949    0.8933    2.4729 H   0  0  0  0  0  0  0  0  0  0  0  0
    4.9895    2.4503    1.6313 H   0  0  0  0  0  0  0  0  0  0  0  0
    6.4999    1.5802    1.8166 H   0  0  0  0  0  0  0  0  0  0  0  0
    5.8002    0.9873   -1.5414 H   0  0  0  0  0  0  0  0  0  0  0  0
    7.3497   -2.0016    0.4964 H   0  0  0  0  0  0  0  0  0  0  0  0
    7.3566   -0.6220    1.5984 H   0  0  0  0  0  0  0  0  0  0  0  0
    7.7266   -0.3878   -0.1228 H   0  0  0  0  0  0  0  0  0  0  0  0
  1 15  1  0  0  0  0
  1 19  1  0  0  0  0
  2 16  1  0  0  0  0
  2 27  1  0  0  0  0
  3 15  1  0  0  0  0
  3 54  1  0  0  0  0
  4 20  1  0  0  0  0
  4 55  1  0  0  0  0
  5 22  1  0  0  0  0
  5 31  1  0  0  0  0
  6 23  1  0  0  0  0
  6 57  1  0  0  0  0
  7 27  2  0  0  0  0
  8 28  2  0  0  0  0
  9 31  2  0  0  0  0
 10 32  1  0  0  0  0
 10 66  1  0  0  0  0
 11 12  1  0  0  0  0
 11 14  1  0  0  0  0
 11 16  1  0  0  0  0
 11 19  1  0  0  0  0
 12 13  1  0  0  0  0
 12 15  1  0  0  0  0
 12 36  1  0  0  0  0
 13 17  1  0  0  0  0
 13 23  1  0  0  0  0
 13 24  1  0  0  0  0
 14 18  1  0  0  0  0
 14 22  1  0  0  0  0
 14 37  1  0  0  0  0
 15 20  1  0  0  0  0
 16 21  1  0  0  0  0
 16 38  1  0  0  0  0
 17 21  1  0  0  0  0
 17 25  1  0  0  0  0
 17 39  1  0  0  0  0
 18 20  1  0  0  0  0
 18 26  1  0  0  0  0
 18 40  1  0  0  0  0
 19 41  1  0  0  0  0
 19 42  1  0  0  0  0
 20 43  1  0  0  0  0
 21 44  1  0  0  0  0
 21 45  1  0  0  0  0
 22 27  1  0  0  0  0
 22 46  1  0  0  0  0
 23 28  1  0  0  0  0
 23 47  1  0  0  0  0
 24 48  1  0  0  0  0
 24 49  1  0  0  0  0
 24 50  1  0  0  0  0
 25 29  2  0  0  0  0
 25 30  1  0  0  0  0
 26 51  1  0  0  0  0
 26 52  1  0  0  0  0
 26 53  1  0  0  0  0
 28 29  1  0  0  0  0
 29 56  1  0  0  0  0
 30 58  1  0  0  0  0
 30 59  1  0  0  0  0
 30 60  1  0  0  0  0
 31 32  1  0  0  0  0
 32 33  1  0  0  0  0
 32 34  1  0  0  0  0
 33 35  1  0  0  0  0
 33 61  1  0  0  0  0
 33 62  1  0  0  0  0
 34 63  1  0  0  0  0
 34 64  1  0  0  0  0
 34 65  1  0  0  0  0
 35 67  1  0  0  0  0
 35 68  1  0  0  0  0
 35 69  1  0  0  0  0
M  END
> <PUBCHEM_COMPOUND_CID>
12310232

> <PUBCHEM_CONFORMER_RMSD>
0.8

> <PUBCHEM_CONFORMER_DIVERSEORDER>
1
3
7
5
2
6
4

> <PUBCHEM_MMFF94_PARTIAL_CHARGES>
29
1 -0.56
10 -0.68
15 0.56
16 0.28
17 0.14
19 0.28
2 -0.43
20 0.28
22 0.34
23 0.34
25 -0.28
27 0.66
28 0.49
29 -0.14
3 -0.68
30 0.14
31 0.66
32 0.34
4 -0.68
5 -0.43
54 0.4
55 0.4
56 0.15
57 0.4
6 -0.68
66 0.4
7 -0.57
8 -0.57
9 -0.57

> <PUBCHEM_EFFECTIVE_ROTOR_COUNT>
5.6

> <PUBCHEM_PHARMACOPHORE_FEATURES>
17
1 1 acceptor
1 10 acceptor
1 10 donor
1 3 acceptor
1 3 donor
1 35 hydrophobe
1 4 acceptor
1 4 donor
1 6 acceptor
1 6 donor
1 7 acceptor
1 8 acceptor
1 9 acceptor
6 11 12 13 16 17 21 rings
6 13 17 23 25 28 29 rings
6 2 11 14 16 22 27 rings
8 1 11 12 14 15 18 19 20 rings

> <PUBCHEM_HEAVY_ATOM_COUNT>
35

> <PUBCHEM_ATOM_DEF_STEREO_COUNT>
11

> <PUBCHEM_ATOM_UDEF_STEREO_COUNT>
1

> <PUBCHEM_BOND_DEF_STEREO_COUNT>
0

> <PUBCHEM_BOND_UDEF_STEREO_COUNT>
0

> <PUBCHEM_ISOTOPIC_ATOM_COUNT>
0

> <PUBCHEM_COMPONENT_COUNT>
1

> <PUBCHEM_CACTVS_TAUTO_COUNT>
13

> <PUBCHEM_CONFORMER_ID>
00BBD6D800000001

> <PUBCHEM_MMFF94_ENERGY>
137.7727

> <PUBCHEM_FEATURE_SELFOVERLAP>
86.517

> <PUBCHEM_SHAPE_FINGERPRINT>
10165383 225 18342748424639162417
10675989 125 17255390523545909733
1100329 8 18271243927688961488
11007060 377 18270952565787141168
11115154 58 16981772000277134015
11578080 2 16372958912451420335
1200032 147 13684926838719043075
12011746 2 18336815464137539317
12035758 1 18343591732550418442
12166972 35 12175609702880953409
12422481 6 18335136467201446222
12633257 1 18342178915980341353
131258 38 16380586636820166491
13140716 1 18122629623999637461
13544653 18 12829202269719960916
14790565 3 18410854361107534300
14856354 85 16950575375887496754
14866123 147 18410007771187168834
14955137 171 18334582351917144772
15209289 33 18338510962612588122
15420108 30 18201720605495814615
1601671 61 18343021082026954136
16945 1 18340769355306620087
17349148 13 9439131982944725420
1813 80 16081378435617161486
21033648 29 18272357672870167777
21279426 13 18270964536277161542
21304304 249 18114189687389192179
21403212 168 18201720626648819761
21756936 100 18342170089975528750
22182313 1 18263364694135339213
23559900 14 17753905917207991639
23569943 247 16413807981442350198
2838139 119 16415476030290728296
3411729 13 18267870467412098521
350125 39 18341331201453309591
392239 28 18260839180504172147
4093350 32 16916233143600233159
4340502 62 18411987927229956088
5104073 3 18118132377056283305
5265222 85 18338245976822286540
56638632 33 16448406206159110675
59755656 215 18269558252468509574
6086070 43 17488441057915775041
70251023 43 17412436393301877782
7226269 152 17989204837526395704

> <PUBCHEM_SHAPE_MULTIPOLES>
661.59
12.38
3.34
1.6
12.04
0.56
0.13
-4.8
-4.97
-1.27
0.13
-1.05
0.2
0.72

> <PUBCHEM_SHAPE_SELFOVERLAP>
1442.943

> <PUBCHEM_SHAPE_VOLUME>
350.7

> <PUBCHEM_COORDINATE_TYPE>
2
5
10

$$$$
