12313740
  -OEChem-03292013303D

 53 56  0     1  0  0  0  0  0999 V2000
    4.1145   -0.6158    0.7503 O   0  0  0  0  0  0  0  0  0  0  0  0
    3.1949    1.5279    0.6997 O   0  0  0  0  0  0  0  0  0  0  0  0
    7.4778    0.6392   -1.2447 O   0  0  0  0  0  0  0  0  0  0  0  0
    6.8631   -2.1814   -1.0956 O   0  0  0  0  0  0  0  0  0  0  0  0
    5.0006    2.2300   -1.3630 O   0  0  0  0  0  0  0  0  0  0  0  0
    3.5201   -3.2491    1.2687 O   0  0  0  0  0  0  0  0  0  0  0  0
   -0.7712   -1.0270    0.1492 O   0  0  0  0  0  0  0  0  0  0  0  0
   -3.1133    2.2913    0.5380 O   0  0  0  0  0  0  0  0  0  0  0  0
   -8.5404   -0.8651   -0.3645 O   0  0  0  0  0  0  0  0  0  0  0  0
    6.1511    0.1209   -1.1361 C   0  0  1  0  0  0  0  0  0  0  0  0
    6.2141   -1.1735   -0.3250 C   0  0  1  0  0  0  0  0  0  0  0  0
    5.2542    1.1562   -0.4573 C   0  0  2  0  0  0  0  0  0  0  0  0
    4.8082   -1.6491    0.0487 C   0  0  1  0  0  0  0  0  0  0  0  0
    3.9128    0.5474   -0.0489 C   0  0  1  0  0  0  0  0  0  0  0  0
    4.8494   -2.8740    0.9570 C   0  0  0  0  0  0  0  0  0  0  0  0
    1.8344    1.4752    0.6275 C   0  0  0  0  0  0  0  0  0  0  0  0
    1.1946    0.2526    0.4243 C   0  0  0  0  0  0  0  0  0  0  0  0
    1.0844    2.6448    0.7559 C   0  0  0  0  0  0  0  0  0  0  0  0
   -0.1977    0.2024    0.3495 C   0  0  0  0  0  0  0  0  0  0  0  0
   -0.9472    1.3711    0.4782 C   0  0  0  0  0  0  0  0  0  0  0  0
   -0.3084    2.5971    0.6821 C   0  0  0  0  0  0  0  0  0  0  0  0
   -2.4176    1.2934    0.4004 C   0  0  0  0  0  0  0  0  0  0  0  0
   -2.9976   -0.0571    0.1622 C   0  0  0  0  0  0  0  0  0  0  0  0
   -2.1408   -1.0840    0.0574 C   0  0  0  0  0  0  0  0  0  0  0  0
   -4.4478   -0.2689    0.0250 C   0  0  0  0  0  0  0  0  0  0  0  0
   -5.2236   -0.5616    1.1486 C   0  0  0  0  0  0  0  0  0  0  0  0
   -5.0529   -0.1774   -1.2304 C   0  0  0  0  0  0  0  0  0  0  0  0
   -6.5977   -0.7620    1.0177 C   0  0  0  0  0  0  0  0  0  0  0  0
   -6.4271   -0.3776   -1.3615 C   0  0  0  0  0  0  0  0  0  0  0  0
   -7.1996   -0.6699   -0.2374 C   0  0  0  0  0  0  0  0  0  0  0  0
   -9.0912   -0.7562   -1.6762 C   0  0  0  0  0  0  0  0  0  0  0  0
    5.8083   -0.0730   -2.1599 H   0  0  0  0  0  0  0  0  0  0  0  0
    6.8181   -0.9990    0.5750 H   0  0  0  0  0  0  0  0  0  0  0  0
    5.7685    1.5840    0.4123 H   0  0  0  0  0  0  0  0  0  0  0  0
    4.2312   -1.9116   -0.8485 H   0  0  0  0  0  0  0  0  0  0  0  0
    3.3640    0.2913   -0.9680 H   0  0  0  0  0  0  0  0  0  0  0  0
    5.3659   -2.6587    1.8982 H   0  0  0  0  0  0  0  0  0  0  0  0
    5.3347   -3.7265    0.4745 H   0  0  0  0  0  0  0  0  0  0  0  0
    8.0245   -0.0461   -1.6660 H   0  0  0  0  0  0  0  0  0  0  0  0
    7.1112   -2.9029   -0.4936 H   0  0  0  0  0  0  0  0  0  0  0  0
    4.4189    2.8632   -0.9084 H   0  0  0  0  0  0  0  0  0  0  0  0
    3.0929   -2.4886    1.6987 H   0  0  0  0  0  0  0  0  0  0  0  0
    1.7316   -0.6857    0.3393 H   0  0  0  0  0  0  0  0  0  0  0  0
    1.5811    3.5984    0.9137 H   0  0  0  0  0  0  0  0  0  0  0  0
   -0.8738    3.5190    0.7849 H   0  0  0  0  0  0  0  0  0  0  0  0
   -2.4475   -2.1076   -0.1196 H   0  0  0  0  0  0  0  0  0  0  0  0
   -4.7696   -0.6358    2.1340 H   0  0  0  0  0  0  0  0  0  0  0  0
   -4.4636    0.0508   -2.1156 H   0  0  0  0  0  0  0  0  0  0  0  0
   -7.1944   -0.9892    1.8970 H   0  0  0  0  0  0  0  0  0  0  0  0
   -6.8297   -0.2911   -2.3649 H   0  0  0  0  0  0  0  0  0  0  0  0
   -8.6872   -1.5220   -2.3471 H   0  0  0  0  0  0  0  0  0  0  0  0
   -8.9713    0.2547   -2.0803 H   0  0  0  0  0  0  0  0  0  0  0  0
  -10.1671   -0.9410   -1.5915 H   0  0  0  0  0  0  0  0  0  0  0  0
  1 13  1  0  0  0  0
  1 14  1  0  0  0  0
  2 14  1  0  0  0  0
  2 16  1  0  0  0  0
  3 10  1  0  0  0  0
  3 39  1  0  0  0  0
  4 11  1  0  0  0  0
  4 40  1  0  0  0  0
  5 12  1  0  0  0  0
  5 41  1  0  0  0  0
  6 15  1  0  0  0  0
  6 42  1  0  0  0  0
  7 19  1  0  0  0  0
  7 24  1  0  0  0  0
  8 22  2  0  0  0  0
  9 30  1  0  0  0  0
  9 31  1  0  0  0  0
 10 11  1  0  0  0  0
 10 12  1  0  0  0  0
 10 32  1  0  0  0  0
 11 13  1  0  0  0  0
 11 33  1  0  0  0  0
 12 14  1  0  0  0  0
 12 34  1  0  0  0  0
 13 15  1  0  0  0  0
 13 35  1  0  0  0  0
 14 36  1  0  0  0  0
 15 37  1  0  0  0  0
 15 38  1  0  0  0  0
 16 17  2  0  0  0  0
 16 18  1  0  0  0  0
 17 19  1  0  0  0  0
 17 43  1  0  0  0  0
 18 21  2  0  0  0  0
 18 44  1  0  0  0  0
 19 20  2  0  0  0  0
 20 21  1  0  0  0  0
 20 22  1  0  0  0  0
 21 45  1  0  0  0  0
 22 23  1  0  0  0  0
 23 24  2  0  0  0  0
 23 25  1  0  0  0  0
 24 46  1  0  0  0  0
 25 26  2  0  0  0  0
 25 27  1  0  0  0  0
 26 28  1  0  0  0  0
 26 47  1  0  0  0  0
 27 29  2  0  0  0  0
 27 48  1  0  0  0  0
 28 30  2  0  0  0  0
 28 49  1  0  0  0  0
 29 30  1  0  0  0  0
 29 50  1  0  0  0  0
 31 51  1  0  0  0  0
 31 52  1  0  0  0  0
 31 53  1  0  0  0  0
M  END
> <PUBCHEM_COMPOUND_CID>
12313740

> <PUBCHEM_CONFORMER_RMSD>
0.8

> <PUBCHEM_CONFORMER_DIVERSEORDER>
7
106
144
135
101
16
72
110
150
77
100
63
70
49
98
161
55
14
9
105
48
108
45
160
78
128
165
127
76
73
102
41
36
89
157
154
137
75
87
64
168
8
66
112
18
139
22
146
118
32
143
46
167
124
117
119
176
81
21
125
114
121
59
85
57
34
43
53
136
138
149
51
129
109
103
74
133
141
177
132
93
152
166
111
90
60
115
23
15
91
120
80
71
158
130
17
58
13
19
97
86
40
94
134
162
3
131
174
163
39
11
65
170
33
159
52
153
26
47
4
5
164
83
10
50
92
30
104
172
35
171
148
107
1
79
24
6
27
2
96
122
155
20
169
126
69
28
44
156
95
123
175
25
37
29
61
142
54
42
12
88
31
173
84
116
68
62
38
145
82
140
151
99
147
113
56
67

> <PUBCHEM_MMFF94_PARTIAL_CHARGES>
43
1 -0.56
10 0.28
11 0.28
12 0.28
13 0.28
14 0.56
15 0.28
16 0.08
17 -0.15
18 -0.15
19 0.08
2 -0.36
20 0.09
21 -0.15
22 0.47
23 -0.01
24 -0.07
25 0.03
26 -0.15
27 -0.15
28 -0.15
29 -0.15
3 -0.68
30 0.08
31 0.28
39 0.4
4 -0.68
40 0.4
41 0.4
42 0.4
43 0.15
44 0.15
45 0.15
46 0.15
47 0.15
48 0.15
49 0.15
5 -0.68
50 0.15
6 -0.68
7 -0.16
8 -0.57
9 -0.36

> <PUBCHEM_EFFECTIVE_ROTOR_COUNT>
6.2

> <PUBCHEM_PHARMACOPHORE_FEATURES>
17
1 1 acceptor
1 2 acceptor
1 3 acceptor
1 3 donor
1 4 acceptor
1 4 donor
1 5 acceptor
1 5 donor
1 6 acceptor
1 6 donor
1 7 acceptor
1 8 acceptor
1 9 acceptor
6 1 10 11 12 13 14 rings
6 16 17 18 19 20 21 rings
6 25 26 27 28 29 30 rings
6 7 19 20 22 23 24 rings

> <PUBCHEM_HEAVY_ATOM_COUNT>
31

> <PUBCHEM_ATOM_DEF_STEREO_COUNT>
4

> <PUBCHEM_ATOM_UDEF_STEREO_COUNT>
1

> <PUBCHEM_BOND_DEF_STEREO_COUNT>
0

> <PUBCHEM_BOND_UDEF_STEREO_COUNT>
0

> <PUBCHEM_ISOTOPIC_ATOM_COUNT>
0

> <PUBCHEM_COMPONENT_COUNT>
1

> <PUBCHEM_CACTVS_TAUTO_COUNT>
1

> <PUBCHEM_CONFORMER_ID>
00BBE48C00000007

> <PUBCHEM_MMFF94_ENERGY>
111.7204

> <PUBCHEM_FEATURE_SELFOVERLAP>
86.37

> <PUBCHEM_SHAPE_FINGERPRINT>
10299344 5 18130793360665829243
10673678 19 17387710520488226492
11135609 127 18042405919039025220
11408170 132 18041834026784117997
11524674 6 15482671295257107669
117089 54 18054234220122856646
12166972 35 18260552224922591821
12539765 74 13479124671468007121
12592606 108 18059855095483058559
12760667 363 18272371966874100233
13533116 47 18410853261273874050
13617811 41 18333446565058896600
13692114 37 14979949307255289221
13782708 43 17203321243562076599
13862211 1 18202002131637592777
14068700 675 17632861932163323801
14118638 360 18408605834159103416
14216079 64 18202846556509631173
14347332 77 18342736278355734553
14931854 50 18260836947654129030
15183329 4 18202565098892209135
15198563 99 17968374550989068245
15483637 11 18047194338953507954
16628084 112 18264201418474530175
17134984 74 18113337518448376778
17492 89 18052259497386440282
19302320 297 10159690317800014770
19319366 153 18334855035475680026
21033648 29 12180416833286961220
21150785 3 17458063780759745845
21267235 1 18343025479719745137
21792961 116 18186517696646453577
221357 26 18410291415111528696
22224240 67 9007061266681013909
23522609 53 17913804762031003057
23559900 14 18338515373322780257
23569943 247 18131073680207640875
23576562 1 17824258427205387983
25269216 80 15358275878353859179
27425 322 15430611670503330194
3004659 81 18334576824583742016
335352 9 18342457080143739863
3383291 50 18412541007175361386
34797466 226 16950563307076698805
3633792 109 17967251988044232573
4093350 32 14129048197416081689
4098825 35 18040993991283948189
437795 51 18113339721513697411
439807 62 18408041788408526075
445580 126 7853577898224790396
46194498 28 17458627847990435124
5372103 7 16588882325160602484
59682541 35 10231755613599982285
59755656 215 18407760330796554283
6058803 2 17976553706914594056
86090 222 15697457571828654692
9962374 69 17775275110192587580

> <PUBCHEM_SHAPE_MULTIPOLES>
585.14
23.9
2.65
1.25
20.39
0.08
-0.27
11.98
-10.27
-4.38
0.79
0.4
0.19
-1.39

> <PUBCHEM_SHAPE_SELFOVERLAP>
1275.266

> <PUBCHEM_SHAPE_VOLUME>
315.5

> <PUBCHEM_COORDINATE_TYPE>
2
5
10

$$$$
