123131995
  -OEChem-03292013293D

 52 54  0     1  0  0  0  0  0999 V2000
   -1.5100   -2.0419    0.0755 O   0  0  0  0  0  0  0  0  0  0  0  0
   -1.2508    1.8374   -1.4212 O   0  0  0  0  0  0  0  0  0  0  0  0
   -0.2939    0.0390    1.3962 O   0  0  0  0  0  0  0  0  0  0  0  0
    1.2610   -1.9481    0.1322 O   0  0  0  0  0  0  0  0  0  0  0  0
    6.1451   -0.8873   -0.1076 O   0  0  0  0  0  0  0  0  0  0  0  0
    3.4745   -0.3965    0.3283 N   0  0  0  0  0  0  0  0  0  0  0  0
    4.4425    0.4707    0.6955 N   0  0  0  0  0  0  0  0  0  0  0  0
    6.6335    1.1314    0.8724 N   0  0  0  0  0  0  0  0  0  0  0  0
   -0.1880    0.0273   -0.0346 C   0  0  2  0  0  0  0  0  0  0  0  0
   -0.2044    1.4883   -0.4965 C   0  0  2  0  0  0  0  0  0  0  0  0
   -1.3446   -0.7877   -0.5873 C   0  0  2  0  0  0  0  0  0  0  0  0
   -2.5174   -1.0517    0.3225 C   0  0  1  0  0  0  0  0  0  0  0  0
   -1.3670    2.3850   -0.1056 C   0  0  0  0  0  0  0  0  0  0  0  0
    1.1555   -0.6449   -0.4198 C   0  0  1  0  0  0  0  0  0  0  0  0
    1.1142    2.1299   -0.8477 C   0  0  0  0  0  0  0  0  0  0  0  0
   -1.4489   -0.8379   -2.0693 C   0  0  0  0  0  0  0  0  0  0  0  0
    2.2069    1.6783    0.1071 C   0  0  0  0  0  0  0  0  0  0  0  0
    2.3540    0.1778    0.0308 C   0  0  0  0  0  0  0  0  0  0  0  0
   -3.8699   -1.3991   -0.1879 C   0  0  0  0  0  0  0  0  0  0  0  0
   -4.8036   -0.2263   -0.3530 C   0  0  0  0  0  0  0  0  0  0  0  0
    2.1596   -2.7571   -0.6132 C   0  0  0  0  0  0  0  0  0  0  0  0
   -5.6381    0.2965    0.5653 C   0  0  0  0  0  0  0  0  0  0  0  0
   -6.5460    1.4713    0.3348 C   0  0  0  0  0  0  0  0  0  0  0  0
   -5.7284   -0.3011    1.9439 C   0  0  0  0  0  0  0  0  0  0  0  0
    5.7645    0.1469    0.4391 C   0  0  0  0  0  0  0  0  0  0  0  0
   -2.5599   -0.6257    1.3157 H   0  0  0  0  0  0  0  0  0  0  0  0
   -2.1464    1.9905    0.5335 H   0  0  0  0  0  0  0  0  0  0  0  0
   -1.1932    3.4469    0.0131 H   0  0  0  0  0  0  0  0  0  0  0  0
    1.2327   -0.7044   -1.5135 H   0  0  0  0  0  0  0  0  0  0  0  0
    1.0361    3.2230   -0.8187 H   0  0  0  0  0  0  0  0  0  0  0  0
    1.3799    1.8573   -1.8772 H   0  0  0  0  0  0  0  0  0  0  0  0
   -0.5836   -0.4240   -2.5941 H   0  0  0  0  0  0  0  0  0  0  0  0
   -2.3292   -0.2873   -2.4177 H   0  0  0  0  0  0  0  0  0  0  0  0
   -1.5586   -1.8719   -2.4164 H   0  0  0  0  0  0  0  0  0  0  0  0
    1.9749    1.9663    1.1377 H   0  0  0  0  0  0  0  0  0  0  0  0
    3.1160    2.1980   -0.2112 H   0  0  0  0  0  0  0  0  0  0  0  0
   -3.8048   -1.9057   -1.1594 H   0  0  0  0  0  0  0  0  0  0  0  0
   -4.3157   -2.1531    0.4711 H   0  0  0  0  0  0  0  0  0  0  0  0
    0.4596    0.5258    1.7668 H   0  0  0  0  0  0  0  0  0  0  0  0
   -4.7743    0.2430   -1.3353 H   0  0  0  0  0  0  0  0  0  0  0  0
    2.4963   -3.5744    0.0309 H   0  0  0  0  0  0  0  0  0  0  0  0
    3.0353   -2.2430   -1.0144 H   0  0  0  0  0  0  0  0  0  0  0  0
    1.6126   -3.1986   -1.4530 H   0  0  0  0  0  0  0  0  0  0  0  0
    4.1996    1.3184    1.1948 H   0  0  0  0  0  0  0  0  0  0  0  0
   -6.2990    2.2858    1.0232 H   0  0  0  0  0  0  0  0  0  0  0  0
   -4.9619   -1.0449    2.1700 H   0  0  0  0  0  0  0  0  0  0  0  0
   -6.7067   -0.7734    2.0824 H   0  0  0  0  0  0  0  0  0  0  0  0
   -5.6229    0.4880    2.6971 H   0  0  0  0  0  0  0  0  0  0  0  0
   -6.4548    1.8569   -0.6860 H   0  0  0  0  0  0  0  0  0  0  0  0
   -7.5903    1.1832    0.4919 H   0  0  0  0  0  0  0  0  0  0  0  0
    7.6366    1.0368    0.7540 H   0  0  0  0  0  0  0  0  0  0  0  0
    6.2976    1.9776    1.3199 H   0  0  0  0  0  0  0  0  0  0  0  0
  1 11  1  0  0  0  0
  1 12  1  0  0  0  0
  2 10  1  0  0  0  0
  2 13  1  0  0  0  0
  3  9  1  0  0  0  0
  3 39  1  0  0  0  0
  4 14  1  0  0  0  0
  4 21  1  0  0  0  0
  5 25  2  0  0  0  0
  6  7  1  0  0  0  0
  6 18  2  3  0  0  0
  7 25  1  0  0  0  0
  7 44  1  0  0  0  0
  8 25  1  0  0  0  0
  8 51  1  0  0  0  0
  8 52  1  0  0  0  0
  9 10  1  0  0  0  0
  9 11  1  0  0  0  0
  9 14  1  0  0  0  0
 10 13  1  0  0  0  0
 10 15  1  0  0  0  0
 11 12  1  0  0  0  0
 11 16  1  0  0  0  0
 12 19  1  0  0  0  0
 12 26  1  0  0  0  0
 13 27  1  0  0  0  0
 13 28  1  0  0  0  0
 14 18  1  0  0  0  0
 14 29  1  0  0  0  0
 15 17  1  0  0  0  0
 15 30  1  0  0  0  0
 15 31  1  0  0  0  0
 16 32  1  0  0  0  0
 16 33  1  0  0  0  0
 16 34  1  0  0  0  0
 17 18  1  0  0  0  0
 17 35  1  0  0  0  0
 17 36  1  0  0  0  0
 19 20  1  0  0  0  0
 19 37  1  0  0  0  0
 19 38  1  0  0  0  0
 20 22  2  0  0  0  0
 20 40  1  0  0  0  0
 21 41  1  0  0  0  0
 21 42  1  0  0  0  0
 21 43  1  0  0  0  0
 22 23  1  0  0  0  0
 22 24  1  0  0  0  0
 23 45  1  0  0  0  0
 23 49  1  0  0  0  0
 23 50  1  0  0  0  0
 24 46  1  0  0  0  0
 24 47  1  0  0  0  0
 24 48  1  0  0  0  0
M  END
> <PUBCHEM_COMPOUND_CID>
123131995

> <PUBCHEM_CONFORMER_RMSD>
0.8

> <PUBCHEM_CONFORMER_DIVERSEORDER>
1
43
67
49
56
37
9
62
61
6
63
28
51
10
15
46
57
33
18
17
47
16
40
31
59
34
64
8
19
27
14
36
44
60
12
29
45
21
3
13
65
42
32
4
52
41
24
58
2
50
5
53
26
39
54
7
25
66
55
22
35
48
11
23
20
38
30

> <PUBCHEM_MMFF94_PARTIAL_CHARGES>
33
1 -0.3
10 -0.04
11 -0.04
12 -0.05
13 -0.05
14 0.34
15 0.09
16 0.09
17 0.06
18 0.33
19 0.23
2 -0.3
20 -0.29
21 0.28
22 -0.28
23 0.14
24 0.14
25 0.69
26 0.1
27 0.1
28 0.1
3 -0.68
39 0.4
4 -0.56
40 0.15
44 0.37
5 -0.57
51 0.37
52 0.37
6 -0.51
7 -0.37
8 -0.8
9 0.47

> <PUBCHEM_EFFECTIVE_ROTOR_COUNT>
7.8

> <PUBCHEM_PHARMACOPHORE_FEATURES>
11
1 1 acceptor
1 2 acceptor
1 3 acceptor
1 3 donor
1 4 acceptor
1 5 acceptor
1 6 acceptor
1 7 donor
1 8 donor
3 22 23 24 hydrophobe
6 9 10 14 15 17 18 rings

> <PUBCHEM_HEAVY_ATOM_COUNT>
25

> <PUBCHEM_ATOM_DEF_STEREO_COUNT>
5

> <PUBCHEM_ATOM_UDEF_STEREO_COUNT>
0

> <PUBCHEM_BOND_DEF_STEREO_COUNT>
0

> <PUBCHEM_BOND_UDEF_STEREO_COUNT>
1

> <PUBCHEM_ISOTOPIC_ATOM_COUNT>
0

> <PUBCHEM_COMPONENT_COUNT>
1

> <PUBCHEM_CACTVS_TAUTO_COUNT>
11

> <PUBCHEM_CONFORMER_ID>
0756D85B00000001

> <PUBCHEM_MMFF94_ENERGY>
73.9353

> <PUBCHEM_FEATURE_SELFOVERLAP>
55.9

> <PUBCHEM_SHAPE_FINGERPRINT>
10906281 52 18261127291268248886
11089746 13 17274818077926930129
12035758 1 18186808010296653155
12236239 1 17846497058313912486
12293681 4 17967824855530736985
12422481 6 18410852166036218169
12788726 201 18261385603265247945
13140716 1 18192433184709069474
13583140 156 15267339656560373879
14251764 18 18341333387807876119
14790565 3 17759250978138625605
15048467 5 17988924474486895355
15142383 8 17385999542871712821
15238133 3 18260557727012561549
1601671 61 18412546517923388757
16945 1 18410867576368086607
173720 79 12031791319037013228
17980427 23 15410348740222871697
1813 80 17313393300899783487
18785283 64 17969233406897907509
19141452 34 18272649094985477606
19784866 170 18410854364938245359
20739085 24 18115313396282659965
21033648 29 17987778831354118696
21267235 1 18261115158418219292
21304253 13 18341611537948046360
21421861 104 18041552521130706563
22182313 1 18265329517050668311
23402539 116 18337382829032828775
23559900 14 18271799172317858841
2838139 119 15698001838410288513
335352 9 18409166631832418613
34934 24 18343016692454463055
350125 39 18410009970611311972
4463277 17 18408040732247588704
5104073 3 18265337398732362001
5207 217 11167940260336004641
59755656 215 18340773650416626622
59755656 520 13830125075312161389
7226269 152 18131071528613057873

> <PUBCHEM_SHAPE_MULTIPOLES>
470.2
13.54
2.34
1.23
2.06
0.06
0.09
-1.9
-5.94
0.28
0.53
-0.95
0.01
0.31

> <PUBCHEM_SHAPE_SELFOVERLAP>
973.876

> <PUBCHEM_SHAPE_VOLUME>
267.5

> <PUBCHEM_COORDINATE_TYPE>
2
5
10

$$$$
