123131955
  -OEChem-03292013293D

 47 49  0     1  0  0  0  0  0999 V2000
    1.1411    5.5381   -0.5901 Br  0  0  0  0  0  0  0  0  0  0  0  0
   -0.2442   -3.1327   -0.4768 O   0  0  0  0  0  0  0  0  0  0  0  0
    2.2508   -3.3586    1.2185 O   0  0  0  0  0  0  0  0  0  0  0  0
    3.2965   -1.6045   -1.8143 O   0  0  0  0  0  0  0  0  0  0  0  0
    5.7549   -1.8452   -0.5023 O   0  0  0  0  0  0  0  0  0  0  0  0
   -5.0261    1.1461   -0.6798 O   0  0  0  0  0  0  0  0  0  0  0  0
   -4.1551   -3.2124    0.4916 O   0  0  0  0  0  0  0  0  0  0  0  0
   -0.5440   -0.2648    0.4545 N   0  0  0  0  0  0  0  0  0  0  0  0
   -2.4109    1.7121   -0.3413 N   0  0  0  0  0  0  0  0  0  0  0  0
   -2.3885   -1.7783    0.4747 N   0  0  0  0  0  0  0  0  0  0  0  0
   -4.6065   -1.0662   -0.0903 N   0  0  0  0  0  0  0  0  0  0  0  0
    0.7978   -2.1687   -0.3193 C   0  0  1  0  0  0  0  0  0  0  0  0
    0.4467   -1.2594    0.8643 C   0  0  0  0  0  0  0  0  0  0  0  0
    2.1419   -2.8994   -0.1280 C   0  0  1  0  0  0  0  0  0  0  0  0
    3.3605   -2.0126   -0.4463 C   0  0  1  0  0  0  0  0  0  0  0  0
   -0.1051    1.0579    0.2259 C   0  0  0  0  0  0  0  0  0  0  0  0
   -1.8843   -0.5938    0.2899 C   0  0  0  0  0  0  0  0  0  0  0  0
   -1.0530    2.0236   -0.1695 C   0  0  0  0  0  0  0  0  0  0  0  0
    1.2332    1.4698    0.3708 C   0  0  0  0  0  0  0  0  0  0  0  0
   -2.8218    0.5033   -0.1340 C   0  0  0  0  0  0  0  0  0  0  0  0
    4.6844   -2.7411   -0.2195 C   0  0  0  0  0  0  0  0  0  0  0  0
    1.6175    2.7918    0.1322 C   0  0  0  0  0  0  0  0  0  0  0  0
   -0.6565    3.3488   -0.4065 C   0  0  0  0  0  0  0  0  0  0  0  0
    0.6726    3.7320   -0.2565 C   0  0  0  0  0  0  0  0  0  0  0  0
    3.0587    3.1485    0.3083 C   0  0  0  0  0  0  0  0  0  0  0  0
   -4.2790    0.2460   -0.3364 C   0  0  0  0  0  0  0  0  0  0  0  0
   -3.7240   -2.0727    0.3029 C   0  0  0  0  0  0  0  0  0  0  0  0
    3.4422    3.2925    1.7775 C   0  0  0  0  0  0  0  0  0  0  0  0
    0.8208   -1.5986   -1.2544 H   0  0  0  0  0  0  0  0  0  0  0  0
   -0.0091   -1.8669    1.6594 H   0  0  0  0  0  0  0  0  0  0  0  0
    1.3285   -0.8414    1.3502 H   0  0  0  0  0  0  0  0  0  0  0  0
    2.1617   -3.7816   -0.7807 H   0  0  0  0  0  0  0  0  0  0  0  0
    3.3520   -1.1065    0.1684 H   0  0  0  0  0  0  0  0  0  0  0  0
    2.0235    0.7830    0.6479 H   0  0  0  0  0  0  0  0  0  0  0  0
    4.7872   -3.0812    0.8150 H   0  0  0  0  0  0  0  0  0  0  0  0
    4.7797   -3.5962   -0.8967 H   0  0  0  0  0  0  0  0  0  0  0  0
   -0.2804   -3.6747    0.3291 H   0  0  0  0  0  0  0  0  0  0  0  0
   -1.4055    4.0781   -0.7107 H   0  0  0  0  0  0  0  0  0  0  0  0
    1.5210   -3.9805    1.3779 H   0  0  0  0  0  0  0  0  0  0  0  0
    3.6716    2.3508   -0.1341 H   0  0  0  0  0  0  0  0  0  0  0  0
    3.3589    4.0444   -0.2408 H   0  0  0  0  0  0  0  0  0  0  0  0
    4.0754   -1.0490   -1.9889 H   0  0  0  0  0  0  0  0  0  0  0  0
   -5.5813   -1.3293   -0.2043 H   0  0  0  0  0  0  0  0  0  0  0  0
    2.8659    4.0899    2.2587 H   0  0  0  0  0  0  0  0  0  0  0  0
    4.5048    3.5401    1.8668 H   0  0  0  0  0  0  0  0  0  0  0  0
    3.2654    2.3660    2.3339 H   0  0  0  0  0  0  0  0  0  0  0  0
    6.5821   -2.3350   -0.3558 H   0  0  0  0  0  0  0  0  0  0  0  0
  1 24  1  0  0  0  0
  2 12  1  0  0  0  0
  2 37  1  0  0  0  0
  3 14  1  0  0  0  0
  3 39  1  0  0  0  0
  4 15  1  0  0  0  0
  4 42  1  0  0  0  0
  5 21  1  0  0  0  0
  5 47  1  0  0  0  0
  6 26  2  0  0  0  0
  7 27  2  0  0  0  0
  8 13  1  0  0  0  0
  8 16  1  0  0  0  0
  8 17  1  0  0  0  0
  9 18  1  0  0  0  0
  9 20  2  0  0  0  0
 10 17  2  0  0  0  0
 10 27  1  0  0  0  0
 11 26  1  0  0  0  0
 11 27  1  0  0  0  0
 11 43  1  0  0  0  0
 12 13  1  0  0  0  0
 12 14  1  0  0  0  0
 12 29  1  0  0  0  0
 13 30  1  0  0  0  0
 13 31  1  0  0  0  0
 14 15  1  0  0  0  0
 14 32  1  0  0  0  0
 15 21  1  0  0  0  0
 15 33  1  0  0  0  0
 16 18  2  0  0  0  0
 16 19  1  0  0  0  0
 17 20  1  0  0  0  0
 18 23  1  0  0  0  0
 19 22  2  0  0  0  0
 19 34  1  0  0  0  0
 20 26  1  0  0  0  0
 21 35  1  0  0  0  0
 21 36  1  0  0  0  0
 22 24  1  0  0  0  0
 22 25  1  0  0  0  0
 23 24  2  0  0  0  0
 23 38  1  0  0  0  0
 25 28  1  0  0  0  0
 25 40  1  0  0  0  0
 25 41  1  0  0  0  0
 28 44  1  0  0  0  0
 28 45  1  0  0  0  0
 28 46  1  0  0  0  0
M  END
> <PUBCHEM_COMPOUND_CID>
123131955

> <PUBCHEM_CONFORMER_RMSD>
0.8

> <PUBCHEM_CONFORMER_DIVERSEORDER>
2
42
41
33
28
23
66
43
12
29
40
73
31
32
63
56
54
72
14
8
49
57
68
60
87
81
85
22
78
4
88
38
67
24
20
61
71
52
64
84
7
48
11
26
16
1
53
47
3
10
44
15
69
13
30
62
58
82
70
5
6
21
27
75
86
18
51
34
65
19
74
83
9
59
76
35
25
79
17
77
46
45
55
37
80
39
36
50

> <PUBCHEM_MMFF94_PARTIAL_CHARGES>
34
1 -0.11
10 -0.66
11 -0.49
12 0.28
13 0.37
14 0.28
15 0.28
16 0.1
17 0.5
18 0.18
19 -0.15
2 -0.68
20 0.45
21 0.28
22 -0.14
23 -0.15
24 0.11
25 0.14
26 0.63
27 0.84
3 -0.68
34 0.15
37 0.4
38 0.15
39 0.4
4 -0.68
42 0.4
43 0.37
47 0.4
5 -0.68
6 -0.57
7 -0.57
8 -0.52
9 -0.63

> <PUBCHEM_EFFECTIVE_ROTOR_COUNT>
6

> <PUBCHEM_PHARMACOPHORE_FEATURES>
18
1 1 hydrophobe
1 10 donor
1 11 donor
1 2 acceptor
1 2 donor
1 28 hydrophobe
1 3 acceptor
1 3 donor
1 4 acceptor
1 4 donor
1 5 acceptor
1 5 donor
1 6 acceptor
1 7 acceptor
1 9 acceptor
6 10 11 17 20 26 27 rings
6 16 18 19 22 23 24 rings
6 8 9 16 17 18 20 rings

> <PUBCHEM_HEAVY_ATOM_COUNT>
28

> <PUBCHEM_ATOM_DEF_STEREO_COUNT>
3

> <PUBCHEM_ATOM_UDEF_STEREO_COUNT>
0

> <PUBCHEM_BOND_DEF_STEREO_COUNT>
0

> <PUBCHEM_BOND_UDEF_STEREO_COUNT>
0

> <PUBCHEM_ISOTOPIC_ATOM_COUNT>
0

> <PUBCHEM_COMPONENT_COUNT>
1

> <PUBCHEM_CACTVS_TAUTO_COUNT>
52

> <PUBCHEM_CONFORMER_ID>
0756D83300000002

> <PUBCHEM_MMFF94_ENERGY>
81.0244

> <PUBCHEM_FEATURE_SELFOVERLAP>
91.472

> <PUBCHEM_SHAPE_FINGERPRINT>
10050765 1 18338236089913617771
10411042 1 18410014308143191587
10670039 82 18121517756648289710
1100329 8 18051976922660829177
11578080 2 16662578057435333319
12156800 1 16227426509753799396
12422481 6 18196626679650963072
12553582 1 18266459793998845819
12788726 201 17973165019686502250
12839892 36 17978779444032777105
13140716 1 18411987957590198035
13402501 40 18411980278605462440
138480 1 18410294717904189596
14363568 33 18192171475356562531
14790565 3 17043172658739401832
15927050 60 18053383481352500526
15968369 26 18117272769042102702
16087824 20 17977387132312674381
19319366 153 17460602403286027635
19591789 44 17905044003962304889
19930381 70 18337954596764884324
20028762 73 17406271509098951991
20101258 96 18265910059211193817
20642791 105 17180515988942504784
20642791 35 18337948987553439721
20775438 99 17905562763239844341
21049683 271 18261685800299690349
21133410 171 15176381784686433040
21344244 246 18197199554989254351
22182313 1 18263080067180198807
23352939 185 18199750236944269793
23557571 272 17983857774978367630
23559900 14 18411410704989460057
24771750 20 18262534704970363813
3298306 158 18195251245975219236
352729 6 17472704001532593985
4017518 198 17841152462053188988
4280585 95 18337944597944161578
532947 4 18340204197587027488
6669772 16 17835812163155064340
9709674 26 18336543932400800899

> <PUBCHEM_SHAPE_MULTIPOLES>
527.03
8.49
6.97
0.99
3.91
3.81
-0.09
-4.82
0.35
-7.77
0.7
-0.81
0.03
1.76

> <PUBCHEM_SHAPE_SELFOVERLAP>
1111.486

> <PUBCHEM_SHAPE_VOLUME>
301.3

> <PUBCHEM_COORDINATE_TYPE>
2
5
10

$$$$
