123132007
  -OEChem-03292013293D

 32 34  0     1  0  0  0  0  0999 V2000
   -2.0837    0.4937   -1.2936 O   0  0  0  0  0  0  0  0  0  0  0  0
   -2.4793   -2.2877    0.1951 O   0  0  0  0  0  0  0  0  0  0  0  0
    0.1143    0.2369   -0.2726 N   0  0  0  0  0  0  0  0  0  0  0  0
   -4.1625   -0.4878    1.5466 N   0  0  0  0  0  0  0  0  0  0  0  0
    1.5142    1.8438    0.3814 N   0  0  0  0  0  0  0  0  0  0  0  0
    1.6843   -1.5953   -0.5523 N   0  0  0  0  0  0  0  0  0  0  0  0
    3.9626   -0.8988   -0.0226 N   0  0  0  0  0  0  0  0  0  0  0  0
    4.4959    1.3265    0.6772 N   0  0  0  0  0  0  0  0  0  0  0  0
   -3.0133    0.0144    0.8144 C   0  0  1  0  0  0  0  0  0  0  0  0
   -1.9284   -1.0207    0.5554 C   0  0  2  0  0  0  0  0  0  0  0  0
   -1.1849   -0.4389   -0.6524 C   0  0  1  0  0  0  0  0  0  0  0  0
   -3.3428    0.4830   -0.5972 C   0  0  1  0  0  0  0  0  0  0  0  0
   -3.9766    1.8613   -0.6639 C   0  0  0  0  0  0  0  0  0  0  0  0
    1.3563   -0.3307   -0.2480 C   0  0  0  0  0  0  0  0  0  0  0  0
    0.2607    1.5431    0.1128 C   0  0  0  0  0  0  0  0  0  0  0  0
    2.2099    0.6819    0.1600 C   0  0  0  0  0  0  0  0  0  0  0  0
    3.5593    0.3611    0.2693 C   0  0  0  0  0  0  0  0  0  0  0  0
    3.0141   -1.7857   -0.4096 C   0  0  0  0  0  0  0  0  0  0  0  0
   -2.5670    0.8453    1.3765 H   0  0  0  0  0  0  0  0  0  0  0  0
   -1.2909   -1.1806    1.4314 H   0  0  0  0  0  0  0  0  0  0  0  0
   -0.9084   -1.1976   -1.3934 H   0  0  0  0  0  0  0  0  0  0  0  0
   -3.9881   -0.2393   -1.1137 H   0  0  0  0  0  0  0  0  0  0  0  0
   -3.3218    2.6163   -0.2154 H   0  0  0  0  0  0  0  0  0  0  0  0
   -4.9429    1.8846   -0.1522 H   0  0  0  0  0  0  0  0  0  0  0  0
   -4.1265    2.1595   -1.7071 H   0  0  0  0  0  0  0  0  0  0  0  0
   -4.8332    0.2643    1.6967 H   0  0  0  0  0  0  0  0  0  0  0  0
   -3.8700   -0.8042    2.4700 H   0  0  0  0  0  0  0  0  0  0  0  0
   -1.7348   -2.8836    0.0044 H   0  0  0  0  0  0  0  0  0  0  0  0
   -0.5741    2.2268    0.1828 H   0  0  0  0  0  0  0  0  0  0  0  0
    3.3724   -2.7844   -0.6352 H   0  0  0  0  0  0  0  0  0  0  0  0
    4.1974    2.2674    0.8959 H   0  0  0  0  0  0  0  0  0  0  0  0
    5.4707    1.0689    0.7492 H   0  0  0  0  0  0  0  0  0  0  0  0
  1 11  1  0  0  0  0
  1 12  1  0  0  0  0
  2 10  1  0  0  0  0
  2 28  1  0  0  0  0
  3 11  1  0  0  0  0
  3 14  1  0  0  0  0
  3 15  1  0  0  0  0
  4  9  1  0  0  0  0
  4 26  1  0  0  0  0
  4 27  1  0  0  0  0
  5 15  2  0  0  0  0
  5 16  1  0  0  0  0
  6 14  2  0  0  0  0
  6 18  1  0  0  0  0
  7 17  1  0  0  0  0
  7 18  2  0  0  0  0
  8 17  1  0  0  0  0
  8 31  1  0  0  0  0
  8 32  1  0  0  0  0
  9 10  1  0  0  0  0
  9 12  1  0  0  0  0
  9 19  1  0  0  0  0
 10 11  1  0  0  0  0
 10 20  1  0  0  0  0
 11 21  1  0  0  0  0
 12 13  1  0  0  0  0
 12 22  1  0  0  0  0
 13 23  1  0  0  0  0
 13 24  1  0  0  0  0
 13 25  1  0  0  0  0
 14 16  1  0  0  0  0
 15 29  1  0  0  0  0
 16 17  2  0  0  0  0
 18 30  1  0  0  0  0
M  END
> <PUBCHEM_COMPOUND_CID>
123132007

> <PUBCHEM_CONFORMER_RMSD>
0.6

> <PUBCHEM_CONFORMER_DIVERSEORDER>
1
12
5
4
8
7
11
3
2
10
9
6

> <PUBCHEM_MMFF94_PARTIAL_CHARGES>
24
1 -0.56
10 0.28
11 0.54
12 0.28
14 0.11
15 0.04
16 0.23
17 0.41
18 0.47
2 -0.68
26 0.36
27 0.36
28 0.4
29 0.15
3 0.05
30 0.15
31 0.4
32 0.4
4 -0.99
5 -0.57
6 -0.57
7 -0.62
8 -0.9
9 0.27

> <PUBCHEM_EFFECTIVE_ROTOR_COUNT>
2

> <PUBCHEM_PHARMACOPHORE_FEATURES>
13
1 1 acceptor
1 2 acceptor
1 2 donor
1 4 cation
1 4 donor
1 8 cation
1 8 donor
3 3 5 15 cation
3 3 6 14 cation
3 6 7 18 cation
5 1 9 10 11 12 rings
5 3 5 14 15 16 rings
6 6 7 14 16 17 18 rings

> <PUBCHEM_HEAVY_ATOM_COUNT>
18

> <PUBCHEM_ATOM_DEF_STEREO_COUNT>
4

> <PUBCHEM_ATOM_UDEF_STEREO_COUNT>
0

> <PUBCHEM_BOND_DEF_STEREO_COUNT>
0

> <PUBCHEM_BOND_UDEF_STEREO_COUNT>
0

> <PUBCHEM_ISOTOPIC_ATOM_COUNT>
0

> <PUBCHEM_COMPONENT_COUNT>
1

> <PUBCHEM_CACTVS_TAUTO_COUNT>
4

> <PUBCHEM_CONFORMER_ID>
0756D86700000001

> <PUBCHEM_MMFF94_ENERGY>
37.1348

> <PUBCHEM_FEATURE_SELFOVERLAP>
66.581

> <PUBCHEM_SHAPE_FINGERPRINT>
10608611 8 18409725179423567461
10922523 26 18260831479553632269
1100329 8 16463046091871170177
11132069 177 18410285939312601632
11471102 20 18343013372602615580
11578080 2 14130168733009310599
12236239 1 17060336319069221765
12251169 10 18341341079820191643
12382932 28 18341894103909129954
124424 183 18410007702482860285
12500047 106 18408597063492649319
12507560 40 18409452475107483849
13214271 11 18339917207819431556
13296908 3 18334013878255446322
13675066 3 18334579035700706113
14115302 16 18115036207629965638
15219456 202 18408885131080622540
15309172 13 18060420200850614479
15375358 24 18410848841747128028
15653759 3 18040437693886467985
16945 1 18342179968316004388
18186145 218 18202008741560547838
19049666 15 18190460463448973343
19422 9 14129063607874556283
200 152 17845926442344872175
20279233 1 18408319982035471415
20645477 56 18334292072178050685
20645477 70 18129372726959972342
21501502 16 18192437587119093711
23559900 14 18336542712746113806
296302 2 18273493485634699836
34934 24 18340758287096588284
5104073 3 18410009909937704681
69090 78 18412260649554259231
74978 22 18412260649131824319
77492 1 16988838371637919423
8809292 202 18334296457086387314
9709674 26 18412543201939936015

> <PUBCHEM_SHAPE_MULTIPOLES>
328.81
8.18
1.94
0.97
0.66
0.19
-0.09
-0.83
-1.13
0.09
0.02
-0.81
0.02
1.2

> <PUBCHEM_SHAPE_SELFOVERLAP>
712.739

> <PUBCHEM_SHAPE_VOLUME>
176.9

> <PUBCHEM_COORDINATE_TYPE>
2
5
10

$$$$
