123131999
  -OEChem-03292013293D

 36 38  0     1  0  0  0  0  0999 V2000
    0.1955    0.9886   -1.5282 O   0  0  0  0  0  0  0  0  0  0  0  0
    1.0448   -0.2604    0.9856 O   0  0  0  0  0  0  0  0  0  0  0  0
    0.3135    3.2590    0.6680 O   0  0  0  0  0  0  0  0  0  0  0  0
    2.4206    0.0188   -2.9250 O   0  0  0  0  0  0  0  0  0  0  0  0
    4.1192   -2.1038    1.0117 O   0  0  0  0  0  0  0  0  0  0  0  0
    3.5347   -0.1752    2.0768 O   0  0  0  0  0  0  0  0  0  0  0  0
   -3.0065    1.8359    1.0935 O   0  0  0  0  0  0  0  0  0  0  0  0
   -4.4806   -2.4520    0.2667 O   0  0  0  0  0  0  0  0  0  0  0  0
   -1.7412    0.4889   -0.3358 N   0  0  0  0  0  0  0  0  0  0  0  0
   -3.7390   -0.2997    0.6805 N   0  0  0  0  0  0  0  0  0  0  0  0
    1.5163    1.1389   -0.9775 C   0  0  1  0  0  0  0  0  0  0  0  0
    1.3150    1.0680    0.5295 C   0  0  1  0  0  0  0  0  0  0  0  0
    0.0320    1.8631    0.6896 C   0  0  2  0  0  0  0  0  0  0  0  0
    2.4652    0.0735   -1.5044 C   0  0  1  0  0  0  0  0  0  0  0  0
   -0.7502    1.5025   -0.5731 C   0  0  1  0  0  0  0  0  0  0  0  0
    2.1325   -1.2995   -0.9344 C   0  0  0  0  0  0  0  0  0  0  0  0
    1.9699   -1.2544    0.5804 C   0  0  1  0  0  0  0  0  0  0  0  0
    3.2696   -1.0917    1.3133 C   0  0  0  0  0  0  0  0  0  0  0  0
   -2.8352    0.7587    0.5191 C   0  0  0  0  0  0  0  0  0  0  0  0
   -1.6219   -0.7533   -0.9470 C   0  0  0  0  0  0  0  0  0  0  0  0
   -2.4918   -1.7523   -0.7838 C   0  0  0  0  0  0  0  0  0  0  0  0
   -3.6625   -1.5537    0.0944 C   0  0  0  0  0  0  0  0  0  0  0  0
    1.8666    2.1307   -1.2900 H   0  0  0  0  0  0  0  0  0  0  0  0
    2.1505    1.5118    1.0773 H   0  0  0  0  0  0  0  0  0  0  0  0
   -0.4851    1.6369    1.6269 H   0  0  0  0  0  0  0  0  0  0  0  0
    3.4887    0.3434   -1.2170 H   0  0  0  0  0  0  0  0  0  0  0  0
   -1.2495    2.3741   -1.0124 H   0  0  0  0  0  0  0  0  0  0  0  0
    2.9048   -2.0179   -1.2355 H   0  0  0  0  0  0  0  0  0  0  0  0
    1.2104   -1.6684   -1.3941 H   0  0  0  0  0  0  0  0  0  0  0  0
    1.5499   -2.2097    0.9180 H   0  0  0  0  0  0  0  0  0  0  0  0
   -0.5354    3.7279    0.7415 H   0  0  0  0  0  0  0  0  0  0  0  0
    3.0515   -0.6628   -3.2132 H   0  0  0  0  0  0  0  0  0  0  0  0
   -0.7973   -0.9308   -1.6213 H   0  0  0  0  0  0  0  0  0  0  0  0
   -4.5330   -0.1288    1.2912 H   0  0  0  0  0  0  0  0  0  0  0  0
   -2.3733   -2.7049   -1.2855 H   0  0  0  0  0  0  0  0  0  0  0  0
    4.9765   -2.0143    1.4798 H   0  0  0  0  0  0  0  0  0  0  0  0
  1 11  1  0  0  0  0
  1 15  1  0  0  0  0
  2 12  1  0  0  0  0
  2 17  1  0  0  0  0
  3 13  1  0  0  0  0
  3 31  1  0  0  0  0
  4 14  1  0  0  0  0
  4 32  1  0  0  0  0
  5 18  1  0  0  0  0
  5 36  1  0  0  0  0
  6 18  2  0  0  0  0
  7 19  2  0  0  0  0
  8 22  2  0  0  0  0
  9 15  1  0  0  0  0
  9 19  1  0  0  0  0
  9 20  1  0  0  0  0
 10 19  1  0  0  0  0
 10 22  1  0  0  0  0
 10 34  1  0  0  0  0
 11 12  1  0  0  0  0
 11 14  1  0  0  0  0
 11 23  1  0  0  0  0
 12 13  1  0  0  0  0
 12 24  1  0  0  0  0
 13 15  1  0  0  0  0
 13 25  1  0  0  0  0
 14 16  1  0  0  0  0
 14 26  1  0  0  0  0
 15 27  1  0  0  0  0
 16 17  1  0  0  0  0
 16 28  1  0  0  0  0
 16 29  1  0  0  0  0
 17 18  1  0  0  0  0
 17 30  1  0  0  0  0
 20 21  2  0  0  0  0
 20 33  1  0  0  0  0
 21 22  1  0  0  0  0
 21 35  1  0  0  0  0
M  END
> <PUBCHEM_COMPOUND_CID>
123131999

> <PUBCHEM_CONFORMER_RMSD>
0.6

> <PUBCHEM_CONFORMER_DIVERSEORDER>
1
6
26
24
29
23
28
5
15
3
17
20
21
13
22
8
14
19
27
7
10
9
11
25
2
4
16
12
18

> <PUBCHEM_MMFF94_PARTIAL_CHARGES>
27
1 -0.56
10 -0.49
11 0.28
12 0.28
13 0.28
14 0.28
15 0.58
17 0.34
18 0.66
19 0.69
2 -0.56
20 -0.04
21 -0.14
22 0.62
3 -0.68
31 0.4
32 0.4
33 0.15
34 0.37
35 0.15
36 0.5
4 -0.68
5 -0.65
6 -0.57
7 -0.57
8 -0.57
9 -0.47

> <PUBCHEM_EFFECTIVE_ROTOR_COUNT>
3.4

> <PUBCHEM_PHARMACOPHORE_FEATURES>
15
1 1 acceptor
1 10 donor
1 2 acceptor
1 3 acceptor
1 3 donor
1 4 acceptor
1 4 donor
1 5 acceptor
1 6 acceptor
1 7 acceptor
1 8 acceptor
3 5 6 18 anion
5 1 11 12 13 15 rings
6 2 11 12 14 16 17 rings
6 9 10 19 20 21 22 rings

> <PUBCHEM_HEAVY_ATOM_COUNT>
22

> <PUBCHEM_ATOM_DEF_STEREO_COUNT>
5

> <PUBCHEM_ATOM_UDEF_STEREO_COUNT>
1

> <PUBCHEM_BOND_DEF_STEREO_COUNT>
0

> <PUBCHEM_BOND_UDEF_STEREO_COUNT>
0

> <PUBCHEM_ISOTOPIC_ATOM_COUNT>
0

> <PUBCHEM_COMPONENT_COUNT>
1

> <PUBCHEM_CACTVS_TAUTO_COUNT>
3

> <PUBCHEM_CONFORMER_ID>
0756D85F00000001

> <PUBCHEM_MMFF94_ENERGY>
60.4476

> <PUBCHEM_FEATURE_SELFOVERLAP>
76.467

> <PUBCHEM_SHAPE_FINGERPRINT>
10764073 3 8209140051901803220
11578080 2 18042104553261840061
12382932 28 18129934590059664576
12553582 1 18341904021299833383
12633257 1 16845278479900191875
13083527 12 17841122740055976485
13140716 1 18341609283115959705
14115302 16 18115862993045250533
14178342 30 18272090440115214795
14181834 199 17531241790558624532
14251764 38 12101915950380768251
14787075 74 18187355576236279000
15375462 189 18334591151882653761
16752209 62 18051422768615586397
16945 1 18197220247819906708
1813 80 17677333784472057870
18186145 218 13045951191726814205
18981168 100 10663265625724864333
19049666 15 16772124531193056189
19078846 21 18412552011207685369
20442098 301 18060142097781868823
20559304 39 18269840968189504647
20600515 1 18200027318412705200
20671657 53 16515953783993638770
21421861 104 18197785599102775017
21452121 199 17531515560042467332
21475661 188 13827923810437018147
21731516 1 18261114062647664461
22112679 90 18334583399450879820
2255824 54 17974578188617970781
23184049 29 18343301513479417257
232386 152 18410569578541450658
23419403 2 17683759463463168260
23559900 14 17987249828521374956
23598288 3 17679030304838067997
2748010 2 17774727467634601589
3286 77 18261102032634529835
7364860 26 17771919491078594621
81228 2 17843126900382253417

> <PUBCHEM_SHAPE_MULTIPOLES>
395.83
6.81
2.53
1.77
3.05
0.71
0.71
-4.86
-2.14
0.88
-0.57
-1.95
-0.04
-0.87

> <PUBCHEM_SHAPE_SELFOVERLAP>
855.472

> <PUBCHEM_SHAPE_VOLUME>
214.3

> <PUBCHEM_COORDINATE_TYPE>
2
5
10

$$$$
