123131964
  -OEChem-03292013293D

 64 65  0     1  0  0  0  0  0999 V2000
   -3.2717   -1.2238    1.4534 O   0  0  0  0  0  0  0  0  0  0  0  0
   -1.0294   -2.9160    1.2667 O   0  0  0  0  0  0  0  0  0  0  0  0
   -5.6096   -1.1187    1.1099 O   0  0  0  0  0  0  0  0  0  0  0  0
   -0.2423   -2.1451   -1.4055 O   0  0  0  0  0  0  0  0  0  0  0  0
   -0.5329    4.8010   -0.6754 O   0  0  0  0  0  0  0  0  0  0  0  0
    3.6343   -1.1927    0.5838 O   0  0  0  0  0  0  0  0  0  0  0  0
    2.7494   -1.1161   -1.5495 O   0  0  0  0  0  0  0  0  0  0  0  0
   -0.1455   -0.1800   -2.6163 O   0  0  0  0  0  0  0  0  0  0  0  0
   -2.6059    0.2134   -0.3104 C   0  0  1  0  0  0  0  0  0  0  0  0
   -2.3642   -1.1660    0.3314 C   0  0  1  0  0  0  0  0  0  0  0  0
   -4.1250    0.2527   -0.1897 C   0  0  0  0  0  0  0  0  0  0  0  0
   -1.9201    1.4022    0.4065 C   0  0  0  0  0  0  0  0  0  0  0  0
   -0.9644   -1.5508    0.8245 C   0  0  2  0  0  0  0  0  0  0  0  0
   -4.3964   -0.3857    1.1646 C   0  0  2  0  0  0  0  0  0  0  0  0
   -1.7502    2.6755   -0.4784 C   0  0  2  0  0  0  0  0  0  0  0  0
    0.1554   -1.4456   -0.2258 C   0  0  1  0  0  0  0  0  0  0  0  0
   -0.5945    3.5746    0.0524 C   0  0  1  0  0  0  0  0  0  0  0  0
   -3.0564    3.4702   -0.5965 C   0  0  0  0  0  0  0  0  0  0  0  0
    1.4715   -2.0526    0.2872 C   0  0  0  0  0  0  0  0  0  0  0  0
    0.7412    2.9127   -0.1457 C   0  0  0  0  0  0  0  0  0  0  0  0
   -1.5867   -3.0119    2.5688 C   0  0  0  0  0  0  0  0  0  0  0  0
    2.6753   -1.4057   -0.3633 C   0  0  0  0  0  0  0  0  0  0  0  0
   -0.3529   -1.3830   -2.5317 C   0  0  0  0  0  0  0  0  0  0  0  0
    1.6256    2.6676    0.8323 C   0  0  0  0  0  0  0  0  0  0  0  0
    4.7768   -0.3742    0.2412 C   0  0  1  0  0  0  0  0  0  0  0  0
    2.8411    1.9283    0.5848 C   0  0  0  0  0  0  0  0  0  0  0  0
    4.9231    0.6945    1.3410 C   0  0  0  0  0  0  0  0  0  0  0  0
   -0.7752   -2.2447   -3.6827 C   0  0  0  0  0  0  0  0  0  0  0  0
    3.7306    1.6016    1.5338 C   0  0  0  0  0  0  0  0  0  0  0  0
    5.9994   -1.2818    0.1885 C   0  0  0  0  0  0  0  0  0  0  0  0
   -2.3085    0.2047   -1.3610 H   0  0  0  0  0  0  0  0  0  0  0  0
   -2.7139   -1.9449   -0.3619 H   0  0  0  0  0  0  0  0  0  0  0  0
   -4.5801    1.2413   -0.2463 H   0  0  0  0  0  0  0  0  0  0  0  0
   -4.5696   -0.3342   -1.0041 H   0  0  0  0  0  0  0  0  0  0  0  0
   -2.4527    1.6646    1.3289 H   0  0  0  0  0  0  0  0  0  0  0  0
   -0.9273    1.0823    0.7269 H   0  0  0  0  0  0  0  0  0  0  0  0
   -0.6749   -0.9223    1.6768 H   0  0  0  0  0  0  0  0  0  0  0  0
   -4.4754    0.3606    1.9609 H   0  0  0  0  0  0  0  0  0  0  0  0
   -1.4835    2.3662   -1.4988 H   0  0  0  0  0  0  0  0  0  0  0  0
    0.3231   -0.3817   -0.4241 H   0  0  0  0  0  0  0  0  0  0  0  0
   -0.7751    3.8218    1.1053 H   0  0  0  0  0  0  0  0  0  0  0  0
   -3.4809    3.6870    0.3890 H   0  0  0  0  0  0  0  0  0  0  0  0
   -3.7957    2.9238   -1.1867 H   0  0  0  0  0  0  0  0  0  0  0  0
   -2.9068    4.4225   -1.1151 H   0  0  0  0  0  0  0  0  0  0  0  0
    1.5283   -3.1295    0.0946 H   0  0  0  0  0  0  0  0  0  0  0  0
    1.5496   -1.8876    1.3690 H   0  0  0  0  0  0  0  0  0  0  0  0
   -5.6612   -1.5751    0.2540 H   0  0  0  0  0  0  0  0  0  0  0  0
    0.9667    2.5903   -1.1614 H   0  0  0  0  0  0  0  0  0  0  0  0
   -1.3876   -2.1421    3.2028 H   0  0  0  0  0  0  0  0  0  0  0  0
   -1.1281   -3.8798    3.0538 H   0  0  0  0  0  0  0  0  0  0  0  0
   -2.6576   -3.2235    2.5125 H   0  0  0  0  0  0  0  0  0  0  0  0
    0.1408    5.3622   -0.2540 H   0  0  0  0  0  0  0  0  0  0  0  0
    1.4123    2.9773    1.8512 H   0  0  0  0  0  0  0  0  0  0  0  0
    4.6523    0.1027   -0.7376 H   0  0  0  0  0  0  0  0  0  0  0  0
    5.8115    1.3109    1.1616 H   0  0  0  0  0  0  0  0  0  0  0  0
    5.0781    0.1792    2.2986 H   0  0  0  0  0  0  0  0  0  0  0  0
    2.9918    1.5861   -0.4348 H   0  0  0  0  0  0  0  0  0  0  0  0
   -0.0254   -3.0199   -3.8599 H   0  0  0  0  0  0  0  0  0  0  0  0
   -0.8609   -1.6301   -4.5834 H   0  0  0  0  0  0  0  0  0  0  0  0
   -1.7500   -2.6916   -3.4719 H   0  0  0  0  0  0  0  0  0  0  0  0
    3.5796    1.9623    2.5496 H   0  0  0  0  0  0  0  0  0  0  0  0
    6.1420   -1.8071    1.1392 H   0  0  0  0  0  0  0  0  0  0  0  0
    6.9061   -0.7134   -0.0392 H   0  0  0  0  0  0  0  0  0  0  0  0
    5.8681   -2.0520   -0.5792 H   0  0  0  0  0  0  0  0  0  0  0  0
  1 10  1  0  0  0  0
  1 14  1  0  0  0  0
  2 13  1  0  0  0  0
  2 21  1  0  0  0  0
  3 14  1  0  0  0  0
  3 47  1  0  0  0  0
  4 16  1  0  0  0  0
  4 23  1  0  0  0  0
  5 17  1  0  0  0  0
  5 52  1  0  0  0  0
  6 22  1  0  0  0  0
  6 25  1  0  0  0  0
  7 22  2  0  0  0  0
  8 23  2  0  0  0  0
  9 10  1  0  0  0  0
  9 11  1  0  0  0  0
  9 12  1  0  0  0  0
  9 31  1  0  0  0  0
 10 13  1  0  0  0  0
 10 32  1  0  0  0  0
 11 14  1  0  0  0  0
 11 33  1  0  0  0  0
 11 34  1  0  0  0  0
 12 15  1  0  0  0  0
 12 35  1  0  0  0  0
 12 36  1  0  0  0  0
 13 16  1  0  0  0  0
 13 37  1  0  0  0  0
 14 38  1  0  0  0  0
 15 17  1  0  0  0  0
 15 18  1  0  0  0  0
 15 39  1  0  0  0  0
 16 19  1  0  0  0  0
 16 40  1  0  0  0  0
 17 20  1  0  0  0  0
 17 41  1  0  0  0  0
 18 42  1  0  0  0  0
 18 43  1  0  0  0  0
 18 44  1  0  0  0  0
 19 22  1  0  0  0  0
 19 45  1  0  0  0  0
 19 46  1  0  0  0  0
 20 24  2  0  0  0  0
 20 48  1  0  0  0  0
 21 49  1  0  0  0  0
 21 50  1  0  0  0  0
 21 51  1  0  0  0  0
 23 28  1  0  0  0  0
 24 26  1  0  0  0  0
 24 53  1  0  0  0  0
 25 27  1  0  0  0  0
 25 30  1  0  0  0  0
 25 54  1  0  0  0  0
 26 29  2  0  0  0  0
 26 57  1  0  0  0  0
 27 29  1  0  0  0  0
 27 55  1  0  0  0  0
 27 56  1  0  0  0  0
 28 58  1  0  0  0  0
 28 59  1  0  0  0  0
 28 60  1  0  0  0  0
 29 61  1  0  0  0  0
 30 62  1  0  0  0  0
 30 63  1  0  0  0  0
 30 64  1  0  0  0  0
M  END
> <PUBCHEM_COMPOUND_CID>
123131964

> <PUBCHEM_CONFORMER_RMSD>
0.8

> <PUBCHEM_CONFORMER_DIVERSEORDER>
2
11
16
15
14
12
6
9
10
1
5
17
7
4
13
3
8
18

> <PUBCHEM_MMFF94_PARTIAL_CHARGES>
30
1 -0.56
10 0.28
13 0.28
14 0.56
16 0.28
17 0.42
19 0.06
2 -0.56
20 -0.29
21 0.28
22 0.66
23 0.66
24 -0.15
25 0.28
26 -0.15
27 0.14
28 0.06
29 -0.29
3 -0.68
4 -0.43
47 0.4
48 0.15
5 -0.68
52 0.4
53 0.15
57 0.15
6 -0.43
61 0.15
7 -0.57
8 -0.57

> <PUBCHEM_EFFECTIVE_ROTOR_COUNT>
5.4

> <PUBCHEM_PHARMACOPHORE_FEATURES>
9
1 1 acceptor
1 2 acceptor
1 3 acceptor
1 3 donor
1 5 acceptor
1 5 donor
1 7 acceptor
1 8 acceptor
5 1 9 10 11 14 rings

> <PUBCHEM_HEAVY_ATOM_COUNT>
30

> <PUBCHEM_ATOM_DEF_STEREO_COUNT>
7

> <PUBCHEM_ATOM_UDEF_STEREO_COUNT>
1

> <PUBCHEM_BOND_DEF_STEREO_COUNT>
2

> <PUBCHEM_BOND_UDEF_STEREO_COUNT>
0

> <PUBCHEM_ISOTOPIC_ATOM_COUNT>
0

> <PUBCHEM_COMPONENT_COUNT>
1

> <PUBCHEM_CACTVS_TAUTO_COUNT>
1

> <PUBCHEM_CONFORMER_ID>
0756D83C00000002

> <PUBCHEM_MMFF94_ENERGY>
73.8698

> <PUBCHEM_FEATURE_SELFOVERLAP>
45.716

> <PUBCHEM_SHAPE_FINGERPRINT>
10675989 125 16321737948904067952
11578080 2 16663721438011817677
12128747 34 18120662336211800894
12422481 6 18272099274915833609
12539773 59 16403966651813945738
12633257 1 18116147959819531290
12645989 146 18343584027944436406
13140716 1 17834676376318356889
13402501 40 18411980256603209552
13642711 20 18045470128916516215
14279260 333 18263921035337683698
14363568 33 17687485854557189240
14725015 67 18336818710816667912
14790565 3 17187003086484172769
14840074 17 18201999975158094836
15840311 113 17129612084849885019
19930381 70 16968565877088154330
20600515 1 18115047233296213663
20905425 154 18267588991960660308
23227448 37 18200027481468312462
23419403 2 18187917413808975685
27425 322 14117217460954534275
3052486 1 18188489073893042048
3493558 16 17829652463399737022
392239 28 18334019358776122003
508706 21 18336259038060598888
57527585 103 17899110979063195714
6287921 2 17345770598169707223

> <PUBCHEM_SHAPE_MULTIPOLES>
570.43
9
4.78
2.29
6.78
4.79
-1.79
-1.27
4.11
-1.67
-0.27
-1
-2.44
1.82

> <PUBCHEM_SHAPE_SELFOVERLAP>
1148.616

> <PUBCHEM_SHAPE_VOLUME>
332.3

> <PUBCHEM_COORDINATE_TYPE>
2
5
10

$$$$
