1232373
  -OEChem-03292013313D

 51 54  0     0  0  0  0  0  0999 V2000
    0.5418    0.0285    0.6966 S   0  0  0  0  0  0  0  0  0  0  0  0
   -9.9553    1.6294   -1.6667 F   0  0  0  0  0  0  0  0  0  0  0  0
    3.0220   -1.4021   -0.0956 O   0  0  0  0  0  0  0  0  0  0  0  0
   -1.9154   -2.8712    0.3107 O   0  0  0  0  0  0  0  0  0  0  0  0
   -1.3016    1.4679    1.8964 O   0  0  0  0  0  0  0  0  0  0  0  0
   -3.7452    0.2245   -0.4943 O   0  0  0  0  0  0  0  0  0  0  0  0
    7.1614    3.6122    0.6968 O   0  0  0  0  0  0  0  0  0  0  0  0
    6.4568    3.3227   -1.4448 O   0  0  0  0  0  0  0  0  0  0  0  0
   -1.8667   -0.7030    1.2064 N   0  0  0  0  0  0  0  0  0  0  0  0
   -5.4727   -0.0901    1.0662 N   0  0  0  0  0  0  0  0  0  0  0  0
    5.2537   -0.6277   -0.1255 C   0  0  0  0  0  0  0  0  0  0  0  0
    4.2304   -1.4430   -0.7161 C   0  0  0  0  0  0  0  0  0  0  0  0
    5.4503    0.7010   -0.5203 C   0  0  0  0  0  0  0  0  0  0  0  0
    2.2567   -2.2188   -0.8091 C   0  0  0  0  0  0  0  0  0  0  0  0
   -3.2382   -0.6694    1.6830 C   0  0  0  0  0  0  0  0  0  0  0  0
    0.0687   -1.5474    0.2019 C   0  0  0  0  0  0  0  0  0  0  0  0
    6.4530    1.4705    0.0696 C   0  0  0  0  0  0  0  0  0  0  0  0
   -1.3440   -1.8191    0.5619 C   0  0  0  0  0  0  0  0  0  0  0  0
    4.1874   -2.2855   -1.8025 C   0  0  0  0  0  0  0  0  0  0  0  0
    0.8484   -2.4294   -0.4252 C   0  0  0  0  0  0  0  0  0  0  0  0
    6.0741   -1.1758    0.8671 C   0  0  0  0  0  0  0  0  0  0  0  0
    2.8680   -2.7951   -1.8526 C   0  0  0  0  0  0  0  0  0  0  0  0
    4.5813    1.3052   -1.5809 C   0  0  0  0  0  0  0  0  0  0  0  0
   -1.0399    0.3940    1.3746 C   0  0  0  0  0  0  0  0  0  0  0  0
    7.2663    0.9168    1.0583 C   0  0  0  0  0  0  0  0  0  0  0  0
    7.0769   -0.4063    1.4572 C   0  0  0  0  0  0  0  0  0  0  0  0
   -4.1590   -0.1239    0.6066 C   0  0  0  0  0  0  0  0  0  0  0  0
    6.6751    2.8558   -0.3238 C   0  0  0  0  0  0  0  0  0  0  0  0
   -6.6207    0.3506    0.3658 C   0  0  0  0  0  0  0  0  0  0  0  0
   -7.8546    0.3091    0.9937 C   0  0  0  0  0  0  0  0  0  0  0  0
   -6.4864    0.8142   -0.9323 C   0  0  0  0  0  0  0  0  0  0  0  0
   -8.9864    0.7435    0.3037 C   0  0  0  0  0  0  0  0  0  0  0  0
   -7.6182    1.2487   -1.6224 C   0  0  0  0  0  0  0  0  0  0  0  0
   -8.8681    1.2133   -1.0044 C   0  0  0  0  0  0  0  0  0  0  0  0
   -3.5589   -1.6841    1.9426 H   0  0  0  0  0  0  0  0  0  0  0  0
   -3.3048   -0.0272    2.5679 H   0  0  0  0  0  0  0  0  0  0  0  0
    5.0024   -2.5074   -2.4771 H   0  0  0  0  0  0  0  0  0  0  0  0
    0.4271   -3.3864   -0.7272 H   0  0  0  0  0  0  0  0  0  0  0  0
    5.9421   -2.2058    1.1912 H   0  0  0  0  0  0  0  0  0  0  0  0
    2.4599   -3.4891   -2.5735 H   0  0  0  0  0  0  0  0  0  0  0  0
    5.1371    1.4011   -2.5195 H   0  0  0  0  0  0  0  0  0  0  0  0
    3.6816    0.7234   -1.7997 H   0  0  0  0  0  0  0  0  0  0  0  0
    4.2039    2.2850   -1.2680 H   0  0  0  0  0  0  0  0  0  0  0  0
    8.0649    1.4850    1.5283 H   0  0  0  0  0  0  0  0  0  0  0  0
    7.7120   -0.8387    2.2248 H   0  0  0  0  0  0  0  0  0  0  0  0
   -5.6450   -0.4177    2.0145 H   0  0  0  0  0  0  0  0  0  0  0  0
   -7.9579   -0.0550    2.0120 H   0  0  0  0  0  0  0  0  0  0  0  0
   -5.5565    0.8724   -1.4782 H   0  0  0  0  0  0  0  0  0  0  0  0
   -9.9598    0.7160    0.7844 H   0  0  0  0  0  0  0  0  0  0  0  0
   -7.5280    1.6146   -2.6411 H   0  0  0  0  0  0  0  0  0  0  0  0
    7.3078    4.5431    0.4239 H   0  0  0  0  0  0  0  0  0  0  0  0
  1 16  1  0  0  0  0
  1 24  1  0  0  0  0
  2 34  1  0  0  0  0
  3 12  1  0  0  0  0
  3 14  1  0  0  0  0
  4 18  2  0  0  0  0
  5 24  2  0  0  0  0
  6 27  2  0  0  0  0
  7 28  1  0  0  0  0
  7 51  1  0  0  0  0
  8 28  2  0  0  0  0
  9 15  1  0  0  0  0
  9 18  1  0  0  0  0
  9 24  1  0  0  0  0
 10 27  1  0  0  0  0
 10 29  1  0  0  0  0
 10 46  1  0  0  0  0
 11 12  1  0  0  0  0
 11 13  2  0  0  0  0
 11 21  1  0  0  0  0
 12 19  2  0  0  0  0
 13 17  1  0  0  0  0
 13 23  1  0  0  0  0
 14 20  1  0  0  0  0
 14 22  2  0  0  0  0
 15 27  1  0  0  0  0
 15 35  1  0  0  0  0
 15 36  1  0  0  0  0
 16 18  1  0  0  0  0
 16 20  2  0  0  0  0
 17 25  2  0  0  0  0
 17 28  1  0  0  0  0
 19 22  1  0  0  0  0
 19 37  1  0  0  0  0
 20 38  1  0  0  0  0
 21 26  2  0  0  0  0
 21 39  1  0  0  0  0
 22 40  1  0  0  0  0
 23 41  1  0  0  0  0
 23 42  1  0  0  0  0
 23 43  1  0  0  0  0
 25 26  1  0  0  0  0
 25 44  1  0  0  0  0
 26 45  1  0  0  0  0
 29 30  2  0  0  0  0
 29 31  1  0  0  0  0
 30 32  1  0  0  0  0
 30 47  1  0  0  0  0
 31 33  2  0  0  0  0
 31 48  1  0  0  0  0
 32 34  2  0  0  0  0
 32 49  1  0  0  0  0
 33 34  1  0  0  0  0
 33 50  1  0  0  0  0
M  END
> <PUBCHEM_COMPOUND_CID>
1232373

> <PUBCHEM_CONFORMER_RMSD>
1

> <PUBCHEM_CONFORMER_DIVERSEORDER>
1
14
58
3
66
55
32
69
52
64
45
48
43
54
27
21
15
33
53
61
65
51
36
37
63
30
40
9
50
68
7
23
57
22
44
10
41
46
47
11
29
25
38
67
60
59
28
20
34
4
62
35
5
24
18
13
12
49
6
16
42
2
19
31
39
17
56
8
26

> <PUBCHEM_MMFF94_PARTIAL_CHARGES>
46
1 -0.24
10 -0.55
11 0.05
12 0.09
13 -0.14
14 0.09
15 0.36
16 0.12
17 0.09
18 0.62
19 -0.15
2 -0.19
20 -0.11
21 -0.15
22 -0.15
23 0.14
24 0.77
25 -0.15
26 -0.15
27 0.57
28 0.63
29 0.12
3 -0.28
30 -0.15
31 -0.15
32 -0.15
33 -0.15
34 0.19
37 0.15
38 0.15
39 0.15
4 -0.57
40 0.15
44 0.15
45 0.15
46 0.37
47 0.15
48 0.15
49 0.15
5 -0.57
50 0.15
51 0.5
6 -0.57
7 -0.65
8 -0.57
9 -0.42

> <PUBCHEM_EFFECTIVE_ROTOR_COUNT>
7.4

> <PUBCHEM_PHARMACOPHORE_FEATURES>
11
1 10 donor
1 3 acceptor
1 4 acceptor
1 6 acceptor
1 7 acceptor
1 8 acceptor
3 7 8 28 anion
5 1 9 16 18 24 rings
5 3 12 14 19 22 rings
6 11 13 17 21 25 26 rings
6 29 30 31 32 33 34 rings

> <PUBCHEM_HEAVY_ATOM_COUNT>
34

> <PUBCHEM_ATOM_DEF_STEREO_COUNT>
0

> <PUBCHEM_ATOM_UDEF_STEREO_COUNT>
0

> <PUBCHEM_BOND_DEF_STEREO_COUNT>
1

> <PUBCHEM_BOND_UDEF_STEREO_COUNT>
0

> <PUBCHEM_ISOTOPIC_ATOM_COUNT>
0

> <PUBCHEM_COMPONENT_COUNT>
1

> <PUBCHEM_CACTVS_TAUTO_COUNT>
2

> <PUBCHEM_CONFORMER_ID>
0012CDF500000001

> <PUBCHEM_MMFF94_ENERGY>
92.5386

> <PUBCHEM_FEATURE_SELFOVERLAP>
55.882

> <PUBCHEM_SHAPE_FINGERPRINT>
10533779 1 17986948743284173760
10533779 47 8934998205518945029
10835480 77 18412832399320462411
11374522 72 17968949720261355836
11456790 92 13912611533155060533
11476731 38 17560802126607257499
11761917 87 9367349262672028333
11828042 226 17916866962423060065
12107183 9 12757158982234134731
12144603 126 16773522080183142379
12838862 33 18130783499906721560
13617811 41 18059853965595696816
13782708 43 9943527362581388659
14117953 113 18271815618807723852
14347424 109 13407088010858463190
15274700 259 18334844001514831653
15301273 46 11095880454690697347
15352257 5 11167938056812177117
15419008 145 13407067064598295215
15684393 108 10519983773216175746
15840311 113 17386001741478347458
16991971 28 14692567737163958129
16992787 43 18272657844387767161
16993089 31 10952056637053920433
17134984 74 11887682767334580060
1818759 1 13901900134312151613
20105231 36 9727629518467459849
20157964 124 18341898454980344526
20982279 24 10951776338993408941
21150785 3 16415756414683446203
21360443 126 18272086119341724271
21362857 166 15984831376729545380
21521721 280 18340211804501967411
21585482 111 18264209291883235588
21781051 124 10952048948529398380
21792934 111 17095519570097691423
21859007 373 17676764284213073109
23522609 53 16700640938481844627
23569943 247 10665218298331272089
23729417 116 16762282648485700582
25269216 80 14333134074492407651
3534868 343 17416417463277039414
3918712 181 18059293288123118912
397638 26 16732702749208270459
397638 5 16081361956745395127
437795 160 16950572125414749915
4403749 210 18334581287250877251
44249763 50 18041002852081424695
44880568 143 18197783207096849381
45270241 37 17917158182870495159
45377200 153 12966831478176301317
49967989 163 15123507043410726079
5372103 7 18408604794581936492
57634706 306 18408602590905004394
6058803 2 16770160747882204043

> <PUBCHEM_SHAPE_MULTIPOLES>
651.1
29.86
3.13
1.7
47.12
0.63
0.22
23.14
5.33
-7.11
1.18
0.35
0.08
1.75

> <PUBCHEM_SHAPE_SELFOVERLAP>
1426.012

> <PUBCHEM_SHAPE_VOLUME>
357.1

> <PUBCHEM_COORDINATE_TYPE>
2
5
10

$$$$
