123420816
  -OEChem-03292013293D

 47 51  0     1  0  0  0  0  0999 V2000
   -0.1501   -1.5986   -1.3169 O   0  0  0  0  0  0  0  0  0  0  0  0
   -1.4077   -2.9658    0.5096 O   0  0  0  0  0  0  0  0  0  0  0  0
    2.6036   -2.4395   -1.0851 O   0  0  0  0  0  0  0  0  0  0  0  0
   -4.3275   -1.2051    0.5454 O   0  0  0  0  0  0  0  0  0  0  0  0
    4.6691   -1.4190    1.3803 O   0  5  0  0  0  0  0  0  0  0  0  0
    5.2350   -0.4023   -0.4812 O   0  0  0  0  0  0  0  0  0  0  0  0
   -1.1569    3.4445   -0.3743 N   0  0  2  0  0  0  0  0  0  0  0  0
    4.3739   -0.7589    0.3567 N   0  3  0  0  0  0  0  0  0  0  0  0
   -1.0244    0.5521   -0.5987 C   0  0  1  0  0  0  0  0  0  0  0  0
   -1.7211    1.2605    0.5719 C   0  0  2  0  0  0  0  0  0  0  0  0
   -1.3835   -0.9280   -0.8692 C   0  0  2  0  0  0  0  0  0  0  0  0
   -0.9420    2.5929    0.8206 C   0  0  1  0  0  0  0  0  0  0  0  0
   -1.1346    1.4357   -1.8585 C   0  0  0  0  0  0  0  0  0  0  0  0
    0.4119    0.3413   -0.2536 C   0  0  0  0  0  0  0  0  0  0  0  0
   -1.9921   -1.6781    0.3507 C   0  0  2  0  0  0  0  0  0  0  0  0
    0.5595    2.3523    1.2024 C   0  0  0  0  0  0  0  0  0  0  0  0
   -0.6364    2.8712   -1.6196 C   0  0  0  0  0  0  0  0  0  0  0  0
    1.1993    1.1729    0.5206 C   0  0  0  0  0  0  0  0  0  0  0  0
   -1.8408    0.3729    1.7813 C   0  0  0  0  0  0  0  0  0  0  0  0
    0.8571   -0.8668   -0.7436 C   0  0  0  0  0  0  0  0  0  0  0  0
   -1.9559   -0.9585    1.6699 C   0  0  0  0  0  0  0  0  0  0  0  0
    2.5301    0.7954    0.7046 C   0  0  0  0  0  0  0  0  0  0  0  0
   -0.7097    4.8218   -0.1943 C   0  0  0  0  0  0  0  0  0  0  0  0
   -3.4516   -1.9518    0.1114 C   0  0  0  0  0  0  0  0  0  0  0  0
    2.1686   -1.2548   -0.5844 C   0  0  0  0  0  0  0  0  0  0  0  0
    3.0138   -0.4020    0.1381 C   0  0  0  0  0  0  0  0  0  0  0  0
   -3.7877   -3.1842   -0.6842 C   0  0  0  0  0  0  0  0  0  0  0  0
   -2.7537    1.5151    0.2885 H   0  0  0  0  0  0  0  0  0  0  0  0
   -2.0764   -0.9858   -1.7186 H   0  0  0  0  0  0  0  0  0  0  0  0
   -1.4175    3.1055    1.6683 H   0  0  0  0  0  0  0  0  0  0  0  0
   -2.1874    1.4761   -2.1693 H   0  0  0  0  0  0  0  0  0  0  0  0
   -0.5781    1.0040   -2.7004 H   0  0  0  0  0  0  0  0  0  0  0  0
    0.5953    2.1564    2.2827 H   0  0  0  0  0  0  0  0  0  0  0  0
    1.1647    3.2482    1.0328 H   0  0  0  0  0  0  0  0  0  0  0  0
    0.4604    2.8904   -1.6312 H   0  0  0  0  0  0  0  0  0  0  0  0
   -0.9625    3.4832   -2.4700 H   0  0  0  0  0  0  0  0  0  0  0  0
   -1.8788    0.8307    2.7652 H   0  0  0  0  0  0  0  0  0  0  0  0
   -2.0715   -1.5454    2.5783 H   0  0  0  0  0  0  0  0  0  0  0  0
    3.1863    1.4194    1.3078 H   0  0  0  0  0  0  0  0  0  0  0  0
   -1.1253    5.2507    0.7241 H   0  0  0  0  0  0  0  0  0  0  0  0
   -1.0712    5.4467   -1.0189 H   0  0  0  0  0  0  0  0  0  0  0  0
    0.3802    4.9150   -0.1588 H   0  0  0  0  0  0  0  0  0  0  0  0
   -1.1994   -3.3215   -0.3710 H   0  0  0  0  0  0  0  0  0  0  0  0
   -3.6239   -4.0808   -0.0815 H   0  0  0  0  0  0  0  0  0  0  0  0
   -3.1940   -3.2232   -1.6008 H   0  0  0  0  0  0  0  0  0  0  0  0
   -4.8433   -3.1481   -0.9706 H   0  0  0  0  0  0  0  0  0  0  0  0
    1.8598   -2.8747   -1.5370 H   0  0  0  0  0  0  0  0  0  0  0  0
  1 11  1  0  0  0  0
  1 20  1  0  0  0  0
  2 15  1  0  0  0  0
  2 43  1  0  0  0  0
  3 25  1  0  0  0  0
  3 47  1  0  0  0  0
  4 24  2  0  0  0  0
  5  8  1  0  0  0  0
  6  8  2  0  0  0  0
  7 12  1  0  0  0  0
  7 17  1  0  0  0  0
  7 23  1  0  0  0  0
  8 26  1  0  0  0  0
  9 10  1  0  0  0  0
  9 11  1  0  0  0  0
  9 13  1  0  0  0  0
  9 14  1  0  0  0  0
 10 12  1  0  0  0  0
 10 19  1  0  0  0  0
 10 28  1  0  0  0  0
 11 15  1  0  0  0  0
 11 29  1  0  0  0  0
 12 16  1  0  0  0  0
 12 30  1  0  0  0  0
 13 17  1  0  0  0  0
 13 31  1  0  0  0  0
 13 32  1  0  0  0  0
 14 18  1  0  0  0  0
 14 20  2  0  0  0  0
 15 21  1  0  0  0  0
 15 24  1  0  0  0  0
 16 18  1  0  0  0  0
 16 33  1  0  0  0  0
 16 34  1  0  0  0  0
 17 35  1  0  0  0  0
 17 36  1  0  0  0  0
 18 22  2  0  0  0  0
 19 21  2  0  0  0  0
 19 37  1  0  0  0  0
 20 25  1  0  0  0  0
 21 38  1  0  0  0  0
 22 26  1  0  0  0  0
 22 39  1  0  0  0  0
 23 40  1  0  0  0  0
 23 41  1  0  0  0  0
 23 42  1  0  0  0  0
 24 27  1  0  0  0  0
 25 26  2  0  0  0  0
 27 44  1  0  0  0  0
 27 45  1  0  0  0  0
 27 46  1  0  0  0  0
M  CHG  2   5  -1   8   1
M  END
> <PUBCHEM_COMPOUND_CID>
123420816

> <PUBCHEM_CONFORMER_RMSD>
0.8

> <PUBCHEM_CONFORMER_DIVERSEORDER>
1
2

> <PUBCHEM_MMFF94_PARTIAL_CHARGES>
31
1 -0.36
10 0.14
11 0.28
12 0.27
14 -0.14
15 0.48
16 0.14
17 0.27
18 -0.14
19 -0.29
2 -0.68
20 0.08
21 -0.29
22 -0.15
23 0.27
24 0.45
25 0.08
26 0.13
27 0.06
3 -0.53
37 0.15
38 0.15
39 0.15
4 -0.57
43 0.4
47 0.45
5 -0.52
6 -0.52
7 -0.81
8 0.91
9 0.14

> <PUBCHEM_EFFECTIVE_ROTOR_COUNT>
3.2

> <PUBCHEM_PHARMACOPHORE_FEATURES>
14
1 1 acceptor
1 2 acceptor
1 2 donor
1 3 donor
1 4 acceptor
1 5 acceptor
1 5 anion
1 6 acceptor
1 7 cation
5 1 9 11 14 20 rings
6 14 18 20 22 25 26 rings
6 7 9 10 12 13 17 rings
6 9 10 11 15 19 21 rings
6 9 10 12 14 16 18 rings

> <PUBCHEM_HEAVY_ATOM_COUNT>
27

> <PUBCHEM_ATOM_DEF_STEREO_COUNT>
5

> <PUBCHEM_ATOM_UDEF_STEREO_COUNT>
0

> <PUBCHEM_BOND_DEF_STEREO_COUNT>
0

> <PUBCHEM_BOND_UDEF_STEREO_COUNT>
0

> <PUBCHEM_ISOTOPIC_ATOM_COUNT>
0

> <PUBCHEM_COMPONENT_COUNT>
1

> <PUBCHEM_CACTVS_TAUTO_COUNT>
20

> <PUBCHEM_CONFORMER_ID>
075B409000000001

> <PUBCHEM_MMFF94_ENERGY>
94.1419

> <PUBCHEM_FEATURE_SELFOVERLAP>
73.249

> <PUBCHEM_SHAPE_FINGERPRINT>
10165383 225 17114423271360853004
10863032 1 18060145344761106033
10948715 1 17617096906299372468
11578080 2 18263913492188234077
12035758 1 18339367366570837505
12553582 1 18266202662453871554
12633257 1 18200890512111933682
12730499 353 17184758991788977785
12788726 201 18261107431075767410
13004483 165 18408315601285036579
13134695 92 18192712469674354997
13140716 1 18343579659571806120
133893 2 17831321745061704785
13681431 1 17971772209158063477
14181834 199 17906739451018715479
14223421 5 18341614772442749366
14790565 3 17547011191855949176
16945 1 18268169577107678237
17357779 13 18341321258335052935
17980427 23 17845668057112162737
1813 80 18262530298006837391
19591789 44 16752692183701561300
19765921 60 17477465522383621124
20600515 1 18341061820877976095
20739085 24 18197785602996977752
21304303 282 17541336230113331717
21421861 104 17766591271026829139
22907989 373 18335981982884765812
23419403 2 17915152802320240769
23493267 7 18120372052240341688
23559900 14 17978788236105645019
238 59 16961809923812797069
2748010 2 18054764407811665860
3380486 145 18339655459981101723
350125 39 18342458192677893632
404807 78 17459173099101412005
4340502 62 17471021276565654945
439807 62 16983758826837707575
4409770 3 18263634074700655597
5845 1 18263381277225751021
6442390 28 17761783862360894437
6443956 14 18267021842030116959
81228 2 18188787049606258179
9981440 41 17554568891846624834

> <PUBCHEM_SHAPE_MULTIPOLES>
510.47
6.22
4.41
1.48
4.89
4.49
0
-6.93
1.04
-1.76
-0.79
-0.3
0.29
0.13

> <PUBCHEM_SHAPE_SELFOVERLAP>
1153.417

> <PUBCHEM_SHAPE_VOLUME>
264.6

> <PUBCHEM_COORDINATE_TYPE>
2
5
10

$$$$
