12358997
  -OEChem-03292013303D

 62 63  0     1  0  0  0  0  0999 V2000
    2.2784   -0.6962   -0.1813 O   0  0  0  0  0  0  0  0  0  0  0  0
   -0.9694    1.0175    0.5529 O   0  0  0  0  0  0  0  0  0  0  0  0
   -3.9248   -0.8989    1.1117 O   0  0  0  0  0  0  0  0  0  0  0  0
   -1.0168   -1.2379   -1.0998 O   0  0  0  0  0  0  0  0  0  0  0  0
   -3.8917    1.8048   -0.0283 O   0  0  0  0  0  0  0  0  0  0  0  0
   -2.0715    0.3299    2.4467 O   0  0  0  0  0  0  0  0  0  0  0  0
    3.2634   -1.5445    1.7192 O   0  0  0  0  0  0  0  0  0  0  0  0
    2.7465    2.6939   -1.0666 N   0  0  2  0  0  0  0  0  0  0  0  0
    1.8317    1.6726   -0.4694 C   0  0  1  0  0  0  0  0  0  0  0  0
    2.7386    0.6035    0.1435 C   0  0  2  0  0  0  0  0  0  0  0  0
    4.0932    0.8720   -0.4892 C   0  0  0  0  0  0  0  0  0  0  0  0
    4.1028    2.3829   -0.5901 C   0  0  0  0  0  0  0  0  0  0  0  0
    0.9711    2.4164    0.5064 C   0  0  0  0  0  0  0  0  0  0  0  0
    2.2715    4.0098   -0.5870 C   0  0  0  0  0  0  0  0  0  0  0  0
    1.2220    3.7266    0.4350 C   0  0  0  0  0  0  0  0  0  0  0  0
   -0.0354    1.7385    1.3626 C   0  0  0  0  0  0  0  0  0  0  0  0
   -2.8812   -0.3883    0.2544 C   0  0  1  0  0  0  0  0  0  0  0  0
   -2.1901   -1.6374   -0.3874 C   0  0  0  0  0  0  0  0  0  0  0  0
   -3.5840    0.5909   -0.7283 C   0  0  2  0  0  0  0  0  0  0  0  0
   -1.9477    0.3495    1.2272 C   0  0  0  0  0  0  0  0  0  0  0  0
    2.6109   -1.6919    0.6956 C   0  0  0  0  0  0  0  0  0  0  0  0
   -1.7539   -2.6591    0.6770 C   0  0  0  0  0  0  0  0  0  0  0  0
   -3.1118   -2.3540   -1.3919 C   0  0  0  0  0  0  0  0  0  0  0  0
   -2.8592    0.9612   -2.0161 C   0  0  0  0  0  0  0  0  0  0  0  0
    2.0633   -2.9977    0.2172 C   0  0  0  0  0  0  0  0  0  0  0  0
    1.7307   -4.0463    1.2369 C   0  0  0  0  0  0  0  0  0  0  0  0
   -5.0433    2.4261   -0.5702 C   0  0  0  0  0  0  0  0  0  0  0  0
    1.9433   -3.1308   -1.1165 C   0  0  0  0  0  0  0  0  0  0  0  0
    1.4135   -4.3131   -1.8642 C   0  0  0  0  0  0  0  0  0  0  0  0
    1.2035    1.2550   -1.2662 H   0  0  0  0  0  0  0  0  0  0  0  0
    2.8057    0.7467    1.2310 H   0  0  0  0  0  0  0  0  0  0  0  0
    4.9151    0.4881    0.1231 H   0  0  0  0  0  0  0  0  0  0  0  0
    4.1690    0.4013   -1.4775 H   0  0  0  0  0  0  0  0  0  0  0  0
    4.8632    2.7424   -1.2896 H   0  0  0  0  0  0  0  0  0  0  0  0
    4.3063    2.8111    0.4002 H   0  0  0  0  0  0  0  0  0  0  0  0
    3.0734    4.6284   -0.1694 H   0  0  0  0  0  0  0  0  0  0  0  0
    1.8272    4.5588   -1.4245 H   0  0  0  0  0  0  0  0  0  0  0  0
    0.7201    4.4888    1.0131 H   0  0  0  0  0  0  0  0  0  0  0  0
   -0.5818    2.4744    1.9650 H   0  0  0  0  0  0  0  0  0  0  0  0
    0.4685    1.0412    2.0419 H   0  0  0  0  0  0  0  0  0  0  0  0
   -4.5297    0.1095   -1.0168 H   0  0  0  0  0  0  0  0  0  0  0  0
   -2.5999   -3.1060    1.2076 H   0  0  0  0  0  0  0  0  0  0  0  0
   -1.0729   -2.2099    1.4074 H   0  0  0  0  0  0  0  0  0  0  0  0
   -1.1940   -3.4791    0.2116 H   0  0  0  0  0  0  0  0  0  0  0  0
   -3.3762   -1.7418   -2.2552 H   0  0  0  0  0  0  0  0  0  0  0  0
   -4.0391   -2.6878   -0.9145 H   0  0  0  0  0  0  0  0  0  0  0  0
   -2.6122   -3.2391   -1.8051 H   0  0  0  0  0  0  0  0  0  0  0  0
   -3.5005    1.5507   -2.6789 H   0  0  0  0  0  0  0  0  0  0  0  0
   -2.5224    0.1063   -2.6011 H   0  0  0  0  0  0  0  0  0  0  0  0
   -1.9880    1.5903   -1.8042 H   0  0  0  0  0  0  0  0  0  0  0  0
   -3.5209   -1.3436    1.8751 H   0  0  0  0  0  0  0  0  0  0  0  0
   -0.6469   -2.0211   -1.5404 H   0  0  0  0  0  0  0  0  0  0  0  0
   -4.8760    2.7797   -1.5903 H   0  0  0  0  0  0  0  0  0  0  0  0
   -5.9089    1.7569   -0.5347 H   0  0  0  0  0  0  0  0  0  0  0  0
   -5.2732    3.3000    0.0467 H   0  0  0  0  0  0  0  0  0  0  0  0
    1.0711   -4.8282    0.8543 H   0  0  0  0  0  0  0  0  0  0  0  0
    1.2151   -3.5902    2.0891 H   0  0  0  0  0  0  0  0  0  0  0  0
    2.6477   -4.5164    1.6059 H   0  0  0  0  0  0  0  0  0  0  0  0
    2.2487   -2.3290   -1.7859 H   0  0  0  0  0  0  0  0  0  0  0  0
    1.1874   -5.1714   -1.2289 H   0  0  0  0  0  0  0  0  0  0  0  0
    2.1525   -4.6385   -2.6036 H   0  0  0  0  0  0  0  0  0  0  0  0
    0.4998   -4.0344   -2.3981 H   0  0  0  0  0  0  0  0  0  0  0  0
  1 10  1  0  0  0  0
  1 21  1  0  0  0  0
  2 16  1  0  0  0  0
  2 20  1  0  0  0  0
  3 17  1  0  0  0  0
  3 51  1  0  0  0  0
  4 18  1  0  0  0  0
  4 52  1  0  0  0  0
  5 19  1  0  0  0  0
  5 27  1  0  0  0  0
  6 20  2  0  0  0  0
  7 21  2  0  0  0  0
  8  9  1  0  0  0  0
  8 12  1  0  0  0  0
  8 14  1  0  0  0  0
  9 10  1  0  0  0  0
  9 13  1  0  0  0  0
  9 30  1  0  0  0  0
 10 11  1  0  0  0  0
 10 31  1  0  0  0  0
 11 12  1  0  0  0  0
 11 32  1  0  0  0  0
 11 33  1  0  0  0  0
 12 34  1  0  0  0  0
 12 35  1  0  0  0  0
 13 15  2  0  0  0  0
 13 16  1  0  0  0  0
 14 15  1  0  0  0  0
 14 36  1  0  0  0  0
 14 37  1  0  0  0  0
 15 38  1  0  0  0  0
 16 39  1  0  0  0  0
 16 40  1  0  0  0  0
 17 18  1  0  0  0  0
 17 19  1  0  0  0  0
 17 20  1  0  0  0  0
 18 22  1  0  0  0  0
 18 23  1  0  0  0  0
 19 24  1  0  0  0  0
 19 41  1  0  0  0  0
 21 25  1  0  0  0  0
 22 42  1  0  0  0  0
 22 43  1  0  0  0  0
 22 44  1  0  0  0  0
 23 45  1  0  0  0  0
 23 46  1  0  0  0  0
 23 47  1  0  0  0  0
 24 48  1  0  0  0  0
 24 49  1  0  0  0  0
 24 50  1  0  0  0  0
 25 26  1  0  0  0  0
 25 28  2  0  0  0  0
 26 56  1  0  0  0  0
 26 57  1  0  0  0  0
 26 58  1  0  0  0  0
 27 53  1  0  0  0  0
 27 54  1  0  0  0  0
 27 55  1  0  0  0  0
 28 29  1  0  0  0  0
 28 59  1  0  0  0  0
 29 60  1  0  0  0  0
 29 61  1  0  0  0  0
 29 62  1  0  0  0  0
M  END
> <PUBCHEM_COMPOUND_CID>
12358997

> <PUBCHEM_CONFORMER_RMSD>
1.2

> <PUBCHEM_CONFORMER_DIVERSEORDER>
1
16
81
39
65
15
83
21
57
71
28
50
37
54
29
40
61
25
79
76
82
6
64
45
73
84
51
22
53
35
8
27
77
67
4
33
32
89
75
70
30
80
95
41
68
56
72
62
49
47
3
88
43
93
94
31
26
11
18
34
36
85
96
69
2
19
86
63
74
7
38
13
20
66
42
55
87
12
14
48
23
24
44
78
58
9
92
46
60
59
90
91
10
52
5
17

> <PUBCHEM_MMFF94_PARTIAL_CHARGES>
29
1 -0.43
10 0.28
12 0.27
13 -0.28
14 0.41
15 -0.29
16 0.42
17 0.34
18 0.28
19 0.28
2 -0.43
20 0.66
21 0.71
25 -0.12
26 0.14
27 0.28
28 -0.29
29 0.14
3 -0.68
38 0.15
4 -0.68
5 -0.56
51 0.4
52 0.4
59 0.15
6 -0.57
7 -0.57
8 -0.81
9 0.41

> <PUBCHEM_EFFECTIVE_ROTOR_COUNT>
10.8

> <PUBCHEM_PHARMACOPHORE_FEATURES>
13
1 26 hydrophobe
1 29 hydrophobe
1 3 acceptor
1 3 donor
1 4 acceptor
1 4 donor
1 5 acceptor
1 6 acceptor
1 7 acceptor
1 8 cation
3 18 22 23 hydrophobe
5 8 9 10 11 12 rings
5 8 9 13 14 15 rings

> <PUBCHEM_HEAVY_ATOM_COUNT>
29

> <PUBCHEM_ATOM_DEF_STEREO_COUNT>
4

> <PUBCHEM_ATOM_UDEF_STEREO_COUNT>
0

> <PUBCHEM_BOND_DEF_STEREO_COUNT>
1

> <PUBCHEM_BOND_UDEF_STEREO_COUNT>
0

> <PUBCHEM_ISOTOPIC_ATOM_COUNT>
0

> <PUBCHEM_COMPONENT_COUNT>
1

> <PUBCHEM_CACTVS_TAUTO_COUNT>
1

> <PUBCHEM_CONFORMER_ID>
00BC955500000001

> <PUBCHEM_MMFF94_ENERGY>
70.0118

> <PUBCHEM_FEATURE_SELFOVERLAP>
66.35

> <PUBCHEM_SHAPE_FINGERPRINT>
10675989 125 18120088381908491465
11370993 70 18119521287326797876
11513181 2 17628355969833967959
12553582 1 18195262026633080954
12633257 1 18188756250327583678
12788726 201 17615973209974399430
13004483 165 17830717773849395890
13583140 156 18260842470902645427
14117953 113 18195800761481857334
14251757 17 17608353654322922789
15463212 79 17541649952052919856
18785283 64 18336838485632114193
19930381 70 18264203621924102031
21641784 216 16100243122115104244
21860390 5 18268985401908856070
22113638 7 18196077863913081903
22393880 68 18340490087843353468
23559900 14 18270399382578444062
238 59 18193826274499981566
35225 105 17691981770255484518
4280585 95 18124038936515413038
463206 1 18410292489074573840
469060 322 16457145657215603986
5081480 168 17627823853451128326
6287921 2 17681562759168657877
7399639 24 17900822957449014281
81228 2 17690558589881498306

> <PUBCHEM_SHAPE_MULTIPOLES>
550.74
7.74
5.83
1.65
4.35
2.44
0.14
-3.53
-1.28
-4.4
-1.14
0.54
0.71
-0.54

> <PUBCHEM_SHAPE_SELFOVERLAP>
1129.165

> <PUBCHEM_SHAPE_VOLUME>
320.9

> <PUBCHEM_COORDINATE_TYPE>
2
5
10

$$$$
