12358462
  -OEChem-03292013303D

 76 79  0     1  0  0  0  0  0999 V2000
   -0.5110    0.3755   -2.1776 O   0  0  0  0  0  0  0  0  0  0  0  0
    3.0553    2.8780   -0.5254 O   0  0  0  0  0  0  0  0  0  0  0  0
    6.2345   -0.9823   -1.6480 O   0  0  0  0  0  0  0  0  0  0  0  0
   -5.7962   -0.6354    1.1024 O   0  0  0  0  0  0  0  0  0  0  0  0
   -2.2751   -3.3969   -0.8441 O   0  0  0  0  0  0  0  0  0  0  0  0
   -2.3477   -4.6291    1.0596 O   0  0  0  0  0  0  0  0  0  0  0  0
   -4.1490   -1.7267   -0.1204 N   0  0  0  0  0  0  0  0  0  0  0  0
   -0.9595    1.1690    0.1077 C   0  0  1  0  0  0  0  0  0  0  0  0
    0.3040    2.0634    0.1174 C   0  0  2  0  0  0  0  0  0  0  0  0
    1.5509    1.3445    0.6555 C   0  0  1  0  0  0  0  0  0  0  0  0
    1.8283    0.0842   -0.2338 C   0  0  1  0  0  0  0  0  0  0  0  0
    3.1069   -0.7045    0.2495 C   0  0  2  0  0  0  0  0  0  0  0  0
   -1.9882    2.2192   -0.3916 C   0  0  2  0  0  0  0  0  0  0  0  0
   -0.7003   -0.0341   -0.8236 C   0  0  2  0  0  0  0  0  0  0  0  0
    0.5636   -0.8074   -0.3959 C   0  0  0  0  0  0  0  0  0  0  0  0
    4.3040    0.2985    0.2603 C   0  0  1  0  0  0  0  0  0  0  0  0
   -0.1586    3.3359    0.8261 C   0  0  0  0  0  0  0  0  0  0  0  0
    2.7840    2.2692    0.7369 C   0  0  1  0  0  0  0  0  0  0  0  0
   -1.6307    3.4935    0.4068 C   0  0  0  0  0  0  0  0  0  0  0  0
    4.0411    1.5097    1.1681 C   0  0  0  0  0  0  0  0  0  0  0  0
    3.4590   -1.8434   -0.7499 C   0  0  0  0  0  0  0  0  0  0  0  0
   -1.3583    0.6394    1.5121 C   0  0  0  0  0  0  0  0  0  0  0  0
   -3.4563    1.8364   -0.2742 C   0  0  2  0  0  0  0  0  0  0  0  0
    5.6473   -0.3722    0.5984 C   0  0  0  0  0  0  0  0  0  0  0  0
    2.8689   -1.3376    1.6455 C   0  0  0  0  0  0  0  0  0  0  0  0
    4.8051   -2.5209   -0.4609 C   0  0  0  0  0  0  0  0  0  0  0  0
    5.9581   -1.5251   -0.3568 C   0  0  1  0  0  0  0  0  0  0  0  0
   -3.9216    0.9066   -1.4134 C   0  0  0  0  0  0  0  0  0  0  0  0
   -4.3266    3.0984   -0.2548 C   0  0  0  0  0  0  0  0  0  0  0  0
   -5.2316    0.1804   -1.1061 C   0  0  0  0  0  0  0  0  0  0  0  0
   -5.1113   -0.7496    0.0895 C   0  0  0  0  0  0  0  0  0  0  0  0
   -3.8345   -2.7473    0.8530 C   0  0  0  0  0  0  0  0  0  0  0  0
   -2.7543   -3.6893    0.3873 C   0  0  0  0  0  0  0  0  0  0  0  0
    0.5291    2.3597   -0.9198 H   0  0  0  0  0  0  0  0  0  0  0  0
    1.3450    1.0196    1.6802 H   0  0  0  0  0  0  0  0  0  0  0  0
    2.0571    0.4571   -1.2442 H   0  0  0  0  0  0  0  0  0  0  0  0
   -1.7825    2.4501   -1.4476 H   0  0  0  0  0  0  0  0  0  0  0  0
   -1.5409   -0.7298   -0.8029 H   0  0  0  0  0  0  0  0  0  0  0  0
    0.3527   -1.3350    0.5390 H   0  0  0  0  0  0  0  0  0  0  0  0
    0.7649   -1.5758   -1.1511 H   0  0  0  0  0  0  0  0  0  0  0  0
    4.4100    0.6904   -0.7626 H   0  0  0  0  0  0  0  0  0  0  0  0
   -0.0782    3.2402    1.9149 H   0  0  0  0  0  0  0  0  0  0  0  0
    0.4342    4.2064    0.5266 H   0  0  0  0  0  0  0  0  0  0  0  0
    2.5913    3.0778    1.4512 H   0  0  0  0  0  0  0  0  0  0  0  0
   -1.7687    4.3941   -0.2015 H   0  0  0  0  0  0  0  0  0  0  0  0
   -2.2214    3.6076    1.3216 H   0  0  0  0  0  0  0  0  0  0  0  0
    3.9474    1.1945    2.2134 H   0  0  0  0  0  0  0  0  0  0  0  0
    4.9052    2.1844    1.1180 H   0  0  0  0  0  0  0  0  0  0  0  0
    3.4805   -1.4400   -1.7707 H   0  0  0  0  0  0  0  0  0  0  0  0
    2.6840   -2.6188   -0.7396 H   0  0  0  0  0  0  0  0  0  0  0  0
   -2.1921   -0.0661    1.4438 H   0  0  0  0  0  0  0  0  0  0  0  0
   -0.5469    0.0976    2.0050 H   0  0  0  0  0  0  0  0  0  0  0  0
   -1.6605    1.4381    2.1963 H   0  0  0  0  0  0  0  0  0  0  0  0
   -3.6375    1.3453    0.6852 H   0  0  0  0  0  0  0  0  0  0  0  0
    6.4446    0.3783    0.5223 H   0  0  0  0  0  0  0  0  0  0  0  0
    5.6498   -0.7319    1.6331 H   0  0  0  0  0  0  0  0  0  0  0  0
    3.7698   -1.8064    2.0508 H   0  0  0  0  0  0  0  0  0  0  0  0
    2.1088   -2.1244    1.6002 H   0  0  0  0  0  0  0  0  0  0  0  0
    2.5386   -0.6094    2.3899 H   0  0  0  0  0  0  0  0  0  0  0  0
    5.0064   -3.2393   -1.2649 H   0  0  0  0  0  0  0  0  0  0  0  0
    4.7363   -3.0992    0.4673 H   0  0  0  0  0  0  0  0  0  0  0  0
    6.8662   -2.0392   -0.0229 H   0  0  0  0  0  0  0  0  0  0  0  0
   -0.4048   -0.4266   -2.7168 H   0  0  0  0  0  0  0  0  0  0  0  0
   -3.1597    0.1754   -1.6723 H   0  0  0  0  0  0  0  0  0  0  0  0
   -4.0647    1.5017   -2.3252 H   0  0  0  0  0  0  0  0  0  0  0  0
    3.8023    3.4885   -0.4043 H   0  0  0  0  0  0  0  0  0  0  0  0
   -4.1080    3.7478   -1.1100 H   0  0  0  0  0  0  0  0  0  0  0  0
   -5.3919    2.8531   -0.3007 H   0  0  0  0  0  0  0  0  0  0  0  0
   -4.2062    3.6800    0.6633 H   0  0  0  0  0  0  0  0  0  0  0  0
    6.4592   -1.7235   -2.2359 H   0  0  0  0  0  0  0  0  0  0  0  0
   -5.5254   -0.4236   -1.9734 H   0  0  0  0  0  0  0  0  0  0  0  0
   -6.0513    0.8809   -0.9214 H   0  0  0  0  0  0  0  0  0  0  0  0
   -3.6831   -1.7769   -1.0210 H   0  0  0  0  0  0  0  0  0  0  0  0
   -4.7475   -3.3183    1.0468 H   0  0  0  0  0  0  0  0  0  0  0  0
   -3.5075   -2.2501    1.7708 H   0  0  0  0  0  0  0  0  0  0  0  0
   -1.5707   -4.0203   -1.1222 H   0  0  0  0  0  0  0  0  0  0  0  0
  1 14  1  0  0  0  0
  1 63  1  0  0  0  0
  2 18  1  0  0  0  0
  2 66  1  0  0  0  0
  3 27  1  0  0  0  0
  3 70  1  0  0  0  0
  4 31  2  0  0  0  0
  5 33  1  0  0  0  0
  5 76  1  0  0  0  0
  6 33  2  0  0  0  0
  7 31  1  0  0  0  0
  7 32  1  0  0  0  0
  7 73  1  0  0  0  0
  8  9  1  0  0  0  0
  8 13  1  0  0  0  0
  8 14  1  0  0  0  0
  8 22  1  0  0  0  0
  9 10  1  0  0  0  0
  9 17  1  0  0  0  0
  9 34  1  0  0  0  0
 10 11  1  0  0  0  0
 10 18  1  0  0  0  0
 10 35  1  0  0  0  0
 11 12  1  0  0  0  0
 11 15  1  0  0  0  0
 11 36  1  0  0  0  0
 12 16  1  0  0  0  0
 12 21  1  0  0  0  0
 12 25  1  0  0  0  0
 13 19  1  0  0  0  0
 13 23  1  0  0  0  0
 13 37  1  0  0  0  0
 14 15  1  0  0  0  0
 14 38  1  0  0  0  0
 15 39  1  0  0  0  0
 15 40  1  0  0  0  0
 16 20  1  0  0  0  0
 16 24  1  0  0  0  0
 16 41  1  0  0  0  0
 17 19  1  0  0  0  0
 17 42  1  0  0  0  0
 17 43  1  0  0  0  0
 18 20  1  0  0  0  0
 18 44  1  0  0  0  0
 19 45  1  0  0  0  0
 19 46  1  0  0  0  0
 20 47  1  0  0  0  0
 20 48  1  0  0  0  0
 21 26  1  0  0  0  0
 21 49  1  0  0  0  0
 21 50  1  0  0  0  0
 22 51  1  0  0  0  0
 22 52  1  0  0  0  0
 22 53  1  0  0  0  0
 23 28  1  0  0  0  0
 23 29  1  0  0  0  0
 23 54  1  0  0  0  0
 24 27  1  0  0  0  0
 24 55  1  0  0  0  0
 24 56  1  0  0  0  0
 25 57  1  0  0  0  0
 25 58  1  0  0  0  0
 25 59  1  0  0  0  0
 26 27  1  0  0  0  0
 26 60  1  0  0  0  0
 26 61  1  0  0  0  0
 27 62  1  0  0  0  0
 28 30  1  0  0  0  0
 28 64  1  0  0  0  0
 28 65  1  0  0  0  0
 29 67  1  0  0  0  0
 29 68  1  0  0  0  0
 29 69  1  0  0  0  0
 30 31  1  0  0  0  0
 30 71  1  0  0  0  0
 30 72  1  0  0  0  0
 32 33  1  0  0  0  0
 32 74  1  0  0  0  0
 32 75  1  0  0  0  0
M  END
> <PUBCHEM_COMPOUND_CID>
12358462

> <PUBCHEM_CONFORMER_RMSD>
1

> <PUBCHEM_CONFORMER_DIVERSEORDER>
1
60
18
64
10
87
106
78
40
89
65
97
57
15
44
39
32
6
77
96
28
30
43
36
98
26
42
38
94
91
2
9
84
27
116
68
93
11
37
100
20
3
85
82
19
31
5
55
50
46
52
92
7
99
4
33
54
80
66
61
17
113
49
56
73
25
21
88
81
35
86
8
95
23
67
75
53
12
90
69
70
117
24
112
71
107
13
103
14
101
102
16
114
74
62
115
63
76
45
48
41
29
108
59
105
47
22
34
110
58
51
79
83
111
72
109
104

> <PUBCHEM_MMFF94_PARTIAL_CHARGES>
19
1 -0.68
14 0.28
18 0.28
2 -0.68
27 0.28
3 -0.68
30 0.06
31 0.57
32 0.36
33 0.66
4 -0.57
5 -0.65
6 -0.57
63 0.4
66 0.4
7 -0.73
70 0.4
73 0.37
76 0.5

> <PUBCHEM_EFFECTIVE_ROTOR_COUNT>
9.2

> <PUBCHEM_PHARMACOPHORE_FEATURES>
16
1 1 acceptor
1 1 donor
1 2 acceptor
1 2 donor
1 29 hydrophobe
1 3 acceptor
1 3 donor
1 4 acceptor
1 5 acceptor
1 6 acceptor
1 7 donor
3 5 6 33 anion
5 8 9 13 17 19 rings
6 10 11 12 16 18 20 rings
6 12 16 21 24 26 27 rings
6 8 9 10 11 14 15 rings

> <PUBCHEM_HEAVY_ATOM_COUNT>
33

> <PUBCHEM_ATOM_DEF_STEREO_COUNT>
8

> <PUBCHEM_ATOM_UDEF_STEREO_COUNT>
3

> <PUBCHEM_BOND_DEF_STEREO_COUNT>
0

> <PUBCHEM_BOND_UDEF_STEREO_COUNT>
0

> <PUBCHEM_ISOTOPIC_ATOM_COUNT>
0

> <PUBCHEM_COMPONENT_COUNT>
1

> <PUBCHEM_CACTVS_TAUTO_COUNT>
2

> <PUBCHEM_CONFORMER_ID>
00BC933E00000001

> <PUBCHEM_MMFF94_ENERGY>
109.571

> <PUBCHEM_FEATURE_SELFOVERLAP>
81.345

> <PUBCHEM_SHAPE_FINGERPRINT>
10462674 296 17407389708309222886
10675989 125 16750424372635516557
10838868 158 17465107428299273419
11135609 12 18336830882790667408
12422481 6 17131837546843000901
12633257 1 18342464785536686347
12645989 146 18271524325035400935
12788726 201 18337103463053846403
13402501 40 18413106156737080599
14251757 5 18334298686269859667
144659 178 18189620612500938349
15351339 4 18189324693919165259
15361156 5 18340771545550420630
15799311 1 18338536203919297268
15927050 60 17980474565426605349
16112460 7 18343032098949982179
17627616 140 17830172407487459019
18608769 82 18340485677444216072
19319366 153 17532654521119379354
19611394 137 18342164588908264072
19958102 18 18189325788702808663
21033648 29 16986848178630497496
23559900 14 18410566271443389856
3380486 145 18119825835368879177
3383291 50 18408879668785120899
350125 39 18340770442186455772
4015057 19 18200579423995053877
4058900 60 17833553392678392781
4073 2 18411979127032176192
463206 1 18336547243377240995
5104073 3 18201711804665110344
59755656 215 18410572855892011838
9709674 26 18412539907779244944

> <PUBCHEM_SHAPE_MULTIPOLES>
638.93
12.85
4.68
1.32
5.44
2.21
0.13
5.45
1.48
-3.98
-1.03
0.06
0.2
1.68

> <PUBCHEM_SHAPE_SELFOVERLAP>
1333.634

> <PUBCHEM_SHAPE_VOLUME>
358.1

> <PUBCHEM_COORDINATE_TYPE>
2
5
10

$$$$
