123681
  -OEChem-03292013323D

 61 62  0     1  0  0  0  0  0999 V2000
   -1.2890    1.2725    1.5401 O   0  0  0  0  0  0  0  0  0  0  0  0
    1.8499    1.3955   -0.7223 O   0  0  0  0  0  0  0  0  0  0  0  0
   -4.2723    3.7069    1.5749 O   0  0  0  0  0  0  0  0  0  0  0  0
   -4.6619    1.8127    0.3680 O   0  0  0  0  0  0  0  0  0  0  0  0
    4.0269   -1.4518   -0.8350 O   0  0  0  0  0  0  0  0  0  0  0  0
   -2.0889    1.9193   -0.5331 N   0  0  0  0  0  0  0  0  0  0  0  0
    4.0818    0.4836    0.4329 N   0  0  0  0  0  0  0  0  0  0  0  0
    0.5759   -0.1711    0.4360 N   0  0  0  0  0  0  0  0  0  0  0  0
    6.3559   -1.2030   -1.8587 N   0  0  0  0  0  0  0  0  0  0  0  0
   -1.8294   -4.1935    0.3801 N   0  0  0  0  0  0  0  0  0  0  0  0
   -3.0503   -6.0928   -0.4395 N   0  0  0  0  0  0  0  0  0  0  0  0
   -2.8194   -5.7352    1.7996 N   0  0  0  0  0  0  0  0  0  0  0  0
    2.8257    0.2579    1.1358 C   0  0  1  0  0  0  0  0  0  0  0  0
   -2.7091    3.1618   -0.0922 C   0  0  1  0  0  0  0  0  0  0  0  0
    2.8509    1.2417    2.2998 C   0  0  0  0  0  0  0  0  0  0  0  0
   -2.9810    3.9361   -1.3767 C   0  0  0  0  0  0  0  0  0  0  0  0
   -2.2013    1.7590   -1.9807 C   0  0  0  0  0  0  0  0  0  0  0  0
   -3.1812    2.8375   -2.4177 C   0  0  0  0  0  0  0  0  0  0  0  0
    3.7018    2.3943    1.7719 C   0  0  0  0  0  0  0  0  0  0  0  0
    4.7435    1.6945    0.9121 C   0  0  0  0  0  0  0  0  0  0  0  0
   -0.6404   -0.0450   -0.3340 C   0  0  2  0  0  0  0  0  0  0  0  0
   -1.3607    1.1062    0.3214 C   0  0  0  0  0  0  0  0  0  0  0  0
    1.7188    0.5641    0.1721 C   0  0  0  0  0  0  0  0  0  0  0  0
   -1.4610   -1.3321   -0.3035 C   0  0  0  0  0  0  0  0  0  0  0  0
   -3.9785    2.7951    0.6159 C   0  0  0  0  0  0  0  0  0  0  0  0
    4.6161   -0.4395   -0.4525 C   0  0  0  0  0  0  0  0  0  0  0  0
   -0.7388   -2.4924   -0.9997 C   0  0  0  0  0  0  0  0  0  0  0  0
    6.0035   -0.1299   -0.9552 C   0  0  0  0  0  0  0  0  0  0  0  0
   -1.5621   -3.7761   -0.9971 C   0  0  0  0  0  0  0  0  0  0  0  0
   -2.5252   -5.2763    0.5373 C   0  0  0  0  0  0  0  0  0  0  0  0
    2.7700   -0.7840    1.4699 H   0  0  0  0  0  0  0  0  0  0  0  0
   -2.0354    3.6852    0.5946 H   0  0  0  0  0  0  0  0  0  0  0  0
    1.8584    1.5734    2.6194 H   0  0  0  0  0  0  0  0  0  0  0  0
    3.3549    0.7853    3.1606 H   0  0  0  0  0  0  0  0  0  0  0  0
   -3.8427    4.6073   -1.3124 H   0  0  0  0  0  0  0  0  0  0  0  0
   -2.0996    4.5315   -1.6443 H   0  0  0  0  0  0  0  0  0  0  0  0
   -1.2138    1.9370   -2.4203 H   0  0  0  0  0  0  0  0  0  0  0  0
   -2.5386    0.7528   -2.2420 H   0  0  0  0  0  0  0  0  0  0  0  0
   -2.9994    3.1814   -3.4398 H   0  0  0  0  0  0  0  0  0  0  0  0
   -4.2081    2.4569   -2.3661 H   0  0  0  0  0  0  0  0  0  0  0  0
    4.1499    2.9924    2.5702 H   0  0  0  0  0  0  0  0  0  0  0  0
    3.0877    3.0603    1.1545 H   0  0  0  0  0  0  0  0  0  0  0  0
    5.6115    1.3922    1.5078 H   0  0  0  0  0  0  0  0  0  0  0  0
    5.0814    2.3109    0.0747 H   0  0  0  0  0  0  0  0  0  0  0  0
   -0.3482    0.1958   -1.3592 H   0  0  0  0  0  0  0  0  0  0  0  0
    0.5584   -0.7745    1.2536 H   0  0  0  0  0  0  0  0  0  0  0  0
   -1.6838   -1.5995    0.7374 H   0  0  0  0  0  0  0  0  0  0  0  0
   -2.4294   -1.1648   -0.7906 H   0  0  0  0  0  0  0  0  0  0  0  0
   -0.5155   -2.2152   -2.0369 H   0  0  0  0  0  0  0  0  0  0  0  0
    0.2201   -2.6842   -0.5030 H   0  0  0  0  0  0  0  0  0  0  0  0
    6.7081   -0.0825   -0.1203 H   0  0  0  0  0  0  0  0  0  0  0  0
    5.9982    0.8221   -1.4931 H   0  0  0  0  0  0  0  0  0  0  0  0
   -2.5015   -3.6007   -1.5355 H   0  0  0  0  0  0  0  0  0  0  0  0
   -0.9965   -4.5520   -1.5270 H   0  0  0  0  0  0  0  0  0  0  0  0
   -5.1016    3.4850    2.0495 H   0  0  0  0  0  0  0  0  0  0  0  0
    7.2853   -1.0335   -2.2414 H   0  0  0  0  0  0  0  0  0  0  0  0
    6.4205   -2.0821   -1.3462 H   0  0  0  0  0  0  0  0  0  0  0  0
   -3.5823   -6.9218   -0.1972 H   0  0  0  0  0  0  0  0  0  0  0  0
   -2.9274   -5.9024   -1.4276 H   0  0  0  0  0  0  0  0  0  0  0  0
   -3.3628   -6.5792    1.9439 H   0  0  0  0  0  0  0  0  0  0  0  0
   -2.5006   -5.2389    2.6247 H   0  0  0  0  0  0  0  0  0  0  0  0
  1 22  2  0  0  0  0
  2 23  2  0  0  0  0
  3 25  1  0  0  0  0
  3 55  1  0  0  0  0
  4 25  2  0  0  0  0
  5 26  2  0  0  0  0
  6 14  1  0  0  0  0
  6 17  1  0  0  0  0
  6 22  1  0  0  0  0
  7 13  1  0  0  0  0
  7 20  1  0  0  0  0
  7 26  1  0  0  0  0
  8 21  1  0  0  0  0
  8 23  1  0  0  0  0
  8 46  1  0  0  0  0
  9 28  1  0  0  0  0
  9 56  1  0  0  0  0
  9 57  1  0  0  0  0
 10 29  1  0  0  0  0
 10 30  2  0  0  0  0
 11 30  1  0  0  0  0
 11 58  1  0  0  0  0
 11 59  1  0  0  0  0
 12 30  1  0  0  0  0
 12 60  1  0  0  0  0
 12 61  1  0  0  0  0
 13 15  1  0  0  0  0
 13 23  1  0  0  0  0
 13 31  1  0  0  0  0
 14 16  1  0  0  0  0
 14 25  1  0  0  0  0
 14 32  1  0  0  0  0
 15 19  1  0  0  0  0
 15 33  1  0  0  0  0
 15 34  1  0  0  0  0
 16 18  1  0  0  0  0
 16 35  1  0  0  0  0
 16 36  1  0  0  0  0
 17 18  1  0  0  0  0
 17 37  1  0  0  0  0
 17 38  1  0  0  0  0
 18 39  1  0  0  0  0
 18 40  1  0  0  0  0
 19 20  1  0  0  0  0
 19 41  1  0  0  0  0
 19 42  1  0  0  0  0
 20 43  1  0  0  0  0
 20 44  1  0  0  0  0
 21 22  1  0  0  0  0
 21 24  1  0  0  0  0
 21 45  1  0  0  0  0
 24 27  1  0  0  0  0
 24 47  1  0  0  0  0
 24 48  1  0  0  0  0
 26 28  1  0  0  0  0
 27 29  1  0  0  0  0
 27 49  1  0  0  0  0
 27 50  1  0  0  0  0
 28 51  1  0  0  0  0
 28 52  1  0  0  0  0
 29 53  1  0  0  0  0
 29 54  1  0  0  0  0
M  END
> <PUBCHEM_COMPOUND_CID>
123681

> <PUBCHEM_CONFORMER_RMSD>
1.2

> <PUBCHEM_CONFORMER_DIVERSEORDER>
1
31
33
28
36
18
30
29
15
22
19
6
9
3
26
5
23
12
27
14
25
21
4
32
13
20
24
16
10
34
35
8
2
17
7
11

> <PUBCHEM_MMFF94_PARTIAL_CHARGES>
32
1 -0.57
10 -0.7
11 -0.85
12 -0.85
13 0.36
14 0.36
17 0.3
2 -0.57
20 0.3
21 0.36
22 0.57
23 0.57
25 0.66
26 0.57
28 0.33
29 0.25
3 -0.65
30 0.55
4 -0.57
46 0.37
5 -0.57
55 0.5
56 0.36
57 0.36
58 0.4
59 0.4
6 -0.66
60 0.4
61 0.4
7 -0.66
8 -0.73
9 -0.99

> <PUBCHEM_EFFECTIVE_ROTOR_COUNT>
14

> <PUBCHEM_PHARMACOPHORE_FEATURES>
14
1 1 acceptor
1 11 donor
1 12 donor
1 2 acceptor
1 3 acceptor
1 4 acceptor
1 5 acceptor
1 8 donor
1 9 cation
1 9 donor
3 3 4 25 anion
4 10 11 12 30 cation
5 6 14 16 17 18 rings
5 7 13 15 19 20 rings

> <PUBCHEM_HEAVY_ATOM_COUNT>
30

> <PUBCHEM_ATOM_DEF_STEREO_COUNT>
3

> <PUBCHEM_ATOM_UDEF_STEREO_COUNT>
0

> <PUBCHEM_BOND_DEF_STEREO_COUNT>
0

> <PUBCHEM_BOND_UDEF_STEREO_COUNT>
0

> <PUBCHEM_ISOTOPIC_ATOM_COUNT>
0

> <PUBCHEM_COMPONENT_COUNT>
1

> <PUBCHEM_CACTVS_TAUTO_COUNT>
4

> <PUBCHEM_CONFORMER_ID>
0001E32100000001

> <PUBCHEM_MMFF94_ENERGY>
69.671

> <PUBCHEM_FEATURE_SELFOVERLAP>
71.159

> <PUBCHEM_SHAPE_FINGERPRINT>
10764073 3 17630074695851252227
11331351 85 17981332501817818515
11488393 25 17469322535320887483
11991303 11 18334301941675436471
12160290 23 18124843941734074391
12549972 3 17774709944500200714
12788726 201 17980442902083641551
13540713 4 18059855125821765832
13690498 29 18198637703930720558
14856354 85 16516266054160383024
15664445 248 17329446445537958292
17980427 23 14201977644726093973
1813 80 17760648465843458526
19958102 18 18338223899672500855
21033648 29 18268134384463010760
21049683 271 16890036540371148261
21120745 212 18048050849646485693
21796203 349 17107361589349551130
23559900 14 15050579649412040000
24893989 43 15227465897760900177
3380486 145 17411319315131052527
4058900 60 17981056214681228921
59025328 239 16767291378746845807
59755656 520 18342178804295588141
613672 6 17834659879275314406
633830 44 17773580642431353701
6679774 75 17900250901796174258
7399639 24 17624962117406480472
79837 15 18411412895781691443
9658208 31 18413386523364010400

> <PUBCHEM_SHAPE_MULTIPOLES>
553.17
10.99
7.76
1.93
16.06
15.19
0.05
-3.73
1.57
-16.01
-1.22
0.26
-0.89
2.95

> <PUBCHEM_SHAPE_SELFOVERLAP>
1133.375

> <PUBCHEM_SHAPE_VOLUME>
317.5

> <PUBCHEM_COORDINATE_TYPE>
2
5
10

$$$$
