123646
  -OEChem-03292013323D

 36 37  0     1  0  0  0  0  0999 V2000
    0.7946   -0.7209   -0.0368 O   0  0  0  0  0  0  0  0  0  0  0  0
   -0.4463    1.2424   -0.2700 O   0  0  0  0  0  0  0  0  0  0  0  0
    4.3288    1.4314    0.0299 O   0  0  0  0  0  0  0  0  0  0  0  0
    3.1869   -0.6186    1.5206 O   0  0  0  0  0  0  0  0  0  0  0  0
    1.9171    2.6183   -1.0379 O   0  0  0  0  0  0  0  0  0  0  0  0
    0.6538   -3.4569   -0.2219 O   0  0  0  0  0  0  0  0  0  0  0  0
   -3.0403    0.2345    2.7122 O   0  5  0  0  0  0  0  0  0  0  0  0
   -1.1274    1.1284    2.0963 O   0  0  0  0  0  0  0  0  0  0  0  0
   -2.2131    0.5619    1.8297 N   0  3  0  0  0  0  0  0  0  0  0  0
    3.2504    0.6787   -0.5187 C   0  0  1  0  0  0  0  0  0  0  0  0
    3.2193   -0.7212    0.0956 C   0  0  2  0  0  0  0  0  0  0  0  0
    1.9386    1.4199   -0.2626 C   0  0  2  0  0  0  0  0  0  0  0  0
    1.9684   -1.4682   -0.3797 C   0  0  1  0  0  0  0  0  0  0  0  0
    0.7410    0.5577   -0.6681 C   0  0  1  0  0  0  0  0  0  0  0  0
    1.8355   -2.8442    0.2621 C   0  0  0  0  0  0  0  0  0  0  0  0
   -1.6330    0.6219   -0.5486 C   0  0  0  0  0  0  0  0  0  0  0  0
   -2.5182    0.2785    0.4701 C   0  0  0  0  0  0  0  0  0  0  0  0
   -1.9450    0.3386   -1.8761 C   0  0  0  0  0  0  0  0  0  0  0  0
   -3.7229   -0.3524    0.1596 C   0  0  0  0  0  0  0  0  0  0  0  0
   -3.1497   -0.2922   -2.1867 C   0  0  0  0  0  0  0  0  0  0  0  0
   -4.0387   -0.6377   -1.1689 C   0  0  0  0  0  0  0  0  0  0  0  0
    3.4309    0.6028   -1.5983 H   0  0  0  0  0  0  0  0  0  0  0  0
    4.1323   -1.2680   -0.1627 H   0  0  0  0  0  0  0  0  0  0  0  0
    1.8684    1.7241    0.7887 H   0  0  0  0  0  0  0  0  0  0  0  0
    1.9828   -1.5885   -1.4710 H   0  0  0  0  0  0  0  0  0  0  0  0
    0.7416    0.4328   -1.7588 H   0  0  0  0  0  0  0  0  0  0  0  0
    1.7474   -2.7824    1.3515 H   0  0  0  0  0  0  0  0  0  0  0  0
    2.6881   -3.4827    0.0128 H   0  0  0  0  0  0  0  0  0  0  0  0
    4.3004    2.3166   -0.3718 H   0  0  0  0  0  0  0  0  0  0  0  0
    2.3171   -0.2726    1.7823 H   0  0  0  0  0  0  0  0  0  0  0  0
    1.0628    3.0541   -0.8759 H   0  0  0  0  0  0  0  0  0  0  0  0
   -0.0919   -2.8723   -0.0023 H   0  0  0  0  0  0  0  0  0  0  0  0
   -1.2776    0.6178   -2.6861 H   0  0  0  0  0  0  0  0  0  0  0  0
   -4.4418   -0.6374    0.9235 H   0  0  0  0  0  0  0  0  0  0  0  0
   -3.3980   -0.5100   -3.2213 H   0  0  0  0  0  0  0  0  0  0  0  0
   -4.9771   -1.1277   -1.4114 H   0  0  0  0  0  0  0  0  0  0  0  0
  1 13  1  0  0  0  0
  1 14  1  0  0  0  0
  2 14  1  0  0  0  0
  2 16  1  0  0  0  0
  3 10  1  0  0  0  0
  3 29  1  0  0  0  0
  4 11  1  0  0  0  0
  4 30  1  0  0  0  0
  5 12  1  0  0  0  0
  5 31  1  0  0  0  0
  6 15  1  0  0  0  0
  6 32  1  0  0  0  0
  7  9  1  0  0  0  0
  8  9  2  0  0  0  0
  9 17  1  0  0  0  0
 10 11  1  0  0  0  0
 10 12  1  0  0  0  0
 10 22  1  0  0  0  0
 11 13  1  0  0  0  0
 11 23  1  0  0  0  0
 12 14  1  0  0  0  0
 12 24  1  0  0  0  0
 13 15  1  0  0  0  0
 13 25  1  0  0  0  0
 14 26  1  0  0  0  0
 15 27  1  0  0  0  0
 15 28  1  0  0  0  0
 16 17  1  0  0  0  0
 16 18  2  0  0  0  0
 17 19  2  0  0  0  0
 18 20  1  0  0  0  0
 18 33  1  0  0  0  0
 19 21  1  0  0  0  0
 19 34  1  0  0  0  0
 20 21  2  0  0  0  0
 20 35  1  0  0  0  0
 21 36  1  0  0  0  0
M  CHG  2   7  -1   9   1
M  END
> <PUBCHEM_COMPOUND_CID>
123646

> <PUBCHEM_CONFORMER_RMSD>
0.8

> <PUBCHEM_CONFORMER_DIVERSEORDER>
1
16
15
18
8
36
39
31
35
14
30
32
28
20
25
37
40
24
33
26
17
21
38
9
27
10
2
11
5
19
7
34
22
4
23
29
12
6
3
13
41

> <PUBCHEM_MMFF94_PARTIAL_CHARGES>
29
1 -0.56
10 0.28
11 0.28
12 0.28
13 0.28
14 0.56
15 0.28
16 0.08
17 0.13
18 -0.15
19 -0.15
2 -0.36
20 -0.15
21 -0.15
29 0.4
3 -0.68
30 0.4
31 0.4
32 0.4
33 0.15
34 0.15
35 0.15
36 0.15
4 -0.68
5 -0.68
6 -0.68
7 -0.52
8 -0.52
9 0.91

> <PUBCHEM_EFFECTIVE_ROTOR_COUNT>
5.2

> <PUBCHEM_PHARMACOPHORE_FEATURES>
15
1 1 acceptor
1 2 acceptor
1 3 acceptor
1 3 donor
1 4 acceptor
1 4 donor
1 5 acceptor
1 5 donor
1 6 acceptor
1 6 donor
1 7 acceptor
1 7 anion
1 8 acceptor
6 1 10 11 12 13 14 rings
6 16 17 18 19 20 21 rings

> <PUBCHEM_HEAVY_ATOM_COUNT>
21

> <PUBCHEM_ATOM_DEF_STEREO_COUNT>
4

> <PUBCHEM_ATOM_UDEF_STEREO_COUNT>
1

> <PUBCHEM_BOND_DEF_STEREO_COUNT>
0

> <PUBCHEM_BOND_UDEF_STEREO_COUNT>
0

> <PUBCHEM_ISOTOPIC_ATOM_COUNT>
0

> <PUBCHEM_COMPONENT_COUNT>
1

> <PUBCHEM_CACTVS_TAUTO_COUNT>
1

> <PUBCHEM_CONFORMER_ID>
0001E2FE00000001

> <PUBCHEM_MMFF94_ENERGY>
72.9796

> <PUBCHEM_FEATURE_SELFOVERLAP>
76.298

> <PUBCHEM_SHAPE_FINGERPRINT>
10366900 7 17603585214063576622
11582403 64 16235554309954254893
11640471 11 17774732947980917329
12236239 1 17988927794665634549
12363563 72 17897437298985067130
12500047 106 15502362439765609541
12553582 1 17833555587375292318
12596599 1 17988365840823132654
13032168 30 18057595671453751727
13538477 17 17417816089005813817
13583140 156 18270981102119419265
13764800 53 15195010397176932881
13911987 19 18116158942505159804
13965767 371 17199695990110698593
14787075 74 17342909827854404064
14844126 61 16245734202626857258
15309172 13 18336556000868304604
15375358 24 17603299358309907589
15375462 189 17989196075697932223
15635459 17 17967535644611225859
16752209 62 16773508877015992885
16945 1 18408604747152205838
17138139 8 17697290165123971103
200 152 18341323461848493429
20279233 1 17022619784127788860
204376 136 18263362654532450828
20645477 70 18187076239530893142
22112679 90 17704081693761029721
23526113 38 17604142623514408696
23559900 14 16226038973519175744
23598291 2 17915474799801543183
23598294 1 16702305616002025339
23728640 28 15741612489394275971
238 59 18187632648117130631
4409770 3 15390874520610443353
474 4 17843111769682098232
7097593 13 17270888229790327359
77492 1 17988929980619365325
81228 2 17394720684340802852
9709674 26 16732698359092375969

> <PUBCHEM_SHAPE_MULTIPOLES>
380.23
7.11
2.34
1.89
0.39
1.69
0.97
-0.21
-0.32
-2.5
-0.3
2.35
-0.37
-0.73

> <PUBCHEM_SHAPE_SELFOVERLAP>
802.523

> <PUBCHEM_SHAPE_VOLUME>
210.3

> <PUBCHEM_COORDINATE_TYPE>
2
5
10

$$$$
