123796
  -OEChem-03292013323D

 79 83  0     1  0  0  0  0  0999 V2000
   -2.3528    0.3541   -0.5089 O   0  0  0  0  0  0  0  0  0  0  0  0
    7.9104    2.3705   -1.2198 O   0  0  0  0  0  0  0  0  0  0  0  0
   -4.5580   -0.4061   -0.4602 O   0  0  0  0  0  0  0  0  0  0  0  0
   -3.2393    2.9202    0.2748 O   0  0  0  0  0  0  0  0  0  0  0  0
   -6.0246    3.4300   -0.5347 O   0  0  0  0  0  0  0  0  0  0  0  0
   -7.7236    1.2409    0.3427 O   0  0  0  0  0  0  0  0  0  0  0  0
   -7.9000   -1.4159   -0.0888 O   0  0  0  0  0  0  0  0  0  0  0  0
   -6.1665   -2.1726   -1.3611 O   0  0  0  0  0  0  0  0  0  0  0  0
    3.1249   -1.4067   -0.2591 C   0  0  1  0  0  0  0  0  0  0  0  0
    4.1398   -0.4486   -0.8929 C   0  0  1  0  0  0  0  0  0  0  0  0
    2.1821   -0.5872    0.6806 C   0  0  1  0  0  0  0  0  0  0  0  0
    5.0133    0.2792    0.1516 C   0  0  1  0  0  0  0  0  0  0  0  0
    1.0765   -1.4936    1.3419 C   0  0  2  0  0  0  0  0  0  0  0  0
    0.2938   -2.2603    0.2223 C   0  0  2  0  0  0  0  0  0  0  0  0
    5.9235    1.0855   -0.8068 C   0  0  2  0  0  0  0  0  0  0  0  0
    2.9847    0.2803    1.6880 C   0  0  0  0  0  0  0  0  0  0  0  0
    4.0845    1.1314    1.0267 C   0  0  0  0  0  0  0  0  0  0  0  0
    2.3263   -2.1628   -1.3285 C   0  0  0  0  0  0  0  0  0  0  0  0
    5.1555   -0.9965   -1.8909 C   0  0  0  0  0  0  0  0  0  0  0  0
    1.2311   -3.0337   -0.7202 C   0  0  0  0  0  0  0  0  0  0  0  0
    6.2619    0.0742   -1.9269 C   0  0  0  0  0  0  0  0  0  0  0  0
    0.0577   -0.6698    2.1833 C   0  0  0  0  0  0  0  0  0  0  0  0
   -0.6372   -1.3380   -0.5933 C   0  0  0  0  0  0  0  0  0  0  0  0
    5.8492   -0.6678    1.0490 C   0  0  0  0  0  0  0  0  0  0  0  0
    1.7086   -2.5189    2.3191 C   0  0  0  0  0  0  0  0  0  0  0  0
   -0.8307    0.2497    1.3549 C   0  0  0  0  0  0  0  0  0  0  0  0
    7.1605    1.7268   -0.1945 C   0  0  2  0  0  0  0  0  0  0  0  0
   -1.5870   -0.5389    0.2935 C   0  0  1  0  0  0  0  0  0  0  0  0
    6.7993    2.7443    0.8766 C   0  0  0  0  0  0  0  0  0  0  0  0
   -3.6504    0.5704    0.0444 C   0  0  2  0  0  0  0  0  0  0  0  0
   -4.1047    1.9749   -0.3538 C   0  0  1  0  0  0  0  0  0  0  0  0
   -5.5456    2.2361    0.0860 C   0  0  2  0  0  0  0  0  0  0  0  0
   -5.8683   -0.2551    0.0737 C   0  0  1  0  0  0  0  0  0  0  0  0
   -6.4698    1.0880   -0.3207 C   0  0  1  0  0  0  0  0  0  0  0  0
   -6.6251   -1.3838   -0.5481 C   0  0  0  0  0  0  0  0  0  0  0  0
    3.6669   -2.1565    0.3259 H   0  0  0  0  0  0  0  0  0  0  0  0
    3.5543    0.3075   -1.4430 H   0  0  0  0  0  0  0  0  0  0  0  0
    1.6661    0.1362    0.0342 H   0  0  0  0  0  0  0  0  0  0  0  0
   -0.3554   -3.0035    0.7078 H   0  0  0  0  0  0  0  0  0  0  0  0
    5.3281    1.8812   -1.2810 H   0  0  0  0  0  0  0  0  0  0  0  0
    3.4362   -0.3503    2.4600 H   0  0  0  0  0  0  0  0  0  0  0  0
    2.3089    0.9686    2.2073 H   0  0  0  0  0  0  0  0  0  0  0  0
    3.6067    1.9129    0.4219 H   0  0  0  0  0  0  0  0  0  0  0  0
    4.6195    1.6408    1.8298 H   0  0  0  0  0  0  0  0  0  0  0  0
    2.9981   -2.8052   -1.9105 H   0  0  0  0  0  0  0  0  0  0  0  0
    1.8864   -1.4550   -2.0409 H   0  0  0  0  0  0  0  0  0  0  0  0
    4.7160   -1.1461   -2.8824 H   0  0  0  0  0  0  0  0  0  0  0  0
    5.5648   -1.9579   -1.5611 H   0  0  0  0  0  0  0  0  0  0  0  0
    0.6504   -3.4981   -1.5268 H   0  0  0  0  0  0  0  0  0  0  0  0
    1.6972   -3.8624   -0.1738 H   0  0  0  0  0  0  0  0  0  0  0  0
    7.2391   -0.3987   -1.7756 H   0  0  0  0  0  0  0  0  0  0  0  0
    6.2892    0.5754   -2.9010 H   0  0  0  0  0  0  0  0  0  0  0  0
    0.5669   -0.0848    2.9567 H   0  0  0  0  0  0  0  0  0  0  0  0
   -0.5976   -1.3632    2.7296 H   0  0  0  0  0  0  0  0  0  0  0  0
   -0.0671   -0.6433   -1.2211 H   0  0  0  0  0  0  0  0  0  0  0  0
   -1.2293   -1.9362   -1.2984 H   0  0  0  0  0  0  0  0  0  0  0  0
    5.2315   -1.3853    1.5956 H   0  0  0  0  0  0  0  0  0  0  0  0
    6.5773   -1.2514    0.4769 H   0  0  0  0  0  0  0  0  0  0  0  0
    6.4075   -0.1055    1.8048 H   0  0  0  0  0  0  0  0  0  0  0  0
    0.9477   -3.2069    2.7065 H   0  0  0  0  0  0  0  0  0  0  0  0
    2.4835   -3.1324    1.8536 H   0  0  0  0  0  0  0  0  0  0  0  0
    2.1573   -2.0235    3.1864 H   0  0  0  0  0  0  0  0  0  0  0  0
   -1.5337    0.7658    2.0191 H   0  0  0  0  0  0  0  0  0  0  0  0
   -0.2409    1.0468    0.8870 H   0  0  0  0  0  0  0  0  0  0  0  0
    7.8297    0.9746    0.2351 H   0  0  0  0  0  0  0  0  0  0  0  0
   -2.2532   -1.2641    0.7830 H   0  0  0  0  0  0  0  0  0  0  0  0
    6.5692    2.2712    1.8325 H   0  0  0  0  0  0  0  0  0  0  0  0
    7.6474    3.4162    1.0548 H   0  0  0  0  0  0  0  0  0  0  0  0
    5.9648    3.3826    0.5678 H   0  0  0  0  0  0  0  0  0  0  0  0
    7.3552    3.0729   -1.5997 H   0  0  0  0  0  0  0  0  0  0  0  0
   -3.6133    0.5042    1.1406 H   0  0  0  0  0  0  0  0  0  0  0  0
   -4.0036    2.1163   -1.4370 H   0  0  0  0  0  0  0  0  0  0  0  0
   -5.5870    2.4094    1.1688 H   0  0  0  0  0  0  0  0  0  0  0  0
   -5.8485   -0.4140    1.1590 H   0  0  0  0  0  0  0  0  0  0  0  0
   -6.6615    1.1245   -1.4010 H   0  0  0  0  0  0  0  0  0  0  0  0
   -3.5549    3.8077    0.0332 H   0  0  0  0  0  0  0  0  0  0  0  0
   -6.8892    3.6405   -0.1438 H   0  0  0  0  0  0  0  0  0  0  0  0
   -8.1446    2.0457   -0.0031 H   0  0  0  0  0  0  0  0  0  0  0  0
   -8.4147   -2.1499   -0.4871 H   0  0  0  0  0  0  0  0  0  0  0  0
  1 28  1  0  0  0  0
  1 30  1  0  0  0  0
  2 27  1  0  0  0  0
  2 70  1  0  0  0  0
  3 30  1  0  0  0  0
  3 33  1  0  0  0  0
  4 31  1  0  0  0  0
  4 76  1  0  0  0  0
  5 32  1  0  0  0  0
  5 77  1  0  0  0  0
  6 34  1  0  0  0  0
  6 78  1  0  0  0  0
  7 35  1  0  0  0  0
  7 79  1  0  0  0  0
  8 35  2  0  0  0  0
  9 10  1  0  0  0  0
  9 11  1  0  0  0  0
  9 18  1  0  0  0  0
  9 36  1  0  0  0  0
 10 12  1  0  0  0  0
 10 19  1  0  0  0  0
 10 37  1  0  0  0  0
 11 13  1  0  0  0  0
 11 16  1  0  0  0  0
 11 38  1  0  0  0  0
 12 15  1  0  0  0  0
 12 17  1  0  0  0  0
 12 24  1  0  0  0  0
 13 14  1  0  0  0  0
 13 22  1  0  0  0  0
 13 25  1  0  0  0  0
 14 20  1  0  0  0  0
 14 23  1  0  0  0  0
 14 39  1  0  0  0  0
 15 21  1  0  0  0  0
 15 27  1  0  0  0  0
 15 40  1  0  0  0  0
 16 17  1  0  0  0  0
 16 41  1  0  0  0  0
 16 42  1  0  0  0  0
 17 43  1  0  0  0  0
 17 44  1  0  0  0  0
 18 20  1  0  0  0  0
 18 45  1  0  0  0  0
 18 46  1  0  0  0  0
 19 21  1  0  0  0  0
 19 47  1  0  0  0  0
 19 48  1  0  0  0  0
 20 49  1  0  0  0  0
 20 50  1  0  0  0  0
 21 51  1  0  0  0  0
 21 52  1  0  0  0  0
 22 26  1  0  0  0  0
 22 53  1  0  0  0  0
 22 54  1  0  0  0  0
 23 28  1  0  0  0  0
 23 55  1  0  0  0  0
 23 56  1  0  0  0  0
 24 57  1  0  0  0  0
 24 58  1  0  0  0  0
 24 59  1  0  0  0  0
 25 60  1  0  0  0  0
 25 61  1  0  0  0  0
 25 62  1  0  0  0  0
 26 28  1  0  0  0  0
 26 63  1  0  0  0  0
 26 64  1  0  0  0  0
 27 29  1  0  0  0  0
 27 65  1  0  0  0  0
 28 66  1  0  0  0  0
 29 67  1  0  0  0  0
 29 68  1  0  0  0  0
 29 69  1  0  0  0  0
 30 31  1  0  0  0  0
 30 71  1  0  0  0  0
 31 32  1  0  0  0  0
 31 72  1  0  0  0  0
 32 34  1  0  0  0  0
 32 73  1  0  0  0  0
 33 34  1  0  0  0  0
 33 35  1  0  0  0  0
 33 74  1  0  0  0  0
 34 75  1  0  0  0  0
M  END
> <PUBCHEM_COMPOUND_CID>
123796

> <PUBCHEM_CONFORMER_RMSD>
1

> <PUBCHEM_CONFORMER_DIVERSEORDER>
1
13
7
25
8
5
6
20
24
17
23
11
14
9
4
10
12
3
26
18
22
16
15
2
19
21

> <PUBCHEM_MMFF94_PARTIAL_CHARGES>
21
1 -0.56
2 -0.68
27 0.28
28 0.28
3 -0.56
30 0.56
31 0.28
32 0.28
33 0.34
34 0.28
35 0.66
4 -0.68
5 -0.68
6 -0.68
7 -0.65
70 0.4
76 0.4
77 0.4
78 0.4
79 0.5
8 -0.57

> <PUBCHEM_EFFECTIVE_ROTOR_COUNT>
7.4

> <PUBCHEM_PHARMACOPHORE_FEATURES>
18
1 1 acceptor
1 2 acceptor
1 2 donor
1 3 acceptor
1 4 acceptor
1 4 donor
1 5 acceptor
1 5 donor
1 6 acceptor
1 6 donor
1 7 acceptor
1 8 acceptor
3 7 8 35 anion
5 10 12 15 19 21 rings
6 13 14 22 23 26 28 rings
6 3 30 31 32 33 34 rings
6 9 10 11 12 16 17 rings
6 9 11 13 14 18 20 rings

> <PUBCHEM_HEAVY_ATOM_COUNT>
35

> <PUBCHEM_ATOM_DEF_STEREO_COUNT>
14

> <PUBCHEM_ATOM_UDEF_STEREO_COUNT>
0

> <PUBCHEM_BOND_DEF_STEREO_COUNT>
0

> <PUBCHEM_BOND_UDEF_STEREO_COUNT>
0

> <PUBCHEM_ISOTOPIC_ATOM_COUNT>
0

> <PUBCHEM_COMPONENT_COUNT>
1

> <PUBCHEM_CACTVS_TAUTO_COUNT>
1

> <PUBCHEM_CONFORMER_ID>
0001E39400000001

> <PUBCHEM_MMFF94_ENERGY>
115.5794

> <PUBCHEM_FEATURE_SELFOVERLAP>
91.614

> <PUBCHEM_SHAPE_FINGERPRINT>
10190206 1 17918005970649172160
10462674 296 17408514500426168439
10595046 47 18334572404830415923
10673678 19 18343869905193384718
11115154 58 15195294118142322634
11991303 11 17060330859997134215
12047536 79 13190339084889004566
12422481 6 12757154606010431530
13726171 33 18341336583469669569
13782708 43 10663808668325526769
13811026 1 18413392042950899402
14420673 8 9799692601884990285
14856354 85 18340205293537489687
14931854 50 17489318481875980052
15064986 96 14274272810700954320
15183329 4 15482672372697876989
15301273 46 12973882590336637586
15320295 40 12540691566150147199
15352257 5 16487251110587116407
15357212 105 17984999093897372913
15361156 5 17989201522412549085
1577012 14 18259702276653655360
15961568 22 18261111846508564693
16096371 109 15719391711952993592
16992752 21 18338515357287571159
16994733 274 18334574637765192233
17980427 23 15792306997468888715
18608769 82 18343580772200171159
19304144 158 18271799086508008076
19377110 9 17749667394767587435
19611394 137 18042697272276460211
20105231 36 16702307875587840503
20511986 3 17677327187866164453
20567600 234 15791737398968785863
21033648 29 17894925052934482986
21424621 283 18333732433718144242
21585481 151 9151176458915076828
23559900 14 10879408626593472251
24771293 8 18187085061336236476
2747138 104 18336833099890818483
2838139 119 18408037399584841748
3004659 81 10447635924929849986
3918712 181 18409442574839342021
4073 2 18334861602348703171
4098825 35 18272370849971834102
437795 51 17988921210274976529
44317340 157 17489583467892771892
4461854 278 17987243408168968071
504579 68 18338221710056610543
5265222 85 18272933834765347111
53794403 172 18265614479932063908
5381727 24 18333728044667957762
550186 72 18260825960938434709
5758199 1 18040436598643394899
5776283 40 18199751517578513504
6898599 12 18190736424479831181

> <PUBCHEM_SHAPE_MULTIPOLES>
673.33
22.6
3.17
1.67
16.61
0.93
-0.38
13.78
6.97
0.84
0.19
-2.33
-0.7
-0.27

> <PUBCHEM_SHAPE_SELFOVERLAP>
1425.195

> <PUBCHEM_SHAPE_VOLUME>
372.9

> <PUBCHEM_COORDINATE_TYPE>
2
5
10

$$$$
