123782
  -OEChem-03292013323D

 31 32  0     0  0  0  0  0  0999 V2000
    2.2332    0.3964   -0.0002 N   0  0  0  0  0  0  0  0  0  0  0  0
   -4.9943   -0.2948    0.0001 N   0  0  0  0  0  0  0  0  0  0  0  0
    3.1741   -0.6287    0.0003 N   0  0  0  0  0  0  0  0  0  0  0  0
   -3.4525   -2.0508    0.0021 N   0  0  0  0  0  0  0  0  0  0  0  0
    5.5522   -0.9332    0.0005 N   0  0  0  0  0  0  0  0  0  0  0  0
    4.6605    1.1710   -0.0006 N   0  0  0  0  0  0  0  0  0  0  0  0
   -0.7701   -1.6868   -0.0012 C   0  0  0  0  0  0  0  0  0  0  0  0
   -1.2453   -0.2678   -0.0011 C   0  0  0  0  0  0  0  0  0  0  0  0
    0.7635   -1.5696    0.0005 C   0  0  0  0  0  0  0  0  0  0  0  0
   -0.2030    0.6526   -0.0002 C   0  0  0  0  0  0  0  0  0  0  0  0
    1.0399   -0.0895    0.0001 C   0  0  0  0  0  0  0  0  0  0  0  0
   -2.5567    0.1791   -0.0011 C   0  0  0  0  0  0  0  0  0  0  0  0
   -0.4060    2.0202    0.0007 C   0  0  0  0  0  0  0  0  0  0  0  0
   -2.7940    1.5578    0.0001 C   0  0  0  0  0  0  0  0  0  0  0  0
   -1.7260    2.4712    0.0009 C   0  0  0  0  0  0  0  0  0  0  0  0
   -3.6766   -0.7488   -0.0010 C   0  0  0  0  0  0  0  0  0  0  0  0
    4.4012   -0.1782    0.0000 C   0  0  0  0  0  0  0  0  0  0  0  0
   -1.0919   -2.2236    0.8972 H   0  0  0  0  0  0  0  0  0  0  0  0
   -1.0905   -2.2228   -0.9005 H   0  0  0  0  0  0  0  0  0  0  0  0
    1.1854   -2.0442   -0.8919 H   0  0  0  0  0  0  0  0  0  0  0  0
    1.1835   -2.0431    0.8945 H   0  0  0  0  0  0  0  0  0  0  0  0
    0.4201    2.7218    0.0015 H   0  0  0  0  0  0  0  0  0  0  0  0
   -3.7927    1.9817    0.0005 H   0  0  0  0  0  0  0  0  0  0  0  0
   -1.9315    3.5383    0.0018 H   0  0  0  0  0  0  0  0  0  0  0  0
   -5.7622   -0.9583    0.0019 H   0  0  0  0  0  0  0  0  0  0  0  0
   -5.2555    0.6832   -0.0017 H   0  0  0  0  0  0  0  0  0  0  0  0
   -4.3578   -2.5337    0.0033 H   0  0  0  0  0  0  0  0  0  0  0  0
    5.5137   -1.9467    0.0014 H   0  0  0  0  0  0  0  0  0  0  0  0
    6.4694   -0.5006    0.0011 H   0  0  0  0  0  0  0  0  0  0  0  0
    5.6100    1.5274    0.0001 H   0  0  0  0  0  0  0  0  0  0  0  0
    3.9081    1.8510   -0.0006 H   0  0  0  0  0  0  0  0  0  0  0  0
  1  3  1  0  0  0  0
  1 11  2  3  0  0  0
  2 16  1  0  0  0  0
  2 25  1  0  0  0  0
  2 26  1  0  0  0  0
  3 17  2  0  0  0  0
  4 16  2  0  0  0  0
  4 27  1  0  0  0  0
  5 17  1  0  0  0  0
  5 28  1  0  0  0  0
  5 29  1  0  0  0  0
  6 17  1  0  0  0  0
  6 30  1  0  0  0  0
  6 31  1  0  0  0  0
  7  8  1  0  0  0  0
  7  9  1  0  0  0  0
  7 18  1  0  0  0  0
  7 19  1  0  0  0  0
  8 10  2  0  0  0  0
  8 12  1  0  0  0  0
  9 11  1  0  0  0  0
  9 20  1  0  0  0  0
  9 21  1  0  0  0  0
 10 11  1  0  0  0  0
 10 13  1  0  0  0  0
 12 14  2  0  0  0  0
 12 16  1  0  0  0  0
 13 15  2  0  0  0  0
 13 22  1  0  0  0  0
 14 15  1  0  0  0  0
 14 23  1  0  0  0  0
 15 24  1  0  0  0  0
M  END
> <PUBCHEM_COMPOUND_CID>
123782

> <PUBCHEM_CONFORMER_RMSD>
0.6

> <PUBCHEM_CONFORMER_DIVERSEORDER>
1

> <PUBCHEM_MMFF94_PARTIAL_CHARGES>
27
1 -0.45
10 0.09
11 0.3
12 0.09
13 -0.15
14 -0.15
15 -0.15
16 0.41
17 0.55
2 -0.85
22 0.15
23 0.15
24 0.15
25 0.4
26 0.4
27 0.4
28 0.4
29 0.4
3 -0.45
30 0.4
31 0.4
4 -0.85
5 -0.85
6 -0.85
7 0.14
8 -0.14
9 0.06

> <PUBCHEM_EFFECTIVE_ROTOR_COUNT>
2.4

> <PUBCHEM_PHARMACOPHORE_FEATURES>
9
1 1 acceptor
1 2 donor
1 4 donor
1 5 donor
1 6 donor
3 2 4 16 cation
4 3 5 6 17 cation
5 7 8 9 10 11 rings
6 8 10 12 13 14 15 rings

> <PUBCHEM_HEAVY_ATOM_COUNT>
17

> <PUBCHEM_ATOM_DEF_STEREO_COUNT>
0

> <PUBCHEM_ATOM_UDEF_STEREO_COUNT>
0

> <PUBCHEM_BOND_DEF_STEREO_COUNT>
0

> <PUBCHEM_BOND_UDEF_STEREO_COUNT>
1

> <PUBCHEM_ISOTOPIC_ATOM_COUNT>
0

> <PUBCHEM_COMPONENT_COUNT>
1

> <PUBCHEM_CACTVS_TAUTO_COUNT>
2

> <PUBCHEM_CONFORMER_ID>
0001E38600000001

> <PUBCHEM_MMFF94_ENERGY>
63.6022

> <PUBCHEM_FEATURE_SELFOVERLAP>
45.848

> <PUBCHEM_SHAPE_FINGERPRINT>
10493431 412 18126295142844263697
11132069 177 18411984641601151593
11680986 33 17977383064328824457
12032990 46 18410857706559769851
12107183 9 17613992989964941426
12236239 1 17749108876914330334
12390115 104 18057340412867894512
13140716 1 18194974152344958075
13214271 11 18343017770575215317
13288520 33 18412265021461389678
13862211 1 18411416245872207863
15042514 8 18338801233577527511
15196674 1 18410573981336882528
16945 1 17545883729128545445
17804303 29 18342739653993911097
17862501 102 18261108556742288074
187816 3 17894349986287534507
19141452 34 17917995014166487735
200 152 18259982682378480271
20510252 161 18343022159836788464
20645477 70 17059786520791256998
21029758 11 18341890831318247161
21029758 27 18261398892199775997
21267235 1 18409175415014470019
21501502 16 18193833734947683259
221490 88 17903076977966552051
2297311 6 18343313547998697972
23366157 5 17826239493170896490
23402539 116 18341607135785305559
23557571 272 18201728310065873884
23559900 14 18411979200331476120
2748010 2 18050000292964039077
335352 9 18410855473778013597
34934 24 18410006599277671271
4214541 1 18410573938513524292
43471831 8 18261952934122435514
4463277 17 18410576193471724449
474 4 17168997849650850316
474229 33 18411699889395842414
5104073 3 18412261714653116168
559249 180 18191580857788563010
573450 72 18188761748375924026
59755656 215 18338519633861915518
68521 5 18409449176472594733
8809292 202 18188493587803456347
9709674 26 18339931428804892798

> <PUBCHEM_SHAPE_MULTIPOLES>
319.97
9.16
2.15
0.59
9.57
0.58
0
-1.72
0
-1.41
0
-0.04
0.01
0

> <PUBCHEM_SHAPE_SELFOVERLAP>
690.305

> <PUBCHEM_SHAPE_VOLUME>
172.3

> <PUBCHEM_COORDINATE_TYPE>
2
5
10

$$$$
