123755
  -OEChem-03292013323D

 40 44  0     0  0  0  0  0  0999 V2000
    0.0790   -0.0009    2.0034 O   0  0  0  0  0  0  0  0  0  0  0  0
    2.9182    0.0011   -0.9210 O   0  0  0  0  0  0  0  0  0  0  0  0
   -1.8197   -0.0044    3.3276 O   0  0  0  0  0  0  0  0  0  0  0  0
    3.3548    4.7069   -0.6725 O   0  0  0  0  0  0  0  0  0  0  0  0
    3.3584   -4.7043   -0.6746 O   0  0  0  0  0  0  0  0  0  0  0  0
   -5.8587   -0.0015    0.0612 O   0  0  0  0  0  0  0  0  0  0  0  0
   -5.5218    0.0013   -2.1773 O   0  0  0  0  0  0  0  0  0  0  0  0
    0.4114   -0.0002    0.5787 C   0  0  0  0  0  0  0  0  0  0  0  0
   -0.9463   -0.0003   -0.0465 C   0  0  0  0  0  0  0  0  0  0  0  0
    1.2001    1.2589    0.2777 C   0  0  0  0  0  0  0  0  0  0  0  0
    1.2011   -1.2584    0.2768 C   0  0  0  0  0  0  0  0  0  0  0  0
   -1.9163   -0.0013    0.9397 C   0  0  0  0  0  0  0  0  0  0  0  0
    2.3850    1.1815   -0.4629 C   0  0  0  0  0  0  0  0  0  0  0  0
    2.3863   -1.1798   -0.4633 C   0  0  0  0  0  0  0  0  0  0  0  0
   -1.2713   -0.0014    2.2437 C   0  0  0  0  0  0  0  0  0  0  0  0
   -1.3121    0.0004   -1.3834 C   0  0  0  0  0  0  0  0  0  0  0  0
    0.7579    2.5258    0.6979 C   0  0  0  0  0  0  0  0  0  0  0  0
    0.7596   -2.5259    0.6958 C   0  0  0  0  0  0  0  0  0  0  0  0
   -3.2697   -0.0015    0.6576 C   0  0  0  0  0  0  0  0  0  0  0  0
    3.1045    2.3371   -0.7852 C   0  0  0  0  0  0  0  0  0  0  0  0
    3.1069   -2.3348   -0.7859 C   0  0  0  0  0  0  0  0  0  0  0  0
   -2.6738    0.0002   -1.7001 C   0  0  0  0  0  0  0  0  0  0  0  0
   -3.6459   -0.0008   -0.6858 C   0  0  0  0  0  0  0  0  0  0  0  0
    1.4795    3.6784    0.3821 C   0  0  0  0  0  0  0  0  0  0  0  0
    1.4824   -3.6777    0.3800 C   0  0  0  0  0  0  0  0  0  0  0  0
    2.6519    3.5840   -0.3612 C   0  0  0  0  0  0  0  0  0  0  0  0
    2.6552   -3.5821   -0.3624 C   0  0  0  0  0  0  0  0  0  0  0  0
   -5.0566   -0.0002   -1.0403 C   0  0  0  0  0  0  0  0  0  0  0  0
   -0.5659    0.0011   -2.1708 H   0  0  0  0  0  0  0  0  0  0  0  0
   -0.1593    2.6302    1.2721 H   0  0  0  0  0  0  0  0  0  0  0  0
   -0.1579   -2.6312    1.2695 H   0  0  0  0  0  0  0  0  0  0  0  0
   -3.9830   -0.0021    1.4743 H   0  0  0  0  0  0  0  0  0  0  0  0
    4.0212    2.2562   -1.3649 H   0  0  0  0  0  0  0  0  0  0  0  0
    4.0244   -2.2601   -1.3651 H   0  0  0  0  0  0  0  0  0  0  0  0
   -2.9646    0.0009   -2.7480 H   0  0  0  0  0  0  0  0  0  0  0  0
    1.1176    4.6468    0.7167 H   0  0  0  0  0  0  0  0  0  0  0  0
    1.1152   -4.6434    0.7170 H   0  0  0  0  0  0  0  0  0  0  0  0
    4.1384    4.4551   -1.1907 H   0  0  0  0  0  0  0  0  0  0  0  0
    2.9007   -5.4772   -0.3015 H   0  0  0  0  0  0  0  0  0  0  0  0
   -6.8096   -0.0010   -0.1801 H   0  0  0  0  0  0  0  0  0  0  0  0
  1  8  1  0  0  0  0
  1 15  1  0  0  0  0
  2 13  1  0  0  0  0
  2 14  1  0  0  0  0
  3 15  2  0  0  0  0
  4 26  1  0  0  0  0
  4 38  1  0  0  0  0
  5 27  1  0  0  0  0
  5 39  1  0  0  0  0
  6 28  1  0  0  0  0
  6 40  1  0  0  0  0
  7 28  2  0  0  0  0
  8  9  1  0  0  0  0
  8 10  1  0  0  0  0
  8 11  1  0  0  0  0
  9 12  2  0  0  0  0
  9 16  1  0  0  0  0
 10 13  2  0  0  0  0
 10 17  1  0  0  0  0
 11 14  2  0  0  0  0
 11 18  1  0  0  0  0
 12 15  1  0  0  0  0
 12 19  1  0  0  0  0
 13 20  1  0  0  0  0
 14 21  1  0  0  0  0
 16 22  2  0  0  0  0
 16 29  1  0  0  0  0
 17 24  2  0  0  0  0
 17 30  1  0  0  0  0
 18 25  2  0  0  0  0
 18 31  1  0  0  0  0
 19 23  2  0  0  0  0
 19 32  1  0  0  0  0
 20 26  2  0  0  0  0
 20 33  1  0  0  0  0
 21 27  2  0  0  0  0
 21 34  1  0  0  0  0
 22 23  1  0  0  0  0
 22 35  1  0  0  0  0
 23 28  1  0  0  0  0
 24 26  1  0  0  0  0
 24 36  1  0  0  0  0
 25 27  1  0  0  0  0
 25 37  1  0  0  0  0
M  END
> <PUBCHEM_COMPOUND_CID>
123755

> <PUBCHEM_CONFORMER_RMSD>
0.6

> <PUBCHEM_CONFORMER_DIVERSEORDER>
1

> <PUBCHEM_MMFF94_PARTIAL_CHARGES>
40
1 -0.43
10 -0.14
11 -0.14
12 0.09
13 0.08
14 0.08
15 0.63
16 -0.15
17 -0.15
18 -0.15
19 -0.15
2 -0.17
20 -0.15
21 -0.15
22 -0.15
23 0.09
24 -0.15
25 -0.15
26 0.08
27 0.08
28 0.63
29 0.15
3 -0.57
30 0.15
31 0.15
32 0.15
33 0.15
34 0.15
35 0.15
36 0.15
37 0.15
38 0.45
39 0.45
4 -0.53
40 0.5
5 -0.53
6 -0.65
7 -0.57
8 0.71
9 -0.14

> <PUBCHEM_EFFECTIVE_ROTOR_COUNT>
1.4

> <PUBCHEM_PHARMACOPHORE_FEATURES>
12
1 2 acceptor
1 3 acceptor
1 4 donor
1 5 donor
1 6 acceptor
1 7 acceptor
3 6 7 28 anion
5 1 8 9 12 15 rings
6 10 13 17 20 24 26 rings
6 11 14 18 21 25 27 rings
6 2 8 10 11 13 14 rings
6 9 12 16 19 22 23 rings

> <PUBCHEM_HEAVY_ATOM_COUNT>
28

> <PUBCHEM_ATOM_DEF_STEREO_COUNT>
0

> <PUBCHEM_ATOM_UDEF_STEREO_COUNT>
0

> <PUBCHEM_BOND_DEF_STEREO_COUNT>
0

> <PUBCHEM_BOND_UDEF_STEREO_COUNT>
0

> <PUBCHEM_ISOTOPIC_ATOM_COUNT>
0

> <PUBCHEM_COMPONENT_COUNT>
1

> <PUBCHEM_CACTVS_TAUTO_COUNT>
5

> <PUBCHEM_CONFORMER_ID>
0001E36B00000001

> <PUBCHEM_MMFF94_ENERGY>
87.1537

> <PUBCHEM_FEATURE_SELFOVERLAP>
61.104

> <PUBCHEM_SHAPE_FINGERPRINT>
10165383 225 17397034400323795356
10411042 1 18122627141451148374
105312 117 17831584545605833892
10693767 8 18130794430276821454
10930396 42 17970880364601806090
11045515 52 18048315548449042694
11101153 10 18121226373298337574
11115154 58 18048871897602609461
11578080 2 17606435191537768009
11582403 64 17607223631231469880
11720765 8 18120634860598594253
11725454 13 17605259869141401025
12293681 160 17630052804044502296
12553582 1 18050875242021691066
12730499 353 18263086668481590305
12788726 201 17181093224115492826
13004483 165 17908127790333490702
13009979 54 17488189192538554995
13140716 1 17979951455304465520
133893 2 18270415926591878496
13681431 1 18337383830086983584
13911987 19 18189921780683774086
13955234 65 18410289224936417203
14556957 393 17758708580199250254
15131766 46 14935568474120948566
15219462 58 17831908742742933737
15324884 4 17678761126172883904
15878777 1 16916798361227692115
17539 30 17474102103755951982
17980427 26 17909592524373192745
1813 80 17915180117858900759
18915476 22 18336558221392712299
21304303 282 17120535899086928532
22033318 11 17698472961221843185
22182313 1 17532108222949024875
22907989 373 16896523684919248236
23419403 2 17824576060551901323
23522609 53 17845388760296229681
23559900 14 18409162203974791851
238 59 18336548308260046135
376196 1 17824803762833977885
3886686 26 17767385140371738896
44802255 64 16521647210586276878
46194498 28 18262221262778577847
474 4 18268709574819394140
495365 180 18336258067339987201
57527295 17 17679867003248518035
5969126 39 17906452126608628454
6677587 24 17541886183854412453
70251023 43 18338235951746163851
7471813 234 18269553828003296054
81228 2 17396136842648312352

> <PUBCHEM_SHAPE_MULTIPOLES>
535.14
7.85
4.98
1.82
12.57
0.01
-1.08
-0.01
4.25
-10.17
0.77
1.89
0
0

> <PUBCHEM_SHAPE_SELFOVERLAP>
1233.761

> <PUBCHEM_SHAPE_VOLUME>
273.6

> <PUBCHEM_COORDINATE_TYPE>
2
5
10

$$$$
