123880
  -OEChem-03292013323D

 44 44  0     1  0  0  0  0  0999 V2000
   -0.1830    2.6776   -0.1165 O   0  0  0  0  0  0  0  0  0  0  0  0
    1.6431    2.6905    1.2812 O   0  0  0  0  0  0  0  0  0  0  0  0
   -1.6446   -1.1111    2.2054 O   0  0  0  0  0  0  0  0  0  0  0  0
   -0.9237    0.2749    0.4913 N   0  0  0  0  0  0  0  0  0  0  0  0
    4.2166   -0.7919   -0.2085 N   0  0  0  0  0  0  0  0  0  0  0  0
    5.4950   -2.5506   -1.2298 N   0  0  0  0  0  0  0  0  0  0  0  0
    6.4432   -1.1675    0.3138 N   0  0  0  0  0  0  0  0  0  0  0  0
    1.4559   -0.2847    0.7701 C   0  0  0  0  0  0  0  0  0  0  0  0
    0.3130    0.6801    1.1092 C   0  0  1  0  0  0  0  0  0  0  0  0
    1.8828   -0.2491   -0.7054 C   0  0  0  0  0  0  0  0  0  0  0  0
    3.0475   -1.1915   -0.9936 C   0  0  0  0  0  0  0  0  0  0  0  0
    0.6789    2.1210    0.7801 C   0  0  0  0  0  0  0  0  0  0  0  0
   -1.8121   -0.6002    1.1012 C   0  0  0  0  0  0  0  0  0  0  0  0
   -3.0305   -0.9397    0.3218 C   0  0  0  0  0  0  0  0  0  0  0  0
    0.0885    4.0352   -0.4794 C   0  0  0  0  0  0  0  0  0  0  0  0
   -3.6755   -2.1586    0.5316 C   0  0  0  0  0  0  0  0  0  0  0  0
   -3.5299   -0.0394   -0.6195 C   0  0  0  0  0  0  0  0  0  0  0  0
    5.3016   -1.4795   -0.3860 C   0  0  0  0  0  0  0  0  0  0  0  0
   -0.9541    4.4973   -1.4750 C   0  0  0  0  0  0  0  0  0  0  0  0
   -4.8196   -2.4774   -0.1999 C   0  0  0  0  0  0  0  0  0  0  0  0
   -4.6741   -0.3582   -1.3509 C   0  0  0  0  0  0  0  0  0  0  0  0
   -5.3189   -1.5772   -1.1411 C   0  0  0  0  0  0  0  0  0  0  0  0
    2.3171   -0.0293    1.3999 H   0  0  0  0  0  0  0  0  0  0  0  0
    1.1651   -1.3089    1.0356 H   0  0  0  0  0  0  0  0  0  0  0  0
    0.1507    0.6571    2.1945 H   0  0  0  0  0  0  0  0  0  0  0  0
    2.1759    0.7693   -0.9861 H   0  0  0  0  0  0  0  0  0  0  0  0
    1.0358   -0.5290   -1.3424 H   0  0  0  0  0  0  0  0  0  0  0  0
    2.7517   -2.2183   -0.7463 H   0  0  0  0  0  0  0  0  0  0  0  0
    3.2726   -1.1422   -2.0658 H   0  0  0  0  0  0  0  0  0  0  0  0
   -1.0906    0.6017   -0.4545 H   0  0  0  0  0  0  0  0  0  0  0  0
    0.0516    4.6667    0.4152 H   0  0  0  0  0  0  0  0  0  0  0  0
    1.0851    4.1000   -0.9302 H   0  0  0  0  0  0  0  0  0  0  0  0
   -3.2996   -2.8751    1.2571 H   0  0  0  0  0  0  0  0  0  0  0  0
   -3.0774    0.9327   -0.7915 H   0  0  0  0  0  0  0  0  0  0  0  0
   -0.9414    3.8635   -2.3679 H   0  0  0  0  0  0  0  0  0  0  0  0
   -1.9582    4.4200   -1.0451 H   0  0  0  0  0  0  0  0  0  0  0  0
   -0.7766    5.5339   -1.7748 H   0  0  0  0  0  0  0  0  0  0  0  0
   -5.3215   -3.4268   -0.0372 H   0  0  0  0  0  0  0  0  0  0  0  0
   -5.0676    0.3454   -2.0788 H   0  0  0  0  0  0  0  0  0  0  0  0
   -6.2107   -1.8246   -1.7095 H   0  0  0  0  0  0  0  0  0  0  0  0
    6.3950   -3.0149   -1.2867 H   0  0  0  0  0  0  0  0  0  0  0  0
    4.7553   -2.9156   -1.8191 H   0  0  0  0  0  0  0  0  0  0  0  0
    7.3015   -1.6933    0.1902 H   0  0  0  0  0  0  0  0  0  0  0  0
    6.4577   -0.4002    0.9769 H   0  0  0  0  0  0  0  0  0  0  0  0
  1 12  1  0  0  0  0
  1 15  1  0  0  0  0
  2 12  2  0  0  0  0
  3 13  2  0  0  0  0
  4  9  1  0  0  0  0
  4 13  1  0  0  0  0
  4 30  1  0  0  0  0
  5 11  1  0  0  0  0
  5 18  2  0  0  0  0
  6 18  1  0  0  0  0
  6 41  1  0  0  0  0
  6 42  1  0  0  0  0
  7 18  1  0  0  0  0
  7 43  1  0  0  0  0
  7 44  1  0  0  0  0
  8  9  1  0  0  0  0
  8 10  1  0  0  0  0
  8 23  1  0  0  0  0
  8 24  1  0  0  0  0
  9 12  1  0  0  0  0
  9 25  1  0  0  0  0
 10 11  1  0  0  0  0
 10 26  1  0  0  0  0
 10 27  1  0  0  0  0
 11 28  1  0  0  0  0
 11 29  1  0  0  0  0
 13 14  1  0  0  0  0
 14 16  2  0  0  0  0
 14 17  1  0  0  0  0
 15 19  1  0  0  0  0
 15 31  1  0  0  0  0
 15 32  1  0  0  0  0
 16 20  1  0  0  0  0
 16 33  1  0  0  0  0
 17 21  2  0  0  0  0
 17 34  1  0  0  0  0
 19 35  1  0  0  0  0
 19 36  1  0  0  0  0
 19 37  1  0  0  0  0
 20 22  2  0  0  0  0
 20 38  1  0  0  0  0
 21 22  1  0  0  0  0
 21 39  1  0  0  0  0
 22 40  1  0  0  0  0
M  END
> <PUBCHEM_COMPOUND_CID>
123880

> <PUBCHEM_CONFORMER_RMSD>
1

> <PUBCHEM_CONFORMER_DIVERSEORDER>
1
48
110
25
78
104
37
74
95
96
90
18
77
103
33
86
15
27
11
98
83
12
22
36
109
43
102
23
42
69
56
73
67
21
2
63
81
35
17
31
50
49
58
106
9
38
91
60
46
57
28
65
39
34
3
44
5
52
87
64
99
8
80
71
29
51
88
61
84
47
82
105
41
100
97
55
19
85
14
89
93
13
20
66
32
4
92
59
45
24
76
10
75
94
101
79
68
62
16
72
26
108
40
30
7
53
107
54
70
6

> <PUBCHEM_MMFF94_PARTIAL_CHARGES>
29
1 -0.43
11 0.25
12 0.66
13 0.54
14 0.09
15 0.28
16 -0.15
17 -0.15
18 0.55
2 -0.57
20 -0.15
21 -0.15
22 -0.15
3 -0.57
30 0.37
33 0.15
34 0.15
38 0.15
39 0.15
4 -0.73
40 0.15
41 0.4
42 0.4
43 0.4
44 0.4
5 -0.7
6 -0.85
7 -0.85
9 0.36

> <PUBCHEM_EFFECTIVE_ROTOR_COUNT>
10

> <PUBCHEM_PHARMACOPHORE_FEATURES>
7
1 2 acceptor
1 3 acceptor
1 4 donor
1 6 donor
1 7 donor
4 5 6 7 18 cation
6 14 16 17 20 21 22 rings

> <PUBCHEM_HEAVY_ATOM_COUNT>
22

> <PUBCHEM_ATOM_DEF_STEREO_COUNT>
1

> <PUBCHEM_ATOM_UDEF_STEREO_COUNT>
0

> <PUBCHEM_BOND_DEF_STEREO_COUNT>
0

> <PUBCHEM_BOND_UDEF_STEREO_COUNT>
0

> <PUBCHEM_ISOTOPIC_ATOM_COUNT>
0

> <PUBCHEM_COMPONENT_COUNT>
1

> <PUBCHEM_CACTVS_TAUTO_COUNT>
4

> <PUBCHEM_CONFORMER_ID>
0001E3E800000001

> <PUBCHEM_MMFF94_ENERGY>
47.812

> <PUBCHEM_FEATURE_SELFOVERLAP>
35.577

> <PUBCHEM_SHAPE_FINGERPRINT>
10254770 206 16028452000538624802
11045515 52 18410297990553016685
12788726 201 18042962073525300672
133893 2 17981071878463763809
13899415 180 18338222851684500197
14251757 5 18189893124282108309
14508225 48 18407761426192751332
14556957 393 18043277711431663212
15183329 4 15791726382900404946
15806764 133 17823142401154162161
15878777 1 11565471300403745816
17492 89 18124310769258875935
17539 30 18264772064787760892
1813 80 18059872665640105862
18222031 100 18131348614091045554
19784866 170 9295298239507061363
20671657 53 18341058505215724179
21304303 282 17606678020103427964
21756936 100 7997676568236422278
23402539 116 18342182128769132258
23559900 14 18265606770749837611
23929065 36 18118944942009067392
255183 313 17908722638935413873
2838139 119 14779263107506048238
4280585 95 18410004442702954898
46194498 28 18045493373311170375
5281201 14 18263922323331129479
5283173 99 18188203217664665092
5969126 39 18411695457564333244
9709674 26 17974563899736634467

> <PUBCHEM_SHAPE_MULTIPOLES>
415.22
11.9
4.43
1.46
8.44
7.29
0.22
-14.93
-4.55
0.63
-1.55
-0.43
0.1
1.45

> <PUBCHEM_SHAPE_SELFOVERLAP>
837.359

> <PUBCHEM_SHAPE_VOLUME>
240

> <PUBCHEM_COORDINATE_TYPE>
2
5
10

$$$$
