123891
  -OEChem-03292013323D

 41 43  0     1  0  0  0  0  0999 V2000
   -1.1436    1.7245    0.7364 S   0  0  0  0  0  0  0  0  0  0  0  0
    3.6199    2.4387   -1.4814 S   0  0  0  0  0  0  0  0  0  0  0  0
   -2.5215   -2.6425   -0.0660 O   0  0  0  0  0  0  0  0  0  0  0  0
   -4.3209   -0.6402   -2.1504 O   0  0  0  0  0  0  0  0  0  0  0  0
   -5.7988   -0.8952   -0.4238 O   0  0  0  0  0  0  0  0  0  0  0  0
    1.7013   -1.0442    2.4055 O   0  0  0  0  0  0  0  0  0  0  0  0
    4.2106   -1.7867   -1.0824 O   0  0  0  0  0  0  0  0  0  0  0  0
   -2.7674   -0.3587    0.4673 N   0  0  0  0  0  0  0  0  0  0  0  0
    0.2288   -1.0148    0.5777 N   0  0  0  0  0  0  0  0  0  0  0  0
    3.1468   -2.0457   -0.2069 N   0  0  0  0  0  0  0  0  0  0  0  0
    4.1907    0.8996    0.5155 N   0  0  0  0  0  0  0  0  0  0  0  0
    5.4904    2.8685    0.3592 N   0  0  0  0  0  0  0  0  0  0  0  0
   -1.8678    0.2274    1.4440 C   0  0  1  0  0  0  0  0  0  0  0  0
   -1.0353   -1.0667    1.3114 C   0  0  1  0  0  0  0  0  0  0  0  0
   -2.2259   -1.5961    0.4621 C   0  0  0  0  0  0  0  0  0  0  0  0
   -3.7779    0.3220   -0.1322 C   0  0  0  0  0  0  0  0  0  0  0  0
   -2.7604    2.5478    0.5403 C   0  0  0  0  0  0  0  0  0  0  0  0
   -3.8445    1.6739   -0.0866 C   0  0  0  0  0  0  0  0  0  0  0  0
   -4.9756    2.4961   -0.6564 C   0  0  0  0  0  0  0  0  0  0  0  0
   -4.7598   -0.4702   -0.8876 C   0  0  0  0  0  0  0  0  0  0  0  0
    1.4602   -1.0094    1.2096 C   0  0  0  0  0  0  0  0  0  0  0  0
    2.6166   -0.9495    0.2453 C   0  0  0  0  0  0  0  0  0  0  0  0
    3.1735    0.3324   -0.1985 C   0  0  0  0  0  0  0  0  0  0  0  0
    2.7189    0.9907   -1.3012 C   0  0  0  0  0  0  0  0  0  0  0  0
    4.5130    2.0292   -0.0745 C   0  0  0  0  0  0  0  0  0  0  0  0
    4.7288   -3.0310   -1.5265 C   0  0  0  0  0  0  0  0  0  0  0  0
   -2.3321    0.3576    2.4288 H   0  0  0  0  0  0  0  0  0  0  0  0
   -0.9368   -1.6162    2.2560 H   0  0  0  0  0  0  0  0  0  0  0  0
   -2.5819    3.4251   -0.0906 H   0  0  0  0  0  0  0  0  0  0  0  0
   -3.1004    2.9034    1.5191 H   0  0  0  0  0  0  0  0  0  0  0  0
    0.2197   -0.9755   -0.4391 H   0  0  0  0  0  0  0  0  0  0  0  0
   -5.7889    1.8866   -1.0594 H   0  0  0  0  0  0  0  0  0  0  0  0
   -4.6082    3.1345   -1.4665 H   0  0  0  0  0  0  0  0  0  0  0  0
   -5.4045    3.1349    0.1229 H   0  0  0  0  0  0  0  0  0  0  0  0
   -4.9483   -1.1652   -2.6918 H   0  0  0  0  0  0  0  0  0  0  0  0
    1.9342    0.7189   -1.9932 H   0  0  0  0  0  0  0  0  0  0  0  0
    5.7076    3.7324   -0.1267 H   0  0  0  0  0  0  0  0  0  0  0  0
    6.0419    2.6645    1.1861 H   0  0  0  0  0  0  0  0  0  0  0  0
    5.1015   -3.6129   -0.6779 H   0  0  0  0  0  0  0  0  0  0  0  0
    5.5592   -2.8361   -2.2102 H   0  0  0  0  0  0  0  0  0  0  0  0
    3.9583   -3.5951   -2.0614 H   0  0  0  0  0  0  0  0  0  0  0  0
  1 13  1  0  0  0  0
  1 17  1  0  0  0  0
  2 24  1  0  0  0  0
  2 25  1  0  0  0  0
  3 15  2  0  0  0  0
  4 20  1  0  0  0  0
  4 35  1  0  0  0  0
  5 20  2  0  0  0  0
  6 21  2  0  0  0  0
  7 10  1  0  0  0  0
  7 26  1  0  0  0  0
  8 13  1  0  0  0  0
  8 15  1  0  0  0  0
  8 16  1  0  0  0  0
  9 14  1  0  0  0  0
  9 21  1  0  0  0  0
  9 31  1  0  0  0  0
 10 22  2  3  0  0  0
 11 23  1  0  0  0  0
 11 25  2  0  0  0  0
 12 25  1  0  0  0  0
 12 37  1  0  0  0  0
 12 38  1  0  0  0  0
 13 14  1  0  0  0  0
 13 27  1  0  0  0  0
 14 15  1  0  0  0  0
 14 28  1  0  0  0  0
 16 18  2  0  0  0  0
 16 20  1  0  0  0  0
 17 18  1  0  0  0  0
 17 29  1  0  0  0  0
 17 30  1  0  0  0  0
 18 19  1  0  0  0  0
 19 32  1  0  0  0  0
 19 33  1  0  0  0  0
 19 34  1  0  0  0  0
 21 22  1  0  0  0  0
 22 23  1  0  0  0  0
 23 24  2  0  0  0  0
 24 36  1  0  0  0  0
 26 39  1  0  0  0  0
 26 40  1  0  0  0  0
 26 41  1  0  0  0  0
M  END
> <PUBCHEM_COMPOUND_CID>
123891

> <PUBCHEM_CONFORMER_RMSD>
0.8

> <PUBCHEM_CONFORMER_DIVERSEORDER>
1
50
41
45
47
48
23
49
44
38
52
33
36
46
40
15
21
27
39
42
43
22
32
9
51
18
25
14
17
13
37
3
16
30
34
28
20
19
10
26
24
7
12
5
29
11
4
35
8
31
2
6

> <PUBCHEM_MMFF94_PARTIAL_CHARGES>
31
1 -0.45
10 -0.51
11 -0.57
12 -0.88
13 0.44
14 0.28
15 0.58
16 0.12
17 0.37
18 -0.28
19 0.14
2 -0.08
20 0.71
21 0.63
22 0.54
23 0.14
24 -0.11
25 0.46
26 0.28
3 -0.57
31 0.37
35 0.5
36 0.15
37 0.4
38 0.4
4 -0.65
5 -0.57
6 -0.57
7 -0.22
8 -0.39
9 -0.65

> <PUBCHEM_EFFECTIVE_ROTOR_COUNT>
6.6

> <PUBCHEM_PHARMACOPHORE_FEATURES>
12
1 10 acceptor
1 12 donor
1 3 acceptor
1 4 acceptor
1 5 acceptor
1 6 acceptor
1 9 donor
3 11 12 25 cation
3 4 5 20 anion
4 8 13 14 15 rings
5 2 11 23 24 25 rings
6 1 8 13 16 17 18 rings

> <PUBCHEM_HEAVY_ATOM_COUNT>
26

> <PUBCHEM_ATOM_DEF_STEREO_COUNT>
2

> <PUBCHEM_ATOM_UDEF_STEREO_COUNT>
0

> <PUBCHEM_BOND_DEF_STEREO_COUNT>
0

> <PUBCHEM_BOND_UDEF_STEREO_COUNT>
1

> <PUBCHEM_ISOTOPIC_ATOM_COUNT>
0

> <PUBCHEM_COMPONENT_COUNT>
1

> <PUBCHEM_CACTVS_TAUTO_COUNT>
4

> <PUBCHEM_CONFORMER_ID>
0001E3F300000001

> <PUBCHEM_MMFF94_ENERGY>
70.4867

> <PUBCHEM_FEATURE_SELFOVERLAP>
61.211

> <PUBCHEM_SHAPE_FINGERPRINT>
10498660 4 18338523057214178568
10928967 22 12678919899581644212
11089746 13 18040992904398629322
12363563 72 15913043154128954810
12633257 1 16298942190709401308
14251764 38 18114748247327094980
14739800 52 18263905796023214416
14790565 3 17981612563993272113
15003188 33 18272934881971943350
15238133 3 14924217210173873206
15840311 113 18263372408947038141
16994733 274 16009574774244160381
17959699 21 18333448742211267713
1813 80 13901900103250433073
20511986 3 18116131402663030577
20715895 44 18041549261398338277
21033648 29 15719668754517861469
21095088 737 18410294731053141233
21864079 5 18188771639443273313
22393880 68 18188489051864330589
22749437 52 18187655725261774364
235170 7 17203057343212266052
23559900 14 18129092338478189930
2838139 119 18337387236165380360
312425 83 18342175535814692782
474 4 17603587469222184672
508706 21 17531248322587230061
59755656 215 18408890642441730284
6328613 192 17604722200479015668
633830 44 18262233318535739627
67856867 119 18262225643254998522
9709674 26 18410863152625715480
9981440 41 18114744957587232242

> <PUBCHEM_SHAPE_MULTIPOLES>
488.52
12.65
3.37
1.58
0.48
0.5
0.03
2.96
5.06
-2.77
0.71
-0.27
-0.41
0.38

> <PUBCHEM_SHAPE_SELFOVERLAP>
1015.817

> <PUBCHEM_SHAPE_VOLUME>
281.2

> <PUBCHEM_COORDINATE_TYPE>
2
5
10

$$$$
