123911
  -OEChem-03292013323D

 25 25  0     1  0  0  0  0  0999 V2000
    3.0886   -0.3976   -0.1172 P   0  0  0  0  0  0  0  0  0  0  0  0
   -0.4553    1.6976   -1.1997 O   0  0  0  0  0  0  0  0  0  0  0  0
    4.3036   -0.7384    0.9050 O   0  0  0  0  0  0  0  0  0  0  0  0
    2.9631   -1.7940   -0.9367 O   0  0  0  0  0  0  0  0  0  0  0  0
    0.6567    2.2741    0.6914 O   0  0  0  0  0  0  0  0  0  0  0  0
    3.4174    0.7614   -1.0200 O   0  0  0  0  0  0  0  0  0  0  0  0
    1.7154   -0.2558    0.7920 N   0  0  0  0  0  0  0  0  0  0  0  0
   -3.0697    0.0190    1.0319 N   0  0  0  0  0  0  0  0  0  0  0  0
   -3.8515   -0.6198   -0.9461 N   0  0  0  0  0  0  0  0  0  0  0  0
    0.4231   -0.0849    0.1320 C   0  0  1  0  0  0  0  0  0  0  0  0
   -0.6871   -0.7052    0.9946 C   0  0  0  0  0  0  0  0  0  0  0  0
   -2.0580   -0.5721    0.3723 C   0  0  0  0  0  0  0  0  0  0  0  0
    0.2284    1.4091   -0.0620 C   0  0  0  0  0  0  0  0  0  0  0  0
   -2.5277   -0.9621   -0.8291 C   0  0  0  0  0  0  0  0  0  0  0  0
   -4.1470   -0.0312    0.1916 C   0  0  0  0  0  0  0  0  0  0  0  0
    0.4540   -0.5696   -0.8510 H   0  0  0  0  0  0  0  0  0  0  0  0
   -0.6949   -0.2364    1.9883 H   0  0  0  0  0  0  0  0  0  0  0  0
   -0.4846   -1.7731    1.1495 H   0  0  0  0  0  0  0  0  0  0  0  0
    1.7546    0.3087    1.6401 H   0  0  0  0  0  0  0  0  0  0  0  0
   -3.0517    0.4228    1.9596 H   0  0  0  0  0  0  0  0  0  0  0  0
   -2.0084   -1.4694   -1.6289 H   0  0  0  0  0  0  0  0  0  0  0  0
   -5.1094    0.3763    0.4667 H   0  0  0  0  0  0  0  0  0  0  0  0
    5.2166   -0.7918    0.5504 H   0  0  0  0  0  0  0  0  0  0  0  0
    3.6574   -2.0198   -1.5918 H   0  0  0  0  0  0  0  0  0  0  0  0
   -0.5654    2.6643   -1.3249 H   0  0  0  0  0  0  0  0  0  0  0  0
  1  3  1  0  0  0  0
  1  4  1  0  0  0  0
  1  6  2  0  0  0  0
  1  7  1  0  0  0  0
  2 13  1  0  0  0  0
  2 25  1  0  0  0  0
  3 23  1  0  0  0  0
  4 24  1  0  0  0  0
  5 13  2  0  0  0  0
  7 10  1  0  0  0  0
  7 19  1  0  0  0  0
  8 12  1  0  0  0  0
  8 15  1  0  0  0  0
  8 20  1  0  0  0  0
  9 14  1  0  0  0  0
  9 15  2  0  0  0  0
 10 11  1  0  0  0  0
 10 13  1  0  0  0  0
 10 16  1  0  0  0  0
 11 12  1  0  0  0  0
 11 17  1  0  0  0  0
 11 18  1  0  0  0  0
 12 14  2  0  0  0  0
 14 21  1  0  0  0  0
 15 22  1  0  0  0  0
M  END
> <PUBCHEM_COMPOUND_CID>
123911

> <PUBCHEM_CONFORMER_RMSD>
0.6

> <PUBCHEM_CONFORMER_DIVERSEORDER>
1
5
13
18
17
28
16
24
2
21
20
12
26
8
9
15
22
27
14
29
4
10
19
23
11
3
7
25
6

> <PUBCHEM_MMFF94_PARTIAL_CHARGES>
22
1 1.51
10 0.33
11 0.18
12 -0.33
13 0.66
14 0.08
15 0.04
19 0.36
2 -0.65
20 0.27
21 0.15
22 0.15
23 0.5
24 0.5
25 0.5
3 -0.77
4 -0.77
5 -0.57
6 -0.7
7 -0.9
8 0.03
9 -0.57

> <PUBCHEM_EFFECTIVE_ROTOR_COUNT>
5

> <PUBCHEM_PHARMACOPHORE_FEATURES>
10
1 2 acceptor
1 3 acceptor
1 4 acceptor
1 5 acceptor
1 6 acceptor
1 8 donor
3 2 5 13 anion
3 8 9 15 cation
4 1 3 4 6 anion
5 8 9 12 14 15 rings

> <PUBCHEM_HEAVY_ATOM_COUNT>
15

> <PUBCHEM_ATOM_DEF_STEREO_COUNT>
1

> <PUBCHEM_ATOM_UDEF_STEREO_COUNT>
0

> <PUBCHEM_BOND_DEF_STEREO_COUNT>
0

> <PUBCHEM_BOND_UDEF_STEREO_COUNT>
0

> <PUBCHEM_ISOTOPIC_ATOM_COUNT>
0

> <PUBCHEM_COMPONENT_COUNT>
1

> <PUBCHEM_CACTVS_TAUTO_COUNT>
4

> <PUBCHEM_CONFORMER_ID>
0001E40700000001

> <PUBCHEM_MMFF94_ENERGY>
-21.5115

> <PUBCHEM_FEATURE_SELFOVERLAP>
50.847

> <PUBCHEM_SHAPE_FINGERPRINT>
10130415 120 18260546731885656202
10922049 32 11097858466907046144
14251717 144 18343300383597206294
14993402 34 18272938253468510270
15848700 24 18413101758299802516
16945 1 18342460378114218219
18186145 218 17313111847234397858
200 152 18334010562973230058
201361 129 11458966664328628679
22485316 2 17846777390750136094
23402539 116 18335411345045177546
23557571 272 18270678663317262648
23559900 14 15625956304582439678
57812782 119 15482673480999840907
7364860 26 17985825062830222569
74978 22 18268711786991016411
81228 2 18264500481310507320

> <PUBCHEM_SHAPE_MULTIPOLES>
268.25
7.37
1.58
1.12
0.41
0.74
-0.07
-2.42
-0.51
0.75
-0.21
0
-0.03
-0.15

> <PUBCHEM_SHAPE_SELFOVERLAP>
533.469

> <PUBCHEM_SHAPE_VOLUME>
160.4

> <PUBCHEM_COORDINATE_TYPE>
2
5
10

$$$$
