123992
  -OEChem-03292013323D

 49 51  0     1  0  0  0  0  0999 V2000
    3.5384   -1.3085   -2.5794 S   0  0  0  0  0  0  0  0  0  0  0  0
    0.8982   -1.2464    1.5979 O   0  0  0  0  0  0  0  0  0  0  0  0
   -1.7348   -0.5008   -1.0799 O   0  0  0  0  0  0  0  0  0  0  0  0
   -5.7172   -0.7635   -1.6495 O   0  0  0  0  0  0  0  0  0  0  0  0
    4.2699   -0.8084    1.0608 O   0  0  0  0  0  0  0  0  0  0  0  0
    2.1106   -1.0220   -0.3677 N   0  0  0  0  0  0  0  0  0  0  0  0
   -0.8235    0.5183    0.8060 N   0  0  0  0  0  0  0  0  0  0  0  0
   -4.1678    0.0134   -0.1556 N   0  0  0  0  0  0  0  0  0  0  0  0
   -0.3529    3.6788    0.3536 N   0  0  0  0  0  0  0  0  0  0  0  0
    4.8247   -3.0388    0.9529 N   0  0  0  0  0  0  0  0  0  0  0  0
    0.9347    5.2303   -0.5776 N   0  0  0  0  0  0  0  0  0  0  0  0
   -3.1237   -0.1792    0.8335 C   0  0  1  0  0  0  0  0  0  0  0  0
    0.5074    0.7135    0.3078 C   0  0  2  0  0  0  0  0  0  0  0  0
    2.8546   -2.2669   -0.2034 C   0  0  1  0  0  0  0  0  0  0  0  0
   -3.2253   -1.4897    1.5986 C   0  0  0  0  0  0  0  0  0  0  0  0
   -3.6060   -2.6356    0.6711 C   0  0  0  0  0  0  0  0  0  0  0  0
    1.1826   -0.6073    0.5830 C   0  0  0  0  0  0  0  0  0  0  0  0
    3.2700   -2.7873   -1.5699 C   0  0  0  0  0  0  0  0  0  0  0  0
    2.4540   -0.2730   -1.5715 C   0  0  0  0  0  0  0  0  0  0  0  0
    1.2551    1.8428    1.0049 C   0  0  0  0  0  0  0  0  0  0  0  0
   -1.8405   -0.0759    0.0676 C   0  0  0  0  0  0  0  0  0  0  0  0
   -4.9181   -2.3280   -0.0286 C   0  0  0  0  0  0  0  0  0  0  0  0
   -4.9521   -0.9752   -0.7071 C   0  0  0  0  0  0  0  0  0  0  0  0
    4.0374   -1.9487    0.6668 C   0  0  0  0  0  0  0  0  0  0  0  0
    0.9214    3.1883    0.4059 C   0  0  0  0  0  0  0  0  0  0  0  0
    1.6980    4.1632   -0.1750 C   0  0  0  0  0  0  0  0  0  0  0  0
   -0.2953    4.9066   -0.2451 C   0  0  0  0  0  0  0  0  0  0  0  0
    0.4145    0.9059   -0.7625 H   0  0  0  0  0  0  0  0  0  0  0  0
   -3.1989    0.6646    1.5293 H   0  0  0  0  0  0  0  0  0  0  0  0
    2.2405   -3.0035    0.3285 H   0  0  0  0  0  0  0  0  0  0  0  0
   -2.2844   -1.7209    2.1112 H   0  0  0  0  0  0  0  0  0  0  0  0
   -3.9966   -1.3947    2.3736 H   0  0  0  0  0  0  0  0  0  0  0  0
   -2.8152   -2.8003   -0.0699 H   0  0  0  0  0  0  0  0  0  0  0  0
   -3.7025   -3.5633    1.2461 H   0  0  0  0  0  0  0  0  0  0  0  0
    2.4489   -3.3512   -2.0251 H   0  0  0  0  0  0  0  0  0  0  0  0
    4.1613   -3.4194   -1.5695 H   0  0  0  0  0  0  0  0  0  0  0  0
    2.9507    0.6610   -1.2957 H   0  0  0  0  0  0  0  0  0  0  0  0
    1.5519   -0.0578   -2.1487 H   0  0  0  0  0  0  0  0  0  0  0  0
    1.0317    1.8653    2.0792 H   0  0  0  0  0  0  0  0  0  0  0  0
    2.3391    1.6945    0.9169 H   0  0  0  0  0  0  0  0  0  0  0  0
   -1.0079    0.7683    1.7736 H   0  0  0  0  0  0  0  0  0  0  0  0
   -5.7423   -2.3493    0.6942 H   0  0  0  0  0  0  0  0  0  0  0  0
   -5.1159   -3.0975   -0.7829 H   0  0  0  0  0  0  0  0  0  0  0  0
   -4.2393    0.9369   -0.5729 H   0  0  0  0  0  0  0  0  0  0  0  0
   -1.1873    3.2196    0.6943 H   0  0  0  0  0  0  0  0  0  0  0  0
    2.7680    4.1523   -0.3249 H   0  0  0  0  0  0  0  0  0  0  0  0
    5.6570   -2.9440    1.5253 H   0  0  0  0  0  0  0  0  0  0  0  0
    4.5996   -3.9748    0.6314 H   0  0  0  0  0  0  0  0  0  0  0  0
   -1.1782    5.5081   -0.4075 H   0  0  0  0  0  0  0  0  0  0  0  0
  1 18  1  0  0  0  0
  1 19  1  0  0  0  0
  2 17  2  0  0  0  0
  3 21  2  0  0  0  0
  4 23  2  0  0  0  0
  5 24  2  0  0  0  0
  6 14  1  0  0  0  0
  6 17  1  0  0  0  0
  6 19  1  0  0  0  0
  7 13  1  0  0  0  0
  7 21  1  0  0  0  0
  7 41  1  0  0  0  0
  8 12  1  0  0  0  0
  8 23  1  0  0  0  0
  8 44  1  0  0  0  0
  9 25  1  0  0  0  0
  9 27  1  0  0  0  0
  9 45  1  0  0  0  0
 10 24  1  0  0  0  0
 10 47  1  0  0  0  0
 10 48  1  0  0  0  0
 11 26  1  0  0  0  0
 11 27  2  0  0  0  0
 12 15  1  0  0  0  0
 12 21  1  0  0  0  0
 12 29  1  0  0  0  0
 13 17  1  0  0  0  0
 13 20  1  0  0  0  0
 13 28  1  0  0  0  0
 14 18  1  0  0  0  0
 14 24  1  0  0  0  0
 14 30  1  0  0  0  0
 15 16  1  0  0  0  0
 15 31  1  0  0  0  0
 15 32  1  0  0  0  0
 16 22  1  0  0  0  0
 16 33  1  0  0  0  0
 16 34  1  0  0  0  0
 18 35  1  0  0  0  0
 18 36  1  0  0  0  0
 19 37  1  0  0  0  0
 19 38  1  0  0  0  0
 20 25  1  0  0  0  0
 20 39  1  0  0  0  0
 20 40  1  0  0  0  0
 22 23  1  0  0  0  0
 22 42  1  0  0  0  0
 22 43  1  0  0  0  0
 25 26  2  0  0  0  0
 26 46  1  0  0  0  0
 27 49  1  0  0  0  0
M  END
> <PUBCHEM_COMPOUND_CID>
123992

> <PUBCHEM_CONFORMER_RMSD>
1.4

> <PUBCHEM_CONFORMER_DIVERSEORDER>
1
375
16
309
381
28
303
237
138
324
410
422
290
327
256
487
225
447
182
113
191
55
59
523
284
184
86
48
240
233
187
532
192
520
42
286
90
561
67
358
369
466
177
424
379
54
92
468
214
353
272
252
333
338
7
525
41
371
241
171
195
60
183
83
296
557
126
204
127
105
123
206
4
115
393
5
234
186
45
82
430
11
31
457
107
500
23
463
383
73
51
505
168
325
26
363
50
167
87
551
49
29
151
24
111
405
288
235
414
226
351
53
32
196
202
257
367
158
9
281
61
471
43
429
132
164
77
33
21
104
389
274
145
25
12
47
18
89
181
419
559
15
216
212
8
139
374
14
34
3
97
385
248
72
398
36
84
44
270
95
2
147
384
6

> <PUBCHEM_MMFF94_PARTIAL_CHARGES>
32
1 -0.46
10 -0.8
11 -0.57
12 0.36
13 0.36
14 0.36
17 0.57
18 0.23
19 0.53
2 -0.57
20 0.18
21 0.57
22 0.06
23 0.57
24 0.57
25 -0.33
26 0.08
27 0.04
3 -0.57
4 -0.57
41 0.37
44 0.37
45 0.27
46 0.15
47 0.37
48 0.37
49 0.15
5 -0.57
6 -0.66
7 -0.73
8 -0.73
9 0.03

> <PUBCHEM_EFFECTIVE_ROTOR_COUNT>
10

> <PUBCHEM_PHARMACOPHORE_FEATURES>
12
1 10 donor
1 2 acceptor
1 3 acceptor
1 4 acceptor
1 5 acceptor
1 7 donor
1 8 donor
1 9 donor
3 9 11 27 cation
5 1 6 14 18 19 rings
5 9 11 25 26 27 rings
6 8 12 15 16 22 23 rings

> <PUBCHEM_HEAVY_ATOM_COUNT>
27

> <PUBCHEM_ATOM_DEF_STEREO_COUNT>
0

> <PUBCHEM_ATOM_UDEF_STEREO_COUNT>
3

> <PUBCHEM_BOND_DEF_STEREO_COUNT>
0

> <PUBCHEM_BOND_UDEF_STEREO_COUNT>
0

> <PUBCHEM_ISOTOPIC_ATOM_COUNT>
0

> <PUBCHEM_COMPONENT_COUNT>
1

> <PUBCHEM_CACTVS_TAUTO_COUNT>
16

> <PUBCHEM_CONFORMER_ID>
0001E45800000001

> <PUBCHEM_MMFF94_ENERGY>
57.3712

> <PUBCHEM_FEATURE_SELFOVERLAP>
60.898

> <PUBCHEM_SHAPE_FINGERPRINT>
10815517 723 17984989189992860561
12160290 23 17692840102184271392
12363563 72 18340494386852337491
12553582 1 18267888132354273779
12788726 201 17974030374123635802
12892183 10 14764347094019249147
133893 2 18053972767765721889
13681431 1 18342466975121058056
13899415 180 18340473491957203319
14251757 5 18048616836315812941
17539 30 18051128099193224616
1813 80 18273219676905678255
21304303 282 17325182058335557860
23366157 5 18192440881475132225
23557571 272 18055351328298936442
23559900 14 18336814403723917091
23598288 3 17757579368381595208
255183 313 17693949492369165057
26353 1 18269014027791945900
3057174 1 17692261050192969429
376196 1 17540519645746943753
4017518 198 17697887217998839348
4280585 95 18411133611021848682
4409770 3 17831576479456518521
463206 1 18260830367253140003
633830 44 12613044910807941427
6669772 16 17623589935253160492
7164475 11 18121227480755542110
81228 2 18053959354683115584
9709674 26 18191581063899533659
9981440 41 14131914762312186526

> <PUBCHEM_SHAPE_MULTIPOLES>
506.13
9.66
5.93
1.64
9.51
11.15
0.65
-11.61
1.94
-4.26
0.4
-0.92
-1.06
0.24

> <PUBCHEM_SHAPE_SELFOVERLAP>
1054.839

> <PUBCHEM_SHAPE_VOLUME>
288.6

> <PUBCHEM_COORDINATE_TYPE>
2
5
10

$$$$
