123964288
  -OEChem-03292013293D

 40 42  0     1  0  0  0  0  0999 V2000
    0.6469   -1.2929    1.4799 O   0  0  0  0  0  0  0  0  0  0  0  0
   -2.0387    1.7958    0.4659 O   0  0  0  0  0  0  0  0  0  0  0  0
    2.3491   -2.5827    0.5509 O   0  0  0  0  0  0  0  0  0  0  0  0
    4.2193    0.3516    0.2940 O   0  0  0  0  0  0  0  0  0  0  0  0
    3.8869   -0.5728   -1.7968 O   0  0  0  0  0  0  0  0  0  0  0  0
   -4.2649    1.3836    0.8673 O   0  0  0  0  0  0  0  0  0  0  0  0
   -4.9290   -0.9158   -1.0997 O   0  0  0  0  0  0  0  0  0  0  0  0
    0.2368    1.0553    0.9386 C   0  0  1  0  0  0  0  0  0  0  0  0
    1.5012    1.0574    0.0577 C   0  0  1  0  0  0  0  0  0  0  0  0
   -0.9436    1.0383   -0.0645 C   0  0  2  0  0  0  0  0  0  0  0  0
    2.0503   -0.3437   -0.2516 C   0  0  2  0  0  0  0  0  0  0  0  0
    0.2514   -0.0326    2.0080 C   0  0  0  0  0  0  0  0  0  0  0  0
    0.9963    1.7484   -1.1801 C   0  0  0  0  0  0  0  0  0  0  0  0
   -0.3408    1.7407   -1.2453 C   0  0  0  0  0  0  0  0  0  0  0  0
    1.9779   -1.2683    0.9663 C   0  0  1  0  0  0  0  0  0  0  0  0
   -1.5598   -0.2620   -0.4173 C   0  0  0  0  0  0  0  0  0  0  0  0
   -2.8547   -0.2837   -0.1096 C   0  0  0  0  0  0  0  0  0  0  0  0
    3.4784   -0.2152   -0.7002 C   0  0  0  0  0  0  0  0  0  0  0  0
   -3.1702    1.0306    0.4636 C   0  0  0  0  0  0  0  0  0  0  0  0
   -3.8486   -1.3649   -0.2792 C   0  0  2  0  0  0  0  0  0  0  0  0
   -3.2517   -2.6012   -0.9462 C   0  0  0  0  0  0  0  0  0  0  0  0
    5.6076    0.5342   -0.0015 C   0  0  0  0  0  0  0  0  0  0  0  0
    0.1864    2.0140    1.4802 H   0  0  0  0  0  0  0  0  0  0  0  0
    2.2492    1.6960    0.5426 H   0  0  0  0  0  0  0  0  0  0  0  0
    1.4904   -0.8039   -1.0773 H   0  0  0  0  0  0  0  0  0  0  0  0
    0.9388    0.2395    2.8186 H   0  0  0  0  0  0  0  0  0  0  0  0
   -0.7402   -0.1462    2.4584 H   0  0  0  0  0  0  0  0  0  0  0  0
    1.6401    2.1727   -1.9373 H   0  0  0  0  0  0  0  0  0  0  0  0
   -0.9101    2.1582   -2.0641 H   0  0  0  0  0  0  0  0  0  0  0  0
    2.6691   -0.9650    1.7624 H   0  0  0  0  0  0  0  0  0  0  0  0
   -1.0122   -1.0796   -0.8642 H   0  0  0  0  0  0  0  0  0  0  0  0
   -4.2610   -1.6387    0.6984 H   0  0  0  0  0  0  0  0  0  0  0  0
    2.6643   -3.0530    1.3412 H   0  0  0  0  0  0  0  0  0  0  0  0
   -2.4313   -3.0280   -0.3597 H   0  0  0  0  0  0  0  0  0  0  0  0
   -4.0198   -3.3754   -1.0577 H   0  0  0  0  0  0  0  0  0  0  0  0
   -2.8937   -2.3815   -1.9590 H   0  0  0  0  0  0  0  0  0  0  0  0
   -5.5859   -1.6318   -1.1383 H   0  0  0  0  0  0  0  0  0  0  0  0
    6.0830    0.9929    0.8695 H   0  0  0  0  0  0  0  0  0  0  0  0
    5.7272    1.2024   -0.8597 H   0  0  0  0  0  0  0  0  0  0  0  0
    6.0839   -0.4319   -0.1937 H   0  0  0  0  0  0  0  0  0  0  0  0
  1 12  1  0  0  0  0
  1 15  1  0  0  0  0
  2 10  1  0  0  0  0
  2 19  1  0  0  0  0
  3 15  1  0  0  0  0
  3 33  1  0  0  0  0
  4 18  1  0  0  0  0
  4 22  1  0  0  0  0
  5 18  2  0  0  0  0
  6 19  2  0  0  0  0
  7 20  1  0  0  0  0
  7 37  1  0  0  0  0
  8  9  1  0  0  0  0
  8 10  1  0  0  0  0
  8 12  1  0  0  0  0
  8 23  1  0  0  0  0
  9 11  1  0  0  0  0
  9 13  1  0  0  0  0
  9 24  1  0  0  0  0
 10 14  1  0  0  0  0
 10 16  1  0  0  0  0
 11 15  1  0  0  0  0
 11 18  1  0  0  0  0
 11 25  1  0  0  0  0
 12 26  1  0  0  0  0
 12 27  1  0  0  0  0
 13 14  2  0  0  0  0
 13 28  1  0  0  0  0
 14 29  1  0  0  0  0
 15 30  1  0  0  0  0
 16 17  2  0  0  0  0
 16 31  1  0  0  0  0
 17 19  1  0  0  0  0
 17 20  1  0  0  0  0
 20 21  1  0  0  0  0
 20 32  1  0  0  0  0
 21 34  1  0  0  0  0
 21 35  1  0  0  0  0
 21 36  1  0  0  0  0
 22 38  1  0  0  0  0
 22 39  1  0  0  0  0
 22 40  1  0  0  0  0
M  END
> <PUBCHEM_COMPOUND_CID>
123964288

> <PUBCHEM_CONFORMER_RMSD>
0.6

> <PUBCHEM_CONFORMER_DIVERSEORDER>
1
18
9
11
5
13
4
12
17
7
6
15
8
14
2
16
10
3

> <PUBCHEM_MMFF94_PARTIAL_CHARGES>
25
1 -0.56
10 0.56
11 0.06
12 0.28
13 -0.29
14 -0.29
15 0.56
16 -0.29
17 -0.12
18 0.66
19 0.71
2 -0.43
20 0.42
22 0.28
28 0.15
29 0.15
3 -0.68
31 0.15
33 0.4
37 0.4
4 -0.43
5 -0.57
6 -0.57
7 -0.68
9 0.14

> <PUBCHEM_EFFECTIVE_ROTOR_COUNT>
4

> <PUBCHEM_PHARMACOPHORE_FEATURES>
10
1 1 acceptor
1 3 acceptor
1 3 donor
1 5 acceptor
1 6 acceptor
1 7 acceptor
1 7 donor
5 2 10 16 17 19 rings
5 8 9 10 13 14 rings
6 1 8 9 11 12 15 rings

> <PUBCHEM_HEAVY_ATOM_COUNT>
22

> <PUBCHEM_ATOM_DEF_STEREO_COUNT>
6

> <PUBCHEM_ATOM_UDEF_STEREO_COUNT>
0

> <PUBCHEM_BOND_DEF_STEREO_COUNT>
0

> <PUBCHEM_BOND_UDEF_STEREO_COUNT>
0

> <PUBCHEM_ISOTOPIC_ATOM_COUNT>
0

> <PUBCHEM_COMPONENT_COUNT>
1

> <PUBCHEM_CACTVS_TAUTO_COUNT>
1

> <PUBCHEM_CONFORMER_ID>
07638B8000000001

> <PUBCHEM_MMFF94_ENERGY>
46.0454

> <PUBCHEM_FEATURE_SELFOVERLAP>
50.966

> <PUBCHEM_SHAPE_FINGERPRINT>
10616163 171 18342740732342426071
10863032 1 18129947771509448662
11578080 2 18120061018988567741
11796584 16 18059855095414512919
11806522 49 18338795727460492028
12236239 1 18408608037345386097
12403259 415 13767935628176383028
12403260 363 18040428876988879612
12553582 1 18113903749345088725
13083527 12 17460569478187789314
13140716 1 17678475244997999776
13583140 156 16917344844287373945
13911987 19 16443364082125486694
14576447 43 18335696182564699007
14787075 74 18271243953896413688
16752209 62 18270949203518331647
16945 1 18040722467234746016
17349148 13 17458343014406911450
17492 54 17749394810004050934
17804303 29 18059857264277726521
192875 21 16877662362188073356
19862831 5 18041554840977002639
200 152 17458057162325873492
20681677 155 18343025463046258793
21033648 29 14692280695408666947
21267235 1 18339367465233596479
21634736 98 18263925612695940007
23402539 116 17530681000821025756
23493267 7 17059221323688945472
23557571 272 17988643016547642048
23559900 14 18059282271162570161
2748010 2 17390252625446311776
2871803 45 18334851736053969430
34934 24 18115303371907891189
4325135 7 18343018943549861868
568465 68 15913057546627322741

> <PUBCHEM_SHAPE_MULTIPOLES>
411.66
8.75
2.17
1.41
2.07
0.76
-0.15
1.92
1.9
-1.15
0.21
0.25
0.08
-1.09

> <PUBCHEM_SHAPE_SELFOVERLAP>
889.624

> <PUBCHEM_SHAPE_VOLUME>
226.6

> <PUBCHEM_COORDINATE_TYPE>
2
5
10

$$$$
