1239801
  -OEChem-03292013313D

 35 38  0     0  0  0  0  0  0999 V2000
    0.7103    1.2672    1.4900 S   0  0  0  0  0  0  0  0  0  0  0  0
    4.3832   -0.6780   -1.6556 S   0  0  0  0  0  0  0  0  0  0  0  0
   -3.9226   -4.2392    0.1955 F   0  0  0  0  0  0  0  0  0  0  0  0
    1.9776    0.3492   -1.9844 O   0  0  0  0  0  0  0  0  0  0  0  0
    2.7410    0.2296    0.2558 N   0  0  0  0  0  0  0  0  0  0  0  0
   -3.7589    2.1626    0.2233 N   0  0  0  0  0  0  0  0  0  0  0  0
   -3.3186    3.4248    0.0853 N   0  0  0  0  0  0  0  0  0  0  0  0
    4.9813   -0.6285    0.8589 N   0  0  0  0  0  0  0  0  0  0  0  0
    2.9123    0.3757    2.6514 N   0  0  0  0  0  0  0  0  0  0  0  0
   -1.7140    1.9086   -0.5013 C   0  0  0  0  0  0  0  0  0  0  0  0
   -2.8360    1.2166   -0.1147 C   0  0  0  0  0  0  0  0  0  0  0  0
    0.5797    1.0568   -0.2048 C   0  0  0  0  0  0  0  0  0  0  0  0
   -0.4893    1.3668   -0.9405 C   0  0  0  0  0  0  0  0  0  0  0  0
   -3.1175   -0.1959   -0.0345 C   0  0  0  0  0  0  0  0  0  0  0  0
    1.8278    0.4870   -0.7767 C   0  0  0  0  0  0  0  0  0  0  0  0
   -2.0689    3.2633   -0.3575 C   0  0  0  0  0  0  0  0  0  0  0  0
    2.3078    0.5661    1.5295 C   0  0  0  0  0  0  0  0  0  0  0  0
    4.0352   -0.3381   -0.0087 C   0  0  0  0  0  0  0  0  0  0  0  0
   -2.8517   -0.8940    1.1433 C   0  0  0  0  0  0  0  0  0  0  0  0
   -3.6553   -0.8635   -1.1348 C   0  0  0  0  0  0  0  0  0  0  0  0
   -3.1236   -2.2600    1.2209 C   0  0  0  0  0  0  0  0  0  0  0  0
   -3.9272   -2.2294   -1.0573 C   0  0  0  0  0  0  0  0  0  0  0  0
   -3.6614   -2.9277    0.1206 C   0  0  0  0  0  0  0  0  0  0  0  0
    5.9259   -1.2621   -1.1859 C   0  0  0  0  0  0  0  0  0  0  0  0
    6.0630   -1.1579    0.1824 C   0  0  0  0  0  0  0  0  0  0  0  0
   -0.4375    1.1826   -2.0126 H   0  0  0  0  0  0  0  0  0  0  0  0
   -1.4724    4.1429   -0.5555 H   0  0  0  0  0  0  0  0  0  0  0  0
   -4.7051    2.0209    0.5550 H   0  0  0  0  0  0  0  0  0  0  0  0
   -2.4339   -0.3886    2.0108 H   0  0  0  0  0  0  0  0  0  0  0  0
   -3.8679   -0.3339   -2.0605 H   0  0  0  0  0  0  0  0  0  0  0  0
   -2.9169   -2.8039    2.1379 H   0  0  0  0  0  0  0  0  0  0  0  0
   -4.3458   -2.7497   -1.9137 H   0  0  0  0  0  0  0  0  0  0  0  0
    6.6346   -1.6414   -1.9079 H   0  0  0  0  0  0  0  0  0  0  0  0
    6.9397   -1.4559    0.7414 H   0  0  0  0  0  0  0  0  0  0  0  0
    2.3147    0.7169    3.4123 H   0  0  0  0  0  0  0  0  0  0  0  0
  1 12  1  0  0  0  0
  1 17  1  0  0  0  0
  2 18  1  0  0  0  0
  2 24  1  0  0  0  0
  3 23  1  0  0  0  0
  4 15  2  0  0  0  0
  5 15  1  0  0  0  0
  5 17  1  0  0  0  0
  5 18  1  0  0  0  0
  6  7  1  0  0  0  0
  6 11  1  0  0  0  0
  6 28  1  0  0  0  0
  7 16  2  0  0  0  0
  8 18  2  0  0  0  0
  8 25  1  0  0  0  0
  9 17  2  0  0  0  0
  9 35  1  0  0  0  0
 10 11  2  0  0  0  0
 10 13  1  0  0  0  0
 10 16  1  0  0  0  0
 11 14  1  0  0  0  0
 12 13  2  0  0  0  0
 12 15  1  0  0  0  0
 13 26  1  0  0  0  0
 14 19  2  0  0  0  0
 14 20  1  0  0  0  0
 16 27  1  0  0  0  0
 19 21  1  0  0  0  0
 19 29  1  0  0  0  0
 20 22  2  0  0  0  0
 20 30  1  0  0  0  0
 21 23  2  0  0  0  0
 21 31  1  0  0  0  0
 22 23  1  0  0  0  0
 22 32  1  0  0  0  0
 24 25  2  0  0  0  0
 24 33  1  0  0  0  0
 25 34  1  0  0  0  0
M  END
> <PUBCHEM_COMPOUND_CID>
1239801

> <PUBCHEM_CONFORMER_RMSD>
0.6

> <PUBCHEM_CONFORMER_DIVERSEORDER>
1
11
14
8
16
10
17
22
5
24
21
25
2
20
7
23
18
6
15
9
4
13
3
12
19

> <PUBCHEM_MMFF94_PARTIAL_CHARGES>
35
1 -0.24
10 -0.05
11 -0.2
12 0.12
13 -0.1
14 0.05
15 0.62
16 0.14
17 0.65
18 0.44
19 -0.15
2 -0.08
20 -0.15
21 -0.15
22 -0.15
23 0.19
24 -0.11
25 0.08
26 0.15
27 0.15
28 0.27
29 0.15
3 -0.19
30 0.15
31 0.15
32 0.15
33 0.15
34 0.15
35 0.4
4 -0.57
5 -0.18
6 0.3
7 -0.71
8 -0.57
9 -0.85

> <PUBCHEM_EFFECTIVE_ROTOR_COUNT>
3.4

> <PUBCHEM_PHARMACOPHORE_FEATURES>
8
1 4 acceptor
1 6 donor
1 7 acceptor
1 9 donor
5 1 5 12 15 17 rings
5 2 8 18 24 25 rings
5 6 7 10 11 16 rings
6 14 19 20 21 22 23 rings

> <PUBCHEM_HEAVY_ATOM_COUNT>
25

> <PUBCHEM_ATOM_DEF_STEREO_COUNT>
0

> <PUBCHEM_ATOM_UDEF_STEREO_COUNT>
0

> <PUBCHEM_BOND_DEF_STEREO_COUNT>
1

> <PUBCHEM_BOND_UDEF_STEREO_COUNT>
0

> <PUBCHEM_ISOTOPIC_ATOM_COUNT>
0

> <PUBCHEM_COMPONENT_COUNT>
1

> <PUBCHEM_CACTVS_TAUTO_COUNT>
3

> <PUBCHEM_CONFORMER_ID>
0012EAF900000001

> <PUBCHEM_MMFF94_ENERGY>
62.4244

> <PUBCHEM_FEATURE_SELFOVERLAP>
40.598

> <PUBCHEM_SHAPE_FINGERPRINT>
10366900 7 18057872576490255293
11370993 144 17489596640425580593
11545043 162 18201716237250154968
11796584 16 18268995276777166654
12236239 1 17313675827996320796
12363563 72 18193553591859168639
12549972 3 17632280247034783377
12553582 1 18260831561611711227
12616971 3 16950853492647973308
12633257 1 16271092673194699839
12655364 131 14259954832169524710
13583140 156 17632285753493845804
1361 87 17485674571340071182
14114206 34 17531239591371851747
14251751 18 18412829092786598422
14844126 61 18408608058883467795
14866123 147 18411142438029143363
14950920 106 16056602130907740651
15230672 131 17976826381181938358
15250474 111 18114734937624338978
15484559 13 13561267836369400414
20681677 155 18263927631241307568
20775438 99 16822482576300779403
21065201 7 18341602694852262600
21133410 52 16328765584698260228
23559900 14 18339353153975688061
23728640 28 18335425621759095329
4015057 19 17416945301704283841
4073 2 18341050719051965686
44062 13 18339929220869461950
4921388 177 18410576145641710157
508706 21 18342741788582640839
5364581 5 18270669974572868048
59755656 520 18196648502480721709
602551 16 18410007715663050794
613672 6 18050266353108608179
7495541 125 18201436991757434544
7970288 3 18192716871779515275

> <PUBCHEM_SHAPE_MULTIPOLES>
484.14
12.02
3.56
1.69
14.37
0.83
-0.47
7.83
1.44
-7.32
0.04
1.44
0.07
0.92

> <PUBCHEM_SHAPE_SELFOVERLAP>
1054.07

> <PUBCHEM_SHAPE_VOLUME>
267.4

> <PUBCHEM_COORDINATE_TYPE>
2
5
10

$$$$
