124037380
  -OEChem-03292013293D

 47 49  0     1  0  0  0  0  0999 V2000
    5.0009    0.9196    0.0348 O   0  0  0  0  0  0  0  0  0  0  0  0
   -4.1540   -2.6700    0.8813 O   0  0  0  0  0  0  0  0  0  0  0  0
    2.0327   -2.0340    0.1667 N   0  0  0  0  0  0  0  0  0  0  0  0
    3.3779   -0.5763   -1.9227 N   0  0  0  0  0  0  0  0  0  0  0  0
   -0.0276   -0.9761    0.3325 N   0  0  0  0  0  0  0  0  0  0  0  0
    0.1349   -3.3208   -0.2001 N   0  0  0  0  0  0  0  0  0  0  0  0
   -2.1486    0.0699    0.4932 N   0  0  0  0  0  0  0  0  0  0  0  0
   -4.0721   -2.1763   -1.3565 N   0  0  0  0  0  0  0  0  0  0  0  0
    2.7498   -0.8133    0.4742 C   0  0  2  0  0  0  0  0  0  0  0  0
    2.8250    0.1137   -0.7513 C   0  0  1  0  0  0  0  0  0  0  0  0
    4.1457   -1.1383    1.0105 C   0  0  0  0  0  0  0  0  0  0  0  0
    3.7095    1.3227   -0.4282 C   0  0  0  0  0  0  0  0  0  0  0  0
    4.9364    0.1455    1.2317 C   0  0  0  0  0  0  0  0  0  0  0  0
    0.6533   -2.1139    0.0968 C   0  0  0  0  0  0  0  0  0  0  0  0
   -1.3699   -1.0898    0.2556 C   0  0  0  0  0  0  0  0  0  0  0  0
   -2.0240   -2.2682   -0.0401 C   0  0  0  0  0  0  0  0  0  0  0  0
   -1.2123   -3.3623   -0.2607 C   0  0  0  0  0  0  0  0  0  0  0  0
   -1.9015    1.4361    0.2843 C   0  0  0  0  0  0  0  0  0  0  0  0
   -3.4704   -2.3940   -0.1204 C   0  0  0  0  0  0  0  0  0  0  0  0
   -2.4934    2.3872    1.1156 C   0  0  0  0  0  0  0  0  0  0  0  0
   -1.0645    1.8423   -0.7550 C   0  0  0  0  0  0  0  0  0  0  0  0
   -1.4111    4.1507   -0.1318 C   0  0  0  0  0  0  0  0  0  0  0  0
   -2.2482    3.7444    0.9075 C   0  0  0  0  0  0  0  0  0  0  0  0
   -0.8194    3.1995   -0.9630 C   0  0  0  0  0  0  0  0  0  0  0  0
   -1.1491    5.6018   -0.3549 C   0  0  0  0  0  0  0  0  0  0  0  0
    2.2269   -0.2794    1.2806 H   0  0  0  0  0  0  0  0  0  0  0  0
    1.8253    0.4709   -1.0195 H   0  0  0  0  0  0  0  0  0  0  0  0
    4.6818   -1.7732    0.2934 H   0  0  0  0  0  0  0  0  0  0  0  0
    4.0762   -1.7043    1.9467 H   0  0  0  0  0  0  0  0  0  0  0  0
    3.8534    1.9513   -1.3143 H   0  0  0  0  0  0  0  0  0  0  0  0
    3.2386    1.9531    0.3363 H   0  0  0  0  0  0  0  0  0  0  0  0
    4.4960    0.7511    2.0325 H   0  0  0  0  0  0  0  0  0  0  0  0
    5.9620   -0.0964    1.5280 H   0  0  0  0  0  0  0  0  0  0  0  0
    2.5545   -2.8737   -0.0566 H   0  0  0  0  0  0  0  0  0  0  0  0
    3.3629    0.0490   -2.7274 H   0  0  0  0  0  0  0  0  0  0  0  0
    2.7829   -1.3685   -2.1614 H   0  0  0  0  0  0  0  0  0  0  0  0
   -1.6263   -4.3372   -0.4995 H   0  0  0  0  0  0  0  0  0  0  0  0
   -2.9678   -0.1137    1.0663 H   0  0  0  0  0  0  0  0  0  0  0  0
   -3.1468    2.0840    1.9298 H   0  0  0  0  0  0  0  0  0  0  0  0
   -0.6049    1.1216   -1.4258 H   0  0  0  0  0  0  0  0  0  0  0  0
   -2.7135    4.4758    1.5629 H   0  0  0  0  0  0  0  0  0  0  0  0
   -0.1665    3.5036   -1.7769 H   0  0  0  0  0  0  0  0  0  0  0  0
   -0.2694    5.9165    0.2153 H   0  0  0  0  0  0  0  0  0  0  0  0
   -0.9743    5.8130   -1.4154 H   0  0  0  0  0  0  0  0  0  0  0  0
   -2.0049    6.2105   -0.0441 H   0  0  0  0  0  0  0  0  0  0  0  0
   -3.5335   -1.9419   -2.1844 H   0  0  0  0  0  0  0  0  0  0  0  0
   -5.0783   -2.2451   -1.4664 H   0  0  0  0  0  0  0  0  0  0  0  0
  1 12  1  0  0  0  0
  1 13  1  0  0  0  0
  2 19  2  0  0  0  0
  3  9  1  0  0  0  0
  3 14  1  0  0  0  0
  3 34  1  0  0  0  0
  4 10  1  0  0  0  0
  4 35  1  0  0  0  0
  4 36  1  0  0  0  0
  5 14  1  0  0  0  0
  5 15  2  0  0  0  0
  6 14  2  0  0  0  0
  6 17  1  0  0  0  0
  7 15  1  0  0  0  0
  7 18  1  0  0  0  0
  7 38  1  0  0  0  0
  8 19  1  0  0  0  0
  8 46  1  0  0  0  0
  8 47  1  0  0  0  0
  9 10  1  0  0  0  0
  9 11  1  0  0  0  0
  9 26  1  0  0  0  0
 10 12  1  0  0  0  0
 10 27  1  0  0  0  0
 11 13  1  0  0  0  0
 11 28  1  0  0  0  0
 11 29  1  0  0  0  0
 12 30  1  0  0  0  0
 12 31  1  0  0  0  0
 13 32  1  0  0  0  0
 13 33  1  0  0  0  0
 15 16  1  0  0  0  0
 16 17  2  0  0  0  0
 16 19  1  0  0  0  0
 17 37  1  0  0  0  0
 18 20  2  0  0  0  0
 18 21  1  0  0  0  0
 20 23  1  0  0  0  0
 20 39  1  0  0  0  0
 21 24  2  0  0  0  0
 21 40  1  0  0  0  0
 22 23  2  0  0  0  0
 22 24  1  0  0  0  0
 22 25  1  0  0  0  0
 23 41  1  0  0  0  0
 24 42  1  0  0  0  0
 25 43  1  0  0  0  0
 25 44  1  0  0  0  0
 25 45  1  0  0  0  0
M  END
> <PUBCHEM_COMPOUND_CID>
124037380

> <PUBCHEM_CONFORMER_RMSD>
0.8

> <PUBCHEM_CONFORMER_DIVERSEORDER>
1
135
119
164
24
104
95
66
163
101
53
99
154
114
48
172
118
139
117
115
137
175
44
127
36
97
71
176
98
112
26
146
109
77
160
177
20
165
78
79
153
39
19
152
179
10
13
57
105
88
58
84
11
34
51
162
64
155
87
122
133
93
56
116
15
140
108
45
178
121
33
132
158
82
3
111
68
174
173
42
107
100
166
170
2
69
150
4
123
167
75
91
168
59
126
96
136
70
129
40
103
144
18
151
125
9
113
62
72
89
29
74
61
30
102
5
73
156
41
171
124
120
23
60
106
149
67
21
147
143
76
134
169
14
157
130
65
12
43
6
92
145
54
55
131
46
128
22
8
27
81
83
138
63
25
142
110
32
141
31
50
85
7
80
35
47
52
161
37
94
90
86
16
148
17
28
49
159
38

> <PUBCHEM_MMFF94_PARTIAL_CHARGES>
35
1 -0.56
10 0.27
12 0.28
13 0.28
14 0.72
15 0.41
16 0.09
17 0.16
18 0.1
19 0.54
2 -0.57
20 -0.15
21 -0.15
22 -0.14
23 -0.15
24 -0.15
25 0.14
3 -0.87
34 0.4
35 0.36
36 0.36
37 0.15
38 0.4
39 0.15
4 -0.99
40 0.15
41 0.15
42 0.15
46 0.37
47 0.37
5 -0.62
6 -0.62
7 -0.6
8 -0.8
9 0.37

> <PUBCHEM_EFFECTIVE_ROTOR_COUNT>
6.2

> <PUBCHEM_PHARMACOPHORE_FEATURES>
11
1 1 acceptor
1 2 acceptor
1 3 donor
1 4 cation
1 4 donor
1 7 donor
1 8 donor
4 3 5 6 14 cation
6 1 9 10 11 12 13 rings
6 18 20 21 22 23 24 rings
6 5 6 14 15 16 17 rings

> <PUBCHEM_HEAVY_ATOM_COUNT>
25

> <PUBCHEM_ATOM_DEF_STEREO_COUNT>
2

> <PUBCHEM_ATOM_UDEF_STEREO_COUNT>
0

> <PUBCHEM_BOND_DEF_STEREO_COUNT>
0

> <PUBCHEM_BOND_UDEF_STEREO_COUNT>
0

> <PUBCHEM_ISOTOPIC_ATOM_COUNT>
0

> <PUBCHEM_COMPONENT_COUNT>
1

> <PUBCHEM_CACTVS_TAUTO_COUNT>
69

> <PUBCHEM_CONFORMER_ID>
0764A90400000001

> <PUBCHEM_MMFF94_ENERGY>
86.7511

> <PUBCHEM_FEATURE_SELFOVERLAP>
55.824

> <PUBCHEM_SHAPE_FINGERPRINT>
10165383 225 17838367110371554008
10498660 4 18409731772214061262
10670039 82 18336274513676547100
10871710 139 18338252547099024997
1100329 8 17905615758504023371
11370993 70 17977940190380977984
12107183 9 17830721072943877610
12173636 292 18194682557919363413
12553582 1 18194418902645516510
12788726 201 18337118976596791732
13004483 165 18338226188768574458
13140716 1 18408605885392619593
138480 1 16177067493837098864
13965767 371 17682955493024974624
14178342 30 18336824191743329378
14955137 171 18049744085032888187
151778 21 17618239311971333632
15420108 30 17544732566061187522
15961568 22 18052254291975767776
20600515 1 18127420161712786163
21133410 90 18192406757891804093
22113638 7 17980479280271957454
23366157 5 17253142546078160807
23557571 272 18342744061078827622
23558518 356 18190743037795796699
23559900 14 16612812314685924469
350125 39 18195536886928080803
469060 322 18339096985077830355
474 4 17258767123569478753
532947 4 17547566441169605873
6287921 2 17617111208872660861
653340 110 18411973642496160784
7164475 11 18410290302957741438
7808743 9 18338245869111026092

> <PUBCHEM_SHAPE_MULTIPOLES>
472.86
7.97
6.52
1.13
9.49
4.06
-0.16
1.17
1.22
-8.74
-0.62
0.34
0.19
-0.48

> <PUBCHEM_SHAPE_SELFOVERLAP>
1007.044

> <PUBCHEM_SHAPE_VOLUME>
259.4

> <PUBCHEM_COORDINATE_TYPE>
2
5
10

$$$$
