124041
  -OEChem-03292013323D

 61 65  0     1  0  0  0  0  0999 V2000
   -1.5490    0.3631   -1.5243 O   0  0  0  0  0  0  0  0  0  0  0  0
   -3.0826    1.3562    0.2531 O   0  0  0  0  0  0  0  0  0  0  0  0
    0.7731    2.5166    1.9227 O   0  0  0  0  0  0  0  0  0  0  0  0
    0.2493    4.6688   -0.8974 O   0  0  0  0  0  0  0  0  0  0  0  0
   -2.7531   -0.7284    0.1585 O   0  0  0  0  0  0  0  0  0  0  0  0
   -0.6225    2.6776   -2.3586 O   0  0  0  0  0  0  0  0  0  0  0  0
    1.3752    0.5273   -2.4079 O   0  0  0  0  0  0  0  0  0  0  0  0
   -4.5480   -3.9416    0.2142 O   0  0  0  0  0  0  0  0  0  0  0  0
    1.7933   -1.9989    2.2512 O   0  0  0  0  0  0  0  0  0  0  0  0
    4.2198   -2.6407    1.7917 O   0  0  0  0  0  0  0  0  0  0  0  0
   -0.7781    1.0777   -0.5519 C   0  0  2  0  0  0  0  0  0  0  0  0
   -1.7064    1.4095    0.6699 C   0  0  1  0  0  0  0  0  0  0  0  0
   -1.5096    2.8454    1.2336 C   0  0  0  0  0  0  0  0  0  0  0  0
   -0.0691    3.3794    1.1530 C   0  0  2  0  0  0  0  0  0  0  0  0
    0.4244    3.3864   -0.3079 C   0  0  1  0  0  0  0  0  0  0  0  0
   -0.3583    2.4110   -1.1842 C   0  0  0  0  0  0  0  0  0  0  0  0
    0.4416    0.2094   -0.2368 C   0  0  0  0  0  0  0  0  0  0  0  0
   -1.5671    0.4071    1.7895 C   0  0  0  0  0  0  0  0  0  0  0  0
    0.5395   -0.4767    0.9185 C   0  0  0  0  0  0  0  0  0  0  0  0
    0.0053    4.7618    1.8155 C   0  0  0  0  0  0  0  0  0  0  0  0
   -1.9660   -0.9035   -1.0198 C   0  0  1  0  0  0  0  0  0  0  0  0
   -0.5420   -0.4469    1.8845 C   0  0  0  0  0  0  0  0  0  0  0  0
    1.5129    0.0814   -1.2742 C   0  0  0  0  0  0  0  0  0  0  0  0
   -2.7764   -1.5932   -2.1137 C   0  0  0  0  0  0  0  0  0  0  0  0
   -3.3554   -2.9102   -1.6204 C   0  0  0  0  0  0  0  0  0  0  0  0
   -3.2679   -1.9412    0.7195 C   0  0  1  0  0  0  0  0  0  0  0  0
   -4.1141   -2.6960   -0.3134 C   0  0  2  0  0  0  0  0  0  0  0  0
    1.7328   -1.3155    1.2347 C   0  0  0  0  0  0  0  0  0  0  0  0
    2.7583   -0.6160   -0.9153 C   0  0  0  0  0  0  0  0  0  0  0  0
    2.8642   -1.2928    0.2951 C   0  0  0  0  0  0  0  0  0  0  0  0
   -2.1556   -2.7730    1.3605 C   0  0  0  0  0  0  0  0  0  0  0  0
    3.8381   -0.6088   -1.8077 C   0  0  0  0  0  0  0  0  0  0  0  0
    4.0496   -1.9650    0.6194 C   0  0  0  0  0  0  0  0  0  0  0  0
    5.0189   -1.2765   -1.4819 C   0  0  0  0  0  0  0  0  0  0  0  0
    5.1245   -1.9538   -0.2696 C   0  0  0  0  0  0  0  0  0  0  0  0
   -2.1713    3.5411    0.6968 H   0  0  0  0  0  0  0  0  0  0  0  0
   -1.8597    2.8755    2.2756 H   0  0  0  0  0  0  0  0  0  0  0  0
    1.4863    3.1269   -0.3720 H   0  0  0  0  0  0  0  0  0  0  0  0
   -2.3029    0.4287    2.5911 H   0  0  0  0  0  0  0  0  0  0  0  0
    1.0249    5.1604    1.7619 H   0  0  0  0  0  0  0  0  0  0  0  0
   -0.6781    5.4825    1.3554 H   0  0  0  0  0  0  0  0  0  0  0  0
   -0.2431    4.6983    2.8816 H   0  0  0  0  0  0  0  0  0  0  0  0
   -1.1027   -1.5485   -0.8420 H   0  0  0  0  0  0  0  0  0  0  0  0
   -0.4529   -1.0622    2.7736 H   0  0  0  0  0  0  0  0  0  0  0  0
   -3.1707    1.9001   -0.5483 H   0  0  0  0  0  0  0  0  0  0  0  0
   -2.1585   -1.7517   -3.0051 H   0  0  0  0  0  0  0  0  0  0  0  0
   -3.5984   -0.9349   -2.4242 H   0  0  0  0  0  0  0  0  0  0  0  0
    0.4305    2.4890    2.8324 H   0  0  0  0  0  0  0  0  0  0  0  0
   -4.0205   -3.3427   -2.3770 H   0  0  0  0  0  0  0  0  0  0  0  0
   -2.5536   -3.6445   -1.4723 H   0  0  0  0  0  0  0  0  0  0  0  0
   -3.9440   -1.6505    1.5338 H   0  0  0  0  0  0  0  0  0  0  0  0
   -5.0070   -2.0959   -0.5306 H   0  0  0  0  0  0  0  0  0  0  0  0
   -0.6966    4.8920   -0.8599 H   0  0  0  0  0  0  0  0  0  0  0  0
   -2.4725   -3.8155    1.4796 H   0  0  0  0  0  0  0  0  0  0  0  0
   -1.2207   -2.8020    0.8013 H   0  0  0  0  0  0  0  0  0  0  0  0
   -1.9725   -2.4445    2.3851 H   0  0  0  0  0  0  0  0  0  0  0  0
    3.7808   -0.0878   -2.7597 H   0  0  0  0  0  0  0  0  0  0  0  0
   -5.0837   -4.3797   -0.4688 H   0  0  0  0  0  0  0  0  0  0  0  0
    5.8557   -1.2682   -2.1742 H   0  0  0  0  0  0  0  0  0  0  0  0
    6.0483   -2.4708   -0.0234 H   0  0  0  0  0  0  0  0  0  0  0  0
    3.4687   -2.4909    2.3853 H   0  0  0  0  0  0  0  0  0  0  0  0
  1 11  1  0  0  0  0
  1 21  1  0  0  0  0
  2 12  1  0  0  0  0
  2 45  1  0  0  0  0
  3 14  1  0  0  0  0
  3 48  1  0  0  0  0
  4 15  1  0  0  0  0
  4 53  1  0  0  0  0
  5 21  1  0  0  0  0
  5 26  1  0  0  0  0
  6 16  2  0  0  0  0
  7 23  2  0  0  0  0
  8 27  1  0  0  0  0
  8 58  1  0  0  0  0
  9 28  2  0  0  0  0
 10 33  1  0  0  0  0
 10 61  1  0  0  0  0
 11 12  1  0  0  0  0
 11 16  1  0  0  0  0
 11 17  1  0  0  0  0
 12 13  1  0  0  0  0
 12 18  1  0  0  0  0
 13 14  1  0  0  0  0
 13 36  1  0  0  0  0
 13 37  1  0  0  0  0
 14 15  1  0  0  0  0
 14 20  1  0  0  0  0
 15 16  1  0  0  0  0
 15 38  1  0  0  0  0
 17 19  2  0  0  0  0
 17 23  1  0  0  0  0
 18 22  2  0  0  0  0
 18 39  1  0  0  0  0
 19 22  1  0  0  0  0
 19 28  1  0  0  0  0
 20 40  1  0  0  0  0
 20 41  1  0  0  0  0
 20 42  1  0  0  0  0
 21 24  1  0  0  0  0
 21 43  1  0  0  0  0
 22 44  1  0  0  0  0
 23 29  1  0  0  0  0
 24 25  1  0  0  0  0
 24 46  1  0  0  0  0
 24 47  1  0  0  0  0
 25 27  1  0  0  0  0
 25 49  1  0  0  0  0
 25 50  1  0  0  0  0
 26 27  1  0  0  0  0
 26 31  1  0  0  0  0
 26 51  1  0  0  0  0
 27 52  1  0  0  0  0
 28 30  1  0  0  0  0
 29 30  2  0  0  0  0
 29 32  1  0  0  0  0
 30 33  1  0  0  0  0
 31 54  1  0  0  0  0
 31 55  1  0  0  0  0
 31 56  1  0  0  0  0
 32 34  2  0  0  0  0
 32 57  1  0  0  0  0
 33 35  2  0  0  0  0
 34 35  1  0  0  0  0
 34 59  1  0  0  0  0
 35 60  1  0  0  0  0
M  END
> <PUBCHEM_COMPOUND_CID>
124041

> <PUBCHEM_CONFORMER_RMSD>
0.8

> <PUBCHEM_CONFORMER_DIVERSEORDER>
1

> <PUBCHEM_MMFF94_PARTIAL_CHARGES>
40
1 -0.56
10 -0.53
11 0.48
12 0.42
14 0.28
15 0.34
16 0.45
17 -0.12
18 -0.29
19 0.01
2 -0.68
21 0.56
22 -0.15
23 0.47
26 0.28
27 0.28
28 0.47
29 0.09
3 -0.68
30 0.09
32 -0.15
33 0.08
34 -0.15
35 -0.15
39 0.15
4 -0.68
44 0.15
45 0.4
48 0.4
5 -0.56
53 0.4
57 0.15
58 0.4
59 0.15
6 -0.57
60 0.15
61 0.45
7 -0.57
8 -0.68
9 -0.57

> <PUBCHEM_EFFECTIVE_ROTOR_COUNT>
3.8

> <PUBCHEM_PHARMACOPHORE_FEATURES>
19
1 1 acceptor
1 10 donor
1 2 acceptor
1 2 donor
1 3 acceptor
1 3 donor
1 4 acceptor
1 4 donor
1 5 acceptor
1 6 acceptor
1 7 acceptor
1 8 acceptor
1 8 donor
1 9 acceptor
6 11 12 13 14 15 16 rings
6 11 12 17 18 19 22 rings
6 17 19 23 28 29 30 rings
6 29 30 32 33 34 35 rings
6 5 21 24 25 26 27 rings

> <PUBCHEM_HEAVY_ATOM_COUNT>
35

> <PUBCHEM_ATOM_DEF_STEREO_COUNT>
7

> <PUBCHEM_ATOM_UDEF_STEREO_COUNT>
0

> <PUBCHEM_BOND_DEF_STEREO_COUNT>
0

> <PUBCHEM_BOND_UDEF_STEREO_COUNT>
0

> <PUBCHEM_ISOTOPIC_ATOM_COUNT>
0

> <PUBCHEM_COMPONENT_COUNT>
1

> <PUBCHEM_CACTVS_TAUTO_COUNT>
15

> <PUBCHEM_CONFORMER_ID>
0001E48900000001

> <PUBCHEM_MMFF94_ENERGY>
152.4543

> <PUBCHEM_FEATURE_SELFOVERLAP>
96.774

> <PUBCHEM_SHAPE_FINGERPRINT>
10764073 3 15296813177975941033
11552529 35 18267306422405566534
11578080 2 18116407363023339101
11763715 3 18339662091484278140
12156800 1 14425376464095598730
12160290 23 18054213337463134613
12173636 292 17479732724113345848
12539773 59 17972613090734966152
12788726 201 18193270802179321379
13140716 1 18342459218494341952
13224815 77 17968381139732045386
133893 2 17839721996649563687
13583140 156 17272555146075543266
13681431 1 18195232537086907205
13911987 19 17026590245797189502
14787075 74 18193004939888961700
14910302 57 17915183403957365894
17349148 13 17313101926519580554
17980427 26 17472744606311900113
1813 80 18129948991133013591
19315092 285 17533184593514231770
20567600 347 17115781670895756015
20600515 1 17988938729689455689
21120745 212 18341627996515425476
21421861 104 17912649300322060627
22956985 138 17830995185840136426
23419403 2 17323180173830764360
23559900 14 18044369672538742863
25222932 49 16334983284399861743
3178227 256 18265916683253999345
35225 105 17983854475931268163
376196 1 15510240153317451068
4017518 198 16895931572154353914
463206 1 18189058744880262914
5081480 168 18190440827381080559
5265222 85 16899942620826565886
57527293 21 17632567263068249706
57527295 17 17907040691561613751
57527358 35 15118781406405912704
57527573 199 14905405571108180995
6669772 16 17334497602093662840
6786 2 16898208136711349372
70251023 43 18196656413662690327

> <PUBCHEM_SHAPE_MULTIPOLES>
661.59
7.25
5.37
2.31
5.98
5.49
-0.21
-10.49
-1.14
-3.21
1.11
0.37
0.1
-1.02

> <PUBCHEM_SHAPE_SELFOVERLAP>
1486.597

> <PUBCHEM_SHAPE_VOLUME>
340.1

> <PUBCHEM_COORDINATE_TYPE>
2
5
10

$$$$
