124088
  -OEChem-03292013323D

 30 32  0     1  0  0  0  0  0999 V2000
   -2.1746   -0.8223   -0.8841 O   0  0  0  0  0  0  0  0  0  0  0  0
   -3.3302   -0.2739    1.0688 O   0  0  0  0  0  0  0  0  0  0  0  0
   -5.4149    0.8016   -0.4862 O   0  0  0  0  0  0  0  0  0  0  0  0
   -0.2469   -0.0273    0.1983 N   0  0  0  0  0  0  0  0  0  0  0  0
    0.7201    1.9887    0.2447 N   0  0  0  0  0  0  0  0  0  0  0  0
    1.7254   -1.4181   -0.0899 N   0  0  0  0  0  0  0  0  0  0  0  0
    3.7593   -0.0733   -0.1931 N   0  0  0  0  0  0  0  0  0  0  0  0
    3.7317    2.3135   -0.0228 N   0  0  0  0  0  0  0  0  0  0  0  0
    3.8280   -2.4088   -0.3607 N   0  0  0  0  0  0  0  0  0  0  0  0
   -1.3013   -1.0398    0.2289 C   0  0  1  0  0  0  0  0  0  0  0  0
   -2.1831   -1.0250    1.4643 C   0  0  0  0  0  0  0  0  0  0  0  0
   -3.4646   -0.5644   -0.3236 C   0  0  1  0  0  0  0  0  0  0  0  0
    1.0990   -0.2405    0.0531 C   0  0  0  0  0  0  0  0  0  0  0  0
   -0.4191    1.3316    0.3088 C   0  0  0  0  0  0  0  0  0  0  0  0
   -4.1257    0.5941   -1.0406 C   0  0  0  0  0  0  0  0  0  0  0  0
    1.6773    1.0184    0.0849 C   0  0  0  0  0  0  0  0  0  0  0  0
    3.0612    1.0783   -0.0446 C   0  0  0  0  0  0  0  0  0  0  0  0
    3.0585   -1.2328   -0.2062 C   0  0  0  0  0  0  0  0  0  0  0  0
   -0.8141   -2.0139    0.1151 H   0  0  0  0  0  0  0  0  0  0  0  0
   -2.5197   -2.0374    1.7149 H   0  0  0  0  0  0  0  0  0  0  0  0
   -1.7179   -0.5814    2.3491 H   0  0  0  0  0  0  0  0  0  0  0  0
   -4.0757   -1.4705   -0.4195 H   0  0  0  0  0  0  0  0  0  0  0  0
   -1.3930    1.7835    0.4361 H   0  0  0  0  0  0  0  0  0  0  0  0
   -4.2165    0.3915   -2.1124 H   0  0  0  0  0  0  0  0  0  0  0  0
   -3.5447    1.5134   -0.9136 H   0  0  0  0  0  0  0  0  0  0  0  0
   -5.8142    1.5490   -0.9632 H   0  0  0  0  0  0  0  0  0  0  0  0
    3.2132    3.1743    0.0885 H   0  0  0  0  0  0  0  0  0  0  0  0
    4.7379    2.3307   -0.1182 H   0  0  0  0  0  0  0  0  0  0  0  0
    4.8319   -2.3368   -0.4522 H   0  0  0  0  0  0  0  0  0  0  0  0
    3.3644   -3.3066   -0.3778 H   0  0  0  0  0  0  0  0  0  0  0  0
  1 10  1  0  0  0  0
  1 12  1  0  0  0  0
  2 11  1  0  0  0  0
  2 12  1  0  0  0  0
  3 15  1  0  0  0  0
  3 26  1  0  0  0  0
  4 10  1  0  0  0  0
  4 13  1  0  0  0  0
  4 14  1  0  0  0  0
  5 14  2  0  0  0  0
  5 16  1  0  0  0  0
  6 13  2  0  0  0  0
  6 18  1  0  0  0  0
  7 17  1  0  0  0  0
  7 18  2  0  0  0  0
  8 17  1  0  0  0  0
  8 27  1  0  0  0  0
  8 28  1  0  0  0  0
  9 18  1  0  0  0  0
  9 29  1  0  0  0  0
  9 30  1  0  0  0  0
 10 11  1  0  0  0  0
 10 19  1  0  0  0  0
 11 20  1  0  0  0  0
 11 21  1  0  0  0  0
 12 15  1  0  0  0  0
 12 22  1  0  0  0  0
 13 16  1  0  0  0  0
 14 23  1  0  0  0  0
 15 24  1  0  0  0  0
 15 25  1  0  0  0  0
 16 17  2  0  0  0  0
M  END
> <PUBCHEM_COMPOUND_CID>
124088

> <PUBCHEM_CONFORMER_RMSD>
0.6

> <PUBCHEM_CONFORMER_DIVERSEORDER>
1
8
10
6
3
5
2
13
7
4
14
9
11
12

> <PUBCHEM_MMFF94_PARTIAL_CHARGES>
24
1 -0.56
10 0.54
11 0.28
12 0.56
13 0.11
14 0.04
15 0.28
16 0.23
17 0.41
18 0.72
2 -0.56
23 0.15
26 0.4
27 0.4
28 0.4
29 0.4
3 -0.68
30 0.4
4 0.05
5 -0.57
6 -0.57
7 -0.62
8 -0.9
9 -0.9

> <PUBCHEM_EFFECTIVE_ROTOR_COUNT>
3

> <PUBCHEM_PHARMACOPHORE_FEATURES>
12
1 1 acceptor
1 2 acceptor
1 3 acceptor
1 3 donor
1 8 cation
1 8 donor
1 9 donor
3 4 5 14 cation
4 6 7 9 18 cation
5 1 2 10 11 12 rings
5 4 5 13 14 16 rings
6 6 7 13 16 17 18 rings

> <PUBCHEM_HEAVY_ATOM_COUNT>
18

> <PUBCHEM_ATOM_DEF_STEREO_COUNT>
2

> <PUBCHEM_ATOM_UDEF_STEREO_COUNT>
0

> <PUBCHEM_BOND_DEF_STEREO_COUNT>
0

> <PUBCHEM_BOND_UDEF_STEREO_COUNT>
0

> <PUBCHEM_ISOTOPIC_ATOM_COUNT>
0

> <PUBCHEM_COMPONENT_COUNT>
1

> <PUBCHEM_CACTVS_TAUTO_COUNT>
9

> <PUBCHEM_CONFORMER_ID>
0001E4B800000001

> <PUBCHEM_MMFF94_ENERGY>
43.2248

> <PUBCHEM_FEATURE_SELFOVERLAP>
61.076

> <PUBCHEM_SHAPE_FINGERPRINT>
10608611 8 18260828254059748437
10922523 26 18187082883855726149
11471102 20 18411417319381488052
116883 192 18268430135810032860
12236239 1 17418094325508565967
12654215 9 18408601491741256840
13134695 92 18130781265621776977
13296908 3 18334300889329087123
13544592 145 18113618941289244038
13571099 22 18413669110610519891
13675066 3 18114187466452788729
14115302 16 17822304460838968775
14576447 43 17915448617908052855
14993402 34 17489309723651543765
15196674 1 18410854373970940917
15219456 202 18260550064590354083
15375358 24 18261670471292131968
15442244 35 18270125591235013544
16945 1 18340774865791806704
18186145 218 17748821899857848639
200 152 17989482996460850993
20279233 1 18187646946073912154
20645477 56 17895193341976622365
20645477 70 18413388722160646478
21501502 16 18270973340675638888
221357 26 18338222779424898093
23402655 69 18343017813556686085
23557571 272 17313677060503617933
23559900 14 18407758132253086858
25 1 18187638073251733715
2748010 2 18339077095437514700
296302 2 18335138747312154616
34934 24 18342450491373796156
4072396 5 18338218437112306200
495365 180 18271231802974594800
5104073 3 18408603686421878403
633830 44 18187636995230753847
7364860 26 18343024402521548296
77492 1 17489596674664246395
9709674 26 18334296512915752379

> <PUBCHEM_SHAPE_MULTIPOLES>
322.94
8.58
1.99
0.91
5.01
0.14
-0.14
0.41
1.78
-2.27
0.02
0.85
-0.14
0.72

> <PUBCHEM_SHAPE_SELFOVERLAP>
702.332

> <PUBCHEM_SHAPE_VOLUME>
173.2

> <PUBCHEM_COORDINATE_TYPE>
2
5
10

$$$$
