124070
  -OEChem-03292013323D

 39 41  0     1  0  0  0  0  0999 V2000
   -1.8037    2.7716    0.3320 F   0  0  0  0  0  0  0  0  0  0  0  0
   -5.3031   -1.6305    1.4289 O   0  0  0  0  0  0  0  0  0  0  0  0
    3.2211    2.2082    0.3949 O   0  0  0  0  0  0  0  0  0  0  0  0
    5.4737    0.9389    0.8707 O   0  0  0  0  0  0  0  0  0  0  0  0
    5.8331   -0.7605   -0.6169 O   0  0  0  0  0  0  0  0  0  0  0  0
   -2.7708    0.2739   -0.2030 N   0  0  3  0  0  0  0  0  0  0  0  0
    1.6783   -1.4702   -0.3940 N   0  0  0  0  0  0  0  0  0  0  0  0
   -5.5563   -0.0154   -0.1805 N   0  0  0  0  0  0  0  0  0  0  0  0
   -0.5725   -0.5882   -0.2970 N   0  0  0  0  0  0  0  0  0  0  0  0
   -3.6294    1.3406   -0.7256 C   0  0  0  0  0  0  0  0  0  0  0  0
   -3.3553   -1.0201    0.1639 C   0  0  0  0  0  0  0  0  0  0  0  0
   -4.9460    0.7691   -1.2227 C   0  0  0  0  0  0  0  0  0  0  0  0
   -1.3908    0.4735   -0.1137 C   0  0  0  0  0  0  0  0  0  0  0  0
    0.7710   -0.3943   -0.2107 C   0  0  0  0  0  0  0  0  0  0  0  0
    1.2878    0.8838    0.0633 C   0  0  0  0  0  0  0  0  0  0  0  0
   -4.8166   -0.9145    0.5544 C   0  0  0  0  0  0  0  0  0  0  0  0
   -0.9508    1.7542    0.1579 C   0  0  0  0  0  0  0  0  0  0  0  0
    0.4173    1.9605    0.2477 C   0  0  0  0  0  0  0  0  0  0  0  0
    1.0886   -2.7727   -0.6763 C   0  0  0  0  0  0  0  0  0  0  0  0
    2.7540    1.1013    0.1584 C   0  0  0  0  0  0  0  0  0  0  0  0
    3.0381   -1.2550   -0.3034 C   0  0  0  0  0  0  0  0  0  0  0  0
    3.6274   -0.0813   -0.0479 C   0  0  0  0  0  0  0  0  0  0  0  0
    0.8168   -3.5417    0.6056 C   0  0  0  0  0  0  0  0  0  0  0  0
    5.0884   -0.0310    0.0143 C   0  0  0  0  0  0  0  0  0  0  0  0
   -3.1480    1.8729   -1.5549 H   0  0  0  0  0  0  0  0  0  0  0  0
   -3.8551    2.0551    0.0752 H   0  0  0  0  0  0  0  0  0  0  0  0
   -2.8207   -1.4441    1.0228 H   0  0  0  0  0  0  0  0  0  0  0  0
   -3.2728   -1.7192   -0.6761 H   0  0  0  0  0  0  0  0  0  0  0  0
   -5.6406    1.5653   -1.5064 H   0  0  0  0  0  0  0  0  0  0  0  0
   -4.7913    0.1141   -2.0875 H   0  0  0  0  0  0  0  0  0  0  0  0
   -6.5529    0.0702   -0.0059 H   0  0  0  0  0  0  0  0  0  0  0  0
    0.7879    2.9589    0.4606 H   0  0  0  0  0  0  0  0  0  0  0  0
    0.1742   -2.6970   -1.2778 H   0  0  0  0  0  0  0  0  0  0  0  0
    1.7815   -3.3621   -1.2912 H   0  0  0  0  0  0  0  0  0  0  0  0
    3.6158   -2.1610   -0.4579 H   0  0  0  0  0  0  0  0  0  0  0  0
    1.7359   -3.6837    1.1839 H   0  0  0  0  0  0  0  0  0  0  0  0
    0.0994   -3.0136    1.2423 H   0  0  0  0  0  0  0  0  0  0  0  0
    0.4039   -4.5289    0.3757 H   0  0  0  0  0  0  0  0  0  0  0  0
    6.4501    1.0034    0.9392 H   0  0  0  0  0  0  0  0  0  0  0  0
  1 17  1  0  0  0  0
  2 16  2  0  0  0  0
  3 20  2  0  0  0  0
  4 24  1  0  0  0  0
  4 39  1  0  0  0  0
  5 24  2  0  0  0  0
  6 10  1  0  0  0  0
  6 11  1  0  0  0  0
  6 13  1  0  0  0  0
  7 14  1  0  0  0  0
  7 19  1  0  0  0  0
  7 21  1  0  0  0  0
  8 12  1  0  0  0  0
  8 16  1  0  0  0  0
  8 31  1  0  0  0  0
  9 13  1  0  0  0  0
  9 14  2  0  0  0  0
 10 12  1  0  0  0  0
 10 25  1  0  0  0  0
 10 26  1  0  0  0  0
 11 16  1  0  0  0  0
 11 27  1  0  0  0  0
 11 28  1  0  0  0  0
 12 29  1  0  0  0  0
 12 30  1  0  0  0  0
 13 17  2  0  0  0  0
 14 15  1  0  0  0  0
 15 18  2  0  0  0  0
 15 20  1  0  0  0  0
 17 18  1  0  0  0  0
 18 32  1  0  0  0  0
 19 23  1  0  0  0  0
 19 33  1  0  0  0  0
 19 34  1  0  0  0  0
 20 22  1  0  0  0  0
 21 22  2  0  0  0  0
 21 35  1  0  0  0  0
 22 24  1  0  0  0  0
 23 36  1  0  0  0  0
 23 37  1  0  0  0  0
 23 38  1  0  0  0  0
M  END
> <PUBCHEM_COMPOUND_CID>
124070

> <PUBCHEM_CONFORMER_RMSD>
0.8

> <PUBCHEM_CONFORMER_DIVERSEORDER>
1
8
4
14
6
10
2
5
11
12
9
13
3
7

> <PUBCHEM_MMFF94_PARTIAL_CHARGES>
27
1 -0.19
10 0.37
11 0.43
12 0.3
13 0.41
14 0.41
15 0.09
16 0.57
17 0.19
18 -0.15
19 0.37
2 -0.57
20 0.47
21 -0.05
22 0.03
24 0.71
3 -0.57
31 0.37
32 0.15
35 0.15
39 0.5
4 -0.65
5 -0.57
6 -0.84
7 -0.57
8 -0.73
9 -0.62

> <PUBCHEM_EFFECTIVE_ROTOR_COUNT>
4

> <PUBCHEM_PHARMACOPHORE_FEATURES>
12
1 2 acceptor
1 22 anion
1 3 acceptor
1 4 acceptor
1 5 acceptor
1 6 cation
1 8 donor
3 4 5 24 anion
3 7 9 14 cation
6 6 8 10 11 12 16 rings
6 7 14 15 20 21 22 rings
6 9 13 14 15 17 18 rings

> <PUBCHEM_HEAVY_ATOM_COUNT>
24

> <PUBCHEM_ATOM_DEF_STEREO_COUNT>
0

> <PUBCHEM_ATOM_UDEF_STEREO_COUNT>
0

> <PUBCHEM_BOND_DEF_STEREO_COUNT>
0

> <PUBCHEM_BOND_UDEF_STEREO_COUNT>
0

> <PUBCHEM_ISOTOPIC_ATOM_COUNT>
0

> <PUBCHEM_COMPONENT_COUNT>
1

> <PUBCHEM_CACTVS_TAUTO_COUNT>
2

> <PUBCHEM_CONFORMER_ID>
0001E4A600000001

> <PUBCHEM_MMFF94_ENERGY>
76.5342

> <PUBCHEM_FEATURE_SELFOVERLAP>
61.32

> <PUBCHEM_SHAPE_FINGERPRINT>
10 15 18337942498575605432
10090160 65 18408878542537636623
10906281 52 18262820500335961849
1100329 8 18267865158684704194
11421498 54 16773805753155103187
11488393 25 17487351343451787030
11578080 2 17098327602161582951
11963148 33 18335979847859641179
12011746 2 18410858746490377958
12035758 1 18340484586116289618
12236239 1 17060337431212563301
13140716 1 18197777919216076306
13402501 40 18335424599325023715
13862211 1 18341607127063475966
14178342 30 18125434220796651976
14787075 74 18130783477840729088
14790565 3 18412549837786084608
15196674 1 18341331072556934908
15927050 60 17549266277461618516
18681886 176 18334855052380898224
19591789 44 18268145546829071159
200 152 17988918955559746037
20028762 73 18130222773792045286
20567600 347 18041278781659186194
20645477 70 18272645710957229127
21033650 10 15866045555822241756
21197605 99 18053390078475663907
21267235 1 18413114956554929124
21421861 104 18117276943729404243
21521721 280 18272934968309159000
21623969 137 18411989091393200091
21682296 61 17844819092317703486
221490 88 18268435620425377486
22393880 68 18195530277415933198
23402539 116 18411692209967709806
23557571 272 17603580795043597157
23558518 356 18118981199590002673
23559900 14 18335696131310012549
23569914 152 16619544027075726333
26918003 58 18334292072204196929
2871803 45 18340485573615810806
335352 9 18413106169152179100
33824 294 18411134706286228502
34934 24 18341887464206305615
350125 39 18411983581108687572
3545911 37 18334293146172913493
465052 167 18260267456306903362
474229 33 18411136939748291718
5104073 3 18270679741053374216
5283173 99 18115017503433058949
5486654 2 18411141359169425742
59755656 215 18411703154014235862
6138700 20 18338798906343179878
9709674 26 18268430118825225639

> <PUBCHEM_SHAPE_MULTIPOLES>
443.23
11.82
2.84
0.86
2.35
1.44
0.01
0.29
0.32
-0.45
0.4
0.56
0.15
1.36

> <PUBCHEM_SHAPE_SELFOVERLAP>
962.368

> <PUBCHEM_SHAPE_VOLUME>
241.2

> <PUBCHEM_COORDINATE_TYPE>
2
5
10

$$$$
