124040734
  -OEChem-03292013293D

 61 64  0     1  0  0  0  0  0999 V2000
   -1.7010    0.9548   -1.4491 F   0  0  0  0  0  0  0  0  0  0  0  0
    2.3025   -0.9883   -1.4838 O   0  0  0  0  0  0  0  0  0  0  0  0
   -0.7559    2.5357    0.3208 O   0  0  0  0  0  0  0  0  0  0  0  0
    4.3397   -1.4178    1.2396 O   0  0  0  0  0  0  0  0  0  0  0  0
    5.5864    0.6715    0.0996 O   0  0  0  0  0  0  0  0  0  0  0  0
   -7.1469    1.1614   -0.0943 O   0  0  0  0  0  0  0  0  0  0  0  0
    5.7501    2.4326   -1.3867 O   0  0  0  0  0  0  0  0  0  0  0  0
    1.1899   -0.6668    0.6879 C   0  0  1  0  0  0  0  0  0  0  0  0
    0.0046   -1.6509    0.4203 C   0  0  1  0  0  0  0  0  0  0  0  0
   -1.0504   -1.1053   -0.5748 C   0  0  2  0  0  0  0  0  0  0  0  0
   -1.6023    0.3172   -0.2200 C   0  0  2  0  0  0  0  0  0  0  0  0
    2.3712   -1.2997   -0.0964 C   0  0  1  0  0  0  0  0  0  0  0  0
    0.8593    0.7710    0.2398 C   0  0  0  0  0  0  0  0  0  0  0  0
   -3.0670    0.3166    0.3679 C   0  0  2  0  0  0  0  0  0  0  0  0
   -0.5797    1.1460    0.5947 C   0  0  1  0  0  0  0  0  0  0  0  0
    0.6581   -2.9650   -0.0738 C   0  0  0  0  0  0  0  0  0  0  0  0
    2.1649   -2.7979    0.0903 C   0  0  0  0  0  0  0  0  0  0  0  0
   -2.1645   -2.1394   -0.8402 C   0  0  0  0  0  0  0  0  0  0  0  0
    1.4773   -0.6620    2.2157 C   0  0  0  0  0  0  0  0  0  0  0  0
   -3.9975   -0.4248   -0.5990 C   0  0  0  0  0  0  0  0  0  0  0  0
   -3.4024   -1.5113   -1.4594 C   0  0  0  0  0  0  0  0  0  0  0  0
   -3.6027    1.7691    0.5172 C   0  0  0  0  0  0  0  0  0  0  0  0
   -3.1265   -0.3647    1.7574 C   0  0  0  0  0  0  0  0  0  0  0  0
    3.7311   -0.8438    0.3378 C   0  0  0  0  0  0  0  0  0  0  0  0
   -5.0786    1.8384    0.8968 C   0  0  0  0  0  0  0  0  0  0  0  0
   -5.2960   -0.1176   -0.7600 C   0  0  0  0  0  0  0  0  0  0  0  0
   -5.9335    0.9827   -0.0020 C   0  0  0  0  0  0  0  0  0  0  0  0
    4.3022    0.3528   -0.3929 C   0  0  0  0  0  0  0  0  0  0  0  0
    6.2105    1.7433   -0.4866 C   0  0  0  0  0  0  0  0  0  0  0  0
    7.5573    1.9623    0.1331 C   0  0  0  0  0  0  0  0  0  0  0  0
   -0.5072   -1.8694    1.3657 H   0  0  0  0  0  0  0  0  0  0  0  0
   -0.5358   -0.9834   -1.5406 H   0  0  0  0  0  0  0  0  0  0  0  0
    0.9946    0.9112   -0.8396 H   0  0  0  0  0  0  0  0  0  0  0  0
    1.5511    1.4846    0.7049 H   0  0  0  0  0  0  0  0  0  0  0  0
   -0.7395    1.0096    1.6668 H   0  0  0  0  0  0  0  0  0  0  0  0
    0.4394   -3.1475   -1.1320 H   0  0  0  0  0  0  0  0  0  0  0  0
    0.2917   -3.8311    0.4874 H   0  0  0  0  0  0  0  0  0  0  0  0
    2.4731   -3.1473    1.0818 H   0  0  0  0  0  0  0  0  0  0  0  0
    2.7018   -3.3992   -0.6516 H   0  0  0  0  0  0  0  0  0  0  0  0
   -2.4401   -2.6654    0.0810 H   0  0  0  0  0  0  0  0  0  0  0  0
   -1.7920   -2.9136   -1.5220 H   0  0  0  0  0  0  0  0  0  0  0  0
    1.7517   -1.6532    2.5902 H   0  0  0  0  0  0  0  0  0  0  0  0
    0.5994   -0.3444    2.7884 H   0  0  0  0  0  0  0  0  0  0  0  0
    2.2897    0.0283    2.4674 H   0  0  0  0  0  0  0  0  0  0  0  0
   -4.1408   -2.3007   -1.6472 H   0  0  0  0  0  0  0  0  0  0  0  0
   -3.1353   -1.0825   -2.4338 H   0  0  0  0  0  0  0  0  0  0  0  0
   -3.4633    2.3116   -0.4280 H   0  0  0  0  0  0  0  0  0  0  0  0
   -3.0386    2.3149    1.2820 H   0  0  0  0  0  0  0  0  0  0  0  0
   -2.6349    0.2446    2.5231 H   0  0  0  0  0  0  0  0  0  0  0  0
   -2.6512   -1.3463    1.7736 H   0  0  0  0  0  0  0  0  0  0  0  0
   -4.1588   -0.5227    2.0904 H   0  0  0  0  0  0  0  0  0  0  0  0
    2.8935   -1.5925   -1.9650 H   0  0  0  0  0  0  0  0  0  0  0  0
   -5.4188    2.8764    0.8087 H   0  0  0  0  0  0  0  0  0  0  0  0
   -5.2379    1.5183    1.9315 H   0  0  0  0  0  0  0  0  0  0  0  0
   -0.1342    3.0278    0.8837 H   0  0  0  0  0  0  0  0  0  0  0  0
   -5.9253   -0.6551   -1.4619 H   0  0  0  0  0  0  0  0  0  0  0  0
    3.6376    1.2088   -0.2497 H   0  0  0  0  0  0  0  0  0  0  0  0
    4.3991    0.1147   -1.4566 H   0  0  0  0  0  0  0  0  0  0  0  0
    7.4438    2.1742    1.1992 H   0  0  0  0  0  0  0  0  0  0  0  0
    8.0413    2.8196   -0.3434 H   0  0  0  0  0  0  0  0  0  0  0  0
    8.1827    1.0793   -0.0198 H   0  0  0  0  0  0  0  0  0  0  0  0
  1 11  1  0  0  0  0
  2 12  1  0  0  0  0
  2 52  1  0  0  0  0
  3 15  1  0  0  0  0
  3 55  1  0  0  0  0
  4 24  2  0  0  0  0
  5 28  1  0  0  0  0
  5 29  1  0  0  0  0
  6 27  2  0  0  0  0
  7 29  2  0  0  0  0
  8  9  1  0  0  0  0
  8 12  1  0  0  0  0
  8 13  1  0  0  0  0
  8 19  1  0  0  0  0
  9 10  1  0  0  0  0
  9 16  1  0  0  0  0
  9 31  1  0  0  0  0
 10 11  1  0  0  0  0
 10 18  1  0  0  0  0
 10 32  1  0  0  0  0
 11 14  1  0  0  0  0
 11 15  1  0  0  0  0
 12 17  1  0  0  0  0
 12 24  1  0  0  0  0
 13 15  1  0  0  0  0
 13 33  1  0  0  0  0
 13 34  1  0  0  0  0
 14 20  1  0  0  0  0
 14 22  1  0  0  0  0
 14 23  1  0  0  0  0
 15 35  1  0  0  0  0
 16 17  1  0  0  0  0
 16 36  1  0  0  0  0
 16 37  1  0  0  0  0
 17 38  1  0  0  0  0
 17 39  1  0  0  0  0
 18 21  1  0  0  0  0
 18 40  1  0  0  0  0
 18 41  1  0  0  0  0
 19 42  1  0  0  0  0
 19 43  1  0  0  0  0
 19 44  1  0  0  0  0
 20 21  1  0  0  0  0
 20 26  2  0  0  0  0
 21 45  1  0  0  0  0
 21 46  1  0  0  0  0
 22 25  1  0  0  0  0
 22 47  1  0  0  0  0
 22 48  1  0  0  0  0
 23 49  1  0  0  0  0
 23 50  1  0  0  0  0
 23 51  1  0  0  0  0
 24 28  1  0  0  0  0
 25 27  1  0  0  0  0
 25 53  1  0  0  0  0
 25 54  1  0  0  0  0
 26 27  1  0  0  0  0
 26 56  1  0  0  0  0
 28 57  1  0  0  0  0
 28 58  1  0  0  0  0
 29 30  1  0  0  0  0
 30 59  1  0  0  0  0
 30 60  1  0  0  0  0
 30 61  1  0  0  0  0
M  END
> <PUBCHEM_COMPOUND_CID>
124040734

> <PUBCHEM_CONFORMER_RMSD>
0.8

> <PUBCHEM_CONFORMER_DIVERSEORDER>
1
95
36
77
123
110
47
106
115
116
109
91
75
101
102
12
45
22
98
89
16
112
93
111
44
43
81
55
51
121
33
3
53
67
108
50
113
120
62
69
65
114
14
103
83
9
100
10
28
8
105
72
92
76
54
117
88
63
74
29
96
122
73
70
82
32
49
40
64
19
23
79
52
78
13
34
15
80
35
90
18
56
57
20
107
27
2
21
6
37
25
86
58
17
38
85
48
11
84
24
30
94
46
87
4
124
5
97
26
7
61
99
59
66
118
60
68
71
42
104
39
31
41
119

> <PUBCHEM_MMFF94_PARTIAL_CHARGES>
23
1 -0.34
11 0.34
12 0.34
14 0.14
15 0.28
2 -0.68
20 -0.28
21 0.14
24 0.45
25 0.06
26 -0.14
27 0.49
28 0.34
29 0.66
3 -0.68
30 0.06
4 -0.57
5 -0.43
52 0.4
55 0.4
56 0.15
6 -0.57
7 -0.57

> <PUBCHEM_EFFECTIVE_ROTOR_COUNT>
5.8

> <PUBCHEM_PHARMACOPHORE_FEATURES>
11
1 2 acceptor
1 2 donor
1 3 acceptor
1 3 donor
1 4 acceptor
1 6 acceptor
1 7 acceptor
5 8 9 12 16 17 rings
6 10 11 14 18 20 21 rings
6 14 20 22 25 26 27 rings
6 8 9 10 11 13 15 rings

> <PUBCHEM_HEAVY_ATOM_COUNT>
30

> <PUBCHEM_ATOM_DEF_STEREO_COUNT>
4

> <PUBCHEM_ATOM_UDEF_STEREO_COUNT>
3

> <PUBCHEM_BOND_DEF_STEREO_COUNT>
0

> <PUBCHEM_BOND_UDEF_STEREO_COUNT>
0

> <PUBCHEM_ISOTOPIC_ATOM_COUNT>
0

> <PUBCHEM_COMPONENT_COUNT>
1

> <PUBCHEM_CACTVS_TAUTO_COUNT>
10

> <PUBCHEM_CONFORMER_ID>
0764B61E00000001

> <PUBCHEM_MMFF94_ENERGY>
100.3252

> <PUBCHEM_FEATURE_SELFOVERLAP>
55.926

> <PUBCHEM_SHAPE_FINGERPRINT>
10554248 39 18198608948386078735
10906281 52 18411990156217931427
11578080 2 17823680985083458669
12011746 2 15985103007345650997
12236239 1 18335698334390670207
12403814 3 18041556945394939815
12788726 201 17345757369902693881
13140716 1 18341600555869014883
13224815 77 18261952938680912739
13583140 156 16153977045711442618
13690498 29 17201912854739708079
14341114 328 18342172250312430158
14394314 77 18411984675993454505
14790565 3 18412547604234090840
14840074 17 18186521020481857108
15183329 4 16056889017932867742
15575132 122 18335137553369723773
15840311 113 18335144158970922205
1601671 61 18271238335968108723
17980427 23 17531533203857985454
1813 80 17823425890264702477
18608769 82 18340491179334771755
19319366 153 18335697192082941587
20511986 3 18334564737812606629
20642791 178 18115599290659100221
20642791 35 18059565936198127192
21033648 144 17968088737656992151
21033648 29 15792003446460087727
21304303 64 18113616823954952093
21365058 113 14548735135859943616
23559900 14 17346306146406100377
2838139 119 18338236081001799892
3004659 81 17916306044126559494
3472631 163 18341618131027995644
34797466 226 18060145310074573413
34934 24 18412543197845428527
350125 39 18343861105100819961
4073 2 18333455331356017763
4325135 7 18410854356844098620
4340502 62 16877946014122430843
474 4 18114184163913062300
5104073 3 17894915126632436634
543368 44 18413671326945747397
5486654 2 18342175587707734296
6328613 192 18343866598000183073

> <PUBCHEM_SHAPE_MULTIPOLES>
574.9
15
2.76
1.32
10.01
0.5
-0.28
-11.9
2.15
1.65
0.23
-0.01
0.16
-1.74

> <PUBCHEM_SHAPE_SELFOVERLAP>
1236.959

> <PUBCHEM_SHAPE_VOLUME>
315.2

> <PUBCHEM_COORDINATE_TYPE>
2
5
10

$$$$
