124044
  -OEChem-03292013323D

 45 44  0     1  0  0  0  0  0999 V2000
    0.6658    2.6006    0.5089 S   0  0  0  0  0  0  0  0  0  0  0  0
    2.8362    0.3678   -0.6018 S   0  0  0  0  0  0  0  0  0  0  0  0
    1.7085   -0.5144    2.0394 S   0  0  0  0  0  0  0  0  0  0  0  0
    0.3376    1.1714   -2.3512 O   0  0  0  0  0  0  0  0  0  0  0  0
   -2.0300   -0.4611   -2.7893 O   0  0  0  0  0  0  0  0  0  0  0  0
   -2.3700   -2.5861   -1.0931 O   0  0  0  0  0  0  0  0  0  0  0  0
   -3.6453   -1.3692    1.1045 O   0  0  0  0  0  0  0  0  0  0  0  0
   -0.5465    0.7756   -1.3002 C   0  0  2  0  0  0  0  0  0  0  0  0
    0.1355    0.8867    0.0965 C   0  0  1  0  0  0  0  0  0  0  0  0
   -1.1311   -0.6030   -1.6852 C   0  0  1  0  0  0  0  0  0  0  0  0
    1.2943   -0.1427    0.2796 C   0  0  0  0  0  0  0  0  0  0  0  0
   -1.8650   -1.3550   -0.5597 C   0  0  1  0  0  0  0  0  0  0  0  0
   -3.0306   -0.6003    0.0780 C   0  0  0  0  0  0  0  0  0  0  0  0
   -0.9642    3.2641    0.9054 C   0  0  0  0  0  0  0  0  0  0  0  0
    3.6457   -1.2438   -0.7584 C   0  0  0  0  0  0  0  0  0  0  0  0
    0.3682   -1.6679    2.4295 C   0  0  0  0  0  0  0  0  0  0  0  0
   -0.8627    4.7247    1.3021 C   0  0  0  0  0  0  0  0  0  0  0  0
    4.9776   -1.1040   -1.4708 C   0  0  0  0  0  0  0  0  0  0  0  0
    0.4758   -2.1437    3.8658 C   0  0  0  0  0  0  0  0  0  0  0  0
   -1.3749    1.4930   -1.3347 H   0  0  0  0  0  0  0  0  0  0  0  0
   -0.6189    0.6388    0.8465 H   0  0  0  0  0  0  0  0  0  0  0  0
   -0.3285   -1.2512   -2.0599 H   0  0  0  0  0  0  0  0  0  0  0  0
    1.0082   -1.0980   -0.1653 H   0  0  0  0  0  0  0  0  0  0  0  0
   -1.1609   -1.6504    0.2149 H   0  0  0  0  0  0  0  0  0  0  0  0
   -2.7222    0.3534    0.5108 H   0  0  0  0  0  0  0  0  0  0  0  0
   -3.8024   -0.4014   -0.6736 H   0  0  0  0  0  0  0  0  0  0  0  0
   -0.1901    1.2912   -3.1582 H   0  0  0  0  0  0  0  0  0  0  0  0
   -1.5174   -0.1438   -3.5514 H   0  0  0  0  0  0  0  0  0  0  0  0
   -1.6282    3.1820    0.0412 H   0  0  0  0  0  0  0  0  0  0  0  0
   -1.3996    2.6950    1.7328 H   0  0  0  0  0  0  0  0  0  0  0  0
   -2.8162   -3.0564   -0.3681 H   0  0  0  0  0  0  0  0  0  0  0  0
    2.9977   -1.9186   -1.3265 H   0  0  0  0  0  0  0  0  0  0  0  0
    3.8152   -1.6776    0.2310 H   0  0  0  0  0  0  0  0  0  0  0  0
    0.4177   -2.5277    1.7551 H   0  0  0  0  0  0  0  0  0  0  0  0
   -0.5936   -1.1645    2.3048 H   0  0  0  0  0  0  0  0  0  0  0  0
   -0.2319    4.8586    2.1875 H   0  0  0  0  0  0  0  0  0  0  0  0
   -0.4561    5.3355    0.4888 H   0  0  0  0  0  0  0  0  0  0  0  0
   -1.8570    5.1155    1.5432 H   0  0  0  0  0  0  0  0  0  0  0  0
   -4.3820   -0.8405    1.4556 H   0  0  0  0  0  0  0  0  0  0  0  0
    4.8530   -0.7007   -2.4815 H   0  0  0  0  0  0  0  0  0  0  0  0
    5.6631   -0.4529   -0.9177 H   0  0  0  0  0  0  0  0  0  0  0  0
    5.4558   -2.0849   -1.5633 H   0  0  0  0  0  0  0  0  0  0  0  0
    1.4178   -2.6733    4.0443 H   0  0  0  0  0  0  0  0  0  0  0  0
    0.4058   -1.3097    4.5725 H   0  0  0  0  0  0  0  0  0  0  0  0
   -0.3413   -2.8372    4.0910 H   0  0  0  0  0  0  0  0  0  0  0  0
  1  9  1  0  0  0  0
  1 14  1  0  0  0  0
  2 11  1  0  0  0  0
  2 15  1  0  0  0  0
  3 11  1  0  0  0  0
  3 16  1  0  0  0  0
  4  8  1  0  0  0  0
  4 27  1  0  0  0  0
  5 10  1  0  0  0  0
  5 28  1  0  0  0  0
  6 12  1  0  0  0  0
  6 31  1  0  0  0  0
  7 13  1  0  0  0  0
  7 39  1  0  0  0  0
  8  9  1  0  0  0  0
  8 10  1  0  0  0  0
  8 20  1  0  0  0  0
  9 11  1  0  0  0  0
  9 21  1  0  0  0  0
 10 12  1  0  0  0  0
 10 22  1  0  0  0  0
 11 23  1  0  0  0  0
 12 13  1  0  0  0  0
 12 24  1  0  0  0  0
 13 25  1  0  0  0  0
 13 26  1  0  0  0  0
 14 17  1  0  0  0  0
 14 29  1  0  0  0  0
 14 30  1  0  0  0  0
 15 18  1  0  0  0  0
 15 32  1  0  0  0  0
 15 33  1  0  0  0  0
 16 19  1  0  0  0  0
 16 34  1  0  0  0  0
 16 35  1  0  0  0  0
 17 36  1  0  0  0  0
 17 37  1  0  0  0  0
 17 38  1  0  0  0  0
 18 40  1  0  0  0  0
 18 41  1  0  0  0  0
 18 42  1  0  0  0  0
 19 43  1  0  0  0  0
 19 44  1  0  0  0  0
 19 45  1  0  0  0  0
M  END
> <PUBCHEM_COMPOUND_CID>
124044

> <PUBCHEM_CONFORMER_RMSD>
1

> <PUBCHEM_CONFORMER_DIVERSEORDER>
1
3
9
8
48
53
39
41
54
15
44
52
13
46
6
18
25
5
7
11
45
37
14
35
26
55
12
10
47
29
50
2
19
31
4
27
51
34
21
40
32
28
58
57
33
56
38
30
22
23
49
16
36
17
20
42
43
24

> <PUBCHEM_MMFF94_PARTIAL_CHARGES>
20
1 -0.46
10 0.28
11 0.46
12 0.28
13 0.28
14 0.23
15 0.23
16 0.23
2 -0.46
27 0.4
28 0.4
3 -0.46
31 0.4
39 0.4
4 -0.68
5 -0.68
6 -0.68
7 -0.68
8 0.28
9 0.23

> <PUBCHEM_EFFECTIVE_ROTOR_COUNT>
11

> <PUBCHEM_PHARMACOPHORE_FEATURES>
15
1 17 hydrophobe
1 18 hydrophobe
1 19 hydrophobe
1 4 acceptor
1 4 donor
1 5 acceptor
1 5 donor
1 6 acceptor
1 6 donor
1 7 acceptor
1 7 donor
3 1 9 14 hydrophobe
3 2 11 15 hydrophobe
3 3 11 16 hydrophobe
5 2 3 11 15 16 hydrophobe

> <PUBCHEM_HEAVY_ATOM_COUNT>
19

> <PUBCHEM_ATOM_DEF_STEREO_COUNT>
4

> <PUBCHEM_ATOM_UDEF_STEREO_COUNT>
0

> <PUBCHEM_BOND_DEF_STEREO_COUNT>
0

> <PUBCHEM_BOND_UDEF_STEREO_COUNT>
0

> <PUBCHEM_ISOTOPIC_ATOM_COUNT>
0

> <PUBCHEM_COMPONENT_COUNT>
1

> <PUBCHEM_CACTVS_TAUTO_COUNT>
1

> <PUBCHEM_CONFORMER_ID>
0001E48C00000001

> <PUBCHEM_MMFF94_ENERGY>
43.8516

> <PUBCHEM_FEATURE_SELFOVERLAP>
80.476

> <PUBCHEM_SHAPE_FINGERPRINT>
10064457 181 17315660614372614979
11578080 2 16485819507408015400
121448 382 17749109959647171514
12716301 132 17555714535200935096
14022347 108 18198035041913133789
14817 1 11688850236224029408
16945 1 17695048290668151525
192875 21 13398619559468963235
19784866 135 18200596882715592534
20600515 1 17978466993725813484
20711985 344 17984679169971786836
23419403 2 17252324492474222792
23558518 356 18336275565822851592
298252 57 17623582943209549096
3759504 43 17767414478596972436
4175511 71 18200599219135642565
81228 2 17699250353600664828

> <PUBCHEM_SHAPE_MULTIPOLES>
379.08
5.29
3.99
3.2
5.94
4.84
1.95
-2.36
-2.65
-3.92
2.53
0.28
-2.2
-1.35

> <PUBCHEM_SHAPE_SELFOVERLAP>
664.768

> <PUBCHEM_SHAPE_VOLUME>
249.8

> <PUBCHEM_COORDINATE_TYPE>
2
5
10

$$$$
