124164
  -OEChem-03292013323D

 41 40  0     1  0  0  0  0  0999 V2000
   -0.0206    0.8873    0.2751 O   0  0  0  0  0  0  0  0  0  0  0  0
   -2.1210   -0.8814    1.1801 O   0  0  0  0  0  0  0  0  0  0  0  0
    0.5024   -1.8766   -1.1166 O   0  0  0  0  0  0  0  0  0  0  0  0
   -3.1433    1.0421   -1.6090 O   0  0  0  0  0  0  0  0  0  0  0  0
    0.3681   -4.2732    0.2387 O   0  0  0  0  0  0  0  0  0  0  0  0
   -4.0870    1.4690    0.8426 O   0  0  0  0  0  0  0  0  0  0  0  0
    3.4100    0.5371   -0.1349 N   0  0  0  0  0  0  0  0  0  0  0  0
   -1.0707    0.4255   -0.5833 C   0  0  1  0  0  0  0  0  0  0  0  0
   -1.4764   -0.9760   -0.0947 C   0  0  1  0  0  0  0  0  0  0  0  0
   -0.3265   -1.9837    0.0499 C   0  0  1  0  0  0  0  0  0  0  0  0
   -2.1793    1.4840   -0.6592 C   0  0  2  0  0  0  0  0  0  0  0  0
    0.7827    1.8556   -0.3768 C   0  0  0  0  0  0  0  0  0  0  0  0
    1.8786    2.3098    0.5777 C   0  0  0  0  0  0  0  0  0  0  0  0
   -0.7812   -3.4363    0.1420 C   0  0  0  0  0  0  0  0  0  0  0  0
    2.7559    1.1425    1.0187 C   0  0  0  0  0  0  0  0  0  0  0  0
   -2.8992    1.7131    0.6539 C   0  0  0  0  0  0  0  0  0  0  0  0
    3.8848   -0.8094    0.1892 C   0  0  0  0  0  0  0  0  0  0  0  0
    4.5229    1.3708   -0.5932 C   0  0  0  0  0  0  0  0  0  0  0  0
   -0.6737    0.2920   -1.5998 H   0  0  0  0  0  0  0  0  0  0  0  0
   -2.2116   -1.3771   -0.8030 H   0  0  0  0  0  0  0  0  0  0  0  0
    0.2979   -1.7396    0.9177 H   0  0  0  0  0  0  0  0  0  0  0  0
   -1.8162    2.4565   -0.9975 H   0  0  0  0  0  0  0  0  0  0  0  0
    0.1945    2.7382   -0.6427 H   0  0  0  0  0  0  0  0  0  0  0  0
    1.2108    1.4433   -1.2976 H   0  0  0  0  0  0  0  0  0  0  0  0
    2.4632    3.1167    0.1249 H   0  0  0  0  0  0  0  0  0  0  0  0
    1.4101    2.7302    1.4769 H   0  0  0  0  0  0  0  0  0  0  0  0
   -1.3301   -3.7326   -0.7580 H   0  0  0  0  0  0  0  0  0  0  0  0
   -1.4074   -3.6067    1.0223 H   0  0  0  0  0  0  0  0  0  0  0  0
    3.4859    1.4820    1.7651 H   0  0  0  0  0  0  0  0  0  0  0  0
    2.1216    0.4071    1.5306 H   0  0  0  0  0  0  0  0  0  0  0  0
   -2.5395   -1.7383    1.3668 H   0  0  0  0  0  0  0  0  0  0  0  0
   -2.2800    2.1393    1.4622 H   0  0  0  0  0  0  0  0  0  0  0  0
    1.2371   -2.5049   -1.0098 H   0  0  0  0  0  0  0  0  0  0  0  0
   -3.5598    0.2309   -1.2731 H   0  0  0  0  0  0  0  0  0  0  0  0
    3.0497   -1.4539    0.4850 H   0  0  0  0  0  0  0  0  0  0  0  0
    4.6205   -0.8027    1.0016 H   0  0  0  0  0  0  0  0  0  0  0  0
    4.3430   -1.2778   -0.6890 H   0  0  0  0  0  0  0  0  0  0  0  0
    4.1812    2.3468   -0.9501 H   0  0  0  0  0  0  0  0  0  0  0  0
    5.0215    0.8997   -1.4484 H   0  0  0  0  0  0  0  0  0  0  0  0
    5.2743    1.5287    0.1892 H   0  0  0  0  0  0  0  0  0  0  0  0
    0.0485   -5.1901    0.2916 H   0  0  0  0  0  0  0  0  0  0  0  0
  1  8  1  0  0  0  0
  1 12  1  0  0  0  0
  2  9  1  0  0  0  0
  2 31  1  0  0  0  0
  3 10  1  0  0  0  0
  3 33  1  0  0  0  0
  4 11  1  0  0  0  0
  4 34  1  0  0  0  0
  5 14  1  0  0  0  0
  5 41  1  0  0  0  0
  6 16  2  0  0  0  0
  7 15  1  0  0  0  0
  7 17  1  0  0  0  0
  7 18  1  0  0  0  0
  8  9  1  0  0  0  0
  8 11  1  0  0  0  0
  8 19  1  0  0  0  0
  9 10  1  0  0  0  0
  9 20  1  0  0  0  0
 10 14  1  0  0  0  0
 10 21  1  0  0  0  0
 11 16  1  0  0  0  0
 11 22  1  0  0  0  0
 12 13  1  0  0  0  0
 12 23  1  0  0  0  0
 12 24  1  0  0  0  0
 13 15  1  0  0  0  0
 13 25  1  0  0  0  0
 13 26  1  0  0  0  0
 14 27  1  0  0  0  0
 14 28  1  0  0  0  0
 15 29  1  0  0  0  0
 15 30  1  0  0  0  0
 16 32  1  0  0  0  0
 17 35  1  0  0  0  0
 17 36  1  0  0  0  0
 17 37  1  0  0  0  0
 18 38  1  0  0  0  0
 18 39  1  0  0  0  0
 18 40  1  0  0  0  0
M  END
> <PUBCHEM_COMPOUND_CID>
124164

> <PUBCHEM_CONFORMER_RMSD>
0.8

> <PUBCHEM_CONFORMER_DIVERSEORDER>
2
243
131
209
197
119
178
235
18
16
121
76
117
216
95
159
198
47
170
83
184
33
225
25
185
82
138
240
193
100
91
221
192
219
24
238
214
112
161
177
137
149
54
50
202
124
173
244
143
42
166
190
174
111
99
169
241
220
105
4
59
146
207
74
21
232
160
133
122
62
36
227
204
142
41
153
81
236
212
210
186
150
128
180
108
60
242
14
140
218
98
158
110
90
203
87
66
200
189
48
39
230
40
164
94
52
139
195
156
132
211
31
70
11
247
223
37
23
26
27
222
65
187
78
154
53
77
245
182
104
233
56
61
145
58
75
3
84
183
92
215
73
57
85
115
134
172
155
30
224
144
136
55
10
237
22
106
246
167
148
157
43
226
15
171
79
113
217
32
20
123
19
101
9
239
127
152
165
196
5
213
116
49
188
179
229
8
191
6
205
38
163
130
51
69
228
107
68
168
64
175
234
129
201
135
1
151
63
102
208
29
162
118
89
71
97
12
141
125
34
46
86
13
45
96
147
194
114
109
181
17
176
88
72
80
67
28
199
231
93
7
126
44
35
206
120
103

> <PUBCHEM_MMFF94_PARTIAL_CHARGES>
22
1 -0.56
10 0.28
11 0.34
12 0.28
14 0.28
15 0.27
16 0.45
17 0.27
18 0.27
2 -0.68
3 -0.68
31 0.4
32 0.06
33 0.4
34 0.4
4 -0.68
41 0.4
5 -0.68
6 -0.57
7 -0.81
8 0.28
9 0.28

> <PUBCHEM_EFFECTIVE_ROTOR_COUNT>
10

> <PUBCHEM_PHARMACOPHORE_FEATURES>
11
1 1 acceptor
1 2 acceptor
1 2 donor
1 3 acceptor
1 3 donor
1 4 acceptor
1 4 donor
1 5 acceptor
1 5 donor
1 6 acceptor
1 7 cation

> <PUBCHEM_HEAVY_ATOM_COUNT>
18

> <PUBCHEM_ATOM_DEF_STEREO_COUNT>
4

> <PUBCHEM_ATOM_UDEF_STEREO_COUNT>
0

> <PUBCHEM_BOND_DEF_STEREO_COUNT>
0

> <PUBCHEM_BOND_UDEF_STEREO_COUNT>
0

> <PUBCHEM_ISOTOPIC_ATOM_COUNT>
0

> <PUBCHEM_COMPONENT_COUNT>
1

> <PUBCHEM_CACTVS_TAUTO_COUNT>
4

> <PUBCHEM_CONFORMER_ID>
0001E50400000002

> <PUBCHEM_MMFF94_ENERGY>
37.5221

> <PUBCHEM_FEATURE_SELFOVERLAP>
55.846

> <PUBCHEM_SHAPE_FINGERPRINT>
11322862 65 18409447024451172102
12500047 106 18338510941327980556
12553582 1 17112131300818313714
12592029 89 18339083661983386401
14251705 54 16967449877445198682
15309172 13 18408880720218268457
17859628 97 18336827481672791882
18915476 22 18118953695263043525
19591789 44 18410012121920104131
20645476 183 18186518830417463156
21524375 3 18343013363706726015
21665056 4 18410006675948850606
23419403 2 17554376537061556455
23557571 272 17692512825708055464
2748010 2 18336837406835661191
458136 41 18266467511717317193
58051976 100 18189063151621534396
59755656 215 18265613191837176437
598444 67 18411706521057384622
74978 22 18339919445603537248
81228 2 17905592655879829665
9709674 26 18054498381927050204

> <PUBCHEM_SHAPE_MULTIPOLES>
330.23
6.55
3.92
1.04
4.76
5.12
0.09
-4.15
-0.13
-1.15
-0.31
-0.42
-0.27
0.13

> <PUBCHEM_SHAPE_SELFOVERLAP>
627.999

> <PUBCHEM_SHAPE_VOLUME>
203.3

> <PUBCHEM_COORDINATE_TYPE>
2
5
10

$$$$
