124173903
  -OEChem-03292013293D

 35 35  0     1  0  0  0  0  0999 V2000
    1.8486    0.9105    0.3963 O   0  0  0  0  0  0  0  0  0  0  0  0
    3.6521   -1.3231    1.2420 O   0  0  0  0  0  0  0  0  0  0  0  0
    1.3650   -2.6388    0.5549 O   0  0  0  0  0  0  0  0  0  0  0  0
    3.0009    2.3056   -1.7465 O   0  0  0  0  0  0  0  0  0  0  0  0
   -3.8699   -1.3270   -1.9555 O   0  0  0  0  0  0  0  0  0  0  0  0
   -3.4252   -1.5190    0.2680 O   0  0  0  0  0  0  0  0  0  0  0  0
   -0.3994   -0.0929    0.2327 N   0  0  0  0  0  0  0  0  0  0  0  0
   -2.4487    1.0471    0.3757 N   0  0  0  0  0  0  0  0  0  0  0  0
   -0.6343    1.7874    1.6750 N   0  0  0  0  0  0  0  0  0  0  0  0
    3.1008   -1.0479   -0.0454 C   0  0  1  0  0  0  0  0  0  0  0  0
    1.6294   -1.4005   -0.0733 C   0  0  2  0  0  0  0  0  0  0  0  0
    3.0693    0.4615   -0.2294 C   0  0  1  0  0  0  0  0  0  0  0  0
    0.9972   -0.2246    0.6603 C   0  0  1  0  0  0  0  0  0  0  0  0
    3.0399    0.8905   -1.6903 C   0  0  0  0  0  0  0  0  0  0  0  0
   -1.1032    0.8721    0.7499 C   0  0  0  0  0  0  0  0  0  0  0  0
   -2.9334    0.5530   -0.9128 C   0  0  0  0  0  0  0  0  0  0  0  0
   -3.4685    1.6069    1.2599 C   0  0  0  0  0  0  0  0  0  0  0  0
   -3.4207   -0.8608   -0.7615 C   0  0  0  0  0  0  0  0  0  0  0  0
    3.6928   -1.5890   -0.7891 H   0  0  0  0  0  0  0  0  0  0  0  0
    1.2672   -1.4502   -1.1075 H   0  0  0  0  0  0  0  0  0  0  0  0
    3.8923    0.9654    0.2898 H   0  0  0  0  0  0  0  0  0  0  0  0
    1.0229   -0.4170    1.7416 H   0  0  0  0  0  0  0  0  0  0  0  0
    2.1483    0.5164   -2.2033 H   0  0  0  0  0  0  0  0  0  0  0  0
    3.9335    0.5421   -2.2173 H   0  0  0  0  0  0  0  0  0  0  0  0
    4.5843   -1.0468    1.2241 H   0  0  0  0  0  0  0  0  0  0  0  0
    1.8832   -3.3181    0.0907 H   0  0  0  0  0  0  0  0  0  0  0  0
    2.9886    2.5552   -2.6862 H   0  0  0  0  0  0  0  0  0  0  0  0
   -2.1338    0.5809   -1.6615 H   0  0  0  0  0  0  0  0  0  0  0  0
   -3.7582    1.1782   -1.2729 H   0  0  0  0  0  0  0  0  0  0  0  0
   -3.4326    2.7003    1.2273 H   0  0  0  0  0  0  0  0  0  0  0  0
   -3.3092    1.2772    2.2919 H   0  0  0  0  0  0  0  0  0  0  0  0
   -4.4769    1.2917    0.9706 H   0  0  0  0  0  0  0  0  0  0  0  0
    0.3206    1.7658    2.0148 H   0  0  0  0  0  0  0  0  0  0  0  0
   -1.2139    2.5489    2.0097 H   0  0  0  0  0  0  0  0  0  0  0  0
   -4.1954   -2.2499   -1.8885 H   0  0  0  0  0  0  0  0  0  0  0  0
  1 12  1  0  0  0  0
  1 13  1  0  0  0  0
  2 10  1  0  0  0  0
  2 25  1  0  0  0  0
  3 11  1  0  0  0  0
  3 26  1  0  0  0  0
  4 14  1  0  0  0  0
  4 27  1  0  0  0  0
  5 18  1  0  0  0  0
  5 35  1  0  0  0  0
  6 18  2  0  0  0  0
  7 13  1  0  0  0  0
  7 15  2  0  0  0  0
  8 15  1  0  0  0  0
  8 16  1  0  0  0  0
  8 17  1  0  0  0  0
  9 15  1  0  0  0  0
  9 33  1  0  0  0  0
  9 34  1  0  0  0  0
 10 11  1  0  0  0  0
 10 12  1  0  0  0  0
 10 19  1  0  0  0  0
 11 13  1  0  0  0  0
 11 20  1  0  0  0  0
 12 14  1  0  0  0  0
 12 21  1  0  0  0  0
 13 22  1  0  0  0  0
 14 23  1  0  0  0  0
 14 24  1  0  0  0  0
 16 18  1  0  0  0  0
 16 28  1  0  0  0  0
 16 29  1  0  0  0  0
 17 30  1  0  0  0  0
 17 31  1  0  0  0  0
 17 32  1  0  0  0  0
M  END
> <PUBCHEM_COMPOUND_CID>
124173903

> <PUBCHEM_CONFORMER_RMSD>
0.8

> <PUBCHEM_CONFORMER_DIVERSEORDER>
1
70
84
73
52
44
14
62
61
59
40
31
75
4
64
37
33
58
8
78
49
85
12
80
86
67
56
71
51
53
63
46
69
27
6
45
34
55
76
74
83
66
21
48
87
18
30
68
26
7
15
38
32
42
81
82
47
65
43
13
19
36
39
22
10
72
3
9
54
11
29
57
88
89
79
16
17
92
90
41
77
23
50
60
2
5
20
28
35
24
25
91

> <PUBCHEM_MMFF94_PARTIAL_CHARGES>
24
1 -0.56
10 0.28
11 0.28
12 0.28
13 0.53
14 0.28
15 0.55
16 0.43
17 0.37
18 0.66
2 -0.68
25 0.4
26 0.4
27 0.4
3 -0.68
33 0.4
34 0.4
35 0.5
4 -0.68
5 -0.65
6 -0.57
7 -0.7
8 -0.79
9 -0.85

> <PUBCHEM_EFFECTIVE_ROTOR_COUNT>
6

> <PUBCHEM_PHARMACOPHORE_FEATURES>
13
1 1 acceptor
1 2 acceptor
1 2 donor
1 3 acceptor
1 3 donor
1 4 acceptor
1 4 donor
1 5 acceptor
1 6 acceptor
1 9 donor
3 5 6 18 anion
4 7 8 9 15 cation
5 1 10 11 12 13 rings

> <PUBCHEM_HEAVY_ATOM_COUNT>
18

> <PUBCHEM_ATOM_DEF_STEREO_COUNT>
4

> <PUBCHEM_ATOM_UDEF_STEREO_COUNT>
0

> <PUBCHEM_BOND_DEF_STEREO_COUNT>
1

> <PUBCHEM_BOND_UDEF_STEREO_COUNT>
0

> <PUBCHEM_ISOTOPIC_ATOM_COUNT>
0

> <PUBCHEM_COMPONENT_COUNT>
1

> <PUBCHEM_CACTVS_TAUTO_COUNT>
2

> <PUBCHEM_CONFORMER_ID>
0766BE4F00000001

> <PUBCHEM_MMFF94_ENERGY>
49.5634

> <PUBCHEM_FEATURE_SELFOVERLAP>
66.047

> <PUBCHEM_SHAPE_FINGERPRINT>
10062212 137 18341045220829240771
11543360 7 17822005467012105799
11578080 2 18124844963631160784
11725454 13 16010417179231478581
12553582 1 17917428791500630287
13134695 92 17313380072774953878
13296908 3 16774079557256471009
14115302 16 18128818542950509697
14252887 29 16200147737499793734
15279307 12 18128261086529265779
15375358 24 16199858450125394753
15375462 189 18344146982123551763
16752209 62 17846774088352711535
18186145 218 17968101897505105154
19050596 39 18341050726871663371
192875 21 18186793652416031160
19422 9 18341615901686741503
200 152 18412254026202881947
20279233 1 15338829820582475205
21524375 3 17824554186805831764
21639500 275 18040442117697761692
22096605 113 17822014263020933404
2255824 54 18187371995680155178
22892500 29 16370713834288024054
23402539 116 17968370127124304994
23557571 272 16701739316101026040
23598291 2 18339651031395026981
2748010 2 17332807656551975954
3082319 5 18408605855174809133
57096353 35 18340771532448766333
603831 33 18343297102241958383
6049 1 15482680052168052200
7615 1 18410013204209625712
77492 1 18412268311105761924
81228 2 15696604242840402641

> <PUBCHEM_SHAPE_MULTIPOLES>
320.27
7.59
2.19
1.57
2.38
0.26
-0.52
0.7
-1.9
-0.15
0.07
0.02
-0.44
-2.37

> <PUBCHEM_SHAPE_SELFOVERLAP>
642.751

> <PUBCHEM_SHAPE_VOLUME>
188

> <PUBCHEM_COORDINATE_TYPE>
2
5
10

$$$$
