124156
  -OEChem-03292013323D

 32 34  0     1  0  0  0  0  0999 V2000
    2.6240    0.5402    0.9135 O   0  0  0  0  0  0  0  0  0  0  0  0
    1.8227   -2.2152   -1.2512 O   0  0  0  0  0  0  0  0  0  0  0  0
    4.1065   -2.0299    0.2100 O   0  0  0  0  0  0  0  0  0  0  0  0
    4.2769    2.7208    0.3005 O   0  0  0  0  0  0  0  0  0  0  0  0
    0.3767    0.1991    0.2330 N   0  0  0  0  0  0  0  0  0  0  0  0
   -1.1543    1.7761   -0.1506 N   0  0  0  0  0  0  0  0  0  0  0  0
   -1.0804   -1.6912    0.6867 N   0  0  0  0  0  0  0  0  0  0  0  0
   -3.4320   -1.0578    0.5287 N   0  0  0  0  0  0  0  0  0  0  0  0
   -4.1093    1.1626   -0.0104 N   0  0  0  0  0  0  0  0  0  0  0  0
   -5.1594    0.6672   -0.4860 N   0  3  0  0  0  0  0  0  0  0  0  0
   -6.1137    0.2148   -0.9185 N   0  5  0  0  0  0  0  0  0  0  0  0
    2.2931   -0.9254   -0.9172 C   0  0  1  0  0  0  0  0  0  0  0  0
    1.6906   -0.4216    0.3855 C   0  0  1  0  0  0  0  0  0  0  0  0
    3.7741   -0.8986   -0.5947 C   0  0  1  0  0  0  0  0  0  0  0  0
    3.8993    0.3626    0.2543 C   0  0  1  0  0  0  0  0  0  0  0  0
    4.1900    1.6077   -0.5719 C   0  0  0  0  0  0  0  0  0  0  0  0
   -0.8394   -0.4083    0.3771 C   0  0  0  0  0  0  0  0  0  0  0  0
    0.1336    1.5108   -0.0834 C   0  0  0  0  0  0  0  0  0  0  0  0
   -1.7742    0.5856    0.1350 C   0  0  0  0  0  0  0  0  0  0  0  0
   -3.1146    0.2225    0.2196 C   0  0  0  0  0  0  0  0  0  0  0  0
   -2.4102   -1.9223    0.7399 C   0  0  0  0  0  0  0  0  0  0  0  0
    2.0715   -0.2451   -1.7477 H   0  0  0  0  0  0  0  0  0  0  0  0
    1.5792   -1.2205    1.1288 H   0  0  0  0  0  0  0  0  0  0  0  0
    4.4127   -0.9195   -1.4823 H   0  0  0  0  0  0  0  0  0  0  0  0
    4.6491    0.2584    1.0468 H   0  0  0  0  0  0  0  0  0  0  0  0
    3.3973    1.8152   -1.2973 H   0  0  0  0  0  0  0  0  0  0  0  0
    5.1400    1.5133   -1.1058 H   0  0  0  0  0  0  0  0  0  0  0  0
    2.0701   -2.8212   -0.5322 H   0  0  0  0  0  0  0  0  0  0  0  0
    5.0493   -1.9572    0.4369 H   0  0  0  0  0  0  0  0  0  0  0  0
    0.9264    2.2252   -0.2587 H   0  0  0  0  0  0  0  0  0  0  0  0
    3.4285    2.7918    0.7707 H   0  0  0  0  0  0  0  0  0  0  0  0
   -2.7009   -2.9383    0.9847 H   0  0  0  0  0  0  0  0  0  0  0  0
  1 13  1  0  0  0  0
  1 15  1  0  0  0  0
  2 12  1  0  0  0  0
  2 28  1  0  0  0  0
  3 14  1  0  0  0  0
  3 29  1  0  0  0  0
  4 16  1  0  0  0  0
  4 31  1  0  0  0  0
  5 13  1  0  0  0  0
  5 17  1  0  0  0  0
  5 18  1  0  0  0  0
  6 18  2  0  0  0  0
  6 19  1  0  0  0  0
  7 17  2  0  0  0  0
  7 21  1  0  0  0  0
  8 20  1  0  0  0  0
  8 21  2  0  0  0  0
  9 10  2  0  0  0  0
  9 20  1  0  0  0  0
 10 11  2  0  0  0  0
 12 13  1  0  0  0  0
 12 14  1  0  0  0  0
 12 22  1  0  0  0  0
 13 23  1  0  0  0  0
 14 15  1  0  0  0  0
 14 24  1  0  0  0  0
 15 16  1  0  0  0  0
 15 25  1  0  0  0  0
 16 26  1  0  0  0  0
 16 27  1  0  0  0  0
 17 19  1  0  0  0  0
 18 30  1  0  0  0  0
 19 20  2  0  0  0  0
 21 32  1  0  0  0  0
M  CHG  2  10   1  11  -1
M  END
> <PUBCHEM_COMPOUND_CID>
124156

> <PUBCHEM_CONFORMER_RMSD>
0.6

> <PUBCHEM_CONFORMER_DIVERSEORDER>
5
30
91
93
42
39
95
36
32
81
97
110
7
67
99
26
105
58
107
111
15
50
46
101
2
74
9
60
77
86
18
89
10
90
76
16
11
109
82
53
33
100
56
37
112
23
21
102
28
29
71
59
35
69
104
31
85
43
88
44
6
45
83
68
13
25
51
38
75
3
103
48
27
65
96
78
8
52
22
113
34
14
92
49
66
1
64
70
19
12
57
108
106
73
62
79
17
54
80
20
61
40
72
4
98
24
87
41
47
94
84
63
55

> <PUBCHEM_MMFF94_PARTIAL_CHARGES>
26
1 -0.56
10 0.69
11 -0.37
12 0.28
13 0.54
14 0.28
15 0.28
16 0.28
17 0.11
18 0.04
19 0.23
2 -0.68
20 0.49
21 0.47
28 0.4
29 0.4
3 -0.68
30 0.15
31 0.4
32 0.15
4 -0.68
5 0.05
6 -0.57
7 -0.57
8 -0.62
9 -0.5

> <PUBCHEM_EFFECTIVE_ROTOR_COUNT>
4

> <PUBCHEM_PHARMACOPHORE_FEATURES>
13
1 1 acceptor
1 2 acceptor
1 2 donor
1 3 acceptor
1 3 donor
1 4 acceptor
1 4 donor
3 5 6 18 cation
3 5 7 17 cation
3 7 8 21 cation
5 1 12 13 14 15 rings
5 5 6 17 18 19 rings
6 7 8 17 19 20 21 rings

> <PUBCHEM_HEAVY_ATOM_COUNT>
21

> <PUBCHEM_ATOM_DEF_STEREO_COUNT>
3

> <PUBCHEM_ATOM_UDEF_STEREO_COUNT>
1

> <PUBCHEM_BOND_DEF_STEREO_COUNT>
0

> <PUBCHEM_BOND_UDEF_STEREO_COUNT>
1

> <PUBCHEM_ISOTOPIC_ATOM_COUNT>
0

> <PUBCHEM_COMPONENT_COUNT>
1

> <PUBCHEM_CACTVS_TAUTO_COUNT>
1

> <PUBCHEM_CONFORMER_ID>
0001E4FC00000005

> <PUBCHEM_MMFF94_ENERGY>
45.9825

> <PUBCHEM_FEATURE_SELFOVERLAP>
66.592

> <PUBCHEM_SHAPE_FINGERPRINT>
10014705 185 18187082892804421569
10366900 7 17775569749117421113
10498660 4 18336272318162372228
10608611 8 18410577275545007224
12403260 363 18268145362277001986
12969540 114 18041263414608462311
13675066 3 17749117694323998739
14528608 73 18201438116189663748
14790565 3 18265621979287737193
14911166 2 18334293141898811135
15196674 1 18408606984761835459
15219456 202 18412832403831635938
15375358 24 18410858771679952267
17834072 33 18131629002361714173
18186145 218 17458060469482404770
18222031 100 14548736222692559361
200 152 17346312657470889059
20279233 1 18341619195868862523
20645477 56 18186522115914619461
20645477 70 18131352964507723358
21029758 11 18413669110980252945
23402539 116 18408035217224822150
23557571 272 18189914165131387238
23558518 356 17769669602382905569
23559900 14 18409732842235911234
296302 2 18411986891963437689
3004659 81 18187645774059608170
34934 24 18335697286270703594
3545911 37 18334579057655785340
3759504 43 17022906753159020931
4340502 62 15791732980101638161
474 4 17386297605059775196
495365 180 17846484968070450616
5104073 3 18335425681128827082
5283173 99 18334851667841395149
58051976 378 18343588438822283108
633830 44 18340202965242637101
69090 78 18342736291324876495
9709674 26 18270409269456269438

> <PUBCHEM_SHAPE_MULTIPOLES>
373.83
10.43
2.21
0.88
6.75
0.01
0.11
2.38
1.87
-1.75
0.02
-0.08
-0.22
0.85

> <PUBCHEM_SHAPE_SELFOVERLAP>
813.592

> <PUBCHEM_SHAPE_VOLUME>
200.3

> <PUBCHEM_COORDINATE_TYPE>
2
5
10

$$$$
