124147
  -OEChem-03292013323D

 40 41  0     1  0  0  0  0  0999 V2000
   -4.3090    0.1098   -1.2963 Br  0  0  0  0  0  0  0  0  0  0  0  0
    1.9162    0.5635    0.2496 O   0  0  0  0  0  0  0  0  0  0  0  0
   -1.7619    1.6396   -0.4708 O   0  0  0  0  0  0  0  0  0  0  0  0
    3.7809   -2.1507   -1.1782 O   0  0  0  0  0  0  0  0  0  0  0  0
    4.2801    1.2726    1.6015 O   0  0  0  0  0  0  0  0  0  0  0  0
    0.5927   -0.7444    1.9736 O   0  0  0  0  0  0  0  0  0  0  0  0
   -3.9718   -0.9252    1.5265 O   0  0  0  0  0  0  0  0  0  0  0  0
   -0.2949   -0.1333   -0.0923 N   0  0  0  0  0  0  0  0  0  0  0  0
   -1.6894   -0.7031    1.7238 N   0  0  0  0  0  0  0  0  0  0  0  0
    0.9773    0.0724   -0.7205 C   0  0  2  0  0  0  0  0  0  0  0  0
    1.5644   -1.2002   -1.3031 C   0  0  0  0  0  0  0  0  0  0  0  0
    3.0468   -0.9445   -1.1720 C   0  0  1  0  0  0  0  0  0  0  0  0
    3.1093   -0.2343    0.1709 C   0  0  1  0  0  0  0  0  0  0  0  0
   -1.4877    0.2847   -0.8252 C   0  0  1  0  0  0  0  0  0  0  0  0
   -2.6695   -0.6363   -0.5087 C   0  0  1  0  0  0  0  0  0  0  0  0
    4.3290    0.6563    0.3268 C   0  0  0  0  0  0  0  0  0  0  0  0
   -0.3807   -0.5349    1.2465 C   0  0  0  0  0  0  0  0  0  0  0  0
   -2.8795   -0.7408    0.9930 C   0  0  0  0  0  0  0  0  0  0  0  0
   -2.4796   -2.0402   -1.0895 C   0  0  0  0  0  0  0  0  0  0  0  0
   -0.6607    2.4833   -0.7684 C   0  0  0  0  0  0  0  0  0  0  0  0
   -1.0120    3.9056   -0.3870 C   0  0  0  0  0  0  0  0  0  0  0  0
    0.9322    0.8017   -1.5327 H   0  0  0  0  0  0  0  0  0  0  0  0
    1.2475   -1.3813   -2.3352 H   0  0  0  0  0  0  0  0  0  0  0  0
    1.2712   -2.0876   -0.7272 H   0  0  0  0  0  0  0  0  0  0  0  0
    3.3975   -0.3032   -1.9888 H   0  0  0  0  0  0  0  0  0  0  0  0
    3.0806   -0.9486    1.0033 H   0  0  0  0  0  0  0  0  0  0  0  0
   -1.2809    0.2379   -1.9035 H   0  0  0  0  0  0  0  0  0  0  0  0
    4.3323    1.4508   -0.4268 H   0  0  0  0  0  0  0  0  0  0  0  0
    5.2536    0.0766    0.2478 H   0  0  0  0  0  0  0  0  0  0  0  0
   -2.3573   -2.0110   -2.1783 H   0  0  0  0  0  0  0  0  0  0  0  0
   -1.5988   -2.5380   -0.6690 H   0  0  0  0  0  0  0  0  0  0  0  0
   -3.3401   -2.6840   -0.8702 H   0  0  0  0  0  0  0  0  0  0  0  0
   -1.7777   -0.8772    2.7213 H   0  0  0  0  0  0  0  0  0  0  0  0
    3.4678   -2.7046   -0.4431 H   0  0  0  0  0  0  0  0  0  0  0  0
    0.2016    2.2638   -0.1417 H   0  0  0  0  0  0  0  0  0  0  0  0
   -0.4177    2.4471   -1.8352 H   0  0  0  0  0  0  0  0  0  0  0  0
    5.0686    1.8367    1.6776 H   0  0  0  0  0  0  0  0  0  0  0  0
   -0.1800    4.5852   -0.5926 H   0  0  0  0  0  0  0  0  0  0  0  0
   -1.8908    4.2465   -0.9446 H   0  0  0  0  0  0  0  0  0  0  0  0
   -1.2674    3.9704    0.6761 H   0  0  0  0  0  0  0  0  0  0  0  0
  1 15  1  0  0  0  0
  2 10  1  0  0  0  0
  2 13  1  0  0  0  0
  3 14  1  0  0  0  0
  3 20  1  0  0  0  0
  4 12  1  0  0  0  0
  4 34  1  0  0  0  0
  5 16  1  0  0  0  0
  5 37  1  0  0  0  0
  6 17  2  0  0  0  0
  7 18  2  0  0  0  0
  8 10  1  0  0  0  0
  8 14  1  0  0  0  0
  8 17  1  0  0  0  0
  9 17  1  0  0  0  0
  9 18  1  0  0  0  0
  9 33  1  0  0  0  0
 10 11  1  0  0  0  0
 10 22  1  0  0  0  0
 11 12  1  0  0  0  0
 11 23  1  0  0  0  0
 11 24  1  0  0  0  0
 12 13  1  0  0  0  0
 12 25  1  0  0  0  0
 13 16  1  0  0  0  0
 13 26  1  0  0  0  0
 14 15  1  0  0  0  0
 14 27  1  0  0  0  0
 15 18  1  0  0  0  0
 15 19  1  0  0  0  0
 16 28  1  0  0  0  0
 16 29  1  0  0  0  0
 19 30  1  0  0  0  0
 19 31  1  0  0  0  0
 19 32  1  0  0  0  0
 20 21  1  0  0  0  0
 20 35  1  0  0  0  0
 20 36  1  0  0  0  0
 21 38  1  0  0  0  0
 21 39  1  0  0  0  0
 21 40  1  0  0  0  0
M  END
> <PUBCHEM_COMPOUND_CID>
124147

> <PUBCHEM_CONFORMER_RMSD>
0.8

> <PUBCHEM_CONFORMER_DIVERSEORDER>
3
35
39
53
76
62
73
24
52
28
20
26
31
17
10
48
7
22
70
75
67
34
41
30
74
14
2
5
58
66
12
49
40
56
57
65
21
63
71
44
68
16
19
23
51
11
8
77
38
18
45
72
43
50
29
46
47
9
15
60
64
13
55
42
1
27
59
37
36
69
33
4
6
54
32
61
25

> <PUBCHEM_MMFF94_PARTIAL_CHARGES>
21
1 -0.23
10 0.58
12 0.28
13 0.28
14 0.58
15 0.29
16 0.28
17 0.69
18 0.57
2 -0.56
20 0.28
3 -0.56
33 0.37
34 0.4
37 0.4
4 -0.68
5 -0.68
6 -0.57
7 -0.57
8 -0.66
9 -0.49

> <PUBCHEM_EFFECTIVE_ROTOR_COUNT>
5.8

> <PUBCHEM_PHARMACOPHORE_FEATURES>
13
1 1 hydrophobe
1 2 acceptor
1 3 acceptor
1 4 acceptor
1 4 donor
1 5 acceptor
1 5 donor
1 6 acceptor
1 7 acceptor
1 9 donor
3 1 15 19 hydrophobe
5 2 10 11 12 13 rings
6 8 9 14 15 17 18 rings

> <PUBCHEM_HEAVY_ATOM_COUNT>
21

> <PUBCHEM_ATOM_DEF_STEREO_COUNT>
0

> <PUBCHEM_ATOM_UDEF_STEREO_COUNT>
5

> <PUBCHEM_BOND_DEF_STEREO_COUNT>
0

> <PUBCHEM_BOND_UDEF_STEREO_COUNT>
0

> <PUBCHEM_ISOTOPIC_ATOM_COUNT>
0

> <PUBCHEM_COMPONENT_COUNT>
1

> <PUBCHEM_CACTVS_TAUTO_COUNT>
3

> <PUBCHEM_CONFORMER_ID>
0001E4F300000003

> <PUBCHEM_MMFF94_ENERGY>
63.1947

> <PUBCHEM_FEATURE_SELFOVERLAP>
66.934

> <PUBCHEM_SHAPE_FINGERPRINT>
10062212 137 15792002415783838443
11578080 2 17345169147950480000
12236239 1 15430035470311926394
12403814 3 18201712964036721575
12553582 1 18338529649730353045
13083527 12 17328588834810833650
14289901 80 18410008845355598174
15375358 24 18335693962008292655
16752209 62 16878234129029033627
16945 1 18187091645483696615
17349148 13 17095234822403692162
1813 80 18337681918049877567
18186145 218 17095248037632829799
19049666 15 18265899043115918862
200 152 17060614482235997759
20510252 161 17894639157597862528
20600515 1 17676766586437258900
21041028 32 18262251022623438529
21524375 3 17397830081480343493
23402539 116 18261660571571869182
23557571 272 18334579040227755888
23558518 356 18191585242138042540
23559900 14 17821733823664091062
3286 77 16558735820122045063
34934 24 18335125493401593709
474 4 17345182501694652840
6049 1 18270690749218239532
6913067 236 17986365945547216036
81228 2 18189059702625801733

> <PUBCHEM_SHAPE_MULTIPOLES>
392.93
7.51
2.56
1.68
3.53
3.05
0.59
-1.57
-0.09
-0.59
-0.76
-0.27
-0.58
1.37

> <PUBCHEM_SHAPE_SELFOVERLAP>
798.627

> <PUBCHEM_SHAPE_VOLUME>
232.8

> <PUBCHEM_COORDINATE_TYPE>
2
5
10

$$$$
