124181
  -OEChem-03292013323D

 43 45  0     0  0  0  0  0  0999 V2000
    2.5242   -2.3742    0.4593 S   0  0  0  0  0  0  0  0  0  0  0  0
   -5.2410    1.6252   -0.4294 S   0  0  0  0  0  0  0  0  0  0  0  0
   -0.6214    1.6916    0.7723 O   0  0  0  0  0  0  0  0  0  0  0  0
    3.9586   -2.5082    0.6598 O   0  0  0  0  0  0  0  0  0  0  0  0
    1.5980   -2.9680    1.4107 O   0  0  0  0  0  0  0  0  0  0  0  0
   -0.2952   -1.2685    2.2733 O   0  0  0  0  0  0  0  0  0  0  0  0
    3.5117    3.7643   -0.7357 O   0  0  0  0  0  0  0  0  0  0  0  0
    5.0933    2.1466   -0.9540 O   0  0  0  0  0  0  0  0  0  0  0  0
    2.1298   -2.9212   -1.1096 N   0  0  0  0  0  0  0  0  0  0  0  0
    0.9037   -0.1548    0.6021 C   0  0  0  0  0  0  0  0  0  0  0  0
    2.1489   -0.6694    0.3167 C   0  0  0  0  0  0  0  0  0  0  0  0
    0.6128    1.1874    0.4883 C   0  0  0  0  0  0  0  0  0  0  0  0
    3.1544    0.2013   -0.1037 C   0  0  0  0  0  0  0  0  0  0  0  0
    2.8891    1.5651   -0.2279 C   0  0  0  0  0  0  0  0  0  0  0  0
    1.6183    2.0580    0.0681 C   0  0  0  0  0  0  0  0  0  0  0  0
   -0.1846   -1.0737    1.0536 C   0  0  0  0  0  0  0  0  0  0  0  0
   -1.0912   -1.7254    0.1219 C   0  0  0  0  0  0  0  0  0  0  0  0
   -1.3063    2.3602   -0.2846 C   0  0  0  0  0  0  0  0  0  0  0  0
   -2.7855    2.2195   -0.0758 C   0  0  0  0  0  0  0  0  0  0  0  0
    3.9371    2.4731   -0.6666 C   0  0  0  0  0  0  0  0  0  0  0  0
   -0.9620   -1.5021   -1.2489 C   0  0  0  0  0  0  0  0  0  0  0  0
   -2.0902   -2.5738    0.5991 C   0  0  0  0  0  0  0  0  0  0  0  0
   -3.4548    2.6945    1.0758 C   0  0  0  0  0  0  0  0  0  0  0  0
   -3.6187    1.6184   -0.9776 C   0  0  0  0  0  0  0  0  0  0  0  0
   -1.8318   -2.1271   -2.1425 C   0  0  0  0  0  0  0  0  0  0  0  0
   -2.9600   -3.1989   -0.2944 C   0  0  0  0  0  0  0  0  0  0  0  0
   -2.8307   -2.9754   -1.6652 C   0  0  0  0  0  0  0  0  0  0  0  0
   -4.8063    2.4358    1.0150 C   0  0  0  0  0  0  0  0  0  0  0  0
    4.1442   -0.1780   -0.3443 H   0  0  0  0  0  0  0  0  0  0  0  0
    1.3874    3.1171   -0.0096 H   0  0  0  0  0  0  0  0  0  0  0  0
   -1.0206    1.9458   -1.2606 H   0  0  0  0  0  0  0  0  0  0  0  0
   -1.0376    3.4232   -0.2691 H   0  0  0  0  0  0  0  0  0  0  0  0
    2.9041   -3.1865   -1.7304 H   0  0  0  0  0  0  0  0  0  0  0  0
    1.2953   -3.5113   -1.2129 H   0  0  0  0  0  0  0  0  0  0  0  0
   -0.2016   -0.8472   -1.6633 H   0  0  0  0  0  0  0  0  0  0  0  0
   -2.2122   -2.7645    1.6620 H   0  0  0  0  0  0  0  0  0  0  0  0
   -2.9854    3.1998    1.9102 H   0  0  0  0  0  0  0  0  0  0  0  0
   -3.3692    1.1724   -1.9304 H   0  0  0  0  0  0  0  0  0  0  0  0
   -1.7324   -1.9523   -3.2097 H   0  0  0  0  0  0  0  0  0  0  0  0
   -3.7382   -3.8593    0.0768 H   0  0  0  0  0  0  0  0  0  0  0  0
   -3.5084   -3.4616   -2.3609 H   0  0  0  0  0  0  0  0  0  0  0  0
   -5.5593    2.6839    1.7497 H   0  0  0  0  0  0  0  0  0  0  0  0
    4.2253    4.3682   -1.0330 H   0  0  0  0  0  0  0  0  0  0  0  0
  1  4  2  0  0  0  0
  1  5  2  0  0  0  0
  1  9  1  0  0  0  0
  1 11  1  0  0  0  0
  2 24  1  0  0  0  0
  2 28  1  0  0  0  0
  3 12  1  0  0  0  0
  3 18  1  0  0  0  0
  6 16  2  0  0  0  0
  7 20  1  0  0  0  0
  7 43  1  0  0  0  0
  8 20  2  0  0  0  0
  9 33  1  0  0  0  0
  9 34  1  0  0  0  0
 10 11  1  0  0  0  0
 10 12  2  0  0  0  0
 10 16  1  0  0  0  0
 11 13  2  0  0  0  0
 12 15  1  0  0  0  0
 13 14  1  0  0  0  0
 13 29  1  0  0  0  0
 14 15  2  0  0  0  0
 14 20  1  0  0  0  0
 15 30  1  0  0  0  0
 16 17  1  0  0  0  0
 17 21  2  0  0  0  0
 17 22  1  0  0  0  0
 18 19  1  0  0  0  0
 18 31  1  0  0  0  0
 18 32  1  0  0  0  0
 19 23  1  0  0  0  0
 19 24  2  0  0  0  0
 21 25  1  0  0  0  0
 21 35  1  0  0  0  0
 22 26  2  0  0  0  0
 22 36  1  0  0  0  0
 23 28  2  0  0  0  0
 23 37  1  0  0  0  0
 24 38  1  0  0  0  0
 25 27  2  0  0  0  0
 25 39  1  0  0  0  0
 26 27  1  0  0  0  0
 26 40  1  0  0  0  0
 27 41  1  0  0  0  0
 28 42  1  0  0  0  0
M  END
> <PUBCHEM_COMPOUND_CID>
124181

> <PUBCHEM_CONFORMER_RMSD>
0.8

> <PUBCHEM_CONFORMER_DIVERSEORDER>
1
10
68
46
22
60
67
49
9
21
43
28
57
44
24
8
34
29
36
53
31
41
58
27
37
23
5
61
45
69
47
2
40
16
20
4
19
25
54
33
51
50
6
39
65
26
38
48
30
11
7
62
66
14
17
59
63
32
42
3
64
15
52
12
18
56
13
55
35

> <PUBCHEM_MMFF94_PARTIAL_CHARGES>
41
1 1.45
10 0.09
11 -0.01
12 0.08
13 -0.15
14 0.09
15 -0.15
16 0.4
17 0.09
18 0.46
19 -0.18
2 -0.08
20 0.63
21 -0.15
22 -0.15
23 -0.15
24 -0.11
25 -0.15
26 -0.15
27 -0.15
28 -0.11
29 0.15
3 -0.36
30 0.15
33 0.42
34 0.42
35 0.15
36 0.15
37 0.15
38 0.15
39 0.15
4 -0.65
40 0.15
41 0.15
42 0.15
43 0.5
5 -0.65
6 -0.57
7 -0.65
8 -0.57
9 -0.98

> <PUBCHEM_EFFECTIVE_ROTOR_COUNT>
7

> <PUBCHEM_PHARMACOPHORE_FEATURES>
11
1 3 acceptor
1 4 acceptor
1 5 acceptor
1 6 acceptor
1 7 acceptor
1 8 acceptor
1 9 donor
3 7 8 20 anion
5 2 19 23 24 28 rings
6 10 11 12 13 14 15 rings
6 17 21 22 25 26 27 rings

> <PUBCHEM_HEAVY_ATOM_COUNT>
28

> <PUBCHEM_ATOM_DEF_STEREO_COUNT>
0

> <PUBCHEM_ATOM_UDEF_STEREO_COUNT>
0

> <PUBCHEM_BOND_DEF_STEREO_COUNT>
0

> <PUBCHEM_BOND_UDEF_STEREO_COUNT>
0

> <PUBCHEM_ISOTOPIC_ATOM_COUNT>
0

> <PUBCHEM_COMPONENT_COUNT>
1

> <PUBCHEM_CACTVS_TAUTO_COUNT>
1

> <PUBCHEM_CONFORMER_ID>
0001E51500000001

> <PUBCHEM_MMFF94_ENERGY>
73.9256

> <PUBCHEM_FEATURE_SELFOVERLAP>
55.907

> <PUBCHEM_SHAPE_FINGERPRINT>
10190108 129 17973187267991349667
104564 63 18196370540311914277
10871710 139 18122916587913111957
1100329 8 18337388223833395602
12788726 201 17907012133960526768
13140716 1 18410284831491147136
13583140 156 17823707360836059435
14713325 29 18266466588452439695
15664445 248 16186030236318292311
16628084 112 17186445638246805270
16752209 62 18193275428466059504
17138139 8 17770461444940984861
17980427 23 18191276400420200736
17980427 26 17386278788232863497
18681886 176 18122334684084442968
19591789 44 17835513817710487559
20028762 73 17985534564823600927
21236236 1 18265335204094464932
23419403 2 17546784400607514161
23558518 356 18261115235010283914
23559900 14 18342173333261230880
25147074 1 18334283297744319080
283562 15 18049722124426649616
3027735 51 18194967563369273200
3178227 256 18048326552540435721
469060 322 17972330774335049721
5171179 24 17554890244957051144
6287921 2 17555737604066231277

> <PUBCHEM_SHAPE_MULTIPOLES>
543.73
8.55
5.19
1.48
1.61
0.88
-0.05
-6.48
-1.18
0.09
-0.82
0.5
0.81
-2.49

> <PUBCHEM_SHAPE_SELFOVERLAP>
1166.068

> <PUBCHEM_SHAPE_VOLUME>
302.1

> <PUBCHEM_COORDINATE_TYPE>
2
5
10

$$$$
