124273
  -OEChem-03292013323D

 23 24  0     1  0  0  0  0  0999 V2000
   -4.4703   -0.1429   -0.7117 O   0  0  0  0  0  0  0  0  0  0  0  0
    1.2453    0.2455    0.1503 O   0  0  0  0  0  0  0  0  0  0  0  0
   -1.5497   -1.8805    0.3147 O   0  0  0  0  0  0  0  0  0  0  0  0
    4.6668    0.8028   -0.3095 O   0  5  0  0  0  0  0  0  0  0  0  0
    3.0140    2.1736    0.1464 O   0  0  0  0  0  0  0  0  0  0  0  0
   -1.3763    0.4027    0.5872 N   0  0  0  0  0  0  0  0  0  0  0  0
    3.4362    1.0026   -0.0873 N   0  3  0  0  0  0  0  0  0  0  0  0
   -3.5332    0.8811   -0.4160 C   0  0  1  0  0  0  0  0  0  0  0  0
   -4.9917    1.1433   -0.3528 C   0  0  0  0  0  0  0  0  0  0  0  0
   -2.7741    0.6181    0.8705 C   0  0  0  0  0  0  0  0  0  0  0  0
   -0.8589   -0.8622    0.3245 C   0  0  0  0  0  0  0  0  0  0  0  0
    0.5903   -0.9192    0.0872 C   0  0  0  0  0  0  0  0  0  0  0  0
    1.3804   -1.9724   -0.1883 C   0  0  0  0  0  0  0  0  0  0  0  0
    2.5429   -0.0703   -0.1002 C   0  0  0  0  0  0  0  0  0  0  0  0
    2.6782   -1.4222   -0.3150 C   0  0  0  0  0  0  0  0  0  0  0  0
   -2.9626    1.3359   -1.2129 H   0  0  0  0  0  0  0  0  0  0  0  0
   -5.4679    1.2383    0.6145 H   0  0  0  0  0  0  0  0  0  0  0  0
   -5.4416    1.7351   -1.1392 H   0  0  0  0  0  0  0  0  0  0  0  0
   -3.1811   -0.2410    1.4151 H   0  0  0  0  0  0  0  0  0  0  0  0
   -2.8370    1.4999    1.5162 H   0  0  0  0  0  0  0  0  0  0  0  0
   -0.7571    1.2083    0.5752 H   0  0  0  0  0  0  0  0  0  0  0  0
    1.0942   -3.0091   -0.2914 H   0  0  0  0  0  0  0  0  0  0  0  0
    3.5946   -1.9515   -0.5355 H   0  0  0  0  0  0  0  0  0  0  0  0
  1  8  1  0  0  0  0
  1  9  1  0  0  0  0
  2 12  1  0  0  0  0
  2 14  1  0  0  0  0
  3 11  2  0  0  0  0
  4  7  1  0  0  0  0
  5  7  2  0  0  0  0
  6 10  1  0  0  0  0
  6 11  1  0  0  0  0
  6 21  1  0  0  0  0
  7 14  1  0  0  0  0
  8  9  1  0  0  0  0
  8 10  1  0  0  0  0
  8 16  1  0  0  0  0
  9 17  1  0  0  0  0
  9 18  1  0  0  0  0
 10 19  1  0  0  0  0
 10 20  1  0  0  0  0
 11 12  1  0  0  0  0
 12 13  2  0  0  0  0
 13 15  1  0  0  0  0
 13 22  1  0  0  0  0
 14 15  2  0  0  0  0
 15 23  1  0  0  0  0
M  CHG  2   4  -1   7   1
M  END
> <PUBCHEM_COMPOUND_CID>
124273

> <PUBCHEM_CONFORMER_RMSD>
0.6

> <PUBCHEM_CONFORMER_DIVERSEORDER>
2
31
14
4
23
29
13
10
33
20
7
22
26
17
19
15
32
11
9
24
30
18
25
27
8
16
21
5
28
3
6
12
1

> <PUBCHEM_MMFF94_PARTIAL_CHARGES>
21
1 -0.3
10 0.4
11 0.71
12 0.05
13 -0.15
14 0.22
15 -0.15
16 0.1
17 0.1
18 0.1
2 -0.28
21 0.37
22 0.15
23 0.15
3 -0.57
4 -0.52
5 -0.52
6 -0.73
7 0.96
8 -0.05
9 -0.05

> <PUBCHEM_EFFECTIVE_ROTOR_COUNT>
5.6

> <PUBCHEM_PHARMACOPHORE_FEATURES>
8
1 1 acceptor
1 2 acceptor
1 3 acceptor
1 4 acceptor
1 4 anion
1 5 acceptor
1 6 donor
5 2 12 13 14 15 rings

> <PUBCHEM_HEAVY_ATOM_COUNT>
15

> <PUBCHEM_ATOM_DEF_STEREO_COUNT>
0

> <PUBCHEM_ATOM_UDEF_STEREO_COUNT>
1

> <PUBCHEM_BOND_DEF_STEREO_COUNT>
0

> <PUBCHEM_BOND_UDEF_STEREO_COUNT>
0

> <PUBCHEM_ISOTOPIC_ATOM_COUNT>
0

> <PUBCHEM_COMPONENT_COUNT>
1

> <PUBCHEM_CACTVS_TAUTO_COUNT>
2

> <PUBCHEM_CONFORMER_ID>
0001E57100000002

> <PUBCHEM_MMFF94_ENERGY>
21.0706

> <PUBCHEM_FEATURE_SELFOVERLAP>
40.69

> <PUBCHEM_SHAPE_FINGERPRINT>
10608611 8 18408608058482359027
11471102 20 18411703149692446150
11543360 7 16200149915032382057
12251169 10 11602825696217844209
12616999 72 16630526210963792447
13380535 76 18411420613590099914
13675066 3 10087629400052887767
14251717 144 18341330015694338669
14897335 6 18411418418766742610
15885798 251 10087920783387437415
17834072 32 18189623906983986580
17834072 8 18342466928772820614
18186145 218 18268995293539908071
20645477 56 18186524306653668155
20645477 70 18270401581512405807
20871999 31 17916853721392164591
21499 59 18411418401866448319
21524375 3 18410855477629985834
22096605 113 18411699872379107387
22959321 54 18412827966903715321
231179 274 18186802474252476684
23402539 116 18412535505379374165
23402655 69 18272930479978605037
23559900 14 18342454799216094298
3060560 45 18202006499814577174
328317 168 18334855030684158493
3545911 37 18410017649474162883
4047638 21 18334579014273368322
42 15 9007054682374375061
43658 37 18200304549861149744
474 4 18407760352134162637
548570 60 18040715861801911253
633830 44 18268994185670564927
83771 10 9439405726568846682
94968 8 10807935968388551012

> <PUBCHEM_SHAPE_MULTIPOLES>
269.38
9.08
1.87
0.73
5.58
0.11
0.03
-4.54
-1.85
-1.41
0
0.4
-0.01
0.18

> <PUBCHEM_SHAPE_SELFOVERLAP>
565.026

> <PUBCHEM_SHAPE_VOLUME>
153.1

> <PUBCHEM_COORDINATE_TYPE>
2
5
10

$$$$
