124277
  -OEChem-03292013323D

 50 54  0     1  0  0  0  0  0999 V2000
   -5.4338    0.6319   -0.3639 O   0  0  0  0  0  0  0  0  0  0  0  0
   -2.1231    3.2094    0.2326 O   0  0  0  0  0  0  0  0  0  0  0  0
   -6.2133   -1.3819   -0.9300 O   0  0  0  0  0  0  0  0  0  0  0  0
    7.2045   -1.2542    0.0837 O   0  0  0  0  0  0  0  0  0  0  0  0
   -0.6310    1.4516    0.0903 N   0  0  0  0  0  0  0  0  0  0  0  0
   -3.6861   -2.2984   -1.2888 N   0  0  0  0  0  0  0  0  0  0  0  0
    1.6744   -1.3034   -0.0818 N   0  0  0  0  0  0  0  0  0  0  0  0
   -3.8998   -1.3094   -0.2193 C   0  0  2  0  0  0  0  0  0  0  0  0
   -2.7718   -0.3041   -0.1282 C   0  0  0  0  0  0  0  0  0  0  0  0
   -0.3939    0.0935   -0.0233 C   0  0  0  0  0  0  0  0  0  0  0  0
    0.6357    2.2053    0.1925 C   0  0  0  0  0  0  0  0  0  0  0  0
    1.6559    1.1170    0.1279 C   0  0  0  0  0  0  0  0  0  0  0  0
   -3.0237    1.0110   -0.0001 C   0  0  0  0  0  0  0  0  0  0  0  0
    1.0457   -0.1228    0.0022 C   0  0  0  0  0  0  0  0  0  0  0  0
   -1.3937   -0.7854   -0.1250 C   0  0  0  0  0  0  0  0  0  0  0  0
   -1.8955    2.0071    0.1181 C   0  0  0  0  0  0  0  0  0  0  0  0
   -4.0571   -2.0544    1.1173 C   0  0  0  0  0  0  0  0  0  0  0  0
    3.0287    1.1700    0.1729 C   0  0  0  0  0  0  0  0  0  0  0  0
   -4.4071    1.5529    0.0491 C   0  0  0  0  0  0  0  0  0  0  0  0
   -5.2652   -0.6939   -0.5494 C   0  0  0  0  0  0  0  0  0  0  0  0
    3.7428   -0.0368    0.0890 C   0  0  0  0  0  0  0  0  0  0  0  0
    3.6990    2.4976    0.3081 C   0  0  0  0  0  0  0  0  0  0  0  0
    3.0217   -1.2579   -0.0381 C   0  0  0  0  0  0  0  0  0  0  0  0
   -4.4007   -1.0954    2.2351 C   0  0  0  0  0  0  0  0  0  0  0  0
    5.1459   -0.0487    0.1285 C   0  0  0  0  0  0  0  0  0  0  0  0
    4.0001    3.1343   -1.0454 C   0  0  0  0  0  0  0  0  0  0  0  0
    3.7501   -2.4401   -0.1195 C   0  0  0  0  0  0  0  0  0  0  0  0
    5.8447   -1.2500    0.0445 C   0  0  0  0  0  0  0  0  0  0  0  0
    5.1466   -2.4450   -0.0794 C   0  0  0  0  0  0  0  0  0  0  0  0
    0.6443    2.7441    1.1447 H   0  0  0  0  0  0  0  0  0  0  0  0
    0.6978    2.9012   -0.6492 H   0  0  0  0  0  0  0  0  0  0  0  0
   -1.2005   -1.8497   -0.2009 H   0  0  0  0  0  0  0  0  0  0  0  0
   -3.1424   -2.6030    1.3767 H   0  0  0  0  0  0  0  0  0  0  0  0
   -4.8580   -2.8037    1.0524 H   0  0  0  0  0  0  0  0  0  0  0  0
   -4.6523    1.8905    1.0616 H   0  0  0  0  0  0  0  0  0  0  0  0
   -4.4955    2.4163   -0.6191 H   0  0  0  0  0  0  0  0  0  0  0  0
   -3.7308   -1.8433   -2.2000 H   0  0  0  0  0  0  0  0  0  0  0  0
   -4.4265   -2.9989   -1.2771 H   0  0  0  0  0  0  0  0  0  0  0  0
    3.0539    3.1824    0.8740 H   0  0  0  0  0  0  0  0  0  0  0  0
    4.6061    2.4439    0.9186 H   0  0  0  0  0  0  0  0  0  0  0  0
   -3.6059   -0.3711    2.4340 H   0  0  0  0  0  0  0  0  0  0  0  0
   -5.3386   -0.5596    2.0654 H   0  0  0  0  0  0  0  0  0  0  0  0
   -4.5349   -1.6638    3.1630 H   0  0  0  0  0  0  0  0  0  0  0  0
    5.7275    0.8646    0.2091 H   0  0  0  0  0  0  0  0  0  0  0  0
    4.6822    2.5134   -1.6354 H   0  0  0  0  0  0  0  0  0  0  0  0
    4.4697    4.1131   -0.9048 H   0  0  0  0  0  0  0  0  0  0  0  0
    3.0865    3.2790   -1.6315 H   0  0  0  0  0  0  0  0  0  0  0  0
    3.2295   -3.3911   -0.2174 H   0  0  0  0  0  0  0  0  0  0  0  0
    5.6808   -3.3890   -0.1459 H   0  0  0  0  0  0  0  0  0  0  0  0
    7.5226   -0.3396    0.1732 H   0  0  0  0  0  0  0  0  0  0  0  0
  1 19  1  0  0  0  0
  1 20  1  0  0  0  0
  2 16  2  0  0  0  0
  3 20  2  0  0  0  0
  4 28  1  0  0  0  0
  4 50  1  0  0  0  0
  5 10  1  0  0  0  0
  5 11  1  0  0  0  0
  5 16  1  0  0  0  0
  6  8  1  0  0  0  0
  6 37  1  0  0  0  0
  6 38  1  0  0  0  0
  7 14  2  0  0  0  0
  7 23  1  0  0  0  0
  8  9  1  0  0  0  0
  8 17  1  0  0  0  0
  8 20  1  0  0  0  0
  9 13  2  0  0  0  0
  9 15  1  0  0  0  0
 10 14  1  0  0  0  0
 10 15  2  0  0  0  0
 11 12  1  0  0  0  0
 11 30  1  0  0  0  0
 11 31  1  0  0  0  0
 12 14  1  0  0  0  0
 12 18  2  0  0  0  0
 13 16  1  0  0  0  0
 13 19  1  0  0  0  0
 15 32  1  0  0  0  0
 17 24  1  0  0  0  0
 17 33  1  0  0  0  0
 17 34  1  0  0  0  0
 18 21  1  0  0  0  0
 18 22  1  0  0  0  0
 19 35  1  0  0  0  0
 19 36  1  0  0  0  0
 21 23  2  0  0  0  0
 21 25  1  0  0  0  0
 22 26  1  0  0  0  0
 22 39  1  0  0  0  0
 22 40  1  0  0  0  0
 23 27  1  0  0  0  0
 24 41  1  0  0  0  0
 24 42  1  0  0  0  0
 24 43  1  0  0  0  0
 25 28  2  0  0  0  0
 25 44  1  0  0  0  0
 26 45  1  0  0  0  0
 26 46  1  0  0  0  0
 26 47  1  0  0  0  0
 27 29  2  0  0  0  0
 27 48  1  0  0  0  0
 28 29  1  0  0  0  0
 29 49  1  0  0  0  0
M  END
> <PUBCHEM_COMPOUND_CID>
124277

> <PUBCHEM_CONFORMER_RMSD>
0.8

> <PUBCHEM_CONFORMER_DIVERSEORDER>
1
2

> <PUBCHEM_MMFF94_PARTIAL_CHARGES>
32
1 -0.43
10 0.08
11 0.44
12 -0.14
13 -0.12
14 0.34
15 -0.15
16 0.62
18 -0.14
19 0.42
2 -0.57
20 0.66
22 0.14
23 0.31
25 -0.15
27 -0.15
28 0.08
29 -0.15
3 -0.57
32 0.15
37 0.36
38 0.36
4 -0.53
44 0.15
48 0.15
49 0.15
5 -0.47
50 0.45
6 -0.99
7 -0.62
8 0.47
9 -0.14

> <PUBCHEM_EFFECTIVE_ROTOR_COUNT>
2.8

> <PUBCHEM_PHARMACOPHORE_FEATURES>
13
1 2 acceptor
1 24 hydrophobe
1 26 hydrophobe
1 3 acceptor
1 4 donor
1 6 cation
1 6 donor
1 7 acceptor
5 5 10 11 12 14 rings
6 1 8 9 13 19 20 rings
6 21 23 25 27 28 29 rings
6 5 9 10 13 15 16 rings
6 7 12 14 18 21 23 rings

> <PUBCHEM_HEAVY_ATOM_COUNT>
29

> <PUBCHEM_ATOM_DEF_STEREO_COUNT>
0

> <PUBCHEM_ATOM_UDEF_STEREO_COUNT>
1

> <PUBCHEM_BOND_DEF_STEREO_COUNT>
0

> <PUBCHEM_BOND_UDEF_STEREO_COUNT>
0

> <PUBCHEM_ISOTOPIC_ATOM_COUNT>
0

> <PUBCHEM_COMPONENT_COUNT>
1

> <PUBCHEM_CACTVS_TAUTO_COUNT>
3

> <PUBCHEM_CONFORMER_ID>
0001E57500000001

> <PUBCHEM_MMFF94_ENERGY>
86.687

> <PUBCHEM_FEATURE_SELFOVERLAP>
66.209

> <PUBCHEM_SHAPE_FINGERPRINT>
10 15 18270948121392315010
10622 236 17557681836787843671
11315181 36 18202562861129813049
11405975 8 18411422782500994921
11524674 6 16343696625737882895
11963148 33 18048874401289500338
12107183 9 17981611459410340073
12107698 1 18410852144788183022
12236239 1 17846779619753617314
12516196 113 18202276992253910882
12760667 363 18412826876340646787
13140716 1 18339933614494665353
13533116 47 18341328984949751304
13544653 18 18409171038679853911
14341114 176 18412547574559268088
14347332 77 18411413990576274445
14955137 171 18060138692379055708
15064986 266 18259992587369844733
15196674 1 18411417332145375873
15361156 5 18260556627268877045
15788980 27 18411701001892423423
15927050 60 17911233147000172876
16087824 20 18267020545620939597
17492 89 18409168830924589850
17844677 252 18411423907697913236
17857418 61 18413387627007152782
1813 80 17603583032246798108
18681886 176 18342168969595602682
18927931 339 18411706461028023927
20028762 73 18273209803198624854
21236236 1 18341331089731425417
21267235 1 18412267228773964358
21682296 61 18200600194103904902
21709351 56 18335414651990550484
21792934 111 18342168965248310265
221490 88 18408890637608660128
22149856 69 18340498871493942803
22393880 68 18040985203226926837
23522609 53 18126878012228548600
23559900 14 18411410692136434064
24771750 20 17103694701355415757
249057 3 18264208024139629693
25147074 1 18342188751688031840
3004659 81 18261105279513566000
335352 9 18340201896054522805
338550 245 18411417336878076630
350125 39 18411699881349233284
4015057 19 18338790208881424657
4073 2 18113904883290334370
4214541 1 18339922615004175245
460360 51 18198927845286186089
5104073 3 18412829092100894481
5283173 99 18188197720465404349
559249 180 18410852119276595317
67856867 119 18411697712359158756
9709674 26 18335704965724982994

> <PUBCHEM_SHAPE_MULTIPOLES>
558.39
14.96
3.23
0.96
3.06
1.37
0.28
-7.26
-0.68
1.86
-0.2
-1.23
-0.31
-0.22

> <PUBCHEM_SHAPE_SELFOVERLAP>
1259.768

> <PUBCHEM_SHAPE_VOLUME>
291.1

> <PUBCHEM_COORDINATE_TYPE>
2
5
10

$$$$
