124241
  -OEChem-03292013323D

 22 23  0     0  0  0  0  0  0999 V2000
    5.6381   -0.6406   -0.5348 Cl  0  0  0  0  0  0  0  0  0  0  0  0
    1.7203    2.0970    0.2103 O   0  0  0  0  0  0  0  0  0  0  0  0
   -4.5373   -0.0765   -0.3197 O   0  0  0  0  0  0  0  0  0  0  0  0
   -3.3250   -1.9796   -0.0462 O   0  0  0  0  0  0  0  0  0  0  0  0
   -0.2016    0.9380    0.0837 N   0  0  0  0  0  0  0  0  0  0  0  0
    1.7088   -0.2618    0.3822 N   0  0  0  0  0  0  0  0  0  0  0  0
    0.9785   -1.4331    0.3883 N   0  0  0  0  0  0  0  0  0  0  0  0
   -0.2667   -1.4067    0.2495 N   0  0  0  0  0  0  0  0  0  0  0  0
   -2.3350    1.5029   -0.1937 N   0  0  0  0  0  0  0  0  0  0  0  0
   -0.9045   -0.2318    0.0924 C   0  0  0  0  0  0  0  0  0  0  0  0
    3.1476   -0.3660    0.5475 C   0  0  0  0  0  0  0  0  0  0  0  0
    1.1701    1.0073    0.2298 C   0  0  0  0  0  0  0  0  0  0  0  0
   -2.2183    0.1413   -0.0806 C   0  0  0  0  0  0  0  0  0  0  0  0
   -1.1044    1.9547   -0.0909 C   0  0  0  0  0  0  0  0  0  0  0  0
    3.8785   -0.5101   -0.7767 C   0  0  0  0  0  0  0  0  0  0  0  0
   -3.3492   -0.7350   -0.1409 C   0  0  0  0  0  0  0  0  0  0  0  0
    3.5100    0.5247    1.0754 H   0  0  0  0  0  0  0  0  0  0  0  0
    3.3519   -1.2274    1.1953 H   0  0  0  0  0  0  0  0  0  0  0  0
   -0.8112    2.9949   -0.1352 H   0  0  0  0  0  0  0  0  0  0  0  0
    3.6955    0.3531   -1.4244 H   0  0  0  0  0  0  0  0  0  0  0  0
    3.5489   -1.4066   -1.3113 H   0  0  0  0  0  0  0  0  0  0  0  0
   -5.2944   -0.6992   -0.3571 H   0  0  0  0  0  0  0  0  0  0  0  0
  1 15  1  0  0  0  0
  2 12  2  0  0  0  0
  3 16  1  0  0  0  0
  3 22  1  0  0  0  0
  4 16  2  0  0  0  0
  5 10  1  0  0  0  0
  5 12  1  0  0  0  0
  5 14  1  0  0  0  0
  6  7  1  0  0  0  0
  6 11  1  0  0  0  0
  6 12  1  0  0  0  0
  7  8  2  0  0  0  0
  8 10  1  0  0  0  0
  9 13  1  0  0  0  0
  9 14  2  0  0  0  0
 10 13  2  0  0  0  0
 11 15  1  0  0  0  0
 11 17  1  0  0  0  0
 11 18  1  0  0  0  0
 13 16  1  0  0  0  0
 14 19  1  0  0  0  0
 15 20  1  0  0  0  0
 15 21  1  0  0  0  0
M  END
> <PUBCHEM_COMPOUND_CID>
124241

> <PUBCHEM_CONFORMER_RMSD>
0.6

> <PUBCHEM_CONFORMER_DIVERSEORDER>
1
8
10
2
9
4
7
6
5
3

> <PUBCHEM_MMFF94_PARTIAL_CHARGES>
18
1 -0.29
10 -0.03
11 0.3
12 0.64
13 0.14
14 0.04
15 0.29
16 0.81
19 0.15
2 -0.57
22 0.5
3 -0.65
4 -0.57
5 0.29
6 -0.3
7 -0.06
8 -0.13
9 -0.57

> <PUBCHEM_EFFECTIVE_ROTOR_COUNT>
3

> <PUBCHEM_PHARMACOPHORE_FEATURES>
6
1 2 acceptor
1 3 acceptor
1 4 acceptor
3 3 4 16 anion
5 5 9 10 13 14 rings
6 5 6 7 8 10 12 rings

> <PUBCHEM_HEAVY_ATOM_COUNT>
16

> <PUBCHEM_ATOM_DEF_STEREO_COUNT>
0

> <PUBCHEM_ATOM_UDEF_STEREO_COUNT>
0

> <PUBCHEM_BOND_DEF_STEREO_COUNT>
0

> <PUBCHEM_BOND_UDEF_STEREO_COUNT>
0

> <PUBCHEM_ISOTOPIC_ATOM_COUNT>
0

> <PUBCHEM_COMPONENT_COUNT>
1

> <PUBCHEM_CACTVS_TAUTO_COUNT>
1

> <PUBCHEM_CONFORMER_ID>
0001E55100000001

> <PUBCHEM_MMFF94_ENERGY>
28.6176

> <PUBCHEM_FEATURE_SELFOVERLAP>
30.629

> <PUBCHEM_SHAPE_FINGERPRINT>
11132069 177 18341322388038071595
11206711 2 18334570213922360805
11543360 7 15791734143336174210
11680986 33 18119814857137155496
12032990 46 18411702131426559347
13288520 33 18341897376726775230
13862211 1 18410568487920886146
14911166 2 18408041814405170150
14993402 34 17676210169371337126
15196674 1 18338516451253647353
15536298 74 18270396208624096592
16945 1 18337380548658207249
17804303 29 18413107272863769729
18186145 218 18041549343181376431
200 152 17846493734098564807
20300324 65 18410017615647070588
20645477 70 18341604979912040111
20871999 31 18409173177821617308
21029758 11 18413671322708880392
21267235 1 18410860992821843347
21501502 16 18118960291583489819
221490 88 18264212589383435978
23402539 116 18410291372741708390
23532345 42 18340194250869940776
23557571 272 18130232549574667924
23559900 14 18340203089912914984
2748010 2 18120088643921887627
3286 77 17274820302429787297
335352 9 18411135831968288245
7364860 26 18199466748119007592
8809292 202 18187928425815309587

> <PUBCHEM_SHAPE_MULTIPOLES>
288.63
8.47
1.83
0.69
6.68
0.47
-0.03
-3.07
-1.97
-0.85
0.06
0.35
-0.04
0.17

> <PUBCHEM_SHAPE_SELFOVERLAP>
610.001

> <PUBCHEM_SHAPE_VOLUME>
163.8

> <PUBCHEM_COORDINATE_TYPE>
2
5
10

$$$$
