124236
  -OEChem-03292013323D

 55 57  0     1  0  0  0  0  0999 V2000
    2.4012    0.1228    1.7053 S   0  0  0  0  0  0  0  0  0  0  0  0
   -0.0892    2.5418    0.5331 O   0  0  0  0  0  0  0  0  0  0  0  0
    3.4070    0.1392    2.7451 O   0  0  0  0  0  0  0  0  0  0  0  0
    1.0091   -0.1857    1.9498 O   0  0  0  0  0  0  0  0  0  0  0  0
    3.1980    2.1150   -1.4852 O   0  0  0  0  0  0  0  0  0  0  0  0
   -1.8574   -2.6736    0.5174 O   0  0  0  0  0  0  0  0  0  0  0  0
   -0.7906    3.2582   -1.5536 O   0  0  0  0  0  0  0  0  0  0  0  0
   -2.8627   -2.8551   -1.5600 O   0  0  0  0  0  0  0  0  0  0  0  0
    2.5409    1.5182    0.7156 N   0  0  0  0  0  0  0  0  0  0  0  0
   -4.1240    0.9834    0.4636 N   0  0  0  0  0  0  0  0  0  0  0  0
   -1.7409    0.1861   -0.8433 C   0  0  1  0  0  0  0  0  0  0  0  0
   -1.9913    1.6093   -0.3465 C   0  0  0  0  0  0  0  0  0  0  0  0
   -2.8179   -0.7966   -0.3861 C   0  0  0  0  0  0  0  0  0  0  0  0
    2.1815    2.8416    1.2744 C   0  0  0  0  0  0  0  0  0  0  0  0
    2.9690   -0.8942    0.4098 C   0  0  0  0  0  0  0  0  0  0  0  0
   -3.1570    1.9516    0.2469 C   0  0  0  0  0  0  0  0  0  0  0  0
    3.2548   -0.1646   -0.7440 C   0  0  0  0  0  0  0  0  0  0  0  0
   -3.9537   -0.3678    0.2088 C   0  0  0  0  0  0  0  0  0  0  0  0
    3.0159    1.2862   -0.6120 C   0  0  0  0  0  0  0  0  0  0  0  0
   -1.6487    0.1761   -2.3776 C   0  0  0  0  0  0  0  0  0  0  0  0
    1.0297    3.4330    0.4823 C   0  0  0  0  0  0  0  0  0  0  0  0
   -0.8985    2.5731   -0.5532 C   0  0  0  0  0  0  0  0  0  0  0  0
    3.1277   -2.2625    0.4864 C   0  0  0  0  0  0  0  0  0  0  0  0
    3.7188   -0.8055   -1.8796 C   0  0  0  0  0  0  0  0  0  0  0  0
   -3.5172    3.3188    0.7642 C   0  0  0  0  0  0  0  0  0  0  0  0
   -2.5294   -2.2274   -0.5714 C   0  0  0  0  0  0  0  0  0  0  0  0
   -5.0945   -1.2458    0.6471 C   0  0  0  0  0  0  0  0  0  0  0  0
    3.5952   -2.9145   -0.6554 C   0  0  0  0  0  0  0  0  0  0  0  0
    3.8882   -2.1931   -1.8278 C   0  0  0  0  0  0  0  0  0  0  0  0
   -1.5018   -4.0597    0.4860 C   0  0  0  0  0  0  0  0  0  0  0  0
   -0.7621   -4.4081    1.7600 C   0  0  0  0  0  0  0  0  0  0  0  0
   -0.7807   -0.1500   -0.4294 H   0  0  0  0  0  0  0  0  0  0  0  0
    3.0569    3.4982    1.2431 H   0  0  0  0  0  0  0  0  0  0  0  0
    1.8873    2.7253    2.3235 H   0  0  0  0  0  0  0  0  0  0  0  0
   -0.8374    0.8203   -2.7332 H   0  0  0  0  0  0  0  0  0  0  0  0
   -1.4393   -0.8293   -2.7585 H   0  0  0  0  0  0  0  0  0  0  0  0
   -2.5808    0.5227   -2.8393 H   0  0  0  0  0  0  0  0  0  0  0  0
    1.3410    3.6353   -0.5483 H   0  0  0  0  0  0  0  0  0  0  0  0
    0.7253    4.3826    0.9358 H   0  0  0  0  0  0  0  0  0  0  0  0
   -4.9836    1.2705    0.9181 H   0  0  0  0  0  0  0  0  0  0  0  0
    2.9004   -2.8163    1.3898 H   0  0  0  0  0  0  0  0  0  0  0  0
    3.9474   -0.2596   -2.7885 H   0  0  0  0  0  0  0  0  0  0  0  0
   -4.4213    3.6850    0.2660 H   0  0  0  0  0  0  0  0  0  0  0  0
   -2.7274    4.0566    0.5960 H   0  0  0  0  0  0  0  0  0  0  0  0
   -3.7078    3.2789    1.8420 H   0  0  0  0  0  0  0  0  0  0  0  0
   -6.0207   -0.9381    0.1497 H   0  0  0  0  0  0  0  0  0  0  0  0
   -5.2403   -1.1634    1.7295 H   0  0  0  0  0  0  0  0  0  0  0  0
   -4.9341   -2.3025    0.4152 H   0  0  0  0  0  0  0  0  0  0  0  0
    3.7349   -3.9922   -0.6416 H   0  0  0  0  0  0  0  0  0  0  0  0
    4.2508   -2.7233   -2.7046 H   0  0  0  0  0  0  0  0  0  0  0  0
   -0.8581   -4.2517   -0.3798 H   0  0  0  0  0  0  0  0  0  0  0  0
   -2.4097   -4.6681    0.4065 H   0  0  0  0  0  0  0  0  0  0  0  0
   -1.3868   -4.2050    2.6360 H   0  0  0  0  0  0  0  0  0  0  0  0
    0.1383   -3.7931    1.8626 H   0  0  0  0  0  0  0  0  0  0  0  0
   -0.4727   -5.4625    1.7688 H   0  0  0  0  0  0  0  0  0  0  0  0
  1  3  2  0  0  0  0
  1  4  2  0  0  0  0
  1  9  1  0  0  0  0
  1 15  1  0  0  0  0
  2 21  1  0  0  0  0
  2 22  1  0  0  0  0
  5 19  2  0  0  0  0
  6 26  1  0  0  0  0
  6 30  1  0  0  0  0
  7 22  2  0  0  0  0
  8 26  2  0  0  0  0
  9 14  1  0  0  0  0
  9 19  1  0  0  0  0
 10 16  1  0  0  0  0
 10 18  1  0  0  0  0
 10 40  1  0  0  0  0
 11 12  1  0  0  0  0
 11 13  1  0  0  0  0
 11 20  1  0  0  0  0
 11 32  1  0  0  0  0
 12 16  2  0  0  0  0
 12 22  1  0  0  0  0
 13 18  2  0  0  0  0
 13 26  1  0  0  0  0
 14 21  1  0  0  0  0
 14 33  1  0  0  0  0
 14 34  1  0  0  0  0
 15 17  1  0  0  0  0
 15 23  2  0  0  0  0
 16 25  1  0  0  0  0
 17 19  1  0  0  0  0
 17 24  2  0  0  0  0
 18 27  1  0  0  0  0
 20 35  1  0  0  0  0
 20 36  1  0  0  0  0
 20 37  1  0  0  0  0
 21 38  1  0  0  0  0
 21 39  1  0  0  0  0
 23 28  1  0  0  0  0
 23 41  1  0  0  0  0
 24 29  1  0  0  0  0
 24 42  1  0  0  0  0
 25 43  1  0  0  0  0
 25 44  1  0  0  0  0
 25 45  1  0  0  0  0
 27 46  1  0  0  0  0
 27 47  1  0  0  0  0
 27 48  1  0  0  0  0
 28 29  2  0  0  0  0
 28 49  1  0  0  0  0
 29 50  1  0  0  0  0
 30 31  1  0  0  0  0
 30 51  1  0  0  0  0
 30 52  1  0  0  0  0
 31 53  1  0  0  0  0
 31 54  1  0  0  0  0
 31 55  1  0  0  0  0
M  END
> <PUBCHEM_COMPOUND_CID>
124236

> <PUBCHEM_CONFORMER_RMSD>
1

> <PUBCHEM_CONFORMER_DIVERSEORDER>
3
56
114
121
103
83
208
88
45
147
202
26
78
185
28
211
226
171
220
223
96
33
180
43
107
61
124
73
210
183
165
133
106
91
39
48
213
31
197
155
193
142
187
176
105
35
19
93
156
192
89
203
57
135
97
224
115
207
145
66
51
228
12
159
81
186
199
170
181
76
161
167
198
41
218
129
116
184
194
120
55
215
140
169
118
95
20
92
74
64
44
58
153
134
65
47
72
217
160
163
60
125
40
4
232
8
137
130
7
100
52
62
152
172
216
75
99
206
11
177
219
71
30
21
222
162
85
148
151
59
67
32
138
15
27
200
122
5
229
231
204
178
188
98
179
54
143
80
209
77
104
36
22
102
70
201
24
63
126
158
154
119
136
69
168
113
38
17
214
42
68
13
16
230
46
128
109
141
18
123
166
212
10
164
173
49
139
144
9
37
82
2
14
157
205
189
94
87
195
1
190
182
149
79
6
23
90
174
108
191
127
29
146
227
101
50
175
117
25
132
84
131
150
112
221
34
110
53
225
196
111
86

> <PUBCHEM_MMFF94_PARTIAL_CHARGES>
34
1 1.45
10 -0.6
11 0.28
12 -0.12
13 -0.12
14 0.36
15 -0.01
16 -0.04
17 0.09
18 -0.04
19 0.72
2 -0.43
21 0.28
22 0.71
23 -0.15
24 -0.15
25 0.14
26 0.71
27 0.14
28 -0.15
29 -0.15
3 -0.65
30 0.28
4 -0.65
40 0.4
41 0.15
42 0.15
49 0.15
5 -0.57
50 0.15
6 -0.43
7 -0.57
8 -0.57
9 -0.73

> <PUBCHEM_EFFECTIVE_ROTOR_COUNT>
8.6

> <PUBCHEM_PHARMACOPHORE_FEATURES>
10
1 10 cation
1 10 donor
1 3 acceptor
1 4 acceptor
1 5 acceptor
1 7 acceptor
1 8 acceptor
5 1 9 15 17 19 rings
6 10 11 12 13 16 18 rings
6 15 17 23 24 28 29 rings

> <PUBCHEM_HEAVY_ATOM_COUNT>
31

> <PUBCHEM_ATOM_DEF_STEREO_COUNT>
0

> <PUBCHEM_ATOM_UDEF_STEREO_COUNT>
1

> <PUBCHEM_BOND_DEF_STEREO_COUNT>
0

> <PUBCHEM_BOND_UDEF_STEREO_COUNT>
0

> <PUBCHEM_ISOTOPIC_ATOM_COUNT>
0

> <PUBCHEM_COMPONENT_COUNT>
1

> <PUBCHEM_CACTVS_TAUTO_COUNT>
3

> <PUBCHEM_CONFORMER_ID>
0001E54C00000003

> <PUBCHEM_MMFF94_ENERGY>
64.6208

> <PUBCHEM_FEATURE_SELFOVERLAP>
50.831

> <PUBCHEM_SHAPE_FINGERPRINT>
12156800 1 16461438807439607626
12553582 1 18265325282445003013
12633257 1 18263910202142551963
13122387 1 18194677292199670675
13224815 77 17676479562304467569
14251757 5 18195829396187198926
15664445 248 17677054671242531916
17809404 112 18048841226744834644
17974551 9 17489879210661488121
19591789 44 18338239254544340035
20764821 26 18266171743042310410
23559900 14 18343867718659177749
3298306 158 17832695778241324677
3493558 16 15366154124116705334
35225 105 18120091684716574615
469060 322 13336462053636395867
5309563 4 17474395050495871239
6287921 2 18270396229951298440
6823239 73 18272657869877729228
70634741 139 17839192810247167454

> <PUBCHEM_SHAPE_MULTIPOLES>
590.77
8.52
5.37
1.98
1.11
1.98
0.08
2.02
-0.68
1.58
1.1
-1.52
0.31
0.72

> <PUBCHEM_SHAPE_SELFOVERLAP>
1241.839

> <PUBCHEM_SHAPE_VOLUME>
334.9

> <PUBCHEM_COORDINATE_TYPE>
2
5
10

$$$$
