124283
  -OEChem-03292013323D

 45 45  0     0  0  0  0  0  0999 V2000
    0.5182   -1.6396   -2.0996 O   0  0  0  0  0  0  0  0  0  0  0  0
   -0.5166    0.9609   -1.2063 O   0  0  0  0  0  0  0  0  0  0  0  0
   -1.4579   -3.3888    0.5611 O   0  0  0  0  0  0  0  0  0  0  0  0
   -4.5642    0.1434    1.2322 O   0  0  0  0  0  0  0  0  0  0  0  0
   -3.5970    2.2458   -1.1927 O   0  5  0  0  0  0  0  0  0  0  0  0
   -2.5797    2.7865    0.6759 O   0  0  0  0  0  0  0  0  0  0  0  0
    1.2277   -2.2235    0.0305 N   0  0  0  0  0  0  0  0  0  0  0  0
   -2.9264    1.9401   -0.1800 N   0  3  0  0  0  0  0  0  0  0  0  0
    4.7778    0.1495    1.0736 C   0  0  0  0  0  0  0  0  0  0  0  0
    3.7486   -0.9853    1.0470 C   0  0  0  0  0  0  0  0  0  0  0  0
    4.4525    1.3699    0.2068 C   0  0  0  0  0  0  0  0  0  0  0  0
    3.5923   -1.6335   -0.3323 C   0  0  0  0  0  0  0  0  0  0  0  0
    3.1105    2.0204    0.5481 C   0  0  0  0  0  0  0  0  0  0  0  0
    2.5212   -2.7202   -0.3494 C   0  0  0  0  0  0  0  0  0  0  0  0
    2.8804    3.2836   -0.2824 C   0  0  0  0  0  0  0  0  0  0  0  0
    1.5336    3.9167    0.0285 C   0  0  0  0  0  0  0  0  0  0  0  0
    0.3178   -1.7158   -0.8902 C   0  0  0  0  0  0  0  0  0  0  0  0
   -0.9665   -1.2170   -0.3344 C   0  0  0  0  0  0  0  0  0  0  0  0
   -1.3380    0.1150   -0.5169 C   0  0  0  0  0  0  0  0  0  0  0  0
   -1.8016   -2.0837    0.3708 C   0  0  0  0  0  0  0  0  0  0  0  0
   -2.5447    0.5803    0.0056 C   0  0  0  0  0  0  0  0  0  0  0  0
   -3.0082   -1.6183    0.8934 C   0  0  0  0  0  0  0  0  0  0  0  0
   -3.3797   -0.2863    0.7107 C   0  0  0  0  0  0  0  0  0  0  0  0
    4.8935    0.4815    2.1132 H   0  0  0  0  0  0  0  0  0  0  0  0
    5.7544   -0.2459    0.7676 H   0  0  0  0  0  0  0  0  0  0  0  0
    2.7872   -0.6135    1.4162 H   0  0  0  0  0  0  0  0  0  0  0  0
    4.0695   -1.7553    1.7602 H   0  0  0  0  0  0  0  0  0  0  0  0
    5.2543    2.1067    0.3423 H   0  0  0  0  0  0  0  0  0  0  0  0
    4.4699    1.0907   -0.8529 H   0  0  0  0  0  0  0  0  0  0  0  0
    4.5498   -2.0659   -0.6452 H   0  0  0  0  0  0  0  0  0  0  0  0
    3.3255   -0.8709   -1.0726 H   0  0  0  0  0  0  0  0  0  0  0  0
    2.2923    1.3177    0.3541 H   0  0  0  0  0  0  0  0  0  0  0  0
    3.0812    2.2700    1.6155 H   0  0  0  0  0  0  0  0  0  0  0  0
    2.7807   -3.5196    0.3528 H   0  0  0  0  0  0  0  0  0  0  0  0
    2.4593   -3.1610   -1.3504 H   0  0  0  0  0  0  0  0  0  0  0  0
    3.6757    4.0112   -0.0835 H   0  0  0  0  0  0  0  0  0  0  0  0
    2.9229    3.0391   -1.3502 H   0  0  0  0  0  0  0  0  0  0  0  0
    0.9849   -2.2312    1.0171 H   0  0  0  0  0  0  0  0  0  0  0  0
    0.7135    3.2244   -0.1803 H   0  0  0  0  0  0  0  0  0  0  0  0
    1.4734    4.2105    1.0814 H   0  0  0  0  0  0  0  0  0  0  0  0
    1.3857    4.8126   -0.5826 H   0  0  0  0  0  0  0  0  0  0  0  0
   -3.6534   -2.3001    1.4421 H   0  0  0  0  0  0  0  0  0  0  0  0
   -0.9185    1.8393   -1.2971 H   0  0  0  0  0  0  0  0  0  0  0  0
   -0.6269   -3.5938    0.1034 H   0  0  0  0  0  0  0  0  0  0  0  0
   -5.0013   -0.5983    1.6846 H   0  0  0  0  0  0  0  0  0  0  0  0
  1 17  2  0  0  0  0
  2 19  1  0  0  0  0
  2 43  1  0  0  0  0
  3 20  1  0  0  0  0
  3 44  1  0  0  0  0
  4 23  1  0  0  0  0
  4 45  1  0  0  0  0
  5  8  1  0  0  0  0
  6  8  2  0  0  0  0
  7 14  1  0  0  0  0
  7 17  1  0  0  0  0
  7 38  1  0  0  0  0
  8 21  1  0  0  0  0
  9 10  1  0  0  0  0
  9 11  1  0  0  0  0
  9 24  1  0  0  0  0
  9 25  1  0  0  0  0
 10 12  1  0  0  0  0
 10 26  1  0  0  0  0
 10 27  1  0  0  0  0
 11 13  1  0  0  0  0
 11 28  1  0  0  0  0
 11 29  1  0  0  0  0
 12 14  1  0  0  0  0
 12 30  1  0  0  0  0
 12 31  1  0  0  0  0
 13 15  1  0  0  0  0
 13 32  1  0  0  0  0
 13 33  1  0  0  0  0
 14 34  1  0  0  0  0
 14 35  1  0  0  0  0
 15 16  1  0  0  0  0
 15 36  1  0  0  0  0
 15 37  1  0  0  0  0
 16 39  1  0  0  0  0
 16 40  1  0  0  0  0
 16 41  1  0  0  0  0
 17 18  1  0  0  0  0
 18 19  2  0  0  0  0
 18 20  1  0  0  0  0
 19 21  1  0  0  0  0
 20 22  2  0  0  0  0
 21 23  2  0  0  0  0
 22 23  1  0  0  0  0
 22 42  1  0  0  0  0
M  CHG  2   5  -1   8   1
M  END
> <PUBCHEM_COMPOUND_CID>
124283

> <PUBCHEM_CONFORMER_RMSD>
1

> <PUBCHEM_CONFORMER_DIVERSEORDER>
1
21
50
133
141
101
104
145
36
33
129
144
51
87
28
151
35
22
115
83
149
117
130
23
9
41
154
6
138
113
89
96
146
84
140
107
152
139
114
44
20
110
128
30
136
86
90
112
92
49
24
11
4
134
142
75
45
25
73
39
47
70
5
103
119
31
137
8
153
67
93
37
97
71
116
98
127
143
122
132
82
53
62
65
26
48
2
121
12
77
76
85
17
79
78
54
29
7
61
123
105
68
14
99
126
3
72
148
69
109
102
42
56
13
80
34
66
100
94
108
111
125
16
135
59
40
131
10
46
81
58
147
120
118
74
95
106
91
43
55
38
32
88
57
18
124
15
52
19
64
27
150
63
60

> <PUBCHEM_MMFF94_PARTIAL_CHARGES>
21
1 -0.57
14 0.3
17 0.54
18 0.09
19 0.08
2 -0.53
20 0.08
21 0.13
22 -0.15
23 0.08
3 -0.53
38 0.37
4 -0.53
42 0.15
43 0.45
44 0.45
45 0.45
5 -0.52
6 -0.52
7 -0.73
8 0.91

> <PUBCHEM_EFFECTIVE_ROTOR_COUNT>
10

> <PUBCHEM_PHARMACOPHORE_FEATURES>
12
1 1 acceptor
1 16 hydrophobe
1 2 donor
1 3 donor
1 4 donor
1 5 acceptor
1 5 anion
1 6 acceptor
1 7 donor
3 11 13 15 hydrophobe
3 9 10 12 hydrophobe
6 18 19 20 21 22 23 rings

> <PUBCHEM_HEAVY_ATOM_COUNT>
23

> <PUBCHEM_ATOM_DEF_STEREO_COUNT>
0

> <PUBCHEM_ATOM_UDEF_STEREO_COUNT>
0

> <PUBCHEM_BOND_DEF_STEREO_COUNT>
0

> <PUBCHEM_BOND_UDEF_STEREO_COUNT>
0

> <PUBCHEM_ISOTOPIC_ATOM_COUNT>
0

> <PUBCHEM_COMPONENT_COUNT>
1

> <PUBCHEM_CACTVS_TAUTO_COUNT>
61

> <PUBCHEM_CONFORMER_ID>
0001E57B00000001

> <PUBCHEM_MMFF94_ENERGY>
45.8582

> <PUBCHEM_FEATURE_SELFOVERLAP>
60.992

> <PUBCHEM_SHAPE_FINGERPRINT>
10616163 171 18193276514770700688
1100329 8 15310970034313048490
12038231 1 17907016175667183720
12633257 1 18261664948391769402
12978246 48 18339076094594454328
13140716 1 18049734202175138827
13583140 156 17822556231800806698
14026960 21 18339081617763894162
14251764 38 18341046298813641517
151778 21 18266464402478097240
16110190 28 18336252540677024040
16760501 71 18269565931701684761
17859628 37 18269551655203421252
19930381 70 17472696309283116288
20621476 13 18122617250251878196
20681677 76 18410008797594311599
21315764 371 15503769939593508024
21475661 188 18263916653404729476
21864079 5 18268419317314622902
23227448 37 18411133666709048474
474 4 18126275351164912669
5081480 168 17415310285332503022
6287921 2 18118127098514965796
7097593 13 18334852879006036192

> <PUBCHEM_SHAPE_MULTIPOLES>
428.15
8.63
4.48
1.18
3.22
2.29
-0.24
2.58
2.97
1.46
-0.34
-0.19
-0.25
0.59

> <PUBCHEM_SHAPE_SELFOVERLAP>
869.353

> <PUBCHEM_SHAPE_VOLUME>
248.3

> <PUBCHEM_COORDINATE_TYPE>
2
5
10

$$$$
