124201490
  -OEChem-03292013293D

 48 51  0     1  0  0  0  0  0999 V2000
   -1.6151   -0.0812   -2.5180 O   0  0  0  0  0  0  0  0  0  0  0  0
   -3.5088    1.5670   -1.3546 O   0  0  0  0  0  0  0  0  0  0  0  0
   -0.7068    1.9722   -0.3552 O   0  0  0  0  0  0  0  0  0  0  0  0
    1.6443    2.2787    0.2654 O   0  0  0  0  0  0  0  0  0  0  0  0
   -3.9361   -1.6841    2.0624 O   0  0  0  0  0  0  0  0  0  0  0  0
    4.0992    2.5153    0.9101 O   0  0  0  0  0  0  0  0  0  0  0  0
   -5.9911    0.6240   -0.1372 O   0  0  0  0  0  0  0  0  0  0  0  0
   -5.1474    1.0357    1.9723 N   0  0  0  0  0  0  0  0  0  0  0  0
   -1.5689   -1.5707   -0.6577 C   0  0  1  0  0  0  0  0  0  0  0  0
   -1.7159   -0.1042   -1.0934 C   0  0  1  0  0  0  0  0  0  0  0  0
   -0.1816   -2.1241   -1.0084 C   0  0  0  0  0  0  0  0  0  0  0  0
   -1.8965   -1.7461    0.8259 C   0  0  0  0  0  0  0  0  0  0  0  0
    0.9389   -1.2333   -0.5483 C   0  0  0  0  0  0  0  0  0  0  0  0
   -0.5721    0.7678   -0.5603 C   0  0  0  0  0  0  0  0  0  0  0  0
    0.7594    0.1389   -0.3477 C   0  0  0  0  0  0  0  0  0  0  0  0
   -3.0540    0.4622   -0.6490 C   0  0  0  0  0  0  0  0  0  0  0  0
   -3.2731   -1.2108    1.1399 C   0  0  0  0  0  0  0  0  0  0  0  0
    2.2145   -1.7874   -0.3583 C   0  0  0  0  0  0  0  0  0  0  0  0
   -3.7882   -0.0505    0.3556 C   0  0  0  0  0  0  0  0  0  0  0  0
    1.8349    0.9388    0.0636 C   0  0  0  0  0  0  0  0  0  0  0  0
    3.3019   -0.9988    0.0514 C   0  0  0  0  0  0  0  0  0  0  0  0
    3.1086    0.3833    0.2673 C   0  0  0  0  0  0  0  0  0  0  0  0
    2.4178   -3.2549   -0.6151 C   0  0  0  0  0  0  0  0  0  0  0  0
   -5.0850    0.5628    0.6854 C   0  0  0  0  0  0  0  0  0  0  0  0
    4.5768   -1.5542    0.2504 C   0  0  0  0  0  0  0  0  0  0  0  0
    4.1957    1.1726    0.6782 C   0  0  0  0  0  0  0  0  0  0  0  0
    5.6457   -0.7562    0.6586 C   0  0  0  0  0  0  0  0  0  0  0  0
    5.4554    0.6053    0.8725 C   0  0  0  0  0  0  0  0  0  0  0  0
    1.8476    3.1321   -0.8558 C   0  0  0  0  0  0  0  0  0  0  0  0
   -2.2924   -2.1745   -1.2278 H   0  0  0  0  0  0  0  0  0  0  0  0
   -0.0986   -2.2519   -2.0950 H   0  0  0  0  0  0  0  0  0  0  0  0
   -0.1220   -3.1157   -0.5462 H   0  0  0  0  0  0  0  0  0  0  0  0
   -1.1795   -1.2358    1.4778 H   0  0  0  0  0  0  0  0  0  0  0  0
   -1.8840   -2.8131    1.0780 H   0  0  0  0  0  0  0  0  0  0  0  0
   -1.5299    0.8386   -2.8183 H   0  0  0  0  0  0  0  0  0  0  0  0
    2.3653   -3.8144    0.3242 H   0  0  0  0  0  0  0  0  0  0  0  0
    1.6996   -3.6830   -1.3192 H   0  0  0  0  0  0  0  0  0  0  0  0
    3.3757   -3.4562   -1.1051 H   0  0  0  0  0  0  0  0  0  0  0  0
   -2.7840    1.8959   -1.9101 H   0  0  0  0  0  0  0  0  0  0  0  0
    4.7864   -2.6118    0.1246 H   0  0  0  0  0  0  0  0  0  0  0  0
    6.6252   -1.1989    0.8148 H   0  0  0  0  0  0  0  0  0  0  0  0
    6.3003    1.2101    1.1915 H   0  0  0  0  0  0  0  0  0  0  0  0
   -4.3690    0.9684    2.6207 H   0  0  0  0  0  0  0  0  0  0  0  0
   -5.9896    1.4805    2.3224 H   0  0  0  0  0  0  0  0  0  0  0  0
    2.8834    3.0962   -1.2066 H   0  0  0  0  0  0  0  0  0  0  0  0
    1.1901    2.8670   -1.6898 H   0  0  0  0  0  0  0  0  0  0  0  0
    1.6219    4.1574   -0.5497 H   0  0  0  0  0  0  0  0  0  0  0  0
    4.9643    2.8667    1.1811 H   0  0  0  0  0  0  0  0  0  0  0  0
  1 10  1  0  0  0  0
  1 35  1  0  0  0  0
  2 16  1  0  0  0  0
  2 39  1  0  0  0  0
  3 14  2  0  0  0  0
  4 20  1  0  0  0  0
  4 29  1  0  0  0  0
  5 17  2  0  0  0  0
  6 26  1  0  0  0  0
  6 48  1  0  0  0  0
  7 24  2  0  0  0  0
  8 24  1  0  0  0  0
  8 43  1  0  0  0  0
  8 44  1  0  0  0  0
  9 10  1  0  0  0  0
  9 11  1  0  0  0  0
  9 12  1  0  0  0  0
  9 30  1  0  0  0  0
 10 14  1  0  0  0  0
 10 16  1  0  0  0  0
 11 13  1  0  0  0  0
 11 31  1  0  0  0  0
 11 32  1  0  0  0  0
 12 17  1  0  0  0  0
 12 33  1  0  0  0  0
 12 34  1  0  0  0  0
 13 15  2  0  0  0  0
 13 18  1  0  0  0  0
 14 15  1  0  0  0  0
 15 20  1  0  0  0  0
 16 19  2  0  0  0  0
 17 19  1  0  0  0  0
 18 21  2  0  0  0  0
 18 23  1  0  0  0  0
 19 24  1  0  0  0  0
 20 22  2  0  0  0  0
 21 22  1  0  0  0  0
 21 25  1  0  0  0  0
 22 26  1  0  0  0  0
 23 36  1  0  0  0  0
 23 37  1  0  0  0  0
 23 38  1  0  0  0  0
 25 27  2  0  0  0  0
 25 40  1  0  0  0  0
 26 28  2  0  0  0  0
 27 28  1  0  0  0  0
 27 41  1  0  0  0  0
 28 42  1  0  0  0  0
 29 45  1  0  0  0  0
 29 46  1  0  0  0  0
 29 47  1  0  0  0  0
M  END
> <PUBCHEM_COMPOUND_CID>
124201490

> <PUBCHEM_CONFORMER_RMSD>
0.6

> <PUBCHEM_CONFORMER_DIVERSEORDER>
1
3
2
5
4
6

> <PUBCHEM_MMFF94_PARTIAL_CHARGES>
34
1 -0.68
10 0.48
11 0.14
12 0.06
13 -0.14
14 0.42
15 0.09
16 -0.06
17 0.49
18 -0.14
19 0.03
2 -0.53
20 0.08
23 0.14
24 0.62
25 -0.15
26 0.08
27 -0.15
28 -0.15
29 0.28
3 -0.57
35 0.4
39 0.45
4 -0.36
40 0.15
41 0.15
42 0.15
43 0.37
44 0.37
48 0.45
5 -0.57
6 -0.53
7 -0.57
8 -0.8

> <PUBCHEM_EFFECTIVE_ROTOR_COUNT>
2.4

> <PUBCHEM_PHARMACOPHORE_FEATURES>
14
1 1 acceptor
1 1 donor
1 19 anion
1 2 donor
1 3 acceptor
1 4 acceptor
1 5 acceptor
1 6 donor
1 7 acceptor
1 8 donor
6 13 15 18 20 21 22 rings
6 21 22 25 26 27 28 rings
6 9 10 11 13 14 15 rings
6 9 10 12 16 17 19 rings

> <PUBCHEM_HEAVY_ATOM_COUNT>
29

> <PUBCHEM_ATOM_DEF_STEREO_COUNT>
2

> <PUBCHEM_ATOM_UDEF_STEREO_COUNT>
0

> <PUBCHEM_BOND_DEF_STEREO_COUNT>
0

> <PUBCHEM_BOND_UDEF_STEREO_COUNT>
0

> <PUBCHEM_ISOTOPIC_ATOM_COUNT>
0

> <PUBCHEM_COMPONENT_COUNT>
1

> <PUBCHEM_CACTVS_TAUTO_COUNT>
999

> <PUBCHEM_CONFORMER_ID>
07672A1200000001

> <PUBCHEM_MMFF94_ENERGY>
106.355

> <PUBCHEM_FEATURE_SELFOVERLAP>
71.183

> <PUBCHEM_SHAPE_FINGERPRINT>
10 15 18334285497015520640
10411042 1 17694786225266473262
10675989 125 16456548016796223493
11045977 3 18259988179905087787
11089746 13 17132106953288455712
11370993 144 18409735040847703947
11640471 11 17060345119162175815
12035758 1 18261397728295118723
12236239 1 17060334093996827967
12422481 6 18335138713073917496
12633257 1 18187087282055192163
13140716 1 18268144434601099604
13224815 77 18411691119473362310
13402501 40 18334853883584973093
13583140 156 17241580928130344462
14294032 229 15625943089860003521
14341114 176 18259989274974243489
14790565 3 17688035623372263684
14955137 171 18409455791107235588
15081414 286 18271244924606125156
15163728 17 15409792271554395667
15238133 3 18335714801179271220
15840311 113 17416138179123760977
1601671 61 18412262852940657580
1813 80 16443068339246293767
18785283 64 18188781672275990644
19784866 170 18409730664344561846
20511986 3 17417515943668903291
20739085 24 18409454708817772272
21033648 29 18129644344812905784
21033650 10 14188755033453513634
21267235 1 18339924806318477318
21792961 116 18114741513620065654
22122407 14 17775014483393411857
22182313 1 18264482884707877772
23559900 14 18115042809048005743
335352 9 18342734118530146654
350125 39 18125434473825247254
392239 28 18335422343939451987
474 4 18201999927955554855
5081480 168 16986342416430295374
5104073 3 18339911732147800714
602551 16 16950566601264036442
633830 44 17988922331878489540

> <PUBCHEM_SHAPE_MULTIPOLES>
550.74
11.45
2.84
1.41
2.24
0.22
0.02
1.77
-5.22
-2.14
0.33
1.53
-0.06
0.85

> <PUBCHEM_SHAPE_SELFOVERLAP>
1240.266

> <PUBCHEM_SHAPE_VOLUME>
284.8

> <PUBCHEM_COORDINATE_TYPE>
2
5
10

$$$$
