124201527
  -OEChem-03292013293D

 80 80  0     1  0  0  0  0  0999 V2000
    1.5210   -0.9649    0.5751 O   0  0  0  0  0  0  0  0  0  0  0  0
    0.2422    1.1649    1.7000 O   0  0  0  0  0  0  0  0  0  0  0  0
   -1.6640    1.1304   -2.5278 O   0  0  0  0  0  0  0  0  0  0  0  0
   -1.5983    3.4605    0.2649 O   0  0  0  0  0  0  0  0  0  0  0  0
   -2.5969   -1.4935   -1.9618 O   0  0  0  0  0  0  0  0  0  0  0  0
   -1.6205   -4.5440    0.7316 O   0  0  0  0  0  0  0  0  0  0  0  0
    6.0991   -0.5313   -0.8743 O   0  0  0  0  0  0  0  0  0  0  0  0
    0.7233   -1.9115   -1.3749 O   0  0  0  0  0  0  0  0  0  0  0  0
    0.0729    3.0360    3.0443 O   0  0  0  0  0  0  0  0  0  0  0  0
    0.1421    1.9769   -0.5997 C   0  0  2  0  0  0  0  0  0  0  0  0
   -2.3208    1.9637   -1.5670 C   0  0  2  0  0  0  0  0  0  0  0  0
   -1.3805    2.1904   -0.3446 C   0  0  2  0  0  0  0  0  0  0  0  0
    0.9642    1.9234    0.7257 C   0  0  2  0  0  0  0  0  0  0  0  0
    2.4007    1.3252    0.5693 C   0  0  2  0  0  0  0  0  0  0  0  0
   -3.6661    1.2687   -1.1929 C   0  0  0  0  0  0  0  0  0  0  0  0
   -3.7157   -0.0499   -0.3467 C   0  0  1  0  0  0  0  0  0  0  0  0
    2.4160   -0.0704   -0.1226 C   0  0  1  0  0  0  0  0  0  0  0  0
   -2.5783   -1.0841   -0.5924 C   0  0  1  0  0  0  0  0  0  0  0  0
   -2.6459   -2.3756    0.2759 C   0  0  2  0  0  0  0  0  0  0  0  0
    3.7957   -0.7229   -0.1662 C   0  0  2  0  0  0  0  0  0  0  0  0
   -1.3669   -3.2701    0.1270 C   0  0  1  0  0  0  0  0  0  0  0  0
    0.7411    3.0160   -1.5531 C   0  0  0  0  0  0  0  0  0  0  0  0
   -2.6681    3.2857   -2.2846 C   0  0  0  0  0  0  0  0  0  0  0  0
    3.1041    1.2951    1.9373 C   0  0  0  0  0  0  0  0  0  0  0  0
   -0.1006   -2.6592    0.8001 C   0  0  2  0  0  0  0  0  0  0  0  0
   -3.9263    0.2598    1.1450 C   0  0  0  0  0  0  0  0  0  0  0  0
    4.8307    0.1232   -0.9397 C   0  0  2  0  0  0  0  0  0  0  0  0
   -3.9188   -3.1871   -0.0385 C   0  0  0  0  0  0  0  0  0  0  0  0
    0.7377   -1.8166   -0.1557 C   0  0  0  0  0  0  0  0  0  0  0  0
    3.6812   -2.1253   -0.7806 C   0  0  0  0  0  0  0  0  0  0  0  0
    0.8410   -3.7208    1.3866 C   0  0  0  0  0  0  0  0  0  0  0  0
    4.4789    0.3156   -2.4111 C   0  0  0  0  0  0  0  0  0  0  0  0
   -0.1415    1.8538    2.8125 C   0  0  0  0  0  0  0  0  0  0  0  0
   -0.8827    0.9381    3.7388 C   0  0  0  0  0  0  0  0  0  0  0  0
    0.2210    0.9968   -1.0754 H   0  0  0  0  0  0  0  0  0  0  0  0
   -1.6582    1.4603    0.4081 H   0  0  0  0  0  0  0  0  0  0  0  0
    1.0985    2.9621    1.0551 H   0  0  0  0  0  0  0  0  0  0  0  0
    2.9707    2.0197   -0.0581 H   0  0  0  0  0  0  0  0  0  0  0  0
   -4.1662    1.0238   -2.1424 H   0  0  0  0  0  0  0  0  0  0  0  0
   -4.3180    2.0082   -0.7088 H   0  0  0  0  0  0  0  0  0  0  0  0
   -4.6520   -0.5215   -0.6777 H   0  0  0  0  0  0  0  0  0  0  0  0
    2.0573    0.0581   -1.1479 H   0  0  0  0  0  0  0  0  0  0  0  0
   -1.6178   -0.6023   -0.4061 H   0  0  0  0  0  0  0  0  0  0  0  0
   -2.7092   -2.0959    1.3344 H   0  0  0  0  0  0  0  0  0  0  0  0
    4.1725   -0.8944    0.8501 H   0  0  0  0  0  0  0  0  0  0  0  0
   -1.1836   -3.4745   -0.9331 H   0  0  0  0  0  0  0  0  0  0  0  0
    0.6298    4.0315   -1.1596 H   0  0  0  0  0  0  0  0  0  0  0  0
    0.2654    2.9753   -2.5360 H   0  0  0  0  0  0  0  0  0  0  0  0
    1.8061    2.8377   -1.7260 H   0  0  0  0  0  0  0  0  0  0  0  0
   -1.7711    3.8139   -2.6180 H   0  0  0  0  0  0  0  0  0  0  0  0
   -3.2465    3.9611   -1.6459 H   0  0  0  0  0  0  0  0  0  0  0  0
   -3.2590    3.0947   -3.1886 H   0  0  0  0  0  0  0  0  0  0  0  0
    2.9903    2.2564    2.4503 H   0  0  0  0  0  0  0  0  0  0  0  0
    4.1795    1.1232    1.8354 H   0  0  0  0  0  0  0  0  0  0  0  0
    2.6950    0.5146    2.5870 H   0  0  0  0  0  0  0  0  0  0  0  0
   -0.4269   -2.0050    1.6189 H   0  0  0  0  0  0  0  0  0  0  0  0
   -4.3540   -0.6041    1.6644 H   0  0  0  0  0  0  0  0  0  0  0  0
   -4.6333    1.0839    1.2862 H   0  0  0  0  0  0  0  0  0  0  0  0
   -2.9973    0.5195    1.6538 H   0  0  0  0  0  0  0  0  0  0  0  0
    4.9612    1.0996   -0.4641 H   0  0  0  0  0  0  0  0  0  0  0  0
   -3.8948   -3.5889   -1.0568 H   0  0  0  0  0  0  0  0  0  0  0  0
   -4.8230   -2.5822    0.0693 H   0  0  0  0  0  0  0  0  0  0  0  0
   -4.0315   -4.0303    0.6509 H   0  0  0  0  0  0  0  0  0  0  0  0
   -2.1858    1.1382   -3.3484 H   0  0  0  0  0  0  0  0  0  0  0  0
   -2.5286    3.4934    0.5462 H   0  0  0  0  0  0  0  0  0  0  0  0
    3.1886   -2.1190   -1.7568 H   0  0  0  0  0  0  0  0  0  0  0  0
    3.1523   -2.8163   -0.1203 H   0  0  0  0  0  0  0  0  0  0  0  0
    4.6719   -2.5708   -0.9260 H   0  0  0  0  0  0  0  0  0  0  0  0
   -2.4499   -0.7092   -2.5130 H   0  0  0  0  0  0  0  0  0  0  0  0
    1.1617   -4.4325    0.6177 H   0  0  0  0  0  0  0  0  0  0  0  0
    0.3623   -4.2770    2.1989 H   0  0  0  0  0  0  0  0  0  0  0  0
    1.7430   -3.2644    1.8092 H   0  0  0  0  0  0  0  0  0  0  0  0
    3.5308    0.8405   -2.5501 H   0  0  0  0  0  0  0  0  0  0  0  0
    5.2572    0.9123   -2.9015 H   0  0  0  0  0  0  0  0  0  0  0  0
    4.4490   -0.6337   -2.9547 H   0  0  0  0  0  0  0  0  0  0  0  0
   -1.8725   -4.3864    1.6578 H   0  0  0  0  0  0  0  0  0  0  0  0
    6.7460    0.0334   -1.3307 H   0  0  0  0  0  0  0  0  0  0  0  0
   -1.7939    1.4347    4.0820 H   0  0  0  0  0  0  0  0  0  0  0  0
   -0.2420    0.6870    4.5872 H   0  0  0  0  0  0  0  0  0  0  0  0
   -1.1741    0.0155    3.2286 H   0  0  0  0  0  0  0  0  0  0  0  0
  1 17  1  0  0  0  0
  1 29  1  0  0  0  0
  2 13  1  0  0  0  0
  2 33  1  0  0  0  0
  3 11  1  0  0  0  0
  3 64  1  0  0  0  0
  4 12  1  0  0  0  0
  4 65  1  0  0  0  0
  5 18  1  0  0  0  0
  5 69  1  0  0  0  0
  6 21  1  0  0  0  0
  6 76  1  0  0  0  0
  7 27  1  0  0  0  0
  7 77  1  0  0  0  0
  8 29  2  0  0  0  0
  9 33  2  0  0  0  0
 10 12  1  0  0  0  0
 10 13  1  0  0  0  0
 10 22  1  0  0  0  0
 10 35  1  0  0  0  0
 11 12  1  0  0  0  0
 11 15  1  0  0  0  0
 11 23  1  0  0  0  0
 12 36  1  0  0  0  0
 13 14  1  0  0  0  0
 13 37  1  0  0  0  0
 14 17  1  0  0  0  0
 14 24  1  0  0  0  0
 14 38  1  0  0  0  0
 15 16  1  0  0  0  0
 15 39  1  0  0  0  0
 15 40  1  0  0  0  0
 16 18  1  0  0  0  0
 16 26  1  0  0  0  0
 16 41  1  0  0  0  0
 17 20  1  0  0  0  0
 17 42  1  0  0  0  0
 18 19  1  0  0  0  0
 18 43  1  0  0  0  0
 19 21  1  0  0  0  0
 19 28  1  0  0  0  0
 19 44  1  0  0  0  0
 20 27  1  0  0  0  0
 20 30  1  0  0  0  0
 20 45  1  0  0  0  0
 21 25  1  0  0  0  0
 21 46  1  0  0  0  0
 22 47  1  0  0  0  0
 22 48  1  0  0  0  0
 22 49  1  0  0  0  0
 23 50  1  0  0  0  0
 23 51  1  0  0  0  0
 23 52  1  0  0  0  0
 24 53  1  0  0  0  0
 24 54  1  0  0  0  0
 24 55  1  0  0  0  0
 25 29  1  0  0  0  0
 25 31  1  0  0  0  0
 25 56  1  0  0  0  0
 26 57  1  0  0  0  0
 26 58  1  0  0  0  0
 26 59  1  0  0  0  0
 27 32  1  0  0  0  0
 27 60  1  0  0  0  0
 28 61  1  0  0  0  0
 28 62  1  0  0  0  0
 28 63  1  0  0  0  0
 30 66  1  0  0  0  0
 30 67  1  0  0  0  0
 30 68  1  0  0  0  0
 31 70  1  0  0  0  0
 31 71  1  0  0  0  0
 31 72  1  0  0  0  0
 32 73  1  0  0  0  0
 32 74  1  0  0  0  0
 32 75  1  0  0  0  0
 33 34  1  0  0  0  0
 34 78  1  0  0  0  0
 34 79  1  0  0  0  0
 34 80  1  0  0  0  0
M  END
> <PUBCHEM_COMPOUND_CID>
124201527

> <PUBCHEM_CONFORMER_RMSD>
1

> <PUBCHEM_CONFORMER_DIVERSEORDER>
1
6
4
3
9
5
2
7
8

> <PUBCHEM_MMFF94_PARTIAL_CHARGES>
25
1 -0.43
11 0.28
12 0.28
13 0.28
17 0.28
18 0.28
2 -0.43
21 0.28
25 0.06
27 0.28
29 0.66
3 -0.68
33 0.66
34 0.06
4 -0.68
5 -0.68
6 -0.68
64 0.4
65 0.4
69 0.4
7 -0.68
76 0.4
77 0.4
8 -0.57
9 -0.57

> <PUBCHEM_EFFECTIVE_ROTOR_COUNT>
6.6

> <PUBCHEM_PHARMACOPHORE_FEATURES>
13
1 3 acceptor
1 3 donor
1 30 hydrophobe
1 4 acceptor
1 4 donor
1 5 acceptor
1 5 donor
1 6 acceptor
1 6 donor
1 7 acceptor
1 7 donor
1 8 acceptor
1 9 acceptor

> <PUBCHEM_HEAVY_ATOM_COUNT>
34

> <PUBCHEM_ATOM_DEF_STEREO_COUNT>
13

> <PUBCHEM_ATOM_UDEF_STEREO_COUNT>
0

> <PUBCHEM_BOND_DEF_STEREO_COUNT>
0

> <PUBCHEM_BOND_UDEF_STEREO_COUNT>
0

> <PUBCHEM_ISOTOPIC_ATOM_COUNT>
0

> <PUBCHEM_COMPONENT_COUNT>
1

> <PUBCHEM_CACTVS_TAUTO_COUNT>
1

> <PUBCHEM_CONFORMER_ID>
07672A3700000001

> <PUBCHEM_MMFF94_ENERGY>
115.8957

> <PUBCHEM_FEATURE_SELFOVERLAP>
65.985

> <PUBCHEM_SHAPE_FINGERPRINT>
10165383 225 18336551512928199645
121448 382 18268438945199134092
12156800 1 18045469046168169258
12788726 201 16982920602753237905
131258 38 17405451255918072386
13402501 40 18412826901715026239
13583140 156 17024334958786595874
13615921 28 17704358788018551649
13617811 41 18114167598304168517
14114206 34 17773024259503942889
14251757 17 18343011203670420442
14251757 5 18261119611898723350
14279260 333 17630056945268363606
14363568 33 17397288481608312110
17921350 177 15725268420776694348
17974551 9 17773606116578037145
20600515 1 18268450064273429758
20764821 26 17974255795756635287
20775438 99 17049039051690358319
20775530 9 18268146655099652915
23419403 2 17987511683939875048
23536364 44 18272097054591795038
23559900 14 17833549377105809319
238 59 17539695690255825922
2818148 4 17684674381538561615
3052486 1 18114729538438406198
35225 105 15622278262062475361
3524813 1 18411696599799020795
469060 322 17897475889271327835
508706 21 18337657728599225639
57527306 92 16988289660276616577
6287921 2 17403455672752267283
6438718 38 16629141865869064082

> <PUBCHEM_SHAPE_MULTIPOLES>
646.88
7.69
5.03
2.78
7.13
2.67
-2.05
1.66
4.01
-3.56
-0.16
-0.1
-2.38
1.1

> <PUBCHEM_SHAPE_SELFOVERLAP>
1281.809

> <PUBCHEM_SHAPE_VOLUME>
379.9

> <PUBCHEM_COORDINATE_TYPE>
2
5
10

$$$$
