124246
  -OEChem-03292013323D

 40 42  0     0  0  0  0  0  0999 V2000
    2.2031   -3.6526   -0.1061 S   0  0  0  0  0  0  0  0  0  0  0  0
   -2.6956   -1.3385    0.8247 O   0  0  0  0  0  0  0  0  0  0  0  0
    2.3699    0.2698   -0.6836 O   0  0  0  0  0  0  0  0  0  0  0  0
   -2.3088    2.1851   -1.2070 O   0  0  0  0  0  0  0  0  0  0  0  0
    3.2245   -4.4330    0.5671 O   0  0  0  0  0  0  0  0  0  0  0  0
    0.9079   -4.2324   -0.4016 O   0  0  0  0  0  0  0  0  0  0  0  0
   -6.4740   -0.0490    0.5457 O   0  0  0  0  0  0  0  0  0  0  0  0
    2.0332   -2.1530    0.7214 N   0  0  0  0  0  0  0  0  0  0  0  0
   -4.8570    1.3389   -0.4288 N   0  0  0  0  0  0  0  0  0  0  0  0
    0.9229   -1.3181    0.3828 C   0  0  0  0  0  0  0  0  0  0  0  0
   -1.2578    0.2925   -0.2649 C   0  0  0  0  0  0  0  0  0  0  0  0
   -1.4543   -0.9020    0.4315 C   0  0  0  0  0  0  0  0  0  0  0  0
    1.1185   -0.1240   -0.3126 C   0  0  0  0  0  0  0  0  0  0  0  0
   -0.3634   -1.7089    0.7558 C   0  0  0  0  0  0  0  0  0  0  0  0
    0.0295    0.6854   -0.6390 C   0  0  0  0  0  0  0  0  0  0  0  0
   -2.4261    1.1296   -0.5992 C   0  0  0  0  0  0  0  0  0  0  0  0
   -3.7397    0.6118   -0.1513 C   0  0  0  0  0  0  0  0  0  0  0  0
   -3.7762   -0.5502    0.5084 C   0  0  0  0  0  0  0  0  0  0  0  0
    2.9108   -3.0884   -1.6377 C   0  0  0  0  0  0  0  0  0  0  0  0
    2.8337    1.4780   -0.1940 C   0  0  0  0  0  0  0  0  0  0  0  0
    2.6523    1.7780    1.1445 C   0  0  0  0  0  0  0  0  0  0  0  0
    3.4664    2.3570   -1.0551 C   0  0  0  0  0  0  0  0  0  0  0  0
    3.1188    2.9965    1.6381 C   0  0  0  0  0  0  0  0  0  0  0  0
    3.9331    3.5754   -0.5616 C   0  0  0  0  0  0  0  0  0  0  0  0
    3.7592    3.8950    0.7849 C   0  0  0  0  0  0  0  0  0  0  0  0
   -6.1311    0.9573   -0.0624 C   0  0  0  0  0  0  0  0  0  0  0  0
   -0.5226   -2.6308    1.3100 H   0  0  0  0  0  0  0  0  0  0  0  0
    0.1833    1.6090   -1.1913 H   0  0  0  0  0  0  0  0  0  0  0  0
    2.9096   -1.6345    0.8688 H   0  0  0  0  0  0  0  0  0  0  0  0
   -4.6317   -1.0719    0.9041 H   0  0  0  0  0  0  0  0  0  0  0  0
    3.8289   -2.5377   -1.4245 H   0  0  0  0  0  0  0  0  0  0  0  0
    3.1410   -3.9673   -2.2443 H   0  0  0  0  0  0  0  0  0  0  0  0
    2.1871   -2.4620   -2.1614 H   0  0  0  0  0  0  0  0  0  0  0  0
   -4.7379    2.2120   -0.9354 H   0  0  0  0  0  0  0  0  0  0  0  0
    2.1743    1.0884    1.8336 H   0  0  0  0  0  0  0  0  0  0  0  0
    3.6019    2.1097   -2.1036 H   0  0  0  0  0  0  0  0  0  0  0  0
    2.9874    3.2438    2.6874 H   0  0  0  0  0  0  0  0  0  0  0  0
    4.4318    4.2751   -1.2259 H   0  0  0  0  0  0  0  0  0  0  0  0
    4.1235    4.8433    1.1692 H   0  0  0  0  0  0  0  0  0  0  0  0
   -6.8677    1.7065   -0.3975 H   0  0  0  0  0  0  0  0  0  0  0  0
  1  5  2  0  0  0  0
  1  6  2  0  0  0  0
  1  8  1  0  0  0  0
  1 19  1  0  0  0  0
  2 12  1  0  0  0  0
  2 18  1  0  0  0  0
  3 13  1  0  0  0  0
  3 20  1  0  0  0  0
  4 16  2  0  0  0  0
  7 26  2  0  0  0  0
  8 10  1  0  0  0  0
  8 29  1  0  0  0  0
  9 17  1  0  0  0  0
  9 26  1  0  0  0  0
  9 34  1  0  0  0  0
 10 13  2  0  0  0  0
 10 14  1  0  0  0  0
 11 12  1  0  0  0  0
 11 15  2  0  0  0  0
 11 16  1  0  0  0  0
 12 14  2  0  0  0  0
 13 15  1  0  0  0  0
 14 27  1  0  0  0  0
 15 28  1  0  0  0  0
 16 17  1  0  0  0  0
 17 18  2  0  0  0  0
 18 30  1  0  0  0  0
 19 31  1  0  0  0  0
 19 32  1  0  0  0  0
 19 33  1  0  0  0  0
 20 21  2  0  0  0  0
 20 22  1  0  0  0  0
 21 23  1  0  0  0  0
 21 35  1  0  0  0  0
 22 24  2  0  0  0  0
 22 36  1  0  0  0  0
 23 25  2  0  0  0  0
 23 37  1  0  0  0  0
 24 25  1  0  0  0  0
 24 38  1  0  0  0  0
 25 39  1  0  0  0  0
 26 40  1  0  0  0  0
M  END
> <PUBCHEM_COMPOUND_CID>
124246

> <PUBCHEM_CONFORMER_RMSD>
0.8

> <PUBCHEM_CONFORMER_DIVERSEORDER>
1
3
28
42
33
37
5
7
25
34
39
41
9
27
31
6
40
36
22
14
35
15
16
18
10
26
23
21
24
17
13
32
30
12
38
11
8
4
20
29
2
19

> <PUBCHEM_MMFF94_PARTIAL_CHARGES>
37
1 1.33
10 0.2
11 0.09
12 0.08
13 0.08
14 -0.15
15 -0.15
16 0.47
17 0.12
18 -0.07
19 0.11
2 -0.16
20 0.08
21 -0.15
22 -0.15
23 -0.15
24 -0.15
25 -0.15
26 0.57
27 0.15
28 0.15
29 0.42
3 -0.17
30 0.15
34 0.37
35 0.15
36 0.15
37 0.15
38 0.15
39 0.15
4 -0.57
40 0.06
5 -0.65
6 -0.65
7 -0.57
8 -0.76
9 -0.54

> <PUBCHEM_EFFECTIVE_ROTOR_COUNT>
6

> <PUBCHEM_PHARMACOPHORE_FEATURES>
11
1 2 acceptor
1 3 acceptor
1 4 acceptor
1 5 acceptor
1 6 acceptor
1 7 acceptor
1 8 donor
1 9 donor
6 10 11 12 13 14 15 rings
6 2 11 12 16 17 18 rings
6 20 21 22 23 24 25 rings

> <PUBCHEM_HEAVY_ATOM_COUNT>
26

> <PUBCHEM_ATOM_DEF_STEREO_COUNT>
0

> <PUBCHEM_ATOM_UDEF_STEREO_COUNT>
0

> <PUBCHEM_BOND_DEF_STEREO_COUNT>
0

> <PUBCHEM_BOND_UDEF_STEREO_COUNT>
0

> <PUBCHEM_ISOTOPIC_ATOM_COUNT>
0

> <PUBCHEM_COMPONENT_COUNT>
1

> <PUBCHEM_CACTVS_TAUTO_COUNT>
8

> <PUBCHEM_CONFORMER_ID>
0001E55600000001

> <PUBCHEM_MMFF94_ENERGY>
85.8112

> <PUBCHEM_FEATURE_SELFOVERLAP>
55.871

> <PUBCHEM_SHAPE_FINGERPRINT>
10074138 170 17474365346786298386
10411042 1 17977383828612093442
12403259 226 17972878060194485133
12549972 3 17750818600247380907
12730499 353 18339371845904767347
12788726 201 17111280815889969306
13140716 1 18336821000450928754
13533116 47 18341334401562706233
13540713 4 18113627772654614971
13590594 115 17834124039112923681
13681431 1 18127697020090069334
13757389 114 17615705354381137508
138480 1 18193837046551935190
13878862 14 18191567685118923141
13955234 65 18411139108537932579
14114211 68 18263385696483874405
14790565 3 18047759479466441237
15230672 131 18191592051122163612
15927050 60 18268428130683077126
17980427 26 18270386283218322844
1813 80 17771067081593360486
18785283 64 18336824208527631218
20028762 73 17693103272269498119
20369508 70 18267026059176753807
20600515 1 17177405509824600994
21033648 29 18125719243295614464
21049683 271 18190189996911494118
21120745 212 17550685318277752790
21304303 282 17482237785616801038
22182313 1 17749660793429253701
23559900 14 18337105653597787251
283562 15 17836919375812643623
3298306 158 18339654416599500230
350125 39 18334294271201286608
495365 180 18412823607590810258
5104073 3 18187649064495284985
5265222 85 17974870646691149548
5385378 56 18411143545434536041
59755656 215 18335144172166949708
6442390 28 18194684993265702504
7364860 26 18338796711050337126
77188 2 18050848810866499090
7808743 9 17688027926764638216
81228 2 17114661273216598562
9709674 26 18261395499402705811
9981440 41 18192709162085359522

> <PUBCHEM_SHAPE_MULTIPOLES>
493.74
10.19
5.52
1.17
16.35
4.98
-0.01
-8.39
0.4
-9.57
0.06
-0.84
-0.22
1.3

> <PUBCHEM_SHAPE_SELFOVERLAP>
1065.336

> <PUBCHEM_SHAPE_VOLUME>
270.1

> <PUBCHEM_COORDINATE_TYPE>
2
5
10

$$$$
