124202093
  -OEChem-03292013293D

 49 50  0     1  0  0  0  0  0999 V2000
    2.4741   -2.0424   -1.7027 O   0  0  0  0  0  0  0  0  0  0  0  0
   -0.4447    2.2048    0.3220 O   0  0  0  0  0  0  0  0  0  0  0  0
    2.4691   -3.4958    0.1666 O   0  0  0  0  0  0  0  0  0  0  0  0
    4.7320    0.5322    1.1803 O   0  0  0  0  0  0  0  0  0  0  0  0
    1.0823    1.4266   -1.2228 O   0  0  0  0  0  0  0  0  0  0  0  0
    4.3244    1.7135   -0.7686 O   0  0  0  0  0  0  0  0  0  0  0  0
   -3.9135   -0.9170    2.2887 O   0  0  0  0  0  0  0  0  0  0  0  0
   -5.0532   -2.1083    0.0510 O   0  0  0  0  0  0  0  0  0  0  0  0
    1.9718   -0.4727    0.7612 C   0  0  2  0  0  0  0  0  0  0  0  0
    1.0227   -1.5407    0.2154 C   0  0  0  0  0  0  0  0  0  0  0  0
    1.2648    0.8419    1.1303 C   0  0  0  0  0  0  0  0  0  0  0  0
    3.0922   -0.2389   -0.2276 C   0  0  0  0  0  0  0  0  0  0  0  0
    1.6900   -2.6048   -0.6351 C   0  0  1  0  0  0  0  0  0  0  0  0
    3.2450   -0.9670   -1.3420 C   0  0  0  0  0  0  0  0  0  0  0  0
   -0.3079   -1.5678    0.3998 C   0  0  0  0  0  0  0  0  0  0  0  0
    0.6578    1.5042   -0.0781 C   0  0  0  0  0  0  0  0  0  0  0  0
    4.1090    0.7914    0.0026 C   0  0  0  0  0  0  0  0  0  0  0  0
   -1.1434    2.8992   -0.7163 C   0  0  0  0  0  0  0  0  0  0  0  0
   -1.1950   -2.6459   -0.1174 C   0  0  0  0  0  0  0  0  0  0  0  0
   -2.6255    2.9888   -0.3692 C   0  0  0  0  0  0  0  0  0  0  0  0
   -3.2711    1.6293   -0.2542 C   0  0  0  0  0  0  0  0  0  0  0  0
   -3.2959    0.9708    0.9752 C   0  0  0  0  0  0  0  0  0  0  0  0
   -3.8439    1.0320   -1.3770 C   0  0  0  0  0  0  0  0  0  0  0  0
   -3.8936   -0.2850    1.0819 C   0  0  0  0  0  0  0  0  0  0  0  0
   -4.4414   -0.2240   -1.2704 C   0  0  0  0  0  0  0  0  0  0  0  0
   -4.4663   -0.8824   -0.0410 C   0  0  0  0  0  0  0  0  0  0  0  0
    5.7602    1.4580    1.5475 C   0  0  0  0  0  0  0  0  0  0  0  0
    2.4195   -0.8831    1.6769 H   0  0  0  0  0  0  0  0  0  0  0  0
    1.9723    1.5548    1.5708 H   0  0  0  0  0  0  0  0  0  0  0  0
    0.4976    0.6627    1.8923 H   0  0  0  0  0  0  0  0  0  0  0  0
    0.9613   -3.2273   -1.1584 H   0  0  0  0  0  0  0  0  0  0  0  0
    4.0056   -0.7912   -2.0914 H   0  0  0  0  0  0  0  0  0  0  0  0
   -0.8029   -0.8048    0.9882 H   0  0  0  0  0  0  0  0  0  0  0  0
   -0.7222    3.9075   -0.7914 H   0  0  0  0  0  0  0  0  0  0  0  0
   -1.0265    2.3998   -1.6857 H   0  0  0  0  0  0  0  0  0  0  0  0
   -1.5137   -2.4300   -1.1412 H   0  0  0  0  0  0  0  0  0  0  0  0
   -2.0924   -2.7020    0.5071 H   0  0  0  0  0  0  0  0  0  0  0  0
   -0.7467   -3.6419   -0.0651 H   0  0  0  0  0  0  0  0  0  0  0  0
   -2.7501    3.5195    0.5834 H   0  0  0  0  0  0  0  0  0  0  0  0
   -3.1500    3.5856   -1.1253 H   0  0  0  0  0  0  0  0  0  0  0  0
    2.4226   -4.3742   -0.2476 H   0  0  0  0  0  0  0  0  0  0  0  0
   -2.8492    1.4366    1.8504 H   0  0  0  0  0  0  0  0  0  0  0  0
   -3.8289    1.5345   -2.3405 H   0  0  0  0  0  0  0  0  0  0  0  0
   -4.8831   -0.6783   -2.1532 H   0  0  0  0  0  0  0  0  0  0  0  0
    5.3408    2.4618    1.6646 H   0  0  0  0  0  0  0  0  0  0  0  0
    6.5566    1.4566    0.7971 H   0  0  0  0  0  0  0  0  0  0  0  0
    6.1793    1.1384    2.5053 H   0  0  0  0  0  0  0  0  0  0  0  0
   -3.4660   -0.3578    2.9468 H   0  0  0  0  0  0  0  0  0  0  0  0
   -5.3911   -2.3640   -0.8245 H   0  0  0  0  0  0  0  0  0  0  0  0
  1 13  1  0  0  0  0
  1 14  1  0  0  0  0
  2 16  1  0  0  0  0
  2 18  1  0  0  0  0
  3 13  1  0  0  0  0
  3 41  1  0  0  0  0
  4 17  1  0  0  0  0
  4 27  1  0  0  0  0
  5 16  2  0  0  0  0
  6 17  2  0  0  0  0
  7 24  1  0  0  0  0
  7 48  1  0  0  0  0
  8 26  1  0  0  0  0
  8 49  1  0  0  0  0
  9 10  1  0  0  0  0
  9 11  1  0  0  0  0
  9 12  1  0  0  0  0
  9 28  1  0  0  0  0
 10 13  1  0  0  0  0
 10 15  2  0  0  0  0
 11 16  1  0  0  0  0
 11 29  1  0  0  0  0
 11 30  1  0  0  0  0
 12 14  2  0  0  0  0
 12 17  1  0  0  0  0
 13 31  1  0  0  0  0
 14 32  1  0  0  0  0
 15 19  1  0  0  0  0
 15 33  1  0  0  0  0
 18 20  1  0  0  0  0
 18 34  1  0  0  0  0
 18 35  1  0  0  0  0
 19 36  1  0  0  0  0
 19 37  1  0  0  0  0
 19 38  1  0  0  0  0
 20 21  1  0  0  0  0
 20 39  1  0  0  0  0
 20 40  1  0  0  0  0
 21 22  2  0  0  0  0
 21 23  1  0  0  0  0
 22 24  1  0  0  0  0
 22 42  1  0  0  0  0
 23 25  2  0  0  0  0
 23 43  1  0  0  0  0
 24 26  2  0  0  0  0
 25 26  1  0  0  0  0
 25 44  1  0  0  0  0
 27 45  1  0  0  0  0
 27 46  1  0  0  0  0
 27 47  1  0  0  0  0
M  END
> <PUBCHEM_COMPOUND_CID>
124202093

> <PUBCHEM_CONFORMER_RMSD>
1.4

> <PUBCHEM_CONFORMER_DIVERSEORDER>
1
12
64
73
57
26
34
4
65
49
60
46
48
67
59
55
86
45
42
76
29
61
40
17
16
36
58
10
80
21
5
93
8
56
62
14
70
92
24
82
31
6
54
94
91
13
18
7
52
37
66
51
77
72
11
69
68
28
88
71
3
23
30
35
47
38
53
50
32
90
41
96
83
81
95
33
78
39
87
43
15
44
84
63
89
9
74
22
27
19
85
79
25
2
20
75

> <PUBCHEM_MMFF94_PARTIAL_CHARGES>
35
1 -0.36
10 -0.28
11 0.06
12 -0.12
13 0.7
14 -0.07
15 -0.29
16 0.66
17 0.71
18 0.28
19 0.14
2 -0.43
20 0.14
21 -0.14
22 -0.15
23 -0.15
24 0.08
25 -0.15
26 0.08
27 0.28
3 -0.68
32 0.15
33 0.15
4 -0.43
41 0.4
42 0.15
43 0.15
44 0.15
48 0.45
49 0.45
5 -0.57
6 -0.57
7 -0.53
8 -0.53
9 0.28

> <PUBCHEM_EFFECTIVE_ROTOR_COUNT>
8.6

> <PUBCHEM_PHARMACOPHORE_FEATURES>
10
1 1 acceptor
1 19 hydrophobe
1 3 acceptor
1 3 donor
1 5 acceptor
1 6 acceptor
1 7 donor
1 8 donor
6 1 9 10 12 13 14 rings
6 21 22 23 24 25 26 rings

> <PUBCHEM_HEAVY_ATOM_COUNT>
27

> <PUBCHEM_ATOM_DEF_STEREO_COUNT>
2

> <PUBCHEM_ATOM_UDEF_STEREO_COUNT>
0

> <PUBCHEM_BOND_DEF_STEREO_COUNT>
1

> <PUBCHEM_BOND_UDEF_STEREO_COUNT>
0

> <PUBCHEM_ISOTOPIC_ATOM_COUNT>
0

> <PUBCHEM_COMPONENT_COUNT>
1

> <PUBCHEM_CACTVS_TAUTO_COUNT>
18

> <PUBCHEM_CONFORMER_ID>
07672C6D00000001

> <PUBCHEM_MMFF94_ENERGY>
57.5426

> <PUBCHEM_FEATURE_SELFOVERLAP>
50.788

> <PUBCHEM_SHAPE_FINGERPRINT>
10074138 170 17907264966332889882
10498660 4 18334573495730899679
10675989 125 17252844080517607973
108634 29 18334584563450671242
11488393 25 17773324439701356110
12422481 6 18265314146127925226
12596599 1 17631733751707733967
13034934 17 18341045311097426792
13140716 1 18122906692107839649
13224815 77 18337954489469745301
13402501 40 18409726300831745539
13911882 115 18272653441565844292
14787075 74 18131060567619355632
15788980 27 14057002706532858585
17349148 13 15719681965632081120
17357779 13 18409448072913653157
173720 79 18188475965826824040
21673915 165 18341892987185874157
221490 88 18194971742578342766
22182313 1 18337686221443818202
22393880 68 18193841440050232900
23559900 14 18052531072109462634
329604 57 17968099784481669057
350125 39 18411984625254836130
3737641 26 18129676209233095183
463206 1 18121779693554733807
469060 322 18265338485570636379
474229 33 18411128165272602320
6442390 28 18343579659993532630
9709674 26 18264487274175256565

> <PUBCHEM_SHAPE_MULTIPOLES>
508.69
10.67
3.46
1.45
0.96
0.69
-0.2
-1.29
-1.58
-0.03
0.56
-0.11
0.03
1.5

> <PUBCHEM_SHAPE_SELFOVERLAP>
1068.556

> <PUBCHEM_SHAPE_VOLUME>
283.2

> <PUBCHEM_COORDINATE_TYPE>
2
5
10

$$$$
