124345
  -OEChem-03292013323D

 30 31  0     1  0  0  0  0  0999 V2000
    1.4073    0.5705    0.9909 O   0  0  0  0  0  0  0  0  0  0  0  0
    1.2043   -2.3250   -1.1175 O   0  0  0  0  0  0  0  0  0  0  0  0
    3.3736   -1.6377    0.3764 O   0  0  0  0  0  0  0  0  0  0  0  0
    2.5174    3.0455    0.2849 O   0  0  0  0  0  0  0  0  0  0  0  0
   -1.5592   -2.3169    0.7250 O   0  0  0  0  0  0  0  0  0  0  0  0
   -3.0841   -0.6746    0.1738 N   0  0  0  0  0  0  0  0  0  0  0  0
   -2.4113    1.5213   -0.3341 N   0  0  0  0  0  0  0  0  0  0  0  0
   -4.6827    0.9385   -0.3756 N   0  0  0  0  0  0  0  0  0  0  0  0
    1.3995   -0.9578   -0.8160 C   0  0  2  0  0  0  0  0  0  0  0  0
    2.8383   -0.6259   -0.4760 C   0  0  1  0  0  0  0  0  0  0  0  0
    0.6743   -0.5477    0.4581 C   0  0  2  0  0  0  0  0  0  0  0  0
    2.6855    0.6627    0.3230 C   0  0  1  0  0  0  0  0  0  0  0  0
   -0.7414   -0.1395    0.2337 C   0  0  0  0  0  0  0  0  0  0  0  0
    2.6739    1.9108   -0.5491 C   0  0  0  0  0  0  0  0  0  0  0  0
   -1.8101   -1.1591    0.4060 C   0  0  0  0  0  0  0  0  0  0  0  0
   -1.1258    1.0968   -0.1168 C   0  0  0  0  0  0  0  0  0  0  0  0
   -3.3595    0.6382   -0.1869 C   0  0  0  0  0  0  0  0  0  0  0  0
    1.0772   -0.3604   -1.6776 H   0  0  0  0  0  0  0  0  0  0  0  0
    3.4911   -0.5470   -1.3491 H   0  0  0  0  0  0  0  0  0  0  0  0
    0.7166   -1.3387    1.2165 H   0  0  0  0  0  0  0  0  0  0  0  0
    3.4456    0.7592    1.1065 H   0  0  0  0  0  0  0  0  0  0  0  0
    1.8441    1.9035   -1.2617 H   0  0  0  0  0  0  0  0  0  0  0  0
    3.6157    2.0081   -1.0982 H   0  0  0  0  0  0  0  0  0  0  0  0
    0.2528   -2.4614   -1.2628 H   0  0  0  0  0  0  0  0  0  0  0  0
    2.9066   -1.6153    1.2281 H   0  0  0  0  0  0  0  0  0  0  0  0
   -0.3863    1.8775   -0.2600 H   0  0  0  0  0  0  0  0  0  0  0  0
    2.5183    3.8280   -0.2922 H   0  0  0  0  0  0  0  0  0  0  0  0
   -3.8638   -1.3178    0.2734 H   0  0  0  0  0  0  0  0  0  0  0  0
   -4.9767    1.8722   -0.6408 H   0  0  0  0  0  0  0  0  0  0  0  0
   -5.4063    0.2379   -0.2570 H   0  0  0  0  0  0  0  0  0  0  0  0
  1 11  1  0  0  0  0
  1 12  1  0  0  0  0
  2  9  1  0  0  0  0
  2 24  1  0  0  0  0
  3 10  1  0  0  0  0
  3 25  1  0  0  0  0
  4 14  1  0  0  0  0
  4 27  1  0  0  0  0
  5 15  2  0  0  0  0
  6 15  1  0  0  0  0
  6 17  1  0  0  0  0
  6 28  1  0  0  0  0
  7 16  1  0  0  0  0
  7 17  2  0  0  0  0
  8 17  1  0  0  0  0
  8 29  1  0  0  0  0
  8 30  1  0  0  0  0
  9 10  1  0  0  0  0
  9 11  1  0  0  0  0
  9 18  1  0  0  0  0
 10 12  1  0  0  0  0
 10 19  1  0  0  0  0
 11 13  1  0  0  0  0
 11 20  1  0  0  0  0
 12 14  1  0  0  0  0
 12 21  1  0  0  0  0
 13 15  1  0  0  0  0
 13 16  2  0  0  0  0
 14 22  1  0  0  0  0
 14 23  1  0  0  0  0
 16 26  1  0  0  0  0
M  END
> <PUBCHEM_COMPOUND_CID>
124345

> <PUBCHEM_CONFORMER_RMSD>
0.6

> <PUBCHEM_CONFORMER_DIVERSEORDER>
2
5
14
10
12
11
9
6
13
7
8
1
4
3

> <PUBCHEM_MMFF94_PARTIAL_CHARGES>
24
1 -0.56
10 0.28
11 0.42
12 0.28
13 -0.12
14 0.28
15 0.62
16 0.02
17 0.56
2 -0.68
24 0.4
25 0.4
26 0.15
27 0.4
28 0.37
29 0.4
3 -0.68
30 0.4
4 -0.68
5 -0.57
6 -0.49
7 -0.62
8 -0.85
9 0.28

> <PUBCHEM_EFFECTIVE_ROTOR_COUNT>
3

> <PUBCHEM_PHARMACOPHORE_FEATURES>
12
1 1 acceptor
1 2 acceptor
1 2 donor
1 3 acceptor
1 3 donor
1 4 acceptor
1 4 donor
1 5 acceptor
1 6 donor
1 8 donor
5 1 9 10 11 12 rings
6 6 7 13 15 16 17 rings

> <PUBCHEM_HEAVY_ATOM_COUNT>
17

> <PUBCHEM_ATOM_DEF_STEREO_COUNT>
4

> <PUBCHEM_ATOM_UDEF_STEREO_COUNT>
0

> <PUBCHEM_BOND_DEF_STEREO_COUNT>
0

> <PUBCHEM_BOND_UDEF_STEREO_COUNT>
0

> <PUBCHEM_ISOTOPIC_ATOM_COUNT>
0

> <PUBCHEM_COMPONENT_COUNT>
1

> <PUBCHEM_CACTVS_TAUTO_COUNT>
6

> <PUBCHEM_CONFORMER_ID>
0001E5B900000002

> <PUBCHEM_MMFF94_ENERGY>
44.8432

> <PUBCHEM_FEATURE_SELFOVERLAP>
60.959

> <PUBCHEM_SHAPE_FINGERPRINT>
10608611 8 18409166640438436825
11031198 65 18060701693043974365
11471102 20 18342174436260860164
12507560 14 18119517744153183322
13380535 76 18411697677593076011
13897977 150 18339363066770353917
14250199 8 18341333310198076877
14252887 29 10735864115143505789
14415576 193 18413109467629150245
14648413 74 18410014346913344232
15219456 202 18411141367548090779
15375462 6 18192715763661180206
15775835 57 17676770868482346315
16945 1 18269571458822966506
18175812 5 18408605880854877279
18186145 218 18337106753278291565
200 152 17417523627687330775
20201158 50 18272090439893817975
20645477 70 18342457015271175335
21486144 27 18335698355976263717
21501502 16 18411980303536548011
21524375 3 17909555291892436544
21947302 44 18412544288545244302
22802520 49 18337684052348118803
23402539 116 18267009570828426679
23419403 2 14939974715065428170
23557571 272 18118699926334102527
23559900 14 18411696569681424306
2748010 2 18267875054104517006
3060560 45 18202569458278584516
4047638 21 18409451362394410681
495365 180 17988910193683992233
5104073 3 18335422387300543041
633830 44 18339636734198056333
69090 78 18412538787198839239
7364860 26 18411699889833503864
74978 22 18335422356929783650
81228 2 17750808842276934179
8809292 202 18408328765243903554
93112 12 18409169908860816494
9709674 26 18411986853583701391

> <PUBCHEM_SHAPE_MULTIPOLES>
305.56
6.38
2.45
0.85
4.02
0.44
0.05
1.82
0.48
-1.41
0.08
-0.24
-0.18
0.58

> <PUBCHEM_SHAPE_SELFOVERLAP>
647.318

> <PUBCHEM_SHAPE_VOLUME>
170.1

> <PUBCHEM_COORDINATE_TYPE>
2
5
10

$$$$
