124300747
  -OEChem-03292013293D

 59 60  0     1  0  0  0  0  0999 V2000
    2.6789   -0.0354    0.0280 O   0  0  0  0  0  0  0  0  0  0  0  0
   -1.4645    0.1937    0.5137 O   0  0  0  0  0  0  0  0  0  0  0  0
   -4.1124   -2.1675    0.1592 O   0  0  0  0  0  0  0  0  0  0  0  0
   -3.9127    1.4973    0.0244 O   0  0  0  0  0  0  0  0  0  0  0  0
   -2.3582    0.1762   -2.0264 O   0  0  0  0  0  0  0  0  0  0  0  0
   -2.0669   -1.6909    1.6798 O   0  0  0  0  0  0  0  0  0  0  0  0
    3.0608   -1.7743   -1.4321 O   0  0  0  0  0  0  0  0  0  0  0  0
    1.6908    3.0329   -0.4715 N   0  0  2  0  0  0  0  0  0  0  0  0
    1.0020    1.7064   -0.4581 C   0  0  1  0  0  0  0  0  0  0  0  0
    2.0191    0.6952   -0.9999 C   0  0  1  0  0  0  0  0  0  0  0  0
    3.0285    1.5659   -1.7328 C   0  0  0  0  0  0  0  0  0  0  0  0
    3.0879    2.8109   -0.8614 C   0  0  0  0  0  0  0  0  0  0  0  0
    0.4813    1.5217    0.9310 C   0  0  0  0  0  0  0  0  0  0  0  0
    1.5466    3.5976    0.8859 C   0  0  0  0  0  0  0  0  0  0  0  0
    0.7903    2.5841    1.6797 C   0  0  0  0  0  0  0  0  0  0  0  0
   -0.3039    0.3294    1.3398 C   0  0  0  0  0  0  0  0  0  0  0  0
   -3.4750   -0.9123   -0.1612 C   0  0  1  0  0  0  0  0  0  0  0  0
   -4.5174    0.2092    0.1627 C   0  0  0  0  0  0  0  0  0  0  0  0
   -2.2703   -0.8698    0.7924 C   0  0  0  0  0  0  0  0  0  0  0  0
   -3.0325   -1.0320   -1.6473 C   0  0  2  0  0  0  0  0  0  0  0  0
    3.1555   -1.2645   -0.3246 C   0  0  0  0  0  0  0  0  0  0  0  0
   -5.0461    0.1061    1.6058 C   0  0  0  0  0  0  0  0  0  0  0  0
   -5.7217    0.1638   -0.7937 C   0  0  0  0  0  0  0  0  0  0  0  0
   -2.1483   -2.2082   -2.0419 C   0  0  0  0  0  0  0  0  0  0  0  0
    3.8124   -1.9075    0.8538 C   0  0  0  0  0  0  0  0  0  0  0  0
    2.9972   -2.1205    2.0947 C   0  0  0  0  0  0  0  0  0  0  0  0
    5.1134   -2.2177    0.7042 C   0  0  0  0  0  0  0  0  0  0  0  0
    5.9652   -1.9899   -0.5042 C   0  0  0  0  0  0  0  0  0  0  0  0
    0.1627    1.7876   -1.1608 H   0  0  0  0  0  0  0  0  0  0  0  0
    1.5122    0.0137   -1.6945 H   0  0  0  0  0  0  0  0  0  0  0  0
    2.6543    1.8243   -2.7309 H   0  0  0  0  0  0  0  0  0  0  0  0
    4.0136    1.1004   -1.8328 H   0  0  0  0  0  0  0  0  0  0  0  0
    3.7348    2.6091    0.0019 H   0  0  0  0  0  0  0  0  0  0  0  0
    3.4923    3.6705   -1.4039 H   0  0  0  0  0  0  0  0  0  0  0  0
    0.9716    4.5280    0.8291 H   0  0  0  0  0  0  0  0  0  0  0  0
    2.5048    3.8216    1.3673 H   0  0  0  0  0  0  0  0  0  0  0  0
    0.5166    2.7137    2.7167 H   0  0  0  0  0  0  0  0  0  0  0  0
   -0.6213    0.4219    2.3856 H   0  0  0  0  0  0  0  0  0  0  0  0
    0.3119   -0.5714    1.2448 H   0  0  0  0  0  0  0  0  0  0  0  0
   -3.9275   -1.1127   -2.2742 H   0  0  0  0  0  0  0  0  0  0  0  0
   -4.2300    0.1465    2.3349 H   0  0  0  0  0  0  0  0  0  0  0  0
   -5.4344    0.4414   -1.8132 H   0  0  0  0  0  0  0  0  0  0  0  0
   -6.4798    0.8983   -0.4956 H   0  0  0  0  0  0  0  0  0  0  0  0
   -6.1965   -0.8221   -0.8106 H   0  0  0  0  0  0  0  0  0  0  0  0
   -5.6304   -0.8030    1.7769 H   0  0  0  0  0  0  0  0  0  0  0  0
   -5.6931    0.9606    1.8397 H   0  0  0  0  0  0  0  0  0  0  0  0
   -1.1816   -2.1607   -1.5291 H   0  0  0  0  0  0  0  0  0  0  0  0
   -2.6235   -3.1648   -1.8067 H   0  0  0  0  0  0  0  0  0  0  0  0
   -1.9320   -2.1850   -3.1157 H   0  0  0  0  0  0  0  0  0  0  0  0
   -4.2337   -2.2262    1.1213 H   0  0  0  0  0  0  0  0  0  0  0  0
   -4.5872    2.1727    0.2101 H   0  0  0  0  0  0  0  0  0  0  0  0
   -2.1668    0.1207   -2.9781 H   0  0  0  0  0  0  0  0  0  0  0  0
    2.1029   -2.7082    1.8641 H   0  0  0  0  0  0  0  0  0  0  0  0
    3.5642   -2.6593    2.8608 H   0  0  0  0  0  0  0  0  0  0  0  0
    2.6841   -1.1619    2.5201 H   0  0  0  0  0  0  0  0  0  0  0  0
    5.6232   -2.6890    1.5426 H   0  0  0  0  0  0  0  0  0  0  0  0
    6.1418   -2.9380   -1.0208 H   0  0  0  0  0  0  0  0  0  0  0  0
    6.9360   -1.5926   -0.1887 H   0  0  0  0  0  0  0  0  0  0  0  0
    5.5500   -1.2723   -1.2155 H   0  0  0  0  0  0  0  0  0  0  0  0
  1 10  1  0  0  0  0
  1 21  1  0  0  0  0
  2 16  1  0  0  0  0
  2 19  1  0  0  0  0
  3 17  1  0  0  0  0
  3 50  1  0  0  0  0
  4 18  1  0  0  0  0
  4 51  1  0  0  0  0
  5 20  1  0  0  0  0
  5 52  1  0  0  0  0
  6 19  2  0  0  0  0
  7 21  2  0  0  0  0
  8  9  1  0  0  0  0
  8 12  1  0  0  0  0
  8 14  1  0  0  0  0
  9 10  1  0  0  0  0
  9 13  1  0  0  0  0
  9 29  1  0  0  0  0
 10 11  1  0  0  0  0
 10 30  1  0  0  0  0
 11 12  1  0  0  0  0
 11 31  1  0  0  0  0
 11 32  1  0  0  0  0
 12 33  1  0  0  0  0
 12 34  1  0  0  0  0
 13 15  2  0  0  0  0
 13 16  1  0  0  0  0
 14 15  1  0  0  0  0
 14 35  1  0  0  0  0
 14 36  1  0  0  0  0
 15 37  1  0  0  0  0
 16 38  1  0  0  0  0
 16 39  1  0  0  0  0
 17 18  1  0  0  0  0
 17 19  1  0  0  0  0
 17 20  1  0  0  0  0
 18 22  1  0  0  0  0
 18 23  1  0  0  0  0
 20 24  1  0  0  0  0
 20 40  1  0  0  0  0
 21 25  1  0  0  0  0
 22 41  1  0  0  0  0
 22 45  1  0  0  0  0
 22 46  1  0  0  0  0
 23 42  1  0  0  0  0
 23 43  1  0  0  0  0
 23 44  1  0  0  0  0
 24 47  1  0  0  0  0
 24 48  1  0  0  0  0
 24 49  1  0  0  0  0
 25 26  1  0  0  0  0
 25 27  2  0  0  0  0
 26 53  1  0  0  0  0
 26 54  1  0  0  0  0
 26 55  1  0  0  0  0
 27 28  1  0  0  0  0
 27 56  1  0  0  0  0
 28 57  1  0  0  0  0
 28 58  1  0  0  0  0
 28 59  1  0  0  0  0
M  END
> <PUBCHEM_COMPOUND_CID>
124300747

> <PUBCHEM_CONFORMER_RMSD>
1.2

> <PUBCHEM_CONFORMER_DIVERSEORDER>
1
86
43
83
84
52
48
90
62
75
10
49
88
44
58
63
32
27
39
69
17
91
85
22
55
15
72
46
37
74
51
59
93
79
16
53
30
68
29
38
41
70
42
4
24
26
3
89
66
71
18
11
35
56
34
50
65
19
47
28
67
7
92
45
21
87
77
20
23
12
31
40
76
13
60
8
6
82
64
73
57
33
9
80
36
2
61
81
5
25
54
78
14

> <PUBCHEM_MMFF94_PARTIAL_CHARGES>
29
1 -0.43
10 0.28
12 0.27
13 -0.28
14 0.41
15 -0.29
16 0.42
17 0.34
18 0.28
19 0.66
2 -0.43
20 0.28
21 0.71
25 -0.12
26 0.14
27 -0.29
28 0.14
3 -0.68
37 0.15
4 -0.68
5 -0.68
50 0.4
51 0.4
52 0.4
56 0.15
6 -0.57
7 -0.57
8 -0.81
9 0.41

> <PUBCHEM_EFFECTIVE_ROTOR_COUNT>
9.8

> <PUBCHEM_PHARMACOPHORE_FEATURES>
14
1 26 hydrophobe
1 28 hydrophobe
1 3 acceptor
1 3 donor
1 4 acceptor
1 4 donor
1 5 acceptor
1 5 donor
1 6 acceptor
1 7 acceptor
1 8 cation
3 18 22 23 hydrophobe
5 8 9 10 11 12 rings
5 8 9 13 14 15 rings

> <PUBCHEM_HEAVY_ATOM_COUNT>
28

> <PUBCHEM_ATOM_DEF_STEREO_COUNT>
4

> <PUBCHEM_ATOM_UDEF_STEREO_COUNT>
0

> <PUBCHEM_BOND_DEF_STEREO_COUNT>
1

> <PUBCHEM_BOND_UDEF_STEREO_COUNT>
0

> <PUBCHEM_ISOTOPIC_ATOM_COUNT>
0

> <PUBCHEM_COMPONENT_COUNT>
1

> <PUBCHEM_CACTVS_TAUTO_COUNT>
1

> <PUBCHEM_CONFORMER_ID>
0768ADCB00000001

> <PUBCHEM_MMFF94_ENERGY>
65.3639

> <PUBCHEM_FEATURE_SELFOVERLAP>
71.395

> <PUBCHEM_SHAPE_FINGERPRINT>
10369192 42 17172385530242521164
11265709 11 18339366254026309024
12553582 1 17845672415823525046
12633257 1 18059864965217515541
12788726 201 18120652431763028210
13004483 165 18195233435162645458
13533116 47 18264486355600913747
13583140 156 18196381540092248905
14068700 675 18337669703585043570
14117953 113 18058454209551226479
14251757 17 17095516258656845694
14705955 166 16342576120309853730
14840074 17 18201436939796106862
17349148 13 16271657749557573293
17809404 112 14189575273591399133
1813 80 18340483366213786178
20511986 3 18343295981403466440
20600515 1 16702304537806998633
20626108 58 17987784319457204335
21250096 35 18341328907772150562
21421861 104 18342747320843292288
21756936 100 8141499290645892152
22393880 68 17914622905960564364
23419403 2 18049686751772598352
23559900 14 18334572477396480057
3004659 81 18409169887591838246
339767 52 18059857246676169646
340366 18 18271517654855536263
46194498 28 16950289537324039054
463206 1 18411981399138544826
5081480 168 17894905213573266524
513202 73 17910120101493494038
613672 6 18338805511681511098
7399639 24 17470457695103354649
7471813 234 18411700963759885832

> <PUBCHEM_SHAPE_MULTIPOLES>
530.16
11.36
3.63
1.94
3.82
2.2
0.1
-7
0.48
-4.27
-0.33
0.22
-0.39
-1.35

> <PUBCHEM_SHAPE_SELFOVERLAP>
1090.53

> <PUBCHEM_SHAPE_VOLUME>
306.6

> <PUBCHEM_COORDINATE_TYPE>
2
5
10

$$$$
