124316
  -OEChem-03292013323D

 34 36  0     1  0  0  0  0  0999 V2000
    2.2172   -0.4014   -0.9840 O   0  0  0  0  0  0  0  0  0  0  0  0
    1.2109    2.1625    1.3257 O   0  0  0  0  0  0  0  0  0  0  0  0
    3.3711    2.3403   -0.3136 O   0  0  0  0  0  0  0  0  0  0  0  0
    4.2079   -2.3330   -0.5729 O   0  0  0  0  0  0  0  0  0  0  0  0
   -4.1978   -1.9854    0.4312 O   0  0  0  0  0  0  0  0  0  0  0  0
    0.0071   -0.4032   -0.1204 N   0  0  0  0  0  0  0  0  0  0  0  0
   -1.2362   -2.2170    0.3333 N   0  0  0  0  0  0  0  0  0  0  0  0
   -3.9363    0.2725   -0.0722 N   0  0  0  0  0  0  0  0  0  0  0  0
   -3.7453    2.6058   -0.5882 N   0  0  0  0  0  0  0  0  0  0  0  0
    1.2025    0.4039   -0.3538 C   0  0  1  0  0  0  0  0  0  0  0  0
    1.8313    0.9615    0.9140 C   0  0  1  0  0  0  0  0  0  0  0  0
    3.2698    1.1559    0.4769 C   0  0  1  0  0  0  0  0  0  0  0  0
    3.5036   -0.0556   -0.4202 C   0  0  1  0  0  0  0  0  0  0  0  0
    4.0349   -1.2630    0.3396 C   0  0  0  0  0  0  0  0  0  0  0  0
   -1.2941   -0.0111   -0.1408 C   0  0  0  0  0  0  0  0  0  0  0  0
   -0.0110   -1.7499    0.1717 C   0  0  0  0  0  0  0  0  0  0  0  0
   -2.0342   -1.1280    0.1375 C   0  0  0  0  0  0  0  0  0  0  0  0
   -1.7892    1.2745   -0.3949 C   0  0  0  0  0  0  0  0  0  0  0  0
   -3.4719   -1.0279    0.1871 C   0  0  0  0  0  0  0  0  0  0  0  0
   -3.1404    1.3987   -0.3557 C   0  0  0  0  0  0  0  0  0  0  0  0
    0.9282    1.1914   -1.0649 H   0  0  0  0  0  0  0  0  0  0  0  0
    1.7773    0.2389    1.7363 H   0  0  0  0  0  0  0  0  0  0  0  0
    3.9691    1.2499    1.3125 H   0  0  0  0  0  0  0  0  0  0  0  0
    4.1638    0.1728   -1.2646 H   0  0  0  0  0  0  0  0  0  0  0  0
    5.0022   -1.0437    0.8010 H   0  0  0  0  0  0  0  0  0  0  0  0
    3.3416   -1.5982    1.1173 H   0  0  0  0  0  0  0  0  0  0  0  0
    0.8938   -2.3359    0.2591 H   0  0  0  0  0  0  0  0  0  0  0  0
    1.3063    2.8116    0.6080 H   0  0  0  0  0  0  0  0  0  0  0  0
    4.2930    2.4094   -0.6152 H   0  0  0  0  0  0  0  0  0  0  0  0
   -1.1394    2.1157   -0.6062 H   0  0  0  0  0  0  0  0  0  0  0  0
    3.3428   -2.5155   -0.9782 H   0  0  0  0  0  0  0  0  0  0  0  0
   -4.9398    0.4315   -0.0573 H   0  0  0  0  0  0  0  0  0  0  0  0
   -4.7547    2.6664   -0.5524 H   0  0  0  0  0  0  0  0  0  0  0  0
   -3.1884    3.4258   -0.7938 H   0  0  0  0  0  0  0  0  0  0  0  0
  1 10  1  0  0  0  0
  1 13  1  0  0  0  0
  2 11  1  0  0  0  0
  2 28  1  0  0  0  0
  3 12  1  0  0  0  0
  3 29  1  0  0  0  0
  4 14  1  0  0  0  0
  4 31  1  0  0  0  0
  5 19  2  0  0  0  0
  6 10  1  0  0  0  0
  6 15  1  0  0  0  0
  6 16  1  0  0  0  0
  7 16  2  0  0  0  0
  7 17  1  0  0  0  0
  8 19  1  0  0  0  0
  8 20  1  0  0  0  0
  8 32  1  0  0  0  0
  9 20  1  0  0  0  0
  9 33  1  0  0  0  0
  9 34  1  0  0  0  0
 10 11  1  0  0  0  0
 10 21  1  0  0  0  0
 11 12  1  0  0  0  0
 11 22  1  0  0  0  0
 12 13  1  0  0  0  0
 12 23  1  0  0  0  0
 13 14  1  0  0  0  0
 13 24  1  0  0  0  0
 14 25  1  0  0  0  0
 14 26  1  0  0  0  0
 15 17  2  0  0  0  0
 15 18  1  0  0  0  0
 16 27  1  0  0  0  0
 17 19  1  0  0  0  0
 18 20  2  0  0  0  0
 18 30  1  0  0  0  0
M  END
> <PUBCHEM_COMPOUND_CID>
124316

> <PUBCHEM_CONFORMER_RMSD>
0.6

> <PUBCHEM_CONFORMER_DIVERSEORDER>
3
7
12
9
4
11
6
2
8
5
10
1

> <PUBCHEM_MMFF94_PARTIAL_CHARGES>
28
1 -0.56
10 0.54
11 0.28
12 0.28
13 0.28
14 0.28
15 -0.2
16 0.04
17 0.14
18 -0.11
19 0.72
2 -0.68
20 0.21
27 0.15
28 0.4
29 0.4
3 -0.68
30 0.15
31 0.4
32 0.37
33 0.4
34 0.4
4 -0.68
5 -0.57
6 0.05
7 -0.57
8 -0.54
9 -0.9

> <PUBCHEM_EFFECTIVE_ROTOR_COUNT>
3

> <PUBCHEM_PHARMACOPHORE_FEATURES>
15
1 1 acceptor
1 2 acceptor
1 2 donor
1 3 acceptor
1 3 donor
1 4 acceptor
1 4 donor
1 5 acceptor
1 8 donor
1 9 cation
1 9 donor
3 6 7 16 cation
5 1 10 11 12 13 rings
5 6 7 15 16 17 rings
6 8 15 17 18 19 20 rings

> <PUBCHEM_HEAVY_ATOM_COUNT>
20

> <PUBCHEM_ATOM_DEF_STEREO_COUNT>
4

> <PUBCHEM_ATOM_UDEF_STEREO_COUNT>
0

> <PUBCHEM_BOND_DEF_STEREO_COUNT>
0

> <PUBCHEM_BOND_UDEF_STEREO_COUNT>
0

> <PUBCHEM_ISOTOPIC_ATOM_COUNT>
0

> <PUBCHEM_COMPONENT_COUNT>
1

> <PUBCHEM_CACTVS_TAUTO_COUNT>
6

> <PUBCHEM_CONFORMER_ID>
0001E59C00000003

> <PUBCHEM_MMFF94_ENERGY>
52.8863

> <PUBCHEM_FEATURE_SELFOVERLAP>
76.293

> <PUBCHEM_SHAPE_FINGERPRINT>
10366900 7 18053381282044050792
10498660 4 18259977193669174405
10608611 8 18411979199682590592
10646746 165 18409165497897871996
1100329 8 16539330212732535240
11405975 8 18412264995522871929
12403259 226 18340483456471220865
12403259 415 18412263934639686241
12403260 363 18411127039727231823
12507560 40 18411976988275313776
13134695 92 17417236655337312216
13140716 1 18341615871458680753
13464514 151 17981887441387700709
13675066 3 18272642433686094290
14866123 147 16830664544933771986
15196674 1 18410011039503553133
15219456 202 18343018921404897764
15442244 35 18409448059907457832
16945 1 18195799902140056219
17492 89 18409167739971793722
17804303 29 18408889512042495886
18186145 218 18272661120708938924
19049666 15 18412823611933276432
19591789 44 18409729560469843259
200 152 17489299789814148767
20510252 161 18339081592131169225
20645477 70 17917439743656523398
21065198 57 18410292493042383164
21065199 12 18410853295691543584
21524375 3 18336542699512929055
23402539 116 18270670978882337476
23559900 14 18341891841046654534
2748010 2 18411409644454550997
3004659 81 18043257839009003886
3286 77 18413385453600558047
335352 9 18193838145710103076
350125 39 18336834108706706283
4214541 1 18408604742762370732
495365 180 17560221596946427520
5104073 3 18410293613986643697
69090 78 18201435938868162895
7364860 26 18122903123343898999
77779 3 18408324393130414604
81228 2 18044368564067694219
9709674 26 18337394932488324874

> <PUBCHEM_SHAPE_MULTIPOLES>
362.32
8.32
2.63
0.83
0.4
0.23
0.08
-0.58
-0.49
-0.31
0.1
0.33
0.18
1.03

> <PUBCHEM_SHAPE_SELFOVERLAP>
791.016

> <PUBCHEM_SHAPE_VOLUME>
196.9

> <PUBCHEM_COORDINATE_TYPE>
2
5
10

$$$$
