124349
  -OEChem-03292013323D

 47 49  0     1  0  0  0  0  0999 V2000
    2.8609    0.3637    0.2675 S   0  0  0  0  0  0  0  0  0  0  0  0
   -0.1379   -0.3617    0.4970 O   0  0  0  0  0  0  0  0  0  0  0  0
   -1.3409   -3.3206    0.7990 O   0  0  0  0  0  0  0  0  0  0  0  0
    0.4239   -3.4360   -1.2758 O   0  0  0  0  0  0  0  0  0  0  0  0
    6.0867   -1.0588    0.4730 O   0  0  0  0  0  0  0  0  0  0  0  0
    7.7878    0.1779   -0.3727 O   0  0  0  0  0  0  0  0  0  0  0  0
   -2.4216    0.0205   -0.0257 N   0  0  0  0  0  0  0  0  0  0  0  0
   -4.3193   -0.4644    1.3820 N   0  0  0  0  0  0  0  0  0  0  0  0
   -6.2769    0.8785    0.8416 N   0  0  0  0  0  0  0  0  0  0  0  0
   -6.2786    2.4995   -0.9111 N   0  0  0  0  0  0  0  0  0  0  0  0
    6.9670    2.2769    1.2150 N   0  0  0  0  0  0  0  0  0  0  0  0
   -1.4262   -2.2745   -0.1673 C   0  0  2  0  0  0  0  0  0  0  0  0
   -0.1542   -2.1806   -0.9889 C   0  0  1  0  0  0  0  0  0  0  0  0
   -1.4658   -0.9255    0.5527 C   0  0  1  0  0  0  0  0  0  0  0  0
    0.7390   -1.3282   -0.1044 C   0  0  1  0  0  0  0  0  0  0  0  0
    1.8432   -0.6170   -0.8657 C   0  0  0  0  0  0  0  0  0  0  0  0
   -3.7198    0.2033    0.3810 C   0  0  0  0  0  0  0  0  0  0  0  0
   -2.1528    0.8714   -1.0708 C   0  0  0  0  0  0  0  0  0  0  0  0
   -4.2888    1.1874   -0.4179 C   0  0  0  0  0  0  0  0  0  0  0  0
   -3.2901    1.6047   -1.3345 C   0  0  0  0  0  0  0  0  0  0  0  0
    4.0247    1.0420   -0.9384 C   0  0  0  0  0  0  0  0  0  0  0  0
    5.0793    1.9574   -0.3095 C   0  0  0  0  0  0  0  0  0  0  0  0
   -5.6178    1.5156   -0.1538 C   0  0  0  0  0  0  0  0  0  0  0  0
    5.9577    1.3103    0.7710 C   0  0  1  0  0  0  0  0  0  0  0  0
   -5.5961   -0.0592    1.5383 C   0  0  0  0  0  0  0  0  0  0  0  0
    6.7167    0.1172    0.2181 C   0  0  0  0  0  0  0  0  0  0  0  0
   -2.3081   -2.4808   -0.7810 H   0  0  0  0  0  0  0  0  0  0  0  0
   -0.3625   -1.6598   -1.9315 H   0  0  0  0  0  0  0  0  0  0  0  0
   -1.7239   -1.0299    1.6129 H   0  0  0  0  0  0  0  0  0  0  0  0
    1.1778   -1.9417    0.6943 H   0  0  0  0  0  0  0  0  0  0  0  0
    1.4132    0.0662   -1.6059 H   0  0  0  0  0  0  0  0  0  0  0  0
    2.4784   -1.3444   -1.3811 H   0  0  0  0  0  0  0  0  0  0  0  0
   -0.5796   -3.1470    1.3774 H   0  0  0  0  0  0  0  0  0  0  0  0
   -1.1830    0.8888   -1.5492 H   0  0  0  0  0  0  0  0  0  0  0  0
   -0.2444   -3.9639   -1.7450 H   0  0  0  0  0  0  0  0  0  0  0  0
   -3.3828    2.3564   -2.1062 H   0  0  0  0  0  0  0  0  0  0  0  0
    3.4587    1.6194   -1.6776 H   0  0  0  0  0  0  0  0  0  0  0  0
    4.5114    0.2182   -1.4703 H   0  0  0  0  0  0  0  0  0  0  0  0
    4.5801    2.8421    0.1090 H   0  0  0  0  0  0  0  0  0  0  0  0
    5.7172    2.3261   -1.1251 H   0  0  0  0  0  0  0  0  0  0  0  0
    5.3763    1.0034    1.6461 H   0  0  0  0  0  0  0  0  0  0  0  0
   -6.1524   -0.5511    2.3289 H   0  0  0  0  0  0  0  0  0  0  0  0
   -7.2428    2.7172   -0.6989 H   0  0  0  0  0  0  0  0  0  0  0  0
   -5.7997    2.9831   -1.6584 H   0  0  0  0  0  0  0  0  0  0  0  0
    6.5045    3.1044    1.5901 H   0  0  0  0  0  0  0  0  0  0  0  0
    7.5042    1.8797    1.9852 H   0  0  0  0  0  0  0  0  0  0  0  0
    6.5876   -1.8255    0.1218 H   0  0  0  0  0  0  0  0  0  0  0  0
  1 16  1  0  0  0  0
  1 21  1  0  0  0  0
  2 14  1  0  0  0  0
  2 15  1  0  0  0  0
  3 12  1  0  0  0  0
  3 33  1  0  0  0  0
  4 13  1  0  0  0  0
  4 35  1  0  0  0  0
  5 26  1  0  0  0  0
  5 47  1  0  0  0  0
  6 26  2  0  0  0  0
  7 14  1  0  0  0  0
  7 17  1  0  0  0  0
  7 18  1  0  0  0  0
  8 17  2  0  0  0  0
  8 25  1  0  0  0  0
  9 23  1  0  0  0  0
  9 25  2  0  0  0  0
 10 23  1  0  0  0  0
 10 43  1  0  0  0  0
 10 44  1  0  0  0  0
 11 24  1  0  0  0  0
 11 45  1  0  0  0  0
 11 46  1  0  0  0  0
 12 13  1  0  0  0  0
 12 14  1  0  0  0  0
 12 27  1  0  0  0  0
 13 15  1  0  0  0  0
 13 28  1  0  0  0  0
 14 29  1  0  0  0  0
 15 16  1  0  0  0  0
 15 30  1  0  0  0  0
 16 31  1  0  0  0  0
 16 32  1  0  0  0  0
 17 19  1  0  0  0  0
 18 20  2  0  0  0  0
 18 34  1  0  0  0  0
 19 20  1  0  0  0  0
 19 23  2  0  0  0  0
 20 36  1  0  0  0  0
 21 22  1  0  0  0  0
 21 37  1  0  0  0  0
 21 38  1  0  0  0  0
 22 24  1  0  0  0  0
 22 39  1  0  0  0  0
 22 40  1  0  0  0  0
 24 26  1  0  0  0  0
 24 41  1  0  0  0  0
 25 42  1  0  0  0  0
M  END
> <PUBCHEM_COMPOUND_CID>
124349

> <PUBCHEM_CONFORMER_RMSD>
1

> <PUBCHEM_CONFORMER_DIVERSEORDER>
2
285
424
16
456
220
158
493
114
405
72
163
568
51
397
36
33
221
183
147
470
307
82
313
181
594
66
35
207
331
232
546
9
430
235
219
555
266
562
312
414
156
15
111
347
341
55
260
176
503
338
40
145
363
101
258
11
583
269
471
238
334
391
332
236
467
590
522
539
108
13
14
578
84
433
584
137
57
492
406
202
63
45
528
373
60
32
401
24
152
461
25
106
336
214
386
445
34
300
575
64
160
10
448
396
21
3
201
302
95
511
115
47
173
206
272
248
151
466
365
109
1
376
415
253
125
69
558
324
548
188
262
231
4
564
490
403
267
222
20
541
88
76
357
27
46
449
438
410
117
250
576
411
361
41
370
244
229
297
419
608
559
501
8
28
118
233
254
91
310
399
577
453
315
440
195
498
475
99
394
603
7
71
22
12

> <PUBCHEM_MMFF94_PARTIAL_CHARGES>
34
1 -0.46
10 -0.9
11 -0.99
12 0.28
13 0.28
14 0.54
15 0.28
16 0.23
17 0.11
18 -0.3
2 -0.56
20 -0.15
21 0.23
23 0.41
24 0.33
25 0.47
26 0.66
3 -0.68
33 0.4
34 0.15
35 0.4
36 0.15
4 -0.68
42 0.15
43 0.4
44 0.4
45 0.36
46 0.36
47 0.5
5 -0.65
6 -0.57
7 0.05
8 -0.57
9 -0.62

> <PUBCHEM_EFFECTIVE_ROTOR_COUNT>
8

> <PUBCHEM_PHARMACOPHORE_FEATURES>
18
1 10 cation
1 10 donor
1 11 cation
1 11 donor
1 2 acceptor
1 3 acceptor
1 3 donor
1 4 acceptor
1 4 donor
1 5 acceptor
1 6 acceptor
3 5 6 26 anion
3 7 8 17 cation
3 8 9 25 cation
4 1 16 21 22 hydrophobe
5 2 12 13 14 15 rings
5 7 17 18 19 20 rings
6 8 9 17 19 23 25 rings

> <PUBCHEM_HEAVY_ATOM_COUNT>
26

> <PUBCHEM_ATOM_DEF_STEREO_COUNT>
5

> <PUBCHEM_ATOM_UDEF_STEREO_COUNT>
0

> <PUBCHEM_BOND_DEF_STEREO_COUNT>
0

> <PUBCHEM_BOND_UDEF_STEREO_COUNT>
0

> <PUBCHEM_ISOTOPIC_ATOM_COUNT>
0

> <PUBCHEM_COMPONENT_COUNT>
1

> <PUBCHEM_CACTVS_TAUTO_COUNT>
4

> <PUBCHEM_CONFORMER_ID>
0001E5BD00000002

> <PUBCHEM_MMFF94_ENERGY>
54.94

> <PUBCHEM_FEATURE_SELFOVERLAP>
91.695

> <PUBCHEM_SHAPE_FINGERPRINT>
10 15 18114186366952061088
10074138 170 18043530723169934051
10319926 262 17531258248288000371
10692045 39 18337111164384083090
12107183 9 18336256865698385546
12403259 118 17822018631298072725
12422481 6 18040721389203171572
12516196 113 8142082057309521804
12596602 18 16008752450087227972
12760667 363 8358262548752399727
13533116 47 17560522794898615310
13631057 29 17916574471493577431
13673619 4 12901539144786955452
13685833 64 8718823201973333485
14123256 34 8718826504776914133
15183329 4 17346597469990850648
16110190 28 18114181999113103636
16994733 274 16415205537845800987
18006028 8 8070026657720300535
20281389 69 18410575115213523704
20567600 254 18410006616046038605
21033648 29 18260558787948572343
21033650 10 14476968848491179555
21236236 1 18270679887072303327
21756936 100 18335976553676720859
21859007 373 18115303359165232884
22224240 67 18410578388315998971
23198884 109 15985108500677647733
23559900 14 17461458931703031007
24771293 8 18041279852092785533
2838139 119 18411132545669811092
5104073 3 17896329013261202601
5385378 56 18341621360922964706
54039377 194 13334999588531780512
5969126 39 18055348300300410319
59755656 520 18343578559870267806
6669772 16 18202007581735580990
9995097 60 18409732863805862166

> <PUBCHEM_SHAPE_MULTIPOLES>
484.67
19.16
2.85
1.23
22.47
1.92
-0.04
-14.23
-4.66
-0.6
0.6
-0.73
-0.03
1.62

> <PUBCHEM_SHAPE_SELFOVERLAP>
1013.396

> <PUBCHEM_SHAPE_VOLUME>
277.6

> <PUBCHEM_COORDINATE_TYPE>
2
5
10

$$$$
