12444646
  -OEChem-03292013303D

 36 37  0     1  0  0  0  0  0999 V2000
   -1.7295   -0.3819    1.3345 O   0  0  0  0  0  0  0  0  0  0  0  0
   -1.8561   -1.4575   -2.1642 O   0  0  0  0  0  0  0  0  0  0  0  0
   -3.2441    1.0779   -2.1928 O   0  0  0  0  0  0  0  0  0  0  0  0
   -4.7085    1.4809    0.3318 O   0  0  0  0  0  0  0  0  0  0  0  0
   -3.0527    1.0728    2.5902 O   0  0  0  0  0  0  0  0  0  0  0  0
    0.7197   -0.9238    0.1522 O   0  0  0  0  0  0  0  0  0  0  0  0
    2.4002   -2.4906    0.2973 O   0  0  0  0  0  0  0  0  0  0  0  0
   -1.8645   -0.5312   -1.0811 C   0  0  1  0  0  0  0  0  0  0  0  0
   -3.2018    0.2093   -1.0596 C   0  0  1  0  0  0  0  0  0  0  0  0
   -1.6403   -1.2856    0.2316 C   0  0  1  0  0  0  0  0  0  0  0  0
   -3.3580    1.0326    0.2189 C   0  0  2  0  0  0  0  0  0  0  0  0
   -3.0236    0.2032    1.4587 C   0  0  1  0  0  0  0  0  0  0  0  0
   -0.2616   -1.9364    0.2805 C   0  0  0  0  0  0  0  0  0  0  0  0
    2.0198   -1.3365    0.1761 C   0  0  0  0  0  0  0  0  0  0  0  0
    2.9458   -0.1845    0.0349 C   0  0  0  0  0  0  0  0  0  0  0  0
    4.1887   -0.2510    0.6306 C   0  0  0  0  0  0  0  0  0  0  0  0
    2.5351    0.9167   -0.6882 C   0  0  0  0  0  0  0  0  0  0  0  0
    5.0588    0.8311    0.4978 C   0  0  0  0  0  0  0  0  0  0  0  0
    3.4054    1.9987   -0.8210 C   0  0  0  0  0  0  0  0  0  0  0  0
    4.6672    1.9558   -0.2280 C   0  0  0  0  0  0  0  0  0  0  0  0
   -1.0629    0.1937   -1.2656 H   0  0  0  0  0  0  0  0  0  0  0  0
   -4.0400   -0.4891   -1.1735 H   0  0  0  0  0  0  0  0  0  0  0  0
   -2.3886   -2.0799    0.3542 H   0  0  0  0  0  0  0  0  0  0  0  0
   -2.7295    1.9295    0.1622 H   0  0  0  0  0  0  0  0  0  0  0  0
   -3.7676   -0.5806    1.6420 H   0  0  0  0  0  0  0  0  0  0  0  0
   -0.1502   -2.6739   -0.5224 H   0  0  0  0  0  0  0  0  0  0  0  0
   -0.1279   -2.4347    1.2483 H   0  0  0  0  0  0  0  0  0  0  0  0
   -2.5675   -2.1030   -2.0131 H   0  0  0  0  0  0  0  0  0  0  0  0
   -3.1287    0.5273   -2.9861 H   0  0  0  0  0  0  0  0  0  0  0  0
   -5.2831    0.6977    0.3770 H   0  0  0  0  0  0  0  0  0  0  0  0
   -2.6783    1.9309    2.3304 H   0  0  0  0  0  0  0  0  0  0  0  0
    4.5037   -1.1198    1.2009 H   0  0  0  0  0  0  0  0  0  0  0  0
    1.5637    0.9693   -1.1703 H   0  0  0  0  0  0  0  0  0  0  0  0
    6.0411    0.7980    0.9601 H   0  0  0  0  0  0  0  0  0  0  0  0
    3.1019    2.8734   -1.3887 H   0  0  0  0  0  0  0  0  0  0  0  0
    5.3449    2.7982   -0.3319 H   0  0  0  0  0  0  0  0  0  0  0  0
  1 10  1  0  0  0  0
  1 12  1  0  0  0  0
  2  8  1  0  0  0  0
  2 28  1  0  0  0  0
  3  9  1  0  0  0  0
  3 29  1  0  0  0  0
  4 11  1  0  0  0  0
  4 30  1  0  0  0  0
  5 12  1  0  0  0  0
  5 31  1  0  0  0  0
  6 13  1  0  0  0  0
  6 14  1  0  0  0  0
  7 14  2  0  0  0  0
  8  9  1  0  0  0  0
  8 10  1  0  0  0  0
  8 21  1  0  0  0  0
  9 11  1  0  0  0  0
  9 22  1  0  0  0  0
 10 13  1  0  0  0  0
 10 23  1  0  0  0  0
 11 12  1  0  0  0  0
 11 24  1  0  0  0  0
 12 25  1  0  0  0  0
 13 26  1  0  0  0  0
 13 27  1  0  0  0  0
 14 15  1  0  0  0  0
 15 16  2  0  0  0  0
 15 17  1  0  0  0  0
 16 18  1  0  0  0  0
 16 32  1  0  0  0  0
 17 19  2  0  0  0  0
 17 33  1  0  0  0  0
 18 20  2  0  0  0  0
 18 34  1  0  0  0  0
 19 20  1  0  0  0  0
 19 35  1  0  0  0  0
 20 36  1  0  0  0  0
M  END
> <PUBCHEM_COMPOUND_CID>
12444646

> <PUBCHEM_CONFORMER_RMSD>
0.8

> <PUBCHEM_CONFORMER_DIVERSEORDER>
2
89
36
108
72
105
112
19
88
121
22
67
106
70
73
91
29
120
65
52
6
93
1
17
41
44
26
114
48
116
76
35
75
11
103
118
92
3
109
119
28
104
42
57
13
23
117
60
37
18
102
97
79
77
94
66
5
71
45
107
40
53
34
33
30
58
4
100
101
81
62
14
64
20
25
49
15
83
27
8
68
86
21
54
113
31
98
47
110
63
55
50
96
84
43
10
32
38
69
9
80
24
51
16
82
85
12
39
59
95
99
7
56
87
90
46
111
61
78
115
74

> <PUBCHEM_MMFF94_PARTIAL_CHARGES>
29
1 -0.56
10 0.28
11 0.28
12 0.56
13 0.28
14 0.63
15 0.09
16 -0.15
17 -0.15
18 -0.15
19 -0.15
2 -0.68
20 -0.15
28 0.4
29 0.4
3 -0.68
30 0.4
31 0.4
32 0.15
33 0.15
34 0.15
35 0.15
36 0.15
4 -0.68
5 -0.68
6 -0.43
7 -0.57
8 0.28
9 0.28

> <PUBCHEM_EFFECTIVE_ROTOR_COUNT>
5.2

> <PUBCHEM_PHARMACOPHORE_FEATURES>
12
1 1 acceptor
1 2 acceptor
1 2 donor
1 3 acceptor
1 3 donor
1 4 acceptor
1 4 donor
1 5 acceptor
1 5 donor
1 7 acceptor
6 1 8 9 10 11 12 rings
6 15 16 17 18 19 20 rings

> <PUBCHEM_HEAVY_ATOM_COUNT>
20

> <PUBCHEM_ATOM_DEF_STEREO_COUNT>
5

> <PUBCHEM_ATOM_UDEF_STEREO_COUNT>
0

> <PUBCHEM_BOND_DEF_STEREO_COUNT>
0

> <PUBCHEM_BOND_UDEF_STEREO_COUNT>
0

> <PUBCHEM_ISOTOPIC_ATOM_COUNT>
0

> <PUBCHEM_COMPONENT_COUNT>
1

> <PUBCHEM_CACTVS_TAUTO_COUNT>
1

> <PUBCHEM_CONFORMER_ID>
00BDE3E600000002

> <PUBCHEM_MMFF94_ENERGY>
53.9882

> <PUBCHEM_FEATURE_SELFOVERLAP>
60.957

> <PUBCHEM_SHAPE_FINGERPRINT>
10366900 7 16298391287685454370
10498660 4 16773797000000684488
11046707 91 7853584491252836226
11370993 144 16733251370855425536
11543360 7 15482671320905584824
11552529 35 15503230027770828736
11640471 11 18131073714223786338
12173636 292 17775293759146522759
12633257 1 16081381747332546885
12670546 177 14764340570168999064
13583140 156 15792274004035769292
13675066 3 16805317791220042882
14123260 362 18131918164849648336
14178342 30 15140961729601780059
15188451 53 14201679835466218577
15239191 94 8502378836503361632
15295992 7 17460590325478826503
15342168 16 18335709350960445181
15475509 35 10884268464158213109
15653759 3 16370441163877991678
17780758 139 12830026929775248804
1813 80 17624425177617384678
18186145 218 18337117851748006574
18219364 16 18114180843286196517
20871999 31 15482674576169002923
21475661 188 17751353968047713173
21650355 55 14562536193343752847
21713013 43 13830130615492262564
21864079 5 18270127790126393921
22620623 9 14907886160088377269
23366157 5 16912584878800837511
23402539 116 17346604097446992256
23503958 8 13551462688010033160
23557571 272 15840686617323996051
23559900 14 16154556341815157187
23596394 208 13183020701012936218
27216 239 17675921019240602165
2838139 119 17974838477059502925
312425 83 16414938391075889072
3268164 11 16630525163007686816
3472631 163 17775005695516114601
474 4 18410291393662910066
4921388 177 15554171462242262239
5104073 3 18042115613603662016
56616090 13 17679278799293513893
602551 16 14490193821541552912
633830 44 18130238042400242750
7970288 3 8935005867018498608
90316 7 13551191052840587711

> <PUBCHEM_SHAPE_MULTIPOLES>
370.51
10.1
2.13
1.66
4.91
0.37
-0.08
-5.91
-1.23
1.08
0.22
-2.5
-0.32
-0.64

> <PUBCHEM_SHAPE_SELFOVERLAP>
778.312

> <PUBCHEM_SHAPE_VOLUME>
205.4

> <PUBCHEM_COORDINATE_TYPE>
2
5
10

$$$$
