12442966
  -OEChem-03292013303D

 52 55  0     1  0  0  0  0  0999 V2000
    4.4909    2.6936   -0.7823 Cl  0  0  0  0  0  0  0  0  0  0  0  0
   -0.9711    0.6846   -1.8163 S   0  0  0  0  0  0  0  0  0  0  0  0
    0.3384    1.3566    2.7814 O   0  0  0  0  0  0  0  0  0  0  0  0
   -1.9657    2.1929    1.7926 O   0  0  0  0  0  0  0  0  0  0  0  0
   -3.5754    2.2661   -0.5258 O   0  0  0  0  0  0  0  0  0  0  0  0
   -2.2317   -2.7507    0.7585 O   0  0  0  0  0  0  0  0  0  0  0  0
    3.1270   -2.2096   -0.3979 O   0  0  0  0  0  0  0  0  0  0  0  0
    4.8680   -0.2494   -1.1546 O   0  0  0  0  0  0  0  0  0  0  0  0
   -1.6278   -0.5364    0.5359 N   0  0  0  0  0  0  0  0  0  0  0  0
    0.6094   -1.3897    0.9313 N   0  0  1  0  0  0  0  0  0  0  0  0
   -4.0707   -0.0033   -0.6777 N   0  0  0  0  0  0  0  0  0  0  0  0
    0.0489    0.9079    1.4681 C   0  0  1  0  0  0  0  0  0  0  0  0
   -0.4772   -0.5562    1.4622 C   0  0  1  0  0  0  0  0  0  0  0  0
   -1.0551    1.7314    0.7861 C   0  0  1  0  0  0  0  0  0  0  0  0
   -1.7679    0.7357   -0.1565 C   0  0  1  0  0  0  0  0  0  0  0  0
    1.3428    0.7931    0.7203 C   0  0  0  0  0  0  0  0  0  0  0  0
    1.6281   -0.5556    0.4841 C   0  0  0  0  0  0  0  0  0  0  0  0
   -3.2321    1.0869   -0.4001 C   0  0  0  0  0  0  0  0  0  0  0  0
   -2.4373   -1.6275    0.3032 C   0  0  0  0  0  0  0  0  0  0  0  0
    0.8801   -2.7341    1.3822 C   0  0  0  0  0  0  0  0  0  0  0  0
    2.2136    1.8029    0.3385 C   0  0  0  0  0  0  0  0  0  0  0  0
    2.8166   -0.9103   -0.1382 C   0  0  0  0  0  0  0  0  0  0  0  0
   -3.6724   -1.3260   -0.4903 C   0  0  0  0  0  0  0  0  0  0  0  0
    3.4009    1.4457   -0.2982 C   0  0  0  0  0  0  0  0  0  0  0  0
    3.7020    0.0972   -0.5324 C   0  0  0  0  0  0  0  0  0  0  0  0
   -1.3089    2.3911   -2.2933 C   0  0  0  0  0  0  0  0  0  0  0  0
   -5.4153    0.2790   -1.1867 C   0  0  0  0  0  0  0  0  0  0  0  0
   -4.3655   -2.3951   -0.9185 C   0  0  0  0  0  0  0  0  0  0  0  0
    2.7088   -2.7385   -1.6553 C   0  0  0  0  0  0  0  0  0  0  0  0
    5.9986   -0.4824   -0.3203 C   0  0  0  0  0  0  0  0  0  0  0  0
   -0.8156   -0.9051    2.4448 H   0  0  0  0  0  0  0  0  0  0  0  0
   -0.6448    2.6306    0.3263 H   0  0  0  0  0  0  0  0  0  0  0  0
   -0.4937    1.3546    3.2845 H   0  0  0  0  0  0  0  0  0  0  0  0
    0.0337   -3.1330    1.9503 H   0  0  0  0  0  0  0  0  0  0  0  0
    1.7515   -2.7656    2.0457 H   0  0  0  0  0  0  0  0  0  0  0  0
    1.0415   -3.4110    0.5390 H   0  0  0  0  0  0  0  0  0  0  0  0
    1.9722    2.8413    0.5436 H   0  0  0  0  0  0  0  0  0  0  0  0
   -2.5681    2.8295    1.3715 H   0  0  0  0  0  0  0  0  0  0  0  0
   -2.3400    2.5029   -2.6378 H   0  0  0  0  0  0  0  0  0  0  0  0
   -0.6741    2.6174   -3.1565 H   0  0  0  0  0  0  0  0  0  0  0  0
   -1.0809    3.1423   -1.5392 H   0  0  0  0  0  0  0  0  0  0  0  0
   -5.4871   -0.0687   -2.2221 H   0  0  0  0  0  0  0  0  0  0  0  0
   -5.6366    1.3498   -1.1744 H   0  0  0  0  0  0  0  0  0  0  0  0
   -6.1585   -0.2258   -0.5611 H   0  0  0  0  0  0  0  0  0  0  0  0
   -5.2868   -2.3046   -1.4835 H   0  0  0  0  0  0  0  0  0  0  0  0
   -4.0368   -3.4140   -0.7380 H   0  0  0  0  0  0  0  0  0  0  0  0
    1.6346   -2.5901   -1.8062 H   0  0  0  0  0  0  0  0  0  0  0  0
    2.9185   -3.8115   -1.6620 H   0  0  0  0  0  0  0  0  0  0  0  0
    3.2678   -2.2677   -2.4699 H   0  0  0  0  0  0  0  0  0  0  0  0
    5.8367   -1.3680    0.3022 H   0  0  0  0  0  0  0  0  0  0  0  0
    6.2087    0.3842    0.3142 H   0  0  0  0  0  0  0  0  0  0  0  0
    6.8657   -0.6625   -0.9616 H   0  0  0  0  0  0  0  0  0  0  0  0
  1 24  1  0  0  0  0
  2 15  1  0  0  0  0
  2 26  1  0  0  0  0
  3 12  1  0  0  0  0
  3 33  1  0  0  0  0
  4 14  1  0  0  0  0
  4 38  1  0  0  0  0
  5 18  2  0  0  0  0
  6 19  2  0  0  0  0
  7 22  1  0  0  0  0
  7 29  1  0  0  0  0
  8 25  1  0  0  0  0
  8 30  1  0  0  0  0
  9 13  1  0  0  0  0
  9 15  1  0  0  0  0
  9 19  1  0  0  0  0
 10 13  1  0  0  0  0
 10 17  1  0  0  0  0
 10 20  1  0  0  0  0
 11 18  1  0  0  0  0
 11 23  1  0  0  0  0
 11 27  1  0  0  0  0
 12 13  1  0  0  0  0
 12 14  1  0  0  0  0
 12 16  1  0  0  0  0
 13 31  1  0  0  0  0
 14 15  1  0  0  0  0
 14 32  1  0  0  0  0
 15 18  1  0  0  0  0
 16 17  1  0  0  0  0
 16 21  2  0  0  0  0
 17 22  2  0  0  0  0
 19 23  1  0  0  0  0
 20 34  1  0  0  0  0
 20 35  1  0  0  0  0
 20 36  1  0  0  0  0
 21 24  1  0  0  0  0
 21 37  1  0  0  0  0
 22 25  1  0  0  0  0
 23 28  2  0  0  0  0
 24 25  2  0  0  0  0
 26 39  1  0  0  0  0
 26 40  1  0  0  0  0
 26 41  1  0  0  0  0
 27 42  1  0  0  0  0
 27 43  1  0  0  0  0
 27 44  1  0  0  0  0
 28 45  1  0  0  0  0
 28 46  1  0  0  0  0
 29 47  1  0  0  0  0
 29 48  1  0  0  0  0
 29 49  1  0  0  0  0
 30 50  1  0  0  0  0
 30 51  1  0  0  0  0
 30 52  1  0  0  0  0
M  END
> <PUBCHEM_COMPOUND_CID>
12442966

> <PUBCHEM_CONFORMER_RMSD>
0.8

> <PUBCHEM_CONFORMER_DIVERSEORDER>
5
3
1
7
2
4
15
8
11
14
6
16
17
9
10
12
13

> <PUBCHEM_MMFF94_PARTIAL_CHARGES>
35
1 -0.18
10 -0.84
11 -0.47
12 0.42
13 0.67
14 0.28
15 0.59
16 -0.14
17 0.1
18 0.57
19 0.62
2 -0.46
20 0.37
21 -0.15
22 0.08
23 0.12
24 0.18
25 0.08
26 0.23
27 0.3
28 -0.3
29 0.28
3 -0.68
30 0.28
33 0.4
37 0.15
38 0.4
4 -0.68
45 0.15
46 0.15
5 -0.57
6 -0.57
7 -0.36
8 -0.36
9 -0.66

> <PUBCHEM_EFFECTIVE_ROTOR_COUNT>
3.6

> <PUBCHEM_PHARMACOPHORE_FEATURES>
14
1 10 cation
1 26 hydrophobe
1 3 acceptor
1 3 donor
1 4 acceptor
1 4 donor
1 5 acceptor
1 6 acceptor
1 7 acceptor
1 8 acceptor
5 10 12 13 16 17 rings
5 9 12 13 14 15 rings
6 16 17 21 22 24 25 rings
6 9 11 15 18 19 23 rings

> <PUBCHEM_HEAVY_ATOM_COUNT>
30

> <PUBCHEM_ATOM_DEF_STEREO_COUNT>
0

> <PUBCHEM_ATOM_UDEF_STEREO_COUNT>
4

> <PUBCHEM_BOND_DEF_STEREO_COUNT>
0

> <PUBCHEM_BOND_UDEF_STEREO_COUNT>
0

> <PUBCHEM_ISOTOPIC_ATOM_COUNT>
0

> <PUBCHEM_COMPONENT_COUNT>
1

> <PUBCHEM_CACTVS_TAUTO_COUNT>
1

> <PUBCHEM_CONFORMER_ID>
00BDDD5600000005

> <PUBCHEM_MMFF94_ENERGY>
142.0348

> <PUBCHEM_FEATURE_SELFOVERLAP>
71.75

> <PUBCHEM_SHAPE_FINGERPRINT>
10165383 225 18188774924940540101
10369192 42 17481401086990892208
10498660 4 17749937925872157629
10756046 5 18340207384199449651
10863032 1 18411982463926242477
11370993 70 18335701693260629182
11640471 11 15357962499694967171
12403260 363 18410858776713261578
12670546 177 18408885126954447524
12714826 92 15841271454362010640
12788726 201 17774160072643282185
13911987 19 17915753166034561668
14790565 3 18195813964697199921
14955137 171 17895771702589563569
15664445 248 17969209191882920133
16945 1 18341339941305621017
17349148 13 18341614790023448162
17492 54 17314782121392846477
18681886 176 18271803554207445066
200 152 18060140946725170042
20691752 17 17603857889100748915
20775438 99 16835120281424822647
21857420 4 14148996267612101980
221357 26 18342171219931943535
22393880 68 18408881828556714108
23114952 82 18409730642890688132
23419403 2 15247127652108563093
23557571 272 17677344929389925794
23559900 14 18341885346312733369
3323516 105 18270958067423475809
4280585 95 17695360179152798190
463206 1 17986390216165560231
465052 167 16844727672499103581
469060 322 17387723645617918419
9709674 26 18411706477970769526

> <PUBCHEM_SHAPE_MULTIPOLES>
572.95
9.52
3.16
1.82
2.91
0.74
-0.29
0.43
4.63
0.14
0.38
-0.27
-0.48
0.33

> <PUBCHEM_SHAPE_SELFOVERLAP>
1233.462

> <PUBCHEM_SHAPE_VOLUME>
324.1

> <PUBCHEM_COORDINATE_TYPE>
2
5
10

$$$$
