12444784
  -OEChem-03292013303D

 67 71  0     1  0  0  0  0  0999 V2000
   -1.4286    2.9173    2.1577 O   0  0  0  0  0  0  0  0  0  0  0  0
   -3.7443    1.8449   -0.4356 O   0  0  0  0  0  0  0  0  0  0  0  0
    0.6143    2.5902   -0.1284 O   0  0  0  0  0  0  0  0  0  0  0  0
   -0.7355   -2.1090   -0.0312 O   0  0  0  0  0  0  0  0  0  0  0  0
    2.0166    1.5126   -1.6145 O   0  0  0  0  0  0  0  0  0  0  0  0
    0.2843   -3.1132   -1.8497 O   0  0  0  0  0  0  0  0  0  0  0  0
    4.2189   -1.1615   -0.2343 O   0  0  0  0  0  0  0  0  0  0  0  0
    4.0417    0.5855    1.2671 O   0  0  0  0  0  0  0  0  0  0  0  0
   -1.1857    1.0023    0.5562 C   0  0  1  0  0  0  0  0  0  0  0  0
   -2.0698    2.0384    1.2208 C   0  0  2  0  0  0  0  0  0  0  0  0
   -2.1878   -0.1022   -0.0507 C   0  0  2  0  0  0  0  0  0  0  0  0
   -2.7604    2.7345    0.1019 C   0  0  1  0  0  0  0  0  0  0  0  0
   -0.5693    1.8987   -0.5961 C   0  0  1  0  0  0  0  0  0  0  0  0
   -2.4920    2.1004    2.6681 C   0  0  0  0  0  0  0  0  0  0  0  0
   -1.6254    2.9953   -0.8977 C   0  0  0  0  0  0  0  0  0  0  0  0
   -3.2376    0.6130   -0.9841 C   0  0  1  0  0  0  0  0  0  0  0  0
   -0.1022    0.4222    1.4720 C   0  0  0  0  0  0  0  0  0  0  0  0
   -2.9959   -0.8222    1.0776 C   0  0  0  0  0  0  0  0  0  0  0  0
   -1.4133   -1.1732   -0.8892 C   0  0  0  0  0  0  0  0  0  0  0  0
   -4.4542   -0.2194   -1.2985 C   0  0  0  0  0  0  0  0  0  0  0  0
   -4.0123   -1.8397    0.5415 C   0  0  0  0  0  0  0  0  0  0  0  0
   -4.8047   -1.3323   -0.6330 C   0  0  0  0  0  0  0  0  0  0  0  0
    1.8054    2.3193   -0.7250 C   0  0  0  0  0  0  0  0  0  0  0  0
   -6.0068   -2.1423   -1.0190 C   0  0  0  0  0  0  0  0  0  0  0  0
    0.0630   -3.0135   -0.6538 C   0  0  0  0  0  0  0  0  0  0  0  0
    2.8142    3.2108   -0.1007 C   0  0  0  0  0  0  0  0  0  0  0  0
    0.6267   -3.9002    0.3811 C   0  0  0  0  0  0  0  0  0  0  0  0
    4.1400    3.1405   -0.2890 C   0  0  0  0  0  0  0  0  0  0  0  0
    1.9489   -4.0055    0.6033 C   0  0  0  0  0  0  0  0  0  0  0  0
    4.8920    2.1996   -1.0859 C   0  0  0  0  0  0  0  0  0  0  0  0
    3.0103   -3.2329   -0.1444 C   0  0  0  0  0  0  0  0  0  0  0  0
    2.4612   -4.9238    1.6810 C   0  0  0  0  0  0  0  0  0  0  0  0
    3.5024   -2.0314    0.6581 C   0  0  0  0  0  0  0  0  0  0  0  0
    5.0108    0.8753   -0.9143 C   0  0  0  0  0  0  0  0  0  0  0  0
    4.3752    0.1212    0.1890 C   0  0  0  0  0  0  0  0  0  0  0  0
   -3.2621    3.6605    0.3987 H   0  0  0  0  0  0  0  0  0  0  0  0
   -0.3442    1.3364   -1.5046 H   0  0  0  0  0  0  0  0  0  0  0  0
   -3.4274    2.5889    2.9088 H   0  0  0  0  0  0  0  0  0  0  0  0
   -2.2224    1.2894    3.3311 H   0  0  0  0  0  0  0  0  0  0  0  0
   -1.1992    3.9919   -0.7317 H   0  0  0  0  0  0  0  0  0  0  0  0
   -1.9729    2.9466   -1.9345 H   0  0  0  0  0  0  0  0  0  0  0  0
   -2.7651    0.8400   -1.9480 H   0  0  0  0  0  0  0  0  0  0  0  0
   -0.5221   -0.2065    2.2616 H   0  0  0  0  0  0  0  0  0  0  0  0
    0.6160   -0.1746    0.9034 H   0  0  0  0  0  0  0  0  0  0  0  0
    0.4697    1.2057    1.9814 H   0  0  0  0  0  0  0  0  0  0  0  0
   -3.5603   -0.0886    1.6637 H   0  0  0  0  0  0  0  0  0  0  0  0
   -2.3352   -1.3329    1.7858 H   0  0  0  0  0  0  0  0  0  0  0  0
   -2.0986   -1.7474   -1.5232 H   0  0  0  0  0  0  0  0  0  0  0  0
   -0.6823   -0.7050   -1.5545 H   0  0  0  0  0  0  0  0  0  0  0  0
   -5.0664    0.1213   -2.1305 H   0  0  0  0  0  0  0  0  0  0  0  0
   -4.6950   -2.1016    1.3594 H   0  0  0  0  0  0  0  0  0  0  0  0
   -3.5002   -2.7650    0.2521 H   0  0  0  0  0  0  0  0  0  0  0  0
   -5.7092   -3.1660   -1.2680 H   0  0  0  0  0  0  0  0  0  0  0  0
   -6.5247   -1.7249   -1.8889 H   0  0  0  0  0  0  0  0  0  0  0  0
   -6.7221   -2.1793   -0.1911 H   0  0  0  0  0  0  0  0  0  0  0  0
    2.4299    3.9994    0.5425 H   0  0  0  0  0  0  0  0  0  0  0  0
   -0.0919   -4.4440    0.9867 H   0  0  0  0  0  0  0  0  0  0  0  0
    4.7545    3.9051    0.1833 H   0  0  0  0  0  0  0  0  0  0  0  0
    5.4498    2.6549   -1.9021 H   0  0  0  0  0  0  0  0  0  0  0  0
    3.8557   -3.8901   -0.3849 H   0  0  0  0  0  0  0  0  0  0  0  0
    2.6508   -2.8899   -1.1202 H   0  0  0  0  0  0  0  0  0  0  0  0
    2.9986   -4.3557    2.4468 H   0  0  0  0  0  0  0  0  0  0  0  0
    3.1441   -5.6652    1.2536 H   0  0  0  0  0  0  0  0  0  0  0  0
    1.6529   -5.4689    2.1802 H   0  0  0  0  0  0  0  0  0  0  0  0
    2.6550   -1.4938    1.0992 H   0  0  0  0  0  0  0  0  0  0  0  0
    4.1813   -2.3487    1.4573 H   0  0  0  0  0  0  0  0  0  0  0  0
    5.6099    0.3042   -1.6183 H   0  0  0  0  0  0  0  0  0  0  0  0
  1 10  1  0  0  0  0
  1 14  1  0  0  0  0
  2 12  1  0  0  0  0
  2 16  1  0  0  0  0
  3 13  1  0  0  0  0
  3 23  1  0  0  0  0
  4 19  1  0  0  0  0
  4 25  1  0  0  0  0
  5 23  2  0  0  0  0
  6 25  2  0  0  0  0
  7 33  1  0  0  0  0
  7 35  1  0  0  0  0
  8 35  2  0  0  0  0
  9 10  1  0  0  0  0
  9 11  1  0  0  0  0
  9 13  1  0  0  0  0
  9 17  1  0  0  0  0
 10 12  1  0  0  0  0
 10 14  1  0  0  0  0
 11 16  1  0  0  0  0
 11 18  1  0  0  0  0
 11 19  1  0  0  0  0
 12 15  1  0  0  0  0
 12 36  1  0  0  0  0
 13 15  1  0  0  0  0
 13 37  1  0  0  0  0
 14 38  1  0  0  0  0
 14 39  1  0  0  0  0
 15 40  1  0  0  0  0
 15 41  1  0  0  0  0
 16 20  1  0  0  0  0
 16 42  1  0  0  0  0
 17 43  1  0  0  0  0
 17 44  1  0  0  0  0
 17 45  1  0  0  0  0
 18 21  1  0  0  0  0
 18 46  1  0  0  0  0
 18 47  1  0  0  0  0
 19 48  1  0  0  0  0
 19 49  1  0  0  0  0
 20 22  2  0  0  0  0
 20 50  1  0  0  0  0
 21 22  1  0  0  0  0
 21 51  1  0  0  0  0
 21 52  1  0  0  0  0
 22 24  1  0  0  0  0
 23 26  1  0  0  0  0
 24 53  1  0  0  0  0
 24 54  1  0  0  0  0
 24 55  1  0  0  0  0
 25 27  1  0  0  0  0
 26 28  2  0  0  0  0
 26 56  1  0  0  0  0
 27 29  2  0  0  0  0
 27 57  1  0  0  0  0
 28 30  1  0  0  0  0
 28 58  1  0  0  0  0
 29 31  1  0  0  0  0
 29 32  1  0  0  0  0
 30 34  2  0  0  0  0
 30 59  1  0  0  0  0
 31 33  1  0  0  0  0
 31 60  1  0  0  0  0
 31 61  1  0  0  0  0
 32 62  1  0  0  0  0
 32 63  1  0  0  0  0
 32 64  1  0  0  0  0
 33 65  1  0  0  0  0
 33 66  1  0  0  0  0
 34 35  1  0  0  0  0
 34 67  1  0  0  0  0
M  END
> <PUBCHEM_COMPOUND_CID>
12444784

> <PUBCHEM_CONFORMER_RMSD>
0.8

> <PUBCHEM_CONFORMER_DIVERSEORDER>
1

> <PUBCHEM_MMFF94_PARTIAL_CHARGES>
39
1 -0.3
10 -0.04
12 0.38
13 0.28
14 -0.05
16 0.42
19 0.28
2 -0.56
20 -0.29
21 0.14
22 -0.28
23 0.71
24 0.14
25 0.71
26 -0.14
27 -0.14
28 -0.15
29 -0.28
3 -0.43
30 -0.15
31 0.14
32 0.14
33 0.28
34 -0.14
35 0.71
38 0.1
39 0.1
4 -0.43
5 -0.57
50 0.15
56 0.15
57 0.15
58 0.15
59 0.15
6 -0.57
67 0.15
7 -0.43
8 -0.57
9 0.09

> <PUBCHEM_EFFECTIVE_ROTOR_COUNT>
2.4

> <PUBCHEM_PHARMACOPHORE_FEATURES>
7
1 1 acceptor
1 2 acceptor
1 5 acceptor
1 6 acceptor
1 8 acceptor
6 11 16 18 20 21 22 rings
8 2 9 10 11 12 13 15 16 rings

> <PUBCHEM_HEAVY_ATOM_COUNT>
35

> <PUBCHEM_ATOM_DEF_STEREO_COUNT>
6

> <PUBCHEM_ATOM_UDEF_STEREO_COUNT>
0

> <PUBCHEM_BOND_DEF_STEREO_COUNT>
3

> <PUBCHEM_BOND_UDEF_STEREO_COUNT>
0

> <PUBCHEM_ISOTOPIC_ATOM_COUNT>
0

> <PUBCHEM_COMPONENT_COUNT>
1

> <PUBCHEM_CACTVS_TAUTO_COUNT>
1

> <PUBCHEM_CONFORMER_ID>
00BDE47000000001

> <PUBCHEM_MMFF94_ENERGY>
117.7619

> <PUBCHEM_FEATURE_SELFOVERLAP>
35.532

> <PUBCHEM_SHAPE_FINGERPRINT>
10675989 125 18339637970436552189
11007060 377 18268729354051433156
11135609 187 18336543919094126661
11136131 41 18114454562707927970
11513181 2 18059014973825620110
12422481 6 18267887020384759145
12633257 1 17548133329640043714
12788726 201 17845106223223153489
12978246 48 18337388340040053618
13122387 1 18336831892682975070
13583140 156 17393904859460738731
1361 2 18335136556984218292
13617811 41 18266444589756868477
14028597 1 18059030474699551547
14117953 113 17187557244253183390
14784336 7 17842836891932636531
14840074 17 18201723985419201599
15001296 14 18120086440825126356
19319366 153 18266728255167147046
19930381 70 18335696092575769974
20764821 26 16319498239137185156
20775438 99 17397774113729341925
21623110 236 18339365145761092777
23227448 37 17907292148627114951
23559900 14 18267007371857944616
25265897 201 17269215864230330199
3027735 51 18411421721944791785
3178227 256 17979086199978893235
3298306 158 18337383941429287159
3380486 145 17973734566751868232
45266715 3 17408211005071463557
463206 1 18053100919553501702
50150288 127 17272323225650201739
5265222 85 17902515118739704165
6287921 2 18056769732194684762
6371009 1 18409438199005743146
6669772 16 17697297870199983633

> <PUBCHEM_SHAPE_MULTIPOLES>
673.33
10.11
6.05
1.65
0.62
4.89
-0.71
-0.09
2.56
4.35
-1.07
-0.74
-0.37
-2.39

> <PUBCHEM_SHAPE_SELFOVERLAP>
1439.899

> <PUBCHEM_SHAPE_VOLUME>
364.3

> <PUBCHEM_COORDINATE_TYPE>
2
5
10

$$$$
