124459
  -OEChem-03292013323D

 47 49  0     1  0  0  0  0  0999 V2000
    0.7576   -0.1799   -1.3913 O   0  0  0  0  0  0  0  0  0  0  0  0
   -3.9202   -0.4350   -1.2429 O   0  0  0  0  0  0  0  0  0  0  0  0
   -4.3759    2.0917   -1.0550 O   0  0  0  0  0  0  0  0  0  0  0  0
   -4.1001   -2.9522   -0.7350 O   0  0  0  0  0  0  0  0  0  0  0  0
    5.7538   -0.1053   -0.7247 O   0  0  0  0  0  0  0  0  0  0  0  0
    4.9391    0.1422    1.4193 O   0  0  0  0  0  0  0  0  0  0  0  0
   -0.2964   -0.1105    0.7435 C   0  0  1  0  0  0  0  0  0  0  0  0
   -1.1560    1.1010    0.4684 C   0  0  0  0  0  0  0  0  0  0  0  0
   -1.0177   -1.4333    0.6300 C   0  0  0  0  0  0  0  0  0  0  0  0
   -2.3999    0.9959   -0.1659 C   0  0  0  0  0  0  0  0  0  0  0  0
   -2.2613   -1.5447   -0.0038 C   0  0  0  0  0  0  0  0  0  0  0  0
    0.8957   -0.1026   -0.1716 C   0  0  0  0  0  0  0  0  0  0  0  0
   -2.9378   -0.3352   -0.5188 C   0  0  0  0  0  0  0  0  0  0  0  0
   -0.6858    2.3775    0.8198 C   0  0  0  0  0  0  0  0  0  0  0  0
    2.2539    0.0159    0.5020 C   0  0  0  0  0  0  0  0  0  0  0  0
   -0.4149   -2.5966    1.1375 C   0  0  0  0  0  0  0  0  0  0  0  0
   -3.1541    2.1411   -0.4518 C   0  0  0  0  0  0  0  0  0  0  0  0
   -1.4386    3.5184    0.5400 C   0  0  0  0  0  0  0  0  0  0  0  0
   -2.8853   -2.7916   -0.1370 C   0  0  0  0  0  0  0  0  0  0  0  0
   -2.6704    3.3998   -0.0978 C   0  0  0  0  0  0  0  0  0  0  0  0
    3.4236   -0.0782   -0.4736 C   0  0  0  0  0  0  0  0  0  0  0  0
   -1.0381   -3.8383    1.0098 C   0  0  0  0  0  0  0  0  0  0  0  0
   -2.2709   -3.9354    0.3706 C   0  0  0  0  0  0  0  0  0  0  0  0
   -0.9210    4.8645    0.9194 C   0  0  0  0  0  0  0  0  0  0  0  0
    4.7686   -0.0002    0.2164 C   0  0  0  0  0  0  0  0  0  0  0  0
    7.0932   -0.0391   -0.2246 C   0  0  0  0  0  0  0  0  0  0  0  0
    8.0590   -0.1700   -1.3830 C   0  0  0  0  0  0  0  0  0  0  0  0
    0.0430   -0.0252    1.7853 H   0  0  0  0  0  0  0  0  0  0  0  0
    0.2791    2.4786    1.3120 H   0  0  0  0  0  0  0  0  0  0  0  0
    2.2901    0.9743    1.0319 H   0  0  0  0  0  0  0  0  0  0  0  0
    2.3355   -0.7839    1.2468 H   0  0  0  0  0  0  0  0  0  0  0  0
    0.5503   -2.5425    1.6350 H   0  0  0  0  0  0  0  0  0  0  0  0
   -3.2525    4.2925   -0.3152 H   0  0  0  0  0  0  0  0  0  0  0  0
    3.3731   -1.0293   -1.0164 H   0  0  0  0  0  0  0  0  0  0  0  0
    3.3631    0.7401   -1.2004 H   0  0  0  0  0  0  0  0  0  0  0  0
   -0.5597   -4.7289    1.4066 H   0  0  0  0  0  0  0  0  0  0  0  0
   -2.7500   -4.9063    0.2754 H   0  0  0  0  0  0  0  0  0  0  0  0
   -0.3237    5.2812    0.1023 H   0  0  0  0  0  0  0  0  0  0  0  0
   -1.7411    5.5555    1.1425 H   0  0  0  0  0  0  0  0  0  0  0  0
   -0.2966    4.8090    1.8176 H   0  0  0  0  0  0  0  0  0  0  0  0
   -4.7274    2.9926   -1.1563 H   0  0  0  0  0  0  0  0  0  0  0  0
   -4.4853   -2.0924   -0.9622 H   0  0  0  0  0  0  0  0  0  0  0  0
    7.2477    0.9215    0.2794 H   0  0  0  0  0  0  0  0  0  0  0  0
    7.2575   -0.8547    0.4884 H   0  0  0  0  0  0  0  0  0  0  0  0
    9.0949   -0.1234   -1.0356 H   0  0  0  0  0  0  0  0  0  0  0  0
    7.9044   -1.1182   -1.9083 H   0  0  0  0  0  0  0  0  0  0  0  0
    7.8948    0.6287   -2.1138 H   0  0  0  0  0  0  0  0  0  0  0  0
  1 12  2  0  0  0  0
  2 13  2  0  0  0  0
  3 17  1  0  0  0  0
  3 41  1  0  0  0  0
  4 19  1  0  0  0  0
  4 42  1  0  0  0  0
  5 25  1  0  0  0  0
  5 26  1  0  0  0  0
  6 25  2  0  0  0  0
  7  8  1  0  0  0  0
  7  9  1  0  0  0  0
  7 12  1  0  0  0  0
  7 28  1  0  0  0  0
  8 10  2  0  0  0  0
  8 14  1  0  0  0  0
  9 11  2  0  0  0  0
  9 16  1  0  0  0  0
 10 13  1  0  0  0  0
 10 17  1  0  0  0  0
 11 13  1  0  0  0  0
 11 19  1  0  0  0  0
 12 15  1  0  0  0  0
 14 18  2  0  0  0  0
 14 29  1  0  0  0  0
 15 21  1  0  0  0  0
 15 30  1  0  0  0  0
 15 31  1  0  0  0  0
 16 22  2  0  0  0  0
 16 32  1  0  0  0  0
 17 20  2  0  0  0  0
 18 20  1  0  0  0  0
 18 24  1  0  0  0  0
 19 23  2  0  0  0  0
 20 33  1  0  0  0  0
 21 25  1  0  0  0  0
 21 34  1  0  0  0  0
 21 35  1  0  0  0  0
 22 23  1  0  0  0  0
 22 36  1  0  0  0  0
 23 37  1  0  0  0  0
 24 38  1  0  0  0  0
 24 39  1  0  0  0  0
 24 40  1  0  0  0  0
 26 27  1  0  0  0  0
 26 43  1  0  0  0  0
 26 44  1  0  0  0  0
 27 45  1  0  0  0  0
 27 46  1  0  0  0  0
 27 47  1  0  0  0  0
M  END
> <PUBCHEM_COMPOUND_CID>
124459

> <PUBCHEM_CONFORMER_RMSD>
0.8

> <PUBCHEM_CONFORMER_DIVERSEORDER>
18
117
73
76
86
152
37
32
143
166
136
131
26
41
60
74
133
93
89
98
79
102
124
15
36
51
139
157
168
134
44
77
70
52
104
130
109
135
68
47
100
103
48
71
108
147
30
90
46
163
49
19
101
153
1
120
164
125
33
160
58
114
42
154
132
9
38
54
96
149
83
78
67
112
145
53
12
22
16
97
111
34
82
24
40
148
105
61
85
31
80
72
3
59
94
138
165
43
119
27
21
5
107
81
115
6
4
66
155
91
69
151
121
161
65
92
127
88
35
140
142
7
62
17
84
113
141
10
87
167
116
28
64
122
8
55
128
150
75
14
158
13
23
20
123
146
95
2
144
159
45
137
63
57
50
162
39
25
11
29
110
99
169
106
129
156
118
126
56

> <PUBCHEM_MMFF94_PARTIAL_CHARGES>
33
1 -0.57
10 0.09
11 0.09
12 0.45
13 0.4
14 -0.15
15 0.06
16 -0.15
17 0.08
18 -0.14
19 0.08
2 -0.57
20 -0.15
21 0.06
22 -0.15
23 -0.15
24 0.14
25 0.66
26 0.28
29 0.15
3 -0.53
32 0.15
33 0.15
36 0.15
37 0.15
4 -0.53
41 0.45
42 0.45
5 -0.43
6 -0.57
7 0.35
8 -0.14
9 -0.14

> <PUBCHEM_EFFECTIVE_ROTOR_COUNT>
6.2

> <PUBCHEM_PHARMACOPHORE_FEATURES>
8
1 1 acceptor
1 2 acceptor
1 3 donor
1 4 donor
1 6 acceptor
6 7 8 9 10 11 13 rings
6 8 10 14 17 18 20 rings
6 9 11 16 19 22 23 rings

> <PUBCHEM_HEAVY_ATOM_COUNT>
27

> <PUBCHEM_ATOM_DEF_STEREO_COUNT>
0

> <PUBCHEM_ATOM_UDEF_STEREO_COUNT>
1

> <PUBCHEM_BOND_DEF_STEREO_COUNT>
0

> <PUBCHEM_BOND_UDEF_STEREO_COUNT>
0

> <PUBCHEM_ISOTOPIC_ATOM_COUNT>
0

> <PUBCHEM_COMPONENT_COUNT>
1

> <PUBCHEM_CACTVS_TAUTO_COUNT>
435

> <PUBCHEM_CONFORMER_ID>
0001E62B00000012

> <PUBCHEM_MMFF94_ENERGY>
66.3388

> <PUBCHEM_FEATURE_SELFOVERLAP>
40.638

> <PUBCHEM_SHAPE_FINGERPRINT>
10411042 1 18122347045338346187
1100329 8 18410572929365430769
11056379 131 18411706482792731162
11315181 36 18113903793117447774
12107183 9 17901661576147695874
12293681 160 18266721533843599805
12788726 201 18334851744834347682
13140716 1 18048304829213050115
13911987 19 18191012427214493581
14251757 5 18409169930789314338
14508225 48 18268985573965665839
14790565 3 17761497984994635082
15250474 111 18261103038369462714
15463212 79 18189050910916897896
15876981 60 18334869350459091252
16087824 20 18411138005886644241
17844677 252 18338243760577158188
19591789 44 18409726275547296993
20101258 96 18338243789613275088
20775438 99 16973047452503754487
23419403 2 17559379461202177321
23557571 272 18342745126193664028
23559900 14 18267015232212637688
255183 313 18198367107604738081
255183 451 17692530430795540439
283562 15 18339924793069715201
3178227 256 18336275600546151969
4409770 3 18334859428920801075
484989 97 18189327031024250663
497634 4 18113620127538741638
531348 171 18059857208638727446
5486654 2 18338794512159177769
550186 7 18343302531360052934
57527306 92 15719667672281523533
59755656 520 18262234413699451486
7226269 152 18410011035198029838
9981440 41 18119809106165702513

> <PUBCHEM_SHAPE_MULTIPOLES>
520.43
12.1
5.3
1.14
38.13
1.48
-0.04
-0.57
-5.23
-8.62
1.7
0.34
-0.04
0.14

> <PUBCHEM_SHAPE_SELFOVERLAP>
1131.624

> <PUBCHEM_SHAPE_VOLUME>
281.7

> <PUBCHEM_COORDINATE_TYPE>
2
5
10

$$$$
