12443122
  -OEChem-03292013303D

 42 44  0     0  0  0  0  0  0999 V2000
    0.1609    0.2297   -0.1912 O   0  0  0  0  0  0  0  0  0  0  0  0
   -1.2081    2.5435   -0.5297 O   0  0  0  0  0  0  0  0  0  0  0  0
   -5.3630    0.2113   -0.2136 O   0  0  0  0  0  0  0  0  0  0  0  0
   -4.0429   -2.1515    0.1304 O   0  0  0  0  0  0  0  0  0  0  0  0
   -3.9632    2.5592   -0.5467 O   0  0  0  0  0  0  0  0  0  0  0  0
   -1.7283   -3.3449    0.3105 O   0  0  0  0  0  0  0  0  0  0  0  0
    4.8408    1.7465    0.8281 O   0  0  0  0  0  0  0  0  0  0  0  0
    6.4646   -0.3060   -0.1082 O   0  0  0  0  0  0  0  0  0  0  0  0
   -1.9192   -1.0132   -0.0225 C   0  0  0  0  0  0  0  0  0  0  0  0
   -1.2099    0.1750   -0.1897 C   0  0  0  0  0  0  0  0  0  0  0  0
    0.8692   -0.9485   -0.0102 C   0  0  0  0  0  0  0  0  0  0  0  0
   -1.8954    1.3771   -0.3663 C   0  0  0  0  0  0  0  0  0  0  0  0
   -3.3159   -1.0094   -0.0302 C   0  0  0  0  0  0  0  0  0  0  0  0
   -1.1712   -2.2664    0.1603 C   0  0  0  0  0  0  0  0  0  0  0  0
    2.3357   -0.7768   -0.0345 C   0  0  0  0  0  0  0  0  0  0  0  0
   -3.9989    0.1947   -0.2066 C   0  0  0  0  0  0  0  0  0  0  0  0
   -3.2904    1.3853   -0.3742 C   0  0  0  0  0  0  0  0  0  0  0  0
    0.3015   -2.1540    0.1540 C   0  0  0  0  0  0  0  0  0  0  0  0
    2.9104    0.4157    0.4123 C   0  0  0  0  0  0  0  0  0  0  0  0
    3.1551   -1.8061   -0.5047 C   0  0  0  0  0  0  0  0  0  0  0  0
    4.2956    0.5778    0.3892 C   0  0  0  0  0  0  0  0  0  0  0  0
    4.5403   -1.6440   -0.5279 C   0  0  0  0  0  0  0  0  0  0  0  0
    5.1105   -0.4521   -0.0809 C   0  0  0  0  0  0  0  0  0  0  0  0
   -0.8894    3.2772    0.6504 C   0  0  0  0  0  0  0  0  0  0  0  0
   -6.0134    0.4009    1.0404 C   0  0  0  0  0  0  0  0  0  0  0  0
    5.0246    2.7792   -0.1383 C   0  0  0  0  0  0  0  0  0  0  0  0
    0.8571   -3.0716    0.3076 H   0  0  0  0  0  0  0  0  0  0  0  0
    2.2930    1.2276    0.7909 H   0  0  0  0  0  0  0  0  0  0  0  0
    2.7488   -2.7408   -0.8819 H   0  0  0  0  0  0  0  0  0  0  0  0
    5.1636   -2.4524   -0.9011 H   0  0  0  0  0  0  0  0  0  0  0  0
   -3.4598   -2.9162    0.2496 H   0  0  0  0  0  0  0  0  0  0  0  0
   -4.9168    2.3700   -0.5735 H   0  0  0  0  0  0  0  0  0  0  0  0
   -0.2536    2.6830    1.3144 H   0  0  0  0  0  0  0  0  0  0  0  0
   -1.8014    3.5788    1.1753 H   0  0  0  0  0  0  0  0  0  0  0  0
   -0.3419    4.1770    0.3566 H   0  0  0  0  0  0  0  0  0  0  0  0
   -5.7909   -0.4297    1.7175 H   0  0  0  0  0  0  0  0  0  0  0  0
   -7.0924    0.4286    0.8656 H   0  0  0  0  0  0  0  0  0  0  0  0
   -5.7095    1.3477    1.4980 H   0  0  0  0  0  0  0  0  0  0  0  0
    6.8637   -1.1184   -0.4642 H   0  0  0  0  0  0  0  0  0  0  0  0
    4.0620    3.0840   -0.5610 H   0  0  0  0  0  0  0  0  0  0  0  0
    5.6968    2.4463   -0.9356 H   0  0  0  0  0  0  0  0  0  0  0  0
    5.4753    3.6405    0.3622 H   0  0  0  0  0  0  0  0  0  0  0  0
  1 10  1  0  0  0  0
  1 11  1  0  0  0  0
  2 12  1  0  0  0  0
  2 24  1  0  0  0  0
  3 16  1  0  0  0  0
  3 25  1  0  0  0  0
  4 13  1  0  0  0  0
  4 31  1  0  0  0  0
  5 17  1  0  0  0  0
  5 32  1  0  0  0  0
  6 14  2  0  0  0  0
  7 21  1  0  0  0  0
  7 26  1  0  0  0  0
  8 23  1  0  0  0  0
  8 39  1  0  0  0  0
  9 10  1  0  0  0  0
  9 13  2  0  0  0  0
  9 14  1  0  0  0  0
 10 12  2  0  0  0  0
 11 15  1  0  0  0  0
 11 18  2  0  0  0  0
 12 17  1  0  0  0  0
 13 16  1  0  0  0  0
 14 18  1  0  0  0  0
 15 19  2  0  0  0  0
 15 20  1  0  0  0  0
 16 17  2  0  0  0  0
 18 27  1  0  0  0  0
 19 21  1  0  0  0  0
 19 28  1  0  0  0  0
 20 22  2  0  0  0  0
 20 29  1  0  0  0  0
 21 23  2  0  0  0  0
 22 23  1  0  0  0  0
 22 30  1  0  0  0  0
 24 33  1  0  0  0  0
 24 34  1  0  0  0  0
 24 35  1  0  0  0  0
 25 36  1  0  0  0  0
 25 37  1  0  0  0  0
 25 38  1  0  0  0  0
 26 40  1  0  0  0  0
 26 41  1  0  0  0  0
 26 42  1  0  0  0  0
M  END
> <PUBCHEM_COMPOUND_CID>
12443122

> <PUBCHEM_CONFORMER_RMSD>
0.8

> <PUBCHEM_CONFORMER_DIVERSEORDER>
1
4
5
6
2
3

> <PUBCHEM_MMFF94_PARTIAL_CHARGES>
33
1 -0.16
10 0.08
11 0.05
12 0.08
13 0.08
14 0.47
15 0.03
16 0.08
17 0.08
18 -0.14
19 -0.15
2 -0.36
20 -0.15
21 0.08
22 -0.15
23 0.08
24 0.28
25 0.28
26 0.28
27 0.15
28 0.15
29 0.15
3 -0.36
30 0.15
31 0.45
32 0.45
39 0.45
4 -0.53
5 -0.53
6 -0.57
7 -0.36
8 -0.53
9 0.09

> <PUBCHEM_EFFECTIVE_ROTOR_COUNT>
4

> <PUBCHEM_PHARMACOPHORE_FEATURES>
11
1 1 acceptor
1 2 acceptor
1 3 acceptor
1 4 donor
1 5 donor
1 6 acceptor
1 7 acceptor
1 8 donor
6 1 9 10 11 14 18 rings
6 15 19 20 21 22 23 rings
6 9 10 12 13 16 17 rings

> <PUBCHEM_HEAVY_ATOM_COUNT>
26

> <PUBCHEM_ATOM_DEF_STEREO_COUNT>
0

> <PUBCHEM_ATOM_UDEF_STEREO_COUNT>
0

> <PUBCHEM_BOND_DEF_STEREO_COUNT>
0

> <PUBCHEM_BOND_UDEF_STEREO_COUNT>
0

> <PUBCHEM_ISOTOPIC_ATOM_COUNT>
0

> <PUBCHEM_COMPONENT_COUNT>
1

> <PUBCHEM_CACTVS_TAUTO_COUNT>
69

> <PUBCHEM_CONFORMER_ID>
00BDDDF200000001

> <PUBCHEM_MMFF94_ENERGY>
110.4951

> <PUBCHEM_FEATURE_SELFOVERLAP>
55.858

> <PUBCHEM_SHAPE_FINGERPRINT>
10319926 262 18337936953783349970
10411042 1 17976260463300834691
10498660 4 18336259037907390676
10906281 52 18270135594440491261
1100329 8 18337676420702865185
11112241 14 16986285426098346881
11578080 2 16843862369580426306
11595378 159 17531232934119964312
12236239 1 17313105219925871303
12390115 104 18198353861873128177
12403259 415 18336263453223402949
12596602 18 16515694363594702968
12838862 33 18263909000369171949
13140716 1 18264496259478786035
13402501 40 18413668019762861760
13533116 47 17458898241703621794
14341114 176 18410014312975611972
14787075 74 18342168986358863645
14790565 3 18268434542752803945
15042514 8 18262243347585543467
15196674 1 18410854399471823190
15961568 22 18187645877477018684
16087824 20 18409726254774314623
17844677 252 18411987923061842668
20510252 161 18412543176243679883
20645477 56 18407760326438257478
21033648 29 18338785741471995321
21065198 57 18410291415718202998
21236236 1 18341330089252601879
21267235 1 18336273374866803887
21279426 13 18196091036735865678
21315764 268 18333724698344816276
21623110 236 18412550937345081505
221357 26 18201157659721185972
22224240 67 18409455770064987587
23227448 37 18339639048599678046
23402539 116 18341607135785513415
23557571 272 18412550929039580766
23559900 14 18270114600925555270
245318 6 16665720711414567612
283562 15 18266458711862305089
350125 39 18410857655647721388
3545911 37 18411138022269733590
392239 28 18411705352815594529
4073 2 18187087304184669674
4214541 1 18410291389736967430
5104073 3 18263081024356487419
59755656 215 18411985720113008726
59755656 520 17095242518711118194
9709674 26 18342179943005500558

> <PUBCHEM_SHAPE_MULTIPOLES>
488.11
12.95
3.34
0.75
6.18
0.99
0.05
2.88
0.79
-0.28
0.12
-0.15
0.13
0.77

> <PUBCHEM_SHAPE_SELFOVERLAP>
1074.676

> <PUBCHEM_SHAPE_VOLUME>
263.3

> <PUBCHEM_COORDINATE_TYPE>
2
5
10

$$$$
