124443
  -OEChem-03292013323D

 38 39  0     1  0  0  0  0  0999 V2000
   -2.2895    1.4598   -2.0474 O   0  0  0  0  0  0  0  0  0  0  0  0
    4.5549   -0.4696   -1.8940 O   0  0  0  0  0  0  0  0  0  0  0  0
    3.9352    2.0143    1.9289 O   0  0  0  0  0  0  0  0  0  0  0  0
   -5.8673    0.3245    0.6099 O   0  0  0  0  0  0  0  0  0  0  0  0
    1.8594   -0.4046    0.3953 N   0  0  0  0  0  0  0  0  0  0  0  0
   -2.3964   -0.2305    1.0466 N   0  0  0  0  0  0  0  0  0  0  0  0
   -4.0776    0.8891   -0.7221 N   0  0  0  0  0  0  0  0  0  0  0  0
    4.2598    0.7474    0.0360 N   0  0  0  0  0  0  0  0  0  0  0  0
    0.4549   -0.8138    0.4334 C   0  0  1  0  0  0  0  0  0  0  0  0
   -0.4373    0.1611   -0.3580 C   0  0  0  0  0  0  0  0  0  0  0  0
   -1.9180   -0.2056   -0.3351 C   0  0  2  0  0  0  0  0  0  0  0  0
    0.3082   -2.2388   -0.1311 C   0  0  0  0  0  0  0  0  0  0  0  0
    2.3407   -0.3815   -0.9864 C   0  0  0  0  0  0  0  0  0  0  0  0
    2.0173    0.9142    1.0091 C   0  0  0  0  0  0  0  0  0  0  0  0
   -2.7456    0.8068   -1.1094 C   0  0  0  0  0  0  0  0  0  0  0  0
    1.1413   -3.2731    0.6167 C   0  0  0  0  0  0  0  0  0  0  0  0
   -3.7703   -0.7155    1.1044 C   0  0  0  0  0  0  0  0  0  0  0  0
    3.8177   -0.0683   -0.9940 C   0  0  0  0  0  0  0  0  0  0  0  0
    3.4846    1.2668    1.0612 C   0  0  0  0  0  0  0  0  0  0  0  0
   -4.6721    0.2174    0.3359 C   0  0  0  0  0  0  0  0  0  0  0  0
    0.1363   -0.8395    1.4836 H   0  0  0  0  0  0  0  0  0  0  0  0
   -0.1418    0.1969   -1.4126 H   0  0  0  0  0  0  0  0  0  0  0  0
   -0.3512    1.1853    0.0214 H   0  0  0  0  0  0  0  0  0  0  0  0
   -2.0798   -1.1718   -0.8266 H   0  0  0  0  0  0  0  0  0  0  0  0
   -0.7300   -2.5659    0.0005 H   0  0  0  0  0  0  0  0  0  0  0  0
    0.4901   -2.3029   -1.2087 H   0  0  0  0  0  0  0  0  0  0  0  0
    1.8712    0.3833   -1.6142 H   0  0  0  0  0  0  0  0  0  0  0  0
    2.2601   -1.3522   -1.4823 H   0  0  0  0  0  0  0  0  0  0  0  0
    1.6454    0.9041    2.0402 H   0  0  0  0  0  0  0  0  0  0  0  0
    1.5350    1.7298    0.4608 H   0  0  0  0  0  0  0  0  0  0  0  0
   -2.3290    0.6976    1.4636 H   0  0  0  0  0  0  0  0  0  0  0  0
    2.2136   -3.1131    0.4703 H   0  0  0  0  0  0  0  0  0  0  0  0
    0.9303   -3.2465    1.6906 H   0  0  0  0  0  0  0  0  0  0  0  0
    0.9050   -4.2784    0.2527 H   0  0  0  0  0  0  0  0  0  0  0  0
   -4.0977   -0.7386    2.1487 H   0  0  0  0  0  0  0  0  0  0  0  0
   -3.8593   -1.7279    0.6964 H   0  0  0  0  0  0  0  0  0  0  0  0
   -4.6689    1.5241   -1.2508 H   0  0  0  0  0  0  0  0  0  0  0  0
    5.2473    0.9867    0.0406 H   0  0  0  0  0  0  0  0  0  0  0  0
  1 15  2  0  0  0  0
  2 18  2  0  0  0  0
  3 19  2  0  0  0  0
  4 20  2  0  0  0  0
  5  9  1  0  0  0  0
  5 13  1  0  0  0  0
  5 14  1  0  0  0  0
  6 11  1  0  0  0  0
  6 17  1  0  0  0  0
  6 31  1  0  0  0  0
  7 15  1  0  0  0  0
  7 20  1  0  0  0  0
  7 37  1  0  0  0  0
  8 18  1  0  0  0  0
  8 19  1  0  0  0  0
  8 38  1  0  0  0  0
  9 10  1  0  0  0  0
  9 12  1  0  0  0  0
  9 21  1  0  0  0  0
 10 11  1  0  0  0  0
 10 22  1  0  0  0  0
 10 23  1  0  0  0  0
 11 15  1  0  0  0  0
 11 24  1  0  0  0  0
 12 16  1  0  0  0  0
 12 25  1  0  0  0  0
 12 26  1  0  0  0  0
 13 18  1  0  0  0  0
 13 27  1  0  0  0  0
 13 28  1  0  0  0  0
 14 19  1  0  0  0  0
 14 29  1  0  0  0  0
 14 30  1  0  0  0  0
 16 32  1  0  0  0  0
 16 33  1  0  0  0  0
 16 34  1  0  0  0  0
 17 20  1  0  0  0  0
 17 35  1  0  0  0  0
 17 36  1  0  0  0  0
M  END
> <PUBCHEM_COMPOUND_CID>
124443

> <PUBCHEM_CONFORMER_RMSD>
0.8

> <PUBCHEM_CONFORMER_DIVERSEORDER>
1
31
18
20
25
21
19
36
5
29
14
17
28
33
13
35
30
12
24
11
26
3
22
15
10
27
16
23
34
9
32
8
2
4
6
7

> <PUBCHEM_MMFF94_PARTIAL_CHARGES>
20
1 -0.57
11 0.33
13 0.33
14 0.33
15 0.57
17 0.33
18 0.57
19 0.57
2 -0.57
20 0.57
3 -0.57
31 0.36
37 0.37
38 0.37
4 -0.57
5 -0.81
6 -0.9
7 -0.49
8 -0.49
9 0.27

> <PUBCHEM_EFFECTIVE_ROTOR_COUNT>
5.6

> <PUBCHEM_PHARMACOPHORE_FEATURES>
12
1 1 acceptor
1 16 hydrophobe
1 2 acceptor
1 3 acceptor
1 4 acceptor
1 5 cation
1 6 cation
1 6 donor
1 7 donor
1 8 donor
6 5 8 13 14 18 19 rings
6 6 7 11 15 17 20 rings

> <PUBCHEM_HEAVY_ATOM_COUNT>
20

> <PUBCHEM_ATOM_DEF_STEREO_COUNT>
0

> <PUBCHEM_ATOM_UDEF_STEREO_COUNT>
2

> <PUBCHEM_BOND_DEF_STEREO_COUNT>
0

> <PUBCHEM_BOND_UDEF_STEREO_COUNT>
0

> <PUBCHEM_ISOTOPIC_ATOM_COUNT>
0

> <PUBCHEM_COMPONENT_COUNT>
1

> <PUBCHEM_CACTVS_TAUTO_COUNT>
6

> <PUBCHEM_CONFORMER_ID>
0001E61B00000001

> <PUBCHEM_MMFF94_ENERGY>
46.7503

> <PUBCHEM_FEATURE_SELFOVERLAP>
60.903

> <PUBCHEM_SHAPE_FINGERPRINT>
10366900 7 18334576841600042001
11132069 177 18260548961184776667
12107183 9 14709983863244935732
12236239 1 16559034887564218921
12403259 415 18335697230758168092
12532896 13 18268702978082105858
12596602 18 17632588175722677459
12730499 353 18411990147965847419
12895836 83 17897748654534170204
13533116 47 18265899060670627171
13544653 18 11674871182690327606
13583140 156 16444724216574119212
14289901 80 16877940507905733321
15342168 16 18057883734910476217
17834072 33 17132113567701537253
18186145 218 18272368689671550350
19784866 170 18040444278398542739
19862831 5 17418370281573477619
204376 136 18339354270524143291
20612939 158 17275392018838993696
20645477 56 18337949121024590280
20645477 70 17346323695747791326
20832881 197 18059024869635620514
21033648 29 18410846668420446840
21065198 48 15140674761198549180
21486144 27 18130506439549371956
21503847 285 17775007868621490305
22079108 93 18201718509303867315
22854114 59 18407759244338334617
23402655 69 16702020911220697984
23503958 25 18335134263335136629
23557571 272 17676775262629477413
23558518 356 17766541831198958618
23559900 14 17532929394557132419
25 1 18131069355269726794
3004659 81 14261083056065474620
3082319 5 15913325823006041140
469060 322 17969767765496944479
474 4 17774434014015311840
5104073 3 18042688300295396657
5374978 207 16732983137115429201
621550 34 18334290929927480119
633830 44 18060136548240932496
6442390 28 18335986457824222450
6913067 236 18041826411769762775
7808743 9 17972040499081281380
81228 2 17760361489256319322

> <PUBCHEM_SHAPE_MULTIPOLES>
368.19
10.24
2.03
1.55
5.75
1.8
-0.21
-3.92
0.51
-1.3
0.46
-0.91
-0.62
1.73

> <PUBCHEM_SHAPE_SELFOVERLAP>
759.289

> <PUBCHEM_SHAPE_VOLUME>
208.1

> <PUBCHEM_COORDINATE_TYPE>
2
5
10

$$$$
