124551
  -OEChem-03292013323D

 36 37  0     0  0  0  0  0  0999 V2000
    5.4308   -2.1014   -0.9300 Br  0  0  0  0  0  0  0  0  0  0  0  0
    0.1457    1.0147   -0.1760 O   0  0  0  0  0  0  0  0  0  0  0  0
    0.5032   -1.2227    0.4004 N   0  0  0  0  0  0  0  0  0  0  0  0
   -1.7888   -0.9039    0.2736 N   0  0  0  0  0  0  0  0  0  0  0  0
    3.0658   -0.7726   -0.3487 N   0  0  0  0  0  0  0  0  0  0  0  0
    4.2549    1.6948    0.2551 N   0  0  0  0  0  0  0  0  0  0  0  0
   -0.8751   -3.0485    0.8198 N   0  0  0  0  0  0  0  0  0  0  0  0
    2.1027    2.5989    0.6968 N   0  0  0  0  0  0  0  0  0  0  0  0
    6.3860    0.7716   -0.1903 N   0  0  0  0  0  0  0  0  0  0  0  0
   -4.1806   -0.4156    0.0455 C   0  0  0  0  0  0  0  0  0  0  0  0
   -3.1372   -1.4451    0.3778 C   0  0  0  0  0  0  0  0  0  0  0  0
   -4.7001    0.3850    1.0551 C   0  0  0  0  0  0  0  0  0  0  0  0
   -4.6138   -0.2766   -1.2669 C   0  0  0  0  0  0  0  0  0  0  0  0
    2.3671    0.3041    0.0187 C   0  0  0  0  0  0  0  0  0  0  0  0
   -0.8051   -1.7146    0.4929 C   0  0  0  0  0  0  0  0  0  0  0  0
    0.9001    0.0805    0.0796 C   0  0  0  0  0  0  0  0  0  0  0  0
    2.9211    1.5114    0.3165 C   0  0  0  0  0  0  0  0  0  0  0  0
   -5.6684    1.3404    0.7469 C   0  0  0  0  0  0  0  0  0  0  0  0
   -5.5823    0.6789   -1.5751 C   0  0  0  0  0  0  0  0  0  0  0  0
   -6.1096    1.4874   -0.5682 C   0  0  0  0  0  0  0  0  0  0  0  0
    4.9838    0.6226   -0.1134 C   0  0  0  0  0  0  0  0  0  0  0  0
    4.3998   -0.5892   -0.4100 C   0  0  0  0  0  0  0  0  0  0  0  0
   -3.3215   -1.8196    1.3938 H   0  0  0  0  0  0  0  0  0  0  0  0
   -3.2642   -2.3008   -0.2991 H   0  0  0  0  0  0  0  0  0  0  0  0
   -4.3621    0.2805    2.0823 H   0  0  0  0  0  0  0  0  0  0  0  0
   -4.2082   -0.8993   -2.0594 H   0  0  0  0  0  0  0  0  0  0  0  0
    1.2421   -1.8979    0.5813 H   0  0  0  0  0  0  0  0  0  0  0  0
   -6.0786    1.9704    1.5308 H   0  0  0  0  0  0  0  0  0  0  0  0
   -5.9253    0.7939   -2.5992 H   0  0  0  0  0  0  0  0  0  0  0  0
   -6.8634    2.2316   -0.8082 H   0  0  0  0  0  0  0  0  0  0  0  0
   -1.7583   -3.5350    0.9250 H   0  0  0  0  0  0  0  0  0  0  0  0
   -0.0337   -3.5943    0.9714 H   0  0  0  0  0  0  0  0  0  0  0  0
    2.5767    3.4676    0.9128 H   0  0  0  0  0  0  0  0  0  0  0  0
    1.1664    2.6613    0.3177 H   0  0  0  0  0  0  0  0  0  0  0  0
    6.9654   -0.0474   -0.0541 H   0  0  0  0  0  0  0  0  0  0  0  0
    6.7703    1.6782    0.0446 H   0  0  0  0  0  0  0  0  0  0  0  0
  1 22  1  0  0  0  0
  2 16  2  0  0  0  0
  3 15  1  0  0  0  0
  3 16  1  0  0  0  0
  3 27  1  0  0  0  0
  4 11  1  0  0  0  0
  4 15  2  0  0  0  0
  5 14  1  0  0  0  0
  5 22  2  0  0  0  0
  6 17  1  0  0  0  0
  6 21  2  0  0  0  0
  7 15  1  0  0  0  0
  7 31  1  0  0  0  0
  7 32  1  0  0  0  0
  8 17  1  0  0  0  0
  8 33  1  0  0  0  0
  8 34  1  0  0  0  0
  9 21  1  0  0  0  0
  9 35  1  0  0  0  0
  9 36  1  0  0  0  0
 10 11  1  0  0  0  0
 10 12  2  0  0  0  0
 10 13  1  0  0  0  0
 11 23  1  0  0  0  0
 11 24  1  0  0  0  0
 12 18  1  0  0  0  0
 12 25  1  0  0  0  0
 13 19  2  0  0  0  0
 13 26  1  0  0  0  0
 14 16  1  0  0  0  0
 14 17  2  0  0  0  0
 18 20  2  0  0  0  0
 18 28  1  0  0  0  0
 19 20  1  0  0  0  0
 19 29  1  0  0  0  0
 20 30  1  0  0  0  0
 21 22  1  0  0  0  0
M  END
> <PUBCHEM_COMPOUND_CID>
124551

> <PUBCHEM_CONFORMER_RMSD>
0.8

> <PUBCHEM_CONFORMER_DIVERSEORDER>
1
35
13
24
38
44
12
36
16
37
23
9
18
42
40
39
33
10
34
26
28
8
41
15
32
48
43
47
27
3
2
14
29
11
45
17
19
31
6
46
7
5
25
22
4
20
30
21

> <PUBCHEM_MMFF94_PARTIAL_CHARGES>
34
1 -0.11
10 -0.14
11 0.39
12 -0.15
13 -0.15
14 0.4
15 0.56
16 0.54
17 0.41
18 -0.15
19 -0.15
2 -0.57
20 -0.15
21 0.41
22 0.42
25 0.15
26 0.15
27 0.37
28 0.15
29 0.15
3 -0.49
30 0.15
31 0.4
32 0.4
33 0.4
34 0.4
35 0.4
36 0.4
4 -0.7
5 -0.62
6 -0.62
7 -0.85
8 -0.9
9 -0.9

> <PUBCHEM_EFFECTIVE_ROTOR_COUNT>
5

> <PUBCHEM_PHARMACOPHORE_FEATURES>
11
1 1 hydrophobe
1 2 acceptor
1 3 donor
1 5 acceptor
1 7 donor
1 8 cation
1 8 donor
1 9 donor
3 6 9 21 cation
6 10 12 13 18 19 20 rings
6 5 6 14 17 21 22 rings

> <PUBCHEM_HEAVY_ATOM_COUNT>
22

> <PUBCHEM_ATOM_DEF_STEREO_COUNT>
0

> <PUBCHEM_ATOM_UDEF_STEREO_COUNT>
0

> <PUBCHEM_BOND_DEF_STEREO_COUNT>
0

> <PUBCHEM_BOND_UDEF_STEREO_COUNT>
0

> <PUBCHEM_ISOTOPIC_ATOM_COUNT>
0

> <PUBCHEM_COMPONENT_COUNT>
1

> <PUBCHEM_CACTVS_TAUTO_COUNT>
54

> <PUBCHEM_CONFORMER_ID>
0001E68700000001

> <PUBCHEM_MMFF94_ENERGY>
74.8102

> <PUBCHEM_FEATURE_SELFOVERLAP>
55.866

> <PUBCHEM_SHAPE_FINGERPRINT>
10066227 112 18186805820227621372
10835480 77 18340203107135144616
11089746 13 18060697316588493800
12596602 18 13262402141945666133
13533116 47 17917150503532110402
13544592 145 18407764737680958830
14848160 23 12247679361655809373
14856354 85 15068633698932868507
15003188 100 18337100268099272989
15183329 4 18343302535180506334
15531645 54 18409733941262229318
1601671 61 17603302652486461837
17349148 13 13326581794867532587
18222031 100 14333412250897428522
18335252 114 18342168922266936605
19489759 90 15051737478052565059
20281389 69 18113053848394983813
20832881 197 18337393743030200106
21033648 29 18262231231092099817
21279426 13 18410016507176678366
21421861 104 17676752203298465650
221357 26 18341608187804561493
2215653 11 18343588430258904462
22289505 5 18342459261982143556
23198884 109 17989202638787502373
23402539 116 17917994975316271609
23402655 69 18343863337729368439
23559900 14 18343301504757529736
2838139 119 18272087180514780705
293599 30 18260266352146919131
29717793 49 17703795782425623686
3004659 81 18261679186667362566
335352 9 18410295792237032942
3459 83 18059017181111449703
38695281 34 18272933791430805671
4073 2 18261397814252967594
5104073 3 18260263096366582850
5385378 56 18115027386273814651
59124914 9 18336828594105920129
59755656 215 18261957332089481006
59755656 520 18409451384703210203
6328613 192 18262524809466342796
633830 44 18336256929242167143
9996256 80 18410295856772487475

> <PUBCHEM_SHAPE_MULTIPOLES>
417.96
16.72
2.38
1.04
3.84
0.52
-0.24
-4.33
-4.1
-1.53
0.48
1.27
0.09
1.1

> <PUBCHEM_SHAPE_SELFOVERLAP>
875.788

> <PUBCHEM_SHAPE_VOLUME>
239

> <PUBCHEM_COORDINATE_TYPE>
2
5
10

$$$$
