124544850
  -OEChem-03292013293D

 54 59  0     1  0  0  0  0  0999 V2000
   -0.6304    0.0923    1.3824 O   0  0  0  0  0  0  0  0  0  0  0  0
   -0.0004   -2.8415   -0.1392 O   0  0  0  0  0  0  0  0  0  0  0  0
    1.0753    1.9209    1.3284 O   0  0  0  0  0  0  0  0  0  0  0  0
   -2.6252    1.5136   -0.9806 O   0  0  0  0  0  0  0  0  0  0  0  0
   -3.1112   -1.9276   -0.4519 O   0  0  0  0  0  0  0  0  0  0  0  0
    2.6662   -2.8648   -0.5620 O   0  0  0  0  0  0  0  0  0  0  0  0
    0.6424    2.3807   -1.7835 O   0  0  0  0  0  0  0  0  0  0  0  0
   -1.1106   -2.7172    1.8552 O   0  0  0  0  0  0  0  0  0  0  0  0
    2.5658    3.3887    0.3380 O   0  0  0  0  0  0  0  0  0  0  0  0
   -3.6312    2.5993    0.7673 O   0  0  0  0  0  0  0  0  0  0  0  0
   -0.1848   -0.5748   -0.8992 C   0  0  2  0  0  0  0  0  0  0  0  0
    0.9028    0.3742   -0.3590 C   0  0  2  0  0  0  0  0  0  0  0  0
   -1.0722   -0.8150    0.3493 C   0  0  2  0  0  0  0  0  0  0  0  0
    0.4843   -1.9335   -1.1449 C   0  0  1  0  0  0  0  0  0  0  0  0
    2.0005   -0.6279    0.1776 C   0  0  1  0  0  0  0  0  0  0  0  0
   -2.5465   -0.6677   -0.1075 C   0  0  1  0  0  0  0  0  0  0  0  0
   -1.1292   -0.1384   -2.0223 C   0  0  0  0  0  0  0  0  0  0  0  0
    0.1127    1.0955    0.7041 C   0  0  1  0  0  0  0  0  0  0  0  0
    1.9745   -1.6871   -0.9294 C   0  0  1  0  0  0  0  0  0  0  0  0
   -2.4834    0.1546   -1.3824 C   0  0  2  0  0  0  0  0  0  0  0  0
    1.5234    1.6084   -0.9981 C   0  0  2  0  0  0  0  0  0  0  0  0
   -0.7443   -2.2081    0.8069 C   0  0  0  0  0  0  0  0  0  0  0  0
    3.4285   -0.1494    0.4437 C   0  0  0  0  0  0  0  0  0  0  0  0
   -3.4546    0.1738    0.7865 C   0  0  1  0  0  0  0  0  0  0  0  0
    1.8112    2.4317    0.2639 C   0  0  0  0  0  0  0  0  0  0  0  0
   -3.2649    1.5655    0.2285 C   0  0  0  0  0  0  0  0  0  0  0  0
    4.3115   -1.3459    0.8346 C   0  0  0  0  0  0  0  0  0  0  0  0
    3.9988    0.5090   -0.8232 C   0  0  0  0  0  0  0  0  0  0  0  0
    3.4264    0.8749    1.5902 C   0  0  0  0  0  0  0  0  0  0  0  0
   -4.9355   -0.1841    0.7267 C   0  0  0  0  0  0  0  0  0  0  0  0
    0.2904   -2.3820   -2.1236 H   0  0  0  0  0  0  0  0  0  0  0  0
    1.6548   -1.0889    1.1141 H   0  0  0  0  0  0  0  0  0  0  0  0
   -1.2666   -0.9642   -2.7313 H   0  0  0  0  0  0  0  0  0  0  0  0
   -0.7570    0.7057   -2.6022 H   0  0  0  0  0  0  0  0  0  0  0  0
   -0.6322    1.7886    0.3026 H   0  0  0  0  0  0  0  0  0  0  0  0
    2.3849   -1.3309   -1.8768 H   0  0  0  0  0  0  0  0  0  0  0  0
   -3.2882   -0.0715   -2.0926 H   0  0  0  0  0  0  0  0  0  0  0  0
    2.3066    1.4202   -1.7025 H   0  0  0  0  0  0  0  0  0  0  0  0
   -3.1127    0.1511    1.8261 H   0  0  0  0  0  0  0  0  0  0  0  0
   -3.2715   -2.4165    0.3731 H   0  0  0  0  0  0  0  0  0  0  0  0
    2.5046   -3.5271   -1.2552 H   0  0  0  0  0  0  0  0  0  0  0  0
    3.7207    0.0753   -1.7840 H   0  0  0  0  0  0  0  0  0  0  0  0
    2.5934    0.7797    2.2886 H   0  0  0  0  0  0  0  0  0  0  0  0
    3.7545    1.8827    1.3575 H   0  0  0  0  0  0  0  0  0  0  0  0
    4.2527    0.6009    2.2681 H   0  0  0  0  0  0  0  0  0  0  0  0
    4.6344   -1.9402   -0.0255 H   0  0  0  0  0  0  0  0  0  0  0  0
    5.2524   -1.0030    1.2850 H   0  0  0  0  0  0  0  0  0  0  0  0
    3.9934    1.6016   -0.8398 H   0  0  0  0  0  0  0  0  0  0  0  0
    5.0875    0.3328   -0.8072 H   0  0  0  0  0  0  0  0  0  0  0  0
    3.8286   -1.9917    1.5762 H   0  0  0  0  0  0  0  0  0  0  0  0
   -5.3177   -0.1578   -0.2998 H   0  0  0  0  0  0  0  0  0  0  0  0
   -5.5286    0.5278    1.3115 H   0  0  0  0  0  0  0  0  0  0  0  0
   -5.1159   -1.1825    1.1373 H   0  0  0  0  0  0  0  0  0  0  0  0
    1.1292    3.1616   -2.0988 H   0  0  0  0  0  0  0  0  0  0  0  0
  1 13  1  0  0  0  0
  1 18  1  0  0  0  0
  2 14  1  0  0  0  0
  2 22  1  0  0  0  0
  3 18  1  0  0  0  0
  3 25  1  0  0  0  0
  4 20  1  0  0  0  0
  4 26  1  0  0  0  0
  5 16  1  0  0  0  0
  5 40  1  0  0  0  0
  6 19  1  0  0  0  0
  6 41  1  0  0  0  0
  7 21  1  0  0  0  0
  7 54  1  0  0  0  0
  8 22  2  0  0  0  0
  9 25  2  0  0  0  0
 10 26  2  0  0  0  0
 11 12  1  0  0  0  0
 11 13  1  0  0  0  0
 11 14  1  0  0  0  0
 11 17  1  0  0  0  0
 12 15  1  0  0  0  0
 12 18  1  0  0  0  0
 12 21  1  0  0  0  0
 13 16  1  0  0  0  0
 13 22  1  0  0  0  0
 14 19  1  0  0  0  0
 14 31  1  0  0  0  0
 15 19  1  0  0  0  0
 15 23  1  0  0  0  0
 15 32  1  0  0  0  0
 16 20  1  0  0  0  0
 16 24  1  0  0  0  0
 17 20  1  0  0  0  0
 17 33  1  0  0  0  0
 17 34  1  0  0  0  0
 18 35  1  0  0  0  0
 19 36  1  0  0  0  0
 20 37  1  0  0  0  0
 21 25  1  0  0  0  0
 21 38  1  0  0  0  0
 23 27  1  0  0  0  0
 23 28  1  0  0  0  0
 23 29  1  0  0  0  0
 24 26  1  0  0  0  0
 24 30  1  0  0  0  0
 24 39  1  0  0  0  0
 27 46  1  0  0  0  0
 27 47  1  0  0  0  0
 27 50  1  0  0  0  0
 28 42  1  0  0  0  0
 28 48  1  0  0  0  0
 28 49  1  0  0  0  0
 29 43  1  0  0  0  0
 29 44  1  0  0  0  0
 29 45  1  0  0  0  0
 30 51  1  0  0  0  0
 30 52  1  0  0  0  0
 30 53  1  0  0  0  0
M  END
> <PUBCHEM_COMPOUND_CID>
124544850

> <PUBCHEM_CONFORMER_RMSD>
0.8

> <PUBCHEM_CONFORMER_DIVERSEORDER>
1

> <PUBCHEM_MMFF94_PARTIAL_CHARGES>
24
1 -0.56
10 -0.57
13 0.34
14 0.28
16 0.28
18 0.56
19 0.28
2 -0.43
20 0.28
21 0.34
22 0.66
24 0.06
25 0.66
26 0.66
3 -0.43
4 -0.43
40 0.4
41 0.4
5 -0.68
54 0.4
6 -0.68
7 -0.68
8 -0.57
9 -0.57

> <PUBCHEM_EFFECTIVE_ROTOR_COUNT>
2.8

> <PUBCHEM_PHARMACOPHORE_FEATURES>
17
1 1 acceptor
1 10 acceptor
1 5 acceptor
1 5 donor
1 6 acceptor
1 6 donor
1 7 acceptor
1 7 donor
1 8 acceptor
1 9 acceptor
4 23 27 28 29 hydrophobe
5 1 11 12 13 18 rings
5 11 12 14 15 19 rings
5 11 13 16 17 20 rings
5 2 11 13 14 22 rings
5 3 12 18 21 25 rings
5 4 16 20 24 26 rings

> <PUBCHEM_HEAVY_ATOM_COUNT>
30

> <PUBCHEM_ATOM_DEF_STEREO_COUNT>
11

> <PUBCHEM_ATOM_UDEF_STEREO_COUNT>
0

> <PUBCHEM_BOND_DEF_STEREO_COUNT>
0

> <PUBCHEM_BOND_UDEF_STEREO_COUNT>
0

> <PUBCHEM_ISOTOPIC_ATOM_COUNT>
0

> <PUBCHEM_COMPONENT_COUNT>
1

> <PUBCHEM_CACTVS_TAUTO_COUNT>
4

> <PUBCHEM_CONFORMER_ID>
076C675200000001

> <PUBCHEM_MMFF94_ENERGY>
193.0814

> <PUBCHEM_FEATURE_SELFOVERLAP>
89.542

> <PUBCHEM_SHAPE_FINGERPRINT>
10863032 1 18272647900852531375
10906281 52 18341058415580495720
10948715 1 18272367546883292931
1100329 8 16247152568272684858
11578080 2 14856451023036309084
11640471 11 16988843877838824699
12011746 2 18272095963812299078
12035758 1 18335136496939092274
12403260 363 18341319089392437711
12422481 6 17982712105373796954
12633257 1 18187357778947924778
12788726 201 18059866013237612960
13132413 78 18200593570952954981
13140716 1 18193275419364149154
13224815 77 18202278138704080789
13583140 156 17605248809537161024
14223421 5 18049162468950254808
14713325 29 17757839201181982448
14790565 3 18341057384752259340
14955137 171 18130516266302773730
15209289 33 18408603647719796659
1601671 61 18340493279198882260
16945 1 18272358772196457734
17349148 13 18272083894315913498
20600515 1 18187655652631991414
20691752 17 18042410131689142319
20905425 154 17911241611473442892
21033648 29 17703211984547863416
21330990 113 17898011230916293078
23184049 59 18410285909152956356
23419403 2 16377742775690548887
23558518 356 18262798609235768275
23559900 14 18264210377517236132
238 59 18048840140297431325
296302 2 16486965185401501746
3286 77 18333735710662023087
350125 39 18410579513296685005
392239 28 18337127730367999547
4340502 62 18340777000865508131
474 4 18341895199289099961
70251023 43 18270104731343949695
9981440 41 17336993424431485440

> <PUBCHEM_SHAPE_MULTIPOLES>
558.69
6.79
3.14
1.53
1.62
0.23
0.17
0.95
-1.59
-0.9
-0.24
0.03
0.02
0.21

> <PUBCHEM_SHAPE_SELFOVERLAP>
1286.996

> <PUBCHEM_SHAPE_VOLUME>
288

> <PUBCHEM_COORDINATE_TYPE>
2
5
10

$$$$
