124503
  -OEChem-03292013323D

 51 52  0     0  0  0  0  0  0999 V2000
   -1.4444    0.2955    1.5246 O   0  0  0  0  0  0  0  0  0  0  0  0
   -5.3565   -1.5816   -0.5130 O   0  0  0  0  0  0  0  0  0  0  0  0
   -6.8387    0.1829   -1.8584 O   0  0  0  0  0  0  0  0  0  0  0  0
    7.5006   -0.4507   -1.4480 N   0  0  0  0  0  0  0  0  0  0  0  0
    7.9914    0.8607    0.3317 N   0  0  0  0  0  0  0  0  0  0  0  0
    8.6225    0.2686   -1.5924 N   0  0  0  0  0  0  0  0  0  0  0  0
    8.9519    1.0604   -0.5625 N   0  0  0  0  0  0  0  0  0  0  0  0
    2.1745    0.6040    0.5621 C   0  0  0  0  0  0  0  0  0  0  0  0
    3.4039   -0.2447    0.8938 C   0  0  0  0  0  0  0  0  0  0  0  0
    0.9207    0.0530    1.2378 C   0  0  0  0  0  0  0  0  0  0  0  0
    4.6540    0.2906    0.1890 C   0  0  0  0  0  0  0  0  0  0  0  0
   -0.3147    0.8664    0.8787 C   0  0  0  0  0  0  0  0  0  0  0  0
    5.9081   -0.5466    0.4668 C   0  0  0  0  0  0  0  0  0  0  0  0
   -3.3986   -0.6660    0.5044 C   0  0  0  0  0  0  0  0  0  0  0  0
   -2.8750   -2.0428    0.7611 C   0  0  0  0  0  0  0  0  0  0  0  0
   -2.6554    0.4460    0.9002 C   0  0  0  0  0  0  0  0  0  0  0  0
   -2.0202   -2.5617   -0.4017 C   0  0  0  0  0  0  0  0  0  0  0  0
   -4.6294   -0.4929   -0.1285 C   0  0  0  0  0  0  0  0  0  0  0  0
   -3.1428    1.7311    0.6628 C   0  0  0  0  0  0  0  0  0  0  0  0
   -5.1169    0.7923   -0.3659 C   0  0  0  0  0  0  0  0  0  0  0  0
    7.1409   -0.0464   -0.2271 C   0  0  0  0  0  0  0  0  0  0  0  0
   -4.3735    1.9043    0.0297 C   0  0  0  0  0  0  0  0  0  0  0  0
   -1.4638   -3.9483   -0.1198 C   0  0  0  0  0  0  0  0  0  0  0  0
   -6.3998    0.9978   -1.0241 C   0  0  0  0  0  0  0  0  0  0  0  0
   -7.2387    2.2281   -0.7011 C   0  0  0  0  0  0  0  0  0  0  0  0
    2.3426    1.6387    0.8844 H   0  0  0  0  0  0  0  0  0  0  0  0
    2.0263    0.6234   -0.5245 H   0  0  0  0  0  0  0  0  0  0  0  0
    3.5682   -0.2509    1.9780 H   0  0  0  0  0  0  0  0  0  0  0  0
    3.2288   -1.2828    0.5862 H   0  0  0  0  0  0  0  0  0  0  0  0
    1.0482    0.0450    2.3275 H   0  0  0  0  0  0  0  0  0  0  0  0
    0.7621   -0.9931    0.9475 H   0  0  0  0  0  0  0  0  0  0  0  0
    4.8338    1.3269    0.5028 H   0  0  0  0  0  0  0  0  0  0  0  0
    4.4749    0.3218   -0.8935 H   0  0  0  0  0  0  0  0  0  0  0  0
   -0.1966    1.9015    1.2190 H   0  0  0  0  0  0  0  0  0  0  0  0
   -0.4481    0.8687   -0.2109 H   0  0  0  0  0  0  0  0  0  0  0  0
    6.1009   -0.5636    1.5466 H   0  0  0  0  0  0  0  0  0  0  0  0
    5.7276   -1.5864    0.1666 H   0  0  0  0  0  0  0  0  0  0  0  0
   -2.2696   -2.0419    1.6776 H   0  0  0  0  0  0  0  0  0  0  0  0
   -3.6865   -2.7439    0.9915 H   0  0  0  0  0  0  0  0  0  0  0  0
   -1.1859   -1.8762   -0.5927 H   0  0  0  0  0  0  0  0  0  0  0  0
   -2.6132   -2.5961   -1.3233 H   0  0  0  0  0  0  0  0  0  0  0  0
   -2.5779    2.6068    0.9704 H   0  0  0  0  0  0  0  0  0  0  0  0
   -4.7206    2.9177   -0.1521 H   0  0  0  0  0  0  0  0  0  0  0  0
   -0.8285   -3.9413    0.7717 H   0  0  0  0  0  0  0  0  0  0  0  0
   -2.2718   -4.6697    0.0385 H   0  0  0  0  0  0  0  0  0  0  0  0
   -0.8599   -4.2938   -0.9646 H   0  0  0  0  0  0  0  0  0  0  0  0
   -4.7850   -2.3559   -0.6303 H   0  0  0  0  0  0  0  0  0  0  0  0
   -6.9577    3.0486   -1.3658 H   0  0  0  0  0  0  0  0  0  0  0  0
   -7.1114    2.5226    0.3441 H   0  0  0  0  0  0  0  0  0  0  0  0
   -8.2960    1.9865   -0.8468 H   0  0  0  0  0  0  0  0  0  0  0  0
    9.1887    0.2174   -2.4325 H   0  0  0  0  0  0  0  0  0  0  0  0
  1 12  1  0  0  0  0
  1 16  1  0  0  0  0
  2 18  1  0  0  0  0
  2 47  1  0  0  0  0
  3 24  2  0  0  0  0
  4  6  1  0  0  0  0
  4 21  2  0  0  0  0
  5  7  2  0  0  0  0
  5 21  1  0  0  0  0
  6  7  1  0  0  0  0
  6 51  1  0  0  0  0
  8  9  1  0  0  0  0
  8 10  1  0  0  0  0
  8 26  1  0  0  0  0
  8 27  1  0  0  0  0
  9 11  1  0  0  0  0
  9 28  1  0  0  0  0
  9 29  1  0  0  0  0
 10 12  1  0  0  0  0
 10 30  1  0  0  0  0
 10 31  1  0  0  0  0
 11 13  1  0  0  0  0
 11 32  1  0  0  0  0
 11 33  1  0  0  0  0
 12 34  1  0  0  0  0
 12 35  1  0  0  0  0
 13 21  1  0  0  0  0
 13 36  1  0  0  0  0
 13 37  1  0  0  0  0
 14 15  1  0  0  0  0
 14 16  2  0  0  0  0
 14 18  1  0  0  0  0
 15 17  1  0  0  0  0
 15 38  1  0  0  0  0
 15 39  1  0  0  0  0
 16 19  1  0  0  0  0
 17 23  1  0  0  0  0
 17 40  1  0  0  0  0
 17 41  1  0  0  0  0
 18 20  2  0  0  0  0
 19 22  2  0  0  0  0
 19 42  1  0  0  0  0
 20 22  1  0  0  0  0
 20 24  1  0  0  0  0
 22 43  1  0  0  0  0
 23 44  1  0  0  0  0
 23 45  1  0  0  0  0
 23 46  1  0  0  0  0
 24 25  1  0  0  0  0
 25 48  1  0  0  0  0
 25 49  1  0  0  0  0
 25 50  1  0  0  0  0
M  END
> <PUBCHEM_COMPOUND_CID>
124503

> <PUBCHEM_CONFORMER_RMSD>
1.2

> <PUBCHEM_CONFORMER_DIVERSEORDER>
1
27
7
24
13
64
57
47
40
51
10
42
44
60
49
34
65
68
14
59
21
52
69
23
50
22
61
48
17
35
5
66
28
38
56
37
58
4
33
32
41
25
11
54
36
45
39
12
2
8
63
55
67
15
62
46
19
43
31
18
29
30
20
6
26
16
53
3
9

> <PUBCHEM_MMFF94_PARTIAL_CHARGES>
23
1 -0.36
12 0.28
13 0.18
14 -0.14
15 0.14
16 0.08
18 0.08
19 -0.15
2 -0.53
20 0.09
21 0.34
22 -0.15
24 0.42
25 0.06
3 -0.57
4 -0.71
42 0.15
43 0.15
47 0.45
5 -0.23
51 0.27
6 0.57
7 -0.42

> <PUBCHEM_EFFECTIVE_ROTOR_COUNT>
11

> <PUBCHEM_PHARMACOPHORE_FEATURES>
8
1 1 acceptor
1 2 donor
1 23 hydrophobe
1 3 acceptor
3 4 5 21 cation
5 4 5 6 7 21 rings
5 8 9 10 11 13 hydrophobe
6 14 16 18 19 20 22 rings

> <PUBCHEM_HEAVY_ATOM_COUNT>
25

> <PUBCHEM_ATOM_DEF_STEREO_COUNT>
0

> <PUBCHEM_ATOM_UDEF_STEREO_COUNT>
0

> <PUBCHEM_BOND_DEF_STEREO_COUNT>
0

> <PUBCHEM_BOND_UDEF_STEREO_COUNT>
0

> <PUBCHEM_ISOTOPIC_ATOM_COUNT>
0

> <PUBCHEM_COMPONENT_COUNT>
1

> <PUBCHEM_CACTVS_TAUTO_COUNT>
18

> <PUBCHEM_CONFORMER_ID>
0001E65700000001

> <PUBCHEM_MMFF94_ENERGY>
48.8999

> <PUBCHEM_FEATURE_SELFOVERLAP>
40.594

> <PUBCHEM_SHAPE_FINGERPRINT>
10 15 8070021173701055026
10369192 42 15213016038053173027
10391435 84 17988357183223754410
11200772 48 18335423495407860458
11315181 36 18131635594872899665
12082328 90 17240483615109333451
12166972 35 12823288014434863690
13073987 5 9222966859005803840
13668630 136 16559024995637429100
14251764 18 12751234818527459024
14849402 71 10375283653845769842
14931854 50 18131350778448614138
150020 25 18131354133725245096
15183329 4 18411417280869201048
15276724 80 17313096420049708868
15716309 27 13039182611242169264
1577012 14 17967245390831983002
20721686 146 17024013871411028277
21150785 3 18273213089090692208
21315759 40 13470689261336047480
21360443 120 18336263449361439499
23559900 14 18129930304099528985
23576562 1 18189616210128142860
249057 3 18408886260778834280
335352 9 18411411805440415741
58902169 19 18040438819948511486

> <PUBCHEM_SHAPE_MULTIPOLES>
476.96
26.08
2.55
1.27
57.49
2.85
0.22
-11.27
13.57
-4.44
0.23
0.18
-0.12
0.31

> <PUBCHEM_SHAPE_SELFOVERLAP>
975.516

> <PUBCHEM_SHAPE_VOLUME>
276.4

> <PUBCHEM_COORDINATE_TYPE>
2
5
10

$$$$
