124528
  -OEChem-03292013323D

 34 35  0     1  0  0  0  0  0999 V2000
   -5.4419    1.4177   -0.8235 Br  0  0  0  0  0  0  0  0  0  0  0  0
    0.4154   -0.4560   -2.8567 O   0  0  0  0  0  0  0  0  0  0  0  0
    2.7756    3.1008   -0.4298 O   0  0  0  0  0  0  0  0  0  0  0  0
   -0.4173   -2.0041    2.1641 O   0  0  0  0  0  0  0  0  0  0  0  0
    1.4852   -2.1503   -1.7701 O   0  0  0  0  0  0  0  0  0  0  0  0
    1.3306    2.1966    1.0837 O   0  0  0  0  0  0  0  0  0  0  0  0
    0.9181   -0.8904    0.5933 N   0  0  0  0  0  0  0  0  0  0  0  0
    3.4971    0.1698   -0.1131 N   0  0  0  0  0  0  0  0  0  0  0  0
    1.0367   -0.0676   -0.6220 C   0  0  1  0  0  0  0  0  0  0  0  0
    2.2954    0.8100   -0.6479 C   0  0  1  0  0  0  0  0  0  0  0  0
    2.1547   -1.5059    1.0752 C   0  0  0  0  0  0  0  0  0  0  0  0
    3.2791   -0.4854    1.1720 C   0  0  0  0  0  0  0  0  0  0  0  0
   -0.2885   -1.2241    1.2217 C   0  0  0  0  0  0  0  0  0  0  0  0
    1.0193   -1.0207   -1.7826 C   0  0  0  0  0  0  0  0  0  0  0  0
    2.0625    2.0832    0.1116 C   0  0  0  0  0  0  0  0  0  0  0  0
   -1.5203   -0.5939    0.7337 C   0  0  0  0  0  0  0  0  0  0  0  0
   -2.2571   -1.2046   -0.2774 C   0  0  0  0  0  0  0  0  0  0  0  0
   -1.9451    0.6126    1.2839 C   0  0  0  0  0  0  0  0  0  0  0  0
   -3.4275   -0.6044   -0.7420 C   0  0  0  0  0  0  0  0  0  0  0  0
   -3.1155    1.2126    0.8193 C   0  0  0  0  0  0  0  0  0  0  0  0
   -3.8567    0.6042   -0.1936 C   0  0  0  0  0  0  0  0  0  0  0  0
    0.1476    0.5652   -0.7074 H   0  0  0  0  0  0  0  0  0  0  0  0
    2.4932    1.0902   -1.6911 H   0  0  0  0  0  0  0  0  0  0  0  0
    2.4286   -2.3299    0.4093 H   0  0  0  0  0  0  0  0  0  0  0  0
    1.9911   -1.9504    2.0632 H   0  0  0  0  0  0  0  0  0  0  0  0
    3.0590    0.2549    1.9498 H   0  0  0  0  0  0  0  0  0  0  0  0
    4.2016   -0.9948    1.4714 H   0  0  0  0  0  0  0  0  0  0  0  0
    4.2594    0.8426   -0.0428 H   0  0  0  0  0  0  0  0  0  0  0  0
   -1.9310   -2.1462   -0.7112 H   0  0  0  0  0  0  0  0  0  0  0  0
   -1.3743    1.0946    2.0732 H   0  0  0  0  0  0  0  0  0  0  0  0
    0.3940   -1.0638   -3.6264 H   0  0  0  0  0  0  0  0  0  0  0  0
    2.6358    3.9434    0.0527 H   0  0  0  0  0  0  0  0  0  0  0  0
   -3.9931   -1.0915   -1.5322 H   0  0  0  0  0  0  0  0  0  0  0  0
   -3.4357    2.1546    1.2571 H   0  0  0  0  0  0  0  0  0  0  0  0
  1 21  1  0  0  0  0
  2 14  1  0  0  0  0
  2 31  1  0  0  0  0
  3 15  1  0  0  0  0
  3 32  1  0  0  0  0
  4 13  2  0  0  0  0
  5 14  2  0  0  0  0
  6 15  2  0  0  0  0
  7  9  1  0  0  0  0
  7 11  1  0  0  0  0
  7 13  1  0  0  0  0
  8 10  1  0  0  0  0
  8 12  1  0  0  0  0
  8 28  1  0  0  0  0
  9 10  1  0  0  0  0
  9 14  1  0  0  0  0
  9 22  1  0  0  0  0
 10 15  1  0  0  0  0
 10 23  1  0  0  0  0
 11 12  1  0  0  0  0
 11 24  1  0  0  0  0
 11 25  1  0  0  0  0
 12 26  1  0  0  0  0
 12 27  1  0  0  0  0
 13 16  1  0  0  0  0
 16 17  2  0  0  0  0
 16 18  1  0  0  0  0
 17 19  1  0  0  0  0
 17 29  1  0  0  0  0
 18 20  2  0  0  0  0
 18 30  1  0  0  0  0
 19 21  2  0  0  0  0
 19 33  1  0  0  0  0
 20 21  1  0  0  0  0
 20 34  1  0  0  0  0
M  END
> <PUBCHEM_COMPOUND_CID>
124528

> <PUBCHEM_CONFORMER_RMSD>
0.8

> <PUBCHEM_CONFORMER_DIVERSEORDER>
1
31
22
21
14
26
12
27
29
5
30
23
18
20
16
4
17
13
7
32
25
11
9
15
3
2
8
28
6
10
24
19

> <PUBCHEM_MMFF94_PARTIAL_CHARGES>
28
1 -0.11
10 0.33
11 0.3
12 0.27
13 0.54
14 0.66
15 0.66
16 0.09
17 -0.15
18 -0.15
19 -0.15
2 -0.65
20 -0.15
21 0.11
28 0.36
29 0.15
3 -0.65
30 0.15
31 0.5
32 0.5
33 0.15
34 0.15
4 -0.57
5 -0.57
6 -0.57
7 -0.66
8 -0.9
9 0.36

> <PUBCHEM_EFFECTIVE_ROTOR_COUNT>
5.2

> <PUBCHEM_PHARMACOPHORE_FEATURES>
12
1 1 hydrophobe
1 2 acceptor
1 3 acceptor
1 4 acceptor
1 5 acceptor
1 6 acceptor
1 8 cation
1 8 donor
3 2 5 14 anion
3 3 6 15 anion
6 16 17 18 19 20 21 rings
6 7 8 9 10 11 12 rings

> <PUBCHEM_HEAVY_ATOM_COUNT>
21

> <PUBCHEM_ATOM_DEF_STEREO_COUNT>
0

> <PUBCHEM_ATOM_UDEF_STEREO_COUNT>
2

> <PUBCHEM_BOND_DEF_STEREO_COUNT>
0

> <PUBCHEM_BOND_UDEF_STEREO_COUNT>
0

> <PUBCHEM_ISOTOPIC_ATOM_COUNT>
0

> <PUBCHEM_COMPONENT_COUNT>
1

> <PUBCHEM_CACTVS_TAUTO_COUNT>
1

> <PUBCHEM_CONFORMER_ID>
0001E67000000001

> <PUBCHEM_MMFF94_ENERGY>
52.2658

> <PUBCHEM_FEATURE_SELFOVERLAP>
61.008

> <PUBCHEM_SHAPE_FINGERPRINT>
10064457 181 17676494959714959235
11086676 242 14996546439523983476
11221954 11 18193570084075084569
12011746 2 18259985933990424772
12633257 1 17895179030961131944
12670546 177 18201704168845974685
12778500 126 7997416113214488701
13132413 78 18118113676388887512
13134695 92 18335973178190920996
13464513 79 10519693514419700208
13464514 151 18336563658779350984
13583140 156 18113904845141855515
13994607 96 17182787000298431852
15295992 7 17821732719509395113
15775835 57 18187365411368403931
16945 1 18201446895076248066
17492 54 17339834584252778893
17980427 23 17986647355709235552
17980427 26 18044349795081709594
18186145 218 18334587815114876251
18981168 100 17460625681681073979
192875 21 18202558475657396273
19784866 135 14491850686706445728
20715895 44 18125149443322867413
21033648 29 17168129140358383141
21860390 5 18410856542555386244
22892500 29 18187075161588982308
23419403 2 14583890203471953106
23557571 272 18336274547725483859
23559900 14 17917713457358519255
238 59 17987240125752896793
3060560 45 17131823274793081296
474 4 18334572460348570689
5262128 65 17915479223939851765
5895379 119 17914897526465168625
9981440 41 17975403934735352552

> <PUBCHEM_SHAPE_MULTIPOLES>
398.8
7.34
2.35
1.88
8.7
1.24
0.85
3.38
0.7
-1.57
-0.31
-0.49
-0.79
0.08

> <PUBCHEM_SHAPE_SELFOVERLAP>
832.596

> <PUBCHEM_SHAPE_VOLUME>
229.1

> <PUBCHEM_COORDINATE_TYPE>
2
5
10

$$$$
