124641
  -OEChem-03292013323D

 45 47  0     0  0  0  0  0  0999 V2000
    0.4099    2.2201    0.3929 O   0  0  0  0  0  0  0  0  0  0  0  0
   -2.0875    2.4619    0.0270 O   0  0  0  0  0  0  0  0  0  0  0  0
   -2.8027   -2.8332    0.1073 O   0  0  0  0  0  0  0  0  0  0  0  0
   -4.5832    2.8824   -0.3454 O   0  0  0  0  0  0  0  0  0  0  0  0
    2.9693    0.8146    2.0803 O   0  0  0  0  0  0  0  0  0  0  0  0
    3.9476   -3.5482   -0.2718 O   0  0  0  0  0  0  0  0  0  0  0  0
    2.5232   -2.3914   -1.6087 O   0  0  0  0  0  0  0  0  0  0  0  0
    5.3190    1.6709    0.8952 O   0  0  0  0  0  0  0  0  0  0  0  0
   -1.1002    0.3395    0.2406 C   0  0  0  0  0  0  0  0  0  0  0  0
   -1.2881   -1.0441    0.2616 C   0  0  0  0  0  0  0  0  0  0  0  0
    1.0862   -1.3595    0.6117 C   0  0  0  0  0  0  0  0  0  0  0  0
    1.2737    0.0211    0.5906 C   0  0  0  0  0  0  0  0  0  0  0  0
    0.1840    0.8724    0.4055 C   0  0  0  0  0  0  0  0  0  0  0  0
   -0.1919   -1.8948    0.4477 C   0  0  0  0  0  0  0  0  0  0  0  0
   -3.5973    0.6730   -0.1277 C   0  0  0  0  0  0  0  0  0  0  0  0
   -3.7851   -0.7107   -0.1068 C   0  0  0  0  0  0  0  0  0  0  0  0
   -2.2479    1.2485    0.0450 C   0  0  0  0  0  0  0  0  0  0  0  0
   -2.6374   -1.6197    0.0888 C   0  0  0  0  0  0  0  0  0  0  0  0
    2.2304   -2.3029    0.8073 C   0  0  0  0  0  0  0  0  0  0  0  0
   -4.6936    1.5238   -0.3136 C   0  0  0  0  0  0  0  0  0  0  0  0
    2.6143    0.5750    0.7627 C   0  0  0  0  0  0  0  0  0  0  0  0
   -5.0693   -1.2437   -0.2717 C   0  0  0  0  0  0  0  0  0  0  0  0
   -5.9715    0.9885   -0.4773 C   0  0  0  0  0  0  0  0  0  0  0  0
   -6.1590   -0.3923   -0.4564 C   0  0  0  0  0  0  0  0  0  0  0  0
    3.4360    0.8081   -0.2873 C   0  0  0  0  0  0  0  0  0  0  0  0
    2.8856   -2.7284   -0.4899 C   0  0  0  0  0  0  0  0  0  0  0  0
    4.8198    1.3659   -0.1838 C   0  0  0  0  0  0  0  0  0  0  0  0
    5.5554    1.5276   -1.5024 C   0  0  0  0  0  0  0  0  0  0  0  0
    6.9603    2.0757   -1.3215 C   0  0  0  0  0  0  0  0  0  0  0  0
   -0.3281   -2.9736    0.4626 H   0  0  0  0  0  0  0  0  0  0  0  0
    1.8706   -3.2126    1.3055 H   0  0  0  0  0  0  0  0  0  0  0  0
    2.9944   -1.8815    1.4690 H   0  0  0  0  0  0  0  0  0  0  0  0
   -5.2419   -2.3165   -0.2593 H   0  0  0  0  0  0  0  0  0  0  0  0
   -6.8276    1.6423   -0.6222 H   0  0  0  0  0  0  0  0  0  0  0  0
   -7.1550   -0.8065   -0.5841 H   0  0  0  0  0  0  0  0  0  0  0  0
    3.0961    0.5896   -1.2969 H   0  0  0  0  0  0  0  0  0  0  0  0
    1.3096    2.4418    0.6782 H   0  0  0  0  0  0  0  0  0  0  0  0
   -3.6618    3.1562   -0.2258 H   0  0  0  0  0  0  0  0  0  0  0  0
    2.2237    0.5646    2.6529 H   0  0  0  0  0  0  0  0  0  0  0  0
    4.9801    2.2088   -2.1388 H   0  0  0  0  0  0  0  0  0  0  0  0
    5.6099    0.5488   -1.9914 H   0  0  0  0  0  0  0  0  0  0  0  0
    6.9397    3.0610   -0.8440 H   0  0  0  0  0  0  0  0  0  0  0  0
    7.5638    1.4115   -0.6939 H   0  0  0  0  0  0  0  0  0  0  0  0
    7.4580    2.1760   -2.2909 H   0  0  0  0  0  0  0  0  0  0  0  0
    4.3735   -3.8249   -1.1110 H   0  0  0  0  0  0  0  0  0  0  0  0
  1 13  1  0  0  0  0
  1 37  1  0  0  0  0
  2 17  2  0  0  0  0
  3 18  2  0  0  0  0
  4 20  1  0  0  0  0
  4 38  1  0  0  0  0
  5 21  1  0  0  0  0
  5 39  1  0  0  0  0
  6 26  1  0  0  0  0
  6 45  1  0  0  0  0
  7 26  2  0  0  0  0
  8 27  2  0  0  0  0
  9 10  2  0  0  0  0
  9 13  1  0  0  0  0
  9 17  1  0  0  0  0
 10 14  1  0  0  0  0
 10 18  1  0  0  0  0
 11 12  1  0  0  0  0
 11 14  2  0  0  0  0
 11 19  1  0  0  0  0
 12 13  2  0  0  0  0
 12 21  1  0  0  0  0
 14 30  1  0  0  0  0
 15 16  2  0  0  0  0
 15 17  1  0  0  0  0
 15 20  1  0  0  0  0
 16 18  1  0  0  0  0
 16 22  1  0  0  0  0
 19 26  1  0  0  0  0
 19 31  1  0  0  0  0
 19 32  1  0  0  0  0
 20 23  2  0  0  0  0
 21 25  2  3  0  0  0
 22 24  2  0  0  0  0
 22 33  1  0  0  0  0
 23 24  1  0  0  0  0
 23 34  1  0  0  0  0
 24 35  1  0  0  0  0
 25 27  1  0  0  0  0
 25 36  1  0  0  0  0
 27 28  1  0  0  0  0
 28 29  1  0  0  0  0
 28 40  1  0  0  0  0
 28 41  1  0  0  0  0
 29 42  1  0  0  0  0
 29 43  1  0  0  0  0
 29 44  1  0  0  0  0
M  END
> <PUBCHEM_COMPOUND_CID>
124641

> <PUBCHEM_CONFORMER_RMSD>
0.8

> <PUBCHEM_CONFORMER_DIVERSEORDER>
2
11
13
7
6
9
1
10
8
4
3
12
5

> <PUBCHEM_MMFF94_PARTIAL_CHARGES>
37
1 -0.53
10 0.09
11 -0.14
12 0.03
13 0.08
14 -0.15
15 0.09
16 0.09
17 0.4
18 0.4
19 0.2
2 -0.57
20 0.08
21 0.05
22 -0.15
23 -0.15
24 -0.15
25 -0.14
26 0.66
27 0.49
28 0.06
3 -0.57
30 0.15
33 0.15
34 0.15
35 0.15
36 0.15
37 0.45
38 0.45
39 0.45
4 -0.53
45 0.5
5 -0.53
6 -0.65
7 -0.57
8 -0.57
9 0.09

> <PUBCHEM_EFFECTIVE_ROTOR_COUNT>
5

> <PUBCHEM_PHARMACOPHORE_FEATURES>
13
1 1 donor
1 2 acceptor
1 29 hydrophobe
1 3 acceptor
1 4 donor
1 5 donor
1 6 acceptor
1 7 acceptor
1 8 acceptor
3 6 7 26 anion
6 15 16 20 22 23 24 rings
6 9 10 11 12 13 14 rings
6 9 10 15 16 17 18 rings

> <PUBCHEM_HEAVY_ATOM_COUNT>
29

> <PUBCHEM_ATOM_DEF_STEREO_COUNT>
0

> <PUBCHEM_ATOM_UDEF_STEREO_COUNT>
0

> <PUBCHEM_BOND_DEF_STEREO_COUNT>
0

> <PUBCHEM_BOND_UDEF_STEREO_COUNT>
1

> <PUBCHEM_ISOTOPIC_ATOM_COUNT>
0

> <PUBCHEM_COMPONENT_COUNT>
1

> <PUBCHEM_CACTVS_TAUTO_COUNT>
492

> <PUBCHEM_CONFORMER_ID>
0001E6E100000002

> <PUBCHEM_MMFF94_ENERGY>
85.4831

> <PUBCHEM_FEATURE_SELFOVERLAP>
66.072

> <PUBCHEM_SHAPE_FINGERPRINT>
10369192 42 18262519320613878244
10670039 82 18335421274899270620
10906281 52 18187654629754606649
11578080 2 17386828544104728463
11963148 33 18265605675049036803
12236239 1 17603860139289215040
12390115 104 18272094864417229361
12730499 353 18272372000896293426
12788726 201 17632300017302204553
131258 43 17058104203919570558
13140716 1 17977933915427906011
14790565 3 17908148681534680817
14840074 17 17168145680203606988
15081414 286 18411421704801924065
15183329 4 18335147496951808220
15196674 1 18339073797013258251
15961568 22 18040435494753021588
1601671 61 18408599292406907952
18335252 98 18334864956892176067
18608769 82 18263932201730069507
18681886 176 18265330793089140440
19611394 137 17533233078972794233
20554085 129 18201708597141840888
20691752 17 17531531957921524978
21267235 1 18339362943092034667
21279426 13 18267580209448476133
22393880 68 17702940469405509614
23366157 5 18114742621468446618
23559900 14 18198614428627470538
23569914 152 16696126179975875909
3004659 81 18335980866325000706
3298306 158 18271807964780168358
335352 9 18337667629453371813
3411729 13 18334009489421537674
34934 24 18411974793299417539
350125 39 18337666400264686410
4073 2 18113903762747144251
4280585 95 17909839726270997886
46194498 28 18269277867896794174
5104073 3 18339074892261633091
5265222 85 18050013478598670788
59755656 215 18412826910505180396
9709674 26 18411695500635656683

> <PUBCHEM_SHAPE_MULTIPOLES>
549.85
14.32
3.39
1.08
2.72
1.64
-0.03
-7.72
4.99
1.96
0.51
1.53
-0.09
-0.16

> <PUBCHEM_SHAPE_SELFOVERLAP>
1215.364

> <PUBCHEM_SHAPE_VOLUME>
292

> <PUBCHEM_COORDINATE_TYPE>
2
5
10

$$$$
