124665
  -OEChem-03292013323D

 42 43  0     1  0  0  0  0  0999 V2000
   -4.1745    3.3532   -0.7339 Br  0  0  0  0  0  0  0  0  0  0  0  0
    1.0529   -0.2805    0.9275 O   0  0  0  0  0  0  0  0  0  0  0  0
    3.6301   -1.2412   -0.4169 O   0  0  0  0  0  0  0  0  0  0  0  0
    0.8683    2.5020    0.6495 O   0  0  0  0  0  0  0  0  0  0  0  0
   -0.6249   -3.9677    0.2961 O   0  0  0  0  0  0  0  0  0  0  0  0
    4.8785    0.6899   -0.1932 O   0  0  0  0  0  0  0  0  0  0  0  0
   -4.7536   -1.9673    0.0552 O   0  0  0  0  0  0  0  0  0  0  0  0
   -0.0150    4.0197   -0.8517 O   0  0  0  0  0  0  0  0  0  0  0  0
   -0.7044   -1.6374    0.1887 N   0  0  0  0  0  0  0  0  0  0  0  0
   -2.6766   -2.9511    0.1758 N   0  0  0  0  0  0  0  0  0  0  0  0
    2.5266   -0.4897   -0.9179 C   0  0  2  0  0  0  0  0  0  0  0  0
    2.0173    0.4614    0.1561 C   0  0  1  0  0  0  0  0  0  0  0  0
    1.3485   -1.4076   -1.1488 C   0  0  0  0  0  0  0  0  0  0  0  0
    0.7211   -1.4914    0.2331 C   0  0  1  0  0  0  0  0  0  0  0  0
    1.3153    1.6843   -0.4199 C   0  0  0  0  0  0  0  0  0  0  0  0
   -1.5126   -0.5096    0.1096 C   0  0  0  0  0  0  0  0  0  0  0  0
   -1.2792   -2.9252    0.2256 C   0  0  0  0  0  0  0  0  0  0  0  0
   -2.8515   -0.5343    0.0623 C   0  0  0  0  0  0  0  0  0  0  0  0
    4.7518   -0.5228   -0.0905 C   0  0  0  0  0  0  0  0  0  0  0  0
   -3.5304   -1.8607    0.0965 C   0  0  0  0  0  0  0  0  0  0  0  0
    0.2125    3.6493    0.2922 C   0  0  0  0  0  0  0  0  0  0  0  0
    5.8232   -1.4383    0.4195 C   0  0  0  0  0  0  0  0  0  0  0  0
   -3.6319    0.6735   -0.0194 C   0  0  0  0  0  0  0  0  0  0  0  0
   -0.1992    4.4077    1.5175 C   0  0  0  0  0  0  0  0  0  0  0  0
   -3.1919    1.7840   -0.6130 C   0  0  0  0  0  0  0  0  0  0  0  0
    2.8402    0.0104   -1.8411 H   0  0  0  0  0  0  0  0  0  0  0  0
    2.7670    0.7890    0.8803 H   0  0  0  0  0  0  0  0  0  0  0  0
    1.6244   -2.3975   -1.5256 H   0  0  0  0  0  0  0  0  0  0  0  0
    0.6582   -0.9514   -1.8687 H   0  0  0  0  0  0  0  0  0  0  0  0
    1.1659   -2.3187    0.7989 H   0  0  0  0  0  0  0  0  0  0  0  0
    0.4700    1.4105   -1.0582 H   0  0  0  0  0  0  0  0  0  0  0  0
    2.0301    2.2554   -1.0251 H   0  0  0  0  0  0  0  0  0  0  0  0
   -0.9965    0.4368    0.1124 H   0  0  0  0  0  0  0  0  0  0  0  0
   -3.1127   -3.8687    0.2005 H   0  0  0  0  0  0  0  0  0  0  0  0
    5.4732   -1.9523    1.3181 H   0  0  0  0  0  0  0  0  0  0  0  0
    6.7101   -0.8518    0.6761 H   0  0  0  0  0  0  0  0  0  0  0  0
    6.0939   -2.1591   -0.3561 H   0  0  0  0  0  0  0  0  0  0  0  0
   -4.6208    0.6511    0.4309 H   0  0  0  0  0  0  0  0  0  0  0  0
   -0.7202    5.3222    1.2200 H   0  0  0  0  0  0  0  0  0  0  0  0
   -0.8800    3.7985    2.1173 H   0  0  0  0  0  0  0  0  0  0  0  0
    0.6851    4.6828    2.0975 H   0  0  0  0  0  0  0  0  0  0  0  0
   -2.2296    1.8722   -1.1013 H   0  0  0  0  0  0  0  0  0  0  0  0
  1 25  1  0  0  0  0
  2 12  1  0  0  0  0
  2 14  1  0  0  0  0
  3 11  1  0  0  0  0
  3 19  1  0  0  0  0
  4 15  1  0  0  0  0
  4 21  1  0  0  0  0
  5 17  2  0  0  0  0
  6 19  2  0  0  0  0
  7 20  2  0  0  0  0
  8 21  2  0  0  0  0
  9 14  1  0  0  0  0
  9 16  1  0  0  0  0
  9 17  1  0  0  0  0
 10 17  1  0  0  0  0
 10 20  1  0  0  0  0
 10 34  1  0  0  0  0
 11 12  1  0  0  0  0
 11 13  1  0  0  0  0
 11 26  1  0  0  0  0
 12 15  1  0  0  0  0
 12 27  1  0  0  0  0
 13 14  1  0  0  0  0
 13 28  1  0  0  0  0
 13 29  1  0  0  0  0
 14 30  1  0  0  0  0
 15 31  1  0  0  0  0
 15 32  1  0  0  0  0
 16 18  2  0  0  0  0
 16 33  1  0  0  0  0
 18 20  1  0  0  0  0
 18 23  1  0  0  0  0
 19 22  1  0  0  0  0
 21 24  1  0  0  0  0
 22 35  1  0  0  0  0
 22 36  1  0  0  0  0
 22 37  1  0  0  0  0
 23 25  2  3  0  0  0
 23 38  1  0  0  0  0
 24 39  1  0  0  0  0
 24 40  1  0  0  0  0
 24 41  1  0  0  0  0
 25 42  1  0  0  0  0
M  END
> <PUBCHEM_COMPOUND_CID>
124665

> <PUBCHEM_CONFORMER_RMSD>
0.8

> <PUBCHEM_CONFORMER_DIVERSEORDER>
1
181
101
160
89
65
172
164
115
41
75
94
169
57
128
88
143
162
16
135
131
126
6
112
67
64
175
19
18
147
80
46
33
132
127
153
102
70
9
58
82
138
48
60
90
83
144
149
146
159
104
142
114
69
168
24
125
152
180
141
111
54
93
84
92
106
107
157
170
151
30
145
140
29
178
110
53
174
124
10
148
63
11
150
134
43
21
35
52
91
56
66
86
121
87
79
44
122
136
27
163
161
72
17
28
12
133
7
15
78
98
109
59
8
61
129
49
76
85
177
23
36
116
62
55
96
37
45
25
108
13
26
51
14
155
71
167
123
77
5
42
97
103
32
3
113
154
158
39
120
100
173
156
81
179
137
95
2
34
4
119
139
105
176
68
38
73
47
166
99
22
118
165
50
171
40
117
20
74
130
31

> <PUBCHEM_MMFF94_PARTIAL_CHARGES>
28
1 -0.11
10 -0.49
11 0.28
12 0.28
14 0.58
15 0.28
16 -0.04
17 0.69
18 0.01
19 0.66
2 -0.56
20 0.62
21 0.66
22 0.06
23 -0.15
24 0.06
25 -0.04
3 -0.43
33 0.15
34 0.37
38 0.15
4 -0.43
42 0.15
5 -0.57
6 -0.57
7 -0.57
8 -0.57
9 -0.47

> <PUBCHEM_EFFECTIVE_ROTOR_COUNT>
8

> <PUBCHEM_PHARMACOPHORE_FEATURES>
9
1 1 hydrophobe
1 10 donor
1 2 acceptor
1 5 acceptor
1 6 acceptor
1 7 acceptor
1 8 acceptor
5 2 11 12 13 14 rings
6 9 10 16 17 18 20 rings

> <PUBCHEM_HEAVY_ATOM_COUNT>
25

> <PUBCHEM_ATOM_DEF_STEREO_COUNT>
3

> <PUBCHEM_ATOM_UDEF_STEREO_COUNT>
0

> <PUBCHEM_BOND_DEF_STEREO_COUNT>
0

> <PUBCHEM_BOND_UDEF_STEREO_COUNT>
1

> <PUBCHEM_ISOTOPIC_ATOM_COUNT>
0

> <PUBCHEM_COMPONENT_COUNT>
1

> <PUBCHEM_CACTVS_TAUTO_COUNT>
3

> <PUBCHEM_CONFORMER_ID>
0001E6F900000001

> <PUBCHEM_MMFF94_ENERGY>
56.4167

> <PUBCHEM_FEATURE_SELFOVERLAP>
45.673

> <PUBCHEM_SHAPE_FINGERPRINT>
10675989 125 17038091828650905037
1100329 8 18411141303335279505
11646440 116 18270967847512882713
12107183 9 17899968340645976074
12293681 4 18341891835992324532
12403259 226 18265894842485052503
12633257 1 18269291199580561027
12788726 201 18336270064037934210
12838862 33 18120917431225111965
13134695 92 18268428117370257878
13140716 1 18340202999233337777
138480 1 15672390522800912841
14251757 5 18336281088775747988
14466204 15 18409164381280520507
14790565 3 18122914122486599369
20600515 1 18338526226694900085
20775438 99 17192025015891735823
21033648 29 17560507495502518458
23366157 5 17684645815895386658
23402539 116 18341889667302936830
23419403 2 17703210914937762008
23557571 272 18341342132350982070
23559900 14 18125434469551521875
3084891 72 18339641118732041142
3178227 256 18336282201605034987
345986 75 17896296079315073866
350125 39 18409453617864118761
4409770 3 18189605047618695812
484989 97 18335133229355144621
7226269 152 18338514141188989674
9709674 26 18050566549694683891

> <PUBCHEM_SHAPE_MULTIPOLES>
469.38
9.03
5.5
0.93
7.48
3.01
0.02
-0.62
-0.97
-5.02
1.1
0.02
0.57
0.69

> <PUBCHEM_SHAPE_SELFOVERLAP>
963.457

> <PUBCHEM_SHAPE_VOLUME>
273.6

> <PUBCHEM_COORDINATE_TYPE>
2
5
10

$$$$
