124693
  -OEChem-03292013323D

 42 44  0     0  0  0  0  0  0999 V2000
    0.8283   -2.5384    0.5847 O   0  0  0  0  0  0  0  0  0  0  0  0
   -0.8744    2.3435   -0.6487 O   0  0  0  0  0  0  0  0  0  0  0  0
    5.4881   -0.2681    0.7146 O   0  0  0  0  0  0  0  0  0  0  0  0
   -5.0346    2.1711   -0.1010 O   0  0  0  0  0  0  0  0  0  0  0  0
   -1.8393   -2.1980    0.4103 N   0  0  0  0  0  0  0  0  0  0  0  0
    1.7929    2.0038   -0.4725 N   0  0  0  0  0  0  0  0  0  0  0  0
    2.7222   -0.6602    0.1995 N   0  0  0  0  0  0  0  0  0  0  0  0
   -2.7684    0.4658   -0.2623 N   0  0  0  0  0  0  0  0  0  0  0  0
   -1.6819   -3.3590   -0.4607 C   0  0  0  0  0  0  0  0  0  0  0  0
   -2.8781   -2.4749   -0.5771 C   0  0  0  0  0  0  0  0  0  0  0  0
    2.8312    2.2806    0.5155 C   0  0  0  0  0  0  0  0  0  0  0  0
    1.6349    3.1643    0.3987 C   0  0  0  0  0  0  0  0  0  0  0  0
   -1.0231   -1.1238    0.1803 C   0  0  0  0  0  0  0  0  0  0  0  0
    0.9768    0.9292   -0.2431 C   0  0  0  0  0  0  0  0  0  0  0  0
    1.4071   -0.3045    0.0681 C   0  0  0  0  0  0  0  0  0  0  0  0
   -1.4533    0.1100   -0.1311 C   0  0  0  0  0  0  0  0  0  0  0  0
    0.4341   -1.4083    0.2992 C   0  0  0  0  0  0  0  0  0  0  0  0
   -0.4803    1.2134   -0.3628 C   0  0  0  0  0  0  0  0  0  0  0  0
    3.6874   -0.5136   -0.8559 C   0  0  0  0  0  0  0  0  0  0  0  0
   -3.7186    0.3818    0.8133 C   0  0  0  0  0  0  0  0  0  0  0  0
    5.0403   -1.0317   -0.3984 C   0  0  0  0  0  0  0  0  0  0  0  0
   -5.0913    0.8169    0.3293 C   0  0  0  0  0  0  0  0  0  0  0  0
   -0.9374   -3.3006   -1.2420 H   0  0  0  0  0  0  0  0  0  0  0  0
   -1.7830   -4.2979    0.0631 H   0  0  0  0  0  0  0  0  0  0  0  0
   -2.9384   -1.8588   -1.4627 H   0  0  0  0  0  0  0  0  0  0  0  0
   -3.8066   -2.8107   -0.1393 H   0  0  0  0  0  0  0  0  0  0  0  0
    2.8909    1.6654    1.4017 H   0  0  0  0  0  0  0  0  0  0  0  0
    3.7593    2.6244    0.0830 H   0  0  0  0  0  0  0  0  0  0  0  0
    1.7356    4.1034   -0.1248 H   0  0  0  0  0  0  0  0  0  0  0  0
    0.8898    3.1056    1.1797 H   0  0  0  0  0  0  0  0  0  0  0  0
    2.8638   -1.4756    0.7921 H   0  0  0  0  0  0  0  0  0  0  0  0
   -2.9035    1.2562   -0.8876 H   0  0  0  0  0  0  0  0  0  0  0  0
    3.3654   -1.0857   -1.7340 H   0  0  0  0  0  0  0  0  0  0  0  0
    3.8015    0.5270   -1.1678 H   0  0  0  0  0  0  0  0  0  0  0  0
   -3.7935   -0.6276    1.2263 H   0  0  0  0  0  0  0  0  0  0  0  0
   -3.3948    1.0478    1.6224 H   0  0  0  0  0  0  0  0  0  0  0  0
    4.9930   -2.0843   -0.0999 H   0  0  0  0  0  0  0  0  0  0  0  0
    5.7796   -0.9342   -1.1989 H   0  0  0  0  0  0  0  0  0  0  0  0
   -5.4481    0.1971   -0.5002 H   0  0  0  0  0  0  0  0  0  0  0  0
   -5.8177    0.7528    1.1450 H   0  0  0  0  0  0  0  0  0  0  0  0
    4.8161   -0.3471    1.4130 H   0  0  0  0  0  0  0  0  0  0  0  0
   -4.6265    2.1861   -0.9826 H   0  0  0  0  0  0  0  0  0  0  0  0
  1 17  2  0  0  0  0
  2 18  2  0  0  0  0
  3 21  1  0  0  0  0
  3 41  1  0  0  0  0
  4 22  1  0  0  0  0
  4 42  1  0  0  0  0
  5  9  1  0  0  0  0
  5 10  1  0  0  0  0
  5 13  1  0  0  0  0
  6 11  1  0  0  0  0
  6 12  1  0  0  0  0
  6 14  1  0  0  0  0
  7 15  1  0  0  0  0
  7 19  1  0  0  0  0
  7 31  1  0  0  0  0
  8 16  1  0  0  0  0
  8 20  1  0  0  0  0
  8 32  1  0  0  0  0
  9 10  1  0  0  0  0
  9 23  1  0  0  0  0
  9 24  1  0  0  0  0
 10 25  1  0  0  0  0
 10 26  1  0  0  0  0
 11 12  1  0  0  0  0
 11 27  1  0  0  0  0
 11 28  1  0  0  0  0
 12 29  1  0  0  0  0
 12 30  1  0  0  0  0
 13 16  2  0  0  0  0
 13 17  1  0  0  0  0
 14 15  2  0  0  0  0
 14 18  1  0  0  0  0
 15 17  1  0  0  0  0
 16 18  1  0  0  0  0
 19 21  1  0  0  0  0
 19 33  1  0  0  0  0
 19 34  1  0  0  0  0
 20 22  1  0  0  0  0
 20 35  1  0  0  0  0
 20 36  1  0  0  0  0
 21 37  1  0  0  0  0
 21 38  1  0  0  0  0
 22 39  1  0  0  0  0
 22 40  1  0  0  0  0
M  END
> <PUBCHEM_COMPOUND_CID>
124693

> <PUBCHEM_CONFORMER_RMSD>
1

> <PUBCHEM_CONFORMER_DIVERSEORDER>
1
10
8
7
6
4
5
11
2
3
9

> <PUBCHEM_MMFF94_PARTIAL_CHARGES>
34
1 -0.57
10 -0.03
11 -0.03
12 -0.03
13 0.11
14 0.11
15 0.11
16 0.11
17 0.54
18 0.54
19 0.37
2 -0.57
20 0.37
21 0.28
22 0.28
23 0.1
24 0.1
25 0.1
26 0.1
27 0.1
28 0.1
29 0.1
3 -0.68
30 0.1
31 0.4
32 0.4
4 -0.68
41 0.4
42 0.4
5 -0.44
6 -0.44
7 -0.87
8 -0.87
9 -0.03

> <PUBCHEM_EFFECTIVE_ROTOR_COUNT>
9.2

> <PUBCHEM_PHARMACOPHORE_FEATURES>
13
1 1 acceptor
1 2 acceptor
1 3 acceptor
1 3 donor
1 4 acceptor
1 4 donor
1 5 cation
1 6 cation
1 7 cation
1 7 donor
1 8 cation
1 8 donor
6 13 14 15 16 17 18 rings

> <PUBCHEM_HEAVY_ATOM_COUNT>
22

> <PUBCHEM_ATOM_DEF_STEREO_COUNT>
0

> <PUBCHEM_ATOM_UDEF_STEREO_COUNT>
0

> <PUBCHEM_BOND_DEF_STEREO_COUNT>
0

> <PUBCHEM_BOND_UDEF_STEREO_COUNT>
0

> <PUBCHEM_ISOTOPIC_ATOM_COUNT>
0

> <PUBCHEM_COMPONENT_COUNT>
1

> <PUBCHEM_CACTVS_TAUTO_COUNT>
6

> <PUBCHEM_CONFORMER_ID>
0001E71500000001

> <PUBCHEM_MMFF94_ENERGY>
106.9858

> <PUBCHEM_FEATURE_SELFOVERLAP>
65.983

> <PUBCHEM_SHAPE_FINGERPRINT>
10906281 52 18200614513545884300
10967382 1 18337673014166006471
1100329 8 18411138047522618304
11578080 2 17344897727497113923
12011746 2 18336831875102198885
12035758 1 18411419496998518336
12553582 1 18336816507756816298
12633257 1 18410853261442568352
13140716 1 18336546122137530010
14178342 30 18121772004935584937
14790565 3 18337682892749874436
15099037 51 18410578353238751365
15196674 1 18337955700339286348
15442244 35 18339363088086648998
15475509 8 17771090218613572676
15536298 74 18269557311342942874
1601671 61 18263366880453339129
16945 1 18336814312759333855
17492 89 18051693536070367158
17804303 29 18409454699747439060
19141452 34 18413389843247129398
19591789 44 18122346774522648286
20028762 73 18201719574709549335
20691752 17 17458893959631445080
21267235 1 18337680805759460011
21501502 16 18266743673961836044
2334 1 18120091938035105543
23366157 5 17970346147346818628
23402539 116 18343297033385357703
23558518 356 18118405287224860747
23559900 14 18343302587606168148
2748010 2 18191302878091837278
3178227 256 18263941976959311537
335352 9 18410575063251559404
34934 24 18409446951727215994
350125 39 18338523053119775187
5104073 3 18339081613204871768
59554788 170 18334860502214778077
59755656 215 18195535796755617206
7164475 11 18053942033338570919
7832392 63 18410574019611526787
9709674 26 18049441744935767554
9981440 41 17402326474295010024

> <PUBCHEM_SHAPE_MULTIPOLES>
409.35
8.84
3.57
0.79
1.15
0.2
0
-1.13
-0.52
-1.1
0.1
0.11
0.03
0.02

> <PUBCHEM_SHAPE_SELFOVERLAP>
859.171

> <PUBCHEM_SHAPE_VOLUME>
230.6

> <PUBCHEM_COORDINATE_TYPE>
2
5
10

$$$$
