124623
  -OEChem-03292013323D

 63 64  0     1  0  0  0  0  0999 V2000
   -3.5366   -0.8076    0.6386 O   0  0  0  0  0  0  0  0  0  0  0  0
   -0.9671   -3.0532    0.9067 O   0  0  0  0  0  0  0  0  0  0  0  0
   -3.0139   -3.8249    2.6282 O   0  0  0  0  0  0  0  0  0  0  0  0
   -1.7342    2.9046   -1.7987 O   0  0  0  0  0  0  0  0  0  0  0  0
   -0.5147    4.7220   -0.2723 O   0  0  0  0  0  0  0  0  0  0  0  0
    5.5066    0.2617    0.4413 O   0  0  0  0  0  0  0  0  0  0  0  0
    4.2014   -0.3920   -2.4129 O   0  0  0  0  0  0  0  0  0  0  0  0
    5.0290    1.9967   -1.0292 O   0  0  0  0  0  0  0  0  0  0  0  0
    2.9691   -0.5411   -0.3906 N   0  0  0  0  0  0  0  0  0  0  0  0
    1.0889   -0.7425    2.6655 N   0  0  0  0  0  0  0  0  0  0  0  0
   -2.6339    1.0427   -0.6025 C   0  0  0  0  0  0  0  0  0  0  0  0
   -2.8356    0.3020   -1.8855 C   0  0  0  0  0  0  0  0  0  0  0  0
   -2.9959    0.4501    0.6073 C   0  0  0  0  0  0  0  0  0  0  0  0
   -4.2154    0.5729   -2.4979 C   0  0  0  0  0  0  0  0  0  0  0  0
   -3.3035   -3.0683    1.4504 C   0  0  1  0  0  0  0  0  0  0  0  0
   -2.0857    2.3253   -0.6143 C   0  0  0  0  0  0  0  0  0  0  0  0
   -3.2809   -1.5855    1.8034 C   0  0  0  0  0  0  0  0  0  0  0  0
   -1.8994    3.0152    0.5836 C   0  0  0  0  0  0  0  0  0  0  0  0
   -2.8096    1.1401    1.8052 C   0  0  0  0  0  0  0  0  0  0  0  0
   -2.2510   -3.4075    0.4032 C   0  0  0  0  0  0  0  0  0  0  0  0
   -2.2613    2.4226    1.7934 C   0  0  0  0  0  0  0  0  0  0  0  0
   -4.4009   -0.1570   -3.8187 C   0  0  0  0  0  0  0  0  0  0  0  0
   -1.3300    4.3557    0.5959 C   0  0  0  0  0  0  0  0  0  0  0  0
   -0.0200   -2.6989   -0.0168 C   0  0  0  0  0  0  0  0  0  0  0  0
    0.9916   -1.7900    0.2932 C   0  0  0  0  0  0  0  0  0  0  0  0
   -1.7250    5.3464    1.6841 C   0  0  0  0  0  0  0  0  0  0  0  0
    1.9422   -1.4494   -0.6691 C   0  0  0  0  0  0  0  0  0  0  0  0
   -0.0807   -3.2676   -1.2890 C   0  0  0  0  0  0  0  0  0  0  0  0
    1.8814   -2.0180   -1.9413 C   0  0  0  0  0  0  0  0  0  0  0  0
    0.8700   -2.9272   -2.2514 C   0  0  0  0  0  0  0  0  0  0  0  0
    1.0454   -1.2108    1.6046 C   0  0  0  0  0  0  0  0  0  0  0  0
    3.9744   -0.1149   -1.2472 C   0  0  0  0  0  0  0  0  0  0  0  0
    4.9008    0.8681   -0.5971 C   0  0  0  0  0  0  0  0  0  0  0  0
    6.4500    1.0708    1.1492 C   0  0  0  0  0  0  0  0  0  0  0  0
    7.0447    0.2594    2.2805 C   0  0  0  0  0  0  0  0  0  0  0  0
   -2.0382    0.5272   -2.6044 H   0  0  0  0  0  0  0  0  0  0  0  0
   -2.7262   -0.7763   -1.7138 H   0  0  0  0  0  0  0  0  0  0  0  0
   -4.3551    1.6478   -2.6635 H   0  0  0  0  0  0  0  0  0  0  0  0
   -5.0024    0.2578   -1.8018 H   0  0  0  0  0  0  0  0  0  0  0  0
   -4.2928   -3.3608    1.0828 H   0  0  0  0  0  0  0  0  0  0  0  0
   -4.0594   -1.3847    2.5502 H   0  0  0  0  0  0  0  0  0  0  0  0
   -2.3134   -1.3445    2.2644 H   0  0  0  0  0  0  0  0  0  0  0  0
   -3.1023    0.7310    2.7674 H   0  0  0  0  0  0  0  0  0  0  0  0
   -2.4999   -2.8809   -0.5257 H   0  0  0  0  0  0  0  0  0  0  0  0
   -2.2574   -4.4889    0.2211 H   0  0  0  0  0  0  0  0  0  0  0  0
   -2.1215    2.9318    2.7429 H   0  0  0  0  0  0  0  0  0  0  0  0
   -5.3935    0.0498   -4.2305 H   0  0  0  0  0  0  0  0  0  0  0  0
   -4.3069   -1.2394   -3.6844 H   0  0  0  0  0  0  0  0  0  0  0  0
   -3.6546    0.1649   -4.5520 H   0  0  0  0  0  0  0  0  0  0  0  0
   -2.1172   -3.5885    2.9218 H   0  0  0  0  0  0  0  0  0  0  0  0
   -2.2275    2.5131   -2.5358 H   0  0  0  0  0  0  0  0  0  0  0  0
   -2.7642    5.1958    1.9887 H   0  0  0  0  0  0  0  0  0  0  0  0
   -1.6443    6.3628    1.2868 H   0  0  0  0  0  0  0  0  0  0  0  0
   -1.0561    5.2361    2.5410 H   0  0  0  0  0  0  0  0  0  0  0  0
   -0.8281   -4.0044   -1.5673 H   0  0  0  0  0  0  0  0  0  0  0  0
    2.5793   -1.8100   -2.7398 H   0  0  0  0  0  0  0  0  0  0  0  0
    0.8265   -3.3763   -3.2394 H   0  0  0  0  0  0  0  0  0  0  0  0
    2.9829   -0.1502    0.5481 H   0  0  0  0  0  0  0  0  0  0  0  0
    5.9431    1.9541    1.5536 H   0  0  0  0  0  0  0  0  0  0  0  0
    7.2442    1.3899    0.4648 H   0  0  0  0  0  0  0  0  0  0  0  0
    7.7722    0.8494    2.8447 H   0  0  0  0  0  0  0  0  0  0  0  0
    7.5405   -0.6367    1.8928 H   0  0  0  0  0  0  0  0  0  0  0  0
    6.2600   -0.0820    2.9636 H   0  0  0  0  0  0  0  0  0  0  0  0
  1 13  1  0  0  0  0
  1 17  1  0  0  0  0
  2 20  1  0  0  0  0
  2 24  1  0  0  0  0
  3 15  1  0  0  0  0
  3 50  1  0  0  0  0
  4 16  1  0  0  0  0
  4 51  1  0  0  0  0
  5 23  2  0  0  0  0
  6 33  1  0  0  0  0
  6 34  1  0  0  0  0
  7 32  2  0  0  0  0
  8 33  2  0  0  0  0
  9 27  1  0  0  0  0
  9 32  1  0  0  0  0
  9 58  1  0  0  0  0
 10 31  3  0  0  0  0
 11 12  1  0  0  0  0
 11 13  2  0  0  0  0
 11 16  1  0  0  0  0
 12 14  1  0  0  0  0
 12 36  1  0  0  0  0
 12 37  1  0  0  0  0
 13 19  1  0  0  0  0
 14 22  1  0  0  0  0
 14 38  1  0  0  0  0
 14 39  1  0  0  0  0
 15 17  1  0  0  0  0
 15 20  1  0  0  0  0
 15 40  1  0  0  0  0
 16 18  2  0  0  0  0
 17 41  1  0  0  0  0
 17 42  1  0  0  0  0
 18 21  1  0  0  0  0
 18 23  1  0  0  0  0
 19 21  2  0  0  0  0
 19 43  1  0  0  0  0
 20 44  1  0  0  0  0
 20 45  1  0  0  0  0
 21 46  1  0  0  0  0
 22 47  1  0  0  0  0
 22 48  1  0  0  0  0
 22 49  1  0  0  0  0
 23 26  1  0  0  0  0
 24 25  1  0  0  0  0
 24 28  2  0  0  0  0
 25 27  2  0  0  0  0
 25 31  1  0  0  0  0
 26 52  1  0  0  0  0
 26 53  1  0  0  0  0
 26 54  1  0  0  0  0
 27 29  1  0  0  0  0
 28 30  1  0  0  0  0
 28 55  1  0  0  0  0
 29 30  2  0  0  0  0
 29 56  1  0  0  0  0
 30 57  1  0  0  0  0
 32 33  1  0  0  0  0
 34 35  1  0  0  0  0
 34 59  1  0  0  0  0
 34 60  1  0  0  0  0
 35 61  1  0  0  0  0
 35 62  1  0  0  0  0
 35 63  1  0  0  0  0
M  END
> <PUBCHEM_COMPOUND_CID>
124623

> <PUBCHEM_CONFORMER_RMSD>
1.2

> <PUBCHEM_CONFORMER_DIVERSEORDER>
1
147
91
6
68
146
28
44
148
52
94
35
119
92
117
110
32
10
49
142
2
48
111
74
97
70
121
71
19
83
73
38
79
149
112
77
102
64
4
100
39
93
29
36
57
116
72
101
31
65
42
27
88
139
33
109
105
53
16
87
15
150
138
113
132
130
56
128
66
58
103
141
131
62
76
98
96
25
40
17
63
124
11
133
144
78
89
135
34
106
86
137
143
127
41
30
26
75
123
134
18
22
67
108
85
145
13
7
46
37
129
3
69
50
9
104
59
115
120
95
24
51
61
43
60
114
8
136
126
81
47
23
90
84
54
21
14
82
99
20
80
107
55
122
140
118
125
45
12
5

> <PUBCHEM_MMFF94_PARTIAL_CHARGES>
40
1 -0.36
10 -0.56
11 -0.14
12 0.14
13 0.08
15 0.28
16 0.08
17 0.28
18 0.09
19 -0.15
2 -0.36
20 0.28
21 -0.15
23 0.42
24 0.08
25 0.07
26 0.06
27 0.12
28 -0.15
29 -0.15
3 -0.68
30 -0.15
31 0.48
32 0.63
33 0.72
34 0.28
4 -0.53
43 0.15
46 0.15
5 -0.57
50 0.4
51 0.45
55 0.15
56 0.15
57 0.15
58 0.37
6 -0.43
7 -0.57
8 -0.57
9 -0.55

> <PUBCHEM_EFFECTIVE_ROTOR_COUNT>
14

> <PUBCHEM_PHARMACOPHORE_FEATURES>
13
1 1 acceptor
1 10 acceptor
1 2 acceptor
1 22 hydrophobe
1 3 acceptor
1 3 donor
1 4 donor
1 5 acceptor
1 7 acceptor
1 8 acceptor
1 9 donor
6 11 13 16 18 19 21 rings
6 24 25 27 28 29 30 rings

> <PUBCHEM_HEAVY_ATOM_COUNT>
35

> <PUBCHEM_ATOM_DEF_STEREO_COUNT>
0

> <PUBCHEM_ATOM_UDEF_STEREO_COUNT>
1

> <PUBCHEM_BOND_DEF_STEREO_COUNT>
0

> <PUBCHEM_BOND_UDEF_STEREO_COUNT>
0

> <PUBCHEM_ISOTOPIC_ATOM_COUNT>
0

> <PUBCHEM_COMPONENT_COUNT>
1

> <PUBCHEM_CACTVS_TAUTO_COUNT>
18

> <PUBCHEM_CONFORMER_ID>
0001E6CF00000001

> <PUBCHEM_MMFF94_ENERGY>
100.3695

> <PUBCHEM_FEATURE_SELFOVERLAP>
65.983

> <PUBCHEM_SHAPE_FINGERPRINT>
10165383 225 16241297755471899279
10256941 240 17970054553089964716
10838868 49 18337933672217235386
12156800 1 16013490349261004479
12655364 131 17535711193731128250
12788726 201 18267574724796825069
14114207 22 16899607815209116303
14415361 192 17604428634456852541
151778 21 16893453277350103097
20764821 26 17912641599467330620
21859007 373 18201731622435251054
22956985 138 16529212038451431067
25019877 29 16557083357135724959
469060 322 18058448883992804367
508706 21 18341059527798066976
57527585 21 18342746178386974381
6287921 2 17977139822818699764

> <PUBCHEM_SHAPE_MULTIPOLES>
663.37
10.93
6.09
3.11
22.94
5.02
-0.99
3.79
0.19
-5.47
2.07
-2.17
-1.3
1.57

> <PUBCHEM_SHAPE_SELFOVERLAP>
1389.619

> <PUBCHEM_SHAPE_VOLUME>
371.1

> <PUBCHEM_COORDINATE_TYPE>
2
5
10

$$$$
