124643
  -OEChem-03292013323D

 46 49  0     0  0  0  0  0  0999 V2000
   -0.9025    2.1956   -0.1325 O   0  0  0  0  0  0  0  0  0  0  0  0
    0.5586   -3.1261    0.1695 O   0  0  0  0  0  0  0  0  0  0  0  0
   -1.8992   -3.7990    0.2227 O   0  0  0  0  0  0  0  0  0  0  0  0
    1.5339    2.7743   -0.1828 O   0  0  0  0  0  0  0  0  0  0  0  0
    2.9355   -2.3715    0.1082 O   0  0  0  0  0  0  0  0  0  0  0  0
   -3.5836    2.1279    1.1617 O   0  0  0  0  0  0  0  0  0  0  0  0
    5.4166   -1.7743    0.0700 O   0  0  0  0  0  0  0  0  0  0  0  0
   -3.6649    2.1790   -1.1383 O   0  0  0  0  0  0  0  0  0  0  0  0
   -1.5556   -0.1156    0.0055 C   0  0  0  0  0  0  0  0  0  0  0  0
   -1.1771   -1.4757    0.0824 C   0  0  0  0  0  0  0  0  0  0  0  0
    0.7963    0.5251   -0.0461 C   0  0  0  0  0  0  0  0  0  0  0  0
    1.1693   -0.8153    0.0300 C   0  0  0  0  0  0  0  0  0  0  0  0
   -0.5602    0.8736   -0.0585 C   0  0  0  0  0  0  0  0  0  0  0  0
   -2.9201    0.2177   -0.0052 C   0  0  0  0  0  0  0  0  0  0  0  0
    0.1869   -1.8117    0.0936 C   0  0  0  0  0  0  0  0  0  0  0  0
   -3.8974   -0.7758    0.0593 C   0  0  0  0  0  0  0  0  0  0  0  0
   -2.1743   -2.4630    0.1466 C   0  0  0  0  0  0  0  0  0  0  0  0
    1.8226    1.5862   -0.1137 C   0  0  0  0  0  0  0  0  0  0  0  0
    2.5968   -1.1968    0.0453 C   0  0  0  0  0  0  0  0  0  0  0  0
    3.6234   -0.1369   -0.0190 C   0  0  0  0  0  0  0  0  0  0  0  0
    3.2498    1.2062   -0.0955 C   0  0  0  0  0  0  0  0  0  0  0  0
   -3.5249   -2.1142    0.1352 C   0  0  0  0  0  0  0  0  0  0  0  0
   -5.3568   -0.4477    0.0495 C   0  0  0  0  0  0  0  0  0  0  0  0
    4.9794   -0.4848   -0.0022 C   0  0  0  0  0  0  0  0  0  0  0  0
   -3.4217    1.5910   -0.0825 C   0  0  0  0  0  0  0  0  0  0  0  0
    4.2321    2.2019   -0.1559 C   0  0  0  0  0  0  0  0  0  0  0  0
   -5.9279   -0.4037   -1.3637 C   0  0  0  0  0  0  0  0  0  0  0  0
    5.9553    0.5105   -0.0624 C   0  0  0  0  0  0  0  0  0  0  0  0
    5.5824    1.8510   -0.1391 C   0  0  0  0  0  0  0  0  0  0  0  0
   -4.0725    3.4723    1.2182 C   0  0  0  0  0  0  0  0  0  0  0  0
   -4.2896   -2.8864    0.1826 H   0  0  0  0  0  0  0  0  0  0  0  0
   -5.9044   -1.2071    0.6238 H   0  0  0  0  0  0  0  0  0  0  0  0
   -5.5735    0.4909    0.5704 H   0  0  0  0  0  0  0  0  0  0  0  0
    3.9700    3.2547   -0.2162 H   0  0  0  0  0  0  0  0  0  0  0  0
   -5.4392    0.3589   -1.9772 H   0  0  0  0  0  0  0  0  0  0  0  0
   -6.9980   -0.1751   -1.3297 H   0  0  0  0  0  0  0  0  0  0  0  0
   -5.8055   -1.3676   -1.8696 H   0  0  0  0  0  0  0  0  0  0  0  0
   -0.1884    2.7539    0.2115 H   0  0  0  0  0  0  0  0  0  0  0  0
   -0.1558   -3.6671    0.5382 H   0  0  0  0  0  0  0  0  0  0  0  0
    7.0101    0.2486   -0.0502 H   0  0  0  0  0  0  0  0  0  0  0  0
    6.3440    2.6240   -0.1860 H   0  0  0  0  0  0  0  0  0  0  0  0
   -2.7279   -4.3062    0.2581 H   0  0  0  0  0  0  0  0  0  0  0  0
    4.6698   -2.3897    0.1110 H   0  0  0  0  0  0  0  0  0  0  0  0
   -4.1503    3.7621    2.2694 H   0  0  0  0  0  0  0  0  0  0  0  0
   -5.0648    3.5321    0.7615 H   0  0  0  0  0  0  0  0  0  0  0  0
   -3.3742    4.1489    0.7167 H   0  0  0  0  0  0  0  0  0  0  0  0
  1 13  1  0  0  0  0
  1 38  1  0  0  0  0
  2 15  1  0  0  0  0
  2 39  1  0  0  0  0
  3 17  1  0  0  0  0
  3 42  1  0  0  0  0
  4 18  2  0  0  0  0
  5 19  2  0  0  0  0
  6 25  1  0  0  0  0
  6 30  1  0  0  0  0
  7 24  1  0  0  0  0
  7 43  1  0  0  0  0
  8 25  2  0  0  0  0
  9 10  1  0  0  0  0
  9 13  1  0  0  0  0
  9 14  2  0  0  0  0
 10 15  1  0  0  0  0
 10 17  2  0  0  0  0
 11 12  1  0  0  0  0
 11 13  2  0  0  0  0
 11 18  1  0  0  0  0
 12 15  2  0  0  0  0
 12 19  1  0  0  0  0
 14 16  1  0  0  0  0
 14 25  1  0  0  0  0
 16 22  2  0  0  0  0
 16 23  1  0  0  0  0
 17 22  1  0  0  0  0
 18 21  1  0  0  0  0
 19 20  1  0  0  0  0
 20 21  2  0  0  0  0
 20 24  1  0  0  0  0
 21 26  1  0  0  0  0
 22 31  1  0  0  0  0
 23 27  1  0  0  0  0
 23 32  1  0  0  0  0
 23 33  1  0  0  0  0
 24 28  2  0  0  0  0
 26 29  2  0  0  0  0
 26 34  1  0  0  0  0
 27 35  1  0  0  0  0
 27 36  1  0  0  0  0
 27 37  1  0  0  0  0
 28 29  1  0  0  0  0
 28 40  1  0  0  0  0
 29 41  1  0  0  0  0
 30 44  1  0  0  0  0
 30 45  1  0  0  0  0
 30 46  1  0  0  0  0
M  END
> <PUBCHEM_COMPOUND_CID>
124643

> <PUBCHEM_CONFORMER_RMSD>
0.8

> <PUBCHEM_CONFORMER_DIVERSEORDER>
1
2

> <PUBCHEM_MMFF94_PARTIAL_CHARGES>
35
1 -0.53
11 0.09
12 0.09
13 0.08
14 0.09
15 0.08
16 -0.14
17 0.08
18 0.4
19 0.4
2 -0.53
20 0.09
21 0.09
22 -0.15
23 0.14
24 0.08
25 0.63
26 -0.15
28 -0.15
29 -0.15
3 -0.53
30 0.28
31 0.15
34 0.15
38 0.45
39 0.45
4 -0.57
40 0.15
41 0.15
42 0.45
43 0.45
5 -0.57
6 -0.43
7 -0.53
8 -0.57

> <PUBCHEM_EFFECTIVE_ROTOR_COUNT>
3

> <PUBCHEM_PHARMACOPHORE_FEATURES>
12
1 1 donor
1 2 donor
1 27 hydrophobe
1 3 donor
1 4 acceptor
1 5 acceptor
1 7 donor
1 8 acceptor
6 11 12 18 19 20 21 rings
6 20 21 24 26 28 29 rings
6 9 10 11 12 13 15 rings
6 9 10 14 16 17 22 rings

> <PUBCHEM_HEAVY_ATOM_COUNT>
30

> <PUBCHEM_ATOM_DEF_STEREO_COUNT>
0

> <PUBCHEM_ATOM_UDEF_STEREO_COUNT>
0

> <PUBCHEM_BOND_DEF_STEREO_COUNT>
0

> <PUBCHEM_BOND_UDEF_STEREO_COUNT>
0

> <PUBCHEM_ISOTOPIC_ATOM_COUNT>
0

> <PUBCHEM_COMPONENT_COUNT>
1

> <PUBCHEM_CACTVS_TAUTO_COUNT>
996

> <PUBCHEM_CONFORMER_ID>
0001E6E300000001

> <PUBCHEM_MMFF94_ENERGY>
114.7397

> <PUBCHEM_FEATURE_SELFOVERLAP>
60.979

> <PUBCHEM_SHAPE_FINGERPRINT>
10411042 1 17545322337885477091
10616163 171 18338519771458883806
10675989 125 17398377638545698357
10906281 52 18341910596757665399
10967382 1 18409730659749063523
1100329 8 18122909724518378338
11135609 187 18336817612196745653
11513181 2 17987520316682027751
11607047 403 12691069657697707069
12107183 9 18121780522098144594
12390115 104 18271260325958259721
12403260 363 18411980278009376429
12788726 201 17846224336506886505
12838862 33 18265313144646099268
13140716 1 18193002508895040259
13402501 40 18408884070160435943
14341114 176 18336551602573841185
14790565 3 18338805489847640624
15042514 8 18120378911161435555
15131766 46 16155971667579540100
15183329 4 18407477756793155150
15196674 1 18410012135268852780
1813 80 16950562203465250500
19591789 44 18337390431124637214
20775438 99 16401925937492077463
21236236 1 18412826871956151473
21267235 1 18409738369294565594
21279426 13 18339081480530396572
21421861 104 17896877652367710962
21857420 4 13065295642744687965
23559900 14 18268141148714183305
283562 15 18410854348807954603
3004659 81 18260266348632491710
335352 9 18409448111663538534
3380486 145 18048895266793986619
338550 245 18261115235522032636
34934 24 18336541719923230026
350125 39 18410295851997127841
3633792 109 18335972096381519357
3680242 22 18189613852918772890
4073 2 18041564762515116930
4214541 1 18410012152085017428
460360 51 18265638553154413114
484989 97 18047183327458915159
5104073 3 18408602552835530680
59755656 215 18409164437083076726
9709674 26 18412832382399367878

> <PUBCHEM_SHAPE_MULTIPOLES>
570.43
12.62
3.71
0.79
5.43
0.14
0.03
-2.91
1.21
-1.91
-0.68
-0.84
-0.32
-0.73

> <PUBCHEM_SHAPE_SELFOVERLAP>
1300.257

> <PUBCHEM_SHAPE_VOLUME>
295.1

> <PUBCHEM_COORDINATE_TYPE>
2
5
10

$$$$
