124619
  -OEChem-03292013323D

 28 28  0     0  0  0  0  0  0999 V2000
   -2.8029    0.5049   -0.3826 O   0  0  0  0  0  0  0  0  0  0  0  0
   -0.2386    1.8478    1.3629 O   0  0  0  0  0  0  0  0  0  0  0  0
    2.2721   -0.6325    1.5855 O   0  0  0  0  0  0  0  0  0  0  0  0
    0.1868    2.0966   -0.9042 N   0  0  0  0  0  0  0  0  0  0  0  0
    2.7102   -0.3706   -0.6777 N   0  0  0  0  0  0  0  0  0  0  0  0
    0.5170    3.4317   -0.7728 N   0  0  0  0  0  0  0  0  0  0  0  0
    4.0344   -0.0418   -0.4606 N   0  0  0  0  0  0  0  0  0  0  0  0
   -0.4998   -0.0477    0.0078 C   0  0  0  0  0  0  0  0  0  0  0  0
    0.5006   -1.0157    0.0982 C   0  0  0  0  0  0  0  0  0  0  0  0
   -1.8096   -0.4240   -0.2891 C   0  0  0  0  0  0  0  0  0  0  0  0
    0.1910   -2.3600   -0.1082 C   0  0  0  0  0  0  0  0  0  0  0  0
   -2.1193   -1.7683   -0.4952 C   0  0  0  0  0  0  0  0  0  0  0  0
   -1.1190   -2.7363   -0.4048 C   0  0  0  0  0  0  0  0  0  0  0  0
   -0.1852    1.3613    0.2213 C   0  0  0  0  0  0  0  0  0  0  0  0
    1.8791   -0.6570    0.4065 C   0  0  0  0  0  0  0  0  0  0  0  0
   -3.5169    0.8116    0.8129 C   0  0  0  0  0  0  0  0  0  0  0  0
    0.9613   -3.1240   -0.0404 H   0  0  0  0  0  0  0  0  0  0  0  0
   -3.1373   -2.0692   -0.7276 H   0  0  0  0  0  0  0  0  0  0  0  0
   -1.3601   -3.7830   -0.5656 H   0  0  0  0  0  0  0  0  0  0  0  0
    0.2331    1.6813   -1.8296 H   0  0  0  0  0  0  0  0  0  0  0  0
    2.3759   -0.3995   -1.6361 H   0  0  0  0  0  0  0  0  0  0  0  0
   -2.8386    1.1134    1.6163 H   0  0  0  0  0  0  0  0  0  0  0  0
   -4.1086   -0.0527    1.1308 H   0  0  0  0  0  0  0  0  0  0  0  0
   -4.1975    1.6409    0.6014 H   0  0  0  0  0  0  0  0  0  0  0  0
    1.4648    3.5377   -1.1320 H   0  0  0  0  0  0  0  0  0  0  0  0
   -0.0855    3.9488   -1.4118 H   0  0  0  0  0  0  0  0  0  0  0  0
    4.5940   -0.6942   -1.0083 H   0  0  0  0  0  0  0  0  0  0  0  0
    4.1828    0.8758   -0.8785 H   0  0  0  0  0  0  0  0  0  0  0  0
  1 10  1  0  0  0  0
  1 16  1  0  0  0  0
  2 14  2  0  0  0  0
  3 15  2  0  0  0  0
  4  6  1  0  0  0  0
  4 14  1  0  0  0  0
  4 20  1  0  0  0  0
  5  7  1  0  0  0  0
  5 15  1  0  0  0  0
  5 21  1  0  0  0  0
  6 25  1  0  0  0  0
  6 26  1  0  0  0  0
  7 27  1  0  0  0  0
  7 28  1  0  0  0  0
  8  9  2  0  0  0  0
  8 10  1  0  0  0  0
  8 14  1  0  0  0  0
  9 11  1  0  0  0  0
  9 15  1  0  0  0  0
 10 12  2  0  0  0  0
 11 13  2  0  0  0  0
 11 17  1  0  0  0  0
 12 13  1  0  0  0  0
 12 18  1  0  0  0  0
 13 19  1  0  0  0  0
 16 22  1  0  0  0  0
 16 23  1  0  0  0  0
 16 24  1  0  0  0  0
M  END
> <PUBCHEM_COMPOUND_CID>
124619

> <PUBCHEM_CONFORMER_RMSD>
0.6

> <PUBCHEM_CONFORMER_DIVERSEORDER>
3
15
17
19
20
2
14
22
12
8
13
7
10
11
21
9
16
4
18
1
6
5

> <PUBCHEM_MMFF94_PARTIAL_CHARGES>
25
1 -0.36
10 0.08
11 -0.15
12 -0.15
13 -0.15
14 0.54
15 0.54
16 0.28
17 0.15
18 0.15
19 0.15
2 -0.57
20 0.37
21 0.37
25 0.36
26 0.36
27 0.36
28 0.36
3 -0.57
4 -0.42
5 -0.42
6 -0.73
7 -0.73
8 0.09
9 0.09

> <PUBCHEM_EFFECTIVE_ROTOR_COUNT>
5

> <PUBCHEM_PHARMACOPHORE_FEATURES>
8
1 1 acceptor
1 2 acceptor
1 3 acceptor
1 4 donor
1 5 donor
1 6 donor
1 7 donor
6 8 9 10 11 12 13 rings

> <PUBCHEM_HEAVY_ATOM_COUNT>
16

> <PUBCHEM_ATOM_DEF_STEREO_COUNT>
0

> <PUBCHEM_ATOM_UDEF_STEREO_COUNT>
0

> <PUBCHEM_BOND_DEF_STEREO_COUNT>
0

> <PUBCHEM_BOND_UDEF_STEREO_COUNT>
0

> <PUBCHEM_ISOTOPIC_ATOM_COUNT>
0

> <PUBCHEM_COMPONENT_COUNT>
1

> <PUBCHEM_CACTVS_TAUTO_COUNT>
6

> <PUBCHEM_CONFORMER_ID>
0001E6CB00000003

> <PUBCHEM_MMFF94_ENERGY>
61.0127

> <PUBCHEM_FEATURE_SELFOVERLAP>
43.609

> <PUBCHEM_SHAPE_FINGERPRINT>
11132069 177 18342448227862812314
12423570 1 11273233320353401651
13132413 78 18411986870689295349
13172582 1 18411411791800938667
13380535 220 18265615570536349647
14614273 12 18122900924140840628
14993402 34 18410571782160380079
16945 1 18201427035347775507
193761 8 17978229688203116455
19868273 325 18409444821333558574
20511035 2 18056469780326357775
21501502 16 17980486981369715607
22112679 90 18262215803585409682
22802520 49 18058469633180050470
2334 1 18195798794086005667
23402539 116 18342171168423939366
23419403 2 16472544119956875425
23493267 7 17751647546046610715
23552423 10 17758383454836614055
23557571 272 18128550434587062638
23559900 14 18202283603047440286
2748010 2 18196918066863702195
353137 74 18267024946911696414
528886 8 18412262809342462979
53812653 8 18338801087479327210
589210 1 17979357786985424151
7364860 26 17767120187089099404
81228 2 18413102853579994090
90316 7 17974250375397203504

> <PUBCHEM_SHAPE_MULTIPOLES>
291.74
4.3
3.07
1.01
1.39
1.09
0.26
-0.11
0.12
-0.48
-0.68
0.22
0.29
-0.61

> <PUBCHEM_SHAPE_SELFOVERLAP>
609.558

> <PUBCHEM_SHAPE_VOLUME>
165.9

> <PUBCHEM_COORDINATE_TYPE>
2
5
10

$$$$
