124668
  -OEChem-03292013323D

 41 43  0     1  0  0  0  0  0999 V2000
    1.2740   -0.1132    1.4356 S   0  0  0  0  0  0  0  0  0  0  0  0
   -5.1318   -2.5919    0.0492 O   0  0  0  0  0  0  0  0  0  0  0  0
   -3.2344    1.3255   -1.5429 O   0  0  0  0  0  0  0  0  0  0  0  0
   -0.2799    2.5333   -0.8094 O   0  5  0  0  0  0  0  0  0  0  0  0
   -0.5704    3.1761    1.3668 O   0  0  0  0  0  0  0  0  0  0  0  0
   -2.4528    0.6519    0.5788 N   0  0  0  0  0  0  0  0  0  0  0  0
    4.1001    0.3624   -0.5631 N   0  3  0  0  0  0  0  0  0  0  0  0
   -2.6826   -0.7460    0.9982 C   0  0  1  0  0  0  0  0  0  0  0  0
   -3.4571   -0.9189   -0.3374 C   0  0  2  0  0  0  0  0  0  0  0  0
   -1.2776   -1.2965    1.2573 C   0  0  0  0  0  0  0  0  0  0  0  0
   -3.1072    0.5612   -0.6130 C   0  0  0  0  0  0  0  0  0  0  0  0
   -4.9360   -1.2109   -0.2565 C   0  0  1  0  0  0  0  0  0  0  0  0
   -1.1361    0.9873    0.7353 C   0  0  0  0  0  0  0  0  0  0  0  0
   -0.4155   -0.0648    1.1422 C   0  0  0  0  0  0  0  0  0  0  0  0
   -5.6354   -0.8896   -1.5725 C   0  0  0  0  0  0  0  0  0  0  0  0
   -0.6100    2.3691    0.3974 C   0  0  0  0  0  0  0  0  0  0  0  0
    1.8705   -0.5853   -0.2046 C   0  0  0  0  0  0  0  0  0  0  0  0
    3.3687   -0.7080   -0.2498 C   0  0  0  0  0  0  0  0  0  0  0  0
    3.9662   -1.9209    0.0314 C   0  0  0  0  0  0  0  0  0  0  0  0
    5.4380    0.3134   -0.6192 C   0  0  0  0  0  0  0  0  0  0  0  0
    3.4519    1.6407   -0.8573 C   0  0  0  0  0  0  0  0  0  0  0  0
    5.3547   -2.0007   -0.0190 C   0  0  0  0  0  0  0  0  0  0  0  0
    6.1025   -0.8740   -0.3474 C   0  0  0  0  0  0  0  0  0  0  0  0
   -3.3154   -0.7830    1.8951 H   0  0  0  0  0  0  0  0  0  0  0  0
   -2.9457   -1.5849   -1.0467 H   0  0  0  0  0  0  0  0  0  0  0  0
   -0.9993   -2.0531    0.5165 H   0  0  0  0  0  0  0  0  0  0  0  0
   -1.2115   -1.7318    2.2602 H   0  0  0  0  0  0  0  0  0  0  0  0
   -5.4141   -0.6283    0.5398 H   0  0  0  0  0  0  0  0  0  0  0  0
   -6.6826   -1.2092   -1.5343 H   0  0  0  0  0  0  0  0  0  0  0  0
   -5.6117    0.1796   -1.8001 H   0  0  0  0  0  0  0  0  0  0  0  0
   -5.1702   -1.4304   -2.4043 H   0  0  0  0  0  0  0  0  0  0  0  0
   -4.7187   -2.7609    0.9131 H   0  0  0  0  0  0  0  0  0  0  0  0
    1.4895    0.1031   -0.9634 H   0  0  0  0  0  0  0  0  0  0  0  0
    1.4313   -1.5576   -0.4618 H   0  0  0  0  0  0  0  0  0  0  0  0
    3.3826   -2.7988    0.2884 H   0  0  0  0  0  0  0  0  0  0  0  0
    5.9723    1.2186   -0.8816 H   0  0  0  0  0  0  0  0  0  0  0  0
    4.2041    2.4214   -1.0062 H   0  0  0  0  0  0  0  0  0  0  0  0
    2.8793    1.5381   -1.7828 H   0  0  0  0  0  0  0  0  0  0  0  0
    2.8268    1.9395   -0.0143 H   0  0  0  0  0  0  0  0  0  0  0  0
    5.8538   -2.9405    0.1976 H   0  0  0  0  0  0  0  0  0  0  0  0
    7.1853   -0.9234   -0.3905 H   0  0  0  0  0  0  0  0  0  0  0  0
  1 14  1  0  0  0  0
  1 17  1  0  0  0  0
  2 12  1  0  0  0  0
  2 32  1  0  0  0  0
  3 11  2  0  0  0  0
  4 16  1  0  0  0  0
  5 16  2  0  0  0  0
  6  8  1  0  0  0  0
  6 11  1  0  0  0  0
  6 13  1  0  0  0  0
  7 18  1  0  0  0  0
  7 20  2  0  0  0  0
  7 21  1  0  0  0  0
  8  9  1  0  0  0  0
  8 10  1  0  0  0  0
  8 24  1  0  0  0  0
  9 11  1  0  0  0  0
  9 12  1  0  0  0  0
  9 25  1  0  0  0  0
 10 14  1  0  0  0  0
 10 26  1  0  0  0  0
 10 27  1  0  0  0  0
 12 15  1  0  0  0  0
 12 28  1  0  0  0  0
 13 14  2  0  0  0  0
 13 16  1  0  0  0  0
 15 29  1  0  0  0  0
 15 30  1  0  0  0  0
 15 31  1  0  0  0  0
 17 18  1  0  0  0  0
 17 33  1  0  0  0  0
 17 34  1  0  0  0  0
 18 19  2  0  0  0  0
 19 22  1  0  0  0  0
 19 35  1  0  0  0  0
 20 23  1  0  0  0  0
 20 36  1  0  0  0  0
 21 37  1  0  0  0  0
 21 38  1  0  0  0  0
 21 39  1  0  0  0  0
 22 23  2  0  0  0  0
 22 40  1  0  0  0  0
 23 41  1  0  0  0  0
M  CHG  2   4  -1   7   1
M  END
> <PUBCHEM_COMPOUND_CID>
124668

> <PUBCHEM_CONFORMER_RMSD>
0.8

> <PUBCHEM_CONFORMER_DIVERSEORDER>
1
44
42
45
43
52
47
11
21
51
54
5
38
18
34
41
49
28
50
15
19
24
33
37
7
8
30
53
26
40
31
32
20
23
17
46
10
48
25
6
36
4
29
13
39
55
35
3
27
14
2
22
12
9
16

> <PUBCHEM_MMFF94_PARTIAL_CHARGES>
27
1 -0.33
10 0.14
11 0.58
12 0.28
13 -0.14
14 -0.04
16 1.05
17 0.37
18 0.22
19 -0.15
2 -0.68
20 0.21
21 0.49
22 -0.15
23 -0.15
3 -0.57
32 0.4
35 0.15
36 0.15
4 -0.9
40 0.15
41 0.15
5 -0.9
6 -0.39
7 -0.21
8 0.22
9 0.05

> <PUBCHEM_EFFECTIVE_ROTOR_COUNT>
5.4

> <PUBCHEM_PHARMACOPHORE_FEATURES>
8
1 2 acceptor
1 2 donor
1 3 acceptor
1 4 acceptor
1 5 acceptor
3 4 5 16 anion
6 7 18 19 20 22 23 rings
7 6 8 9 10 11 13 14 rings

> <PUBCHEM_HEAVY_ATOM_COUNT>
23

> <PUBCHEM_ATOM_DEF_STEREO_COUNT>
3

> <PUBCHEM_ATOM_UDEF_STEREO_COUNT>
0

> <PUBCHEM_BOND_DEF_STEREO_COUNT>
0

> <PUBCHEM_BOND_UDEF_STEREO_COUNT>
0

> <PUBCHEM_ISOTOPIC_ATOM_COUNT>
0

> <PUBCHEM_COMPONENT_COUNT>
1

> <PUBCHEM_CACTVS_TAUTO_COUNT>
1

> <PUBCHEM_CONFORMER_ID>
0001E6FC00000001

> <PUBCHEM_MMFF94_ENERGY>
77.897

> <PUBCHEM_FEATURE_SELFOVERLAP>
40.651

> <PUBCHEM_SHAPE_FINGERPRINT>
10366900 7 18411147939655162442
11045515 52 18334014982052031261
12166972 35 17967820469999719644
12403260 363 18336550422249047762
12596602 18 11383834878745495463
12670546 177 18260827107345704535
13690498 29 18261945363076339751
14790565 3 17691125929630048121
15183329 4 17822004281300782814
16994733 274 14707475946869136959
17349148 13 18334018259623150850
17492 89 18199191677081161534
1813 80 16773802527655535345
200 152 18411138022106138278
20300324 65 18339083696517353736
20775438 99 17475771617785115735
20871999 31 18334853909818994043
21637258 2 17203037565309471303
221357 26 18259980483302471029
22224240 67 9727635021121945111
22393880 68 17894619344987364893
23402539 116 18410296873961818074
23557571 272 18341899558369629910
23559900 14 18188209909334209064
2838139 119 14779537989649625511
3004659 81 18260826003649931122
329604 57 18411702105783447118
4028521 119 17749394724262797848
463206 1 18269274732270195111
474 4 11458412540427680929
5283173 99 18187357692980214837
56616090 284 18409166614721510915
59682541 52 16154254036574102482
6669772 16 17839454832615243928
7495541 125 18060418053636011250
9709674 26 18265348222287928346

> <PUBCHEM_SHAPE_MULTIPOLES>
443.74
13.21
2.57
1.31
6.12
1.3
0.08
-8.35
-5.55
-0.58
0.2
-0.93
0.24
-0.4

> <PUBCHEM_SHAPE_SELFOVERLAP>
937.197

> <PUBCHEM_SHAPE_VOLUME>
254

> <PUBCHEM_COORDINATE_TYPE>
2
5
10

$$$$
