124640
  -OEChem-03292013323D

 33 34  0     1  0  0  0  0  0999 V2000
    1.9580    0.9800   -0.6856 O   0  0  0  0  0  0  0  0  0  0  0  0
    1.5013   -1.2611   -0.0907 O   0  0  0  0  0  0  0  0  0  0  0  0
   -0.0647    2.4140    0.9502 O   0  0  0  0  0  0  0  0  0  0  0  0
    3.8526    0.8249    1.0715 O   0  0  0  0  0  0  0  0  0  0  0  0
   -4.2038    0.2368   -0.1730 O   0  0  0  0  0  0  0  0  0  0  0  0
   -3.5222   -1.8773    0.4789 O   0  0  0  0  0  0  0  0  0  0  0  0
    4.2056   -1.4317    0.7934 N   0  0  0  0  0  0  0  0  0  0  0  0
    0.5604    0.7169   -0.6712 C   0  0  1  0  0  0  0  0  0  0  0  0
    0.4644   -0.3889    0.3571 C   0  0  1  0  0  0  0  0  0  0  0  0
   -0.3784    1.8581   -0.3245 C   0  0  1  0  0  0  0  0  0  0  0  0
    2.5196   -0.3394   -0.5365 C   0  0  1  0  0  0  0  0  0  0  0  0
   -1.8291    1.3138   -0.3294 C   0  0  0  0  0  0  0  0  0  0  0  0
   -0.9193   -0.9460    0.3854 C   0  0  0  0  0  0  0  0  0  0  0  0
   -1.9563   -0.1422    0.0853 C   0  0  0  0  0  0  0  0  0  0  0  0
    3.1093   -0.8225   -1.8498 C   0  0  0  0  0  0  0  0  0  0  0  0
    3.5775   -0.2391    0.5224 C   0  0  0  0  0  0  0  0  0  0  0  0
   -3.3011   -0.7195    0.1613 C   0  0  0  0  0  0  0  0  0  0  0  0
   -5.5737   -0.1770   -0.1450 C   0  0  0  0  0  0  0  0  0  0  0  0
    0.3062    0.3488   -1.6776 H   0  0  0  0  0  0  0  0  0  0  0  0
    0.7404   -0.0593    1.3678 H   0  0  0  0  0  0  0  0  0  0  0  0
   -0.2700    2.6709   -1.0510 H   0  0  0  0  0  0  0  0  0  0  0  0
   -2.2119    1.4012   -1.3548 H   0  0  0  0  0  0  0  0  0  0  0  0
   -2.4491    1.9421    0.3215 H   0  0  0  0  0  0  0  0  0  0  0  0
   -1.0470   -1.9764    0.6999 H   0  0  0  0  0  0  0  0  0  0  0  0
    3.9399   -0.1845   -2.1710 H   0  0  0  0  0  0  0  0  0  0  0  0
    3.4602   -1.8580   -1.7946 H   0  0  0  0  0  0  0  0  0  0  0  0
    2.3536   -0.7879   -2.6430 H   0  0  0  0  0  0  0  0  0  0  0  0
   -0.6874    3.1428    1.1133 H   0  0  0  0  0  0  0  0  0  0  0  0
    4.9459   -1.4836    1.4854 H   0  0  0  0  0  0  0  0  0  0  0  0
    3.9408   -2.3042    0.3481 H   0  0  0  0  0  0  0  0  0  0  0  0
   -6.1928    0.6774   -0.4311 H   0  0  0  0  0  0  0  0  0  0  0  0
   -5.8537   -0.4914    0.8650 H   0  0  0  0  0  0  0  0  0  0  0  0
   -5.7393   -0.9868   -0.8619 H   0  0  0  0  0  0  0  0  0  0  0  0
  1  8  1  0  0  0  0
  1 11  1  0  0  0  0
  2  9  1  0  0  0  0
  2 11  1  0  0  0  0
  3 10  1  0  0  0  0
  3 28  1  0  0  0  0
  4 16  2  0  0  0  0
  5 17  1  0  0  0  0
  5 18  1  0  0  0  0
  6 17  2  0  0  0  0
  7 16  1  0  0  0  0
  7 29  1  0  0  0  0
  7 30  1  0  0  0  0
  8  9  1  0  0  0  0
  8 10  1  0  0  0  0
  8 19  1  0  0  0  0
  9 13  1  0  0  0  0
  9 20  1  0  0  0  0
 10 12  1  0  0  0  0
 10 21  1  0  0  0  0
 11 15  1  0  0  0  0
 11 16  1  0  0  0  0
 12 14  1  0  0  0  0
 12 22  1  0  0  0  0
 12 23  1  0  0  0  0
 13 14  2  0  0  0  0
 13 24  1  0  0  0  0
 14 17  1  0  0  0  0
 15 25  1  0  0  0  0
 15 26  1  0  0  0  0
 15 27  1  0  0  0  0
 18 31  1  0  0  0  0
 18 32  1  0  0  0  0
 18 33  1  0  0  0  0
M  END
> <PUBCHEM_COMPOUND_CID>
124640

> <PUBCHEM_CONFORMER_RMSD>
0.6

> <PUBCHEM_CONFORMER_DIVERSEORDER>
2
13
12
8
7
3
9
11
6
10
1
4
5

> <PUBCHEM_MMFF94_PARTIAL_CHARGES>
21
1 -0.56
10 0.28
11 0.62
12 0.14
13 -0.29
14 -0.12
16 0.57
17 0.71
18 0.28
2 -0.56
24 0.15
28 0.4
29 0.37
3 -0.68
30 0.37
4 -0.57
5 -0.43
6 -0.57
7 -0.8
8 0.28
9 0.42

> <PUBCHEM_EFFECTIVE_ROTOR_COUNT>
4

> <PUBCHEM_PHARMACOPHORE_FEATURES>
9
1 1 acceptor
1 2 acceptor
1 3 acceptor
1 3 donor
1 4 acceptor
1 6 acceptor
1 7 donor
5 1 2 8 9 11 rings
6 8 9 10 12 13 14 rings

> <PUBCHEM_HEAVY_ATOM_COUNT>
18

> <PUBCHEM_ATOM_DEF_STEREO_COUNT>
3

> <PUBCHEM_ATOM_UDEF_STEREO_COUNT>
1

> <PUBCHEM_BOND_DEF_STEREO_COUNT>
0

> <PUBCHEM_BOND_UDEF_STEREO_COUNT>
0

> <PUBCHEM_ISOTOPIC_ATOM_COUNT>
0

> <PUBCHEM_COMPONENT_COUNT>
1

> <PUBCHEM_CACTVS_TAUTO_COUNT>
2

> <PUBCHEM_CONFORMER_ID>
0001E6E000000002

> <PUBCHEM_MMFF94_ENERGY>
46.021

> <PUBCHEM_FEATURE_SELFOVERLAP>
45.827

> <PUBCHEM_SHAPE_FINGERPRINT>
10062212 137 18260826033883682763
10130415 120 18334016111717496657
10618630 7 18409169908903027556
10922049 32 8358260354092936721
11132069 177 18411140242604340683
11401426 45 18408317804956485615
11543360 7 15141253194746410123
12032990 46 18410863161089121023
12236239 1 17240765060263683674
12670546 56 15769503032177716787
13296908 3 18059862727001347628
13760787 5 17458921361301241021
13862211 1 18408037416860085219
14115302 16 17312827095055358570
14178342 30 18194118504412242744
14252887 29 18060427914511599135
14289901 80 16702303442426937051
15196674 1 18261957448449067695
15342168 16 16270780408103599960
15375358 24 18343582936842719423
15375462 478 18410289198987148582
15775835 57 10879990263606518582
15848700 24 18342461434644622077
16752209 62 18115029601838343111
16945 1 18187094939718143044
17834072 14 18341893008766231577
18186145 218 15864067706545728063
18522853 276 18409446990339340369
19141452 34 18202845474505277623
19784866 240 16950842493052281018
200 152 18409163294896114767
20279233 1 18272374174202680943
20510252 161 18342455889873777256
20645477 70 18341898549595738663
21267235 1 18261401017971392603
21501925 9 18408038528718258884
23402539 116 18411690002418050431
23419403 2 18193807497029966964
23557571 272 18201158750194668096
23559900 14 18408887330636777454
26918003 58 18333726922784441138
296302 2 18060134383598449384
31174 14 17203608160320315168
34934 24 18410285922111997099
4072396 5 18262506027268012411
4340502 62 15697994145649451599
474 4 14691701356213758010
5104073 3 18336271253490447185
5374978 207 18411695478690886720
537710 114 18333455343554727221
6049 1 17631179580683211764
7495541 125 17023476355858202929
81228 2 18267040365749648945

> <PUBCHEM_SHAPE_MULTIPOLES>
330.23
8.64
1.75
1.04
5.57
0.6
0.26
-2.95
-0.4
0.16
-0.27
-1.1
-0.03
0.34

> <PUBCHEM_SHAPE_SELFOVERLAP>
699.04

> <PUBCHEM_SHAPE_VOLUME>
185.1

> <PUBCHEM_COORDINATE_TYPE>
2
5
10

$$$$
