124695
  -OEChem-03292013323D

 48 49  0     1  0  0  0  0  0999 V2000
   -6.3540   -0.1059    0.1212 S   0  0  0  0  0  0  0  0  0  0  0  0
    6.3441    0.1361   -0.0286 S   0  0  0  0  0  0  0  0  0  0  0  0
   -6.6025   -1.7126   -0.0521 O   0  0  0  0  0  0  0  0  0  0  0  0
    6.5687    1.7419    0.1817 O   0  0  0  0  0  0  0  0  0  0  0  0
   -6.7594    0.2425    1.4752 O   0  0  0  0  0  0  0  0  0  0  0  0
   -6.9422    0.5683   -1.0257 O   0  0  0  0  0  0  0  0  0  0  0  0
    6.9311   -0.5292    1.1255 O   0  0  0  0  0  0  0  0  0  0  0  0
    6.7683   -0.2063   -1.3772 O   0  0  0  0  0  0  0  0  0  0  0  0
   -0.3852    0.6273   -0.2801 C   0  0  2  0  0  0  0  0  0  0  0  0
    0.3749   -0.6673    0.1931 C   0  0  1  0  0  0  0  0  0  0  0  0
    0.0626    1.9027    0.4783 C   0  0  0  0  0  0  0  0  0  0  0  0
   -0.0430   -1.9300   -0.6028 C   0  0  0  0  0  0  0  0  0  0  0  0
   -1.8992    0.4402   -0.1787 C   0  0  0  0  0  0  0  0  0  0  0  0
    1.8893   -0.4647    0.1370 C   0  0  0  0  0  0  0  0  0  0  0  0
   -0.5532    3.1891   -0.0658 C   0  0  0  0  0  0  0  0  0  0  0  0
    0.6492   -3.2079   -0.1363 C   0  0  0  0  0  0  0  0  0  0  0  0
   -2.6507    0.5041   -1.3301 C   0  0  0  0  0  0  0  0  0  0  0  0
    2.6094   -0.5426    1.3074 C   0  0  0  0  0  0  0  0  0  0  0  0
   -2.4547    0.2160    1.0607 C   0  0  0  0  0  0  0  0  0  0  0  0
    2.4762   -0.2106   -1.0820 C   0  0  0  0  0  0  0  0  0  0  0  0
   -4.0321    0.3347   -1.2372 C   0  0  0  0  0  0  0  0  0  0  0  0
    3.9909   -0.3564    1.2561 C   0  0  0  0  0  0  0  0  0  0  0  0
   -3.8361    0.0465    1.1534 C   0  0  0  0  0  0  0  0  0  0  0  0
    3.8576   -0.0245   -1.1332 C   0  0  0  0  0  0  0  0  0  0  0  0
   -4.6249    0.1058    0.0045 C   0  0  0  0  0  0  0  0  0  0  0  0
    4.6150   -0.0973    0.0358 C   0  0  0  0  0  0  0  0  0  0  0  0
   -0.1368    0.7894   -1.3385 H   0  0  0  0  0  0  0  0  0  0  0  0
    0.1031   -0.8542    1.2414 H   0  0  0  0  0  0  0  0  0  0  0  0
    1.1488    2.0231    0.4041 H   0  0  0  0  0  0  0  0  0  0  0  0
   -0.1643    1.8218    1.5480 H   0  0  0  0  0  0  0  0  0  0  0  0
   -1.1219   -2.0925   -0.5000 H   0  0  0  0  0  0  0  0  0  0  0  0
    0.1477   -1.7941   -1.6742 H   0  0  0  0  0  0  0  0  0  0  0  0
   -0.1262    4.0553    0.4502 H   0  0  0  0  0  0  0  0  0  0  0  0
   -0.3491    3.2989   -1.1355 H   0  0  0  0  0  0  0  0  0  0  0  0
   -1.6362    3.2157    0.0863 H   0  0  0  0  0  0  0  0  0  0  0  0
    0.5004   -3.3645    0.9367 H   0  0  0  0  0  0  0  0  0  0  0  0
    0.2315   -4.0715   -0.6641 H   0  0  0  0  0  0  0  0  0  0  0  0
    1.7237   -3.1877   -0.3404 H   0  0  0  0  0  0  0  0  0  0  0  0
   -2.1993    0.6799   -2.3015 H   0  0  0  0  0  0  0  0  0  0  0  0
    2.1336   -0.7417    2.2625 H   0  0  0  0  0  0  0  0  0  0  0  0
   -1.8574    0.1685    1.9653 H   0  0  0  0  0  0  0  0  0  0  0  0
    1.9028   -0.1517   -2.0013 H   0  0  0  0  0  0  0  0  0  0  0  0
   -4.6247    0.3773   -2.1466 H   0  0  0  0  0  0  0  0  0  0  0  0
    4.5596   -0.4104    2.1800 H   0  0  0  0  0  0  0  0  0  0  0  0
   -4.2753   -0.1370    2.1300 H   0  0  0  0  0  0  0  0  0  0  0  0
    4.3203    0.1831   -2.0939 H   0  0  0  0  0  0  0  0  0  0  0  0
   -6.1878   -2.2814    0.6385 H   0  0  0  0  0  0  0  0  0  0  0  0
    6.2537    2.1035    1.0433 H   0  0  0  0  0  0  0  0  0  0  0  0
  1  3  1  0  0  0  0
  1  5  2  0  0  0  0
  1  6  2  0  0  0  0
  1 25  1  0  0  0  0
  2  4  1  0  0  0  0
  2  7  2  0  0  0  0
  2  8  2  0  0  0  0
  2 26  1  0  0  0  0
  3 47  1  0  0  0  0
  4 48  1  0  0  0  0
  9 10  1  0  0  0  0
  9 11  1  0  0  0  0
  9 13  1  0  0  0  0
  9 27  1  0  0  0  0
 10 12  1  0  0  0  0
 10 14  1  0  0  0  0
 10 28  1  0  0  0  0
 11 15  1  0  0  0  0
 11 29  1  0  0  0  0
 11 30  1  0  0  0  0
 12 16  1  0  0  0  0
 12 31  1  0  0  0  0
 12 32  1  0  0  0  0
 13 17  2  0  0  0  0
 13 19  1  0  0  0  0
 14 18  2  0  0  0  0
 14 20  1  0  0  0  0
 15 33  1  0  0  0  0
 15 34  1  0  0  0  0
 15 35  1  0  0  0  0
 16 36  1  0  0  0  0
 16 37  1  0  0  0  0
 16 38  1  0  0  0  0
 17 21  1  0  0  0  0
 17 39  1  0  0  0  0
 18 22  1  0  0  0  0
 18 40  1  0  0  0  0
 19 23  2  0  0  0  0
 19 41  1  0  0  0  0
 20 24  2  0  0  0  0
 20 42  1  0  0  0  0
 21 25  2  0  0  0  0
 21 43  1  0  0  0  0
 22 26  2  0  0  0  0
 22 44  1  0  0  0  0
 23 25  1  0  0  0  0
 23 45  1  0  0  0  0
 24 26  1  0  0  0  0
 24 46  1  0  0  0  0
M  END
> <PUBCHEM_COMPOUND_CID>
124695

> <PUBCHEM_CONFORMER_RMSD>
0.8

> <PUBCHEM_CONFORMER_DIVERSEORDER>
1
5
2
4
3

> <PUBCHEM_MMFF94_PARTIAL_CHARGES>
32
1 1.49
10 0.14
13 -0.14
14 -0.14
17 -0.15
18 -0.15
19 -0.15
2 1.49
20 -0.15
21 -0.15
22 -0.15
23 -0.15
24 -0.15
25 -0.01
26 -0.01
3 -0.68
39 0.15
4 -0.68
40 0.15
41 0.15
42 0.15
43 0.15
44 0.15
45 0.15
46 0.15
47 0.5
48 0.5
5 -0.65
6 -0.65
7 -0.65
8 -0.65
9 0.14

> <PUBCHEM_EFFECTIVE_ROTOR_COUNT>
7

> <PUBCHEM_PHARMACOPHORE_FEATURES>
13
1 15 hydrophobe
1 16 hydrophobe
1 3 acceptor
1 4 acceptor
1 5 acceptor
1 6 acceptor
1 7 acceptor
1 8 acceptor
4 1 3 5 6 anion
4 2 4 7 8 anion
4 9 10 11 12 hydrophobe
6 13 17 19 21 23 25 rings
6 14 18 20 22 24 26 rings

> <PUBCHEM_HEAVY_ATOM_COUNT>
26

> <PUBCHEM_ATOM_DEF_STEREO_COUNT>
2

> <PUBCHEM_ATOM_UDEF_STEREO_COUNT>
0

> <PUBCHEM_BOND_DEF_STEREO_COUNT>
0

> <PUBCHEM_BOND_UDEF_STEREO_COUNT>
0

> <PUBCHEM_ISOTOPIC_ATOM_COUNT>
0

> <PUBCHEM_COMPONENT_COUNT>
1

> <PUBCHEM_CACTVS_TAUTO_COUNT>
1

> <PUBCHEM_CONFORMER_ID>
0001E71700000001

> <PUBCHEM_MMFF94_ENERGY>
52.2395

> <PUBCHEM_FEATURE_SELFOVERLAP>
66.086

> <PUBCHEM_SHAPE_FINGERPRINT>
10 15 17240761831229369104
102385 1 17691684906110057094
10906281 52 18189352207574056281
11315181 36 15719398334966429093
11646440 116 18202288017281985681
11719270 70 16877940530034763034
11963148 33 18334568062577418571
12166972 35 17675927599331486444
12236239 1 17821727222103983102
12516196 113 18411419518457783457
12916748 109 18412265009140827748
13533116 47 17967527927288199082
13911987 19 18262816145123034244
14251764 18 14056724551802919814
14840074 17 18202560666438389629
14849402 71 18129102393181948153
14856354 85 18341617040523150711
15142383 8 13901908882490561850
15849732 13 17847061095347688733
15927050 60 17763466514229792692
17980427 23 17895204246503403396
1813 80 18201728335909946357
21521721 280 18342177799515697832
22224240 67 18411418423257025283
23035841 295 18273494571987242543
23402539 116 18343857832061206726
23536379 177 15936407823574377017
23559900 14 16081658879960041437
23569943 247 17415580713522499142
283562 15 18341053995294757616
3178227 256 18410019853145703627
347723 3 9151173151288300031
34797466 226 17458356221273396478
3545911 37 16370725924272594700
4073 2 16773789342464639678
4325135 7 17676486147001152311
4340502 62 18413670197733618478
469060 322 18339655438142840489
5486654 2 18410295813405712694
5758199 1 18273218594837793843
59755656 215 17418377969449107702
59755656 520 18060134345134232935
7495541 125 17749111119114320149

> <PUBCHEM_SHAPE_MULTIPOLES>
507.55
18.06
2.01
1.29
0.3
0.03
0.03
-0.18
0.65
-0.06
-0.09
0.02
0.01
0.04

> <PUBCHEM_SHAPE_SELFOVERLAP>
1042.325

> <PUBCHEM_SHAPE_VOLUME>
294.3

> <PUBCHEM_COORDINATE_TYPE>
2
5
10

$$$$
