124701
  -OEChem-03292013323D

 35 34  0     1  0  0  0  0  0999 V2000
    2.8546    1.8117   -1.1976 O   0  0  0  0  0  0  0  0  0  0  0  0
    3.6552    2.0956    0.9049 O   0  0  0  0  0  0  0  0  0  0  0  0
   -2.6655   -1.3608    1.1417 O   0  0  0  0  0  0  0  0  0  0  0  0
   -5.5214    1.3425   -0.9706 O   0  0  0  0  0  0  0  0  0  0  0  0
   -1.3662   -0.9100   -0.7305 N   0  0  0  0  0  0  0  0  0  0  0  0
    5.2773   -0.1208    0.5365 N   0  0  0  0  0  0  0  0  0  0  0  0
   -2.9116    0.6419   -0.0036 N   0  0  0  0  0  0  0  0  0  0  0  0
    1.6857   -1.0230   -0.4215 C   0  0  0  0  0  0  0  0  0  0  0  0
    3.0216   -1.0455    0.3282 C   0  0  0  0  0  0  0  0  0  0  0  0
    0.6675   -2.0573    0.0757 C   0  0  0  0  0  0  0  0  0  0  0  0
    4.0298   -0.0305   -0.2267 C   0  0  1  0  0  0  0  0  0  0  0  0
   -0.6197   -2.1353   -0.7401 C   0  0  0  0  0  0  0  0  0  0  0  0
    3.5183    1.3931   -0.0888 C   0  0  0  0  0  0  0  0  0  0  0  0
   -2.3455   -0.6104    0.2208 C   0  0  0  0  0  0  0  0  0  0  0  0
   -3.9489    1.1936    0.8359 C   0  0  0  0  0  0  0  0  0  0  0  0
   -5.3311    0.8152    0.3358 C   0  0  0  0  0  0  0  0  0  0  0  0
    1.2302   -0.0306   -0.3334 H   0  0  0  0  0  0  0  0  0  0  0  0
    1.8737   -1.1947   -1.4887 H   0  0  0  0  0  0  0  0  0  0  0  0
    3.4466   -2.0557    0.2675 H   0  0  0  0  0  0  0  0  0  0  0  0
    2.8291   -0.8435    1.3904 H   0  0  0  0  0  0  0  0  0  0  0  0
    0.4234   -1.8360    1.1223 H   0  0  0  0  0  0  0  0  0  0  0  0
    1.1386   -3.0480    0.0656 H   0  0  0  0  0  0  0  0  0  0  0  0
    4.2508   -0.2345   -1.2804 H   0  0  0  0  0  0  0  0  0  0  0  0
   -1.2518   -2.9398   -0.3485 H   0  0  0  0  0  0  0  0  0  0  0  0
   -0.3913   -2.3690   -1.7853 H   0  0  0  0  0  0  0  0  0  0  0  0
   -1.1652   -0.2204   -1.4481 H   0  0  0  0  0  0  0  0  0  0  0  0
    5.9775    0.4914    0.1188 H   0  0  0  0  0  0  0  0  0  0  0  0
    5.6517   -1.0665    0.4680 H   0  0  0  0  0  0  0  0  0  0  0  0
   -2.5916    1.1871   -0.7982 H   0  0  0  0  0  0  0  0  0  0  0  0
   -3.8085    0.8447    1.8639 H   0  0  0  0  0  0  0  0  0  0  0  0
   -3.8206    2.2808    0.8124 H   0  0  0  0  0  0  0  0  0  0  0  0
   -6.0999    1.2320    0.9937 H   0  0  0  0  0  0  0  0  0  0  0  0
   -5.4521   -0.2721    0.2910 H   0  0  0  0  0  0  0  0  0  0  0  0
    2.5156    2.7266   -1.0971 H   0  0  0  0  0  0  0  0  0  0  0  0
   -6.4155    1.0859   -1.2542 H   0  0  0  0  0  0  0  0  0  0  0  0
  1 13  1  0  0  0  0
  1 34  1  0  0  0  0
  2 13  2  0  0  0  0
  3 14  2  0  0  0  0
  4 16  1  0  0  0  0
  4 35  1  0  0  0  0
  5 12  1  0  0  0  0
  5 14  1  0  0  0  0
  5 26  1  0  0  0  0
  6 11  1  0  0  0  0
  6 27  1  0  0  0  0
  6 28  1  0  0  0  0
  7 14  1  0  0  0  0
  7 15  1  0  0  0  0
  7 29  1  0  0  0  0
  8  9  1  0  0  0  0
  8 10  1  0  0  0  0
  8 17  1  0  0  0  0
  8 18  1  0  0  0  0
  9 11  1  0  0  0  0
  9 19  1  0  0  0  0
  9 20  1  0  0  0  0
 10 12  1  0  0  0  0
 10 21  1  0  0  0  0
 10 22  1  0  0  0  0
 11 13  1  0  0  0  0
 11 23  1  0  0  0  0
 12 24  1  0  0  0  0
 12 25  1  0  0  0  0
 15 16  1  0  0  0  0
 15 30  1  0  0  0  0
 15 31  1  0  0  0  0
 16 32  1  0  0  0  0
 16 33  1  0  0  0  0
M  END
> <PUBCHEM_COMPOUND_CID>
124701

> <PUBCHEM_CONFORMER_RMSD>
0.8

> <PUBCHEM_CONFORMER_DIVERSEORDER>
2
244
89
112
139
250
95
175
235
73
217
125
210
285
251
188
22
143
218
165
5
67
105
182
288
216
231
57
147
177
56
35
273
23
226
103
276
183
283
37
49
25
104
189
16
118
268
281
134
286
14
266
19
291
171
40
107
194
60
180
247
272
146
219
68
224
85
9
1
97
121
269
207
106
261
234
100
145
259
46
42
59
200
18
243
162
130
113
192
186
199
245
203
163
225
190
193
257
76
63
264
248
82
102
54
229
262
136
141
238
81
119
202
290
88
179
255
47
117
287
260
160
133
78
242
278
86
20
137
152
209
10
178
29
230
168
27
41
120
196
156
62
55
15
98
31
140
263
131
138
114
161
252
181
265
64
158
172
65
48
164
99
24
169
34
201
282
271
153
75
21
91
135
71
111
215
211
289
284
167
127
204
84
79
241
173
30
33
256
151
94
236
270
279
108
280
214
69
51
150
6
109
195
32
38
149
221
292
184
44
45
61
254
205
11
267
93
208
185
220
159
132
187
213
170
258
232
223
83
39
66
123
77
3
50
154
124
233
174
197
246
191
72
237
157
28
74
128
212
43
206
176
222
227
96
142
253
249
110
122
228
36
129
53
13
101
12
4
80
274
198
26
17
115
148
155
90
8
240
144
275
58
7
92
166
116
126
277
87
52
70
239

> <PUBCHEM_MMFF94_PARTIAL_CHARGES>
19
1 -0.65
11 0.33
12 0.3
13 0.66
14 0.69
15 0.3
16 0.28
2 -0.57
26 0.37
27 0.36
28 0.36
29 0.37
3 -0.57
34 0.5
35 0.4
4 -0.68
5 -0.73
6 -0.99
7 -0.73

> <PUBCHEM_EFFECTIVE_ROTOR_COUNT>
10

> <PUBCHEM_PHARMACOPHORE_FEATURES>
10
1 1 acceptor
1 2 acceptor
1 3 acceptor
1 4 acceptor
1 4 donor
1 5 donor
1 6 cation
1 6 donor
1 7 donor
3 1 2 13 anion

> <PUBCHEM_HEAVY_ATOM_COUNT>
16

> <PUBCHEM_ATOM_DEF_STEREO_COUNT>
1

> <PUBCHEM_ATOM_UDEF_STEREO_COUNT>
0

> <PUBCHEM_BOND_DEF_STEREO_COUNT>
0

> <PUBCHEM_BOND_UDEF_STEREO_COUNT>
0

> <PUBCHEM_ISOTOPIC_ATOM_COUNT>
0

> <PUBCHEM_COMPONENT_COUNT>
1

> <PUBCHEM_CACTVS_TAUTO_COUNT>
3

> <PUBCHEM_CONFORMER_ID>
0001E71D00000002

> <PUBCHEM_MMFF94_ENERGY>
5.8387

> <PUBCHEM_FEATURE_SELFOVERLAP>
50.858

> <PUBCHEM_SHAPE_FINGERPRINT>
11089746 13 18413101753946819526
122479 349 18409735096587670794
12596602 18 14779562187516463389
12633257 1 16588021363767181144
12824470 246 8070039860444838518
14123255 52 18343022198428281159
1420 369 10737283541267415417
14251710 61 8430322333017887832
14251764 38 18115588119966699869
14251764 75 18199201735414677145
14576447 43 9727638306645332254
15537594 2 10737294545037204600
17810953 82 18339649949032009325
17834072 32 18342741831605685611
17834072 8 18131078100087028894
20281475 54 8430327839540988502
212847 35 18407763638411631844
21503847 285 18260271854416483814
235170 7 14261353513986918673
328317 168 18272650113335604287
351380 180 18409729534488536195
351380 3 10881407534121277769
474 4 18410857642093185811
94968 8 9151172047977570590

> <PUBCHEM_SHAPE_MULTIPOLES>
290.85
12.05
2.29
0.97
6.34
0.08
-0.04
-7.38
0.8
-0.75
-0.12
0.24
-0.13
0.1

> <PUBCHEM_SHAPE_SELFOVERLAP>
548.39

> <PUBCHEM_SHAPE_VOLUME>
178.8

> <PUBCHEM_COORDINATE_TYPE>
2
5
10

$$$$
