124713
  -OEChem-03292013323D

 26 26  0     1  0  0  0  0  0999 V2000
    0.4952    0.1468    0.9907 S   0  0  0  0  0  0  0  0  0  0  0  0
    4.0252   -0.9433    1.0813 O   0  0  0  0  0  0  0  0  0  0  0  0
    3.2860   -1.1442   -1.0539 O   0  0  0  0  0  0  0  0  0  0  0  0
   -2.5161   -2.6769   -0.4441 O   0  5  0  0  0  0  0  0  0  0  0  0
   -0.5257   -2.1650    0.3276 O   0  0  0  0  0  0  0  0  0  0  0  0
    3.7367    1.7616   -0.9157 N   0  0  0  0  0  0  0  0  0  0  0  0
   -1.6784   -1.8385   -0.0385 N   0  3  0  0  0  0  0  0  0  0  0  0
    2.9844    0.9780    0.0662 C   0  0  1  0  0  0  0  0  0  0  0  0
    1.4826    1.1266   -0.1851 C   0  0  0  0  0  0  0  0  0  0  0  0
   -1.1670    0.5234    0.4489 C   0  0  0  0  0  0  0  0  0  0  0  0
   -2.0498   -0.4642    0.0076 C   0  0  0  0  0  0  0  0  0  0  0  0
   -1.5761    1.8578    0.4770 C   0  0  0  0  0  0  0  0  0  0  0  0
    3.4465   -0.4627   -0.0481 C   0  0  0  0  0  0  0  0  0  0  0  0
   -3.3368   -0.1184   -0.4041 C   0  0  0  0  0  0  0  0  0  0  0  0
   -2.8631    2.2036    0.0653 C   0  0  0  0  0  0  0  0  0  0  0  0
   -3.7435    1.2155   -0.3753 C   0  0  0  0  0  0  0  0  0  0  0  0
    3.2302    1.3537    1.0670 H   0  0  0  0  0  0  0  0  0  0  0  0
    1.2033    2.1822   -0.1003 H   0  0  0  0  0  0  0  0  0  0  0  0
    1.2267    0.7925   -1.1978 H   0  0  0  0  0  0  0  0  0  0  0  0
   -0.9172    2.6480    0.8282 H   0  0  0  0  0  0  0  0  0  0  0  0
    4.7286    1.7420   -0.6807 H   0  0  0  0  0  0  0  0  0  0  0  0
    3.4526    2.7392   -0.8631 H   0  0  0  0  0  0  0  0  0  0  0  0
   -4.0554   -0.8551   -0.7543 H   0  0  0  0  0  0  0  0  0  0  0  0
   -3.1812    3.2418    0.0907 H   0  0  0  0  0  0  0  0  0  0  0  0
   -4.7459    1.4854   -0.6950 H   0  0  0  0  0  0  0  0  0  0  0  0
    4.2982   -1.8803    0.9823 H   0  0  0  0  0  0  0  0  0  0  0  0
  1  9  1  0  0  0  0
  1 10  1  0  0  0  0
  2 13  1  0  0  0  0
  2 26  1  0  0  0  0
  3 13  2  0  0  0  0
  4  7  1  0  0  0  0
  5  7  2  0  0  0  0
  6  8  1  0  0  0  0
  6 21  1  0  0  0  0
  6 22  1  0  0  0  0
  7 11  1  0  0  0  0
  8  9  1  0  0  0  0
  8 13  1  0  0  0  0
  8 17  1  0  0  0  0
  9 18  1  0  0  0  0
  9 19  1  0  0  0  0
 10 11  1  0  0  0  0
 10 12  2  0  0  0  0
 11 14  2  0  0  0  0
 12 15  1  0  0  0  0
 12 20  1  0  0  0  0
 14 16  1  0  0  0  0
 14 23  1  0  0  0  0
 15 16  2  0  0  0  0
 15 24  1  0  0  0  0
 16 25  1  0  0  0  0
M  CHG  2   4  -1   7   1
M  END
> <PUBCHEM_COMPOUND_CID>
124713

> <PUBCHEM_CONFORMER_RMSD>
0.6

> <PUBCHEM_CONFORMER_DIVERSEORDER>
1
3
42
50
18
53
2
44
6
15
48
54
33
66
68
64
31
40
61
60
52
69
28
67
11
45
34
27
20
56
63
38
21
25
59
62
16
29
19
24
22
55
26
58
65
36
17
46
37
30
41
57
35
51
8
71
32
70
39
10
49
43
14
13
12
23
7
4
9
5
47

> <PUBCHEM_MMFF94_PARTIAL_CHARGES>
23
1 -0.33
10 0.1
11 0.13
12 -0.15
13 0.66
14 -0.15
15 -0.15
16 -0.15
2 -0.65
20 0.15
21 0.36
22 0.36
23 0.15
24 0.15
25 0.15
26 0.5
3 -0.57
4 -0.52
5 -0.52
6 -0.99
7 0.91
8 0.33
9 0.23

> <PUBCHEM_EFFECTIVE_ROTOR_COUNT>
5

> <PUBCHEM_PHARMACOPHORE_FEATURES>
9
1 2 acceptor
1 3 acceptor
1 4 acceptor
1 4 anion
1 5 acceptor
1 6 cation
1 6 donor
3 2 3 13 anion
6 10 11 12 14 15 16 rings

> <PUBCHEM_HEAVY_ATOM_COUNT>
16

> <PUBCHEM_ATOM_DEF_STEREO_COUNT>
1

> <PUBCHEM_ATOM_UDEF_STEREO_COUNT>
0

> <PUBCHEM_BOND_DEF_STEREO_COUNT>
0

> <PUBCHEM_BOND_UDEF_STEREO_COUNT>
0

> <PUBCHEM_ISOTOPIC_ATOM_COUNT>
0

> <PUBCHEM_COMPONENT_COUNT>
1

> <PUBCHEM_CACTVS_TAUTO_COUNT>
1

> <PUBCHEM_CONFORMER_ID>
0001E72900000001

> <PUBCHEM_MMFF94_ENERGY>
48.2337

> <PUBCHEM_FEATURE_SELFOVERLAP>
45.811

> <PUBCHEM_SHAPE_FINGERPRINT>
10616163 171 18340773757553133438
12173636 292 18410849941438571797
12500047 106 18412822499642572860
12553582 1 17764305437264659207
12592029 89 18263087608952867091
12716758 59 18341325669409013993
15442244 35 18335417946436148904
15669948 3 18339922718062057532
17492 89 18408887373355121386
18186145 218 18269840809070207208
18522853 266 18411422829930056500
20279233 1 17561077004044495280
20645476 183 18260820454668106019
20645477 56 18410009961562350697
20871999 31 18266455584930623005
21501502 16 18336265734257134292
21524375 3 18189053097308640977
21665056 4 18409166584867684091
22802520 49 18201151178204099385
23402539 116 18271513218070098853
23557571 272 18269285731839046108
23559900 14 18201432584962818096
2748010 2 15670406682239492841
2838139 119 16662306435699409661
3082319 5 18409453617590059076
58051976 100 18260549983059873970
69090 78 18410009905753785625
74978 22 18409451392696805408
81228 2 18192986252370004553
93112 12 18410578387830838564
9709674 26 18273216395830258646
9981440 41 17538565813637503592

> <PUBCHEM_SHAPE_MULTIPOLES>
299.68
7.54
2.47
0.89
4.88
0.91
-0.05
-1
1.2
-1.41
0.23
0.49
-0.01
-0.51

> <PUBCHEM_SHAPE_SELFOVERLAP>
604.982

> <PUBCHEM_SHAPE_VOLUME>
175.7

> <PUBCHEM_COORDINATE_TYPE>
2
5
10

$$$$
