124715
  -OEChem-03292013323D

 32 34  0     1  0  0  0  0  0999 V2000
    2.1321    0.1014    0.8821 O   0  0  0  0  0  0  0  0  0  0  0  0
    2.3665   -1.8848   -1.3837 O   0  0  0  0  0  0  0  0  0  0  0  0
    4.6941    0.9694    1.6312 O   0  0  0  0  0  0  0  0  0  0  0  0
   -0.1235   -0.1173    0.1640 N   0  0  0  0  0  0  0  0  0  0  0  0
   -1.6344    1.6761   -0.4013 N   0  0  0  0  0  0  0  0  0  0  0  0
   -3.9788    1.0462   -0.2151 N   0  0  0  0  0  0  0  0  0  0  0  0
   -4.6738   -1.1352    0.4603 N   0  0  0  0  0  0  0  0  0  0  0  0
    1.1464    0.5828   -0.0466 C   0  0  2  0  0  0  0  0  0  0  0  0
    1.7104    0.4238   -1.4559 C   0  0  0  0  0  0  0  0  0  0  0  0
    2.8533   -0.5507   -1.2754 C   0  0  1  0  0  0  0  0  0  0  0  0
    3.3062   -0.3056    0.1554 C   0  0  1  0  0  0  0  0  0  0  0  0
    4.3420    0.8063    0.2670 C   0  0  0  0  0  0  0  0  0  0  0  0
   -1.3775    0.4166   -0.0077 C   0  0  0  0  0  0  0  0  0  0  0  0
   -0.2455   -1.4255    0.5711 C   0  0  0  0  0  0  0  0  0  0  0  0
   -2.3126   -0.5657    0.2943 C   0  0  0  0  0  0  0  0  0  0  0  0
   -1.5875   -1.7287    0.6598 C   0  0  0  0  0  0  0  0  0  0  0  0
   -3.6548   -0.2077    0.1770 C   0  0  0  0  0  0  0  0  0  0  0  0
   -2.9624    1.8987   -0.4764 C   0  0  0  0  0  0  0  0  0  0  0  0
    0.9631    1.6384    0.1842 H   0  0  0  0  0  0  0  0  0  0  0  0
    2.1075    1.3906   -1.7876 H   0  0  0  0  0  0  0  0  0  0  0  0
    0.9640    0.0944   -2.1859 H   0  0  0  0  0  0  0  0  0  0  0  0
    3.6440   -0.4226   -2.0204 H   0  0  0  0  0  0  0  0  0  0  0  0
    3.6785   -1.2158    0.6384 H   0  0  0  0  0  0  0  0  0  0  0  0
    3.9457    1.7656   -0.0797 H   0  0  0  0  0  0  0  0  0  0  0  0
    5.2461    0.5724   -0.3034 H   0  0  0  0  0  0  0  0  0  0  0  0
    0.6232   -2.0386    0.7680 H   0  0  0  0  0  0  0  0  0  0  0  0
    3.1169   -2.4829   -1.2260 H   0  0  0  0  0  0  0  0  0  0  0  0
   -1.9926   -2.6863    0.9569 H   0  0  0  0  0  0  0  0  0  0  0  0
    5.0835    0.1326    1.9372 H   0  0  0  0  0  0  0  0  0  0  0  0
   -3.2554    2.8953   -0.7883 H   0  0  0  0  0  0  0  0  0  0  0  0
   -5.6387   -0.8483    0.3670 H   0  0  0  0  0  0  0  0  0  0  0  0
   -4.4478   -2.0754    0.7545 H   0  0  0  0  0  0  0  0  0  0  0  0
  1  8  1  0  0  0  0
  1 11  1  0  0  0  0
  2 10  1  0  0  0  0
  2 27  1  0  0  0  0
  3 12  1  0  0  0  0
  3 29  1  0  0  0  0
  4  8  1  0  0  0  0
  4 13  1  0  0  0  0
  4 14  1  0  0  0  0
  5 13  2  0  0  0  0
  5 18  1  0  0  0  0
  6 17  1  0  0  0  0
  6 18  2  0  0  0  0
  7 17  1  0  0  0  0
  7 31  1  0  0  0  0
  7 32  1  0  0  0  0
  8  9  1  0  0  0  0
  8 19  1  0  0  0  0
  9 10  1  0  0  0  0
  9 20  1  0  0  0  0
  9 21  1  0  0  0  0
 10 11  1  0  0  0  0
 10 22  1  0  0  0  0
 11 12  1  0  0  0  0
 11 23  1  0  0  0  0
 12 24  1  0  0  0  0
 12 25  1  0  0  0  0
 13 15  1  0  0  0  0
 14 16  2  0  0  0  0
 14 26  1  0  0  0  0
 15 16  1  0  0  0  0
 15 17  2  0  0  0  0
 16 28  1  0  0  0  0
 18 30  1  0  0  0  0
M  END
> <PUBCHEM_COMPOUND_CID>
124715

> <PUBCHEM_CONFORMER_RMSD>
0.6

> <PUBCHEM_CONFORMER_DIVERSEORDER>
13
11
25
1
10
23
8
5
17
20
18
15
22
19
4
6
16
7
21
9
2
3
24
14
12

> <PUBCHEM_MMFF94_PARTIAL_CHARGES>
23
1 -0.56
10 0.28
11 0.28
12 0.28
13 0.11
14 -0.3
16 -0.15
17 0.41
18 0.47
2 -0.68
26 0.15
27 0.4
28 0.15
29 0.4
3 -0.68
30 0.15
31 0.4
32 0.4
4 0.05
5 -0.57
6 -0.62
7 -0.9
8 0.54

> <PUBCHEM_EFFECTIVE_ROTOR_COUNT>
3

> <PUBCHEM_PHARMACOPHORE_FEATURES>
12
1 1 acceptor
1 2 acceptor
1 2 donor
1 3 acceptor
1 3 donor
1 7 cation
1 7 donor
3 4 5 13 cation
3 5 6 18 cation
5 1 8 9 10 11 rings
5 4 13 14 15 16 rings
6 5 6 13 15 17 18 rings

> <PUBCHEM_HEAVY_ATOM_COUNT>
18

> <PUBCHEM_ATOM_DEF_STEREO_COUNT>
2

> <PUBCHEM_ATOM_UDEF_STEREO_COUNT>
1

> <PUBCHEM_BOND_DEF_STEREO_COUNT>
0

> <PUBCHEM_BOND_UDEF_STEREO_COUNT>
0

> <PUBCHEM_ISOTOPIC_ATOM_COUNT>
0

> <PUBCHEM_COMPONENT_COUNT>
1

> <PUBCHEM_CACTVS_TAUTO_COUNT>
4

> <PUBCHEM_CONFORMER_ID>
0001E72B0000000D

> <PUBCHEM_MMFF94_ENERGY>
40.1573

> <PUBCHEM_FEATURE_SELFOVERLAP>
61.177

> <PUBCHEM_SHAPE_FINGERPRINT>
10608611 8 18412545388152103436
10646746 165 18336827494240961524
10922523 26 18339651044269457399
11132069 177 18261115140990651269
12236239 1 17022901263794904368
12403259 415 18342182132852856060
12788726 201 16881912133222055594
13140716 1 18044948015427801019
13538477 17 17168716347938744139
13581323 91 18187645816623944814
13675066 3 18334297560708249250
13862211 1 18187649180412136675
14144814 61 17967254173992506561
15219456 202 18201440250909345726
15375358 24 18343299279879944112
15536298 74 18263079933667304946
16945 1 18187094952993506491
17980427 23 18189891088446504716
18186145 218 18270692947671691677
19026448 4 18202004291647394701
19049666 15 18199475363564297240
200 152 16630529501172504138
20279233 1 18343589546602144006
204376 136 17346311661486693932
20510252 161 18411984633164451513
20645477 56 18410014333891435105
20645477 70 17417821599691623622
23402539 116 18335691784829190703
23557571 272 18411709793859231524
23559900 14 18339367370976197462
296302 2 17489868258436535396
43471831 8 18040714719446346267
474 4 15050865634183351458
495365 180 17916573238072681894
5104073 3 18337675209147594171
573450 72 17749381568298039512
69090 78 18273213110148791007
74978 22 17313964020206326238
77492 1 16877949342742975884
9709674 26 18410582789935141606

> <PUBCHEM_SHAPE_MULTIPOLES>
332.9
8.48
1.69
1.14
1.08
0.04
0.14
-1.22
-1.55
-1.12
0.12
1.45
0.07
1.03

> <PUBCHEM_SHAPE_SELFOVERLAP>
724.506

> <PUBCHEM_SHAPE_VOLUME>
179

> <PUBCHEM_COORDINATE_TYPE>
2
5
10

$$$$
