124789
  -OEChem-03292013323D

 36 38  0     1  0  0  0  0  0999 V2000
    2.8639   -3.0105    1.9977 Br  0  0  0  0  0  0  0  0  0  0  0  0
   -4.6431    1.2961    0.6465 P   0  0  0  0  0  0  0  0  0  0  0  0
   -0.7303   -0.5422    0.3710 O   0  0  0  0  0  0  0  0  0  0  0  0
   -1.7368   -2.5567   -2.4263 O   0  0  0  0  0  0  0  0  0  0  0  0
   -3.2056    0.7757    0.1154 O   0  0  0  0  0  0  0  0  0  0  0  0
   -4.9938    0.2846    1.8586 O   0  0  0  0  0  0  0  0  0  0  0  0
   -5.6513    0.8313   -0.5291 O   0  0  0  0  0  0  0  0  0  0  0  0
   -4.7015    2.7555    0.9915 O   0  0  0  0  0  0  0  0  0  0  0  0
    1.6124   -0.8826    0.4421 N   0  0  0  0  0  0  0  0  0  0  0  0
    3.7579   -0.5250    0.9545 N   0  0  0  0  0  0  0  0  0  0  0  0
    1.1452    1.1496   -0.8057 N   0  0  0  0  0  0  0  0  0  0  0  0
    3.1122    2.5883   -0.9352 N   0  0  0  0  0  0  0  0  0  0  0  0
    5.2032    1.9995    0.0686 N   0  0  0  0  0  0  0  0  0  0  0  0
   -1.3789   -2.2861   -1.0872 C   0  0  2  0  0  0  0  0  0  0  0  0
    0.3122   -1.5375    0.3627 C   0  0  2  0  0  0  0  0  0  0  0  0
   -1.6451   -0.8401   -0.6977 C   0  0  1  0  0  0  0  0  0  0  0  0
    0.1151   -2.3845   -0.8855 C   0  0  0  0  0  0  0  0  0  0  0  0
   -3.0685   -0.5926   -0.2318 C   0  0  0  0  0  0  0  0  0  0  0  0
    1.9411    0.3296   -0.1030 C   0  0  0  0  0  0  0  0  0  0  0  0
    2.7406   -1.3535    1.0672 C   0  0  0  0  0  0  0  0  0  0  0  0
    3.2721    0.5312    0.2253 C   0  0  0  0  0  0  0  0  0  0  0  0
    3.8576    1.7124   -0.2191 C   0  0  0  0  0  0  0  0  0  0  0  0
    1.8214    2.2574   -1.1804 C   0  0  0  0  0  0  0  0  0  0  0  0
   -1.9024   -2.9832   -0.4221 H   0  0  0  0  0  0  0  0  0  0  0  0
    0.1708   -2.1312    1.2716 H   0  0  0  0  0  0  0  0  0  0  0  0
   -1.4123   -0.1571   -1.5246 H   0  0  0  0  0  0  0  0  0  0  0  0
    0.4637   -3.4143   -0.7585 H   0  0  0  0  0  0  0  0  0  0  0  0
    0.6497   -1.9733   -1.7514 H   0  0  0  0  0  0  0  0  0  0  0  0
   -3.2864   -1.1991    0.6534 H   0  0  0  0  0  0  0  0  0  0  0  0
   -3.7781   -0.8459   -1.0253 H   0  0  0  0  0  0  0  0  0  0  0  0
   -1.4437   -3.4612   -2.6302 H   0  0  0  0  0  0  0  0  0  0  0  0
    1.2546    2.9812   -1.7561 H   0  0  0  0  0  0  0  0  0  0  0  0
    5.7616    1.3477    0.6029 H   0  0  0  0  0  0  0  0  0  0  0  0
    5.6056    2.8646   -0.2653 H   0  0  0  0  0  0  0  0  0  0  0  0
   -5.8026    0.4434    2.3903 H   0  0  0  0  0  0  0  0  0  0  0  0
   -6.5901    1.1128   -0.4882 H   0  0  0  0  0  0  0  0  0  0  0  0
  1 20  1  0  0  0  0
  2  5  1  0  0  0  0
  2  6  1  0  0  0  0
  2  7  1  0  0  0  0
  2  8  2  0  0  0  0
  3 15  1  0  0  0  0
  3 16  1  0  0  0  0
  4 14  1  0  0  0  0
  4 31  1  0  0  0  0
  5 18  1  0  0  0  0
  6 35  1  0  0  0  0
  7 36  1  0  0  0  0
  9 15  1  0  0  0  0
  9 19  1  0  0  0  0
  9 20  1  0  0  0  0
 10 20  2  0  0  0  0
 10 21  1  0  0  0  0
 11 19  2  0  0  0  0
 11 23  1  0  0  0  0
 12 22  1  0  0  0  0
 12 23  2  0  0  0  0
 13 22  1  0  0  0  0
 13 33  1  0  0  0  0
 13 34  1  0  0  0  0
 14 16  1  0  0  0  0
 14 17  1  0  0  0  0
 14 24  1  0  0  0  0
 15 17  1  0  0  0  0
 15 25  1  0  0  0  0
 16 18  1  0  0  0  0
 16 26  1  0  0  0  0
 17 27  1  0  0  0  0
 17 28  1  0  0  0  0
 18 29  1  0  0  0  0
 18 30  1  0  0  0  0
 19 21  1  0  0  0  0
 21 22  2  0  0  0  0
 23 32  1  0  0  0  0
M  END
> <PUBCHEM_COMPOUND_CID>
124789

> <PUBCHEM_CONFORMER_RMSD>
0.8

> <PUBCHEM_CONFORMER_DIVERSEORDER>
5
32
56
29
33
1
59
61
57
24
41
3
22
19
52
58
37
44
36
25
31
54
2
53
40
43
16
35
30
42
38
26
13
51
34
49
14
18
28
46
17
8
7
45
50
60
10
55
20
4
39
9
21
47
27
15
23
48
11
6
12

> <PUBCHEM_MMFF94_PARTIAL_CHARGES>
28
1 -0.06
10 -0.57
11 -0.57
12 -0.62
13 -0.9
14 0.28
15 0.54
16 0.28
18 0.28
19 0.11
2 1.51
20 0.24
21 0.23
22 0.41
23 0.47
3 -0.56
31 0.4
32 0.15
33 0.4
34 0.4
35 0.5
36 0.5
4 -0.68
5 -0.55
6 -0.77
7 -0.77
8 -0.7
9 0.05

> <PUBCHEM_EFFECTIVE_ROTOR_COUNT>
5

> <PUBCHEM_PHARMACOPHORE_FEATURES>
16
1 1 hydrophobe
1 13 cation
1 13 donor
1 3 acceptor
1 4 acceptor
1 4 donor
1 6 acceptor
1 7 acceptor
1 8 acceptor
3 11 12 23 cation
3 9 10 20 cation
3 9 11 19 cation
4 2 6 7 8 anion
5 3 14 15 16 17 rings
5 9 10 19 20 21 rings
6 11 12 19 21 22 23 rings

> <PUBCHEM_HEAVY_ATOM_COUNT>
23

> <PUBCHEM_ATOM_DEF_STEREO_COUNT>
2

> <PUBCHEM_ATOM_UDEF_STEREO_COUNT>
1

> <PUBCHEM_BOND_DEF_STEREO_COUNT>
0

> <PUBCHEM_BOND_UDEF_STEREO_COUNT>
0

> <PUBCHEM_ISOTOPIC_ATOM_COUNT>
0

> <PUBCHEM_COMPONENT_COUNT>
1

> <PUBCHEM_CACTVS_TAUTO_COUNT>
3

> <PUBCHEM_CONFORMER_ID>
0001E77500000005

> <PUBCHEM_MMFF94_ENERGY>
14.5294

> <PUBCHEM_FEATURE_SELFOVERLAP>
81.836

> <PUBCHEM_SHAPE_FINGERPRINT>
10382601 240 18113892763261753442
10906281 52 18043535113665415156
11045977 3 17530971254816267939
11640471 11 18341054111210907716
11725454 13 14906458976161982306
12293681 160 17185013511223215942
12403259 118 18338229367735496233
12422481 6 17907287763391289305
12553582 1 17971449846647291122
12633257 1 16226332632653694456
12644460 14 18040711450944137154
12788726 201 17984126326362009959
12892183 10 18041005029233600777
13583140 156 17822287943006671459
13965767 371 18269537369857364706
14251764 38 18047467830018330413
14294032 229 17775568659319379695
14739800 52 17915437567210440800
14790565 3 17896610681380254916
15188451 53 15358270402507719113
15475509 8 18198356052733762822
15842332 3 18268125695511795798
16752209 62 17702090568334358511
17818456 19 18059003982645216450
20715895 44 17834111940944840369
20739085 24 17894348874271007708
21041028 32 17753595855176956394
21503847 285 18335987475926137434
21756936 100 17900839441675674156
22849341 161 18192707848385036042
235170 7 13901614204874450529
23558518 356 17688595282894978540
23559900 14 17346606300722880556
23598288 3 18200587128845312015
23598291 2 18339624742254123246
25147074 1 18268410460385820022
266924 1 18195229221478286703
38570 142 18116454676931288564
4409770 3 15386706607363878751
474 4 18114456885398257544
5104073 3 18116140246744135144
621550 5 16444754818200720726
633830 44 18189902096716222302
7808743 9 18201439228680995913
7832392 63 18338514248378503844

> <PUBCHEM_SHAPE_MULTIPOLES>
423
10.22
3.47
1.57
10.47
0.29
-0.15
-7.14
4.02
-2.36
-0.18
0.8
1.06
-3.07

> <PUBCHEM_SHAPE_SELFOVERLAP>
878.492

> <PUBCHEM_SHAPE_VOLUME>
247.2

> <PUBCHEM_COORDINATE_TYPE>
2
5
10

$$$$
