124786
  -OEChem-03292013323D

 36 36  0     1  0  0  0  0  0999 V2000
   -0.9292    0.6275   -1.0991 O   0  0  0  0  0  0  0  0  0  0  0  0
   -3.0883   -2.6349   -0.2850 O   0  0  0  0  0  0  0  0  0  0  0  0
   -4.6174   -0.6185   -1.2260 O   0  0  0  0  0  0  0  0  0  0  0  0
    1.5459    2.8225    0.2730 O   0  0  0  0  0  0  0  0  0  0  0  0
    0.6179    4.8059   -0.3211 O   0  0  0  0  0  0  0  0  0  0  0  0
   -0.7111    1.6950    0.9509 N   0  0  0  0  0  0  0  0  0  0  0  0
   -3.6982   -0.4113   -0.1891 N   0  0  0  0  0  0  0  0  0  0  0  0
   -0.6356   -0.7300    0.8917 C   0  0  2  0  0  0  0  0  0  0  0  0
    0.0731   -1.7886    0.0196 C   0  0  0  0  0  0  0  0  0  0  0  0
   -2.0330   -1.1924    1.3513 C   0  0  0  0  0  0  0  0  0  0  0  0
    1.5627   -1.5826   -0.1002 C   0  0  0  0  0  0  0  0  0  0  0  0
   -0.7714    0.5858    0.1191 C   0  0  0  0  0  0  0  0  0  0  0  0
   -2.9778   -1.5134    0.2037 C   0  0  0  0  0  0  0  0  0  0  0  0
    2.0606   -0.8006   -1.1312 C   0  0  0  0  0  0  0  0  0  0  0  0
    2.4085   -2.1783    0.8229 C   0  0  0  0  0  0  0  0  0  0  0  0
   -0.8293    3.0528    0.4705 C   0  0  0  0  0  0  0  0  0  0  0  0
    3.4379   -0.6098   -1.2419 C   0  0  0  0  0  0  0  0  0  0  0  0
    3.7859   -1.9874    0.7120 C   0  0  0  0  0  0  0  0  0  0  0  0
    4.3005   -1.2031   -0.3204 C   0  0  0  0  0  0  0  0  0  0  0  0
    0.4984    3.6615    0.0992 C   0  0  0  0  0  0  0  0  0  0  0  0
   -0.0316   -0.5517    1.7914 H   0  0  0  0  0  0  0  0  0  0  0  0
   -0.3644   -1.8381   -0.9863 H   0  0  0  0  0  0  0  0  0  0  0  0
   -0.0977   -2.7846    0.4512 H   0  0  0  0  0  0  0  0  0  0  0  0
   -1.9423   -2.0958    1.9666 H   0  0  0  0  0  0  0  0  0  0  0  0
   -2.4914   -0.4275    1.9907 H   0  0  0  0  0  0  0  0  0  0  0  0
   -0.5701    1.5617    1.9479 H   0  0  0  0  0  0  0  0  0  0  0  0
    1.4042   -0.3412   -1.8633 H   0  0  0  0  0  0  0  0  0  0  0  0
    2.0176   -2.7886    1.6320 H   0  0  0  0  0  0  0  0  0  0  0  0
   -1.2723    3.6441    1.2766 H   0  0  0  0  0  0  0  0  0  0  0  0
   -1.4779    3.0670   -0.4103 H   0  0  0  0  0  0  0  0  0  0  0  0
    3.8389   -0.0010   -2.0471 H   0  0  0  0  0  0  0  0  0  0  0  0
    4.4577   -2.4488    1.4300 H   0  0  0  0  0  0  0  0  0  0  0  0
    5.3729   -1.0548   -0.4068 H   0  0  0  0  0  0  0  0  0  0  0  0
   -3.7240    0.4897    0.2745 H   0  0  0  0  0  0  0  0  0  0  0  0
   -4.0812   -0.3423   -1.9885 H   0  0  0  0  0  0  0  0  0  0  0  0
    2.3973    3.2402    0.0225 H   0  0  0  0  0  0  0  0  0  0  0  0
  1 12  2  0  0  0  0
  2 13  2  0  0  0  0
  3  7  1  0  0  0  0
  3 35  1  0  0  0  0
  4 20  1  0  0  0  0
  4 36  1  0  0  0  0
  5 20  2  0  0  0  0
  6 12  1  0  0  0  0
  6 16  1  0  0  0  0
  6 26  1  0  0  0  0
  7 13  1  0  0  0  0
  7 34  1  0  0  0  0
  8  9  1  0  0  0  0
  8 10  1  0  0  0  0
  8 12  1  0  0  0  0
  8 21  1  0  0  0  0
  9 11  1  0  0  0  0
  9 22  1  0  0  0  0
  9 23  1  0  0  0  0
 10 13  1  0  0  0  0
 10 24  1  0  0  0  0
 10 25  1  0  0  0  0
 11 14  2  0  0  0  0
 11 15  1  0  0  0  0
 14 17  1  0  0  0  0
 14 27  1  0  0  0  0
 15 18  2  0  0  0  0
 15 28  1  0  0  0  0
 16 20  1  0  0  0  0
 16 29  1  0  0  0  0
 16 30  1  0  0  0  0
 17 19  2  0  0  0  0
 17 31  1  0  0  0  0
 18 19  1  0  0  0  0
 18 32  1  0  0  0  0
 19 33  1  0  0  0  0
M  END
> <PUBCHEM_COMPOUND_CID>
124786

> <PUBCHEM_CONFORMER_RMSD>
0.8

> <PUBCHEM_CONFORMER_DIVERSEORDER>
1
88
259
342
319
275
289
99
211
122
260
44
300
123
334
65
224
190
181
63
45
218
179
328
155
316
272
105
238
53
332
140
258
131
245
171
95
136
343
326
257
216
121
100
141
76
346
166
329
331
225
340
317
295
7
133
208
81
324
183
189
232
31
39
250
201
87
210
82
83
145
276
111
298
284
149
92
325
268
172
154
112
69
128
157
110
97
115
302
306
200
256
41
345
310
333
288
222
98
163
244
170
174
151
195
290
315
277
109
338
198
226
219
292
241
55
337
251
10
304
23
78
91
27
117
58
330
52
230
242
162
158
21
318
252
312
314
127
228
168
160
18
135
147
285
233
75
9
49
293
4
237
61
186
148
6
59
347
269
177
71
70
239
266
150
120
64
204
206
202
11
129
213
282
212
25
33
106
249
15
253
50
51
262
175
60
36
263
203
323
255
32
184
54
193
96
240
220
301
66
182
138
209
103
278
336
296
46
270
156
305
137
152
217
297
67
280
191
17
303
3
142
13
265
80
5
139
126
134
254
8
30
86
227
24
321
74
89
130
261
124
34
159
77
215
196
273
291
173
104
194
236
90
187
167
344
248
43
180
229
28
161
19
274
102
101
320
221
62
40
118
339
48
188
264
283
47
169
14
132
341
281
267
176
22
57
165
68
119
116
164
113
308
26
309
56
307
178
37
207
199
214
197
125
85
146
311
235
114
29
20
84
271
79
335
294
42
243
153
2
313
35
73
72
192
185
108
144
327
279
143
223
93
107
205
16
38
247
286
94
287
234
246
12
299
231
322

> <PUBCHEM_MMFF94_PARTIAL_CHARGES>
29
1 -0.57
10 0.06
11 -0.14
12 0.57
13 0.57
14 -0.15
15 -0.15
16 0.36
17 -0.15
18 -0.15
19 -0.15
2 -0.57
20 0.66
26 0.37
27 0.15
28 0.15
3 -0.44
31 0.15
32 0.15
33 0.15
34 0.37
35 0.4
36 0.5
4 -0.65
5 -0.57
6 -0.73
7 -0.39
8 0.06
9 0.14

> <PUBCHEM_EFFECTIVE_ROTOR_COUNT>
9

> <PUBCHEM_PHARMACOPHORE_FEATURES>
8
1 1 acceptor
1 2 acceptor
1 4 acceptor
1 5 acceptor
1 6 donor
1 7 donor
3 4 5 20 anion
6 11 14 15 17 18 19 rings

> <PUBCHEM_HEAVY_ATOM_COUNT>
20

> <PUBCHEM_ATOM_DEF_STEREO_COUNT>
0

> <PUBCHEM_ATOM_UDEF_STEREO_COUNT>
1

> <PUBCHEM_BOND_DEF_STEREO_COUNT>
0

> <PUBCHEM_BOND_UDEF_STEREO_COUNT>
0

> <PUBCHEM_ISOTOPIC_ATOM_COUNT>
0

> <PUBCHEM_COMPONENT_COUNT>
1

> <PUBCHEM_CACTVS_TAUTO_COUNT>
6

> <PUBCHEM_CONFORMER_ID>
0001E77200000001

> <PUBCHEM_MMFF94_ENERGY>
42.6176

> <PUBCHEM_FEATURE_SELFOVERLAP>
40.656

> <PUBCHEM_SHAPE_FINGERPRINT>
10670039 82 18337125497375492916
107951 10 8646481990239136640
11833330 49 18338509738256674305
12173636 292 17762336911949896813
12553582 1 18339377291570332051
12592029 89 17763465423349836459
12788726 201 18189897504684493922
133893 2 18053965101407061649
14178342 30 17830447289821297850
14790565 3 17691972561841268721
167882 2 18050001391800829909
200 152 18260829276246686310
20600515 1 18201167589068636211
20671657 53 18341895203584352979
21304303 282 17327420685299722044
21339142 36 18409726227358619047
21524375 3 17109892145261435800
21731228 192 17183354919676220384
23402539 116 18270391677164729911
23419403 2 18044347591462657652
23557571 272 18129661873028029850
3298306 158 17905893934850892380
532947 4 18123472953824249024
6913067 236 17988343894009929854
7164475 11 18122059801956630982
7471813 234 18411412908640161366
81228 2 18127143982583531347
90316 7 18339649931899405386

> <PUBCHEM_SHAPE_MULTIPOLES>
372.28
6.54
4.64
1.12
1.97
7.91
-0.07
-5.6
-1.43
-1.93
0.36
-0.01
-0.28
-0.65

> <PUBCHEM_SHAPE_SELFOVERLAP>
760.921

> <PUBCHEM_SHAPE_VOLUME>
212.5

> <PUBCHEM_COORDINATE_TYPE>
2
5
10

$$$$
