124740
  -OEChem-03292013323D

 59 61  0     1  0  0  0  0  0999 V2000
    0.7539   -0.1604   -1.2290 O   0  0  0  0  0  0  0  0  0  0  0  0
    2.4164    1.0642   -0.1423 O   0  0  0  0  0  0  0  0  0  0  0  0
    2.3400   -2.4909   -0.9822 O   0  0  0  0  0  0  0  0  0  0  0  0
    5.2144   -1.8567   -0.8541 O   0  0  0  0  0  0  0  0  0  0  0  0
    5.7179    0.1569    1.1578 O   0  0  0  0  0  0  0  0  0  0  0  0
   -4.2534   -2.1200    1.0885 O   0  0  0  0  0  0  0  0  0  0  0  0
    2.8312    3.2326    1.4954 O   0  0  0  0  0  0  0  0  0  0  0  0
   -3.9281    4.8526   -0.7365 O   0  0  0  0  0  0  0  0  0  0  0  0
   -2.2163   -3.1504    0.2007 C   0  0  0  0  0  0  0  0  0  0  0  0
   -0.9593   -2.4466   -0.3861 C   0  0  0  0  0  0  0  0  0  0  0  0
   -1.2740   -0.9863   -0.2903 C   0  0  0  0  0  0  0  0  0  0  0  0
   -2.5214   -0.7335    0.2640 C   0  0  0  0  0  0  0  0  0  0  0  0
   -3.1488   -2.0054    0.5866 C   0  0  0  0  0  0  0  0  0  0  0  0
   -0.4706    0.0718   -0.6850 C   0  0  0  0  0  0  0  0  0  0  0  0
    1.8609   -0.2352   -0.3313 C   0  0  2  0  0  0  0  0  0  0  0  0
    2.8985   -1.1779   -0.9410 C   0  0  1  0  0  0  0  0  0  0  0  0
    4.1843   -1.1992   -0.1144 C   0  0  2  0  0  0  0  0  0  0  0  0
    4.6614    0.2182    0.2031 C   0  0  1  0  0  0  0  0  0  0  0  0
    3.5169    1.0626    0.7686 C   0  0  1  0  0  0  0  0  0  0  0  0
   -3.0190    0.5436    0.4484 C   0  0  0  0  0  0  0  0  0  0  0  0
   -1.8664   -3.9644    1.4476 C   0  0  0  0  0  0  0  0  0  0  0  0
   -2.8988   -4.0328   -0.8459 C   0  0  0  0  0  0  0  0  0  0  0  0
   -0.9461    1.3758   -0.5114 C   0  0  0  0  0  0  0  0  0  0  0  0
   -2.2118    1.6095    0.0516 C   0  0  0  0  0  0  0  0  0  0  0  0
    3.9381    2.5128    0.9837 C   0  0  0  0  0  0  0  0  0  0  0  0
   -2.6973    3.0147    0.2271 C   0  0  0  0  0  0  0  0  0  0  0  0
   -4.3627    0.7836    1.0472 C   0  0  0  0  0  0  0  0  0  0  0  0
   -0.0910    2.5300   -0.9323 C   0  0  0  0  0  0  0  0  0  0  0  0
   -3.4689    3.5308   -0.9885 C   0  0  0  0  0  0  0  0  0  0  0  0
   -0.7809   -2.7283   -1.4296 H   0  0  0  0  0  0  0  0  0  0  0  0
   -0.0651   -2.6777    0.2016 H   0  0  0  0  0  0  0  0  0  0  0  0
    1.5205   -0.6313    0.6364 H   0  0  0  0  0  0  0  0  0  0  0  0
    3.1101   -0.8872   -1.9774 H   0  0  0  0  0  0  0  0  0  0  0  0
    4.0462   -1.7829    0.8033 H   0  0  0  0  0  0  0  0  0  0  0  0
    5.0668    0.6825   -0.7041 H   0  0  0  0  0  0  0  0  0  0  0  0
    3.1724    0.6605    1.7312 H   0  0  0  0  0  0  0  0  0  0  0  0
   -2.7592   -4.4293    1.8812 H   0  0  0  0  0  0  0  0  0  0  0  0
   -1.4237   -3.3306    2.2247 H   0  0  0  0  0  0  0  0  0  0  0  0
   -1.1519   -4.7605    1.2114 H   0  0  0  0  0  0  0  0  0  0  0  0
   -3.8055   -4.4977   -0.4424 H   0  0  0  0  0  0  0  0  0  0  0  0
   -2.2307   -4.8323   -1.1840 H   0  0  0  0  0  0  0  0  0  0  0  0
   -3.1996   -3.4483   -1.7231 H   0  0  0  0  0  0  0  0  0  0  0  0
    4.2222    2.9835    0.0371 H   0  0  0  0  0  0  0  0  0  0  0  0
    4.7721    2.6018    1.6862 H   0  0  0  0  0  0  0  0  0  0  0  0
   -1.8652    3.6980    0.4402 H   0  0  0  0  0  0  0  0  0  0  0  0
   -3.2960    3.1259    1.1396 H   0  0  0  0  0  0  0  0  0  0  0  0
   -4.8048    1.7504    0.7989 H   0  0  0  0  0  0  0  0  0  0  0  0
   -5.0945    0.0626    0.6696 H   0  0  0  0  0  0  0  0  0  0  0  0
   -4.3094    0.6988    2.1372 H   0  0  0  0  0  0  0  0  0  0  0  0
    0.3961    2.9786   -0.0611 H   0  0  0  0  0  0  0  0  0  0  0  0
    0.6828    2.2369   -1.6487 H   0  0  0  0  0  0  0  0  0  0  0  0
   -0.6639    3.2995   -1.4560 H   0  0  0  0  0  0  0  0  0  0  0  0
    3.0174   -3.0829   -1.3516 H   0  0  0  0  0  0  0  0  0  0  0  0
    5.3435   -1.3733   -1.6878 H   0  0  0  0  0  0  0  0  0  0  0  0
    5.3648   -0.2420    1.9713 H   0  0  0  0  0  0  0  0  0  0  0  0
   -4.3384    2.9050   -1.2148 H   0  0  0  0  0  0  0  0  0  0  0  0
   -2.8450    3.5574   -1.8864 H   0  0  0  0  0  0  0  0  0  0  0  0
    2.5892    2.8356    2.3493 H   0  0  0  0  0  0  0  0  0  0  0  0
   -4.5124    4.8163    0.0399 H   0  0  0  0  0  0  0  0  0  0  0  0
  1 14  1  0  0  0  0
  1 15  1  0  0  0  0
  2 15  1  0  0  0  0
  2 19  1  0  0  0  0
  3 16  1  0  0  0  0
  3 53  1  0  0  0  0
  4 17  1  0  0  0  0
  4 54  1  0  0  0  0
  5 18  1  0  0  0  0
  5 55  1  0  0  0  0
  6 13  2  0  0  0  0
  7 25  1  0  0  0  0
  7 58  1  0  0  0  0
  8 29  1  0  0  0  0
  8 59  1  0  0  0  0
  9 10  1  0  0  0  0
  9 13  1  0  0  0  0
  9 21  1  0  0  0  0
  9 22  1  0  0  0  0
 10 11  1  0  0  0  0
 10 30  1  0  0  0  0
 10 31  1  0  0  0  0
 11 12  2  0  0  0  0
 11 14  1  0  0  0  0
 12 13  1  0  0  0  0
 12 20  1  0  0  0  0
 14 23  2  0  0  0  0
 15 16  1  0  0  0  0
 15 32  1  0  0  0  0
 16 17  1  0  0  0  0
 16 33  1  0  0  0  0
 17 18  1  0  0  0  0
 17 34  1  0  0  0  0
 18 19  1  0  0  0  0
 18 35  1  0  0  0  0
 19 25  1  0  0  0  0
 19 36  1  0  0  0  0
 20 24  2  0  0  0  0
 20 27  1  0  0  0  0
 21 37  1  0  0  0  0
 21 38  1  0  0  0  0
 21 39  1  0  0  0  0
 22 40  1  0  0  0  0
 22 41  1  0  0  0  0
 22 42  1  0  0  0  0
 23 24  1  0  0  0  0
 23 28  1  0  0  0  0
 24 26  1  0  0  0  0
 25 43  1  0  0  0  0
 25 44  1  0  0  0  0
 26 29  1  0  0  0  0
 26 45  1  0  0  0  0
 26 46  1  0  0  0  0
 27 47  1  0  0  0  0
 27 48  1  0  0  0  0
 27 49  1  0  0  0  0
 28 50  1  0  0  0  0
 28 51  1  0  0  0  0
 28 52  1  0  0  0  0
 29 56  1  0  0  0  0
 29 57  1  0  0  0  0
M  END
> <PUBCHEM_COMPOUND_CID>
124740

> <PUBCHEM_CONFORMER_RMSD>
0.8

> <PUBCHEM_CONFORMER_DIVERSEORDER>
1
16
92
20
32
89
82
73
64
55
87
81
4
61
41
35
46
63
91
57
71
7
6
58
83
88
59
8
36
56
47
40
5
48
43
34
79
74
17
31
3
68
12
80
23
54
25
49
66
27
45
9
75
70
24
33
84
77
28
72
51
30
50
39
21
85
37
38
90
22
19
44
65
2
13
60
53
67
18
78
62
69
11
76
29
42
15
86
52
26
10
14

> <PUBCHEM_MMFF94_PARTIAL_CHARGES>
32
1 -0.36
10 0.14
11 -0.14
12 0.09
13 0.42
14 0.08
15 0.56
16 0.28
17 0.28
18 0.28
19 0.28
2 -0.56
20 -0.14
23 -0.14
24 -0.14
25 0.28
26 0.14
27 0.14
28 0.14
29 0.28
3 -0.68
4 -0.68
5 -0.68
53 0.4
54 0.4
55 0.4
58 0.4
59 0.4
6 -0.57
7 -0.68
8 -0.68
9 0.06

> <PUBCHEM_EFFECTIVE_ROTOR_COUNT>
6.6

> <PUBCHEM_PHARMACOPHORE_FEATURES>
17
1 1 acceptor
1 2 acceptor
1 3 acceptor
1 3 donor
1 4 acceptor
1 4 donor
1 5 acceptor
1 5 donor
1 6 acceptor
1 7 acceptor
1 7 donor
1 8 acceptor
1 8 donor
3 9 21 22 hydrophobe
5 9 10 11 12 13 rings
6 11 12 14 20 23 24 rings
6 2 15 16 17 18 19 rings

> <PUBCHEM_HEAVY_ATOM_COUNT>
29

> <PUBCHEM_ATOM_DEF_STEREO_COUNT>
5

> <PUBCHEM_ATOM_UDEF_STEREO_COUNT>
0

> <PUBCHEM_BOND_DEF_STEREO_COUNT>
0

> <PUBCHEM_BOND_UDEF_STEREO_COUNT>
0

> <PUBCHEM_ISOTOPIC_ATOM_COUNT>
0

> <PUBCHEM_COMPONENT_COUNT>
1

> <PUBCHEM_CACTVS_TAUTO_COUNT>
1

> <PUBCHEM_CONFORMER_ID>
0001E74400000001

> <PUBCHEM_MMFF94_ENERGY>
100.0574

> <PUBCHEM_FEATURE_SELFOVERLAP>
86.417

> <PUBCHEM_SHAPE_FINGERPRINT>
10319926 262 18339351986588440386
11552529 35 17988083429638438122
11720765 8 17053556932869483991
12422481 6 18122098444579084971
12553582 1 17976558417744670215
12633257 1 18412822478325641690
12788726 201 18115322192375064723
13004483 165 18125710434153906471
131258 38 15510586997490237291
13140716 1 18192159419562658515
13583140 156 18201434796469873404
138480 1 16463328662217522135
14081887 123 18339923821889777706
14178342 30 18335140920766138086
14223421 5 18341894159938610750
15042514 8 18335995258934645291
15230672 131 17973732377179027206
15361156 5 18337399348110208054
1813 80 17386286613800283758
18393751 57 16977002400212684320
21033648 29 18267013973234072568
21049683 118 18118940539261310009
21065198 57 18412263926466210206
21796203 349 16963259599549303778
22122407 14 16343433881113316411
22182313 1 17758424889156173957
23558518 356 18334293197269350780
23559900 14 18413389860616831084
3380486 145 18121780788634101231
350125 39 18269278031611790476
392239 28 18193552496568759666
469060 322 17194007464988258556
508706 21 18410849932832488148
5104073 3 18341327877460035002
5385378 56 17616260182841941633
6004065 56 17548969414018500039
6287921 2 18266181828179487492
6371380 46 18050564037433682294
9709674 26 18343866610753203422
9777508 108 18410571747690040589

> <PUBCHEM_SHAPE_MULTIPOLES>
549.85
9.9
5.54
1.19
11.02
1.4
0.14
0.77
2.29
-6.75
-0.32
0.15
-0.02
2.34

> <PUBCHEM_SHAPE_SELFOVERLAP>
1171.59

> <PUBCHEM_SHAPE_VOLUME>
308.3

> <PUBCHEM_COORDINATE_TYPE>
2
5
10

$$$$
