124769
  -OEChem-03292013323D

 37 36  0     1  0  0  0  0  0999 V2000
    2.9974    2.1466    0.6281 O   0  0  0  0  0  0  0  0  0  0  0  0
   -3.1227    2.1078    1.8280 O   0  0  0  0  0  0  0  0  0  0  0  0
    4.8049    1.0485    1.4496 O   0  0  0  0  0  0  0  0  0  0  0  0
   -3.5695   -0.0348    2.4241 O   0  0  0  0  0  0  0  0  0  0  0  0
   -2.3042   -0.0534   -2.7755 O   0  5  0  0  0  0  0  0  0  0  0  0
   -1.5340    1.9394   -2.2370 O   0  0  0  0  0  0  0  0  0  0  0  0
   -2.3943   -1.0453    0.2269 N   0  0  0  0  0  0  0  0  0  0  0  0
   -0.0602   -1.2774    0.2430 N   0  0  0  0  0  0  0  0  0  0  0  0
    5.0156   -0.5510   -0.6589 N   0  0  0  0  0  0  0  0  0  0  0  0
   -2.2623    0.9512   -2.0459 N   0  3  0  0  0  0  0  0  0  0  0  0
   -1.5430   -3.1553    0.1025 N   0  0  0  0  0  0  0  0  0  0  0  0
    2.5727   -0.3984   -0.8279 C   0  0  0  0  0  0  0  0  0  0  0  0
    2.3829   -1.3967    0.3235 C   0  0  0  0  0  0  0  0  0  0  0  0
    3.8913    0.3805   -0.7085 C   0  0  1  0  0  0  0  0  0  0  0  0
    1.0849   -2.1881    0.1991 C   0  0  0  0  0  0  0  0  0  0  0  0
   -2.4213    0.3949    0.3191 C   0  0  1  0  0  0  0  0  0  0  0  0
   -3.1592    0.9847   -0.8752 C   0  0  0  0  0  0  0  0  0  0  0  0
   -1.2414   -1.8122    0.1930 C   0  0  0  0  0  0  0  0  0  0  0  0
    3.9663    1.1950    0.5700 C   0  0  0  0  0  0  0  0  0  0  0  0
   -3.1040    0.7640    1.6220 C   0  0  0  0  0  0  0  0  0  0  0  0
    2.5521   -0.9374   -1.7837 H   0  0  0  0  0  0  0  0  0  0  0  0
    1.7368    0.3110   -0.8473 H   0  0  0  0  0  0  0  0  0  0  0  0
    3.2113   -2.1135    0.3528 H   0  0  0  0  0  0  0  0  0  0  0  0
    2.3800   -0.8648    1.2824 H   0  0  0  0  0  0  0  0  0  0  0  0
    4.0182    1.0570   -1.5605 H   0  0  0  0  0  0  0  0  0  0  0  0
    1.0926   -2.7496   -0.7430 H   0  0  0  0  0  0  0  0  0  0  0  0
    1.0363   -2.9018    1.0303 H   0  0  0  0  0  0  0  0  0  0  0  0
   -1.4049    0.8031    0.3877 H   0  0  0  0  0  0  0  0  0  0  0  0
   -4.0657    0.4251   -1.1331 H   0  0  0  0  0  0  0  0  0  0  0  0
   -3.4413    2.0323   -0.7245 H   0  0  0  0  0  0  0  0  0  0  0  0
   -3.2932   -1.5189    0.1909 H   0  0  0  0  0  0  0  0  0  0  0  0
    5.8929   -0.0318   -0.6760 H   0  0  0  0  0  0  0  0  0  0  0  0
    5.0152   -1.1325   -1.4962 H   0  0  0  0  0  0  0  0  0  0  0  0
   -0.8251   -3.8698    0.0632 H   0  0  0  0  0  0  0  0  0  0  0  0
   -2.5052   -3.4746    0.0691 H   0  0  0  0  0  0  0  0  0  0  0  0
    3.0558    2.6774    1.4509 H   0  0  0  0  0  0  0  0  0  0  0  0
   -3.5545    2.3410    2.6773 H   0  0  0  0  0  0  0  0  0  0  0  0
  1 19  1  0  0  0  0
  1 36  1  0  0  0  0
  2 20  1  0  0  0  0
  2 37  1  0  0  0  0
  3 19  2  0  0  0  0
  4 20  2  0  0  0  0
  5 10  1  0  0  0  0
  6 10  2  0  0  0  0
  7 16  1  0  0  0  0
  7 18  1  0  0  0  0
  7 31  1  0  0  0  0
  8 15  1  0  0  0  0
  8 18  2  0  0  0  0
  9 14  1  0  0  0  0
  9 32  1  0  0  0  0
  9 33  1  0  0  0  0
 10 17  1  0  0  0  0
 11 18  1  0  0  0  0
 11 34  1  0  0  0  0
 11 35  1  0  0  0  0
 12 13  1  0  0  0  0
 12 14  1  0  0  0  0
 12 21  1  0  0  0  0
 12 22  1  0  0  0  0
 13 15  1  0  0  0  0
 13 23  1  0  0  0  0
 13 24  1  0  0  0  0
 14 19  1  0  0  0  0
 14 25  1  0  0  0  0
 15 26  1  0  0  0  0
 15 27  1  0  0  0  0
 16 17  1  0  0  0  0
 16 20  1  0  0  0  0
 16 28  1  0  0  0  0
 17 29  1  0  0  0  0
 17 30  1  0  0  0  0
M  CHG  2   5  -1  10   1
M  END
> <PUBCHEM_COMPOUND_CID>
124769

> <PUBCHEM_CONFORMER_RMSD>
1

> <PUBCHEM_CONFORMER_DIVERSEORDER>
1
80
68
22
79
14
92
52
26
33
25
57
84
34
97
85
82
62
67
70
28
69
94
19
51
83
55
27
58
66
96
39
13
78
64
45
46
21
81
6
93
3
50
73
49
31
29
87
75
17
15
40
5
18
20
86
54
32
2
56
77
11
41
24
63
44
48
91
74
42
72
61
12
30
76
43
88
47
10
59
71
53
8
90
9
89
35
4
7
38
23
95
37
60
16
36
65

> <PUBCHEM_MMFF94_PARTIAL_CHARGES>
25
1 -0.65
10 0.8
11 -0.85
14 0.33
15 0.25
16 0.43
17 0.24
18 0.55
19 0.66
2 -0.65
20 0.66
3 -0.57
31 0.4
32 0.36
33 0.36
34 0.4
35 0.4
36 0.5
37 0.5
4 -0.57
5 -0.52
6 -0.52
7 -0.82
8 -0.7
9 -0.99

> <PUBCHEM_EFFECTIVE_ROTOR_COUNT>
10

> <PUBCHEM_PHARMACOPHORE_FEATURES>
14
1 1 acceptor
1 11 donor
1 2 acceptor
1 3 acceptor
1 4 acceptor
1 5 acceptor
1 5 anion
1 6 acceptor
1 7 donor
1 9 cation
1 9 donor
3 1 3 19 anion
3 2 4 20 anion
4 7 8 11 18 cation

> <PUBCHEM_HEAVY_ATOM_COUNT>
20

> <PUBCHEM_ATOM_DEF_STEREO_COUNT>
2

> <PUBCHEM_ATOM_UDEF_STEREO_COUNT>
0

> <PUBCHEM_BOND_DEF_STEREO_COUNT>
0

> <PUBCHEM_BOND_UDEF_STEREO_COUNT>
0

> <PUBCHEM_ISOTOPIC_ATOM_COUNT>
0

> <PUBCHEM_COMPONENT_COUNT>
1

> <PUBCHEM_CACTVS_TAUTO_COUNT>
6

> <PUBCHEM_CONFORMER_ID>
0001E76100000001

> <PUBCHEM_MMFF94_ENERGY>
29.2319

> <PUBCHEM_FEATURE_SELFOVERLAP>
71.301

> <PUBCHEM_SHAPE_FINGERPRINT>
11615756 256 18270409420186144232
12173636 292 18202008724212126979
12596599 1 17846487124086186476
12633257 1 18409450332024662128
13135754 10 12029834398540022295
13583140 156 16950550095847148888
14123250 116 18131345319439399959
14251764 38 17987510576081205008
14468879 13 17677038028644497397
15295992 7 17463686494483001527
1741750 31 18343025497142785746
18186145 218 18413110563426026794
18219364 16 18335138691419616104
19433438 15 16773801381299771430
20871999 31 15195561308147138559
21095088 737 17843944048079992240
21486144 27 18342469114056995406
21864079 5 18129666292037460656
22182937 141 18272101520819725931
23503958 25 17967255278110507172
27216 239 17749389226625407989
312425 83 16415488129730753488
469060 322 17823420572816134667
59027123 10 16988563498548117124
6049 1 17533794705728673559
633830 44 18060706091644321438
81228 2 17972329669911834418
9981440 41 17532909663498031887

> <PUBCHEM_SHAPE_MULTIPOLES>
351.47
9.05
2.55
2.1
8.94
1.08
0.66
-3.95
-2.09
-0.47
-0.27
-2.58
-1.19
0.65

> <PUBCHEM_SHAPE_SELFOVERLAP>
686.854

> <PUBCHEM_SHAPE_VOLUME>
209.4

> <PUBCHEM_COORDINATE_TYPE>
2
5
10

$$$$
