124720
  -OEChem-03292013323D

 43 46  0     1  0  0  0  0  0999 V2000
   -5.1824    1.2102    0.8655 O   0  0  0  0  0  0  0  0  0  0  0  0
   -2.5660   -2.7785    1.0801 O   0  0  0  0  0  0  0  0  0  0  0  0
   -0.3531    2.7004    0.5454 O   0  0  0  0  0  0  0  0  0  0  0  0
   -0.2215   -2.7783   -0.0989 O   0  0  0  0  0  0  0  0  0  0  0  0
   -3.6278    1.1505   -1.9940 O   0  0  0  0  0  0  0  0  0  0  0  0
    2.1550    2.6934    0.3167 O   0  0  0  0  0  0  0  0  0  0  0  0
    2.2725   -2.6154   -0.2716 O   0  0  0  0  0  0  0  0  0  0  0  0
   -4.0453    0.5742    0.2874 C   0  0  2  0  0  0  0  0  0  0  0  0
   -3.9493   -0.8394    0.8472 C   0  0  0  0  0  0  0  0  0  0  0  0
   -2.7860    1.3776    0.6188 C   0  0  0  0  0  0  0  0  0  0  0  0
   -2.7405   -1.5988    0.2963 C   0  0  1  0  0  0  0  0  0  0  0  0
   -1.4968    0.6187    0.4146 C   0  0  0  0  0  0  0  0  0  0  0  0
   -1.4672   -0.7825    0.2945 C   0  0  0  0  0  0  0  0  0  0  0  0
   -0.2928    1.3430    0.3881 C   0  0  0  0  0  0  0  0  0  0  0  0
   -0.2314   -1.4247    0.0981 C   0  0  0  0  0  0  0  0  0  0  0  0
   -4.3458    0.5645   -1.1852 C   0  0  0  0  0  0  0  0  0  0  0  0
    0.9317    0.6901    0.2120 C   0  0  0  0  0  0  0  0  0  0  0  0
    0.9622   -0.6936    0.0623 C   0  0  0  0  0  0  0  0  0  0  0  0
    2.1821    1.4764    0.1814 C   0  0  0  0  0  0  0  0  0  0  0  0
    2.2456   -1.3985   -0.1363 C   0  0  0  0  0  0  0  0  0  0  0  0
   -5.5666   -0.1993   -1.6219 C   0  0  0  0  0  0  0  0  0  0  0  0
    3.4662    0.7734   -0.0144 C   0  0  0  0  0  0  0  0  0  0  0  0
    3.4968   -0.6141   -0.1683 C   0  0  0  0  0  0  0  0  0  0  0  0
    4.6587    1.5060   -0.0464 C   0  0  0  0  0  0  0  0  0  0  0  0
    4.7200   -1.2693   -0.3541 C   0  0  0  0  0  0  0  0  0  0  0  0
    5.8756    0.8493   -0.2319 C   0  0  0  0  0  0  0  0  0  0  0  0
    5.9061   -0.5354   -0.3853 C   0  0  0  0  0  0  0  0  0  0  0  0
   -4.8663   -1.4184    0.6794 H   0  0  0  0  0  0  0  0  0  0  0  0
   -3.8802   -0.7847    1.9442 H   0  0  0  0  0  0  0  0  0  0  0  0
   -2.8269    1.6828    1.6739 H   0  0  0  0  0  0  0  0  0  0  0  0
   -2.7797    2.3100    0.0392 H   0  0  0  0  0  0  0  0  0  0  0  0
   -2.9438   -1.9081   -0.7367 H   0  0  0  0  0  0  0  0  0  0  0  0
   -5.1685    2.1482    0.6083 H   0  0  0  0  0  0  0  0  0  0  0  0
   -3.3850   -3.2987    1.0132 H   0  0  0  0  0  0  0  0  0  0  0  0
   -5.3623   -1.2722   -1.6126 H   0  0  0  0  0  0  0  0  0  0  0  0
   -6.4238    0.0292   -0.9848 H   0  0  0  0  0  0  0  0  0  0  0  0
   -5.8241    0.0952   -2.6440 H   0  0  0  0  0  0  0  0  0  0  0  0
    0.5227    3.0669    0.7372 H   0  0  0  0  0  0  0  0  0  0  0  0
   -1.1195   -3.1377   -0.1578 H   0  0  0  0  0  0  0  0  0  0  0  0
    4.6616    2.5864    0.0708 H   0  0  0  0  0  0  0  0  0  0  0  0
    4.7705   -2.3480   -0.4761 H   0  0  0  0  0  0  0  0  0  0  0  0
    6.8005    1.4182   -0.2568 H   0  0  0  0  0  0  0  0  0  0  0  0
    6.8549   -1.0442   -0.5295 H   0  0  0  0  0  0  0  0  0  0  0  0
  1  8  1  0  0  0  0
  1 33  1  0  0  0  0
  2 11  1  0  0  0  0
  2 34  1  0  0  0  0
  3 14  1  0  0  0  0
  3 38  1  0  0  0  0
  4 15  1  0  0  0  0
  4 39  1  0  0  0  0
  5 16  2  0  0  0  0
  6 19  2  0  0  0  0
  7 20  2  0  0  0  0
  8  9  1  0  0  0  0
  8 10  1  0  0  0  0
  8 16  1  0  0  0  0
  9 11  1  0  0  0  0
  9 28  1  0  0  0  0
  9 29  1  0  0  0  0
 10 12  1  0  0  0  0
 10 30  1  0  0  0  0
 10 31  1  0  0  0  0
 11 13  1  0  0  0  0
 11 32  1  0  0  0  0
 12 13  2  0  0  0  0
 12 14  1  0  0  0  0
 13 15  1  0  0  0  0
 14 17  2  0  0  0  0
 15 18  2  0  0  0  0
 16 21  1  0  0  0  0
 17 18  1  0  0  0  0
 17 19  1  0  0  0  0
 18 20  1  0  0  0  0
 19 22  1  0  0  0  0
 20 23  1  0  0  0  0
 21 35  1  0  0  0  0
 21 36  1  0  0  0  0
 21 37  1  0  0  0  0
 22 23  1  0  0  0  0
 22 24  2  0  0  0  0
 23 25  2  0  0  0  0
 24 26  1  0  0  0  0
 24 40  1  0  0  0  0
 25 27  1  0  0  0  0
 25 41  1  0  0  0  0
 26 27  2  0  0  0  0
 26 42  1  0  0  0  0
 27 43  1  0  0  0  0
M  END
> <PUBCHEM_COMPOUND_CID>
124720

> <PUBCHEM_CONFORMER_RMSD>
0.6

> <PUBCHEM_CONFORMER_DIVERSEORDER>
2
1
4
3

> <PUBCHEM_MMFF94_PARTIAL_CHARGES>
34
1 -0.68
10 0.14
11 0.42
12 -0.14
13 -0.14
14 0.08
15 0.08
16 0.45
17 0.09
18 0.09
19 0.4
2 -0.68
20 0.4
21 0.06
22 0.09
23 0.09
24 -0.15
25 -0.15
26 -0.15
27 -0.15
3 -0.53
33 0.4
34 0.4
38 0.45
39 0.45
4 -0.53
40 0.15
41 0.15
42 0.15
43 0.15
5 -0.57
6 -0.57
7 -0.57
8 0.34

> <PUBCHEM_EFFECTIVE_ROTOR_COUNT>
1.8

> <PUBCHEM_PHARMACOPHORE_FEATURES>
13
1 1 acceptor
1 1 donor
1 2 acceptor
1 2 donor
1 3 donor
1 4 donor
1 5 acceptor
1 6 acceptor
1 7 acceptor
6 12 13 14 15 17 18 rings
6 17 18 19 20 22 23 rings
6 22 23 24 25 26 27 rings
6 8 9 10 11 12 13 rings

> <PUBCHEM_HEAVY_ATOM_COUNT>
27

> <PUBCHEM_ATOM_DEF_STEREO_COUNT>
2

> <PUBCHEM_ATOM_UDEF_STEREO_COUNT>
0

> <PUBCHEM_BOND_DEF_STEREO_COUNT>
0

> <PUBCHEM_BOND_UDEF_STEREO_COUNT>
0

> <PUBCHEM_ISOTOPIC_ATOM_COUNT>
0

> <PUBCHEM_COMPONENT_COUNT>
1

> <PUBCHEM_CACTVS_TAUTO_COUNT>
54

> <PUBCHEM_CONFORMER_ID>
0001E73000000002

> <PUBCHEM_MMFF94_ENERGY>
85.1347

> <PUBCHEM_FEATURE_SELFOVERLAP>
66.046

> <PUBCHEM_SHAPE_FINGERPRINT>
105312 117 17749378244499696447
10693767 8 18059560365483275758
10906281 52 18270982157852840969
10967382 1 18339930324665462202
11112241 14 16986292032100738120
12011746 2 18411702076029685164
12236239 1 17561082492918033161
12403259 415 18260545623758213621
12788726 201 18200309892694997384
12838862 33 18339908386642712960
12969540 114 18337378392299859863
13140716 1 18339931509902317408
13402501 40 18409451396827989075
13583140 156 16950565484614724449
13862211 1 18342172237786159246
14294032 229 16056043417084381937
14790565 3 18196664998838182601
15099037 51 18411700997723874788
15183329 4 18408884023348344708
15196674 1 18411705417535405306
15788980 27 16877944936222594088
15880784 105 16559023917584774720
1601671 61 18409450289111496528
17349148 13 18272930501084124528
18608769 82 18334298712830558155
19591789 44 18268153239236837170
200 152 17775283858977600777
20775438 99 16621191577031599071
21033648 144 18410287055645980844
21033648 29 18113605777478654901
21267235 1 18339936985943629386
21279426 13 18338802208729522790
21421861 104 17968937462366255066
21521239 73 18130489925590127471
21709351 56 18336827601715234662
21857420 4 12704170918510535372
21859007 373 17969758853487589596
221357 26 18339912758629348293
221490 88 18265342887642498130
22182313 1 18268450038403925078
22393880 68 18336812165834855303
23402539 116 18060701675779916933
23559900 14 18412544349276543728
23569914 152 16976735785358620580
3004659 81 18261397733228317614
335352 9 18411705370285444990
34797466 226 15626221372937281320
34934 24 18411138026106128850
350125 39 18265623254560149603
3545911 37 18408326591990100906
3680242 22 18335703780883994842
4015057 19 18342452694571258753
4214541 1 18409172137917233762
4340502 62 16950290580832300098
484989 97 18194398012632074695
5104073 3 18410858797924484690
5283173 99 18187640258831275756
59755656 215 18339649949902259398
9709674 26 18199197200123728342

> <PUBCHEM_SHAPE_MULTIPOLES>
514.56
12.24
2.59
1.02
3.57
0.54
0.37
-1.36
2.96
0.38
-0.42
-1.56
-0.09
0.6

> <PUBCHEM_SHAPE_SELFOVERLAP>
1165.346

> <PUBCHEM_SHAPE_VOLUME>
265

> <PUBCHEM_COORDINATE_TYPE>
2
5
10

$$$$
