124836
  -OEChem-03292013323D

 33 32  0     1  0  0  0  0  0999 V2000
   -0.3902    2.5839   -0.6323 Cl  0  0  0  0  0  0  0  0  0  0  0  0
    3.7328   -2.9029   -0.8773 Cl  0  0  0  0  0  0  0  0  0  0  0  0
   -4.6390    1.8951   -0.2979 Cl  0  0  0  0  0  0  0  0  0  0  0  0
    0.6802   -0.1652    1.4760 O   0  0  0  0  0  0  0  0  0  0  0  0
   -2.9950   -1.2498   -1.2606 O   0  0  0  0  0  0  0  0  0  0  0  0
    4.3582    1.0740    1.7014 O   0  0  0  0  0  0  0  0  0  0  0  0
    3.5846    1.8930   -0.2685 O   0  0  0  0  0  0  0  0  0  0  0  0
   -1.5760   -0.0992    0.1685 N   0  0  0  0  0  0  0  0  0  0  0  0
    1.9872   -0.3543   -0.4309 N   0  0  0  0  0  0  0  0  0  0  0  0
   -4.2618   -1.8003    1.2932 N   0  0  0  0  0  0  0  0  0  0  0  0
   -0.4135   -0.1469   -0.6863 C   0  0  2  0  0  0  0  0  0  0  0  0
    0.7877   -0.2117    0.2520 C   0  0  0  0  0  0  0  0  0  0  0  0
    3.2540   -0.4641    0.2526 C   0  0  1  0  0  0  0  0  0  0  0  0
   -3.8717   -0.4589    0.8555 C   0  0  1  0  0  0  0  0  0  0  0  0
   -0.3865    1.0816   -1.5943 C   0  0  0  0  0  0  0  0  0  0  0  0
   -2.7885   -0.6650   -0.1989 C   0  0  0  0  0  0  0  0  0  0  0  0
    4.2841   -1.2396   -0.5574 C   0  0  0  0  0  0  0  0  0  0  0  0
   -5.0926    0.2807    0.3104 C   0  0  0  0  0  0  0  0  0  0  0  0
    3.7459    0.9494    0.4947 C   0  0  0  0  0  0  0  0  0  0  0  0
   -0.4391   -1.0615   -1.2896 H   0  0  0  0  0  0  0  0  0  0  0  0
   -1.5036    0.3978    1.0519 H   0  0  0  0  0  0  0  0  0  0  0  0
    3.0811   -0.9462    1.2225 H   0  0  0  0  0  0  0  0  0  0  0  0
   -3.4739    0.0864    1.7192 H   0  0  0  0  0  0  0  0  0  0  0  0
   -1.2712    1.1116   -2.2382 H   0  0  0  0  0  0  0  0  0  0  0  0
    0.5012    1.1036   -2.2323 H   0  0  0  0  0  0  0  0  0  0  0  0
    1.9880   -0.3571   -1.4466 H   0  0  0  0  0  0  0  0  0  0  0  0
    4.4710   -0.7662   -1.5273 H   0  0  0  0  0  0  0  0  0  0  0  0
    5.2384   -1.3006   -0.0244 H   0  0  0  0  0  0  0  0  0  0  0  0
   -5.8519    0.4217    1.0864 H   0  0  0  0  0  0  0  0  0  0  0  0
   -5.5499   -0.2559   -0.5276 H   0  0  0  0  0  0  0  0  0  0  0  0
   -4.9980   -1.7303    1.9948 H   0  0  0  0  0  0  0  0  0  0  0  0
   -3.4730   -2.2520    1.7552 H   0  0  0  0  0  0  0  0  0  0  0  0
    4.6568    1.9938    1.8662 H   0  0  0  0  0  0  0  0  0  0  0  0
  1 15  1  0  0  0  0
  2 17  1  0  0  0  0
  3 18  1  0  0  0  0
  4 12  2  0  0  0  0
  5 16  2  0  0  0  0
  6 19  1  0  0  0  0
  6 33  1  0  0  0  0
  7 19  2  0  0  0  0
  8 11  1  0  0  0  0
  8 16  1  0  0  0  0
  8 21  1  0  0  0  0
  9 12  1  0  0  0  0
  9 13  1  0  0  0  0
  9 26  1  0  0  0  0
 10 14  1  0  0  0  0
 10 31  1  0  0  0  0
 10 32  1  0  0  0  0
 11 12  1  0  0  0  0
 11 15  1  0  0  0  0
 11 20  1  0  0  0  0
 13 17  1  0  0  0  0
 13 19  1  0  0  0  0
 13 22  1  0  0  0  0
 14 16  1  0  0  0  0
 14 18  1  0  0  0  0
 14 23  1  0  0  0  0
 15 24  1  0  0  0  0
 15 25  1  0  0  0  0
 17 27  1  0  0  0  0
 17 28  1  0  0  0  0
 18 29  1  0  0  0  0
 18 30  1  0  0  0  0
M  END
> <PUBCHEM_COMPOUND_CID>
124836

> <PUBCHEM_CONFORMER_RMSD>
1

> <PUBCHEM_CONFORMER_DIVERSEORDER>
1
4
13
15
10
9
27
17
30
26
28
11
33
12
22
19
38
35
18
14
20
37
3
23
21
7
25
36
24
32
8
29
2
16
31
5
6
34

> <PUBCHEM_MMFF94_PARTIAL_CHARGES>
24
1 -0.29
10 -0.99
11 0.36
12 0.57
13 0.36
14 0.33
15 0.29
16 0.57
17 0.29
18 0.29
19 0.66
2 -0.29
21 0.37
26 0.37
3 -0.29
31 0.36
32 0.36
33 0.5
4 -0.57
5 -0.57
6 -0.65
7 -0.57
8 -0.73
9 -0.73

> <PUBCHEM_EFFECTIVE_ROTOR_COUNT>
10

> <PUBCHEM_PHARMACOPHORE_FEATURES>
9
1 10 cation
1 10 donor
1 4 acceptor
1 5 acceptor
1 6 acceptor
1 7 acceptor
1 8 donor
1 9 donor
3 6 7 19 anion

> <PUBCHEM_HEAVY_ATOM_COUNT>
19

> <PUBCHEM_ATOM_DEF_STEREO_COUNT>
3

> <PUBCHEM_ATOM_UDEF_STEREO_COUNT>
0

> <PUBCHEM_BOND_DEF_STEREO_COUNT>
0

> <PUBCHEM_BOND_UDEF_STEREO_COUNT>
0

> <PUBCHEM_ISOTOPIC_ATOM_COUNT>
0

> <PUBCHEM_COMPONENT_COUNT>
1

> <PUBCHEM_CACTVS_TAUTO_COUNT>
4

> <PUBCHEM_CONFORMER_ID>
0001E7A400000001

> <PUBCHEM_MMFF94_ENERGY>
29.1509

> <PUBCHEM_FEATURE_SELFOVERLAP>
45.731

> <PUBCHEM_SHAPE_FINGERPRINT>
11405975 8 18340486660195193922
12670546 56 17632859702557831785
12892183 10 18202570600449981251
13583140 156 17345743222111550107
13675066 3 18409452487950168319
13760787 19 17704071836805603046
14252887 29 18335707164911976610
14573314 32 18339645542616564213
15048467 5 18060419152815407648
15239154 128 17917993909826954201
15848702 151 18409730672633692685
17349148 13 14923937925572454512
17844677 252 18410584984852879113
1813 80 17167867464985462237
18186145 218 17385441029192019310
19026448 4 18411140229487375811
20281475 54 18060131063610251070
20600515 1 17531247296279813508
20645477 70 17917994936466751294
21033648 29 18059563686236417153
23402539 116 18260261958279233418
23557571 272 18188209806049252900
23559900 14 18337112263589268686
23622692 88 17603875481903880717
31174 14 18272088280136827630
45790113 53 18200871756538494758
5104073 3 18411419488186953563
6049 1 18337948970742777316
621550 34 18412818110576159076
633830 44 18187080658967902942
90127 26 18410016520208870683

> <PUBCHEM_SHAPE_MULTIPOLES>
358.2
10.93
2.41
1.29
3.09
0.1
-0.12
-1.71
-1.86
-1.04
0.51
-0.22
-0.02
1.73

> <PUBCHEM_SHAPE_SELFOVERLAP>
672.116

> <PUBCHEM_SHAPE_VOLUME>
224.2

> <PUBCHEM_COORDINATE_TYPE>
2
5
10

$$$$
