124804
  -OEChem-03292013323D

 37 38  0     1  0  0  0  0  0999 V2000
   -7.1629   -0.0278    0.4711 P   0  0  1  0  0  0  0  0  0  0  0  0
   -7.2730    1.4045   -0.1678 F   0  0  0  0  0  0  0  0  0  0  0  0
   -5.5803   -0.1812    0.7676 O   0  0  0  0  0  0  0  0  0  0  0  0
    3.2755    2.7187    0.0344 O   0  0  0  0  0  0  0  0  0  0  0  0
   -8.0004   -0.0955    1.7166 O   0  0  0  0  0  0  0  0  0  0  0  0
    6.1983   -1.9619    0.8091 O   0  5  0  0  0  0  0  0  0  0  0  0
    6.3581    0.2138    1.0531 O   0  0  0  0  0  0  0  0  0  0  0  0
    2.1533    2.0803   -0.4651 N   0  0  0  0  0  0  0  0  0  0  0  0
    4.2780    1.8212    0.3588 N   0  0  0  0  0  0  0  0  0  0  0  0
    5.7078   -0.8073    0.7095 N   0  3  0  0  0  0  0  0  0  0  0  0
   -0.7783   -0.2854   -0.2938 C   0  0  0  0  0  0  0  0  0  0  0  0
   -2.1930   -0.1414   -0.8573 C   0  0  0  0  0  0  0  0  0  0  0  0
    0.2712   -0.2151   -1.4050 C   0  0  0  0  0  0  0  0  0  0  0  0
   -3.2441   -0.2445    0.2456 C   0  0  0  0  0  0  0  0  0  0  0  0
    1.6713   -0.3209   -0.8567 C   0  0  0  0  0  0  0  0  0  0  0  0
   -4.6524   -0.0598   -0.3016 C   0  0  0  0  0  0  0  0  0  0  0  0
    2.4425    0.7730   -0.4587 C   0  0  0  0  0  0  0  0  0  0  0  0
    2.2785   -1.5718   -0.7196 C   0  0  0  0  0  0  0  0  0  0  0  0
    3.7931    0.6084    0.0649 C   0  0  0  0  0  0  0  0  0  0  0  0
    4.3990   -0.6543    0.2009 C   0  0  0  0  0  0  0  0  0  0  0  0
    3.5937   -1.7322   -0.2096 C   0  0  0  0  0  0  0  0  0  0  0  0
   -7.5359   -1.3209   -0.6963 C   0  0  0  0  0  0  0  0  0  0  0  0
   -0.6902   -1.2402    0.2400 H   0  0  0  0  0  0  0  0  0  0  0  0
   -0.5960    0.5064    0.4439 H   0  0  0  0  0  0  0  0  0  0  0  0
   -2.3720   -0.9211   -1.6076 H   0  0  0  0  0  0  0  0  0  0  0  0
   -2.2869    0.8254   -1.3666 H   0  0  0  0  0  0  0  0  0  0  0  0
    0.1017   -1.0130   -2.1390 H   0  0  0  0  0  0  0  0  0  0  0  0
    0.1697    0.7291   -1.9545 H   0  0  0  0  0  0  0  0  0  0  0  0
   -3.1728   -1.2171    0.7483 H   0  0  0  0  0  0  0  0  0  0  0  0
   -3.0566    0.5084    1.0214 H   0  0  0  0  0  0  0  0  0  0  0  0
   -4.7653    0.9278   -0.7604 H   0  0  0  0  0  0  0  0  0  0  0  0
   -4.8586   -0.8256   -1.0543 H   0  0  0  0  0  0  0  0  0  0  0  0
    1.7337   -2.4694   -1.0093 H   0  0  0  0  0  0  0  0  0  0  0  0
    3.9738   -2.7515   -0.1428 H   0  0  0  0  0  0  0  0  0  0  0  0
   -7.2574   -2.2983   -0.2932 H   0  0  0  0  0  0  0  0  0  0  0  0
   -8.6088   -1.3307   -0.9089 H   0  0  0  0  0  0  0  0  0  0  0  0
   -7.0137   -1.1696   -1.6440 H   0  0  0  0  0  0  0  0  0  0  0  0
  1  2  1  0  0  0  0
  1  3  1  0  0  0  0
  1  5  2  0  0  0  0
  1 22  1  0  0  0  0
  3 16  1  0  0  0  0
  4  8  1  0  0  0  0
  4  9  1  0  0  0  0
  6 10  1  0  0  0  0
  7 10  2  0  0  0  0
  8 17  2  0  0  0  0
  9 19  2  0  0  0  0
 10 20  1  0  0  0  0
 11 12  1  0  0  0  0
 11 13  1  0  0  0  0
 11 23  1  0  0  0  0
 11 24  1  0  0  0  0
 12 14  1  0  0  0  0
 12 25  1  0  0  0  0
 12 26  1  0  0  0  0
 13 15  1  0  0  0  0
 13 27  1  0  0  0  0
 13 28  1  0  0  0  0
 14 16  1  0  0  0  0
 14 29  1  0  0  0  0
 14 30  1  0  0  0  0
 15 17  1  0  0  0  0
 15 18  2  0  0  0  0
 16 31  1  0  0  0  0
 16 32  1  0  0  0  0
 17 19  1  0  0  0  0
 18 21  1  0  0  0  0
 18 33  1  0  0  0  0
 19 20  1  0  0  0  0
 20 21  2  0  0  0  0
 21 34  1  0  0  0  0
 22 35  1  0  0  0  0
 22 36  1  0  0  0  0
 22 37  1  0  0  0  0
M  CHG  2   6  -1  10   1
M  END
> <PUBCHEM_COMPOUND_CID>
124804

> <PUBCHEM_CONFORMER_RMSD>
0.8

> <PUBCHEM_CONFORMER_DIVERSEORDER>
1
23
311
47
114
48
371
417
157
94
56
353
107
81
111
11
66
50
181
12
76
392
391
58
139
18
421
25
41
24
140
143
17
339
343
252
213
150
355
215
115
334
62
4
131
341
214
84
141
198
45
308
37
88
396
126
117
137
13
199
130
122
208
105
54
303
253
415
75
300
19
340
369
86
2
132
234
129
212
55
182
69
92
44
401
216
26
310
87
22
444
28
161
237
229
72
65
116
32
124
260
338
31
238
73
80
220
38
162
46
221
278
267
123
320
176
319
9
240
77
363
441
324
321
399
110
313
7
30
113
284
154
179
64
8
258
70
51
27
95
121
59
195
274
226
244
6
172
336
52
165
183
135
151
289
138
158
61
367
118
128
159
82
282
241
364
184
196
247
104
68
60
323
231
178
193
211
16
426
39
285
384
40
10
424
79
49
299
393
242
63
170
217
377
409
106
228
147
436
335
306
34
90
218
281
192
262
268
188
14
201
102
326
153
230
197
382
185
42
152
29
187
273
125
374
20
307
96
394
177
43
163
246
21
108
239
366
351
225
148
440
439
378
3
276
85
173
160
359
264
109
227
445
429
249
15
222
292
405
272
255
315
83
171
362
283
250
248
309
224
261
431
438
103
35
243
271
167
420
293
209
332
304
434
233
287
204
245
430
145
387
390
101
219
403
33
269
190
295
144
381
348
435
411
191
254
134
291
149
156
91
361
89
194
53
175
78
186
413
263
318
5
36
99
333
93
136
356
207
346
259
164
423
328
386
155
71
112
297
166
330
312
305
210
257
314
422
316
376
349
345
57
350
67
375
327
97
280
120
347
406
206
402
331
133
372
322
286
380
337
98
329
379
265
360
127
232
352
203
119
408
357
205
142
325
302
294
236
385
189
365
251
373
410
74
301
298
100
407
395
275
266
400
223
256
398
270
146
433
180
235
169
202
383
200
168
414
279
425
296
354
344
174
427
277
442
317
437
404
432
342
288
290
358
370
389
368
418
419
428
443
388
412
397
416

> <PUBCHEM_MMFF94_PARTIAL_CHARGES>
20
1 1.3
10 0.91
13 0.14
15 -0.14
16 0.28
17 0.29
18 -0.15
19 0.29
2 -0.33
20 0.13
21 -0.15
3 -0.55
33 0.15
34 0.15
4 0.24
5 -0.7
6 -0.52
7 -0.52
8 -0.41
9 -0.41

> <PUBCHEM_EFFECTIVE_ROTOR_COUNT>
8

> <PUBCHEM_PHARMACOPHORE_FEATURES>
8
1 6 acceptor
1 6 anion
1 7 acceptor
1 8 acceptor
1 9 acceptor
4 11 12 13 14 hydrophobe
5 4 8 9 17 19 rings
6 15 17 18 19 20 21 rings

> <PUBCHEM_HEAVY_ATOM_COUNT>
22

> <PUBCHEM_ATOM_DEF_STEREO_COUNT>
0

> <PUBCHEM_ATOM_UDEF_STEREO_COUNT>
1

> <PUBCHEM_BOND_DEF_STEREO_COUNT>
0

> <PUBCHEM_BOND_UDEF_STEREO_COUNT>
0

> <PUBCHEM_ISOTOPIC_ATOM_COUNT>
0

> <PUBCHEM_COMPONENT_COUNT>
1

> <PUBCHEM_CACTVS_TAUTO_COUNT>
1

> <PUBCHEM_CONFORMER_ID>
0001E78400000001

> <PUBCHEM_MMFF94_ENERGY>
44.5586

> <PUBCHEM_FEATURE_SELFOVERLAP>
40.858

> <PUBCHEM_SHAPE_FINGERPRINT>
10162869 55 18130775786060594231
10299344 5 11386363738894429661
10354089 29 18272652346597214062
10688039 33 18187081732821127372
10693767 8 11458964453191410696
11638347 137 18187088360788582107
11724838 91 17988920098121144071
12236239 1 17561074826506892318
12616971 3 18202558501711595293
13167372 99 18272374148839130529
13533116 47 18335424538926423499
13668630 136 14345796037349560651
13685833 64 17095243609553202167
14170010 4 18411980261130057622
14251764 18 18408323297955874349
14341114 176 18260829310674502924
15348495 7 18188216511020573155
15475509 35 16951107514388842648
15840311 113 17704068534740780136
20157964 124 18272093798932582071
21150785 3 10592039159799018859
21267235 1 18338798919365004566
21315763 28 18410572899469055367
22224240 67 18411975875763304706
22956985 138 14492407035210854912
23016692 55 14418132919983031407
3472631 163 15195276569074436864
351380 3 13840265905482630571
4073 2 18042127716246852595
5104073 3 18269267031383050067
59755656 215 16588016892880513819

> <PUBCHEM_SHAPE_MULTIPOLES>
405.04
22.12
1.83
1.07
40.54
0.7
-0.08
-2.27
-8.39
-2.8
0.07
0.57
-0.13
-0.64

> <PUBCHEM_SHAPE_SELFOVERLAP>
820.617

> <PUBCHEM_SHAPE_VOLUME>
238.5

> <PUBCHEM_COORDINATE_TYPE>
2
5
10

$$$$
