124812
  -OEChem-03292013323D

 32 33  0     0  0  0  0  0  0999 V2000
   -0.8552   -1.5090   -0.2277 S   0  0  0  0  0  0  0  0  0  0  0  0
   -0.2229   -1.2985   -1.5163 O   0  0  0  0  0  0  0  0  0  0  0  0
   -1.3033   -2.8337    0.1587 O   0  0  0  0  0  0  0  0  0  0  0  0
    4.9795    1.1503   -0.3743 O   0  0  0  0  0  0  0  0  0  0  0  0
    2.1502   -2.4767   -0.2015 O   0  0  0  0  0  0  0  0  0  0  0  0
    0.1160   -0.8570    0.9970 N   0  0  0  0  0  0  0  0  0  0  0  0
    3.5663   -0.6438   -0.2840 N   0  0  0  0  0  0  0  0  0  0  0  0
    2.8820    1.4858    0.5234 N   0  0  0  0  0  0  0  0  0  0  0  0
   -5.5672    2.1078    0.0449 N   0  0  0  0  0  0  0  0  0  0  0  0
   -2.2567   -0.4332   -0.1464 C   0  0  0  0  0  0  0  0  0  0  0  0
    1.3861   -0.3880    0.6261 C   0  0  0  0  0  0  0  0  0  0  0  0
   -2.2721    0.7143   -0.9195 C   0  0  0  0  0  0  0  0  0  0  0  0
   -3.3107   -0.7597    0.6888 C   0  0  0  0  0  0  0  0  0  0  0  0
   -3.3772    1.5630   -0.8553 C   0  0  0  0  0  0  0  0  0  0  0  0
   -4.4158    0.0890    0.7527 C   0  0  0  0  0  0  0  0  0  0  0  0
   -4.4490    1.2503   -0.0193 C   0  0  0  0  0  0  0  0  0  0  0  0
    2.3785   -1.2918    0.0110 C   0  0  0  0  0  0  0  0  0  0  0  0
    1.6788    0.8992    0.8398 C   0  0  0  0  0  0  0  0  0  0  0  0
    3.7564    0.6964   -0.0163 C   0  0  0  0  0  0  0  0  0  0  0  0
    5.1362    2.5352   -0.0821 C   0  0  0  0  0  0  0  0  0  0  0  0
   -0.3742   -0.2185    1.6395 H   0  0  0  0  0  0  0  0  0  0  0  0
   -1.4441    0.9786   -1.5699 H   0  0  0  0  0  0  0  0  0  0  0  0
   -3.2999   -1.6549    1.3028 H   0  0  0  0  0  0  0  0  0  0  0  0
   -3.3905    2.4660   -1.4605 H   0  0  0  0  0  0  0  0  0  0  0  0
   -5.2442   -0.1647    1.4092 H   0  0  0  0  0  0  0  0  0  0  0  0
    0.9547    1.5727    1.2883 H   0  0  0  0  0  0  0  0  0  0  0  0
    4.3211   -1.1721   -0.7109 H   0  0  0  0  0  0  0  0  0  0  0  0
   -6.3438    1.8822    0.6522 H   0  0  0  0  0  0  0  0  0  0  0  0
   -5.5912    2.9508   -0.5132 H   0  0  0  0  0  0  0  0  0  0  0  0
    6.1428    2.8263   -0.3978 H   0  0  0  0  0  0  0  0  0  0  0  0
    5.0623    2.7271    0.9939 H   0  0  0  0  0  0  0  0  0  0  0  0
    4.4257    3.1460   -0.6498 H   0  0  0  0  0  0  0  0  0  0  0  0
  1  2  2  0  0  0  0
  1  3  2  0  0  0  0
  1  6  1  0  0  0  0
  1 10  1  0  0  0  0
  4 19  1  0  0  0  0
  4 20  1  0  0  0  0
  5 17  2  0  0  0  0
  6 11  1  0  0  0  0
  6 21  1  0  0  0  0
  7 17  1  0  0  0  0
  7 19  1  0  0  0  0
  7 27  1  0  0  0  0
  8 18  1  0  0  0  0
  8 19  2  0  0  0  0
  9 16  1  0  0  0  0
  9 28  1  0  0  0  0
  9 29  1  0  0  0  0
 10 12  2  0  0  0  0
 10 13  1  0  0  0  0
 11 17  1  0  0  0  0
 11 18  2  0  0  0  0
 12 14  1  0  0  0  0
 12 22  1  0  0  0  0
 13 15  2  0  0  0  0
 13 23  1  0  0  0  0
 14 16  2  0  0  0  0
 14 24  1  0  0  0  0
 15 16  1  0  0  0  0
 15 25  1  0  0  0  0
 18 26  1  0  0  0  0
 20 30  1  0  0  0  0
 20 31  1  0  0  0  0
 20 32  1  0  0  0  0
M  END
> <PUBCHEM_COMPOUND_CID>
124812

> <PUBCHEM_CONFORMER_RMSD>
0.6

> <PUBCHEM_CONFORMER_DIVERSEORDER>
1
5
12
6
11
8
10
16
9
22
7
15
21
4
14
3
13
20
19
18
17
2

> <PUBCHEM_MMFF94_PARTIAL_CHARGES>
29
1 1.45
10 -0.01
11 0.21
12 -0.15
13 -0.15
14 -0.15
15 -0.15
16 0.1
17 0.62
18 0.02
19 0.66
2 -0.65
20 0.28
21 0.42
22 0.15
23 0.15
24 0.15
25 0.15
26 0.15
27 0.37
28 0.4
29 0.4
3 -0.65
4 -0.43
5 -0.57
6 -0.75
7 -0.49
8 -0.62
9 -0.9

> <PUBCHEM_EFFECTIVE_ROTOR_COUNT>
4

> <PUBCHEM_PHARMACOPHORE_FEATURES>
9
1 2 acceptor
1 3 acceptor
1 5 acceptor
1 6 donor
1 7 donor
1 9 cation
1 9 donor
6 10 12 13 14 15 16 rings
6 7 8 11 17 18 19 rings

> <PUBCHEM_HEAVY_ATOM_COUNT>
20

> <PUBCHEM_ATOM_DEF_STEREO_COUNT>
0

> <PUBCHEM_ATOM_UDEF_STEREO_COUNT>
0

> <PUBCHEM_BOND_DEF_STEREO_COUNT>
0

> <PUBCHEM_BOND_UDEF_STEREO_COUNT>
0

> <PUBCHEM_ISOTOPIC_ATOM_COUNT>
0

> <PUBCHEM_COMPONENT_COUNT>
1

> <PUBCHEM_CACTVS_TAUTO_COUNT>
3

> <PUBCHEM_CONFORMER_ID>
0001E78C00000001

> <PUBCHEM_MMFF94_ENERGY>
58.7139

> <PUBCHEM_FEATURE_SELFOVERLAP>
45.69

> <PUBCHEM_SHAPE_FINGERPRINT>
10498660 4 18114734950261061069
11796584 16 12103847825941897549
11806522 49 9871753498784001466
12403259 415 18042688300179390701
12507560 40 18333737909711834339
12730499 353 18409738347793336203
12892183 10 17385443194166831523
13544653 18 9583512144506087427
14341114 328 16370734750351578716
15196674 1 18410292510180021745
15342168 16 18409728448262880085
17834072 32 18410011048188790613
18186145 218 18131351877944326579
19784866 34 18341327881575445666
200 152 10809337858292684787
20621476 66 18335142042370170452
20645477 56 18336264625733487864
20645477 70 17703804608678635526
21250096 35 8646478631442867501
21652331 79 18334293154383228181
231179 274 18342461447766900414
23227448 37 18264490757235218364
23402655 69 18201718453036730136
23559900 14 17532102596146526407
25 1 18412823603580984890
474 4 18200029539189741659
5104073 3 18186801374397990946
56616090 163 18410301323933110726
633830 44 18340482249649065319
6442390 28 17968101927491203627
76465 3 9439406826043557708
7808743 9 18263078967373399328
9999458 23 18191305979217052287

> <PUBCHEM_SHAPE_MULTIPOLES>
372.04
10.83
2.56
0.95
0.88
0.34
0.09
-8.94
-0.16
0.7
0.21
-0.31
0.05
0.42

> <PUBCHEM_SHAPE_SELFOVERLAP>
783.201

> <PUBCHEM_SHAPE_VOLUME>
209.8

> <PUBCHEM_COORDINATE_TYPE>
2
5
10

$$$$
