124855
  -OEChem-03292013323D

 35 37  0     0  0  0  0  0  0999 V2000
    2.0694   -0.4928   -0.8367 O   0  0  0  0  0  0  0  0  0  0  0  0
   -0.4769    0.5186   -0.5486 O   0  0  0  0  0  0  0  0  0  0  0  0
   -1.9078    2.2907   -0.6076 O   0  0  0  0  0  0  0  0  0  0  0  0
    7.6727    1.2061    0.8964 O   0  0  0  0  0  0  0  0  0  0  0  0
    6.0478    2.5793    0.1020 O   0  0  0  0  0  0  0  0  0  0  0  0
   -4.6648    1.7794   -0.5678 N   0  0  0  0  0  0  0  0  0  0  0  0
   -5.0430    0.2061    1.0163 N   0  0  0  0  0  0  0  0  0  0  0  0
   -5.8904    1.8318   -0.0278 N   0  0  0  0  0  0  0  0  0  0  0  0
   -6.1589    0.9179    0.9152 N   0  0  0  0  0  0  0  0  0  0  0  0
   -0.2419   -0.8457   -0.3019 C   0  0  0  0  0  0  0  0  0  0  0  0
   -1.2834   -1.6784    0.0850 C   0  0  0  0  0  0  0  0  0  0  0  0
    4.1993    0.4683   -0.2181 C   0  0  0  0  0  0  0  0  0  0  0  0
    1.0591   -1.3203   -0.4565 C   0  0  0  0  0  0  0  0  0  0  0  0
    3.3795   -0.8072   -0.3661 C   0  0  0  0  0  0  0  0  0  0  0  0
    5.6108    0.1926    0.3030 C   0  0  0  0  0  0  0  0  0  0  0  0
   -2.6156   -1.1149    0.2219 C   0  0  0  0  0  0  0  0  0  0  0  0
   -1.0148   -3.0282    0.3249 C   0  0  0  0  0  0  0  0  0  0  0  0
   -2.8579    0.1857   -0.0105 C   0  0  0  0  0  0  0  0  0  0  0  0
    1.3199   -2.6674   -0.2154 C   0  0  0  0  0  0  0  0  0  0  0  0
    0.2852   -3.5200    0.1748 C   0  0  0  0  0  0  0  0  0  0  0  0
   -1.7392    1.0910   -0.4109 C   0  0  0  0  0  0  0  0  0  0  0  0
   -4.1785    0.7487    0.1188 C   0  0  0  0  0  0  0  0  0  0  0  0
    6.4295    1.4588    0.4097 C   0  0  0  0  0  0  0  0  0  0  0  0
    3.6769    1.1617    0.4536 H   0  0  0  0  0  0  0  0  0  0  0  0
    4.2448    0.9822   -1.1869 H   0  0  0  0  0  0  0  0  0  0  0  0
    3.3457   -1.2927    0.6180 H   0  0  0  0  0  0  0  0  0  0  0  0
    3.8621   -1.4795   -1.0850 H   0  0  0  0  0  0  0  0  0  0  0  0
    6.1302   -0.4912   -0.3774 H   0  0  0  0  0  0  0  0  0  0  0  0
    5.5555   -0.2641    1.2972 H   0  0  0  0  0  0  0  0  0  0  0  0
   -3.4107   -1.7962    0.5115 H   0  0  0  0  0  0  0  0  0  0  0  0
   -1.8066   -3.7091    0.6272 H   0  0  0  0  0  0  0  0  0  0  0  0
    2.3060   -3.1025   -0.3468 H   0  0  0  0  0  0  0  0  0  0  0  0
    0.4890   -4.5717    0.3558 H   0  0  0  0  0  0  0  0  0  0  0  0
   -6.5753    2.5223   -0.3163 H   0  0  0  0  0  0  0  0  0  0  0  0
    8.2105    2.0235    0.9672 H   0  0  0  0  0  0  0  0  0  0  0  0
  1 13  1  0  0  0  0
  1 14  1  0  0  0  0
  2 10  1  0  0  0  0
  2 21  1  0  0  0  0
  3 21  2  0  0  0  0
  4 23  1  0  0  0  0
  4 35  1  0  0  0  0
  5 23  2  0  0  0  0
  6  8  1  0  0  0  0
  6 22  2  0  0  0  0
  7  9  2  0  0  0  0
  7 22  1  0  0  0  0
  8  9  1  0  0  0  0
  8 34  1  0  0  0  0
 10 11  2  0  0  0  0
 10 13  1  0  0  0  0
 11 16  1  0  0  0  0
 11 17  1  0  0  0  0
 12 14  1  0  0  0  0
 12 15  1  0  0  0  0
 12 24  1  0  0  0  0
 12 25  1  0  0  0  0
 13 19  2  0  0  0  0
 14 26  1  0  0  0  0
 14 27  1  0  0  0  0
 15 23  1  0  0  0  0
 15 28  1  0  0  0  0
 15 29  1  0  0  0  0
 16 18  2  0  0  0  0
 16 30  1  0  0  0  0
 17 20  2  0  0  0  0
 17 31  1  0  0  0  0
 18 21  1  0  0  0  0
 18 22  1  0  0  0  0
 19 20  1  0  0  0  0
 19 32  1  0  0  0  0
 20 33  1  0  0  0  0
M  END
> <PUBCHEM_COMPOUND_CID>
124855

> <PUBCHEM_CONFORMER_RMSD>
0.8

> <PUBCHEM_CONFORMER_DIVERSEORDER>
2
13
39
21
49
46
18
22
34
9
29
11
24
45
55
43
8
44
50
19
56
51
16
31
41
47
48
12
52
5
27
20
6
36
7
37
14
30
25
28
15
26
53
10
4
40
3
42
33
1
35
32
38
17
23
54

> <PUBCHEM_MMFF94_PARTIAL_CHARGES>
28
1 -0.36
10 0.08
11 0.03
13 0.08
14 0.28
15 0.06
16 -0.18
17 -0.15
18 0.06
19 -0.15
2 -0.23
20 -0.15
21 0.71
22 0.47
23 0.66
3 -0.57
30 0.15
31 0.15
32 0.15
33 0.15
34 0.27
35 0.5
4 -0.65
5 -0.57
6 -0.71
7 -0.23
8 0.57
9 -0.42

> <PUBCHEM_EFFECTIVE_ROTOR_COUNT>
6

> <PUBCHEM_PHARMACOPHORE_FEATURES>
9
1 1 acceptor
1 3 acceptor
1 4 acceptor
1 5 acceptor
3 4 5 23 anion
3 6 7 22 cation
5 6 7 8 9 22 rings
6 10 11 13 17 19 20 rings
6 2 10 11 16 18 21 rings

> <PUBCHEM_HEAVY_ATOM_COUNT>
23

> <PUBCHEM_ATOM_DEF_STEREO_COUNT>
0

> <PUBCHEM_ATOM_UDEF_STEREO_COUNT>
0

> <PUBCHEM_BOND_DEF_STEREO_COUNT>
0

> <PUBCHEM_BOND_UDEF_STEREO_COUNT>
0

> <PUBCHEM_ISOTOPIC_ATOM_COUNT>
0

> <PUBCHEM_COMPONENT_COUNT>
1

> <PUBCHEM_CACTVS_TAUTO_COUNT>
2

> <PUBCHEM_CONFORMER_ID>
0001E7B700000002

> <PUBCHEM_MMFF94_ENERGY>
60.0697

> <PUBCHEM_FEATURE_SELFOVERLAP>
45.757

> <PUBCHEM_SHAPE_FINGERPRINT>
10 15 18186804699225124616
10074138 170 18042402606938602050
10411042 1 17617659199181527879
10493431 412 18409731763734961359
12035758 1 18115609118224489265
12107183 9 18263350427341061554
12390115 104 18342190989434213962
12403259 118 17822866371584234815
12403259 415 18261955124745082638
12925494 130 18125715944855624680
13140716 1 18190190155476948567
13402501 40 18413670218971077880
13540713 4 18268732591723960486
13631057 29 18129934702737052383
13955234 65 18120098281903217155
14216079 64 8142087554714985145
16994733 274 16845577474274765657
17980427 23 18336264656051383084
20554085 129 17988063535882628154
20567600 254 18410568466218813236
21236236 1 18341329006351007791
21452121 103 18262801739950734195
21637258 2 13045943533720809070
21859007 373 17460581538302618628
22224240 67 18409169909414821491
23559900 14 17606418548645452167
2838139 119 18342731910579430684
2916195 48 18412546509117286783
34934 24 18339642240256562823
5104073 3 17971765372139723945
59682541 35 18334587854212635681
59682541 52 16486988250193722028
5969126 39 17984695890264406327
6327066 14 18411415124769238092
77188 2 17402895518791803646
7808743 9 18410569621944947506
7970288 3 9007052461555172824
9981440 41 18261115187877089594

> <PUBCHEM_SHAPE_MULTIPOLES>
424.06
15.52
3.26
0.79
17.13
2.1
-0.04
-16.24
-4.53
0.23
-0.06
-0.09
-0.07
0.81

> <PUBCHEM_SHAPE_SELFOVERLAP>
918.791

> <PUBCHEM_SHAPE_VOLUME>
232.3

> <PUBCHEM_COORDINATE_TYPE>
2
5
10

$$$$
