124815
  -OEChem-03292013323D

 34 35  0     1  0  0  0  0  0999 V2000
    1.2620    1.1841   -0.2777 O   0  0  0  0  0  0  0  0  0  0  0  0
   -0.8409   -0.5683    0.6079 O   0  0  0  0  0  0  0  0  0  0  0  0
   -1.5250    1.6752    0.1766 O   0  0  0  0  0  0  0  0  0  0  0  0
    0.5568   -2.8771    0.0322 O   0  0  0  0  0  0  0  0  0  0  0  0
    3.2558   -1.8526    0.1590 O   0  0  0  0  0  0  0  0  0  0  0  0
    3.3858    0.9356    0.6549 O   0  0  0  0  0  0  0  0  0  0  0  0
   -3.1732   -1.4809   -0.1325 O   0  0  0  0  0  0  0  0  0  0  0  0
   -3.9394    0.6192   -0.6110 O   0  0  0  0  0  0  0  0  0  0  0  0
   -0.2231   -0.6960   -0.6793 C   0  0  1  0  0  0  0  0  0  0  0  0
    0.2454    0.6796   -1.1544 C   0  0  1  0  0  0  0  0  0  0  0  0
    0.9664   -1.6494   -0.5642 C   0  0  1  0  0  0  0  0  0  0  0  0
    2.0902   -1.0361    0.2689 C   0  0  2  0  0  0  0  0  0  0  0  0
    2.4290    0.3664   -0.2380 C   0  0  1  0  0  0  0  0  0  0  0  0
   -0.9155    1.6660   -1.1145 C   0  0  0  0  0  0  0  0  0  0  0  0
   -1.9004    0.3808    0.6319 C   0  0  2  0  0  0  0  0  0  0  0  0
   -2.3112    0.5361    2.0945 C   0  0  0  0  0  0  0  0  0  0  0  0
   -3.1159   -0.1277   -0.1045 C   0  0  0  0  0  0  0  0  0  0  0  0
    3.7533    2.2450    0.2503 C   0  0  0  0  0  0  0  0  0  0  0  0
   -0.9511   -1.1248   -1.3775 H   0  0  0  0  0  0  0  0  0  0  0  0
    0.6528    0.6316   -2.1714 H   0  0  0  0  0  0  0  0  0  0  0  0
    1.3436   -1.8956   -1.5641 H   0  0  0  0  0  0  0  0  0  0  0  0
    1.8192   -1.0060    1.3314 H   0  0  0  0  0  0  0  0  0  0  0  0
    2.8820    0.3121   -1.2373 H   0  0  0  0  0  0  0  0  0  0  0  0
   -0.5602    2.6838   -1.3065 H   0  0  0  0  0  0  0  0  0  0  0  0
   -1.6668    1.4239   -1.8739 H   0  0  0  0  0  0  0  0  0  0  0  0
   -1.4696    0.9097    2.6898 H   0  0  0  0  0  0  0  0  0  0  0  0
   -3.1324    1.2527    2.2088 H   0  0  0  0  0  0  0  0  0  0  0  0
   -2.6177   -0.4207    2.5323 H   0  0  0  0  0  0  0  0  0  0  0  0
    0.1727   -2.6706    0.9015 H   0  0  0  0  0  0  0  0  0  0  0  0
    3.0133   -2.7459    0.4574 H   0  0  0  0  0  0  0  0  0  0  0  0
    2.9137    2.9391    0.3526 H   0  0  0  0  0  0  0  0  0  0  0  0
    4.1247    2.2474   -0.7794 H   0  0  0  0  0  0  0  0  0  0  0  0
    4.5578    2.5900    0.9059 H   0  0  0  0  0  0  0  0  0  0  0  0
   -3.9641   -1.8044   -0.6142 H   0  0  0  0  0  0  0  0  0  0  0  0
  1 10  1  0  0  0  0
  1 13  1  0  0  0  0
  2  9  1  0  0  0  0
  2 15  1  0  0  0  0
  3 14  1  0  0  0  0
  3 15  1  0  0  0  0
  4 11  1  0  0  0  0
  4 29  1  0  0  0  0
  5 12  1  0  0  0  0
  5 30  1  0  0  0  0
  6 13  1  0  0  0  0
  6 18  1  0  0  0  0
  7 17  1  0  0  0  0
  7 34  1  0  0  0  0
  8 17  2  0  0  0  0
  9 10  1  0  0  0  0
  9 11  1  0  0  0  0
  9 19  1  0  0  0  0
 10 14  1  0  0  0  0
 10 20  1  0  0  0  0
 11 12  1  0  0  0  0
 11 21  1  0  0  0  0
 12 13  1  0  0  0  0
 12 22  1  0  0  0  0
 13 23  1  0  0  0  0
 14 24  1  0  0  0  0
 14 25  1  0  0  0  0
 15 16  1  0  0  0  0
 15 17  1  0  0  0  0
 16 26  1  0  0  0  0
 16 27  1  0  0  0  0
 16 28  1  0  0  0  0
 18 31  1  0  0  0  0
 18 32  1  0  0  0  0
 18 33  1  0  0  0  0
M  END
> <PUBCHEM_COMPOUND_CID>
124815

> <PUBCHEM_CONFORMER_RMSD>
0.6

> <PUBCHEM_CONFORMER_DIVERSEORDER>
1
7
10
3
4
8
9
5
2
6

> <PUBCHEM_MMFF94_PARTIAL_CHARGES>
20
1 -0.56
10 0.28
11 0.28
12 0.28
13 0.56
14 0.28
15 0.62
17 0.66
18 0.28
2 -0.56
29 0.4
3 -0.56
30 0.4
34 0.5
4 -0.68
5 -0.68
6 -0.56
7 -0.65
8 -0.57
9 0.28

> <PUBCHEM_EFFECTIVE_ROTOR_COUNT>
3.6

> <PUBCHEM_PHARMACOPHORE_FEATURES>
13
1 1 acceptor
1 2 acceptor
1 3 acceptor
1 4 acceptor
1 4 donor
1 5 acceptor
1 5 donor
1 6 acceptor
1 7 acceptor
1 8 acceptor
3 7 8 17 anion
6 1 9 10 11 12 13 rings
6 2 3 9 10 14 15 rings

> <PUBCHEM_HEAVY_ATOM_COUNT>
18

> <PUBCHEM_ATOM_DEF_STEREO_COUNT>
5

> <PUBCHEM_ATOM_UDEF_STEREO_COUNT>
1

> <PUBCHEM_BOND_DEF_STEREO_COUNT>
0

> <PUBCHEM_BOND_UDEF_STEREO_COUNT>
0

> <PUBCHEM_ISOTOPIC_ATOM_COUNT>
0

> <PUBCHEM_COMPONENT_COUNT>
1

> <PUBCHEM_CACTVS_TAUTO_COUNT>
1

> <PUBCHEM_CONFORMER_ID>
0001E78F00000001

> <PUBCHEM_MMFF94_ENERGY>
51.3145

> <PUBCHEM_FEATURE_SELFOVERLAP>
66.254

> <PUBCHEM_SHAPE_FINGERPRINT>
11132069 177 18408038532886593164
11471102 22 18261960661021145880
12011746 2 18335139804253898436
12251169 10 18126574422548691243
12382932 28 18262238944742262024
13140716 1 18409177596958304363
13296908 3 17676781902364132123
13693222 15 18335141968453081249
14787075 74 17556292109681412257
15207287 21 17676763262269319001
15219456 202 18261665978798759421
15309172 13 18410299141852314824
15375358 24 17894625976417181461
15536298 74 18342175566148462926
15775835 57 18272652376276954024
16945 1 18268440022634584191
17834072 14 18259696805313420981
18186145 218 18202013118063715588
200 152 18130211658784986565
204376 136 18266742566045292664
20510252 161 17478049818904226272
20600515 1 16226044504909922692
21501502 16 18264211300887965884
21524375 3 18201718500782419786
23236772 104 17775295975444333345
23388829 49 18337675329417220837
23419403 2 14928113806068002795
23559900 14 18339070493724634122
2748010 2 18261107414286398876
296302 2 17313104189191768692
3286 77 18337950078654519838
7364860 26 18271247106138534966

> <PUBCHEM_SHAPE_MULTIPOLES>
323.48
5.82
2.3
1.16
0.47
0.77
-0.36
-1.43
-0.93
1.57
0.11
-0.69
-0.33
0.09

> <PUBCHEM_SHAPE_SELFOVERLAP>
674.858

> <PUBCHEM_SHAPE_VOLUME>
180

> <PUBCHEM_COORDINATE_TYPE>
2
5
10

$$$$
