124851
  -OEChem-03292013323D

 37 39  0     1  0  0  0  0  0999 V2000
    5.4581    0.4220    0.1443 S   0  0  0  0  0  0  0  0  0  0  0  0
    0.8310   -0.2957    0.3166 O   0  0  0  0  0  0  0  0  0  0  0  0
    6.8015   -0.4926    0.0034 O   0  0  0  0  0  0  0  0  0  0  0  0
    2.9084    0.5861    2.0605 O   0  0  0  0  0  0  0  0  0  0  0  0
    5.6754    1.4119    1.1844 O   0  0  0  0  0  0  0  0  0  0  0  0
    5.0143    0.8045   -1.1846 O   0  0  0  0  0  0  0  0  0  0  0  0
    1.9099   -2.3349   -1.3632 O   0  0  0  0  0  0  0  0  0  0  0  0
    1.4607    1.2931   -1.2270 O   0  0  0  0  0  0  0  0  0  0  0  0
   -5.7919    1.0671    1.1865 O   0  0  0  0  0  0  0  0  0  0  0  0
   -3.2812   -2.2720   -0.8169 O   0  0  0  0  0  0  0  0  0  0  0  0
    2.1398   -0.7383    0.3116 N   0  0  0  0  0  0  0  0  0  0  0  0
   -4.1581   -0.2583    0.0853 N   0  0  0  0  0  0  0  0  0  0  0  0
    4.3869   -0.8345    0.7631 C   0  0  2  0  0  0  0  0  0  0  0  0
    4.0389   -1.8770   -0.3040 C   0  0  0  0  0  0  0  0  0  0  0  0
    3.0672   -0.2303    1.1660 C   0  0  0  0  0  0  0  0  0  0  0  0
    2.5626   -1.7025   -0.5472 C   0  0  0  0  0  0  0  0  0  0  0  0
   -0.8048    1.2033   -0.4901 C   0  0  0  0  0  0  0  0  0  0  0  0
    0.6124    0.7611   -0.5273 C   0  0  0  0  0  0  0  0  0  0  0  0
   -3.1184    0.6880   -0.1890 C   0  0  0  0  0  0  0  0  0  0  0  0
   -1.7874    0.2720   -0.2237 C   0  0  0  0  0  0  0  0  0  0  0  0
   -1.0943    2.5320   -0.7232 C   0  0  0  0  0  0  0  0  0  0  0  0
   -3.4371    2.0261   -0.4212 C   0  0  0  0  0  0  0  0  0  0  0  0
   -2.4250    2.9480   -0.6885 C   0  0  0  0  0  0  0  0  0  0  0  0
   -5.3545    0.0327    0.7094 C   0  0  0  0  0  0  0  0  0  0  0  0
   -4.1170   -1.6006   -0.2343 C   0  0  0  0  0  0  0  0  0  0  0  0
   -6.1155   -1.2234    0.7777 C   0  0  0  0  0  0  0  0  0  0  0  0
   -5.3816   -2.1879    0.2315 C   0  0  0  0  0  0  0  0  0  0  0  0
    4.8590   -1.2911    1.6384 H   0  0  0  0  0  0  0  0  0  0  0  0
    4.5899   -1.7692   -1.2418 H   0  0  0  0  0  0  0  0  0  0  0  0
    4.2001   -2.8876    0.0865 H   0  0  0  0  0  0  0  0  0  0  0  0
    7.2235   -0.7607    0.8533 H   0  0  0  0  0  0  0  0  0  0  0  0
   -1.5275   -0.7631   -0.0295 H   0  0  0  0  0  0  0  0  0  0  0  0
   -0.3150    3.2593   -0.9301 H   0  0  0  0  0  0  0  0  0  0  0  0
   -4.4636    2.3796   -0.4293 H   0  0  0  0  0  0  0  0  0  0  0  0
   -2.6734    3.9887   -0.8750 H   0  0  0  0  0  0  0  0  0  0  0  0
   -7.0962   -1.3195    1.2125 H   0  0  0  0  0  0  0  0  0  0  0  0
   -5.6475   -3.2262    0.1254 H   0  0  0  0  0  0  0  0  0  0  0  0
  1  3  1  0  0  0  0
  1  5  2  0  0  0  0
  1  6  2  0  0  0  0
  1 13  1  0  0  0  0
  2 11  1  0  0  0  0
  2 18  1  0  0  0  0
  3 31  1  0  0  0  0
  4 15  2  0  0  0  0
  7 16  2  0  0  0  0
  8 18  2  0  0  0  0
  9 24  2  0  0  0  0
 10 25  2  0  0  0  0
 11 15  1  0  0  0  0
 11 16  1  0  0  0  0
 12 19  1  0  0  0  0
 12 24  1  0  0  0  0
 12 25  1  0  0  0  0
 13 14  1  0  0  0  0
 13 15  1  0  0  0  0
 13 28  1  0  0  0  0
 14 16  1  0  0  0  0
 14 29  1  0  0  0  0
 14 30  1  0  0  0  0
 17 18  1  0  0  0  0
 17 20  2  0  0  0  0
 17 21  1  0  0  0  0
 19 20  1  0  0  0  0
 19 22  2  0  0  0  0
 20 32  1  0  0  0  0
 21 23  2  0  0  0  0
 21 33  1  0  0  0  0
 22 23  1  0  0  0  0
 22 34  1  0  0  0  0
 23 35  1  0  0  0  0
 24 26  1  0  0  0  0
 25 27  1  0  0  0  0
 26 27  2  0  0  0  0
 26 36  1  0  0  0  0
 27 37  1  0  0  0  0
M  END
> <PUBCHEM_COMPOUND_CID>
124851

> <PUBCHEM_CONFORMER_RMSD>
0.8

> <PUBCHEM_CONFORMER_DIVERSEORDER>
1
183
240
264
213
99
142
126
135
103
58
230
57
110
271
82
256
102
242
252
146
128
195
275
198
123
166
159
185
266
100
144
5
70
118
221
190
274
63
148
153
85
220
143
147
208
150
75
164
165
125
92
272
97
12
109
192
91
236
136
41
229
157
151
27
246
137
80
235
71
225
149
81
196
73
101
111
79
67
210
169
4
223
206
168
262
119
16
56
7
46
228
113
18
224
160
112
250
155
212
54
39
269
122
222
19
9
131
158
47
116
44
194
52
179
90
247
176
88
105
60
177
209
239
154
62
141
124
199
65
96
207
263
36
189
200
140
254
145
162
161
42
249
120
167
268
43
55
241
49
132
226
258
234
174
106
134
15
53
25
197
191
215
40
152
204
87
8
48
76
237
51
156
115
255
121
98
66
29
203
253
10
108
114
270
77
180
23
28
59
257
175
34
188
245
84
219
261
186
170
265
38
184
181
172
259
83
45
217
231
202
273
32
14
163
89
238
35
193
107
205
93
30
50
251
171
244
24
117
2
214
139
3
216
232
127
267
211
260
218
86
31
13
248
201
33
11
233
78
187
72
20
37
227
173
95
129
61
74
6
182
138
69
243
94
17
21
130
133
104
22
178
64
26
68

> <PUBCHEM_MMFF94_PARTIAL_CHARGES>
34
1 1.38
10 -0.57
11 -0.08
12 -0.24
13 0.17
14 0.06
15 0.57
16 0.57
17 0.09
18 0.63
19 0.12
2 -0.19
20 -0.15
21 -0.15
22 -0.15
23 -0.15
24 0.62
25 0.62
26 -0.14
27 -0.14
3 -0.68
31 0.5
32 0.15
33 0.15
34 0.15
35 0.15
36 0.15
37 0.15
4 -0.57
5 -0.65
6 -0.65
7 -0.57
8 -0.57
9 -0.57

> <PUBCHEM_EFFECTIVE_ROTOR_COUNT>
5.8

> <PUBCHEM_PHARMACOPHORE_FEATURES>
12
1 10 acceptor
1 3 acceptor
1 4 acceptor
1 5 acceptor
1 6 acceptor
1 7 acceptor
1 8 acceptor
1 9 acceptor
4 1 3 5 6 anion
5 11 13 14 15 16 rings
5 12 24 25 26 27 rings
6 17 19 20 21 22 23 rings

> <PUBCHEM_HEAVY_ATOM_COUNT>
27

> <PUBCHEM_ATOM_DEF_STEREO_COUNT>
0

> <PUBCHEM_ATOM_UDEF_STEREO_COUNT>
1

> <PUBCHEM_BOND_DEF_STEREO_COUNT>
0

> <PUBCHEM_BOND_UDEF_STEREO_COUNT>
0

> <PUBCHEM_ISOTOPIC_ATOM_COUNT>
0

> <PUBCHEM_COMPONENT_COUNT>
1

> <PUBCHEM_CACTVS_TAUTO_COUNT>
4

> <PUBCHEM_CONFORMER_ID>
0001E7B300000001

> <PUBCHEM_MMFF94_ENERGY>
69.2114

> <PUBCHEM_FEATURE_SELFOVERLAP>
60.959

> <PUBCHEM_SHAPE_FINGERPRINT>
11014199 57 17623558053479131999
11370993 144 17703229503856606579
11552529 35 17489010665516898095
11963148 33 18335133220080674402
12166972 35 16081090381251433998
12516196 113 18334576871343176617
12553582 1 18338516456208050103
12596602 18 17274826874030761843
12730499 353 18273494564362659114
12788726 201 18187640293507109713
13402501 40 18342740714888295571
13583140 156 17988628671520767381
13782708 43 18341047411780000326
13911882 115 18343591724177294382
14341114 176 17988926673431101200
1454969 45 18340202019790520172
14787075 74 18186802508564956824
14840074 17 18201432623227114575
15183329 4 9871755693427971604
15537594 2 18040716935839089283
15685185 35 17028271450912007812
15927050 60 17547857807730812956
16110190 28 18412550933429493415
16126227 98 17911510210962042984
17349148 13 16732706017161547896
1768 85 17701523224956545256
1813 80 17676494934377367031
18608769 82 18341891927093803888
19377110 9 17968088707924316248
19489759 90 7925913681832118539
21033648 29 17773576278865439705
21796203 349 17900860250776334569
23522609 53 18118152270728502941
23559900 14 17979909420138123822
25147074 1 18041296408289507901
3004659 81 17822007649145590479
335352 9 18334573548024894397
34797466 226 18201729478903815452
4325135 7 18187086156916126878
4461854 278 17985280804960576367
5104073 3 18267576923577072456
59755656 520 14405182876721796477
6442390 28 18341607131960063758
67856867 119 18114468962715159781
7495541 125 18342731910843070904

> <PUBCHEM_SHAPE_MULTIPOLES>
496.71
15.68
2.67
1.17
3.33
0.47
0.25
-4.36
3.96
-2.33
-0.83
0.71
0.04
0.61

> <PUBCHEM_SHAPE_SELFOVERLAP>
1080.073

> <PUBCHEM_SHAPE_VOLUME>
271.1

> <PUBCHEM_COORDINATE_TYPE>
2
5
10

$$$$
