124899
  -OEChem-03292013323D

 50 50  0     1  0  0  0  0  0999 V2000
   -1.9324    3.9911   -0.3627 O   0  0  0  0  0  0  0  0  0  0  0  0
   -2.9516   -0.7982   -1.6157 O   0  0  0  0  0  0  0  0  0  0  0  0
   -2.4453    2.7922    1.5314 O   0  0  0  0  0  0  0  0  0  0  0  0
    3.4767   -2.2836    0.0257 O   0  0  0  0  0  0  0  0  0  0  0  0
   -2.1709    0.3837    0.2209 N   0  0  0  0  0  0  0  0  0  0  0  0
   -4.3401   -2.2011    0.5357 N   0  0  0  0  0  0  0  0  0  0  0  0
    3.0508    1.4752    0.5011 N   0  0  0  0  0  0  0  0  0  0  0  0
    4.8032    1.4495   -1.1417 N   0  0  0  0  0  0  0  0  0  0  0  0
    5.2940    1.4706    1.0840 N   0  0  0  0  0  0  0  0  0  0  0  0
   -1.8689    1.5999   -0.4900 C   0  0  2  0  0  0  0  0  0  0  0  0
   -0.4421    1.5710   -1.0515 C   0  0  0  0  0  0  0  0  0  0  0  0
    0.6506    1.5381    0.0281 C   0  0  0  0  0  0  0  0  0  0  0  0
   -2.9067   -1.9070    0.5382 C   0  0  1  0  0  0  0  0  0  0  0  0
   -2.1197   -3.1384    0.0663 C   0  0  0  0  0  0  0  0  0  0  0  0
   -2.6966   -0.7338   -0.4141 C   0  0  0  0  0  0  0  0  0  0  0  0
    2.0526    1.4686   -0.5696 C   0  0  0  0  0  0  0  0  0  0  0  0
   -2.1166    2.8449    0.3507 C   0  0  0  0  0  0  0  0  0  0  0  0
   -0.6262   -2.9103    0.0549 C   0  0  0  0  0  0  0  0  0  0  0  0
    0.1314   -3.1983    1.1901 C   0  0  0  0  0  0  0  0  0  0  0  0
   -0.0049   -2.4118   -1.0901 C   0  0  0  0  0  0  0  0  0  0  0  0
    1.5101   -2.9880    1.1804 C   0  0  0  0  0  0  0  0  0  0  0  0
    1.3739   -2.2013   -1.1000 C   0  0  0  0  0  0  0  0  0  0  0  0
    2.1314   -2.4894    0.0352 C   0  0  0  0  0  0  0  0  0  0  0  0
   -2.1481    5.2110    0.3542 C   0  0  0  0  0  0  0  0  0  0  0  0
    4.2956    1.4654    0.1385 C   0  0  0  0  0  0  0  0  0  0  0  0
   -2.5700    1.6646   -1.3323 H   0  0  0  0  0  0  0  0  0  0  0  0
   -0.3265    0.6954   -1.7025 H   0  0  0  0  0  0  0  0  0  0  0  0
   -0.2800    2.4508   -1.6868 H   0  0  0  0  0  0  0  0  0  0  0  0
    0.5022    0.6742    0.6874 H   0  0  0  0  0  0  0  0  0  0  0  0
    0.5767    2.4297    0.6625 H   0  0  0  0  0  0  0  0  0  0  0  0
   -2.6018   -1.6403    1.5567 H   0  0  0  0  0  0  0  0  0  0  0  0
   -1.9718    0.3505    1.2163 H   0  0  0  0  0  0  0  0  0  0  0  0
   -2.3431   -3.9977    0.7133 H   0  0  0  0  0  0  0  0  0  0  0  0
   -2.4380   -3.4407   -0.9412 H   0  0  0  0  0  0  0  0  0  0  0  0
    2.1497    0.5643   -1.1782 H   0  0  0  0  0  0  0  0  0  0  0  0
    2.1972    2.3387   -1.2223 H   0  0  0  0  0  0  0  0  0  0  0  0
   -4.5269   -2.9951    1.1470 H   0  0  0  0  0  0  0  0  0  0  0  0
   -4.8508   -1.4125    0.9318 H   0  0  0  0  0  0  0  0  0  0  0  0
   -0.3419   -3.5847    2.0888 H   0  0  0  0  0  0  0  0  0  0  0  0
   -0.5783   -2.1917   -1.9862 H   0  0  0  0  0  0  0  0  0  0  0  0
    2.0890   -3.2153    2.0715 H   0  0  0  0  0  0  0  0  0  0  0  0
    1.8525   -1.8178   -1.9969 H   0  0  0  0  0  0  0  0  0  0  0  0
   -1.9692    6.0439   -0.3308 H   0  0  0  0  0  0  0  0  0  0  0  0
   -1.4467    5.2873    1.1906 H   0  0  0  0  0  0  0  0  0  0  0  0
   -3.1817    5.2641    0.7093 H   0  0  0  0  0  0  0  0  0  0  0  0
    3.8396   -2.5315    0.8933 H   0  0  0  0  0  0  0  0  0  0  0  0
    5.8039    1.4429   -1.3068 H   0  0  0  0  0  0  0  0  0  0  0  0
    4.2058    1.4404   -1.9607 H   0  0  0  0  0  0  0  0  0  0  0  0
    6.2734    1.4627    0.8211 H   0  0  0  0  0  0  0  0  0  0  0  0
    5.0769    1.4815    2.0747 H   0  0  0  0  0  0  0  0  0  0  0  0
  1 17  1  0  0  0  0
  1 24  1  0  0  0  0
  2 15  2  0  0  0  0
  3 17  2  0  0  0  0
  4 23  1  0  0  0  0
  4 46  1  0  0  0  0
  5 10  1  0  0  0  0
  5 15  1  0  0  0  0
  5 32  1  0  0  0  0
  6 13  1  0  0  0  0
  6 37  1  0  0  0  0
  6 38  1  0  0  0  0
  7 16  1  0  0  0  0
  7 25  2  0  0  0  0
  8 25  1  0  0  0  0
  8 47  1  0  0  0  0
  8 48  1  0  0  0  0
  9 25  1  0  0  0  0
  9 49  1  0  0  0  0
  9 50  1  0  0  0  0
 10 11  1  0  0  0  0
 10 17  1  0  0  0  0
 10 26  1  0  0  0  0
 11 12  1  0  0  0  0
 11 27  1  0  0  0  0
 11 28  1  0  0  0  0
 12 16  1  0  0  0  0
 12 29  1  0  0  0  0
 12 30  1  0  0  0  0
 13 14  1  0  0  0  0
 13 15  1  0  0  0  0
 13 31  1  0  0  0  0
 14 18  1  0  0  0  0
 14 33  1  0  0  0  0
 14 34  1  0  0  0  0
 16 35  1  0  0  0  0
 16 36  1  0  0  0  0
 18 19  2  0  0  0  0
 18 20  1  0  0  0  0
 19 21  1  0  0  0  0
 19 39  1  0  0  0  0
 20 22  2  0  0  0  0
 20 40  1  0  0  0  0
 21 23  2  0  0  0  0
 21 41  1  0  0  0  0
 22 23  1  0  0  0  0
 22 42  1  0  0  0  0
 24 43  1  0  0  0  0
 24 44  1  0  0  0  0
 24 45  1  0  0  0  0
M  END
> <PUBCHEM_COMPOUND_CID>
124899

> <PUBCHEM_CONFORMER_RMSD>
1.4

> <PUBCHEM_CONFORMER_DIVERSEORDER>
1
54
63
67
52
50
34
46
25
33
59
11
61
37
41
30
13
31
49
81
75
7
27
23
48
26
16
44
42
71
55
20
19
79
72
4
18
73
47
15
77
9
43
39
68
58
24
40
28
45
80
74
2
14
29
35
12
5
69
22
8
76
17
36
10
65
3
64
53
21
62
32
57
78
70
38
66
60
56
51
6

> <PUBCHEM_MMFF94_PARTIAL_CHARGES>
35
1 -0.43
10 0.36
13 0.33
14 0.14
15 0.57
16 0.25
17 0.66
18 -0.14
19 -0.15
2 -0.57
20 -0.15
21 -0.15
22 -0.15
23 0.08
24 0.28
25 0.55
3 -0.57
32 0.37
37 0.36
38 0.36
39 0.15
4 -0.53
40 0.15
41 0.15
42 0.15
46 0.45
47 0.4
48 0.4
49 0.4
5 -0.73
50 0.4
6 -0.99
7 -0.7
8 -0.85
9 -0.85

> <PUBCHEM_EFFECTIVE_ROTOR_COUNT>
11

> <PUBCHEM_PHARMACOPHORE_FEATURES>
10
1 2 acceptor
1 3 acceptor
1 4 donor
1 5 donor
1 6 cation
1 6 donor
1 8 donor
1 9 donor
4 7 8 9 25 cation
6 18 19 20 21 22 23 rings

> <PUBCHEM_HEAVY_ATOM_COUNT>
25

> <PUBCHEM_ATOM_DEF_STEREO_COUNT>
2

> <PUBCHEM_ATOM_UDEF_STEREO_COUNT>
0

> <PUBCHEM_BOND_DEF_STEREO_COUNT>
0

> <PUBCHEM_BOND_UDEF_STEREO_COUNT>
0

> <PUBCHEM_ISOTOPIC_ATOM_COUNT>
0

> <PUBCHEM_COMPONENT_COUNT>
1

> <PUBCHEM_CACTVS_TAUTO_COUNT>
8

> <PUBCHEM_CONFORMER_ID>
0001E7E300000001

> <PUBCHEM_MMFF94_ENERGY>
51.961

> <PUBCHEM_FEATURE_SELFOVERLAP>
50.804

> <PUBCHEM_SHAPE_FINGERPRINT>
10006869 2 18410851058219856255
1100329 8 17977947882872860462
11578080 2 17096906036653933767
12553582 1 18194394721932167085
12633257 1 17686608053224845954
12788726 201 18192159411162926916
13140716 1 17906733957523460936
14178342 30 18409732833372105444
14251751 93 18410005572680143954
14251757 17 18059593377456032510
14251757 5 17756718786227510060
14363568 33 16606066802305770520
18785283 64 17544211380264679393
20600515 1 17983309410470288761
20905425 154 18412833494542677054
21796203 349 17467387789645366648
22113638 7 17908141336417411462
23558518 356 18335426720574234764
5939293 188 17474947632244746070

> <PUBCHEM_SHAPE_MULTIPOLES>
466.11
7.24
6.55
1.18
7.17
3.6
-0.04
3.79
0.79
-3.61
1.27
0.06
-0.18
-0.38

> <PUBCHEM_SHAPE_SELFOVERLAP>
942.346

> <PUBCHEM_SHAPE_VOLUME>
269.9

> <PUBCHEM_COORDINATE_TYPE>
2
5
10

$$$$
