124877
  -OEChem-03292013323D

 37 39  0     1  0  0  0  0  0999 V2000
    2.3830   -0.4800    0.7188 O   0  0  0  0  0  0  0  0  0  0  0  0
    3.9070    1.4328   -1.9080 O   0  0  0  0  0  0  0  0  0  0  0  0
    4.9447   -1.5233    1.2350 O   0  0  0  0  0  0  0  0  0  0  0  0
   -4.0308   -2.1644   -0.4947 O   0  0  0  0  0  0  0  0  0  0  0  0
    0.1186   -0.4106    0.1195 N   0  0  3  0  0  0  0  0  0  0  0  0
   -1.1434   -2.2128   -0.4306 N   0  0  0  0  0  0  0  0  0  0  0  0
   -1.9136    1.1497    0.4617 N   0  0  0  0  0  0  0  0  0  0  0  0
   -4.0165    0.1074   -0.1111 N   0  0  0  0  0  0  0  0  0  0  0  0
   -3.9489    2.3749    0.3482 N   0  0  0  0  0  0  0  0  0  0  0  0
    1.2940    0.3790    0.3444 C   0  0  2  0  0  0  0  0  0  0  0  0
    1.7373    1.1478   -0.8868 C   0  0  0  0  0  0  0  0  0  0  0  0
    3.2323    1.2159   -0.6866 C   0  0  1  0  0  0  0  0  0  0  0  0
    3.5179   -0.1585   -0.1026 C   0  0  1  0  0  0  0  0  0  0  0  0
   -1.2421   -0.0366    0.1624 C   0  0  0  0  0  0  0  0  0  0  0  0
    0.2477   -1.8358   -0.2499 C   0  0  0  0  0  0  0  0  0  0  0  0
    4.7833   -0.2077    0.7351 C   0  0  0  0  0  0  0  0  0  0  0  0
   -1.9486   -1.1324   -0.1867 C   0  0  0  0  0  0  0  0  0  0  0  0
   -3.4165   -1.1263   -0.2723 C   0  0  0  0  0  0  0  0  0  0  0  0
   -3.3060    1.1637    0.2279 C   0  0  0  0  0  0  0  0  0  0  0  0
   -1.1994    2.3171    0.9763 C   0  0  0  0  0  0  0  0  0  0  0  0
    1.1731    1.0528    1.1936 H   0  0  0  0  0  0  0  0  0  0  0  0
    1.2760    2.1361   -0.9681 H   0  0  0  0  0  0  0  0  0  0  0  0
    1.4923    0.6115   -1.8129 H   0  0  0  0  0  0  0  0  0  0  0  0
    3.4876    2.0180    0.0153 H   0  0  0  0  0  0  0  0  0  0  0  0
    3.5732   -0.9252   -0.8861 H   0  0  0  0  0  0  0  0  0  0  0  0
    0.6993   -2.4221    0.5566 H   0  0  0  0  0  0  0  0  0  0  0  0
    0.8088   -1.9567   -1.1819 H   0  0  0  0  0  0  0  0  0  0  0  0
    4.7110    0.4679    1.5939 H   0  0  0  0  0  0  0  0  0  0  0  0
    5.6618    0.0557    0.1383 H   0  0  0  0  0  0  0  0  0  0  0  0
   -1.4872   -3.1203   -0.7097 H   0  0  0  0  0  0  0  0  0  0  0  0
    3.6811    0.7089   -2.5164 H   0  0  0  0  0  0  0  0  0  0  0  0
   -1.8533    3.0419    1.4691 H   0  0  0  0  0  0  0  0  0  0  0  0
   -0.6665    2.8290    0.1707 H   0  0  0  0  0  0  0  0  0  0  0  0
   -0.4989    2.0262    1.7626 H   0  0  0  0  0  0  0  0  0  0  0  0
    5.7588   -1.5302    1.7667 H   0  0  0  0  0  0  0  0  0  0  0  0
   -3.4607    3.2608    0.3891 H   0  0  0  0  0  0  0  0  0  0  0  0
   -4.9523    2.4305    0.2058 H   0  0  0  0  0  0  0  0  0  0  0  0
  1 10  1  0  0  0  0
  1 13  1  0  0  0  0
  2 12  1  0  0  0  0
  2 31  1  0  0  0  0
  3 16  1  0  0  0  0
  3 35  1  0  0  0  0
  4 18  2  0  0  0  0
  5 10  1  0  0  0  0
  5 14  1  0  0  0  0
  5 15  1  0  0  0  0
  6 15  1  0  0  0  0
  6 17  1  0  0  0  0
  6 30  1  0  0  0  0
  7 14  1  0  0  0  0
  7 19  1  0  0  0  0
  7 20  1  0  0  0  0
  8 18  1  0  0  0  0
  8 19  2  0  0  0  0
  9 19  1  0  0  0  0
  9 36  1  0  0  0  0
  9 37  1  0  0  0  0
 10 11  1  0  0  0  0
 10 21  1  0  0  0  0
 11 12  1  0  0  0  0
 11 22  1  0  0  0  0
 11 23  1  0  0  0  0
 12 13  1  0  0  0  0
 12 24  1  0  0  0  0
 13 16  1  0  0  0  0
 13 25  1  0  0  0  0
 14 17  2  0  0  0  0
 15 26  1  0  0  0  0
 15 27  1  0  0  0  0
 16 28  1  0  0  0  0
 16 29  1  0  0  0  0
 17 18  1  0  0  0  0
 20 32  1  0  0  0  0
 20 33  1  0  0  0  0
 20 34  1  0  0  0  0
M  END
> <PUBCHEM_COMPOUND_CID>
124877

> <PUBCHEM_CONFORMER_RMSD>
0.6

> <PUBCHEM_CONFORMER_DIVERSEORDER>
1
5
2
3
6
4

> <PUBCHEM_MMFF94_PARTIAL_CHARGES>
24
1 -0.56
10 0.65
12 0.28
13 0.28
14 0.2
15 0.74
16 0.28
17 0.11
18 0.77
19 0.55
2 -0.68
20 0.37
3 -0.68
30 0.4
31 0.4
35 0.4
36 0.4
37 0.4
4 -0.57
5 -0.84
6 -0.87
7 -0.52
8 -0.66
9 -0.85

> <PUBCHEM_EFFECTIVE_ROTOR_COUNT>
3.6

> <PUBCHEM_PHARMACOPHORE_FEATURES>
14
1 1 acceptor
1 2 acceptor
1 2 donor
1 3 acceptor
1 3 donor
1 4 acceptor
1 5 cation
1 6 cation
1 6 donor
1 8 donor
1 9 donor
5 1 10 11 12 13 rings
5 5 6 14 15 17 rings
6 7 8 14 17 18 19 rings

> <PUBCHEM_HEAVY_ATOM_COUNT>
20

> <PUBCHEM_ATOM_DEF_STEREO_COUNT>
3

> <PUBCHEM_ATOM_UDEF_STEREO_COUNT>
0

> <PUBCHEM_BOND_DEF_STEREO_COUNT>
0

> <PUBCHEM_BOND_UDEF_STEREO_COUNT>
0

> <PUBCHEM_ISOTOPIC_ATOM_COUNT>
0

> <PUBCHEM_COMPONENT_COUNT>
1

> <PUBCHEM_CACTVS_TAUTO_COUNT>
3

> <PUBCHEM_CONFORMER_ID>
0001E7CD00000001

> <PUBCHEM_MMFF94_ENERGY>
85.5613

> <PUBCHEM_FEATURE_SELFOVERLAP>
71.245

> <PUBCHEM_SHAPE_FINGERPRINT>
10062212 137 18410006633078305531
10498660 4 18342182167318446789
10646746 165 18201997724969570184
11132069 177 18342741775792294201
11578080 2 17972284500052148844
12107183 9 17975689498710501402
12236239 1 18259701198616604385
12403814 3 18041000614271393237
13140716 1 18272933855939386521
13583140 156 16987981839844047290
13862211 1 18199180862543303847
14739800 52 18198052793778379160
15196674 1 18411698807111355224
15256400 18 18197215850184728602
15442244 35 18335419063101246100
16752209 62 18342172297509740387
16945 1 18271519922803951095
17492 89 18410577305478591526
17818456 19 18197214755031216096
17862501 102 18409442579365716506
1813 80 17459753623628159462
18186145 218 16225765237746491472
19422 9 18187365458491861322
200 152 18335133228300336771
20510252 161 18202288038856970929
20612939 158 17530685446518067038
20645477 70 17168137966853539522
20715895 44 18048027481141391253
21267235 1 18410017653801116547
21524375 3 18409730621310382451
23366157 5 18118129069388814927
23402539 116 18201709648258788981
23532345 12 18335417959368445618
23557571 272 17847068791269407452
23559900 14 17989214716193587516
23598291 2 18113900463900764252
2838139 119 17314212390335191365
312423 11 18187090576316343254
474 4 18040438767385647050
5104073 3 18410575110580700112
559249 180 18337384938294515186
573450 72 18410848854674293130
59755656 215 18056482746906562182
633830 44 17385448704346192880
67856867 119 18336541742015257976
77492 1 18187082870912847248
9709674 26 18343027709124822142

> <PUBCHEM_SHAPE_MULTIPOLES>
363.21
9.17
2.35
1.01
4.67
0.11
-0.19
-0.23
0.43
-1.92
0.03
1.16
0.26
-1.74

> <PUBCHEM_SHAPE_SELFOVERLAP>
776.485

> <PUBCHEM_SHAPE_VOLUME>
202.4

> <PUBCHEM_COORDINATE_TYPE>
2
5
10

$$$$
