124857
  -OEChem-03292013323D

 27 27  0     0  0  0  0  0  0999 V2000
    2.4517   -1.2899    0.0875 P   0  0  0  0  0  0  0  0  0  0  0  0
    2.0160    0.2607   -0.0708 O   0  0  0  0  0  0  0  0  0  0  0  0
    1.4852    2.9711   -0.3790 O   0  0  0  0  0  0  0  0  0  0  0  0
    1.8124   -2.0143   -1.2099 O   0  0  0  0  0  0  0  0  0  0  0  0
    4.0317   -1.2537   -0.2601 O   0  0  0  0  0  0  0  0  0  0  0  0
    2.1218   -1.9165    1.4110 O   0  0  0  0  0  0  0  0  0  0  0  0
   -4.4439   -2.1166   -0.3435 N   0  0  0  0  0  0  0  0  0  0  0  0
   -1.6112    0.3109    0.3790 C   0  0  0  0  0  0  0  0  0  0  0  0
   -2.7262   -0.6411    0.6511 C   0  0  0  0  0  0  0  0  0  0  0  0
   -0.3017   -0.1591    0.2793 C   0  0  0  0  0  0  0  0  0  0  0  0
   -3.3399   -1.2085   -0.6354 C   0  0  0  0  0  0  0  0  0  0  0  0
   -1.8776    1.6714    0.2245 C   0  0  0  0  0  0  0  0  0  0  0  0
    0.7415    0.7315    0.0252 C   0  0  0  0  0  0  0  0  0  0  0  0
    0.4749    2.0920   -0.1293 C   0  0  0  0  0  0  0  0  0  0  0  0
   -0.8346    2.5620   -0.0296 C   0  0  0  0  0  0  0  0  0  0  0  0
   -2.3642   -1.4608    1.2863 H   0  0  0  0  0  0  0  0  0  0  0  0
   -3.5009   -0.1353    1.2433 H   0  0  0  0  0  0  0  0  0  0  0  0
   -0.1337   -1.2238    0.3984 H   0  0  0  0  0  0  0  0  0  0  0  0
   -2.5811   -1.7470   -1.2146 H   0  0  0  0  0  0  0  0  0  0  0  0
   -3.7096   -0.3969   -1.2725 H   0  0  0  0  0  0  0  0  0  0  0  0
   -2.8938    2.0497    0.2980 H   0  0  0  0  0  0  0  0  0  0  0  0
   -1.0564    3.6191   -0.1485 H   0  0  0  0  0  0  0  0  0  0  0  0
   -5.1546   -1.6255    0.1979 H   0  0  0  0  0  0  0  0  0  0  0  0
   -4.1129   -2.8738    0.2535 H   0  0  0  0  0  0  0  0  0  0  0  0
    1.1137    3.8667   -0.4562 H   0  0  0  0  0  0  0  0  0  0  0  0
    1.8954   -2.9876   -1.2986 H   0  0  0  0  0  0  0  0  0  0  0  0
    4.5628   -2.0692   -0.1372 H   0  0  0  0  0  0  0  0  0  0  0  0
  1  2  1  0  0  0  0
  1  4  1  0  0  0  0
  1  5  1  0  0  0  0
  1  6  2  0  0  0  0
  2 13  1  0  0  0  0
  3 14  1  0  0  0  0
  3 25  1  0  0  0  0
  4 26  1  0  0  0  0
  5 27  1  0  0  0  0
  7 11  1  0  0  0  0
  7 23  1  0  0  0  0
  7 24  1  0  0  0  0
  8  9  1  0  0  0  0
  8 10  2  0  0  0  0
  8 12  1  0  0  0  0
  9 11  1  0  0  0  0
  9 16  1  0  0  0  0
  9 17  1  0  0  0  0
 10 13  1  0  0  0  0
 10 18  1  0  0  0  0
 11 19  1  0  0  0  0
 11 20  1  0  0  0  0
 12 15  2  0  0  0  0
 12 21  1  0  0  0  0
 13 14  2  0  0  0  0
 14 15  1  0  0  0  0
 15 22  1  0  0  0  0
M  END
> <PUBCHEM_COMPOUND_CID>
124857

> <PUBCHEM_CONFORMER_RMSD>
0.6

> <PUBCHEM_CONFORMER_DIVERSEORDER>
1
10
32
23
30
3
33
25
27
22
5
18
31
15
13
16
11
8
21
20
24
7
14
29
26
12
28
9
19
2
4
6
17

> <PUBCHEM_MMFF94_PARTIAL_CHARGES>
23
1 1.51
10 -0.15
11 0.27
12 -0.15
13 0.08
14 0.08
15 -0.15
18 0.15
2 -0.35
21 0.15
22 0.15
23 0.36
24 0.36
25 0.45
26 0.5
27 0.5
3 -0.53
4 -0.77
5 -0.77
6 -0.7
7 -0.99
8 -0.14
9 0.14

> <PUBCHEM_EFFECTIVE_ROTOR_COUNT>
4

> <PUBCHEM_PHARMACOPHORE_FEATURES>
8
1 3 donor
1 4 acceptor
1 5 acceptor
1 6 acceptor
1 7 cation
1 7 donor
4 1 4 5 6 anion
6 8 10 12 13 14 15 rings

> <PUBCHEM_HEAVY_ATOM_COUNT>
15

> <PUBCHEM_ATOM_DEF_STEREO_COUNT>
0

> <PUBCHEM_ATOM_UDEF_STEREO_COUNT>
0

> <PUBCHEM_BOND_DEF_STEREO_COUNT>
0

> <PUBCHEM_BOND_UDEF_STEREO_COUNT>
0

> <PUBCHEM_ISOTOPIC_ATOM_COUNT>
0

> <PUBCHEM_COMPONENT_COUNT>
1

> <PUBCHEM_CACTVS_TAUTO_COUNT>
3

> <PUBCHEM_CONFORMER_ID>
0001E7B900000001

> <PUBCHEM_MMFF94_ENERGY>
-4.2184

> <PUBCHEM_FEATURE_SELFOVERLAP>
40.631

> <PUBCHEM_SHAPE_FINGERPRINT>
10989021 7 18411701014930130745
116883 192 18341329990452114309
11806522 49 18410011078490594164
12553582 1 18408325458393548323
13083527 12 18192688224135680320
14251717 144 18266739279983458349
15669948 3 17974572399012293226
16945 1 18119257395999282289
20510252 161 17550104762657832040
20645476 183 16666312978022575937
20645477 70 18194114338642385127
20671657 53 18335415777250966955
20871998 184 18127411150776044525
20871998 22 18412827988304458291
21452121 199 18340189882466311433
21501502 16 18411147943423115393
221490 88 18046912851149456107
22213442 358 18411704244692893764
23114952 82 17895748629603140093
23388829 49 18342731970297496413
23402539 116 18336825286970883558
23552423 10 18261120681071402977
23557571 272 18127976300164216942
23559900 14 17908137682339369038
23598291 2 18270696358450646769
257057 1 18335409124051103057
2748010 2 18337950086901822792
3060560 45 17760363692621794421
6338986 31 18337378371109879147
7364860 26 18269556215852274777
81228 2 18122627154377761273
81539 233 17900817468132325357

> <PUBCHEM_SHAPE_MULTIPOLES>
278.21
5.75
3.14
0.87
1.67
1.5
-0.06
-5.51
0.58
-0.12
0.37
-0.16
-0.39
-0.47

> <PUBCHEM_SHAPE_SELFOVERLAP>
556.544

> <PUBCHEM_SHAPE_VOLUME>
164.6

> <PUBCHEM_COORDINATE_TYPE>
2
5
10

$$$$
