124861
  -OEChem-03292013323D

 30 32  0     0  0  0  0  0  0999 V2000
   -4.8718   -2.5460    1.7039 S   0  0  0  0  0  0  0  0  0  0  0  0
    0.9773   -2.2945   -0.8831 O   0  0  0  0  0  0  0  0  0  0  0  0
    3.0023    1.8146    0.0065 O   0  0  0  0  0  0  0  0  0  0  0  0
    4.6282   -2.5279    0.3796 O   0  0  0  0  0  0  0  0  0  0  0  0
    3.6230   -0.9418    1.6597 O   0  0  0  0  0  0  0  0  0  0  0  0
    2.0442   -0.2529   -0.5093 N   0  0  0  0  0  0  0  0  0  0  0  0
   -3.9718   -1.3832   -0.6487 N   0  0  0  0  0  0  0  0  0  0  0  0
   -0.4787    0.9228   -0.1838 C   0  0  0  0  0  0  0  0  0  0  0  0
   -0.4001   -0.4435   -0.4870 C   0  0  0  0  0  0  0  0  0  0  0  0
    0.6666    1.7150   -0.0212 C   0  0  0  0  0  0  0  0  0  0  0  0
   -1.7550    1.5211   -0.0345 C   0  0  0  0  0  0  0  0  0  0  0  0
    0.9213   -1.0892   -0.6479 C   0  0  0  0  0  0  0  0  0  0  0  0
    2.0097    1.1122   -0.1723 C   0  0  0  0  0  0  0  0  0  0  0  0
   -1.5617   -1.2107   -0.6411 C   0  0  0  0  0  0  0  0  0  0  0  0
    0.5566    3.0775    0.2841 C   0  0  0  0  0  0  0  0  0  0  0  0
   -2.9094    0.7394   -0.1929 C   0  0  0  0  0  0  0  0  0  0  0  0
    3.3553   -0.8523   -0.7342 C   0  0  0  0  0  0  0  0  0  0  0  0
   -1.8483    2.8874    0.2704 C   0  0  0  0  0  0  0  0  0  0  0  0
   -2.8120   -0.6173   -0.4940 C   0  0  0  0  0  0  0  0  0  0  0  0
   -0.6995    3.6592    0.4286 C   0  0  0  0  0  0  0  0  0  0  0  0
    3.8694   -1.4174    0.5589 C   0  0  0  0  0  0  0  0  0  0  0  0
   -4.3456   -1.8726    0.3582 C   0  0  0  0  0  0  0  0  0  0  0  0
   -1.5008   -2.2702   -0.8792 H   0  0  0  0  0  0  0  0  0  0  0  0
    1.4365    3.7022    0.4122 H   0  0  0  0  0  0  0  0  0  0  0  0
   -3.8930    1.1937   -0.0822 H   0  0  0  0  0  0  0  0  0  0  0  0
    4.0707   -0.1090   -1.0992 H   0  0  0  0  0  0  0  0  0  0  0  0
    3.2679   -1.6542   -1.4748 H   0  0  0  0  0  0  0  0  0  0  0  0
   -2.8193    3.3640    0.3886 H   0  0  0  0  0  0  0  0  0  0  0  0
   -0.7845    4.7159    0.6650 H   0  0  0  0  0  0  0  0  0  0  0  0
    4.9517   -2.8916    1.2313 H   0  0  0  0  0  0  0  0  0  0  0  0
  1 22  2  0  0  0  0
  2 12  2  0  0  0  0
  3 13  2  0  0  0  0
  4 21  1  0  0  0  0
  4 30  1  0  0  0  0
  5 21  2  0  0  0  0
  6 12  1  0  0  0  0
  6 13  1  0  0  0  0
  6 17  1  0  0  0  0
  7 19  1  0  0  0  0
  7 22  2  0  0  0  0
  8  9  2  0  0  0  0
  8 10  1  0  0  0  0
  8 11  1  0  0  0  0
  9 12  1  0  0  0  0
  9 14  1  0  0  0  0
 10 13  1  0  0  0  0
 10 15  2  0  0  0  0
 11 16  2  0  0  0  0
 11 18  1  0  0  0  0
 14 19  2  0  0  0  0
 14 23  1  0  0  0  0
 15 20  1  0  0  0  0
 15 24  1  0  0  0  0
 16 19  1  0  0  0  0
 16 25  1  0  0  0  0
 17 21  1  0  0  0  0
 17 26  1  0  0  0  0
 17 27  1  0  0  0  0
 18 20  2  0  0  0  0
 18 28  1  0  0  0  0
 20 29  1  0  0  0  0
M  END
> <PUBCHEM_COMPOUND_CID>
124861

> <PUBCHEM_CONFORMER_RMSD>
0.6

> <PUBCHEM_CONFORMER_DIVERSEORDER>
1
18
13
17
11
16
19
4
10
5
6
15
14
7
3
9
12
8
2

> <PUBCHEM_MMFF94_PARTIAL_CHARGES>
26
1 -0.27
10 0.09
12 0.54
13 0.54
14 -0.15
15 -0.15
16 -0.15
17 0.36
18 -0.15
19 0.18
2 -0.57
20 -0.15
21 0.66
22 0.57
23 0.15
24 0.15
25 0.15
28 0.15
29 0.15
3 -0.57
30 0.5
4 -0.65
5 -0.57
6 -0.42
7 -0.48
9 0.09

> <PUBCHEM_EFFECTIVE_ROTOR_COUNT>
3.2

> <PUBCHEM_PHARMACOPHORE_FEATURES>
10
1 1 acceptor
1 2 acceptor
1 3 acceptor
1 4 acceptor
1 5 acceptor
1 7 acceptor
3 4 5 21 anion
6 6 8 9 10 12 13 rings
6 8 10 11 15 18 20 rings
6 8 9 11 14 16 19 rings

> <PUBCHEM_HEAVY_ATOM_COUNT>
22

> <PUBCHEM_ATOM_DEF_STEREO_COUNT>
0

> <PUBCHEM_ATOM_UDEF_STEREO_COUNT>
0

> <PUBCHEM_BOND_DEF_STEREO_COUNT>
0

> <PUBCHEM_BOND_UDEF_STEREO_COUNT>
0

> <PUBCHEM_ISOTOPIC_ATOM_COUNT>
0

> <PUBCHEM_COMPONENT_COUNT>
1

> <PUBCHEM_CACTVS_TAUTO_COUNT>
1

> <PUBCHEM_CONFORMER_ID>
0001E7BD00000001

> <PUBCHEM_MMFF94_ENERGY>
58.3574

> <PUBCHEM_FEATURE_SELFOVERLAP>
50.887

> <PUBCHEM_SHAPE_FINGERPRINT>
10319926 262 17910931584483168106
10411042 1 18412825793661034047
10906281 52 18057049004227933717
10967382 1 18125720338137176205
1100329 8 18267304240277590545
11578080 2 17059469942888710409
11796584 16 17386270095762622011
12422481 6 17987253157089491203
12553582 1 18343022241451840175
12644460 14 18195251241574477427
12788726 201 18336838528128158410
12824470 246 17822003181789057866
13009979 54 18261406494291675982
13052359 8 18121216472501576965
13140716 1 18341613676741143200
138480 1 14953504493265446125
14178342 30 18124027936618344730
14420673 8 17476915754471418826
14790565 3 17618794990666851189
15042514 8 18267028245668229713
15475509 84 18057908951481006585
16945 1 18125725590961371948
17492 89 18409448047054795658
20028762 73 18059011834215758103
20645477 70 18050274062991142575
20739085 24 18197519478513009865
21041028 32 18412548721341883869
221490 88 18336267950328312357
23184049 29 18412540985953108452
2334 1 18341890835428650268
23557571 272 18057604252861205924
23558518 356 18335147444721688568
23559900 14 18335411370318966380
2748010 2 18343292678262529037
3091708 16 8992814928473574161
312423 11 18334869307023529716
335352 9 18340485543978756269
352729 6 18198908002632549141
458136 41 17616544286354078549
5104073 3 18413110567383319777
54173680 148 18268149747238456468
58807428 26 17261036524143533369
633830 44 11747758861063461259

> <PUBCHEM_SHAPE_MULTIPOLES>
423.16
7.97
3.94
1.04
2.24
2.62
-0.32
-8.73
-2.64
0.16
-0.98
0.27
-0.61
0.43

> <PUBCHEM_SHAPE_SELFOVERLAP>
936.56

> <PUBCHEM_SHAPE_VOLUME>
228.6

> <PUBCHEM_COORDINATE_TYPE>
2
5
10

$$$$
