124811
  -OEChem-03292013323D

 33 34  0     1  0  0  0  0  0999 V2000
    1.4760   -3.4271    0.3228 Cl  0  0  0  0  0  0  0  0  0  0  0  0
   -4.5610    1.2816    0.2453 P   0  0  0  0  0  0  0  0  0  0  0  0
   -0.4253   -0.0211    0.3827 O   0  0  0  0  0  0  0  0  0  0  0  0
   -1.1934   -2.8734   -1.6423 O   0  0  0  0  0  0  0  0  0  0  0  0
   -3.0627    0.8238   -0.1610 O   0  0  0  0  0  0  0  0  0  0  0  0
    3.2928   -0.9509    1.8415 O   0  0  0  0  0  0  0  0  0  0  0  0
   -4.7724    0.6425    1.7156 O   0  0  0  0  0  0  0  0  0  0  0  0
   -5.4895    0.3548   -0.7001 O   0  0  0  0  0  0  0  0  0  0  0  0
   -4.8236    2.7557    0.1424 O   0  0  0  0  0  0  0  0  0  0  0  0
    5.0388    2.4509   -0.7323 O   0  0  0  0  0  0  0  0  0  0  0  0
    1.9100    0.0447    0.2429 N   0  0  0  0  0  0  0  0  0  0  0  0
    4.1603    0.7438    0.5593 N   0  0  0  0  0  0  0  0  0  0  0  0
   -0.8224   -2.1822   -0.4665 C   0  0  2  0  0  0  0  0  0  0  0  0
   -1.2888   -0.7365   -0.5148 C   0  0  1  0  0  0  0  0  0  0  0  0
    0.6759   -1.9963   -0.3560 C   0  0  1  0  0  0  0  0  0  0  0  0
    0.7823   -0.7845    0.5582 C   0  0  2  0  0  0  0  0  0  0  0  0
   -2.7347   -0.5542   -0.0903 C   0  0  1  0  0  0  0  0  0  0  0  0
    3.1262   -0.1184    0.9475 C   0  0  0  0  0  0  0  0  0  0  0  0
    1.8066    1.0077   -0.7547 C   0  0  0  0  0  0  0  0  0  0  0  0
    2.8010    1.8223   -1.1136 C   0  0  0  0  0  0  0  0  0  0  0  0
    4.1040    1.7168   -0.4265 C   0  0  0  0  0  0  0  0  0  0  0  0
   -1.2268   -2.7062    0.4086 H   0  0  0  0  0  0  0  0  0  0  0  0
   -1.1527   -0.3067   -1.5158 H   0  0  0  0  0  0  0  0  0  0  0  0
    1.1193   -1.8229   -1.3436 H   0  0  0  0  0  0  0  0  0  0  0  0
    0.8161   -1.0737    1.6155 H   0  0  0  0  0  0  0  0  0  0  0  0
   -2.8693   -0.8906    0.9429 H   2  0  0  0  0  0  0  0  0  0  0  0
   -3.4015   -1.1246   -0.7438 H   0  0  0  0  0  0  0  0  0  0  0  0
   -2.1646   -2.8997   -1.6755 H   0  0  0  0  0  0  0  0  0  0  0  0
    0.8608    1.0817   -1.2786 H   0  0  0  0  0  0  0  0  0  0  0  0
    5.0431    0.6439    1.0524 H   0  0  0  0  0  0  0  0  0  0  0  0
    2.6855    2.5565   -1.9012 H   0  0  0  0  0  0  0  0  0  0  0  0
   -5.5978    0.8433    2.2061 H   0  0  0  0  0  0  0  0  0  0  0  0
   -6.4585    0.5069   -0.7093 H   0  0  0  0  0  0  0  0  0  0  0  0
  1 15  1  0  0  0  0
  2  5  1  0  0  0  0
  2  7  1  0  0  0  0
  2  8  1  0  0  0  0
  2  9  2  0  0  0  0
  3 14  1  0  0  0  0
  3 16  1  0  0  0  0
  4 13  1  0  0  0  0
  4 28  1  0  0  0  0
  5 17  1  0  0  0  0
  6 18  2  0  0  0  0
  7 32  1  0  0  0  0
  8 33  1  0  0  0  0
 10 21  2  0  0  0  0
 11 16  1  0  0  0  0
 11 18  1  0  0  0  0
 11 19  1  0  0  0  0
 12 18  1  0  0  0  0
 12 21  1  0  0  0  0
 12 30  1  0  0  0  0
 13 14  1  0  0  0  0
 13 15  1  0  0  0  0
 13 22  1  0  0  0  0
 14 17  1  0  0  0  0
 14 23  1  0  0  0  0
 15 16  1  0  0  0  0
 15 24  1  0  0  0  0
 16 25  1  0  0  0  0
 17 26  1  0  0  0  0
 17 27  1  0  0  0  0
 19 20  2  0  0  0  0
 19 29  1  0  0  0  0
 20 21  1  0  0  0  0
 20 31  1  0  0  0  0
M  ISO  1  26   3
M  END
> <PUBCHEM_COMPOUND_CID>
124811

> <PUBCHEM_CONFORMER_RMSD>
0.8

> <PUBCHEM_CONFORMER_DIVERSEORDER>
1
261
211
167
112
216
186
249
267
64
198
265
202
87
213
234
178
98
160
229
240
110
233
22
152
66
126
224
157
40
116
259
119
31
244
254
201
183
101
120
230
251
145
172
156
173
89
2
214
92
155
204
248
56
179
169
146
184
97
241
266
3
212
209
187
9
95
13
176
102
144
36
245
185
206
81
50
196
107
163
191
165
19
264
242
262
177
96
80
137
205
151
231
134
161
52
222
99
121
133
168
106
188
61
82
20
68
228
227
215
42
15
103
232
189
218
162
26
128
220
17
208
180
170
175
199
226
136
24
71
78
114
12
255
147
94
131
194
86
237
239
250
123
197
73
111
79
148
124
10
53
91
29
70
181
8
127
246
268
55
132
65
49
171
253
166
223
154
174
48
263
30
225
100
235
207
59
153
182
200
51
118
7
93
41
43
243
108
54
139
75
210
236
5
257
159
238
193
256
221
46
69
47
115
258
39
130
6
252
117
149
192
57
140
143
77
62
38
142
195
88
72
34
58
37
190
217
45
90
83
84
129
104
260
23
25
105
203
122
135
76
247
21
141
150
28
164
63
219
35
44
158
109
14
113
11
4
125
138
74
85
27
32
33
18
67
16
60

> <PUBCHEM_MMFF94_PARTIAL_CHARGES>
27
1 -0.29
10 -0.57
11 -0.47
12 -0.49
13 0.28
14 0.28
15 0.29
16 0.58
17 0.28
18 0.69
19 -0.04
2 1.51
20 -0.14
21 0.62
28 0.4
29 0.15
3 -0.56
30 0.37
31 0.15
32 0.5
33 0.5
4 -0.68
5 -0.55
6 -0.57
7 -0.77
8 -0.77
9 -0.7

> <PUBCHEM_EFFECTIVE_ROTOR_COUNT>
5

> <PUBCHEM_PHARMACOPHORE_FEATURES>
12
1 10 acceptor
1 12 donor
1 3 acceptor
1 4 acceptor
1 4 donor
1 6 acceptor
1 7 acceptor
1 8 acceptor
1 9 acceptor
4 2 7 8 9 anion
5 3 13 14 15 16 rings
6 11 12 18 19 20 21 rings

> <PUBCHEM_HEAVY_ATOM_COUNT>
21

> <PUBCHEM_ATOM_DEF_STEREO_COUNT>
0

> <PUBCHEM_ATOM_UDEF_STEREO_COUNT>
5

> <PUBCHEM_BOND_DEF_STEREO_COUNT>
0

> <PUBCHEM_BOND_UDEF_STEREO_COUNT>
0

> <PUBCHEM_ISOTOPIC_ATOM_COUNT>
1

> <PUBCHEM_COMPONENT_COUNT>
1

> <PUBCHEM_CACTVS_TAUTO_COUNT>
3

> <PUBCHEM_CONFORMER_ID>
0001E78B00000001

> <PUBCHEM_MMFF94_ENERGY>
14.6283

> <PUBCHEM_FEATURE_SELFOVERLAP>
60.936

> <PUBCHEM_SHAPE_FINGERPRINT>
10382601 240 17894907421692786642
10465860 228 18339079285232597091
12173636 292 18123182665484788182
12390115 104 18268445683327575258
12403259 118 18334566920115130361
12633257 1 17240751878893131970
12644460 14 18188493475744014082
12788726 201 18050840323573882967
13583140 156 17024852785122853099
14123255 52 18411141363316667381
14251764 38 18046905983676273085
14790565 3 18409734001423894316
15188451 53 14418424351390624361
15342168 16 18410571760870225037
16752209 62 18056187218765703998
18785283 64 18265052440231900518
19784866 9 18411134701774710962
20157964 124 18262228916642485453
204376 136 18411983563817600371
20739085 24 17967536735965507428
21524375 3 18412541024744899135
21756936 100 18044101374389495888
22620623 9 16987147447583168023
235170 7 15195562386464108921
23558518 356 17540822023986456028
23559900 14 18192435160721586539
25147074 1 18264188357478943962
314173 85 12396294859719983491
38570 142 17315381321498357932
394222 165 18337389340335346267
474 4 18335135380163374163
5104073 3 17896872352357176608
633830 44 18411135835873268262
7808743 9 18340770458796989528
7832392 63 18263923405489048676
9999458 23 18261959544514921430

> <PUBCHEM_SHAPE_MULTIPOLES>
380.97
10.28
3.27
1.2
8.4
1.66
0.19
-9.99
1.31
-1
-0.79
-0.14
0.23
-1.69

> <PUBCHEM_SHAPE_SELFOVERLAP>
770.929

> <PUBCHEM_SHAPE_VOLUME>
224.1

> <PUBCHEM_COORDINATE_TYPE>
2
5
10

$$$$
