12486301
  -OEChem-03292013303D

 29 30  0     1  0  0  0  0  0999 V2000
    3.7173    0.9845    0.9563 O   0  0  0  0  0  0  0  0  0  0  0  0
    5.8455    0.2362   -0.6750 O   0  0  0  0  0  0  0  0  0  0  0  0
   -0.1911   -0.7672    0.5095 N   0  0  0  0  0  0  0  0  0  0  0  0
   -2.0146   -1.9001   -0.0367 N   0  0  0  0  0  0  0  0  0  0  0  0
   -1.0279    1.5054    0.3614 N   0  0  0  0  0  0  0  0  0  0  0  0
   -3.3804    1.5280   -0.2878 N   0  0  0  0  0  0  0  0  0  0  0  0
   -4.6184   -0.4777   -0.7016 N   0  0  0  0  0  0  0  0  0  0  0  0
    2.1519   -0.3615   -0.2839 C   0  0  0  0  0  0  0  0  0  0  0  0
    1.1910   -0.5180    0.9011 C   0  0  0  0  0  0  0  0  0  0  0  0
    3.6175   -0.1683    0.1209 C   0  0  1  0  0  0  0  0  0  0  0  0
   -1.1438    0.1713    0.2806 C   0  0  0  0  0  0  0  0  0  0  0  0
    4.5030    0.0375   -1.1049 C   0  0  0  0  0  0  0  0  0  0  0  0
   -2.2754   -0.5530   -0.0587 C   0  0  0  0  0  0  0  0  0  0  0  0
   -0.7476   -1.9929    0.3096 C   0  0  0  0  0  0  0  0  0  0  0  0
   -3.4247    0.1753   -0.3493 C   0  0  0  0  0  0  0  0  0  0  0  0
   -2.2022    2.1005    0.0587 C   0  0  0  0  0  0  0  0  0  0  0  0
    2.0694   -1.2380   -0.9389 H   0  0  0  0  0  0  0  0  0  0  0  0
    1.8220    0.5035   -0.8747 H   0  0  0  0  0  0  0  0  0  0  0  0
    1.4999   -1.3595    1.5327 H   0  0  0  0  0  0  0  0  0  0  0  0
    1.1927    0.3785    1.5316 H   0  0  0  0  0  0  0  0  0  0  0  0
    3.9669   -1.0255    0.7074 H   0  0  0  0  0  0  0  0  0  0  0  0
    4.2070    0.9342   -1.6586 H   0  0  0  0  0  0  0  0  0  0  0  0
    4.4710   -0.8233   -1.7796 H   0  0  0  0  0  0  0  0  0  0  0  0
   -0.1949   -2.9153    0.4260 H   0  0  0  0  0  0  0  0  0  0  0  0
    4.6553    1.0961    1.1874 H   0  0  0  0  0  0  0  0  0  0  0  0
   -2.2031    3.1846    0.0978 H   0  0  0  0  0  0  0  0  0  0  0  0
    6.1219   -0.5659   -0.1997 H   0  0  0  0  0  0  0  0  0  0  0  0
   -4.6541   -1.4870   -0.7484 H   0  0  0  0  0  0  0  0  0  0  0  0
   -5.4401    0.0737   -0.9084 H   0  0  0  0  0  0  0  0  0  0  0  0
  1 10  1  0  0  0  0
  1 25  1  0  0  0  0
  2 12  1  0  0  0  0
  2 27  1  0  0  0  0
  3  9  1  0  0  0  0
  3 11  1  0  0  0  0
  3 14  1  0  0  0  0
  4 13  1  0  0  0  0
  4 14  2  0  0  0  0
  5 11  2  0  0  0  0
  5 16  1  0  0  0  0
  6 15  1  0  0  0  0
  6 16  2  0  0  0  0
  7 15  1  0  0  0  0
  7 28  1  0  0  0  0
  7 29  1  0  0  0  0
  8  9  1  0  0  0  0
  8 10  1  0  0  0  0
  8 17  1  0  0  0  0
  8 18  1  0  0  0  0
  9 19  1  0  0  0  0
  9 20  1  0  0  0  0
 10 12  1  0  0  0  0
 10 21  1  0  0  0  0
 11 13  1  0  0  0  0
 12 22  1  0  0  0  0
 12 23  1  0  0  0  0
 13 15  2  0  0  0  0
 14 24  1  0  0  0  0
 16 26  1  0  0  0  0
M  END
> <PUBCHEM_COMPOUND_CID>
12486301

> <PUBCHEM_CONFORMER_RMSD>
0.6

> <PUBCHEM_CONFORMER_DIVERSEORDER>
1
44
43
29
23
4
45
8
36
25
14
47
13
37
27
46
24
34
22
7
11
12
2
3
6
5
40
28
10
15
18
20
19
9
26
41
39
38
32
33
16
35
42
31
21
30
17

> <PUBCHEM_MMFF94_PARTIAL_CHARGES>
21
1 -0.68
10 0.28
11 0.11
12 0.28
13 0.23
14 0.04
15 0.41
16 0.47
2 -0.68
24 0.15
25 0.4
26 0.15
27 0.4
28 0.4
29 0.4
3 0.05
4 -0.57
5 -0.57
6 -0.62
7 -0.9
9 0.26

> <PUBCHEM_EFFECTIVE_ROTOR_COUNT>
4

> <PUBCHEM_PHARMACOPHORE_FEATURES>
11
1 1 acceptor
1 1 donor
1 2 acceptor
1 2 donor
1 7 cation
1 7 donor
3 3 4 14 cation
3 3 5 11 cation
3 5 6 16 cation
5 3 4 11 13 14 rings
6 5 6 11 13 15 16 rings

> <PUBCHEM_HEAVY_ATOM_COUNT>
16

> <PUBCHEM_ATOM_DEF_STEREO_COUNT>
0

> <PUBCHEM_ATOM_UDEF_STEREO_COUNT>
1

> <PUBCHEM_BOND_DEF_STEREO_COUNT>
0

> <PUBCHEM_BOND_UDEF_STEREO_COUNT>
0

> <PUBCHEM_ISOTOPIC_ATOM_COUNT>
0

> <PUBCHEM_COMPONENT_COUNT>
1

> <PUBCHEM_CACTVS_TAUTO_COUNT>
3

> <PUBCHEM_CONFORMER_ID>
00BE869D00000001

> <PUBCHEM_MMFF94_ENERGY>
27.7419

> <PUBCHEM_FEATURE_SELFOVERLAP>
56.437

> <PUBCHEM_SHAPE_FINGERPRINT>
10498660 4 18336259042250149060
12119455 92 13984654854716047979
12173636 292 18337945706008424111
12236239 1 17603581933056747778
12390115 104 18128267692416145377
14123260 362 18040445390626066100
15669948 3 18410002252064243434
15775835 57 18040718026391321848
16945 1 18339905066474542787
17870717 6 18130242488197511030
1813 80 13686309001832961904
18186145 218 17989488506988379210
200 152 15985388871932042322
20300324 65 18343302556686880869
20645476 183 17967532393431928019
20645477 56 18410296899641873010
20645477 70 16916795059273670846
20871999 31 18342457028055772189
21637258 2 15194987376447586815
23048698 100 16950276287407777490
23366157 5 17754454556188457971
23402539 116 18413101753809598246
23557571 272 18272660068484201622
23559900 14 18343863312787583850
2748010 2 18050550040240896083
2838139 119 16082468013539366567
351380 3 12895355478201635780
4028521 119 18409445873479044940
474 4 17240489121858481230

> <PUBCHEM_SHAPE_MULTIPOLES>
292.63
9.44
1.75
0.87
10.87
0.08
-0.01
1.9
-3.05
-1.66
0.16
0.55
0.02
-0.01

> <PUBCHEM_SHAPE_SELFOVERLAP>
617.04

> <PUBCHEM_SHAPE_VOLUME>
161.7

> <PUBCHEM_COORDINATE_TYPE>
2
5
10

$$$$
