124856
  -OEChem-03292013323D

 27 27  0     0  0  0  0  0  0999 V2000
   -3.2518   -0.5275    0.0527 P   0  0  0  0  0  0  0  0  0  0  0  0
   -2.1175    0.6264    0.0761 O   0  0  0  0  0  0  0  0  0  0  0  0
   -0.3352    2.7573    0.1491 O   0  0  0  0  0  0  0  0  0  0  0  0
   -2.9641   -1.3916    1.3894 O   0  0  0  0  0  0  0  0  0  0  0  0
   -4.5975    0.2876    0.4313 O   0  0  0  0  0  0  0  0  0  0  0  0
   -3.3408   -1.3132   -1.2233 O   0  0  0  0  0  0  0  0  0  0  0  0
    5.5592   -0.7535    0.5274 N   0  0  0  0  0  0  0  0  0  0  0  0
    1.9505   -0.0373   -0.4231 C   0  0  0  0  0  0  0  0  0  0  0  0
    3.4109   -0.2800   -0.6028 C   0  0  0  0  0  0  0  0  0  0  0  0
    4.1291   -0.5444    0.7270 C   0  0  0  0  0  0  0  0  0  0  0  0
    1.4793    1.2595   -0.2180 C   0  0  0  0  0  0  0  0  0  0  0  0
    1.0559   -1.1069   -0.4595 C   0  0  0  0  0  0  0  0  0  0  0  0
   -0.7812    0.4168   -0.0860 C   0  0  0  0  0  0  0  0  0  0  0  0
    0.1133    1.4866   -0.0495 C   0  0  0  0  0  0  0  0  0  0  0  0
   -0.3099   -0.8799   -0.2909 C   0  0  0  0  0  0  0  0  0  0  0  0
    3.5611   -1.1283   -1.2841 H   0  0  0  0  0  0  0  0  0  0  0  0
    3.8650    0.5830   -1.1082 H   0  0  0  0  0  0  0  0  0  0  0  0
    3.7065   -1.4275    1.2197 H   0  0  0  0  0  0  0  0  0  0  0  0
    3.9881    0.2997    1.4117 H   0  0  0  0  0  0  0  0  0  0  0  0
    2.1717    2.0973   -0.1867 H   0  0  0  0  0  0  0  0  0  0  0  0
    1.4116   -2.1220   -0.6156 H   0  0  0  0  0  0  0  0  0  0  0  0
   -0.9633   -1.7441   -0.3227 H   0  0  0  0  0  0  0  0  0  0  0  0
    5.9614    0.0622    0.0669 H   0  0  0  0  0  0  0  0  0  0  0  0
    5.7030   -1.5338   -0.1127 H   0  0  0  0  0  0  0  0  0  0  0  0
   -1.3030    2.7283    0.2457 H   0  0  0  0  0  0  0  0  0  0  0  0
   -3.4989   -2.1963    1.5583 H   0  0  0  0  0  0  0  0  0  0  0  0
   -5.4609   -0.1759    0.3861 H   0  0  0  0  0  0  0  0  0  0  0  0
  1  2  1  0  0  0  0
  1  4  1  0  0  0  0
  1  5  1  0  0  0  0
  1  6  2  0  0  0  0
  2 13  1  0  0  0  0
  3 14  1  0  0  0  0
  3 25  1  0  0  0  0
  4 26  1  0  0  0  0
  5 27  1  0  0  0  0
  7 10  1  0  0  0  0
  7 23  1  0  0  0  0
  7 24  1  0  0  0  0
  8  9  1  0  0  0  0
  8 11  2  0  0  0  0
  8 12  1  0  0  0  0
  9 10  1  0  0  0  0
  9 16  1  0  0  0  0
  9 17  1  0  0  0  0
 10 18  1  0  0  0  0
 10 19  1  0  0  0  0
 11 14  1  0  0  0  0
 11 20  1  0  0  0  0
 12 15  2  0  0  0  0
 12 21  1  0  0  0  0
 13 14  2  0  0  0  0
 13 15  1  0  0  0  0
 15 22  1  0  0  0  0
M  END
> <PUBCHEM_COMPOUND_CID>
124856

> <PUBCHEM_CONFORMER_RMSD>
0.6

> <PUBCHEM_CONFORMER_DIVERSEORDER>
1
21
14
24
10
12
20
22
23
11
26
3
15
19
25
8
16
2
9
18
7
17
4
13
5
6

> <PUBCHEM_MMFF94_PARTIAL_CHARGES>
23
1 1.51
10 0.27
11 -0.15
12 -0.15
13 0.08
14 0.08
15 -0.15
2 -0.35
20 0.15
21 0.15
22 0.15
23 0.36
24 0.36
25 0.45
26 0.5
27 0.5
3 -0.53
4 -0.77
5 -0.77
6 -0.7
7 -0.99
8 -0.14
9 0.14

> <PUBCHEM_EFFECTIVE_ROTOR_COUNT>
4

> <PUBCHEM_PHARMACOPHORE_FEATURES>
8
1 3 donor
1 4 acceptor
1 5 acceptor
1 6 acceptor
1 7 cation
1 7 donor
4 1 4 5 6 anion
6 8 11 12 13 14 15 rings

> <PUBCHEM_HEAVY_ATOM_COUNT>
15

> <PUBCHEM_ATOM_DEF_STEREO_COUNT>
0

> <PUBCHEM_ATOM_UDEF_STEREO_COUNT>
0

> <PUBCHEM_BOND_DEF_STEREO_COUNT>
0

> <PUBCHEM_BOND_UDEF_STEREO_COUNT>
0

> <PUBCHEM_ISOTOPIC_ATOM_COUNT>
0

> <PUBCHEM_COMPONENT_COUNT>
1

> <PUBCHEM_CACTVS_TAUTO_COUNT>
9

> <PUBCHEM_CONFORMER_ID>
0001E7B800000001

> <PUBCHEM_MMFF94_ENERGY>
-4.5061

> <PUBCHEM_FEATURE_SELFOVERLAP>
40.631

> <PUBCHEM_SHAPE_FINGERPRINT>
10130415 120 18335142019997950488
10465860 250 18333168370909042936
10726558 24 8502378849282969944
11132069 177 17988928863843361934
11401426 45 18343579638038622319
11543360 7 15719685362861262134
12032990 46 18410582794356365110
12346645 44 8646500629911916903
124424 183 18187362147109044839
13214271 11 18201714020546104389
13705890 14 16588029038931618102
13760787 5 18260830427312960254
14115302 16 17531257170657429758
14252887 29 18059590061008199566
16945 1 18272379680155205470
18186145 218 17022899098735800301
19026448 4 16009031726061152044
200 152 18040150700019219746
20510252 161 18201436909905051936
20871998 22 18200324220879580062
21339142 126 18341326704337863701
21501925 9 18411417323866378868
23402539 116 18343575240013353310
23557571 272 18129114329016752748
23559900 14 17894915174435972456
26918003 58 18040999535564377186
2748010 2 18412538833932049564
34934 24 18340482249622398927
43471831 8 18191022305612770354
4990 188 12685089263772308778
5104073 3 18269002036765092777
53655031 270 18335701611529688938
5493415 88 18262243347062706435
81228 2 18122928446196659225
8809292 202 18114189674155896635

> <PUBCHEM_SHAPE_MULTIPOLES>
278.21
8.34
1.73
0.9
3.52
1.09
0.05
-3.43
1.79
-0.46
0.05
-0.23
-0.3
-0.21

> <PUBCHEM_SHAPE_SELFOVERLAP>
556.612

> <PUBCHEM_SHAPE_VOLUME>
165.3

> <PUBCHEM_COORDINATE_TYPE>
2
5
10

$$$$
