124888
  -OEChem-03292013323D

 43 43  0     1  0  0  0  0  0999 V2000
    3.7027    0.4459   -0.2823 S   0  0  2  0  0  0  0  0  0  0  0  0
    5.7141    2.5991    0.3287 S   0  0  1  0  0  0  0  0  0  0  0  0
    2.4267   -3.6510    1.4494 O   0  0  0  0  0  0  0  0  0  0  0  0
    2.5840    1.1065    0.4594 O   0  0  0  0  0  0  0  0  0  0  0  0
    0.0871   -2.0196   -1.9232 O   0  0  0  0  0  0  0  0  0  0  0  0
    6.0988    2.7787   -1.1102 O   0  0  0  0  0  0  0  0  0  0  0  0
   -2.6586    2.0445   -1.3830 O   0  0  0  0  0  0  0  0  0  0  0  0
   -6.5406    2.0872    1.0707 O   0  0  0  0  0  0  0  0  0  0  0  0
    1.2669   -1.4361   -0.0099 N   0  0  0  0  0  0  0  0  0  0  0  0
   -5.3480    0.1341    0.8917 N   0  0  0  0  0  0  0  0  0  0  0  0
   -4.5985    2.0710   -0.1619 N   0  0  0  0  0  0  0  0  0  0  0  0
    2.5137   -2.0619   -0.3848 C   0  0  1  0  0  0  0  0  0  0  0  0
    3.7020   -1.3092    0.2163 C   0  0  0  0  0  0  0  0  0  0  0  0
    2.5052   -3.5341    0.0344 C   0  0  0  0  0  0  0  0  0  0  0  0
    5.2558    0.8565    0.5641 C   0  0  0  0  0  0  0  0  0  0  0  0
    0.1495   -1.4728   -0.8267 C   0  0  0  0  0  0  0  0  0  0  0  0
   -1.0052   -0.7538   -0.2208 C   0  0  0  0  0  0  0  0  0  0  0  0
   -3.3247   -0.0096   -0.3501 C   0  0  0  0  0  0  0  0  0  0  0  0
   -4.2704   -0.5883    0.4209 C   0  0  0  0  0  0  0  0  0  0  0  0
   -2.1642   -0.6910   -0.8780 C   0  0  0  0  0  0  0  0  0  0  0  0
   -3.4787    1.4486   -0.6870 C   0  0  0  0  0  0  0  0  0  0  0  0
    7.2452    2.5120    1.2895 C   0  0  0  0  0  0  0  0  0  0  0  0
   -4.2957   -2.0298    0.8596 C   0  0  0  0  0  0  0  0  0  0  0  0
   -5.5670    1.4730    0.6332 C   0  0  0  0  0  0  0  0  0  0  0  0
    2.5903   -2.0246   -1.4792 H   0  0  0  0  0  0  0  0  0  0  0  0
    4.6411   -1.7579   -0.1240 H   0  0  0  0  0  0  0  0  0  0  0  0
    3.6789   -1.3362    1.3113 H   0  0  0  0  0  0  0  0  0  0  0  0
    3.4219   -4.0309   -0.3006 H   0  0  0  0  0  0  0  0  0  0  0  0
    1.6481   -4.0603   -0.3995 H   0  0  0  0  0  0  0  0  0  0  0  0
    1.2075   -1.0040    0.9079 H   0  0  0  0  0  0  0  0  0  0  0  0
    5.1371    0.6667    1.6343 H   0  0  0  0  0  0  0  0  0  0  0  0
    6.0533    0.2275    0.1592 H   0  0  0  0  0  0  0  0  0  0  0  0
   -0.8830   -0.3030    0.7590 H   0  0  0  0  0  0  0  0  0  0  0  0
    2.4302   -4.6008    1.6578 H   0  0  0  0  0  0  0  0  0  0  0  0
   -2.2849   -1.1225   -1.8677 H   0  0  0  0  0  0  0  0  0  0  0  0
   -6.0272   -0.3547    1.4684 H   0  0  0  0  0  0  0  0  0  0  0  0
    7.7339    3.4885    1.2544 H   0  0  0  0  0  0  0  0  0  0  0  0
    7.9108    1.7579    0.8629 H   0  0  0  0  0  0  0  0  0  0  0  0
    7.0108    2.2624    2.3269 H   0  0  0  0  0  0  0  0  0  0  0  0
   -4.2492   -2.0950    1.9521 H   0  0  0  0  0  0  0  0  0  0  0  0
   -3.4597   -2.6105    0.4590 H   0  0  0  0  0  0  0  0  0  0  0  0
   -5.2190   -2.5138    0.5227 H   0  0  0  0  0  0  0  0  0  0  0  0
   -4.7224    3.0565   -0.3766 H   0  0  0  0  0  0  0  0  0  0  0  0
  1  4  2  0  0  0  0
  1 13  1  0  0  0  0
  1 15  1  0  0  0  0
  2  6  2  0  0  0  0
  2 15  1  0  0  0  0
  2 22  1  0  0  0  0
  3 14  1  0  0  0  0
  3 34  1  0  0  0  0
  5 16  2  0  0  0  0
  7 21  2  0  0  0  0
  8 24  2  0  0  0  0
  9 12  1  0  0  0  0
  9 16  1  0  0  0  0
  9 30  1  0  0  0  0
 10 19  1  0  0  0  0
 10 24  1  0  0  0  0
 10 36  1  0  0  0  0
 11 21  1  0  0  0  0
 11 24  1  0  0  0  0
 11 43  1  0  0  0  0
 12 13  1  0  0  0  0
 12 14  1  0  0  0  0
 12 25  1  0  0  0  0
 13 26  1  0  0  0  0
 13 27  1  0  0  0  0
 14 28  1  0  0  0  0
 14 29  1  0  0  0  0
 15 31  1  0  0  0  0
 15 32  1  0  0  0  0
 16 17  1  0  0  0  0
 17 20  2  3  0  0  0
 17 33  1  0  0  0  0
 18 19  2  0  0  0  0
 18 20  1  0  0  0  0
 18 21  1  0  0  0  0
 19 23  1  0  0  0  0
 20 35  1  0  0  0  0
 22 37  1  0  0  0  0
 22 38  1  0  0  0  0
 22 39  1  0  0  0  0
 23 40  1  0  0  0  0
 23 41  1  0  0  0  0
 23 42  1  0  0  0  0
M  END
> <PUBCHEM_COMPOUND_CID>
124888

> <PUBCHEM_CONFORMER_RMSD>
1

> <PUBCHEM_CONFORMER_DIVERSEORDER>
1
405
307
374
295
157
106
291
252
91
139
299
115
410
306
193
9
289
336
191
311
412
74
450
282
229
333
167
56
92
189
190
284
356
423
81
28
334
404
111
144
65
406
210
130
256
375
63
208
70
276
46
186
205
339
149
96
76
215
161
212
73
219
221
402
350
397
102
432
298
32
279
449
99
445
434
240
6
86
162
179
222
395
433
286
51
267
156
7
389
398
55
124
200
43
259
343
283
18
319
109
206
294
387
93
271
163
236
297
52
119
349
411
379
363
323
390
181
53
95
42
5
69
104
456
198
8
170
133
270
25
342
407
357
354
367
48
302
335
132
127
201
231
207
136
197
268
435
325
145
365
184
216
45
448
40
384
372
151
296
171
16
107
143
455
117
196
103
261
320
370
315
358
424
90
280
248
266
129
21
140
50
309
154
64
166
155
418
361
255
84
322
217
388
89
112
382
194
341
120
152
262
164
85
308
176
58
68
415
168
123
23
425
377
314
257
185
122
199
22
378
340
281
128
138
301
264
366
431
36
2
195
421
285
416
414
125
31
110
368
183
37
30
293
142
116
273
337
10
148
223
147
100
4
331
60
362
444
202
57
78
13
131
80
442
83
345
204
312
243
49
287
88
180
317
71
192
15
292
187
94
265
178
353
118
34
20
332
420
329
303
44
39
247
141
66
209
263
324
12
422
14
97
419
275
225
67
277
230
269
246
313
408
11
153
318
211
391
380
290
77
79
393
98
135
82
238
399
304
158
452
224
3
300
175
121
250
137
373
59
447
227
19
29
235
126
177
253
457
327
316
242
426
428
27
400
172
108
352
330
182
41
114
101
47
278
134
401
394
440
233
258
62
26
165
396
241
24
33
105
392
381
443
87
383
346
188
441
228
61
427
218
234
446
249
214
173
160
347
38
251
328
245
260
453
430
113
274
338
220
272
169
174
321
413
150
17
355
409
35
146
403
237
438
376
454
364
288
386
385
54
305
213
159
344
72
437
429
239
348
254
326
232
244
226
203
439
75
360
369
351
417
310
371
436
451
359

> <PUBCHEM_MMFF94_PARTIAL_CHARGES>
30
1 0.11
10 -0.54
11 -0.49
12 0.3
13 0.19
14 0.28
15 0.39
16 0.62
17 -0.14
18 0.01
19 -0.03
2 0.11
20 -0.15
21 0.62
22 0.19
23 0.14
24 0.69
3 -0.68
30 0.37
33 0.15
34 0.4
35 0.15
36 0.37
4 -0.5
43 0.37
5 -0.57
6 -0.5
7 -0.57
8 -0.57
9 -0.73

> <PUBCHEM_EFFECTIVE_ROTOR_COUNT>
9

> <PUBCHEM_PHARMACOPHORE_FEATURES>
11
1 10 donor
1 11 donor
1 3 acceptor
1 3 donor
1 4 acceptor
1 5 acceptor
1 6 acceptor
1 7 acceptor
1 8 acceptor
1 9 donor
6 10 11 18 19 21 24 rings

> <PUBCHEM_HEAVY_ATOM_COUNT>
24

> <PUBCHEM_ATOM_DEF_STEREO_COUNT>
0

> <PUBCHEM_ATOM_UDEF_STEREO_COUNT>
3

> <PUBCHEM_BOND_DEF_STEREO_COUNT>
0

> <PUBCHEM_BOND_UDEF_STEREO_COUNT>
1

> <PUBCHEM_ISOTOPIC_ATOM_COUNT>
0

> <PUBCHEM_COMPONENT_COUNT>
1

> <PUBCHEM_CACTVS_TAUTO_COUNT>
21

> <PUBCHEM_CONFORMER_ID>
0001E7D800000001

> <PUBCHEM_MMFF94_ENERGY>
41.9885

> <PUBCHEM_FEATURE_SELFOVERLAP>
55.873

> <PUBCHEM_SHAPE_FINGERPRINT>
11135609 201 18268700787748524778
12633257 1 16443345429330199398
12788726 201 17131840819692730112
13540713 5 18129077022889303902
13583140 156 17971460815566256887
13828863 39 18341611542131555645
13955234 65 18189896418548820346
14251764 75 18341895225243909640
14341114 176 18190468160104526175
14790565 3 18265613359314403580
14849402 71 18260829259926329010
15183329 4 13326583951374060708
21365058 113 17555190051413136518
21756936 100 18270392936165050182
23559900 14 18196092131784376887
270888 7 18271803571071121304
2838139 119 18059285591488625620
3411729 13 18412265017377620310
3459 39 18127668604839783336
444735 79 18117285967635463371
5104073 3 18260830384274097491
5252454 2 18200579384997586772
5364581 5 18260834842676893177
57307002 103 18267871588182915098
57724786 102 18128537072310847207
59682541 52 16343436037915119548
636775 72 17695335264390665176
7808743 9 18268704077735762038

> <PUBCHEM_SHAPE_MULTIPOLES>
451.45
17.36
4.02
1.22
5.89
1.66
0.13
-18.31
-5.72
4.08
-0.53
-0.01
0.07
0.12

> <PUBCHEM_SHAPE_SELFOVERLAP>
881.267

> <PUBCHEM_SHAPE_VOLUME>
272

> <PUBCHEM_COORDINATE_TYPE>
2
5
10

$$$$
