124912
  -OEChem-03292013323D

 36 37  0     1  0  0  0  0  0999 V2000
   -2.2727    0.0125    0.4941 O   0  0  0  0  0  0  0  0  0  0  0  0
    2.2693   -0.0187    0.5039 O   0  0  0  0  0  0  0  0  0  0  0  0
    0.1282    1.4306   -1.7525 O   0  0  0  0  0  0  0  0  0  0  0  0
   -0.1202   -1.3801   -1.7883 O   0  0  0  0  0  0  0  0  0  0  0  0
   -3.8863   -2.1130   -0.5663 O   0  0  0  0  0  0  0  0  0  0  0  0
   -4.0653    1.8468    1.7861 O   0  0  0  0  0  0  0  0  0  0  0  0
    3.8885    2.1248   -0.5107 O   0  0  0  0  0  0  0  0  0  0  0  0
    4.0589   -1.8926    1.7425 O   0  0  0  0  0  0  0  0  0  0  0  0
   -2.5224    1.0948   -1.5297 O   0  0  0  0  0  0  0  0  0  0  0  0
    2.5282   -1.0503   -1.5457 O   0  0  0  0  0  0  0  0  0  0  0  0
   -3.6816   -0.0712    0.5283 N   0  0  0  0  0  0  0  0  0  0  0  0
    3.6789    0.0577    0.5340 N   0  0  0  0  0  0  0  0  0  0  0  0
   -5.8125   -0.8513    0.1799 C   0  0  0  0  0  0  0  0  0  0  0  0
   -5.8719    0.4634    0.9608 C   0  0  0  0  0  0  0  0  0  0  0  0
    5.8118    0.8361    0.1956 C   0  0  0  0  0  0  0  0  0  0  0  0
    5.8685   -0.4976    0.9435 C   0  0  0  0  0  0  0  0  0  0  0  0
   -0.3070    0.7110   -0.6066 C   0  0  2  0  0  0  0  0  0  0  0  0
    0.3094   -0.6893   -0.6227 C   0  0  2  0  0  0  0  0  0  0  0  0
   -4.3456   -1.1255   -0.0136 C   0  0  0  0  0  0  0  0  0  0  0  0
   -4.4354    0.8614    1.1669 C   0  0  0  0  0  0  0  0  0  0  0  0
    4.3455    1.1219    0.0154 C   0  0  0  0  0  0  0  0  0  0  0  0
    4.4310   -0.8939    1.1461 C   0  0  0  0  0  0  0  0  0  0  0  0
   -1.8237    0.6523   -0.6267 C   0  0  0  0  0  0  0  0  0  0  0  0
    1.8263   -0.6301   -0.6343 C   0  0  0  0  0  0  0  0  0  0  0  0
   -6.3035   -0.7581   -0.7931 H   0  0  0  0  0  0  0  0  0  0  0  0
   -6.2714   -1.6687    0.7437 H   0  0  0  0  0  0  0  0  0  0  0  0
   -6.3618    0.3279    1.9294 H   0  0  0  0  0  0  0  0  0  0  0  0
   -6.3936    1.2395    0.3933 H   0  0  0  0  0  0  0  0  0  0  0  0
    6.2983    0.7648   -0.7816 H   0  0  0  0  0  0  0  0  0  0  0  0
    6.2770    1.6373    0.7772 H   0  0  0  0  0  0  0  0  0  0  0  0
    6.3632   -0.3882    1.9130 H   0  0  0  0  0  0  0  0  0  0  0  0
    6.3841   -1.2618    0.3547 H   0  0  0  0  0  0  0  0  0  0  0  0
    0.0016    1.2861    0.2725 H   0  0  0  0  0  0  0  0  0  0  0  0
   -0.0081   -1.2783    0.2450 H   0  0  0  0  0  0  0  0  0  0  0  0
   -0.0760    0.8940   -2.5376 H   0  0  0  0  0  0  0  0  0  0  0  0
    0.1988   -2.2963   -1.7199 H   0  0  0  0  0  0  0  0  0  0  0  0
  1 11  1  0  0  0  0
  1 23  1  0  0  0  0
  2 12  1  0  0  0  0
  2 24  1  0  0  0  0
  3 17  1  0  0  0  0
  3 35  1  0  0  0  0
  4 18  1  0  0  0  0
  4 36  1  0  0  0  0
  5 19  2  0  0  0  0
  6 20  2  0  0  0  0
  7 21  2  0  0  0  0
  8 22  2  0  0  0  0
  9 23  2  0  0  0  0
 10 24  2  0  0  0  0
 11 19  1  0  0  0  0
 11 20  1  0  0  0  0
 12 21  1  0  0  0  0
 12 22  1  0  0  0  0
 13 14  1  0  0  0  0
 13 19  1  0  0  0  0
 13 25  1  0  0  0  0
 13 26  1  0  0  0  0
 14 20  1  0  0  0  0
 14 27  1  0  0  0  0
 14 28  1  0  0  0  0
 15 16  1  0  0  0  0
 15 21  1  0  0  0  0
 15 29  1  0  0  0  0
 15 30  1  0  0  0  0
 16 22  1  0  0  0  0
 16 31  1  0  0  0  0
 16 32  1  0  0  0  0
 17 18  1  0  0  0  0
 17 23  1  0  0  0  0
 17 33  1  0  0  0  0
 18 24  1  0  0  0  0
 18 34  1  0  0  0  0
M  END
> <PUBCHEM_COMPOUND_CID>
124912

> <PUBCHEM_CONFORMER_RMSD>
0.8

> <PUBCHEM_CONFORMER_DIVERSEORDER>
1
21
9
5
77
159
175
164
48
185
145
6
52
100
184
171
232
280
179
41
219
18
178
218
112
78
47
79
285
187
134
123
66
143
190
231
267
201
73
208
84
132
287
15
160
297
141
22
255
228
26
55
147
67
61
227
236
13
233
240
229
258
85
234
64
121
69
32
172
254
128
279
259
19
224
25
197
118
298
7
161
239
213
2
37
137
291
209
16
35
95
125
116
241
157
20
71
8
44
221
107
284
281
59
3
113
136
237
38
289
39
23
288
109
252
248
244
294
101
140
92
46
162
262
70
260
189
54
273
91
214
263
200
74
186
183
251
120
195
45
181
149
168
198
170
57
196
211
167
58
154
278
188
36
235
306
131
191
166
34
193
144
28
283
152
295
266
105
146
127
205
117
194
108
11
250
17
29
265
114
223
243
99
129
86
155
148
115
222
50
174
130
43
206
103
282
106
110
207
180
202
302
75
104
290
153
111
4
89
212
27
126
96
90
276
81
63
271
94
151
216
272
247
226
225
51
82
33
274
98
203
277
275
177
30
215
138
169
133
182
293
68
210
24
156
246
87
296
257
269
199
56
292
300
93
286
158
119
76
135
122
268
245
238
83
176
49
270
142
299
139
62
102
253
303
256
220
88
124
264
217
242
163
230
150
53
173
60
249
42
165
192
204
261
31
72
65
97
305
10
304
301
40
80
14
12

> <PUBCHEM_MMFF94_PARTIAL_CHARGES>
26
1 -0.19
10 -0.57
11 -0.08
12 -0.08
13 0.06
14 0.06
15 0.06
16 0.06
17 0.34
18 0.34
19 0.57
2 -0.19
20 0.57
21 0.57
22 0.57
23 0.66
24 0.66
3 -0.68
35 0.4
36 0.4
4 -0.68
5 -0.57
6 -0.57
7 -0.57
8 -0.57
9 -0.57

> <PUBCHEM_EFFECTIVE_ROTOR_COUNT>
8.2

> <PUBCHEM_PHARMACOPHORE_FEATURES>
12
1 10 acceptor
1 3 acceptor
1 3 donor
1 4 acceptor
1 4 donor
1 5 acceptor
1 6 acceptor
1 7 acceptor
1 8 acceptor
1 9 acceptor
5 11 13 14 19 20 rings
5 12 15 16 21 22 rings

> <PUBCHEM_HEAVY_ATOM_COUNT>
24

> <PUBCHEM_ATOM_DEF_STEREO_COUNT>
2

> <PUBCHEM_ATOM_UDEF_STEREO_COUNT>
0

> <PUBCHEM_BOND_DEF_STEREO_COUNT>
0

> <PUBCHEM_BOND_UDEF_STEREO_COUNT>
0

> <PUBCHEM_ISOTOPIC_ATOM_COUNT>
0

> <PUBCHEM_COMPONENT_COUNT>
1

> <PUBCHEM_CACTVS_TAUTO_COUNT>
6

> <PUBCHEM_CONFORMER_ID>
0001E7F000000001

> <PUBCHEM_MMFF94_ENERGY>
35.3513

> <PUBCHEM_FEATURE_SELFOVERLAP>
60.925

> <PUBCHEM_SHAPE_FINGERPRINT>
10670039 82 16486711190153527096
10803635 8 12468353561859617233
11552529 35 18267297823322267306
11796584 16 14562533998357170881
12107183 9 17834677093345092147
12236239 1 18410855494487900187
12403259 118 18060136522656102585
12516196 113 17458344156272320769
12596602 18 18411136935104892714
12633257 1 18410856559645071115
12916748 109 14764354842250371442
12969540 114 14548732889565711801
13533116 47 17748824094860573946
13544653 18 17312822666959764285
13583140 156 17896020105826997990
13668630 136 14345798231655609104
13782708 43 16516235225222625986
14251751 18 13623540085894256417
14341114 176 18259984856022380640
14341114 328 18413109454807311752
146900 427 18410854408468206264
14840074 17 17676205775419904915
14848160 23 16298383573855462881
15788980 27 17167861963295697455
15880784 105 18187365436927257193
17349148 13 15864075355539233574
17844677 252 17968094196803122364
17980427 23 18271813449564604245
1813 80 17894923905434449453
193927 3 15647628760654564690
200 152 16153421744651761455
20374829 77 12612752427919202239
20645477 56 14836400345770887468
21033648 29 15841547436402474531
21267235 1 18260545586094732626
21756936 100 17060329743215841982
23402539 116 17676201369046612141
23557571 272 15864339238451343324
23559900 14 17630062476347314751
25122255 55 15575000537309169891
2838139 119 13542460947363261706
314173 85 15574713577617049823
32948 21 8430320129710422359
3545911 37 15626224619346819109
59682541 52 10665221605397333769
59755656 520 17275098436096262246
67856867 119 18268152144500471277
960060 61 8790881887285960290

> <PUBCHEM_SHAPE_MULTIPOLES>
425.25
15.21
1.71
1.51
0.04
0
0.12
-0.12
-6.8
-0.04
0.05
0.04
0
-1.51

> <PUBCHEM_SHAPE_SELFOVERLAP>
897.501

> <PUBCHEM_SHAPE_VOLUME>
238.9

> <PUBCHEM_COORDINATE_TYPE>
2
5
10

$$$$
