124952
  -OEChem-03292013323D

 58 60  0     1  0  0  0  0  0999 V2000
    1.5594   -2.7350   -0.0995 S   0  0  0  0  0  0  0  0  0  0  0  0
    0.7413   -2.5148   -1.2769 O   0  0  0  0  0  0  0  0  0  0  0  0
    1.8446   -4.0844    0.3489 O   0  0  0  0  0  0  0  0  0  0  0  0
   -1.2543    0.0138    2.4027 O   0  0  0  0  0  0  0  0  0  0  0  0
    0.9264   -1.8510    1.2030 N   0  0  0  0  0  0  0  0  0  0  0  0
   -1.5213   -0.4091    0.1110 N   0  0  0  0  0  0  0  0  0  0  0  0
   -7.7269   -0.3406   -1.8020 N   0  0  0  0  0  0  0  0  0  0  0  0
   -7.9069    0.1529    0.4751 N   0  0  0  0  0  0  0  0  0  0  0  0
    0.6983   -0.3898    1.0609 C   0  0  2  0  0  0  0  0  0  0  0  0
    1.5258    0.3493    2.1199 C   0  0  0  0  0  0  0  0  0  0  0  0
    1.2492    1.8605    2.1755 C   0  0  0  0  0  0  0  0  0  0  0  0
   -0.8019   -0.2375    1.2883 C   0  0  0  0  0  0  0  0  0  0  0  0
    1.5262    2.6085    0.8960 C   0  0  0  0  0  0  0  0  0  0  0  0
    3.1159   -1.9388   -0.3603 C   0  0  0  0  0  0  0  0  0  0  0  0
    0.5178    2.7597   -0.0557 C   0  0  0  0  0  0  0  0  0  0  0  0
    2.7908    3.1497    0.6643 C   0  0  0  0  0  0  0  0  0  0  0  0
    3.2087   -0.8586   -1.2379 C   0  0  0  0  0  0  0  0  0  0  0  0
    4.2517   -2.3917    0.3109 C   0  0  0  0  0  0  0  0  0  0  0  0
   -2.9248   -0.3389   -0.0564 C   0  0  0  0  0  0  0  0  0  0  0  0
    5.5731   -0.6843   -0.7732 C   0  0  0  0  0  0  0  0  0  0  0  0
    4.4373   -0.2313   -1.4444 C   0  0  0  0  0  0  0  0  0  0  0  0
    5.4803   -1.7644    0.1045 C   0  0  0  0  0  0  0  0  0  0  0  0
    0.7741    3.4520   -1.2393 C   0  0  0  0  0  0  0  0  0  0  0  0
    3.0470    3.8421   -0.5193 C   0  0  0  0  0  0  0  0  0  0  0  0
    2.0387    3.9932   -1.4710 C   0  0  0  0  0  0  0  0  0  0  0  0
   -3.4893   -0.5583   -1.3130 C   0  0  0  0  0  0  0  0  0  0  0  0
   -3.7437   -0.0493    1.0351 C   0  0  0  0  0  0  0  0  0  0  0  0
    6.8868   -0.0130   -0.9928 C   0  0  0  0  0  0  0  0  0  0  0  0
   -4.8725   -0.4880   -1.4781 C   0  0  0  0  0  0  0  0  0  0  0  0
   -5.1269    0.0211    0.8699 C   0  0  0  0  0  0  0  0  0  0  0  0
   -5.6914   -0.1983   -0.3867 C   0  0  0  0  0  0  0  0  0  0  0  0
   -7.1335   -0.1257   -0.5593 C   0  0  0  0  0  0  0  0  0  0  0  0
    0.9463   -0.0413    0.0574 H   0  0  0  0  0  0  0  0  0  0  0  0
    1.3314   -0.0708    3.1156 H   0  0  0  0  0  0  0  0  0  0  0  0
    2.5923    0.1819    1.9225 H   0  0  0  0  0  0  0  0  0  0  0  0
    0.2185    2.0596    2.4915 H   0  0  0  0  0  0  0  0  0  0  0  0
    1.8681    2.2921    2.9738 H   0  0  0  0  0  0  0  0  0  0  0  0
    0.9377   -2.2397    2.1537 H   0  0  0  0  0  0  0  0  0  0  0  0
   -0.9971   -0.6230   -0.7347 H   0  0  0  0  0  0  0  0  0  0  0  0
   -0.4772    2.3611    0.1151 H   0  0  0  0  0  0  0  0  0  0  0  0
    3.5857    3.0356    1.3964 H   0  0  0  0  0  0  0  0  0  0  0  0
    2.3403   -0.4916   -1.7772 H   0  0  0  0  0  0  0  0  0  0  0  0
    4.2011   -3.2264    1.0042 H   0  0  0  0  0  0  0  0  0  0  0  0
    4.4972    0.6084   -2.1318 H   0  0  0  0  0  0  0  0  0  0  0  0
    6.3580   -2.1263    0.6334 H   0  0  0  0  0  0  0  0  0  0  0  0
   -0.0121    3.5728   -1.9789 H   0  0  0  0  0  0  0  0  0  0  0  0
    4.0321    4.2621   -0.7003 H   0  0  0  0  0  0  0  0  0  0  0  0
    2.2381    4.5324   -2.3925 H   0  0  0  0  0  0  0  0  0  0  0  0
   -2.8615   -0.7847   -2.1713 H   0  0  0  0  0  0  0  0  0  0  0  0
   -3.3837    0.1360    2.0369 H   0  0  0  0  0  0  0  0  0  0  0  0
    7.4115   -0.4799   -1.8322 H   0  0  0  0  0  0  0  0  0  0  0  0
    6.7536    1.0523   -1.2101 H   0  0  0  0  0  0  0  0  0  0  0  0
    7.5199   -0.0811   -0.1017 H   0  0  0  0  0  0  0  0  0  0  0  0
   -5.2585   -0.6668   -2.4756 H   0  0  0  0  0  0  0  0  0  0  0  0
   -5.7368    0.2495    1.7399 H   0  0  0  0  0  0  0  0  0  0  0  0
   -8.7352   -0.2841   -1.9025 H   0  0  0  0  0  0  0  0  0  0  0  0
   -7.2099   -0.5586   -2.6445 H   0  0  0  0  0  0  0  0  0  0  0  0
   -8.8819    0.1606    0.1555 H   0  0  0  0  0  0  0  0  0  0  0  0
  1  2  2  0  0  0  0
  1  3  2  0  0  0  0
  1  5  1  0  0  0  0
  1 14  1  0  0  0  0
  4 12  2  0  0  0  0
  5  9  1  0  0  0  0
  5 38  1  0  0  0  0
  6 12  1  0  0  0  0
  6 19  1  0  0  0  0
  6 39  1  0  0  0  0
  7 32  1  0  0  0  0
  7 56  1  0  0  0  0
  7 57  1  0  0  0  0
  8 32  2  0  0  0  0
  8 58  1  0  0  0  0
  9 10  1  0  0  0  0
  9 12  1  0  0  0  0
  9 33  1  0  0  0  0
 10 11  1  0  0  0  0
 10 34  1  0  0  0  0
 10 35  1  0  0  0  0
 11 13  1  0  0  0  0
 11 36  1  0  0  0  0
 11 37  1  0  0  0  0
 13 15  2  0  0  0  0
 13 16  1  0  0  0  0
 14 17  2  0  0  0  0
 14 18  1  0  0  0  0
 15 23  1  0  0  0  0
 15 40  1  0  0  0  0
 16 24  2  0  0  0  0
 16 41  1  0  0  0  0
 17 21  1  0  0  0  0
 17 42  1  0  0  0  0
 18 22  2  0  0  0  0
 18 43  1  0  0  0  0
 19 26  2  0  0  0  0
 19 27  1  0  0  0  0
 20 21  2  0  0  0  0
 20 22  1  0  0  0  0
 20 28  1  0  0  0  0
 21 44  1  0  0  0  0
 22 45  1  0  0  0  0
 23 25  2  0  0  0  0
 23 46  1  0  0  0  0
 24 25  1  0  0  0  0
 24 47  1  0  0  0  0
 25 48  1  0  0  0  0
 26 29  1  0  0  0  0
 26 49  1  0  0  0  0
 27 30  2  0  0  0  0
 27 50  1  0  0  0  0
 28 51  1  0  0  0  0
 28 52  1  0  0  0  0
 28 53  1  0  0  0  0
 29 31  2  0  0  0  0
 29 54  1  0  0  0  0
 30 31  1  0  0  0  0
 30 55  1  0  0  0  0
 31 32  1  0  0  0  0
M  END
> <PUBCHEM_COMPOUND_CID>
124952

> <PUBCHEM_CONFORMER_RMSD>
1

> <PUBCHEM_CONFORMER_DIVERSEORDER>
3
104
185
145
126
151
125
162
127
159
148
53
47
184
30
67
108
115
180
39
88
192
15
188
169
76
111
153
69
54
9
174
36
49
99
189
193
122
4
156
34
120
87
187
139
97
181
94
56
123
63
182
132
191
68
38
149
183
160
79
91
82
75
83
136
131
109
44
135
13
142
58
157
43
61
106
100
134
90
84
130
141
72
144
168
128
129
46
175
116
101
154
37
21
186
60
138
98
172
77
57
137
178
20
80
173
152
65
89
176
70
93
102
16
143
29
107
28
2
5
18
62
177
110
113
171
190
166
103
8
48
164
32
155
10
117
140
95
167
11
133
114
96
27
33
86
26
85
163
55
66
73
59
24
179
22
119
35
147
31
121
51
52
14
6
118
78
71
112
81
25
150
161
105
42
74
12
41
40
17
1
45
165
158
23
146
19
124
170
64
7
50
92

> <PUBCHEM_MMFF94_PARTIAL_CHARGES>
49
1 1.45
11 0.14
12 0.57
13 -0.14
14 -0.01
15 -0.15
16 -0.15
17 -0.15
18 -0.15
19 0.12
2 -0.65
20 -0.14
21 -0.15
22 -0.15
23 -0.15
24 -0.15
25 -0.15
26 -0.15
27 -0.15
28 0.14
29 -0.15
3 -0.65
30 -0.15
31 0.09
32 0.41
38 0.42
39 0.37
4 -0.57
40 0.15
41 0.15
42 0.15
43 0.15
44 0.15
45 0.15
46 0.15
47 0.15
48 0.15
49 0.15
5 -0.91
50 0.15
54 0.15
55 0.15
56 0.4
57 0.4
58 0.4
6 -0.55
7 -0.85
8 -0.85
9 0.42

> <PUBCHEM_EFFECTIVE_ROTOR_COUNT>
10

> <PUBCHEM_PHARMACOPHORE_FEATURES>
11
1 2 acceptor
1 3 acceptor
1 4 acceptor
1 5 donor
1 6 donor
1 7 donor
1 8 donor
3 7 8 32 cation
6 13 15 16 23 24 25 rings
6 14 17 18 20 21 22 rings
6 19 26 27 29 30 31 rings

> <PUBCHEM_HEAVY_ATOM_COUNT>
32

> <PUBCHEM_ATOM_DEF_STEREO_COUNT>
0

> <PUBCHEM_ATOM_UDEF_STEREO_COUNT>
1

> <PUBCHEM_BOND_DEF_STEREO_COUNT>
0

> <PUBCHEM_BOND_UDEF_STEREO_COUNT>
0

> <PUBCHEM_ISOTOPIC_ATOM_COUNT>
0

> <PUBCHEM_COMPONENT_COUNT>
1

> <PUBCHEM_CACTVS_TAUTO_COUNT>
4

> <PUBCHEM_CONFORMER_ID>
0001E81800000003

> <PUBCHEM_MMFF94_ENERGY>
77.8951

> <PUBCHEM_FEATURE_SELFOVERLAP>
55.883

> <PUBCHEM_SHAPE_FINGERPRINT>
10930396 42 18267561625773788160
11115154 58 17988932128583341337
11421498 54 18192144906789511858
11578080 2 17825398633205252948
11720765 8 18334296491831897524
12107698 1 18411981339256916181
12156800 1 17316447676073592300
12522641 33 18267861860583149592
1361 2 18410856586058498408
13911987 19 18189638123657948342
14068700 675 17917428696536551040
14117953 113 18337961181968387332
15328829 1 17702684180533345443
15439362 3 18265615575227728724
16090146 7 16988018175020062559
17492 54 18337689584993827358
17899979 19 18335991934888323604
1813 80 18129385908367694463
18365409 1 17059482066742903438
21304303 64 18334871506226419056
23559900 14 18412258476390303251
24771750 20 17971773299837072924
3004659 81 17561077004271660387
4066623 53 17967525744801702212
4353968 344 18052263900223895470
46194498 28 18335133202947284109
5081480 168 18335134276536387429
513532 50 17895186757311995413
6669772 16 18263923418416141968

> <PUBCHEM_SHAPE_MULTIPOLES>
624.86
15.92
4.33
1.85
27.94
3.22
-0.5
-4.89
6.88
-7.18
0.79
0.33
0.5
-0.39

> <PUBCHEM_SHAPE_SELFOVERLAP>
1318.127

> <PUBCHEM_SHAPE_VOLUME>
349.6

> <PUBCHEM_COORDINATE_TYPE>
2
5
10

$$$$
