124986
  -OEChem-03292013323D

 38 42  0     1  0  0  0  0  0999 V2000
   -5.1353   -0.7311    0.6527 O   0  0  0  0  0  0  0  0  0  0  0  0
   -3.4500   -1.8305   -0.6355 O   0  0  0  0  0  0  0  0  0  0  0  0
   -3.7473    0.3434    2.2278 O   0  0  0  0  0  0  0  0  0  0  0  0
   -1.3883    2.3514   -0.6159 O   0  0  0  0  0  0  0  0  0  0  0  0
    1.1397    2.4487   -0.2774 O   0  0  0  0  0  0  0  0  0  0  0  0
    1.5155   -2.8773    0.0068 O   0  0  0  0  0  0  0  0  0  0  0  0
    3.6675    2.7269    0.0080 O   0  0  0  0  0  0  0  0  0  0  0  0
    6.2479   -1.2154    0.4950 O   0  0  0  0  0  0  0  0  0  0  0  0
   -3.7736    0.5806   -0.8289 C   0  0  1  0  0  0  0  0  0  0  0  0
   -4.4445   -0.7800   -0.6095 C   0  0  2  0  0  0  0  0  0  0  0  0
   -4.4176    1.4704    0.2114 C   0  0  0  0  0  0  0  0  0  0  0  0
   -2.3572    0.2010   -0.5997 C   0  0  0  0  0  0  0  0  0  0  0  0
   -4.8226    0.5021    1.3097 C   0  0  1  0  0  0  0  0  0  0  0  0
   -2.2509   -1.1773   -0.5250 C   0  0  0  0  0  0  0  0  0  0  0  0
   -1.2342    1.0048   -0.5050 C   0  0  0  0  0  0  0  0  0  0  0  0
    0.0126    0.3885   -0.3230 C   0  0  0  0  0  0  0  0  0  0  0  0
   -1.0346   -1.8108   -0.3542 C   0  0  0  0  0  0  0  0  0  0  0  0
    0.1116   -1.0117   -0.2490 C   0  0  0  0  0  0  0  0  0  0  0  0
    1.2233    1.2282   -0.2147 C   0  0  0  0  0  0  0  0  0  0  0  0
    1.4271   -1.6574   -0.0607 C   0  0  0  0  0  0  0  0  0  0  0  0
    2.5360    0.5775   -0.0285 C   0  0  0  0  0  0  0  0  0  0  0  0
    2.6342   -0.8132    0.0459 C   0  0  0  0  0  0  0  0  0  0  0  0
    3.6892    1.3650    0.0738 C   0  0  0  0  0  0  0  0  0  0  0  0
    3.8855   -1.4162    0.2225 C   0  0  0  0  0  0  0  0  0  0  0  0
    5.0320   -0.6277    0.3238 C   0  0  0  0  0  0  0  0  0  0  0  0
    4.9340    0.7601    0.2495 C   0  0  0  0  0  0  0  0  0  0  0  0
   -3.8967    0.9482   -1.8529 H   0  0  0  0  0  0  0  0  0  0  0  0
   -5.1906   -0.9920   -1.3833 H   0  0  0  0  0  0  0  0  0  0  0  0
   -3.7786    2.2825    0.5686 H   0  0  0  0  0  0  0  0  0  0  0  0
   -5.3246    1.9066   -0.2252 H   0  0  0  0  0  0  0  0  0  0  0  0
   -5.6992    0.8612    1.8582 H   0  0  0  0  0  0  0  0  0  0  0  0
   -0.9882   -2.8935   -0.3010 H   0  0  0  0  0  0  0  0  0  0  0  0
   -4.1285    0.0153    3.0598 H   0  0  0  0  0  0  0  0  0  0  0  0
   -0.5317    2.8021   -0.5834 H   0  0  0  0  0  0  0  0  0  0  0  0
    3.9750   -2.4982    0.2818 H   0  0  0  0  0  0  0  0  0  0  0  0
    5.8362    1.3620    0.3296 H   0  0  0  0  0  0  0  0  0  0  0  0
    4.5712    3.0736    0.1005 H   0  0  0  0  0  0  0  0  0  0  0  0
    6.1313   -2.1806    0.5246 H   0  0  0  0  0  0  0  0  0  0  0  0
  1 10  1  0  0  0  0
  1 13  1  0  0  0  0
  2 10  1  0  0  0  0
  2 14  1  0  0  0  0
  3 13  1  0  0  0  0
  3 33  1  0  0  0  0
  4 15  1  0  0  0  0
  4 34  1  0  0  0  0
  5 19  2  0  0  0  0
  6 20  2  0  0  0  0
  7 23  1  0  0  0  0
  7 37  1  0  0  0  0
  8 25  1  0  0  0  0
  8 38  1  0  0  0  0
  9 10  1  0  0  0  0
  9 11  1  0  0  0  0
  9 12  1  0  0  0  0
  9 27  1  0  0  0  0
 10 28  1  0  0  0  0
 11 13  1  0  0  0  0
 11 29  1  0  0  0  0
 11 30  1  0  0  0  0
 12 14  2  0  0  0  0
 12 15  1  0  0  0  0
 13 31  1  0  0  0  0
 14 17  1  0  0  0  0
 15 16  2  0  0  0  0
 16 18  1  0  0  0  0
 16 19  1  0  0  0  0
 17 18  2  0  0  0  0
 17 32  1  0  0  0  0
 18 20  1  0  0  0  0
 19 21  1  0  0  0  0
 20 22  1  0  0  0  0
 21 22  2  0  0  0  0
 21 23  1  0  0  0  0
 22 24  1  0  0  0  0
 23 26  2  0  0  0  0
 24 25  2  0  0  0  0
 24 35  1  0  0  0  0
 25 26  1  0  0  0  0
 26 36  1  0  0  0  0
M  END
> <PUBCHEM_COMPOUND_CID>
124986

> <PUBCHEM_CONFORMER_RMSD>
0.6

> <PUBCHEM_CONFORMER_DIVERSEORDER>
1
2
3

> <PUBCHEM_MMFF94_PARTIAL_CHARGES>
32
1 -0.56
10 0.56
12 -0.14
13 0.56
14 0.08
15 0.08
16 0.09
17 -0.15
18 0.09
19 0.4
2 -0.36
20 0.4
21 0.09
22 0.09
23 0.08
24 -0.15
25 0.08
26 -0.15
3 -0.68
32 0.15
33 0.4
34 0.45
35 0.15
36 0.15
37 0.45
38 0.45
4 -0.53
5 -0.57
6 -0.57
7 -0.53
8 -0.53
9 0.14

> <PUBCHEM_EFFECTIVE_ROTOR_COUNT>
0.8

> <PUBCHEM_PHARMACOPHORE_FEATURES>
14
1 1 acceptor
1 2 acceptor
1 3 acceptor
1 3 donor
1 4 donor
1 5 acceptor
1 6 acceptor
1 7 donor
1 8 donor
5 1 9 10 11 13 rings
5 2 9 10 12 14 rings
6 12 14 15 16 17 18 rings
6 16 18 19 20 21 22 rings
6 21 22 23 24 25 26 rings

> <PUBCHEM_HEAVY_ATOM_COUNT>
26

> <PUBCHEM_ATOM_DEF_STEREO_COUNT>
0

> <PUBCHEM_ATOM_UDEF_STEREO_COUNT>
3

> <PUBCHEM_BOND_DEF_STEREO_COUNT>
0

> <PUBCHEM_BOND_UDEF_STEREO_COUNT>
0

> <PUBCHEM_ISOTOPIC_ATOM_COUNT>
0

> <PUBCHEM_COMPONENT_COUNT>
1

> <PUBCHEM_CACTVS_TAUTO_COUNT>
57

> <PUBCHEM_CONFORMER_ID>
0001E83A00000001

> <PUBCHEM_MMFF94_ENERGY>
80.0377

> <PUBCHEM_FEATURE_SELFOVERLAP>
71.84

> <PUBCHEM_SHAPE_FINGERPRINT>
10675989 125 16389561335989118564
10906281 52 18338811095539188406
10967382 1 18337665425386010612
11578080 2 13613424501667139889
12107183 9 17838623249478461307
12236239 1 17989767804068504226
12422481 6 18339360747508872808
12633257 1 18413952780109758014
13140716 1 18337956808425186987
13224815 77 18408041810173350445
13583140 156 16588286311524957869
13862211 1 18409440388911471942
14739800 52 17273686766615094160
14790565 3 18338802320372668900
14849402 71 18270399520614140112
15081414 286 18342179917261485782
15196674 1 18410569621749528238
15209294 21 17988928855611980585
15475509 8 17986697921166300420
15788980 27 18040432187474579036
1601671 61 18343581824440836894
17844677 252 18335141985707355820
1813 80 17312821584686113020
19591789 44 18338229470308334934
20028762 73 18272080634700363766
20739085 24 18334021605091860444
21033648 29 17822273704625784605
21033650 10 15840733849105405936
21130935 74 18201711848147915818
21267235 1 18409169883782323614
21421861 104 18043525006589334610
22182313 1 18192710046869662924
23402539 116 18343010086588572550
23522609 53 18192740936797604260
23559900 14 18341886438099420752
335352 9 18410569561556734940
34797466 226 15912768417755243632
350125 39 18409728461474978828
3633792 109 18340475687603370141
3680242 22 18336260146673702138
392239 28 18260836990070792843
4214541 1 18411413999271723485
474 4 18410856594036626723
5104073 3 18339639044320632850
59755656 215 18338517426908108406
6034566 193 17466243237044080468
7495541 125 15647344060542491190
9981440 41 17186147112064754704

> <PUBCHEM_SHAPE_MULTIPOLES>
488.11
11.72
2.43
0.96
2.81
0.24
0.39
-0.17
2.91
1.19
-0.25
-1.23
0.08
-0.51

> <PUBCHEM_SHAPE_SELFOVERLAP>
1130.422

> <PUBCHEM_SHAPE_VOLUME>
246

> <PUBCHEM_COORDINATE_TYPE>
2
5
10

$$$$
