124925
  -OEChem-03292013323D

 32 34  0     1  0  0  0  0  0999 V2000
    1.6653    0.1017   -0.8723 O   0  0  0  0  0  0  0  0  0  0  0  0
    3.6785   -0.3700    2.0614 O   0  0  0  0  0  0  0  0  0  0  0  0
    3.4245    2.1891   -1.5555 O   0  0  0  0  0  0  0  0  0  0  0  0
   -1.0124   -3.2267   -0.7211 O   0  0  0  0  0  0  0  0  0  0  0  0
   -0.3200   -0.9936   -0.2805 N   0  0  0  0  0  0  0  0  0  0  0  0
   -2.5375   -1.4668   -0.3030 N   0  0  0  0  0  0  0  0  0  0  0  0
   -0.5384    1.4172    0.2293 N   0  0  0  0  0  0  0  0  0  0  0  0
   -2.8566    2.1382    0.4586 N   0  0  0  0  0  0  0  0  0  0  0  0
   -4.6510    0.5821    0.1965 N   0  0  0  0  0  0  0  0  0  0  0  0
    1.1064   -1.1165   -0.3551 C   0  0  2  0  0  0  0  0  0  0  0  0
    1.7524   -1.3635    0.9959 C   0  0  0  0  0  0  0  0  0  0  0  0
    3.1008   -0.7077    0.8179 C   0  0  1  0  0  0  0  0  0  0  0  0
    2.7304    0.5181   -0.0015 C   0  0  1  0  0  0  0  0  0  0  0  0
    3.8815    1.0621   -0.8288 C   0  0  0  0  0  0  0  0  0  0  0  0
   -1.0230    0.1940   -0.0088 C   0  0  0  0  0  0  0  0  0  0  0  0
   -1.2508   -2.0540   -0.4697 C   0  0  0  0  0  0  0  0  0  0  0  0
   -2.3685   -0.1148   -0.0271 C   0  0  0  0  0  0  0  0  0  0  0  0
   -3.2727    0.8777    0.2106 C   0  0  0  0  0  0  0  0  0  0  0  0
   -1.5090    2.3332    0.4531 C   0  0  0  0  0  0  0  0  0  0  0  0
    1.3601   -1.9248   -1.0509 H   0  0  0  0  0  0  0  0  0  0  0  0
    1.8200   -2.4271    1.2458 H   0  0  0  0  0  0  0  0  0  0  0  0
    1.1984   -0.8838    1.8132 H   0  0  0  0  0  0  0  0  0  0  0  0
    3.7756   -1.3773    0.2714 H   0  0  0  0  0  0  0  0  0  0  0  0
    2.3357    1.3185    0.6373 H   0  0  0  0  0  0  0  0  0  0  0  0
    4.2417    0.3230   -1.5518 H   0  0  0  0  0  0  0  0  0  0  0  0
    4.7169    1.3735   -0.1953 H   0  0  0  0  0  0  0  0  0  0  0  0
    4.5010    0.1156    1.8807 H   0  0  0  0  0  0  0  0  0  0  0  0
   -3.4285   -1.9422   -0.3718 H   0  0  0  0  0  0  0  0  0  0  0  0
    2.6797    1.8992   -2.1097 H   0  0  0  0  0  0  0  0  0  0  0  0
   -1.1755    3.3450    0.6523 H   0  0  0  0  0  0  0  0  0  0  0  0
   -5.2911    1.3440    0.3830 H   0  0  0  0  0  0  0  0  0  0  0  0
   -4.9462   -0.3590    0.4250 H   0  0  0  0  0  0  0  0  0  0  0  0
  1 10  1  0  0  0  0
  1 13  1  0  0  0  0
  2 12  1  0  0  0  0
  2 27  1  0  0  0  0
  3 14  1  0  0  0  0
  3 29  1  0  0  0  0
  4 16  2  0  0  0  0
  5 10  1  0  0  0  0
  5 15  1  0  0  0  0
  5 16  1  0  0  0  0
  6 16  1  0  0  0  0
  6 17  1  0  0  0  0
  6 28  1  0  0  0  0
  7 15  2  0  0  0  0
  7 19  1  0  0  0  0
  8 18  1  0  0  0  0
  8 19  2  0  0  0  0
  9 18  1  0  0  0  0
  9 31  1  0  0  0  0
  9 32  1  0  0  0  0
 10 11  1  0  0  0  0
 10 20  1  0  0  0  0
 11 12  1  0  0  0  0
 11 21  1  0  0  0  0
 11 22  1  0  0  0  0
 12 13  1  0  0  0  0
 12 23  1  0  0  0  0
 13 14  1  0  0  0  0
 13 24  1  0  0  0  0
 14 25  1  0  0  0  0
 14 26  1  0  0  0  0
 15 17  1  0  0  0  0
 17 18  2  0  0  0  0
 19 30  1  0  0  0  0
M  END
> <PUBCHEM_COMPOUND_CID>
124925

> <PUBCHEM_CONFORMER_RMSD>
0.6

> <PUBCHEM_CONFORMER_DIVERSEORDER>
2
22
8
3
23
25
27
7
13
11
20
12
26
5
17
24
15
18
16
6
4
1
19
10
9
21
28
14

> <PUBCHEM_MMFF94_PARTIAL_CHARGES>
24
1 -0.56
10 0.58
12 0.28
13 0.28
14 0.28
15 0.43
16 0.69
17 0.12
18 0.41
19 0.47
2 -0.68
27 0.4
28 0.37
29 0.4
3 -0.68
30 0.15
31 0.4
32 0.4
4 -0.57
5 -0.48
6 -0.55
7 -0.62
8 -0.62
9 -0.9

> <PUBCHEM_EFFECTIVE_ROTOR_COUNT>
3

> <PUBCHEM_PHARMACOPHORE_FEATURES>
13
1 1 acceptor
1 2 acceptor
1 2 donor
1 3 acceptor
1 3 donor
1 4 acceptor
1 6 donor
1 9 cation
1 9 donor
3 7 8 19 cation
5 1 10 11 12 13 rings
5 5 6 15 16 17 rings
6 7 8 15 17 18 19 rings

> <PUBCHEM_HEAVY_ATOM_COUNT>
19

> <PUBCHEM_ATOM_DEF_STEREO_COUNT>
2

> <PUBCHEM_ATOM_UDEF_STEREO_COUNT>
1

> <PUBCHEM_BOND_DEF_STEREO_COUNT>
0

> <PUBCHEM_BOND_UDEF_STEREO_COUNT>
0

> <PUBCHEM_ISOTOPIC_ATOM_COUNT>
0

> <PUBCHEM_COMPONENT_COUNT>
1

> <PUBCHEM_CACTVS_TAUTO_COUNT>
6

> <PUBCHEM_CONFORMER_ID>
0001E7FD00000002

> <PUBCHEM_MMFF94_ENERGY>
63.6766

> <PUBCHEM_FEATURE_SELFOVERLAP>
66.091

> <PUBCHEM_SHAPE_FINGERPRINT>
10498660 4 18341618139243623893
10759866 29 18260835903507071008
10906281 52 18339378387873260233
10967382 1 18341613672762160631
11132069 177 18272644619829592755
11578080 2 17609734868671699468
11582403 64 12690946577141801662
11640471 11 18041857206437504860
12173636 292 18343015571467641645
12251169 10 18262511499103625354
12403814 3 17822285795390992525
12553582 1 17909545404282278535
12788726 201 18120091938252280099
13140716 1 18197770201391921777
13538477 17 18408881871411564854
13583140 156 17240760627973576273
13965767 371 17545598955417200272
14787075 74 17320154429621860154
14790565 3 18270979963895537281
15279307 12 18335140899333486482
15342168 16 17024044828849638060
15669948 3 18340767151666715190
15775835 57 18334582347389646548
16752209 62 18343297085072671127
16945 1 18271520991565025059
17846911 113 18271799091061262753
1813 80 17315916560438933170
18186145 218 17914058603292618613
20510252 161 18201726154139828475
20559304 39 18335138631748789000
20715895 44 17684357370419864125
20905425 154 17480301609500508725
21524375 3 18129941165871268775
23402539 116 18129642167649419879
23419403 2 17259002831152715228
23557571 272 17845648300020111930
23559900 14 18202008681563102366
23598291 2 18259698991504768966
23598294 1 18339359793873600675
2748010 2 17474672746037777605
350125 39 18054516798351118011
4340502 62 16950572103517790049
4409770 3 15882923935740952646
44154327 71 18410299090170418909
458136 41 17913794746509217643
474 4 17532101664439187116
537710 114 18412546500823095673
6333272 397 18338803320951894373
633830 44 17605288457229512404
7097593 13 18117541964913523498
7364860 26 17481423781702883399
7615 1 18189036742115252254
77492 1 18186794811999328030
81228 2 18129653248544074671
88987 49 18201432623279789918
9981440 41 17614570663341261048

> <PUBCHEM_SHAPE_MULTIPOLES>
342.63
6.95
2.62
1.11
0.64
0.54
-0.22
-2.89
-0.55
-0.92
0.55
1.37
-0.06
-1.55

> <PUBCHEM_SHAPE_SELFOVERLAP>
743.776

> <PUBCHEM_SHAPE_VOLUME>
184.6

> <PUBCHEM_COORDINATE_TYPE>
2
5
10

$$$$
