124904002
  -OEChem-03292013293D

 42 42  0     1  0  0  0  0  0999 V2000
    0.1647   -2.3386   -0.5931 O   0  0  0  0  0  0  0  0  0  0  0  0
    0.1468    1.7801   -0.3026 O   0  0  0  0  0  0  0  0  0  0  0  0
    2.4984    0.3201    0.4415 O   0  0  0  0  0  0  0  0  0  0  0  0
   -2.2983    0.2556    0.1644 O   0  0  0  0  0  0  0  0  0  0  0  0
   -1.1829   -2.0043    1.3266 O   0  0  0  0  0  0  0  0  0  0  0  0
    2.4130   -3.8814   -0.3374 O   0  0  0  0  0  0  0  0  0  0  0  0
   -1.0774    2.4792    1.5273 O   0  0  0  0  0  0  0  0  0  0  0  0
    2.7003    1.9638   -1.1692 O   0  0  0  0  0  0  0  0  0  0  0  0
   -3.4292   -0.2318   -1.7901 O   0  0  0  0  0  0  0  0  0  0  0  0
    0.1210    0.4372    0.1845 C   0  0  2  0  0  0  0  0  0  0  0  0
    1.4070   -0.2568   -0.2717 C   0  0  2  0  0  0  0  0  0  0  0  0
   -1.1004   -0.2854   -0.3820 C   0  0  1  0  0  0  0  0  0  0  0  0
    1.3453   -1.7684   -0.0161 C   0  0  2  0  0  0  0  0  0  0  0  0
   -1.0444   -1.7813   -0.0756 C   0  0  1  0  0  0  0  0  0  0  0  0
    2.5381   -2.5008   -0.6249 C   0  0  0  0  0  0  0  0  0  0  0  0
   -0.4951    2.7000    0.4741 C   0  0  0  0  0  0  0  0  0  0  0  0
    3.0528    1.4323   -0.1250 C   0  0  0  0  0  0  0  0  0  0  0  0
   -3.3931    0.2181   -0.6528 C   0  0  0  0  0  0  0  0  0  0  0  0
   -1.5887   -3.3365    1.6003 C   0  0  0  0  0  0  0  0  0  0  0  0
   -0.3867    4.0550   -0.1569 C   0  0  0  0  0  0  0  0  0  0  0  0
    4.1817    1.9257    0.7285 C   0  0  0  0  0  0  0  0  0  0  0  0
   -4.5729    0.8181    0.0503 C   0  0  0  0  0  0  0  0  0  0  0  0
    0.0957    0.4428    1.2828 H   0  0  0  0  0  0  0  0  0  0  0  0
    1.5310   -0.1017   -1.3532 H   0  0  0  0  0  0  0  0  0  0  0  0
   -1.0762   -0.1343   -1.4708 H   0  0  0  0  0  0  0  0  0  0  0  0
    1.3440   -1.9759    1.0622 H   0  0  0  0  0  0  0  0  0  0  0  0
   -1.8793   -2.2682   -0.5946 H   0  0  0  0  0  0  0  0  0  0  0  0
    3.4835   -2.1377   -0.2107 H   0  0  0  0  0  0  0  0  0  0  0  0
    2.5519   -2.3860   -1.7139 H   0  0  0  0  0  0  0  0  0  0  0  0
    3.1793   -4.3281   -0.7356 H   0  0  0  0  0  0  0  0  0  0  0  0
   -1.6426   -3.4618    2.6852 H   0  0  0  0  0  0  0  0  0  0  0  0
   -0.8636   -4.0542    1.2046 H   0  0  0  0  0  0  0  0  0  0  0  0
   -2.5810   -3.5308    1.1815 H   0  0  0  0  0  0  0  0  0  0  0  0
    0.6644    4.3443   -0.2343 H   0  0  0  0  0  0  0  0  0  0  0  0
   -0.9052    4.7884    0.4673 H   0  0  0  0  0  0  0  0  0  0  0  0
   -0.8570    4.0427   -1.1433 H   0  0  0  0  0  0  0  0  0  0  0  0
    4.6233    2.8139    0.2677 H   0  0  0  0  0  0  0  0  0  0  0  0
    4.9518    1.1543    0.8065 H   0  0  0  0  0  0  0  0  0  0  0  0
    3.8058    2.1971    1.7181 H   0  0  0  0  0  0  0  0  0  0  0  0
   -4.8009    0.2400    0.9493 H   0  0  0  0  0  0  0  0  0  0  0  0
   -5.4426    0.7912   -0.6123 H   0  0  0  0  0  0  0  0  0  0  0  0
   -4.3612    1.8596    0.3052 H   0  0  0  0  0  0  0  0  0  0  0  0
  1 13  1  0  0  0  0
  1 14  1  0  0  0  0
  2 10  1  0  0  0  0
  2 16  1  0  0  0  0
  3 11  1  0  0  0  0
  3 17  1  0  0  0  0
  4 12  1  0  0  0  0
  4 18  1  0  0  0  0
  5 14  1  0  0  0  0
  5 19  1  0  0  0  0
  6 15  1  0  0  0  0
  6 30  1  0  0  0  0
  7 16  2  0  0  0  0
  8 17  2  0  0  0  0
  9 18  2  0  0  0  0
 10 11  1  0  0  0  0
 10 12  1  0  0  0  0
 10 23  1  0  0  0  0
 11 13  1  0  0  0  0
 11 24  1  0  0  0  0
 12 14  1  0  0  0  0
 12 25  1  0  0  0  0
 13 15  1  0  0  0  0
 13 26  1  0  0  0  0
 14 27  1  0  0  0  0
 15 28  1  0  0  0  0
 15 29  1  0  0  0  0
 16 20  1  0  0  0  0
 17 21  1  0  0  0  0
 18 22  1  0  0  0  0
 19 31  1  0  0  0  0
 19 32  1  0  0  0  0
 19 33  1  0  0  0  0
 20 34  1  0  0  0  0
 20 35  1  0  0  0  0
 20 36  1  0  0  0  0
 21 37  1  0  0  0  0
 21 38  1  0  0  0  0
 21 39  1  0  0  0  0
 22 40  1  0  0  0  0
 22 41  1  0  0  0  0
 22 42  1  0  0  0  0
M  END
> <PUBCHEM_COMPOUND_CID>
124904002

> <PUBCHEM_CONFORMER_RMSD>
1

> <PUBCHEM_CONFORMER_DIVERSEORDER>
1
2
3
11
6
8
4
9
5
7
10

> <PUBCHEM_MMFF94_PARTIAL_CHARGES>
23
1 -0.56
10 0.28
11 0.28
12 0.28
13 0.28
14 0.56
15 0.28
16 0.66
17 0.66
18 0.66
19 0.28
2 -0.43
20 0.06
21 0.06
22 0.06
3 -0.43
30 0.4
4 -0.43
5 -0.56
6 -0.68
7 -0.57
8 -0.57
9 -0.57

> <PUBCHEM_EFFECTIVE_ROTOR_COUNT>
9.2

> <PUBCHEM_PHARMACOPHORE_FEATURES>
8
1 1 acceptor
1 5 acceptor
1 6 acceptor
1 6 donor
1 7 acceptor
1 8 acceptor
1 9 acceptor
6 1 10 11 12 13 14 rings

> <PUBCHEM_HEAVY_ATOM_COUNT>
22

> <PUBCHEM_ATOM_DEF_STEREO_COUNT>
5

> <PUBCHEM_ATOM_UDEF_STEREO_COUNT>
0

> <PUBCHEM_BOND_DEF_STEREO_COUNT>
0

> <PUBCHEM_BOND_UDEF_STEREO_COUNT>
0

> <PUBCHEM_ISOTOPIC_ATOM_COUNT>
0

> <PUBCHEM_COMPONENT_COUNT>
1

> <PUBCHEM_CACTVS_TAUTO_COUNT>
1

> <PUBCHEM_CONFORMER_ID>
0771E24200000001

> <PUBCHEM_MMFF94_ENERGY>
47.389

> <PUBCHEM_FEATURE_SELFOVERLAP>
40.643

> <PUBCHEM_SHAPE_FINGERPRINT>
10967382 1 18411699893753976820
11680986 33 18409456877459914514
13140716 1 18408882975466463282
13380535 76 18335412525633728342
13544592 271 18267861859949179098
14617773 55 17916307134694357057
16945 1 18338527322106420114
18186145 218 18115021897110359903
19591789 44 17618510221417828919
20739085 24 18122652503586309937
21041028 32 18196942067726527649
21501502 16 18126573305994454620
21634736 98 18198060270424150767
22182313 1 18196672871813695534
2334 1 18194688300617451750
23402539 116 18129653244586607340
23419403 2 17680465244969167019
23526113 38 18335692845907600243
23558518 356 18122911927667984345
23559900 14 18199471151046204284
25 1 18337663204882767293
2748010 2 18268162018313578982
350125 39 18197220235251632656
352729 6 18337675329633374940
5255222 1 16755509128012476265
589210 1 18124875655746487044
59554788 191 17974565002904763556
70251023 43 18053652587139955175
7364860 26 18342454795121164798
81228 2 18343033185060593872
9981440 41 18269261516987745394

> <PUBCHEM_SHAPE_MULTIPOLES>
399.93
5.86
4.76
1.15
0.95
0.69
0.14
-1.73
-0.65
-1.55
0.79
0.54
0.25
0.8

> <PUBCHEM_SHAPE_SELFOVERLAP>
804.435

> <PUBCHEM_SHAPE_VOLUME>
232.5

> <PUBCHEM_COORDINATE_TYPE>
2
5
10

$$$$
