124930
  -OEChem-03292013323D

 29 29  0     1  0  0  0  0  0999 V2000
    1.4465   -1.4924    1.9248 O   0  0  0  0  0  0  0  0  0  0  0  0
    3.2513   -1.3992   -0.7231 O   0  0  0  0  0  0  0  0  0  0  0  0
    1.6300   -0.2549   -1.8195 O   0  0  0  0  0  0  0  0  0  0  0  0
   -3.2418    1.8377    0.3332 O   0  0  0  0  0  0  0  0  0  0  0  0
   -4.0131   -0.4363   -1.0657 O   0  0  0  0  0  0  0  0  0  0  0  0
    1.8263    1.7240    0.1056 N   0  0  0  0  0  0  0  0  0  0  0  0
    1.0518   -0.2173    1.4129 C   0  0  1  0  0  0  0  0  0  0  0  0
    2.1484    0.3453    0.4886 C   0  0  1  0  0  0  0  0  0  0  0  0
   -0.3106   -0.2731    0.7475 C   0  0  0  0  0  0  0  0  0  0  0  0
   -1.1528    0.8180    0.8497 C   0  0  0  0  0  0  0  0  0  0  0  0
   -0.6746   -1.4137    0.0569 C   0  0  0  0  0  0  0  0  0  0  0  0
    2.2862   -0.4458   -0.8033 C   0  0  0  0  0  0  0  0  0  0  0  0
   -2.4056    0.7666    0.2384 C   0  0  0  0  0  0  0  0  0  0  0  0
   -1.9273   -1.4651   -0.5542 C   0  0  0  0  0  0  0  0  0  0  0  0
    2.8779    2.2813   -0.7281 C   0  0  0  0  0  0  0  0  0  0  0  0
   -2.7927   -0.3749   -0.4636 C   0  0  0  0  0  0  0  0  0  0  0  0
    0.9691    0.4261    2.2995 H   0  0  0  0  0  0  0  0  0  0  0  0
    3.1132    0.3229    1.0124 H   0  0  0  0  0  0  0  0  0  0  0  0
    1.7324    2.2899    0.9489 H   0  0  0  0  0  0  0  0  0  0  0  0
   -0.8522    1.7043    1.4017 H   0  0  0  0  0  0  0  0  0  0  0  0
   -0.0136   -2.2710   -0.0277 H   0  0  0  0  0  0  0  0  0  0  0  0
    2.3044   -1.3784    2.3682 H   0  0  0  0  0  0  0  0  0  0  0  0
   -2.2226   -2.3568   -1.1006 H   0  0  0  0  0  0  0  0  0  0  0  0
    2.9196    1.8521   -1.7327 H   0  0  0  0  0  0  0  0  0  0  0  0
    3.8634    2.1952   -0.2573 H   0  0  0  0  0  0  0  0  0  0  0  0
    2.6830    3.3505   -0.8666 H   0  0  0  0  0  0  0  0  0  0  0  0
    3.3406   -1.8997   -1.5620 H   0  0  0  0  0  0  0  0  0  0  0  0
   -2.8067    2.5346    0.8539 H   0  0  0  0  0  0  0  0  0  0  0  0
   -4.4776    0.4028   -0.9017 H   0  0  0  0  0  0  0  0  0  0  0  0
  1  7  1  0  0  0  0
  1 22  1  0  0  0  0
  2 12  1  0  0  0  0
  2 27  1  0  0  0  0
  3 12  2  0  0  0  0
  4 13  1  0  0  0  0
  4 28  1  0  0  0  0
  5 16  1  0  0  0  0
  5 29  1  0  0  0  0
  6  8  1  0  0  0  0
  6 15  1  0  0  0  0
  6 19  1  0  0  0  0
  7  8  1  0  0  0  0
  7  9  1  0  0  0  0
  7 17  1  0  0  0  0
  8 12  1  0  0  0  0
  8 18  1  0  0  0  0
  9 10  2  0  0  0  0
  9 11  1  0  0  0  0
 10 13  1  0  0  0  0
 10 20  1  0  0  0  0
 11 14  2  0  0  0  0
 11 21  1  0  0  0  0
 13 16  2  0  0  0  0
 14 16  1  0  0  0  0
 14 23  1  0  0  0  0
 15 24  1  0  0  0  0
 15 25  1  0  0  0  0
 15 26  1  0  0  0  0
M  END
> <PUBCHEM_COMPOUND_CID>
124930

> <PUBCHEM_CONFORMER_RMSD>
0.6

> <PUBCHEM_CONFORMER_DIVERSEORDER>
3
11
28
22
9
25
15
13
8
20
10
5
14
4
12
21
6
19
7
17
27
23
16
26
24
18
2
1

> <PUBCHEM_MMFF94_PARTIAL_CHARGES>
24
1 -0.68
10 -0.15
11 -0.15
12 0.66
13 0.08
14 -0.15
15 0.27
16 0.08
19 0.36
2 -0.65
20 0.15
21 0.15
22 0.4
23 0.15
27 0.5
28 0.45
29 0.45
3 -0.57
4 -0.53
5 -0.53
6 -0.9
7 0.42
8 0.33
9 -0.14

> <PUBCHEM_EFFECTIVE_ROTOR_COUNT>
4

> <PUBCHEM_PHARMACOPHORE_FEATURES>
10
1 1 acceptor
1 1 donor
1 2 acceptor
1 3 acceptor
1 4 donor
1 5 donor
1 6 cation
1 6 donor
3 2 3 12 anion
6 9 10 11 13 14 16 rings

> <PUBCHEM_HEAVY_ATOM_COUNT>
16

> <PUBCHEM_ATOM_DEF_STEREO_COUNT>
2

> <PUBCHEM_ATOM_UDEF_STEREO_COUNT>
0

> <PUBCHEM_BOND_DEF_STEREO_COUNT>
0

> <PUBCHEM_BOND_UDEF_STEREO_COUNT>
0

> <PUBCHEM_ISOTOPIC_ATOM_COUNT>
0

> <PUBCHEM_COMPONENT_COUNT>
1

> <PUBCHEM_CACTVS_TAUTO_COUNT>
10

> <PUBCHEM_CONFORMER_ID>
0001E80200000003

> <PUBCHEM_MMFF94_ENERGY>
37.713

> <PUBCHEM_FEATURE_SELFOVERLAP>
50.81

> <PUBCHEM_SHAPE_FINGERPRINT>
12382932 28 8142079858164894813
12897270 3 17915185843176562024
12932764 1 17894627028878996979
13299463 15 17203335562465998913
13464514 151 18262252096349269516
14115302 16 17489316221884275881
14250199 8 18336269032301667293
15219456 202 16845275134225715171
15775835 57 18186241710094667189
16945 1 17967526835632983681
17134986 127 18195810661513732869
17357990 137 18337106748598157265
17834072 14 16558463059628787358
18186145 218 18334008380982072661
18522853 303 18336545009757032501
18981168 100 17096388278514626956
20201158 50 16916790621702152182
20645476 183 18335977593486256279
20653085 51 18409740542737681337
21501502 16 17988934378649876573
21947302 44 18339084899145074348
22802520 49 18272662267586708243
230 275 16950563306965883404
23402539 116 18200306607419152372
23419403 2 14829942072800183658
23552423 10 18342455937107815771
23557571 272 17973732668297046227
23559900 14 17559954325838456330
3060560 45 18124596384140545541
353137 74 18265329684865784681
474 4 17822854324106361884
5262128 65 18201734958580484452
549884 4 18260835886269296500
74978 22 18408040706108552443
8030462 33 18040994016731667083
81228 2 13900532237781988138

> <PUBCHEM_SHAPE_MULTIPOLES>
294.94
5.54
1.9
1.39
2.03
0.63
-0.15
1.13
1.94
-0.65
0.07
-0.59
-0.37
-0.59

> <PUBCHEM_SHAPE_SELFOVERLAP>
614.355

> <PUBCHEM_SHAPE_VOLUME>
167.2

> <PUBCHEM_COORDINATE_TYPE>
2
5
10

$$$$
