124929
  -OEChem-03292013323D

 31 31  0     1  0  0  0  0  0999 V2000
   -3.8430   -0.1593   -1.0004 O   0  0  0  0  0  0  0  0  0  0  0  0
   -2.8033   -2.5925   -0.0343 O   0  0  0  0  0  0  0  0  0  0  0  0
   -3.9262    2.0604    0.5943 O   0  0  0  0  0  0  0  0  0  0  0  0
   -0.3834   -1.6949   -0.7960 O   0  0  0  0  0  0  0  0  0  0  0  0
    1.6028    0.2879    0.0069 O   0  0  0  0  0  0  0  0  0  0  0  0
    3.2055    1.3531   -1.2724 O   0  0  0  0  0  0  0  0  0  0  0  0
   -3.4823   -0.3086    0.3766 C   0  0  1  0  0  0  0  0  0  0  0  0
   -2.3816   -1.3544    0.5079 C   0  0  2  0  0  0  0  0  0  0  0  0
   -2.9958    1.0341    0.9259 C   0  0  1  0  0  0  0  0  0  0  0  0
   -0.7623    0.5528   -0.1441 C   0  0  0  0  0  0  0  0  0  0  0  0
   -1.1181   -0.9010   -0.2103 C   0  0  0  0  0  0  0  0  0  0  0  0
   -1.6389    1.4113    0.4027 C   0  0  0  0  0  0  0  0  0  0  0  0
    0.5694    0.9671   -0.6846 C   0  0  0  0  0  0  0  0  0  0  0  0
    2.8788    0.5757   -0.3896 C   0  0  0  0  0  0  0  0  0  0  0  0
    3.8094   -0.2217    0.4380 C   0  0  0  0  0  0  0  0  0  0  0  0
    5.1309   -0.1205    0.2444 C   0  0  0  0  0  0  0  0  0  0  0  0
    6.1381   -0.8894    1.0351 C   0  0  0  0  0  0  0  0  0  0  0  0
   -4.3935   -0.6325    0.8908 H   0  0  0  0  0  0  0  0  0  0  0  0
   -2.1329   -1.5138    1.5638 H   0  0  0  0  0  0  0  0  0  0  0  0
   -2.9323    0.9908    2.0198 H   0  0  0  0  0  0  0  0  0  0  0  0
   -1.3642    2.4606    0.4863 H   0  0  0  0  0  0  0  0  0  0  0  0
    0.7143    2.0491   -0.5761 H   0  0  0  0  0  0  0  0  0  0  0  0
    0.6180    0.7238   -1.7533 H   0  0  0  0  0  0  0  0  0  0  0  0
   -3.0838    0.1904   -1.4945 H   0  0  0  0  0  0  0  0  0  0  0  0
   -2.1145   -3.2498    0.1642 H   0  0  0  0  0  0  0  0  0  0  0  0
   -4.7911    1.7977    0.9528 H   0  0  0  0  0  0  0  0  0  0  0  0
    3.3963   -0.8806    1.1941 H   0  0  0  0  0  0  0  0  0  0  0  0
    5.5292    0.5442   -0.5175 H   0  0  0  0  0  0  0  0  0  0  0  0
    6.7370   -1.5155    0.3667 H   0  0  0  0  0  0  0  0  0  0  0  0
    5.6716   -1.5381    1.7833 H   0  0  0  0  0  0  0  0  0  0  0  0
    6.8102   -0.1990    1.5538 H   0  0  0  0  0  0  0  0  0  0  0  0
  1  7  1  0  0  0  0
  1 24  1  0  0  0  0
  2  8  1  0  0  0  0
  2 25  1  0  0  0  0
  3  9  1  0  0  0  0
  3 26  1  0  0  0  0
  4 11  2  0  0  0  0
  5 13  1  0  0  0  0
  5 14  1  0  0  0  0
  6 14  2  0  0  0  0
  7  8  1  0  0  0  0
  7  9  1  0  0  0  0
  7 18  1  0  0  0  0
  8 11  1  0  0  0  0
  8 19  1  0  0  0  0
  9 12  1  0  0  0  0
  9 20  1  0  0  0  0
 10 11  1  0  0  0  0
 10 12  2  0  0  0  0
 10 13  1  0  0  0  0
 12 21  1  0  0  0  0
 13 22  1  0  0  0  0
 13 23  1  0  0  0  0
 14 15  1  0  0  0  0
 15 16  2  3  0  0  0
 15 27  1  0  0  0  0
 16 17  1  0  0  0  0
 16 28  1  0  0  0  0
 17 29  1  0  0  0  0
 17 30  1  0  0  0  0
 17 31  1  0  0  0  0
M  END
> <PUBCHEM_COMPOUND_CID>
124929

> <PUBCHEM_CONFORMER_RMSD>
0.6

> <PUBCHEM_CONFORMER_DIVERSEORDER>
1
120
110
13
126
140
83
57
119
20
105
112
37
153
61
50
15
59
144
2
125
116
156
95
23
56
145
30
77
159
146
101
41
62
7
11
132
123
141
111
69
143
33
97
74
99
93
134
14
154
94
27
75
60
152
117
63
47
64
129
17
42
86
138
85
43
157
38
67
89
96
147
128
78
70
8
149
51
92
71
107
135
48
106
158
118
139
34
88
155
26
40
127
32
3
73
10
66
36
98
18
58
54
121
142
35
137
108
79
130
115
55
25
91
113
76
133
148
6
53
122
28
131
24
109
45
87
81
49
136
19
4
80
46
100
44
90
68
103
52
65
22
5
150
9
104
151
21
72
124
16
12
29
114
31
102
39
82
84

> <PUBCHEM_MMFF94_PARTIAL_CHARGES>
23
1 -0.68
10 -0.12
11 0.49
12 -0.29
13 0.42
14 0.71
15 -0.14
16 -0.29
17 0.14
2 -0.68
21 0.15
24 0.4
25 0.4
26 0.4
27 0.15
28 0.15
3 -0.68
4 -0.57
5 -0.43
6 -0.57
7 0.28
8 0.34
9 0.42

> <PUBCHEM_EFFECTIVE_ROTOR_COUNT>
4.6

> <PUBCHEM_PHARMACOPHORE_FEATURES>
10
1 1 acceptor
1 1 donor
1 17 hydrophobe
1 2 acceptor
1 2 donor
1 3 acceptor
1 3 donor
1 4 acceptor
1 6 acceptor
6 7 8 9 10 11 12 rings

> <PUBCHEM_HEAVY_ATOM_COUNT>
17

> <PUBCHEM_ATOM_DEF_STEREO_COUNT>
3

> <PUBCHEM_ATOM_UDEF_STEREO_COUNT>
0

> <PUBCHEM_BOND_DEF_STEREO_COUNT>
0

> <PUBCHEM_BOND_UDEF_STEREO_COUNT>
1

> <PUBCHEM_ISOTOPIC_ATOM_COUNT>
0

> <PUBCHEM_COMPONENT_COUNT>
1

> <PUBCHEM_CACTVS_TAUTO_COUNT>
31

> <PUBCHEM_CONFORMER_ID>
0001E80100000001

> <PUBCHEM_MMFF94_ENERGY>
21.5436

> <PUBCHEM_FEATURE_SELFOVERLAP>
50.772

> <PUBCHEM_SHAPE_FINGERPRINT>
10062212 137 18334857250860744035
10465860 250 18060135440651235832
11132069 177 18343029852033537989
11315181 36 18409164433468669192
12236239 1 18186803590711975640
12251169 10 18408325462846374572
13167823 11 18260831522972725658
13551218 46 18263076614106127634
13675066 3 17989208144724708982
13862211 1 18270119153796740735
14420673 8 18195251019038869074
15042514 8 18269559519268181455
15375358 24 17060339609082878576
16945 1 18269290083226381789
17780758 139 18339913841171668298
1813 80 17240773831125161310
18186145 218 13190336911287048380
19422 9 18187933936136595492
19489759 90 17988918955348489784
200 152 17313099765749818144
20279233 1 17131838668272355460
20281475 54 18260831548573854244
21065198 48 18336266838253743884
22646028 28 18259984907577715002
2306618 200 18261107465968690901
23402539 116 18131343085940673316
23532345 12 18335137626800288276
23559900 14 18341042034069339992
2748010 2 18051442611875572999
351380 180 17489583450792232048
351380 3 17603582990167348762
42 15 18409448077377393032
4214541 1 18411418406240504480
5104073 3 18338523040103063680
559249 180 18260823761460620994
5706482 22 18342745091944623825
573450 72 18410009948951112304
5924683 9 18130780204706767790
67856867 119 18262800817224011572

> <PUBCHEM_SHAPE_MULTIPOLES>
314.64
10.7
1.86
0.97
15.26
0.54
0.04
1.1
-2.83
-1.88
0.02
0.18
-0.11
-1.15

> <PUBCHEM_SHAPE_SELFOVERLAP>
640.756

> <PUBCHEM_SHAPE_VOLUME>
180.7

> <PUBCHEM_COORDINATE_TYPE>
2
5
10

$$$$
