125081
  -OEChem-03292013323D

 30 29  0     1  0  0  0  0  0999 V2000
    0.1485    1.3811   -1.6053 O   0  0  0  0  0  0  0  0  0  0  0  0
   -0.9630   -0.4536    1.3501 O   0  0  0  0  0  0  0  0  0  0  0  0
   -2.7716    1.5804    0.3813 O   0  0  0  0  0  0  0  0  0  0  0  0
    2.5661    2.7914    0.3653 O   0  0  0  0  0  0  0  0  0  0  0  0
   -4.3895   -0.5153    0.7468 O   0  0  0  0  0  0  0  0  0  0  0  0
    3.4507   -1.3156    1.1946 O   0  0  0  0  0  0  0  0  0  0  0  0
    1.9525   -0.5965   -0.4366 N   0  0  0  0  0  0  0  0  0  0  0  0
   -3.3003   -1.8087   -0.8059 N   0  0  0  0  0  0  0  0  0  0  0  0
    0.1107    1.0467   -0.2092 C   0  0  1  0  0  0  0  0  0  0  0  0
   -0.9979   -0.0111   -0.0125 C   0  0  2  0  0  0  0  0  0  0  0  0
    1.5202    0.6156    0.2092 C   0  0  2  0  0  0  0  0  0  0  0  0
   -2.4364    0.4131   -0.3512 C   0  0  1  0  0  0  0  0  0  0  0  0
    2.5616    1.6649   -0.1247 C   0  0  0  0  0  0  0  0  0  0  0  0
   -3.4743   -0.6645   -0.0595 C   0  0  0  0  0  0  0  0  0  0  0  0
    2.8855   -1.4630    0.1141 C   0  0  0  0  0  0  0  0  0  0  0  0
    3.1372   -2.6648   -0.7565 C   0  0  0  0  0  0  0  0  0  0  0  0
   -0.1560    1.9577    0.3407 H   0  0  0  0  0  0  0  0  0  0  0  0
   -0.7603   -0.8839   -0.6331 H   0  0  0  0  0  0  0  0  0  0  0  0
    1.5672    0.4613    1.2935 H   0  0  0  0  0  0  0  0  0  0  0  0
   -2.5085    0.6682   -1.4144 H   0  0  0  0  0  0  0  0  0  0  0  0
    1.5960   -0.7919   -1.3681 H   0  0  0  0  0  0  0  0  0  0  0  0
    3.3262    1.3894   -0.8724 H   0  0  0  0  0  0  0  0  0  0  0  0
    0.6595    2.2025   -1.7007 H   0  0  0  0  0  0  0  0  0  0  0  0
   -0.1549   -0.9805    1.4692 H   0  0  0  0  0  0  0  0  0  0  0  0
   -2.6311    1.3900    1.3246 H   0  0  0  0  0  0  0  0  0  0  0  0
   -2.5605   -1.9063   -1.4936 H   0  0  0  0  0  0  0  0  0  0  0  0
   -3.9310   -2.5969   -0.7040 H   0  0  0  0  0  0  0  0  0  0  0  0
    3.9603   -3.2543   -0.3435 H   0  0  0  0  0  0  0  0  0  0  0  0
    2.2367   -3.2838   -0.7956 H   0  0  0  0  0  0  0  0  0  0  0  0
    3.4054   -2.3459   -1.7677 H   0  0  0  0  0  0  0  0  0  0  0  0
  1  9  1  0  0  0  0
  1 23  1  0  0  0  0
  2 10  1  0  0  0  0
  2 24  1  0  0  0  0
  3 12  1  0  0  0  0
  3 25  1  0  0  0  0
  4 13  2  0  0  0  0
  5 14  2  0  0  0  0
  6 15  2  0  0  0  0
  7 11  1  0  0  0  0
  7 15  1  0  0  0  0
  7 21  1  0  0  0  0
  8 14  1  0  0  0  0
  8 26  1  0  0  0  0
  8 27  1  0  0  0  0
  9 10  1  0  0  0  0
  9 11  1  0  0  0  0
  9 17  1  0  0  0  0
 10 12  1  0  0  0  0
 10 18  1  0  0  0  0
 11 13  1  0  0  0  0
 11 19  1  0  0  0  0
 12 14  1  0  0  0  0
 12 20  1  0  0  0  0
 13 22  1  0  0  0  0
 15 16  1  0  0  0  0
 16 28  1  0  0  0  0
 16 29  1  0  0  0  0
 16 30  1  0  0  0  0
M  END
> <PUBCHEM_COMPOUND_CID>
125081

> <PUBCHEM_CONFORMER_RMSD>
0.8

> <PUBCHEM_CONFORMER_DIVERSEORDER>
1
40
86
12
34
85
38
93
61
71
69
80
15
99
35
22
84
64
17
76
90
45
94
30
48
11
58
95
65
27
79
68
87
32
72
42
73
81
98
49
33
13
46
18
23
52
56
53
4
8
41
55
37
100
16
67
89
88
21
74
25
82
36
97
6
29
5
66
62
43
54
10
39
96
47
26
91
19
3
24
77
59
60
92
2
7
51
83
78
63
57
70
44
50
75
28
9
14
31
20

> <PUBCHEM_MMFF94_PARTIAL_CHARGES>
23
1 -0.68
10 0.28
11 0.36
12 0.34
13 0.45
14 0.57
15 0.57
16 0.06
2 -0.68
21 0.37
22 0.06
23 0.4
24 0.4
25 0.4
26 0.37
27 0.37
3 -0.68
4 -0.57
5 -0.57
6 -0.57
7 -0.73
8 -0.8
9 0.28

> <PUBCHEM_EFFECTIVE_ROTOR_COUNT>
7

> <PUBCHEM_PHARMACOPHORE_FEATURES>
11
1 1 acceptor
1 1 donor
1 2 acceptor
1 2 donor
1 3 acceptor
1 3 donor
1 4 acceptor
1 5 acceptor
1 6 acceptor
1 7 donor
1 8 donor

> <PUBCHEM_HEAVY_ATOM_COUNT>
16

> <PUBCHEM_ATOM_DEF_STEREO_COUNT>
4

> <PUBCHEM_ATOM_UDEF_STEREO_COUNT>
0

> <PUBCHEM_BOND_DEF_STEREO_COUNT>
0

> <PUBCHEM_BOND_UDEF_STEREO_COUNT>
0

> <PUBCHEM_ISOTOPIC_ATOM_COUNT>
0

> <PUBCHEM_COMPONENT_COUNT>
1

> <PUBCHEM_CACTVS_TAUTO_COUNT>
8

> <PUBCHEM_CONFORMER_ID>
0001E89900000001

> <PUBCHEM_MMFF94_ENERGY>
29.1186

> <PUBCHEM_FEATURE_SELFOVERLAP>
55.841

> <PUBCHEM_SHAPE_FINGERPRINT>
11769659 78 18412820304982655095
12932764 1 18342469170070833861
13296908 3 17894344484476645749
13583140 156 17345450704726513913
14252887 29 17968381259579556369
14289901 80 18271805778299157433
15375462 6 18341330101678314597
15422964 175 18055348038222476350
15442244 35 18341055103433119537
16945 1 18194962933341994829
17804303 29 18338243639473892781
18186145 218 17676201369051906161
20281475 54 18263649455057611806
20645477 70 18409438202936687695
20671657 53 18188207598520458538
20871998 22 18339923689252271574
21501502 16 18409731746513082412
21501925 9 18340476811924796338
2255824 54 18338240474362791372
23557571 272 17313370249752517541
23559900 14 18342450448171162672
3286 77 18334292045991281670
581208 293 18336824320244247004
5902787 121 18263354798936987562
7364860 26 18412828018870564632
81228 2 17475784361279519688
81539 233 18116994588574593252
9709674 26 18409169947574090235

> <PUBCHEM_SHAPE_MULTIPOLES>
284.09
7.11
2.53
1.02
3.77
0.13
0.02
-3.26
-0.79
-2.61
0.35
-0.07
-0.09
0

> <PUBCHEM_SHAPE_SELFOVERLAP>
554.013

> <PUBCHEM_SHAPE_VOLUME>
169.2

> <PUBCHEM_COORDINATE_TYPE>
2
5
10

$$$$
