125073
  -OEChem-03292013323D

 26 25  0     1  0  0  0  0  0999 V2000
    0.6270    1.4874   -1.3746 O   0  0  0  0  0  0  0  0  0  0  0  0
   -0.7217   -0.7224    1.1905 O   0  0  0  0  0  0  0  0  0  0  0  0
   -2.1845    1.5928    0.8019 O   0  0  0  0  0  0  0  0  0  0  0  0
   -3.2549   -1.1706   -1.1942 O   0  0  0  0  0  0  0  0  0  0  0  0
    3.0097    2.3001    0.4406 O   0  0  0  0  0  0  0  0  0  0  0  0
   -4.0425   -0.2671    0.7319 O   0  0  0  0  0  0  0  0  0  0  0  0
    2.4279   -2.6568    0.7595 O   0  0  0  0  0  0  0  0  0  0  0  0
    2.1654   -0.8765   -0.7347 N   0  0  0  0  0  0  0  0  0  0  0  0
    0.5463    0.8863   -0.0783 C   0  0  1  0  0  0  0  0  0  0  0  0
   -0.6817   -0.0468   -0.0729 C   0  0  2  0  0  0  0  0  0  0  0  0
    1.8755    0.1711    0.2098 C   0  0  2  0  0  0  0  0  0  0  0  0
   -2.0309    0.6590   -0.2693 C   0  0  1  0  0  0  0  0  0  0  0  0
    3.0614    1.1142    0.1243 C   0  0  0  0  0  0  0  0  0  0  0  0
   -3.2093   -0.2867   -0.1650 C   0  0  0  0  0  0  0  0  0  0  0  0
    2.4125   -2.1838   -0.3696 C   0  0  0  0  0  0  0  0  0  0  0  0
    0.4210    1.6889    0.6590 H   0  0  0  0  0  0  0  0  0  0  0  0
   -0.5735   -0.8116   -0.8507 H   0  0  0  0  0  0  0  0  0  0  0  0
    1.8767   -0.2471    1.2224 H   0  0  0  0  0  0  0  0  0  0  0  0
   -2.0867    1.2032   -1.2167 H   0  0  0  0  0  0  0  0  0  0  0  0
    2.2178   -0.6348   -1.7203 H   0  0  0  0  0  0  0  0  0  0  0  0
    4.0339    0.6573   -0.1317 H   0  0  0  0  0  0  0  0  0  0  0  0
   -0.0979    2.1305   -1.4477 H   0  0  0  0  0  0  0  0  0  0  0  0
   -0.8344   -0.0475    1.8818 H   0  0  0  0  0  0  0  0  0  0  0  0
   -2.9781    2.1231    0.6145 H   0  0  0  0  0  0  0  0  0  0  0  0
    2.6130   -2.8022   -1.2601 H   0  0  0  0  0  0  0  0  0  0  0  0
   -4.0227   -1.7769   -1.1221 H   0  0  0  0  0  0  0  0  0  0  0  0
  1  9  1  0  0  0  0
  1 22  1  0  0  0  0
  2 10  1  0  0  0  0
  2 23  1  0  0  0  0
  3 12  1  0  0  0  0
  3 24  1  0  0  0  0
  4 14  1  0  0  0  0
  4 26  1  0  0  0  0
  5 13  2  0  0  0  0
  6 14  2  0  0  0  0
  7 15  2  0  0  0  0
  8 11  1  0  0  0  0
  8 15  1  0  0  0  0
  8 20  1  0  0  0  0
  9 10  1  0  0  0  0
  9 11  1  0  0  0  0
  9 16  1  0  0  0  0
 10 12  1  0  0  0  0
 10 17  1  0  0  0  0
 11 13  1  0  0  0  0
 11 18  1  0  0  0  0
 12 14  1  0  0  0  0
 12 19  1  0  0  0  0
 13 21  1  0  0  0  0
 15 25  1  0  0  0  0
M  END
> <PUBCHEM_COMPOUND_CID>
125073

> <PUBCHEM_CONFORMER_RMSD>
0.8

> <PUBCHEM_CONFORMER_DIVERSEORDER>
1
55
31
15
39
46
22
29
16
11
41
52
7
50
48
40
5
23
37
14
49
18
20
19
6
56
51
45
30
34
2
54
27
26
4
35
12
43
3
38
17
25
44
32
36
42
24
9
28
47
13
21
8
10
33
53

> <PUBCHEM_MMFF94_PARTIAL_CHARGES>
22
1 -0.68
10 0.28
11 0.36
12 0.34
13 0.45
14 0.66
15 0.57
2 -0.68
20 0.37
21 0.06
22 0.4
23 0.4
24 0.4
25 0.06
26 0.5
3 -0.68
4 -0.65
5 -0.57
6 -0.57
7 -0.57
8 -0.73
9 0.28

> <PUBCHEM_EFFECTIVE_ROTOR_COUNT>
7

> <PUBCHEM_PHARMACOPHORE_FEATURES>
12
1 1 acceptor
1 1 donor
1 2 acceptor
1 2 donor
1 3 acceptor
1 3 donor
1 4 acceptor
1 5 acceptor
1 6 acceptor
1 7 acceptor
1 8 donor
3 4 6 14 anion

> <PUBCHEM_HEAVY_ATOM_COUNT>
15

> <PUBCHEM_ATOM_DEF_STEREO_COUNT>
4

> <PUBCHEM_ATOM_UDEF_STEREO_COUNT>
0

> <PUBCHEM_BOND_DEF_STEREO_COUNT>
0

> <PUBCHEM_BOND_UDEF_STEREO_COUNT>
0

> <PUBCHEM_ISOTOPIC_ATOM_COUNT>
0

> <PUBCHEM_COMPONENT_COUNT>
1

> <PUBCHEM_CACTVS_TAUTO_COUNT>
4

> <PUBCHEM_CONFORMER_ID>
0001E89100000001

> <PUBCHEM_MMFF94_ENERGY>
21.8523

> <PUBCHEM_FEATURE_SELFOVERLAP>
60.982

> <PUBCHEM_SHAPE_FINGERPRINT>
11769659 78 18342731884688339887
12932764 1 18271816700237434637
13380535 76 18262514930803535458
14251717 144 18411694396470183558
14252887 29 18114189656902057529
14289901 80 18273212014937204033
15375462 189 18059857311369496571
15442244 35 18197783189209689168
15501101 241 18335703819301297212
15775835 57 17917436470506211141
15852999 172 17968371376738339578
16945 1 18262245524405533445
18186145 218 17821728299940294847
20201158 50 18333732446196695242
20645477 70 18341605989108236903
20871998 22 18126568908233040142
21501502 16 18341334383734146432
21524375 3 18057318599403971224
2255824 54 18411144623587124798
23419403 2 14856891854210977002
23493267 7 16128109922034040813
23557571 272 17095795555911162021
2748010 2 17896027763490189253
3248919 1 17822301205338030821
581208 293 18411695521661632446
7364860 26 18342176652933346818
81228 2 17386845011062692845
81539 233 18262232334988060068

> <PUBCHEM_SHAPE_MULTIPOLES>
262.63
6.16
2.25
0.99
3.47
0.68
-0.09
0.68
0.31
-2.5
0.16
0.25
0.06
-0.26

> <PUBCHEM_SHAPE_SELFOVERLAP>
513.947

> <PUBCHEM_SHAPE_VOLUME>
154.9

> <PUBCHEM_COORDINATE_TYPE>
2
5
10

$$$$
