125188
  -OEChem-03292013323D

 43 44  0     1  0  0  0  0  0999 V2000
    7.8632   -0.4411   -1.2670 Cl  0  0  0  0  0  0  0  0  0  0  0  0
   -1.0149    1.0716    1.1190 O   0  0  0  0  0  0  0  0  0  0  0  0
   -1.4154    3.8271    0.8372 O   0  0  0  0  0  0  0  0  0  0  0  0
   -2.0745   -2.8368    0.3325 O   0  0  0  0  0  0  0  0  0  0  0  0
    3.1157    0.2338   -1.7924 O   0  0  0  0  0  0  0  0  0  0  0  0
   -6.3529   -1.3690   -0.4983 O   0  0  0  0  0  0  0  0  0  0  0  0
    4.8989   -1.2508    2.1812 O   0  0  0  0  0  0  0  0  0  0  0  0
   -2.4334   -0.5351    0.1785 N   0  0  0  0  0  0  0  0  0  0  0  0
    1.9016    0.4268    0.1515 N   0  0  0  0  0  0  0  0  0  0  0  0
   -4.2034   -2.0911   -0.0822 N   0  0  0  0  0  0  0  0  0  0  0  0
    4.0712   -0.5353    0.1739 N   0  0  0  0  0  0  0  0  0  0  0  0
    3.9183   -0.7234    1.6453 N   0  0  0  0  0  0  0  0  0  0  0  0
    0.7553    1.0450   -0.4736 C   0  0  1  0  0  0  0  0  0  0  0  0
   -0.2711    0.0066   -0.8693 C   0  0  0  0  0  0  0  0  0  0  0  0
   -0.0124    1.9139    0.5189 C   0  0  1  0  0  0  0  0  0  0  0  0
   -1.0652   -0.1750    0.4126 C   0  0  1  0  0  0  0  0  0  0  0  0
   -0.7224    3.0838   -0.1521 C   0  0  0  0  0  0  0  0  0  0  0  0
   -3.3592    0.4796   -0.0286 C   0  0  0  0  0  0  0  0  0  0  0  0
   -2.8400   -1.8865    0.1569 C   0  0  0  0  0  0  0  0  0  0  0  0
    3.0380    0.0521   -0.5730 C   0  0  0  0  0  0  0  0  0  0  0  0
   -4.6632    0.2804   -0.2572 C   0  0  0  0  0  0  0  0  0  0  0  0
   -5.1681   -1.1179   -0.2942 C   0  0  0  0  0  0  0  0  0  0  0  0
   -5.6430    1.3878   -0.4777 C   0  0  0  0  0  0  0  0  0  0  0  0
    5.3111   -0.9698   -0.4569 C   0  0  0  0  0  0  0  0  0  0  0  0
    6.3660    0.1233   -0.4851 C   0  0  0  0  0  0  0  0  0  0  0  0
    1.1072    1.6180   -1.3380 H   0  0  0  0  0  0  0  0  0  0  0  0
    0.1504   -0.9359   -1.2336 H   0  0  0  0  0  0  0  0  0  0  0  0
   -0.9061    0.4098   -1.6684 H   0  0  0  0  0  0  0  0  0  0  0  0
    0.6252    2.2896    1.3276 H   0  0  0  0  0  0  0  0  0  0  0  0
   -0.5881   -0.9304    1.0485 H   0  0  0  0  0  0  0  0  0  0  0  0
   -0.0048    3.7496   -0.6426 H   0  0  0  0  0  0  0  0  0  0  0  0
   -1.4490    2.7602   -0.9014 H   0  0  0  0  0  0  0  0  0  0  0  0
    1.8271    0.1936    1.1353 H   0  0  0  0  0  0  0  0  0  0  0  0
   -2.9940    1.4964   -0.0073 H   0  0  0  0  0  0  0  0  0  0  0  0
   -0.7583    4.1570    1.4735 H   0  0  0  0  0  0  0  0  0  0  0  0
   -4.5193   -3.0568   -0.1020 H   0  0  0  0  0  0  0  0  0  0  0  0
   -6.1115    1.2932   -1.4628 H   0  0  0  0  0  0  0  0  0  0  0  0
   -5.1663    2.3725   -0.4297 H   0  0  0  0  0  0  0  0  0  0  0  0
   -6.4280    1.3612    0.2850 H   0  0  0  0  0  0  0  0  0  0  0  0
    5.6844   -1.8751    0.0361 H   0  0  0  0  0  0  0  0  0  0  0  0
    5.0787   -1.2644   -1.4881 H   0  0  0  0  0  0  0  0  0  0  0  0
    6.6251    0.4486    0.5272 H   0  0  0  0  0  0  0  0  0  0  0  0
    6.0118    0.9989   -1.0383 H   0  0  0  0  0  0  0  0  0  0  0  0
  1 25  1  0  0  0  0
  2 15  1  0  0  0  0
  2 16  1  0  0  0  0
  3 17  1  0  0  0  0
  3 35  1  0  0  0  0
  4 19  2  0  0  0  0
  5 20  2  0  0  0  0
  6 22  2  0  0  0  0
  7 12  2  0  0  0  0
  8 16  1  0  0  0  0
  8 18  1  0  0  0  0
  8 19  1  0  0  0  0
  9 13  1  0  0  0  0
  9 20  1  0  0  0  0
  9 33  1  0  0  0  0
 10 19  1  0  0  0  0
 10 22  1  0  0  0  0
 10 36  1  0  0  0  0
 11 12  1  0  0  0  0
 11 20  1  0  0  0  0
 11 24  1  0  0  0  0
 13 14  1  0  0  0  0
 13 15  1  0  0  0  0
 13 26  1  0  0  0  0
 14 16  1  0  0  0  0
 14 27  1  0  0  0  0
 14 28  1  0  0  0  0
 15 17  1  0  0  0  0
 15 29  1  0  0  0  0
 16 30  1  0  0  0  0
 17 31  1  0  0  0  0
 17 32  1  0  0  0  0
 18 21  2  0  0  0  0
 18 34  1  0  0  0  0
 21 22  1  0  0  0  0
 21 23  1  0  0  0  0
 23 37  1  0  0  0  0
 23 38  1  0  0  0  0
 23 39  1  0  0  0  0
 24 25  1  0  0  0  0
 24 40  1  0  0  0  0
 24 41  1  0  0  0  0
 25 42  1  0  0  0  0
 25 43  1  0  0  0  0
M  END
> <PUBCHEM_COMPOUND_CID>
125188

> <PUBCHEM_CONFORMER_RMSD>
1

> <PUBCHEM_CONFORMER_DIVERSEORDER>
1
23
30
16
68
63
73
85
65
86
28
74
83
51
79
81
49
8
72
64
53
12
42
78
58
41
54
59
38
71
84
67
31
19
27
69
2
87
34
55
62
13
52
57
4
45
46
35
25
24
50
7
76
3
40
10
21
39
60
47
70
11
18
77
33
6
43
48
17
80
32
5
75
82
29
15
61
20
22
66
26
44
37
9
36
14
56

> <PUBCHEM_MMFF94_PARTIAL_CHARGES>
28
1 -0.29
10 -0.49
11 -0.18
12 -0.02
13 0.3
15 0.28
16 0.58
17 0.28
18 -0.04
19 0.69
2 -0.56
20 0.69
21 -0.12
22 0.62
23 0.14
24 0.3
25 0.29
3 -0.68
33 0.37
34 0.15
35 0.4
36 0.37
4 -0.57
5 -0.57
6 -0.57
7 -0.16
8 -0.47
9 -0.73

> <PUBCHEM_EFFECTIVE_ROTOR_COUNT>
9

> <PUBCHEM_PHARMACOPHORE_FEATURES>
10
1 10 donor
1 2 acceptor
1 3 acceptor
1 3 donor
1 4 acceptor
1 5 acceptor
1 6 acceptor
1 9 donor
5 2 13 14 15 16 rings
6 8 10 18 19 21 22 rings

> <PUBCHEM_HEAVY_ATOM_COUNT>
25

> <PUBCHEM_ATOM_DEF_STEREO_COUNT>
3

> <PUBCHEM_ATOM_UDEF_STEREO_COUNT>
0

> <PUBCHEM_BOND_DEF_STEREO_COUNT>
0

> <PUBCHEM_BOND_UDEF_STEREO_COUNT>
0

> <PUBCHEM_ISOTOPIC_ATOM_COUNT>
0

> <PUBCHEM_COMPONENT_COUNT>
1

> <PUBCHEM_CACTVS_TAUTO_COUNT>
6

> <PUBCHEM_CONFORMER_ID>
0001E90400000001

> <PUBCHEM_MMFF94_ENERGY>
51.8285

> <PUBCHEM_FEATURE_SELFOVERLAP>
50.752

> <PUBCHEM_SHAPE_FINGERPRINT>
10 15 17774993614854006722
10165383 225 10881394348872255591
10366900 7 17704073967468155866
11265709 11 18411141358979567025
11315181 36 17989495129564107792
11796584 16 18261115192229955110
12236239 1 18040154002912386846
12403259 118 12247688149148919386
12516196 113 18272369793441287120
12788726 201 18336547118786493624
13288520 33 18411984680683079911
13782708 43 17346324739752152062
14251764 18 18113616789927321135
15183329 4 17676201372998967471
17980427 23 17131568210034913801
18006028 8 18343022211333977060
18681886 176 18410575124177614758
19489759 90 18131634465517721595
200 152 17748830713547393428
20511986 3 18041271145454668764
21267235 1 18337677507477491955
2297311 6 18272093781816029308
23366157 5 17900820762604785125
23402539 116 18343299254527099301
23557571 272 18059861597947681708
23559900 14 18341328976586806640
3004659 81 18260266369463776110
335352 9 18410571782883274677
5104073 3 18270966872955726833
5283173 99 18335416859425022461
54446538 1 11743839162271682586
559249 180 18335417954878741207
59755656 215 18412549782442166174
7226269 152 18411419475708492545

> <PUBCHEM_SHAPE_MULTIPOLES>
456.24
16.38
2.66
1.2
18.34
1.75
0.33
-6.95
-4.15
-3.35
0.6
1.85
-0.13
-0.59

> <PUBCHEM_SHAPE_SELFOVERLAP>
927.957

> <PUBCHEM_SHAPE_VOLUME>
265.3

> <PUBCHEM_COORDINATE_TYPE>
2
5
10

$$$$
