125137
  -OEChem-03292013323D

 33 34  0     1  0  0  0  0  0999 V2000
    0.7242    0.1854    0.4060 S   0  0  0  0  0  0  0  0  0  0  0  0
   -1.5600   -3.1262    0.0790 O   0  0  0  0  0  0  0  0  0  0  0  0
    3.9297   -1.2882    1.4903 O   0  0  0  0  0  0  0  0  0  0  0  0
    3.8137   -1.4418   -0.7701 O   0  0  0  0  0  0  0  0  0  0  0  0
   -2.6706    1.1148    0.3552 N   0  0  0  0  0  0  0  0  0  0  0  0
    4.5202    1.3994   -0.4632 N   0  0  0  0  0  0  0  0  0  0  0  0
   -0.6128    0.7180   -0.7032 C   0  0  2  0  0  0  0  0  0  0  0  0
   -0.8742    2.2476   -0.5855 C   0  0  0  0  0  0  0  0  0  0  0  0
   -1.9146    0.1643   -0.2673 C   0  0  0  0  0  0  0  0  0  0  0  0
   -2.0210    2.4090    0.4319 C   0  0  0  0  0  0  0  0  0  0  0  0
   -2.6411   -0.9975   -0.2912 C   0  0  0  0  0  0  0  0  0  0  0  0
   -3.8659    0.6294    0.7448 C   0  0  0  0  0  0  0  0  0  0  0  0
   -3.8813   -0.7016    0.3569 C   0  0  0  0  0  0  0  0  0  0  0  0
    2.0962    1.0258   -0.4168 C   0  0  0  0  0  0  0  0  0  0  0  0
   -2.2342   -2.2911   -0.8678 C   0  0  0  0  0  0  0  0  0  0  0  0
    3.4382    0.7184    0.2504 C   0  0  1  0  0  0  0  0  0  0  0  0
    3.7536   -0.7656    0.2504 C   0  0  0  0  0  0  0  0  0  0  0  0
   -0.3783    0.4333   -1.7336 H   0  0  0  0  0  0  0  0  0  0  0  0
   -1.2351    2.6057   -1.5604 H   0  0  0  0  0  0  0  0  0  0  0  0
   -0.0169    2.8723   -0.3279 H   0  0  0  0  0  0  0  0  0  0  0  0
   -1.6568    2.5379    1.4551 H   0  0  0  0  0  0  0  0  0  0  0  0
   -2.7300    3.1932    0.1567 H   0  0  0  0  0  0  0  0  0  0  0  0
   -4.6030    1.2353    1.2531 H   0  0  0  0  0  0  0  0  0  0  0  0
   -4.7027   -1.3859    0.5205 H   0  0  0  0  0  0  0  0  0  0  0  0
    1.9378    2.1074   -0.3987 H   0  0  0  0  0  0  0  0  0  0  0  0
    2.1135    0.7035   -1.4647 H   0  0  0  0  0  0  0  0  0  0  0  0
   -3.1098   -2.8440   -1.2240 H   0  0  0  0  0  0  0  0  0  0  0  0
   -1.5699   -2.1520   -1.7277 H   0  0  0  0  0  0  0  0  0  0  0  0
    3.4283    1.0814    1.2857 H   0  0  0  0  0  0  0  0  0  0  0  0
    5.3956    1.2746    0.0444 H   0  0  0  0  0  0  0  0  0  0  0  0
    4.3421    2.4030   -0.4776 H   0  0  0  0  0  0  0  0  0  0  0  0
   -0.7456   -2.6649    0.3441 H   0  0  0  0  0  0  0  0  0  0  0  0
    4.1157   -2.2508    1.4587 H   0  0  0  0  0  0  0  0  0  0  0  0
  1  7  1  0  0  0  0
  1 14  1  0  0  0  0
  2 15  1  0  0  0  0
  2 32  1  0  0  0  0
  3 17  1  0  0  0  0
  3 33  1  0  0  0  0
  4 17  2  0  0  0  0
  5  9  1  0  0  0  0
  5 10  1  0  0  0  0
  5 12  1  0  0  0  0
  6 16  1  0  0  0  0
  6 30  1  0  0  0  0
  6 31  1  0  0  0  0
  7  8  1  0  0  0  0
  7  9  1  0  0  0  0
  7 18  1  0  0  0  0
  8 10  1  0  0  0  0
  8 19  1  0  0  0  0
  8 20  1  0  0  0  0
  9 11  2  0  0  0  0
 10 21  1  0  0  0  0
 10 22  1  0  0  0  0
 11 13  1  0  0  0  0
 11 15  1  0  0  0  0
 12 13  2  0  0  0  0
 12 23  1  0  0  0  0
 13 24  1  0  0  0  0
 14 16  1  0  0  0  0
 14 25  1  0  0  0  0
 14 26  1  0  0  0  0
 15 27  1  0  0  0  0
 15 28  1  0  0  0  0
 16 17  1  0  0  0  0
 16 29  1  0  0  0  0
M  END
> <PUBCHEM_COMPOUND_CID>
125137

> <PUBCHEM_CONFORMER_RMSD>
0.8

> <PUBCHEM_CONFORMER_DIVERSEORDER>
1
10
14
3
9
8
7
4
11
6
13
2
12
5

> <PUBCHEM_MMFF94_PARTIAL_CHARGES>
22
1 -0.46
10 0.26
11 -0.18
12 -0.3
13 -0.15
14 0.23
15 0.46
16 0.33
17 0.66
2 -0.68
23 0.15
24 0.15
3 -0.65
30 0.36
31 0.36
32 0.4
33 0.5
4 -0.57
5 0.05
6 -0.99
7 0.41
9 -0.33

> <PUBCHEM_EFFECTIVE_ROTOR_COUNT>
5.6

> <PUBCHEM_PHARMACOPHORE_FEATURES>
10
1 2 acceptor
1 2 donor
1 3 acceptor
1 4 acceptor
1 5 cation
1 6 cation
1 6 donor
3 3 4 17 anion
5 5 7 8 9 10 rings
5 5 9 11 12 13 rings

> <PUBCHEM_HEAVY_ATOM_COUNT>
17

> <PUBCHEM_ATOM_DEF_STEREO_COUNT>
2

> <PUBCHEM_ATOM_UDEF_STEREO_COUNT>
0

> <PUBCHEM_BOND_DEF_STEREO_COUNT>
0

> <PUBCHEM_BOND_UDEF_STEREO_COUNT>
0

> <PUBCHEM_ISOTOPIC_ATOM_COUNT>
0

> <PUBCHEM_COMPONENT_COUNT>
1

> <PUBCHEM_CACTVS_TAUTO_COUNT>
1

> <PUBCHEM_CONFORMER_ID>
0001E8D100000001

> <PUBCHEM_MMFF94_ENERGY>
29.0693

> <PUBCHEM_FEATURE_SELFOVERLAP>
51.063

> <PUBCHEM_SHAPE_FINGERPRINT>
10366900 7 17774998024688290316
10616163 171 18269278026842134790
11552529 35 17345472763541636391
12173636 292 18269267976444731525
12553582 1 18339356469674012268
12633257 1 17989212546570406601
13167823 11 18335139778578877584
15006816 218 18198627618403497343
15239191 94 18260545593877539224
16752209 62 18264749009740542701
17804303 29 18272375286535848481
17834074 16 18341614785116654742
1813 80 17676497150174569669
19050596 39 18410569617734304536
19422 9 18334860489514063456
20281475 54 18411415154791973324
20291156 8 18334856172770932253
20442098 301 18411695487455069758
20510252 161 18200880582411678737
21650355 55 18342173397311693953
23402539 116 18130782365919083285
23557571 272 18202294601920920708
23559900 14 18202007607868679436
5104073 3 18410294687855451552
58051976 100 18116432544389584516
58807428 26 18197797522169424009
9709674 26 18343306972277576590

> <PUBCHEM_SHAPE_MULTIPOLES>
326.13
8.52
2.66
0.93
7.81
0.88
-0.09
1.34
-1.23
-1.33
0.25
0.25
0.13
-0.79

> <PUBCHEM_SHAPE_SELFOVERLAP>
665.545

> <PUBCHEM_SHAPE_VOLUME>
192.2

> <PUBCHEM_COORDINATE_TYPE>
2
5
10

$$$$
