125138
  -OEChem-03292013323D

 45 47  0     1  0  0  0  0  0999 V2000
    5.6447    1.1132    0.7035 S   0  0  0  0  0  0  0  0  0  0  0  0
   -3.7158    0.6710   -0.8648 O   0  0  0  0  0  0  0  0  0  0  0  0
   -5.6496   -1.1129    0.7503 O   0  0  0  0  0  0  0  0  0  0  0  0
   -4.8290    3.2313   -1.0109 O   0  0  0  0  0  0  0  0  0  0  0  0
    3.0594   -0.1695   -0.3867 O   0  0  0  0  0  0  0  0  0  0  0  0
   -1.5413    0.0245   -0.1709 N   0  0  0  0  0  0  0  0  0  0  0  0
    0.3364    1.2172   -0.3632 N   0  0  0  0  0  0  0  0  0  0  0  0
   -0.5977   -2.2106   -0.0365 N   0  0  0  0  0  0  0  0  0  0  0  0
    1.8389   -2.1567   -0.1634 N   0  0  0  0  0  0  0  0  0  0  0  0
    0.6703   -4.1747    0.0593 N   0  0  0  0  0  0  0  0  0  0  0  0
   -2.9665   -0.2695   -0.0759 C   0  0  1  0  0  0  0  0  0  0  0  0
   -4.9835    0.1060    1.0725 C   0  0  1  0  0  0  0  0  0  0  0  0
   -3.5272   -0.2009    1.3373 C   0  0  0  0  0  0  0  0  0  0  0  0
   -4.9318    1.0013   -0.1610 C   0  0  1  0  0  0  0  0  0  0  0  0
   -4.8861    2.4820    0.1902 C   0  0  0  0  0  0  0  0  0  0  0  0
   -0.5121   -0.8765   -0.1493 C   0  0  0  0  0  0  0  0  0  0  0  0
   -0.9778    1.2686   -0.3016 C   0  0  0  0  0  0  0  0  0  0  0  0
    0.6411   -0.1176   -0.2691 C   0  0  0  0  0  0  0  0  0  0  0  0
    1.8499   -0.8064   -0.2736 C   0  0  0  0  0  0  0  0  0  0  0  0
    0.6336   -2.7659   -0.0534 C   0  0  0  0  0  0  0  0  0  0  0  0
    4.2184   -0.9933   -0.3777 C   0  0  0  0  0  0  0  0  0  0  0  0
    5.4622   -0.1463   -0.5961 C   0  0  0  0  0  0  0  0  0  0  0  0
    7.1716    1.8768    0.1115 C   0  0  0  0  0  0  0  0  0  0  0  0
    7.5920    3.0087    1.0296 C   0  0  0  0  0  0  0  0  0  0  0  0
   -3.1219   -1.2596   -0.5209 H   0  0  0  0  0  0  0  0  0  0  0  0
   -5.4995    0.5511    1.9272 H   0  0  0  0  0  0  0  0  0  0  0  0
   -3.3598   -1.1343    1.8835 H   0  0  0  0  0  0  0  0  0  0  0  0
   -3.0674    0.6198    1.9006 H   0  0  0  0  0  0  0  0  0  0  0  0
   -5.7611    0.8061   -0.8503 H   0  0  0  0  0  0  0  0  0  0  0  0
   -3.9948    2.7259    0.7771 H   0  0  0  0  0  0  0  0  0  0  0  0
   -5.7794    2.7798    0.7479 H   0  0  0  0  0  0  0  0  0  0  0  0
   -5.3010   -1.4505   -0.0916 H   0  0  0  0  0  0  0  0  0  0  0  0
   -1.5684    2.1737   -0.3416 H   0  0  0  0  0  0  0  0  0  0  0  0
   -4.8022    4.1708   -0.7618 H   0  0  0  0  0  0  0  0  0  0  0  0
    4.1581   -1.7283   -1.1904 H   0  0  0  0  0  0  0  0  0  0  0  0
    4.2915   -1.5307    0.5768 H   0  0  0  0  0  0  0  0  0  0  0  0
    5.3860    0.3737   -1.5568 H   0  0  0  0  0  0  0  0  0  0  0  0
    6.3497   -0.7864   -0.6080 H   0  0  0  0  0  0  0  0  0  0  0  0
   -0.1957   -4.6886    0.1452 H   0  0  0  0  0  0  0  0  0  0  0  0
    1.5620   -4.6501    0.0535 H   0  0  0  0  0  0  0  0  0  0  0  0
    7.9636    1.1222    0.0743 H   0  0  0  0  0  0  0  0  0  0  0  0
    7.0145    2.2649   -0.8999 H   0  0  0  0  0  0  0  0  0  0  0  0
    6.8316    3.7960    1.0724 H   0  0  0  0  0  0  0  0  0  0  0  0
    7.7819    2.6520    2.0477 H   0  0  0  0  0  0  0  0  0  0  0  0
    8.5176    3.4633    0.6610 H   0  0  0  0  0  0  0  0  0  0  0  0
  1 22  1  0  0  0  0
  1 23  1  0  0  0  0
  2 11  1  0  0  0  0
  2 14  1  0  0  0  0
  3 12  1  0  0  0  0
  3 32  1  0  0  0  0
  4 15  1  0  0  0  0
  4 34  1  0  0  0  0
  5 19  1  0  0  0  0
  5 21  1  0  0  0  0
  6 11  1  0  0  0  0
  6 16  1  0  0  0  0
  6 17  1  0  0  0  0
  7 17  2  0  0  0  0
  7 18  1  0  0  0  0
  8 16  1  0  0  0  0
  8 20  2  0  0  0  0
  9 19  2  0  0  0  0
  9 20  1  0  0  0  0
 10 20  1  0  0  0  0
 10 39  1  0  0  0  0
 10 40  1  0  0  0  0
 11 13  1  0  0  0  0
 11 25  1  0  0  0  0
 12 13  1  0  0  0  0
 12 14  1  0  0  0  0
 12 26  1  0  0  0  0
 13 27  1  0  0  0  0
 13 28  1  0  0  0  0
 14 15  1  0  0  0  0
 14 29  1  0  0  0  0
 15 30  1  0  0  0  0
 15 31  1  0  0  0  0
 16 18  2  0  0  0  0
 17 33  1  0  0  0  0
 18 19  1  0  0  0  0
 21 22  1  0  0  0  0
 21 35  1  0  0  0  0
 21 36  1  0  0  0  0
 22 37  1  0  0  0  0
 22 38  1  0  0  0  0
 23 24  1  0  0  0  0
 23 41  1  0  0  0  0
 23 42  1  0  0  0  0
 24 43  1  0  0  0  0
 24 44  1  0  0  0  0
 24 45  1  0  0  0  0
M  END
> <PUBCHEM_COMPOUND_CID>
125138

> <PUBCHEM_CONFORMER_RMSD>
1

> <PUBCHEM_CONFORMER_DIVERSEORDER>
1
177
26
201
71
127
219
17
80
47
83
19
116
202
174
197
126
144
209
170
218
140
73
87
45
146
227
147
77
217
67
94
70
104
214
30
6
46
20
79
34
153
192
199
82
166
181
24
74
92
108
212
130
8
40
35
72
91
132
122
222
39
53
117
203
101
85
25
123
43
2
200
44
90
182
133
102
93
49
191
141
110
84
154
89
62
88
7
69
32
136
184
100
28
150
18
226
155
138
52
152
23
135
187
60
215
56
63
148
221
151
68
220
37
99
230
145
107
41
162
204
11
180
58
106
112
22
164
137
196
175
143
29
109
121
232
158
95
54
193
81
76
139
16
157
55
165
78
13
159
38
75
210
124
3
120
142
115
57
167
125
190
9
64
42
118
213
206
65
185
160
27
169
128
225
178
59
229
129
224
131
10
96
113
207
208
156
33
51
173
86
103
163
50
48
111
211
205
105
179
228
14
31
198
4
134
97
216
21
195
12
114
61
223
149
176
66
231
15
171
186
168
36
5
194
98
189
188
172
183
161
119

> <PUBCHEM_MMFF94_PARTIAL_CHARGES>
27
1 -0.46
10 -0.9
11 0.54
12 0.28
14 0.28
15 0.28
16 0.11
17 0.04
18 0.23
19 0.39
2 -0.56
20 0.72
21 0.28
22 0.23
23 0.23
3 -0.68
32 0.4
33 0.15
34 0.4
39 0.4
4 -0.68
40 0.4
5 -0.36
6 0.05
7 -0.57
8 -0.57
9 -0.62

> <PUBCHEM_EFFECTIVE_ROTOR_COUNT>
8

> <PUBCHEM_PHARMACOPHORE_FEATURES>
12
1 10 donor
1 2 acceptor
1 24 hydrophobe
1 3 acceptor
1 3 donor
1 4 acceptor
1 4 donor
3 6 7 17 cation
4 8 9 10 20 cation
5 2 11 12 13 14 rings
5 6 7 16 17 18 rings
6 8 9 16 18 19 20 rings

> <PUBCHEM_HEAVY_ATOM_COUNT>
24

> <PUBCHEM_ATOM_DEF_STEREO_COUNT>
2

> <PUBCHEM_ATOM_UDEF_STEREO_COUNT>
1

> <PUBCHEM_BOND_DEF_STEREO_COUNT>
0

> <PUBCHEM_BOND_UDEF_STEREO_COUNT>
0

> <PUBCHEM_ISOTOPIC_ATOM_COUNT>
0

> <PUBCHEM_COMPONENT_COUNT>
1

> <PUBCHEM_CACTVS_TAUTO_COUNT>
3

> <PUBCHEM_CONFORMER_ID>
0001E8D200000001

> <PUBCHEM_MMFF94_ENERGY>
54.4691

> <PUBCHEM_FEATURE_SELFOVERLAP>
61.033

> <PUBCHEM_SHAPE_FINGERPRINT>
10 15 18260829349898855960
10493431 412 18411139164578287358
12236239 1 17703794678608530703
12403259 118 17821734952528379052
12403259 415 18409732824997825204
13533116 47 17458621161026977114
13631057 29 18058723741110649119
14790565 3 18409737265683350964
15196674 1 18263369088325148023
15927050 60 18411418432296197166
19784866 170 18262523585109895759
20281389 69 18410857672732820520
21033648 29 18411689998540061560
21236236 1 18270118049141060110
21521721 280 18272096002013519306
22224240 67 18411141359206491947
23559900 14 17831297207914276755
2916195 48 18412545418427617708
34934 24 18338234843697680431
5104073 3 18115876196212283003
5758199 1 18343310279254474123
59682541 35 18336838592832107019
636775 72 18200025300516892464

> <PUBCHEM_SHAPE_MULTIPOLES>
449.38
16.83
3.48
0.92
20.06
1.22
-0.16
-16.87
-3.58
1.06
0
-0.36
-0.28
2.09

> <PUBCHEM_SHAPE_SELFOVERLAP>
931.32

> <PUBCHEM_SHAPE_VOLUME>
259.9

> <PUBCHEM_COORDINATE_TYPE>
2
5
10

$$$$
