125150
  -OEChem-03292013323D

 41 42  0     1  0  0  0  0  0999 V2000
    3.4796    0.9586    0.3388 P   0  0  0  0  0  0  0  0  0  0  0  0
   -0.1921   -1.1734    1.1350 O   0  0  0  0  0  0  0  0  0  0  0  0
   -0.3358   -4.0089    0.1709 O   0  0  0  0  0  0  0  0  0  0  0  0
   -2.2057   -2.7600   -1.3725 O   0  0  0  0  0  0  0  0  0  0  0  0
    2.4033   -0.1777    0.7610 O   0  0  0  0  0  0  0  0  0  0  0  0
   -4.2105   -0.7929    0.4155 O   0  0  0  0  0  0  0  0  0  0  0  0
    4.5622    0.1707   -0.5734 O   0  0  0  0  0  0  0  0  0  0  0  0
    2.6947    1.8771   -0.7408 O   0  0  0  0  0  0  0  0  0  0  0  0
    4.0685    1.7165    1.4947 O   0  0  0  0  0  0  0  0  0  0  0  0
   -2.0388   -0.0242    0.2785 N   0  0  0  0  0  0  0  0  0  0  0  0
   -3.9488    1.4413    0.1115 N   0  0  0  0  0  0  0  0  0  0  0  0
   -3.6738    3.7291   -0.2017 N   0  0  0  0  0  0  0  0  0  0  0  0
    0.0746   -2.8359   -0.5313 C   0  0  1  0  0  0  0  0  0  0  0  0
   -1.1287   -1.9871   -0.8839 C   0  0  2  0  0  0  0  0  0  0  0  0
    0.8210   -1.9400    0.4477 C   0  0  1  0  0  0  0  0  0  0  0  0
   -1.4434   -1.3195    0.4437 C   0  0  1  0  0  0  0  0  0  0  0  0
    1.7726   -0.9654   -0.2334 C   0  0  0  0  0  0  0  0  0  0  0  0
   -1.2088    1.0744    0.1162 C   0  0  0  0  0  0  0  0  0  0  0  0
   -3.4445    0.1623    0.2755 C   0  0  0  0  0  0  0  0  0  0  0  0
   -1.6741    2.3117   -0.0441 C   0  0  0  0  0  0  0  0  0  0  0  0
   -3.1521    2.4665   -0.0400 C   0  0  0  0  0  0  0  0  0  0  0  0
    5.3657   -0.8230    0.0396 C   0  0  0  0  0  0  0  0  0  0  0  0
    3.4149    2.8997   -1.4074 C   0  0  0  0  0  0  0  0  0  0  0  0
    0.6607   -3.1540   -1.3973 H   0  0  0  0  0  0  0  0  0  0  0  0
   -0.8524   -1.2546   -1.6519 H   0  0  0  0  0  0  0  0  0  0  0  0
    1.3575   -2.5128    1.2127 H   0  0  0  0  0  0  0  0  0  0  0  0
   -2.1046   -1.9415    1.0586 H   0  0  0  0  0  0  0  0  0  0  0  0
    1.2593   -0.3102   -0.9412 H   0  0  0  0  0  0  0  0  0  0  0  0
    2.5360   -1.5235   -0.7846 H   0  0  0  0  0  0  0  0  0  0  0  0
   -0.7668   -3.7468    1.0013 H   0  0  0  0  0  0  0  0  0  0  0  0
   -2.9632   -2.1623   -1.4918 H   0  0  0  0  0  0  0  0  0  0  0  0
   -0.1406    0.9262    0.1224 H   0  0  0  0  0  0  0  0  0  0  0  0
   -1.0322    3.1734   -0.1701 H   0  0  0  0  0  0  0  0  0  0  0  0
   -3.0818    4.5444   -0.3219 H   0  0  0  0  0  0  0  0  0  0  0  0
   -4.6766    3.8815   -0.2057 H   0  0  0  0  0  0  0  0  0  0  0  0
    5.9900   -0.3681    0.8130 H   0  0  0  0  0  0  0  0  0  0  0  0
    6.0095   -1.2714   -0.7209 H   0  0  0  0  0  0  0  0  0  0  0  0
    4.7386   -1.6017    0.4805 H   0  0  0  0  0  0  0  0  0  0  0  0
    3.8548    3.5841   -0.6775 H   0  0  0  0  0  0  0  0  0  0  0  0
    2.7243    3.4550   -2.0467 H   0  0  0  0  0  0  0  0  0  0  0  0
    4.2005    2.4604   -2.0275 H   0  0  0  0  0  0  0  0  0  0  0  0
  1  5  1  0  0  0  0
  1  7  1  0  0  0  0
  1  8  1  0  0  0  0
  1  9  2  0  0  0  0
  2 15  1  0  0  0  0
  2 16  1  0  0  0  0
  3 13  1  0  0  0  0
  3 30  1  0  0  0  0
  4 14  1  0  0  0  0
  4 31  1  0  0  0  0
  5 17  1  0  0  0  0
  6 19  2  0  0  0  0
  7 22  1  0  0  0  0
  8 23  1  0  0  0  0
 10 16  1  0  0  0  0
 10 18  1  0  0  0  0
 10 19  1  0  0  0  0
 11 19  1  0  0  0  0
 11 21  2  0  0  0  0
 12 21  1  0  0  0  0
 12 34  1  0  0  0  0
 12 35  1  0  0  0  0
 13 14  1  0  0  0  0
 13 15  1  0  0  0  0
 13 24  1  0  0  0  0
 14 16  1  0  0  0  0
 14 25  1  0  0  0  0
 15 17  1  0  0  0  0
 15 26  1  0  0  0  0
 16 27  1  0  0  0  0
 17 28  1  0  0  0  0
 17 29  1  0  0  0  0
 18 20  2  0  0  0  0
 18 32  1  0  0  0  0
 20 21  1  0  0  0  0
 20 33  1  0  0  0  0
 22 36  1  0  0  0  0
 22 37  1  0  0  0  0
 22 38  1  0  0  0  0
 23 39  1  0  0  0  0
 23 40  1  0  0  0  0
 23 41  1  0  0  0  0
M  END
> <PUBCHEM_COMPOUND_CID>
125150

> <PUBCHEM_CONFORMER_RMSD>
0.8

> <PUBCHEM_CONFORMER_DIVERSEORDER>
2
140
151
73
81
110
145
26
115
132
80
161
68
66
88
25
106
175
58
54
120
52
139
99
158
5
23
117
128
113
53
57
126
91
163
55
79
28
56
38
152
124
31
119
49
125
143
157
155
24
144
142
70
7
104
96
44
62
130
21
162
84
169
122
67
50
10
168
76
89
40
8
92
159
90
114
123
83
16
33
173
18
61
118
71
136
95
22
148
72
63
97
149
46
131
6
174
27
65
93
127
39
156
153
9
19
47
108
41
166
82
59
43
160
137
154
14
135
101
134
105
167
172
17
129
98
32
4
75
69
111
51
1
64
20
85
36
77
116
15
150
138
164
107
170
103
30
60
112
37
86
45
48
11
133
42
109
34
165
12
74
35
102
13
141
147
87
29
100
146
171
3
121
94
78

> <PUBCHEM_MMFF94_PARTIAL_CHARGES>
29
1 1.51
10 -0.47
11 -0.66
12 -0.85
13 0.28
14 0.28
15 0.28
16 0.58
17 0.28
18 -0.04
19 0.84
2 -0.56
20 -0.14
21 0.49
22 0.28
23 0.28
3 -0.68
30 0.4
31 0.4
32 0.15
33 0.15
34 0.4
35 0.4
4 -0.68
5 -0.55
6 -0.57
7 -0.55
8 -0.55
9 -0.7

> <PUBCHEM_EFFECTIVE_ROTOR_COUNT>
7

> <PUBCHEM_PHARMACOPHORE_FEATURES>
11
1 11 donor
1 12 donor
1 2 acceptor
1 3 acceptor
1 3 donor
1 4 acceptor
1 4 donor
1 6 acceptor
1 9 acceptor
5 2 13 14 15 16 rings
6 10 11 18 19 20 21 rings

> <PUBCHEM_HEAVY_ATOM_COUNT>
23

> <PUBCHEM_ATOM_DEF_STEREO_COUNT>
4

> <PUBCHEM_ATOM_UDEF_STEREO_COUNT>
0

> <PUBCHEM_BOND_DEF_STEREO_COUNT>
0

> <PUBCHEM_BOND_UDEF_STEREO_COUNT>
0

> <PUBCHEM_ISOTOPIC_ATOM_COUNT>
0

> <PUBCHEM_COMPONENT_COUNT>
1

> <PUBCHEM_CACTVS_TAUTO_COUNT>
3

> <PUBCHEM_CONFORMER_ID>
0001E8DE00000002

> <PUBCHEM_MMFF94_ENERGY>
61.2309

> <PUBCHEM_FEATURE_SELFOVERLAP>
55.881

> <PUBCHEM_SHAPE_FINGERPRINT>
10871710 139 17977675534100169981
10906281 52 18336279998486933987
11578080 2 16300062386915395487
12173636 292 18340761641123428198
12403260 363 18408318891277314926
12553582 1 17689722277986456048
12788726 201 18048597315573115532
13583140 156 17386277701880404795
138480 1 17402049994053676687
14251751 93 18410290298451244870
14787075 74 17897448513455998203
14790565 3 18340496646754208593
15042514 8 18265618873620025003
19591789 44 18339926012618582281
20645477 56 18201156671699451186
21033648 29 18271511036469468560
21524375 3 18342181050605811874
21864079 5 18115876368064020500
23227448 37 18271241724222428398
23419403 2 15823206212093281490
23557571 272 17914616300949339160
23558518 356 18335415829007144874
23559900 14 17764859196541539459
350125 39 18411422786732424706
474 4 18262803947632444153
6138700 20 18050010991907694590
7164475 11 18123748922826803894
7364860 26 17908140975819324539
7808743 9 18193842763433611232
9981440 41 18335422314149234659

> <PUBCHEM_SHAPE_MULTIPOLES>
415.28
8.78
4.36
1.01
6.23
0.3
0.07
-5.76
-0.28
-2.08
1.07
0.58
-0.06
-0.6

> <PUBCHEM_SHAPE_SELFOVERLAP>
842.333

> <PUBCHEM_SHAPE_VOLUME>
244.3

> <PUBCHEM_COORDINATE_TYPE>
2
5
10

$$$$
