125136
  -OEChem-03292013323D

 54 56  0     1  0  0  0  0  0999 V2000
    3.0103   -3.5468    0.7699 P   0  0  2  0  0  0  0  0  0  0  0  0
    1.1661   -0.7568   -1.9778 O   0  0  0  0  0  0  0  0  0  0  0  0
    2.8347   -1.9366    0.9492 O   0  0  0  0  0  0  0  0  0  0  0  0
    3.0306    0.7458    0.0728 O   0  0  0  0  0  0  0  0  0  0  0  0
    2.9130   -3.7987   -0.8337 O   0  0  0  0  0  0  0  0  0  0  0  0
    1.6204   -4.1508    1.3410 O   0  0  0  0  0  0  0  0  0  0  0  0
    4.2379   -4.1104    1.4244 O   0  0  0  0  0  0  0  0  0  0  0  0
   -0.2504    2.8963   -0.8561 O   0  0  0  0  0  0  0  0  0  0  0  0
    2.2569    2.6584    1.1054 O   0  0  0  0  0  0  0  0  0  0  0  0
   -4.7403   -0.9355    0.7853 O   0  0  0  0  0  0  0  0  0  0  0  0
   -0.4327    0.5925   -0.9303 N   0  0  0  0  0  0  0  0  0  0  0  0
   -2.3383    2.0374   -0.5943 N   0  0  0  0  0  0  0  0  0  0  0  0
   -4.4231    1.0797   -0.3369 N   0  0  0  0  0  0  0  0  0  0  0  0
    1.8197   -1.3467    0.1696 C   0  0  1  0  0  0  0  0  0  0  0  0
    1.7358    0.1614    0.1719 C   0  0  2  0  0  0  0  0  0  0  0  0
    2.0807   -1.6124   -1.2970 C   0  0  1  0  0  0  0  0  0  0  0  0
    0.9782    0.4119   -1.1398 C   0  0  1  0  0  0  0  0  0  0  0  0
    1.9336   -3.0903   -1.5959 C   0  0  0  0  0  0  0  0  0  0  0  0
   -1.2751   -0.5105   -0.8580 C   0  0  0  0  0  0  0  0  0  0  0  0
   -0.9734    1.9002   -0.7959 C   0  0  0  0  0  0  0  0  0  0  0  0
    3.1537    2.0103    0.5836 C   0  0  0  0  0  0  0  0  0  0  0  0
    4.5778    2.4827    0.4000 C   0  0  0  0  0  0  0  0  0  0  0  0
   -2.5903   -0.4070   -0.6655 C   0  0  0  0  0  0  0  0  0  0  0  0
   -3.0720    0.9761   -0.5358 C   0  0  0  0  0  0  0  0  0  0  0  0
    4.7819    3.9013    0.9258 C   0  0  0  0  0  0  0  0  0  0  0  0
    6.2242    4.3532    0.7655 C   0  0  0  0  0  0  0  0  0  0  0  0
   -5.1747    0.1122    0.3142 C   0  0  0  0  0  0  0  0  0  0  0  0
   -6.6387    0.5112    0.3784 C   0  0  0  0  0  0  0  0  0  0  0  0
   -7.4963   -0.5316    1.0893 C   0  0  0  0  0  0  0  0  0  0  0  0
   -8.9502   -0.0963    1.1707 C   0  0  0  0  0  0  0  0  0  0  0  0
    0.8561   -1.7599    0.4890 H   0  0  0  0  0  0  0  0  0  0  0  0
    1.2170    0.5187    1.0691 H   0  0  0  0  0  0  0  0  0  0  0  0
    3.1038   -1.3126   -1.5650 H   0  0  0  0  0  0  0  0  0  0  0  0
    1.3852    1.2713   -1.6845 H   0  0  0  0  0  0  0  0  0  0  0  0
    2.1034   -3.2891   -2.6585 H   0  0  0  0  0  0  0  0  0  0  0  0
    0.9340   -3.4649   -1.3511 H   0  0  0  0  0  0  0  0  0  0  0  0
   -0.8458   -1.4935   -1.0048 H   0  0  0  0  0  0  0  0  0  0  0  0
    5.2369    1.7901    0.9354 H   0  0  0  0  0  0  0  0  0  0  0  0
    4.8151    2.4474   -0.6692 H   0  0  0  0  0  0  0  0  0  0  0  0
    1.5423   -5.1203    1.4680 H   0  0  0  0  0  0  0  0  0  0  0  0
   -3.2078   -1.2879   -0.7465 H   0  0  0  0  0  0  0  0  0  0  0  0
    4.5041    3.9516    1.9855 H   0  0  0  0  0  0  0  0  0  0  0  0
    4.1219    4.5960    0.3925 H   0  0  0  0  0  0  0  0  0  0  0  0
   -4.8397    1.9988   -0.4612 H   0  0  0  0  0  0  0  0  0  0  0  0
    6.3471    5.3716    1.1472 H   0  0  0  0  0  0  0  0  0  0  0  0
    6.5223    4.3469   -0.2878 H   0  0  0  0  0  0  0  0  0  0  0  0
    6.9045    3.6983    1.3194 H   0  0  0  0  0  0  0  0  0  0  0  0
   -7.0004    0.6589   -0.6462 H   0  0  0  0  0  0  0  0  0  0  0  0
   -6.7091    1.4717    0.9032 H   0  0  0  0  0  0  0  0  0  0  0  0
   -7.1141   -0.7031    2.1027 H   0  0  0  0  0  0  0  0  0  0  0  0
   -7.4333   -1.4902    0.5606 H   0  0  0  0  0  0  0  0  0  0  0  0
   -9.0486    0.8414    1.7270 H   0  0  0  0  0  0  0  0  0  0  0  0
   -9.5461   -0.8586    1.6822 H   0  0  0  0  0  0  0  0  0  0  0  0
   -9.3721    0.0507    0.1714 H   0  0  0  0  0  0  0  0  0  0  0  0
  1  3  1  0  0  0  0
  1  5  1  0  0  0  0
  1  6  1  0  0  0  0
  1  7  2  0  0  0  0
  2 16  1  0  0  0  0
  2 17  1  0  0  0  0
  3 14  1  0  0  0  0
  4 15  1  0  0  0  0
  4 21  1  0  0  0  0
  5 18  1  0  0  0  0
  6 40  1  0  0  0  0
  8 20  2  0  0  0  0
  9 21  2  0  0  0  0
 10 27  2  0  0  0  0
 11 17  1  0  0  0  0
 11 19  1  0  0  0  0
 11 20  1  0  0  0  0
 12 20  1  0  0  0  0
 12 24  2  0  0  0  0
 13 24  1  0  0  0  0
 13 27  1  0  0  0  0
 13 44  1  0  0  0  0
 14 15  1  0  0  0  0
 14 16  1  0  0  0  0
 14 31  1  0  0  0  0
 15 17  1  0  0  0  0
 15 32  1  0  0  0  0
 16 18  1  0  0  0  0
 16 33  1  0  0  0  0
 17 34  1  0  0  0  0
 18 35  1  0  0  0  0
 18 36  1  0  0  0  0
 19 23  2  0  0  0  0
 19 37  1  0  0  0  0
 21 22  1  0  0  0  0
 22 25  1  0  0  0  0
 22 38  1  0  0  0  0
 22 39  1  0  0  0  0
 23 24  1  0  0  0  0
 23 41  1  0  0  0  0
 25 26  1  0  0  0  0
 25 42  1  0  0  0  0
 25 43  1  0  0  0  0
 26 45  1  0  0  0  0
 26 46  1  0  0  0  0
 26 47  1  0  0  0  0
 27 28  1  0  0  0  0
 28 29  1  0  0  0  0
 28 48  1  0  0  0  0
 28 49  1  0  0  0  0
 29 30  1  0  0  0  0
 29 50  1  0  0  0  0
 29 51  1  0  0  0  0
 30 52  1  0  0  0  0
 30 53  1  0  0  0  0
 30 54  1  0  0  0  0
M  END
> <PUBCHEM_COMPOUND_CID>
125136

> <PUBCHEM_CONFORMER_RMSD>
1

> <PUBCHEM_CONFORMER_DIVERSEORDER>
1
5
19
8
6
12
21
9
22
14
11
20
10
7
18
4
2
15
13
17
16
3

> <PUBCHEM_MMFF94_PARTIAL_CHARGES>
30
1 1.51
10 -0.57
11 -0.47
12 -0.66
13 -0.49
14 0.28
15 0.28
16 0.28
17 0.58
18 0.28
19 -0.04
2 -0.56
20 0.84
21 0.66
22 0.06
23 -0.14
24 0.5
27 0.57
28 0.06
3 -0.55
37 0.15
4 -0.43
40 0.5
41 0.15
44 0.37
5 -0.55
6 -0.77
7 -0.7
8 -0.57
9 -0.57

> <PUBCHEM_EFFECTIVE_ROTOR_COUNT>
10.2

> <PUBCHEM_PHARMACOPHORE_FEATURES>
13
1 10 acceptor
1 12 donor
1 13 donor
1 2 acceptor
1 26 hydrophobe
1 30 hydrophobe
1 6 acceptor
1 7 acceptor
1 8 acceptor
1 9 acceptor
5 2 14 15 16 17 rings
6 1 3 5 14 16 18 rings
6 11 12 19 20 23 24 rings

> <PUBCHEM_HEAVY_ATOM_COUNT>
30

> <PUBCHEM_ATOM_DEF_STEREO_COUNT>
4

> <PUBCHEM_ATOM_UDEF_STEREO_COUNT>
0

> <PUBCHEM_BOND_DEF_STEREO_COUNT>
0

> <PUBCHEM_BOND_UDEF_STEREO_COUNT>
0

> <PUBCHEM_ISOTOPIC_ATOM_COUNT>
0

> <PUBCHEM_COMPONENT_COUNT>
1

> <PUBCHEM_CACTVS_TAUTO_COUNT>
4

> <PUBCHEM_CONFORMER_ID>
0001E8D000000001

> <PUBCHEM_MMFF94_ENERGY>
57.5421

> <PUBCHEM_FEATURE_SELFOVERLAP>
66.122

> <PUBCHEM_SHAPE_FINGERPRINT>
10165383 225 18129382760151989464
1100329 8 17112112596404415182
12788726 201 17113543615531448778
13073987 5 18409172087459515449
13140716 1 18050286174345814693
13533116 47 18336552634110031315
13540713 4 18041828503350771253
13955234 65 18411416189947650530
14347424 109 18340492162918777217
14565420 104 18270679886855915272
14790565 3 18124309669251713764
14863182 85 18187935014131481668
15420108 30 18058442282411500375
15475509 35 17968661501990772259
15927050 60 18196365034939664622
16114785 44 17620747719438610504
16992610 120 18120665884319343068
20505436 4 17774441706269915333
21033648 29 17984692587798487768
21049683 271 18262526888562122172
21130935 74 18409739444260210571
21344244 78 17773870913695629587
21421861 104 18341609291684944559
21703447 108 18262794056422657017
22224240 67 18268427017574442825
23559900 14 18118951503980324716
249999 5 18411134736651368200
3178227 256 18411695492230039888
3411729 13 18272654579510904412
3421961 26 18335421214647882719
4058900 60 18340775943802893616
4073 2 18339086012042978371
5104073 3 18340775824055232921
57527306 92 16415484908326408472
58260988 587 18410579517549389696

> <PUBCHEM_SHAPE_MULTIPOLES>
553.47
16.11
5.52
1.42
38.3
2.72
-0.16
-8.93
9.32
-14.56
1.79
-0.35
0.76
1.2

> <PUBCHEM_SHAPE_SELFOVERLAP>
1142.889

> <PUBCHEM_SHAPE_VOLUME>
317.6

> <PUBCHEM_COORDINATE_TYPE>
2
5
10

$$$$
