125142
  -OEChem-03292013323D

 61 64  0     1  0  0  0  0  0999 V2000
    3.2961   -0.6566    0.1690 O   0  0  0  0  0  0  0  0  0  0  0  0
    3.3703    1.6495    0.5162 O   0  0  0  0  0  0  0  0  0  0  0  0
    7.3242   -1.0239    0.8810 O   0  0  0  0  0  0  0  0  0  0  0  0
    5.8987   -3.1582   -0.4491 O   0  0  0  0  0  0  0  0  0  0  0  0
    6.1766    1.5912    0.1568 O   0  0  0  0  0  0  0  0  0  0  0  0
   -1.2430    2.0680    1.5153 O   0  0  0  0  0  0  0  0  0  0  0  0
    1.7082   -2.6825   -0.7955 O   0  0  0  0  0  0  0  0  0  0  0  0
   -5.6296    1.4889    0.5154 O   0  0  0  0  0  0  0  0  0  0  0  0
   -6.4490   -1.1430    0.5435 O   0  0  0  0  0  0  0  0  0  0  0  0
   -4.6767   -3.1469   -0.1690 O   0  0  0  0  0  0  0  0  0  0  0  0
    6.1620   -0.8205    0.0756 C   0  0  1  0  0  0  0  0  0  0  0  0
    5.2736   -2.0578    0.2064 C   0  0  1  0  0  0  0  0  0  0  0  0
    5.4312    0.4375    0.5452 C   0  0  2  0  0  0  0  0  0  0  0  0
    3.9001   -1.8089   -0.4213 C   0  0  1  0  0  0  0  0  0  0  0  0
    4.0380    0.5358   -0.0762 C   0  0  1  0  0  0  0  0  0  0  0  0
   -2.9786    2.2701   -0.2340 C   0  0  2  0  0  0  0  0  0  0  0  0
    2.9565   -2.9870   -0.2003 C   0  0  0  0  0  0  0  0  0  0  0  0
   -1.9163    2.6298   -1.2849 C   0  0  0  0  0  0  0  0  0  0  0  0
   -0.5170    2.3803   -0.7916 C   0  0  0  0  0  0  0  0  0  0  0  0
   -2.4684    2.7092    1.1448 C   0  0  0  0  0  0  0  0  0  0  0  0
   -0.2610    2.1257    0.5612 C   0  0  0  0  0  0  0  0  0  0  0  0
    2.0991    1.8964    0.0895 C   0  0  0  0  0  0  0  0  0  0  0  0
   -3.4515    0.8209   -0.2105 C   0  0  0  0  0  0  0  0  0  0  0  0
    1.0412    1.8685    0.9969 C   0  0  0  0  0  0  0  0  0  0  0  0
    0.5551    2.4159   -1.6934 C   0  0  0  0  0  0  0  0  0  0  0  0
    1.8570    2.1743   -1.2542 C   0  0  0  0  0  0  0  0  0  0  0  0
   -4.7576    0.5015    0.1621 C   0  0  0  0  0  0  0  0  0  0  0  0
   -2.5617   -0.1927   -0.5682 C   0  0  0  0  0  0  0  0  0  0  0  0
   -5.1735   -0.8299    0.1770 C   0  0  0  0  0  0  0  0  0  0  0  0
   -2.9775   -1.5239   -0.5534 C   0  0  0  0  0  0  0  0  0  0  0  0
   -4.2834   -1.8425   -0.1810 C   0  0  0  0  0  0  0  0  0  0  0  0
   -7.2511   -1.8207   -0.4207 C   0  0  0  0  0  0  0  0  0  0  0  0
   -4.4919   -3.8683    1.0473 C   0  0  0  0  0  0  0  0  0  0  0  0
    6.5138   -0.7089   -0.9576 H   0  0  0  0  0  0  0  0  0  0  0  0
    5.1652   -2.3210    1.2663 H   0  0  0  0  0  0  0  0  0  0  0  0
    5.3601    0.4529    1.6401 H   0  0  0  0  0  0  0  0  0  0  0  0
    3.9876   -1.6429   -1.5037 H   0  0  0  0  0  0  0  0  0  0  0  0
    4.1334    0.7034   -1.1572 H   0  0  0  0  0  0  0  0  0  0  0  0
   -3.8567    2.8805   -0.4863 H   0  0  0  0  0  0  0  0  0  0  0  0
    2.7828   -3.1670    0.8658 H   0  0  0  0  0  0  0  0  0  0  0  0
    3.3404   -3.9046   -0.6550 H   0  0  0  0  0  0  0  0  0  0  0  0
   -2.0985    2.0937   -2.2243 H   0  0  0  0  0  0  0  0  0  0  0  0
   -1.9904    3.7034   -1.5043 H   0  0  0  0  0  0  0  0  0  0  0  0
   -2.3136    3.7959    1.1740 H   0  0  0  0  0  0  0  0  0  0  0  0
   -3.2024    2.4757    1.9245 H   0  0  0  0  0  0  0  0  0  0  0  0
    7.9247   -0.2755    0.7265 H   0  0  0  0  0  0  0  0  0  0  0  0
    6.7761   -3.2763   -0.0466 H   0  0  0  0  0  0  0  0  0  0  0  0
    7.0262    1.5661    0.6280 H   0  0  0  0  0  0  0  0  0  0  0  0
    1.2331    1.6513    2.0449 H   0  0  0  0  0  0  0  0  0  0  0  0
    0.3795    2.6285   -2.7450 H   0  0  0  0  0  0  0  0  0  0  0  0
    2.6697    2.2204   -1.9734 H   0  0  0  0  0  0  0  0  0  0  0  0
   -1.5401   -0.0027   -0.8714 H   0  0  0  0  0  0  0  0  0  0  0  0
    1.3794   -1.8629   -0.3879 H   0  0  0  0  0  0  0  0  0  0  0  0
   -2.2796   -2.3080   -0.8345 H   0  0  0  0  0  0  0  0  0  0  0  0
   -6.4826    1.0793    0.7417 H   0  0  0  0  0  0  0  0  0  0  0  0
   -6.9366   -1.6049   -1.4478 H   0  0  0  0  0  0  0  0  0  0  0  0
   -7.2314   -2.8981   -0.2347 H   0  0  0  0  0  0  0  0  0  0  0  0
   -8.2828   -1.4767   -0.3015 H   0  0  0  0  0  0  0  0  0  0  0  0
   -4.8674   -4.8850    0.9027 H   0  0  0  0  0  0  0  0  0  0  0  0
   -3.4291   -3.9206    1.3039 H   0  0  0  0  0  0  0  0  0  0  0  0
   -5.0530   -3.4008    1.8626 H   0  0  0  0  0  0  0  0  0  0  0  0
  1 14  1  0  0  0  0
  1 15  1  0  0  0  0
  2 15  1  0  0  0  0
  2 22  1  0  0  0  0
  3 11  1  0  0  0  0
  3 46  1  0  0  0  0
  4 12  1  0  0  0  0
  4 47  1  0  0  0  0
  5 13  1  0  0  0  0
  5 48  1  0  0  0  0
  6 20  1  0  0  0  0
  6 21  1  0  0  0  0
  7 17  1  0  0  0  0
  7 53  1  0  0  0  0
  8 27  1  0  0  0  0
  8 55  1  0  0  0  0
  9 29  1  0  0  0  0
  9 32  1  0  0  0  0
 10 31  1  0  0  0  0
 10 33  1  0  0  0  0
 11 12  1  0  0  0  0
 11 13  1  0  0  0  0
 11 34  1  0  0  0  0
 12 14  1  0  0  0  0
 12 35  1  0  0  0  0
 13 15  1  0  0  0  0
 13 36  1  0  0  0  0
 14 17  1  0  0  0  0
 14 37  1  0  0  0  0
 15 38  1  0  0  0  0
 16 18  1  0  0  0  0
 16 20  1  0  0  0  0
 16 23  1  0  0  0  0
 16 39  1  0  0  0  0
 17 40  1  0  0  0  0
 17 41  1  0  0  0  0
 18 19  1  0  0  0  0
 18 42  1  0  0  0  0
 18 43  1  0  0  0  0
 19 21  2  0  0  0  0
 19 25  1  0  0  0  0
 20 44  1  0  0  0  0
 20 45  1  0  0  0  0
 21 24  1  0  0  0  0
 22 24  2  0  0  0  0
 22 26  1  0  0  0  0
 23 27  2  0  0  0  0
 23 28  1  0  0  0  0
 24 49  1  0  0  0  0
 25 26  2  0  0  0  0
 25 50  1  0  0  0  0
 26 51  1  0  0  0  0
 27 29  1  0  0  0  0
 28 30  2  0  0  0  0
 28 52  1  0  0  0  0
 29 31  2  0  0  0  0
 30 31  1  0  0  0  0
 30 54  1  0  0  0  0
 32 56  1  0  0  0  0
 32 57  1  0  0  0  0
 32 58  1  0  0  0  0
 33 59  1  0  0  0  0
 33 60  1  0  0  0  0
 33 61  1  0  0  0  0
M  END
> <PUBCHEM_COMPOUND_CID>
125142

> <PUBCHEM_CONFORMER_RMSD>
1

> <PUBCHEM_CONFORMER_DIVERSEORDER>
1
79
26
214
296
291
245
195
66
194
123
35
124
182
157
191
100
267
266
126
103
192
312
283
310
125
253
285
198
134
276
257
115
273
158
135
62
278
255
205
235
5
317
252
132
259
206
122
116
270
57
94
292
236
59
49
221
162
114
25
231
154
295
215
138
300
27
47
17
161
294
314
203
208
241
130
284
315
84
75
148
321
117
160
74
326
48
260
112
250
303
222
19
237
113
145
279
101
10
305
81
151
185
40
299
212
168
133
129
143
137
72
16
46
320
244
31
249
290
287
180
251
264
142
118
44
54
38
228
288
23
80
219
42
319
121
209
128
170
71
217
150
13
83
301
224
139
6
181
229
4
173
60
247
246
99
187
304
269
55
52
175
232
307
111
282
73
144
18
159
30
90
15
152
87
58
183
61
82
316
95
265
136
86
298
234
318
53
110
286
20
107
202
24
147
210
274
297
289
51
34
92
268
308
313
39
271
248
102
14
196
256
254
76
120
324
240
36
63
32
275
193
169
227
70
189
88
78
131
225
263
281
146
238
218
91
7
272
233
223
43
226
280
156
207
97
306
8
29
11
199
21
171
243
153
213
28
41
89
178
164
37
277
325
184
69
105
108
109
309
323
9
190
77
119
230
12
258
262
33
96
200
56
127
3
172
302
216
197
2
98
311
149
167
204
186
261
85
67
166
211
22
140
239
93
165
188
174
177
65
106
104
322
45
176
220
141
64
68
50
201
293
179
163
155
242

> <PUBCHEM_MMFF94_PARTIAL_CHARGES>
43
1 -0.56
10 -0.36
11 0.28
12 0.28
13 0.28
14 0.28
15 0.56
16 0.14
17 0.28
18 0.14
19 -0.14
2 -0.36
20 0.28
21 0.08
22 0.08
23 -0.14
24 -0.15
25 -0.15
26 -0.15
27 0.08
28 -0.15
29 0.08
3 -0.68
30 -0.15
31 0.08
32 0.28
33 0.28
4 -0.68
46 0.4
47 0.4
48 0.4
49 0.15
5 -0.68
50 0.15
51 0.15
52 0.15
53 0.4
54 0.15
55 0.45
6 -0.36
7 -0.68
8 -0.53
9 -0.36

> <PUBCHEM_EFFECTIVE_ROTOR_COUNT>
8

> <PUBCHEM_PHARMACOPHORE_FEATURES>
18
1 1 acceptor
1 10 acceptor
1 2 acceptor
1 3 acceptor
1 3 donor
1 4 acceptor
1 4 donor
1 5 acceptor
1 5 donor
1 6 acceptor
1 7 acceptor
1 7 donor
1 8 donor
1 9 acceptor
6 1 11 12 13 14 15 rings
6 19 21 22 24 25 26 rings
6 23 27 28 29 30 31 rings
6 6 16 18 19 20 21 rings

> <PUBCHEM_HEAVY_ATOM_COUNT>
33

> <PUBCHEM_ATOM_DEF_STEREO_COUNT>
5

> <PUBCHEM_ATOM_UDEF_STEREO_COUNT>
1

> <PUBCHEM_BOND_DEF_STEREO_COUNT>
0

> <PUBCHEM_BOND_UDEF_STEREO_COUNT>
0

> <PUBCHEM_ISOTOPIC_ATOM_COUNT>
0

> <PUBCHEM_COMPONENT_COUNT>
1

> <PUBCHEM_CACTVS_TAUTO_COUNT>
3

> <PUBCHEM_CONFORMER_ID>
0001E8D600000001

> <PUBCHEM_MMFF94_ENERGY>
129.956

> <PUBCHEM_FEATURE_SELFOVERLAP>
91.451

> <PUBCHEM_SHAPE_FINGERPRINT>
10290309 65 18120935006225908807
10939801 23 18199185264852626900
11135609 12 18334853926498177669
11443803 9 17970629813506560084
11456790 92 18130241445343352451
11578080 2 12966301380385197369
117089 54 18045510965297781371
11963148 33 18115862989710963930
12107183 9 18339933615207185697
12760667 363 18343016714424762437
13402501 40 18410854356501337042
1361 2 18261678181634790676
1361 4 18410573990111472602
14251751 18 18409168792138015533
14394314 77 18271531914200323961
14420673 8 18410294727074392467
15001296 14 18335698381788187618
15274700 208 16843313756860757848
15320467 1 18410855460224049286
15361156 5 17823999848283386348
15927050 60 17551509273103919916
16110190 28 18342177752086428079
1813 80 17603867805832498533
18608769 82 18412259528910413470
19315092 285 17128732702838577587
19319366 153 17403180790503332101
20721686 56 18410013260524553875
20775530 9 18409718556784301103
21197605 99 18413107273671267966
21223535 225 15068613855946247141
23559900 14 18341321271384348977
3004659 81 18187640357937211825
354706 109 18196912440551464387
373842 8 18264210386018214374
3886686 26 17695641653485234821
439807 62 18408322194107217547
46194498 28 17531525498359712948
463206 1 18408329890651584993
469060 322 17603867750509366790
474113 269 18131339840031691927
484989 97 18342179930764150638
5104073 3 18059288761069112512
54583773 228 18336835209389979166
56633871 153 18409455817056120939
6431902 208 18411975892573636182
7970288 3 18335701714730255775

> <PUBCHEM_SHAPE_MULTIPOLES>
620.43
17.47
4.57
1.1
5.65
2.16
0.05
14.03
-2.25
-1.43
0.16
-0.15
-0.59
0.32

> <PUBCHEM_SHAPE_SELFOVERLAP>
1336.453

> <PUBCHEM_SHAPE_VOLUME>
337

> <PUBCHEM_COORDINATE_TYPE>
2
5
10

$$$$
