125172
  -OEChem-03292013323D

 35 36  0     1  0  0  0  0  0999 V2000
   -3.7149    2.1266    0.2000 F   0  0  0  0  0  0  0  0  0  0  0  0
    0.7080   -0.2516    0.5255 O   0  0  0  0  0  0  0  0  0  0  0  0
    2.8961    3.1821   -0.0172 O   0  0  0  0  0  0  0  0  0  0  0  0
   -1.2391    0.9637    0.9438 O   0  0  0  0  0  0  0  0  0  0  0  0
    3.8975    0.6458   -1.0236 O   0  0  0  0  0  0  0  0  0  0  0  0
   -0.0417    3.2460   -0.2145 O   0  0  0  0  0  0  0  0  0  0  0  0
    3.6260   -1.9482   -0.4329 O   0  0  0  0  0  0  0  0  0  0  0  0
    2.0662   -2.2689    1.2407 O   0  0  0  0  0  0  0  0  0  0  0  0
   -2.8634   -3.1217   -0.4306 O   0  0  0  0  0  0  0  0  0  0  0  0
   -2.0870   -1.0862    0.2412 N   0  0  0  0  0  0  0  0  0  0  0  0
   -4.2882   -1.3422   -0.6559 N   0  0  0  0  0  0  0  0  0  0  0  0
    2.0675    2.0934   -0.4275 C   0  0  1  0  0  0  0  0  0  0  0  0
    2.8073    0.7922   -0.1152 C   0  0  1  0  0  0  0  0  0  0  0  0
    0.7293    2.1646    0.3087 C   0  0  2  0  0  0  0  0  0  0  0  0
    1.8793   -0.4066   -0.2676 C   0  0  1  0  0  0  0  0  0  0  0  0
   -0.0709    0.8744    0.1288 C   0  0  1  0  0  0  0  0  0  0  0  0
    2.5082   -1.6440    0.2862 C   0  0  0  0  0  0  0  0  0  0  0  0
   -2.2686    0.2600    0.4176 C   0  0  0  0  0  0  0  0  0  0  0  0
   -3.4231    0.8235    0.0748 C   0  0  0  0  0  0  0  0  0  0  0  0
    4.3315   -3.1182   -0.0070 C   0  0  0  0  0  0  0  0  0  0  0  0
   -3.0769   -1.9162   -0.2926 C   0  0  0  0  0  0  0  0  0  0  0  0
   -4.4428   -0.0685   -0.4827 C   0  0  0  0  0  0  0  0  0  0  0  0
    1.9133    2.2117   -1.5073 H   0  0  0  0  0  0  0  0  0  0  0  0
    3.2312    0.8378    0.8956 H   0  0  0  0  0  0  0  0  0  0  0  0
    0.8894    2.3695    1.3745 H   0  0  0  0  0  0  0  0  0  0  0  0
    1.5963   -0.6039   -1.3091 H   0  0  0  0  0  0  0  0  0  0  0  0
   -0.3533    0.7777   -0.9317 H   0  0  0  0  0  0  0  0  0  0  0  0
    3.7393    3.1025   -0.4953 H   0  0  0  0  0  0  0  0  0  0  0  0
    3.5351    0.6019   -1.9249 H   0  0  0  0  0  0  0  0  0  0  0  0
    0.4891    4.0550   -0.1161 H   0  0  0  0  0  0  0  0  0  0  0  0
   -1.1986   -1.4923    0.5179 H   0  0  0  0  0  0  0  0  0  0  0  0
    5.1986   -3.2487   -0.6599 H   0  0  0  0  0  0  0  0  0  0  0  0
    3.6898   -4.0002   -0.0943 H   0  0  0  0  0  0  0  0  0  0  0  0
    4.6822   -2.9950    1.0221 H   0  0  0  0  0  0  0  0  0  0  0  0
   -5.3958    0.4063   -0.7644 H   0  0  0  0  0  0  0  0  0  0  0  0
  1 19  1  0  0  0  0
  2 15  1  0  0  0  0
  2 16  1  0  0  0  0
  3 12  1  0  0  0  0
  3 28  1  0  0  0  0
  4 16  1  0  0  0  0
  4 18  1  0  0  0  0
  5 13  1  0  0  0  0
  5 29  1  0  0  0  0
  6 14  1  0  0  0  0
  6 30  1  0  0  0  0
  7 17  1  0  0  0  0
  7 20  1  0  0  0  0
  8 17  2  0  0  0  0
  9 21  2  0  0  0  0
 10 18  1  0  0  0  0
 10 21  1  0  0  0  0
 10 31  1  0  0  0  0
 11 21  1  0  0  0  0
 11 22  2  0  0  0  0
 12 13  1  0  0  0  0
 12 14  1  0  0  0  0
 12 23  1  0  0  0  0
 13 15  1  0  0  0  0
 13 24  1  0  0  0  0
 14 16  1  0  0  0  0
 14 25  1  0  0  0  0
 15 17  1  0  0  0  0
 15 26  1  0  0  0  0
 16 27  1  0  0  0  0
 18 19  2  0  0  0  0
 19 22  1  0  0  0  0
 20 32  1  0  0  0  0
 20 33  1  0  0  0  0
 20 34  1  0  0  0  0
 22 35  1  0  0  0  0
M  END
> <PUBCHEM_COMPOUND_CID>
125172

> <PUBCHEM_CONFORMER_RMSD>
0.8

> <PUBCHEM_CONFORMER_DIVERSEORDER>
1
103
142
145
128
129
42
86
88
63
85
136
116
108
44
52
101
109
120
117
89
98
76
68
59
82
84
11
141
55
58
143
45
93
43
122
100
19
23
99
96
119
104
135
17
46
110
123
83
53
130
12
27
57
106
69
118
70
121
134
29
72
112
37
127
105
34
115
114
139
132
94
79
111
113
36
73
75
32
133
124
87
39
77
54
102
56
41
21
25
126
24
97
144
15
22
60
95
138
81
78
51
47
10
28
9
62
92
67
66
80
26
137
40
31
125
71
38
131
3
30
8
49
65
50
107
16
2
64
48
4
140
91
90
13
6
74
18
14
5
35
61
7
20
33

> <PUBCHEM_MMFF94_PARTIAL_CHARGES>
27
1 -0.15
10 -0.54
11 -0.66
12 0.28
13 0.28
14 0.28
15 0.34
16 0.56
17 0.66
18 0.19
19 0.16
2 -0.56
20 0.28
21 0.84
22 0.38
28 0.4
29 0.4
3 -0.68
30 0.4
31 0.37
35 0.06
4 -0.36
5 -0.68
6 -0.68
7 -0.43
8 -0.57
9 -0.57

> <PUBCHEM_EFFECTIVE_ROTOR_COUNT>
5.2

> <PUBCHEM_PHARMACOPHORE_FEATURES>
15
1 10 donor
1 11 acceptor
1 11 donor
1 2 acceptor
1 3 acceptor
1 3 donor
1 4 acceptor
1 5 acceptor
1 5 donor
1 6 acceptor
1 6 donor
1 8 acceptor
1 9 acceptor
6 10 11 18 19 21 22 rings
6 2 12 13 14 15 16 rings

> <PUBCHEM_HEAVY_ATOM_COUNT>
22

> <PUBCHEM_ATOM_DEF_STEREO_COUNT>
5

> <PUBCHEM_ATOM_UDEF_STEREO_COUNT>
0

> <PUBCHEM_BOND_DEF_STEREO_COUNT>
0

> <PUBCHEM_BOND_UDEF_STEREO_COUNT>
0

> <PUBCHEM_ISOTOPIC_ATOM_COUNT>
0

> <PUBCHEM_COMPONENT_COUNT>
1

> <PUBCHEM_CACTVS_TAUTO_COUNT>
3

> <PUBCHEM_CONFORMER_ID>
0001E8F400000001

> <PUBCHEM_MMFF94_ENERGY>
56.5428

> <PUBCHEM_FEATURE_SELFOVERLAP>
76.286

> <PUBCHEM_SHAPE_FINGERPRINT>
10616163 171 18270121339402195247
10756046 5 18409727374457505429
10759866 29 18339646766439722238
116883 192 18125162636786492044
12553582 1 18191581952145361131
12596599 1 18058748900416742618
12839892 36 18051953003860870344
13004483 165 17756697538766152274
14178342 30 18267854146109268737
14576447 43 18341612671749983310
15442244 35 18411982421145316081
17492 89 18339078293465137855
18186145 218 17240486883774331865
20600515 1 17914058599076973976
20645477 70 18410007775660996991
21634736 98 18411140242562545430
221490 88 18336553831641165234
22393880 68 18340211898394980340
23366157 5 18187363268179918136
23557571 272 17842276957236297342
23559900 14 18342730814956399856
23598291 2 18412269397959120369
2838139 119 16154559855820859100
2871803 45 18123467447712865127
335352 9 18195246620590782109
34934 24 18411136926742051056
4280585 95 18126581015930763406
53777708 50 18341336668893982009
7364860 26 18412261774445040904
9709674 26 18336547221976685987
9981440 41 17904197384261804304

> <PUBCHEM_SHAPE_MULTIPOLES>
388.56
8.52
3.84
0.79
2.88
0.01
-0.04
-4.36
1.52
-2.45
0.11
-0.13
-0.11
-0.85

> <PUBCHEM_SHAPE_SELFOVERLAP>
820.434

> <PUBCHEM_SHAPE_VOLUME>
216

> <PUBCHEM_COORDINATE_TYPE>
2
5
10

$$$$
