125202
  -OEChem-03292013323D

 50 51  0     0  0  0  0  0  0999 V2000
    5.7272   -2.5028   -0.6919 Cl  0  0  0  0  0  0  0  0  0  0  0  0
   -6.0131    0.8476   -1.2315 O   0  5  0  0  0  0  0  0  0  0  0  0
    1.1040    1.2712   -0.2011 O   0  0  0  0  0  0  0  0  0  0  0  0
   -4.8212    0.3824   -0.5449 N   0  0  0  0  0  0  0  0  0  0  0  0
   -1.0189   -0.2608    0.6373 N   0  0  0  0  0  0  0  0  0  0  0  0
    1.2002   -0.8845    0.6985 N   0  0  0  0  0  0  0  0  0  0  0  0
   -0.3758   -2.4127    1.4669 N   0  0  0  0  0  0  0  0  0  0  0  0
    3.7394   -0.9206   -0.2405 N   0  0  0  0  0  0  0  0  0  0  0  0
    5.2877    1.4132   -0.0901 N   0  0  0  0  0  0  0  0  0  0  0  0
    3.3128    2.6709    0.3130 N   0  0  0  0  0  0  0  0  0  0  0  0
    7.2383    0.1273   -0.4960 N   0  0  0  0  0  0  0  0  0  0  0  0
   -3.9231    1.3946    0.1384 C   0  0  0  0  0  0  0  0  0  0  0  0
   -4.5115   -1.1011   -0.5352 C   0  0  0  0  0  0  0  0  0  0  0  0
   -3.1732    0.6896    1.2800 C   0  0  0  0  0  0  0  0  0  0  0  0
   -3.0006   -1.2789   -0.3358 C   0  0  0  0  0  0  0  0  0  0  0  0
   -2.4294   -0.5854    0.8953 C   0  0  0  0  0  0  0  0  0  0  0  0
   -4.7874    2.5086    0.7591 C   0  0  0  0  0  0  0  0  0  0  0  0
   -2.9978    1.9882   -0.9269 C   0  0  0  0  0  0  0  0  0  0  0  0
   -5.3461   -1.7430    0.5761 C   0  0  0  0  0  0  0  0  0  0  0  0
   -4.8874   -1.7105   -1.8980 C   0  0  0  0  0  0  0  0  0  0  0  0
   -0.1520   -1.1654    0.9329 C   0  0  0  0  0  0  0  0  0  0  0  0
    1.7434    0.2869    0.1586 C   0  0  0  0  0  0  0  0  0  0  0  0
    3.2189    0.2872   -0.0105 C   0  0  0  0  0  0  0  0  0  0  0  0
    3.9492    1.4335    0.0667 C   0  0  0  0  0  0  0  0  0  0  0  0
    5.0780   -0.9409   -0.3971 C   0  0  0  0  0  0  0  0  0  0  0  0
    5.8384    0.2054   -0.3232 C   0  0  0  0  0  0  0  0  0  0  0  0
   -3.9009    0.4310    2.0614 H   0  0  0  0  0  0  0  0  0  0  0  0
   -2.4830    1.3958    1.7620 H   0  0  0  0  0  0  0  0  0  0  0  0
   -2.4764   -0.9276   -1.2348 H   0  0  0  0  0  0  0  0  0  0  0  0
   -2.7615   -2.3497   -0.2803 H   0  0  0  0  0  0  0  0  0  0  0  0
   -2.5325   -1.2417    1.7677 H   0  0  0  0  0  0  0  0  0  0  0  0
   -5.2950    3.1143    0.0001 H   0  0  0  0  0  0  0  0  0  0  0  0
   -5.5538    2.0982    1.4271 H   0  0  0  0  0  0  0  0  0  0  0  0
   -4.1677    3.1957    1.3473 H   0  0  0  0  0  0  0  0  0  0  0  0
   -2.4071    1.2320   -1.4490 H   0  0  0  0  0  0  0  0  0  0  0  0
   -3.5663    2.5271   -1.6936 H   0  0  0  0  0  0  0  0  0  0  0  0
   -2.2971    2.7005   -0.4768 H   0  0  0  0  0  0  0  0  0  0  0  0
   -6.4197   -1.6308    0.3854 H   0  0  0  0  0  0  0  0  0  0  0  0
   -5.1358   -2.8162    0.6465 H   0  0  0  0  0  0  0  0  0  0  0  0
   -5.1528   -1.3055    1.5588 H   0  0  0  0  0  0  0  0  0  0  0  0
   -4.5745   -2.7600   -1.9515 H   0  0  0  0  0  0  0  0  0  0  0  0
   -5.9682   -1.6949   -2.0776 H   0  0  0  0  0  0  0  0  0  0  0  0
   -4.4030   -1.1769   -2.7242 H   0  0  0  0  0  0  0  0  0  0  0  0
    1.8535   -1.6241    0.9447 H   0  0  0  0  0  0  0  0  0  0  0  0
   -1.3000   -2.7828    1.6521 H   0  0  0  0  0  0  0  0  0  0  0  0
    0.4003   -3.0366    1.6613 H   0  0  0  0  0  0  0  0  0  0  0  0
    3.9091    3.4884    0.3546 H   0  0  0  0  0  0  0  0  0  0  0  0
    2.4659    2.6798    0.8677 H   0  0  0  0  0  0  0  0  0  0  0  0
    7.7614    0.9924   -0.4431 H   0  0  0  0  0  0  0  0  0  0  0  0
    7.6132   -0.6293   -1.0546 H   0  0  0  0  0  0  0  0  0  0  0  0
  1 25  1  0  0  0  0
  2  4  1  0  0  0  0
  3 22  2  0  0  0  0
  4 12  1  0  0  0  0
  4 13  1  0  0  0  0
  5 16  1  0  0  0  0
  5 21  2  0  0  0  0
  6 21  1  0  0  0  0
  6 22  1  0  0  0  0
  6 44  1  0  0  0  0
  7 21  1  0  0  0  0
  7 45  1  0  0  0  0
  7 46  1  0  0  0  0
  8 23  1  0  0  0  0
  8 25  2  0  0  0  0
  9 24  1  0  0  0  0
  9 26  2  0  0  0  0
 10 24  1  0  0  0  0
 10 47  1  0  0  0  0
 10 48  1  0  0  0  0
 11 26  1  0  0  0  0
 11 49  1  0  0  0  0
 11 50  1  0  0  0  0
 12 14  1  0  0  0  0
 12 17  1  0  0  0  0
 12 18  1  0  0  0  0
 13 15  1  0  0  0  0
 13 19  1  0  0  0  0
 13 20  1  0  0  0  0
 14 16  1  0  0  0  0
 14 27  1  0  0  0  0
 14 28  1  0  0  0  0
 15 16  1  0  0  0  0
 15 29  1  0  0  0  0
 15 30  1  0  0  0  0
 16 31  1  0  0  0  0
 17 32  1  0  0  0  0
 17 33  1  0  0  0  0
 17 34  1  0  0  0  0
 18 35  1  0  0  0  0
 18 36  1  0  0  0  0
 18 37  1  0  0  0  0
 19 38  1  0  0  0  0
 19 39  1  0  0  0  0
 19 40  1  0  0  0  0
 20 41  1  0  0  0  0
 20 42  1  0  0  0  0
 20 43  1  0  0  0  0
 22 23  1  0  0  0  0
 23 24  2  0  0  0  0
 25 26  1  0  0  0  0
M  CHG  1   2  -1
M  END
> <PUBCHEM_COMPOUND_CID>
125202

> <PUBCHEM_CONFORMER_RMSD>
0.8

> <PUBCHEM_CONFORMER_DIVERSEORDER>
10
30
42
6
65
47
14
12
68
35
70
57
67
7
62
44
58
55
61
24
69
54
71
46
33
37
53
25
32
27
59
18
66
15
38
31
9
64
28
5
45
19
51
50
63
17
43
1
16
21
4
39
36
41
60
23
8
52
26
40
49
22
34
29
56
48
13
3
2
11
20

> <PUBCHEM_MMFF94_PARTIAL_CHARGES>
27
1 -0.18
10 -0.9
11 -0.9
12 0.1
13 0.1
16 0.25
2 -0.86
21 0.56
22 0.54
23 0.4
24 0.41
25 0.49
26 0.41
3 -0.57
4 -0.34
44 0.37
45 0.4
46 0.4
47 0.4
48 0.4
49 0.4
5 -0.7
50 0.4
6 -0.49
7 -0.85
8 -0.62
9 -0.62

> <PUBCHEM_EFFECTIVE_ROTOR_COUNT>
5.2

> <PUBCHEM_PHARMACOPHORE_FEATURES>
13
1 10 cation
1 10 donor
1 11 donor
1 2 anion
1 3 acceptor
1 6 donor
1 7 donor
1 8 acceptor
3 12 17 18 hydrophobe
3 13 19 20 hydrophobe
3 9 11 26 cation
6 4 12 13 14 15 16 rings
6 8 9 23 24 25 26 rings

> <PUBCHEM_HEAVY_ATOM_COUNT>
26

> <PUBCHEM_ATOM_DEF_STEREO_COUNT>
0

> <PUBCHEM_ATOM_UDEF_STEREO_COUNT>
0

> <PUBCHEM_BOND_DEF_STEREO_COUNT>
0

> <PUBCHEM_BOND_UDEF_STEREO_COUNT>
0

> <PUBCHEM_ISOTOPIC_ATOM_COUNT>
0

> <PUBCHEM_COMPONENT_COUNT>
1

> <PUBCHEM_CACTVS_TAUTO_COUNT>
54

> <PUBCHEM_CONFORMER_ID>
0001E9120000000A

> <PUBCHEM_MMFF94_ENERGY>
100.0133

> <PUBCHEM_FEATURE_SELFOVERLAP>
66.015

> <PUBCHEM_SHAPE_FINGERPRINT>
10595046 47 18272369819047515196
10670039 82 18187078455723617516
11089746 13 18334574659783126872
11315181 36 18341897406707487961
12107183 9 17909835327485209498
12166972 35 18341054115612072032
13668630 136 17274830168534181870
14347332 77 18202280325264654983
14573314 32 18333734619840504750
15183329 4 18334856087367679450
15348495 7 8574423219227350614
15420108 30 17046843949997721592
15788980 27 18131633387196191078
16989378 47 16198772129075214230
16994733 274 16227145061401181631
17349148 13 15626232325019373002
17780758 139 8790887384986686295
17844677 252 18341338867537539753
20645477 70 18130798837118832270
21033648 29 17968372450332788824
21236236 1 18410013234617067225
21279426 13 18263928748433405806
21709351 56 18413108363938541292
22061861 79 18273217465514466302
221357 26 18411978087375777193
22393880 68 18335129869852143665
23198884 109 18131068195802799137
23402539 116 18411139134270754216
23559900 14 18340763822998625584
3004659 81 18188214209293103210
4015057 19 18339365283094915488
4073 2 18260554467496595106
4214541 1 18413392033548665985
508706 21 17894628154065957389
5283173 99 18412545401221660872
531348 171 18272932683349939327
59755656 215 18259701181489813879
59755656 520 17603868918424103131
6328613 192 17968106377952892124
7495541 125 16845008025946102314

> <PUBCHEM_SHAPE_MULTIPOLES>
485.35
17.37
2.6
1.17
13.25
0.29
-0.09
-0.73
-4.92
-0.58
0
-1.53
-0.39
-0.08

> <PUBCHEM_SHAPE_SELFOVERLAP>
998.529

> <PUBCHEM_SHAPE_VOLUME>
278.9

> <PUBCHEM_COORDINATE_TYPE>
2
5
10

$$$$
