125236
  -OEChem-03292013323D

 49 50  0     1  0  0  0  0  0999 V2000
    3.1061    1.2335   -1.6480 Cl  0  0  0  0  0  0  0  0  0  0  0  0
    4.2918    3.3556    0.4533 Cl  0  0  0  0  0  0  0  0  0  0  0  0
   -1.1032    2.1257   -0.7309 O   0  0  0  0  0  0  0  0  0  0  0  0
   -3.7462   -0.6503    0.6513 O   0  0  0  0  0  0  0  0  0  0  0  0
    2.6826   -2.9578   -1.1554 O   0  0  0  0  0  0  0  0  0  0  0  0
   -0.9757    1.1567   -2.8295 O   0  0  0  0  0  0  0  0  0  0  0  0
    3.0997   -2.2462    1.0077 O   0  0  0  0  0  0  0  0  0  0  0  0
   -5.7864   -0.2463   -0.3359 O   0  0  0  0  0  0  0  0  0  0  0  0
   -1.3389   -2.1456    0.1660 N   0  0  0  0  0  0  0  0  0  0  0  0
   -5.5849   -0.4067    1.9490 N   0  0  0  0  0  0  0  0  0  0  0  0
    0.8081   -0.4584   -0.5942 C   0  0  2  0  0  0  0  0  0  0  0  0
   -0.6628   -0.1218   -0.8585 C   0  0  0  0  0  0  0  0  0  0  0  0
    1.0036   -1.8704   -0.0328 C   0  0  0  0  0  0  0  0  0  0  0  0
   -1.6545   -0.9476   -0.4544 C   0  0  0  0  0  0  0  0  0  0  0  0
    1.4058    0.5525    0.3415 C   0  0  0  0  0  0  0  0  0  0  0  0
   -0.0520   -2.6291    0.3400 C   0  0  0  0  0  0  0  0  0  0  0  0
   -3.1273   -0.6862   -0.6192 C   0  0  0  0  0  0  0  0  0  0  0  0
   -0.9297    1.1129   -1.6140 C   0  0  0  0  0  0  0  0  0  0  0  0
    0.0326   -4.0039    0.9462 C   0  0  0  0  0  0  0  0  0  0  0  0
    2.3871   -2.3695    0.0289 C   0  0  0  0  0  0  0  0  0  0  0  0
    2.4600    1.3749   -0.0442 C   0  0  0  0  0  0  0  0  0  0  0  0
    0.8697    0.6465    1.6226 C   0  0  0  0  0  0  0  0  0  0  0  0
    2.9833    2.2999    0.8594 C   0  0  0  0  0  0  0  0  0  0  0  0
    1.3929    1.5714    2.5259 C   0  0  0  0  0  0  0  0  0  0  0  0
    2.4497    2.3981    2.1444 C   0  0  0  0  0  0  0  0  0  0  0  0
   -1.3742    3.4028   -1.3178 C   0  0  0  0  0  0  0  0  0  0  0  0
    4.0047   -3.4978   -1.2513 C   0  0  0  0  0  0  0  0  0  0  0  0
   -5.0990   -0.4192    0.6650 C   0  0  0  0  0  0  0  0  0  0  0  0
   -1.5429    4.4263   -0.2152 C   0  0  0  0  0  0  0  0  0  0  0  0
    1.2782   -0.4742   -1.5827 H   0  0  0  0  0  0  0  0  0  0  0  0
   -2.1073   -2.7383    0.4593 H   0  0  0  0  0  0  0  0  0  0  0  0
   -3.5676   -1.4920   -1.2203 H   0  0  0  0  0  0  0  0  0  0  0  0
   -3.3169    0.2599   -1.1375 H   0  0  0  0  0  0  0  0  0  0  0  0
   -0.4511   -4.0137    1.9289 H   0  0  0  0  0  0  0  0  0  0  0  0
    1.0619   -4.3467    1.0844 H   0  0  0  0  0  0  0  0  0  0  0  0
   -0.4749   -4.7317    0.3042 H   0  0  0  0  0  0  0  0  0  0  0  0
    0.0466    0.0184    1.9511 H   0  0  0  0  0  0  0  0  0  0  0  0
    0.9772    1.6483    3.5264 H   0  0  0  0  0  0  0  0  0  0  0  0
    2.8445    3.1133    2.8618 H   0  0  0  0  0  0  0  0  0  0  0  0
   -2.2926    3.3440   -1.9125 H   0  0  0  0  0  0  0  0  0  0  0  0
   -0.5386    3.6910   -1.9655 H   0  0  0  0  0  0  0  0  0  0  0  0
    4.7475   -2.7028   -1.1342 H   0  0  0  0  0  0  0  0  0  0  0  0
    4.1193   -3.9418   -2.2438 H   0  0  0  0  0  0  0  0  0  0  0  0
    4.1508   -4.2781   -0.4982 H   0  0  0  0  0  0  0  0  0  0  0  0
   -1.7505    5.4169   -0.6289 H   0  0  0  0  0  0  0  0  0  0  0  0
   -2.3634    4.1419    0.4519 H   0  0  0  0  0  0  0  0  0  0  0  0
   -0.6384    4.4816    0.3998 H   0  0  0  0  0  0  0  0  0  0  0  0
   -6.5685   -0.2487    2.1402 H   0  0  0  0  0  0  0  0  0  0  0  0
   -4.9752   -0.5551    2.7461 H   0  0  0  0  0  0  0  0  0  0  0  0
  1 21  1  0  0  0  0
  2 23  1  0  0  0  0
  3 18  1  0  0  0  0
  3 26  1  0  0  0  0
  4 17  1  0  0  0  0
  4 28  1  0  0  0  0
  5 20  1  0  0  0  0
  5 27  1  0  0  0  0
  6 18  2  0  0  0  0
  7 20  2  0  0  0  0
  8 28  2  0  0  0  0
  9 14  1  0  0  0  0
  9 16  1  0  0  0  0
  9 31  1  0  0  0  0
 10 28  1  0  0  0  0
 10 48  1  0  0  0  0
 10 49  1  0  0  0  0
 11 12  1  0  0  0  0
 11 13  1  0  0  0  0
 11 15  1  0  0  0  0
 11 30  1  0  0  0  0
 12 14  2  0  0  0  0
 12 18  1  0  0  0  0
 13 16  2  0  0  0  0
 13 20  1  0  0  0  0
 14 17  1  0  0  0  0
 15 21  2  0  0  0  0
 15 22  1  0  0  0  0
 16 19  1  0  0  0  0
 17 32  1  0  0  0  0
 17 33  1  0  0  0  0
 19 34  1  0  0  0  0
 19 35  1  0  0  0  0
 19 36  1  0  0  0  0
 21 23  1  0  0  0  0
 22 24  2  0  0  0  0
 22 37  1  0  0  0  0
 23 25  2  0  0  0  0
 24 25  1  0  0  0  0
 24 38  1  0  0  0  0
 25 39  1  0  0  0  0
 26 29  1  0  0  0  0
 26 40  1  0  0  0  0
 26 41  1  0  0  0  0
 27 42  1  0  0  0  0
 27 43  1  0  0  0  0
 27 44  1  0  0  0  0
 29 45  1  0  0  0  0
 29 46  1  0  0  0  0
 29 47  1  0  0  0  0
M  END
> <PUBCHEM_COMPOUND_CID>
125236

> <PUBCHEM_CONFORMER_RMSD>
1

> <PUBCHEM_CONFORMER_DIVERSEORDER>
8
6
57
51
56
20
31
62
48
53
46
44
33
45
38
10
58
16
59
52
61
5
60
37
22
21
40
32
14
28
19
26
55
42
25
18
54
24
29
4
36
43
30
23
9
17
12
2
49
41
3
35
11
15
13
47
7
1
50
27
39
34

> <PUBCHEM_MMFF94_PARTIAL_CHARGES>
34
1 -0.18
10 -0.8
11 0.42
12 -0.12
13 -0.12
14 -0.04
15 -0.14
16 -0.04
17 0.42
18 0.71
19 0.14
2 -0.18
20 0.71
21 0.18
22 -0.15
23 0.18
24 -0.15
25 -0.15
26 0.28
27 0.28
28 0.78
3 -0.43
31 0.4
37 0.15
38 0.15
39 0.15
4 -0.43
48 0.37
49 0.37
5 -0.43
6 -0.57
7 -0.57
8 -0.57
9 -0.6

> <PUBCHEM_EFFECTIVE_ROTOR_COUNT>
9.4

> <PUBCHEM_PHARMACOPHORE_FEATURES>
8
1 10 donor
1 6 acceptor
1 7 acceptor
1 8 acceptor
1 9 cation
1 9 donor
6 15 21 22 23 24 25 rings
6 9 11 12 13 14 16 rings

> <PUBCHEM_HEAVY_ATOM_COUNT>
29

> <PUBCHEM_ATOM_DEF_STEREO_COUNT>
0

> <PUBCHEM_ATOM_UDEF_STEREO_COUNT>
1

> <PUBCHEM_BOND_DEF_STEREO_COUNT>
0

> <PUBCHEM_BOND_UDEF_STEREO_COUNT>
0

> <PUBCHEM_ISOTOPIC_ATOM_COUNT>
0

> <PUBCHEM_COMPONENT_COUNT>
1

> <PUBCHEM_CACTVS_TAUTO_COUNT>
6

> <PUBCHEM_CONFORMER_ID>
0001E93400000008

> <PUBCHEM_MMFF94_ENERGY>
71.3397

> <PUBCHEM_FEATURE_SELFOVERLAP>
40.596

> <PUBCHEM_SHAPE_FINGERPRINT>
10006869 2 18271804584678557301
10165383 225 18267869556652301960
1100329 8 17836085568194193292
11763715 3 15575261083269508036
12160290 23 17186398857678274962
12422481 6 18189318212775819210
13140716 1 18334007324210004963
13383661 66 13338167224567979913
13878862 14 18270101428529935805
14142880 1 17694477635658951795
14178342 30 17977380860916175547
14955137 171 17971770014572303641
15081414 286 18336553793635189117
1601671 61 18116154544395026077
16945 1 16901019583933636686
17980427 26 17559379443790491100
20600515 1 17978511167401701708
20691752 17 18337940311614013087
20723712 36 18192152818261617857
20739085 24 18261409827381462983
22182313 1 17968645052101965935
229495 10 18201992210099972549
2748010 2 18044069333316257286
350125 39 18335980874619497140
5265222 85 17474116879367129596
56638632 10 17413551212630505272
5895379 119 16198210256821123099
59554788 170 18410016502902706399
70251023 43 18056170533054993671
81228 2 16754057747484592122
9981440 41 17401703880030651913

> <PUBCHEM_SHAPE_MULTIPOLES>
555.37
7.85
5.27
1.99
10.08
0.51
0.15
-0.73
2
-4.13
-0.37
-0.31
-0.96
2.07

> <PUBCHEM_SHAPE_SELFOVERLAP>
1154.555

> <PUBCHEM_SHAPE_VOLUME>
318.1

> <PUBCHEM_COORDINATE_TYPE>
2
5
10

$$$$
