125266
  -OEChem-03292013323D

 46 48  0     1  0  0  0  0  0999 V2000
    3.3526    0.7803    0.7783 O   0  0  0  0  0  0  0  0  0  0  0  0
   -1.9984   -0.9211   -1.9491 O   0  0  0  0  0  0  0  0  0  0  0  0
   -3.0668    0.5482    1.0749 O   0  0  0  0  0  0  0  0  0  0  0  0
    2.0659    1.2880    2.6346 O   0  0  0  0  0  0  0  0  0  0  0  0
    0.6399   -3.5276    1.6226 O   0  5  0  0  0  0  0  0  0  0  0  0
   -0.1214   -1.4753    1.7894 O   0  0  0  0  0  0  0  0  0  0  0  0
   -0.0264    2.9339   -0.9632 N   0  0  0  0  0  0  0  0  0  0  0  0
    0.5101   -2.3650    1.1717 N   0  3  0  0  0  0  0  0  0  0  0  0
    0.2372    0.3169    0.0898 C   0  0  2  0  0  0  0  0  0  0  0  0
   -0.9594    0.7694   -0.7529 C   0  0  0  0  0  0  0  0  0  0  0  0
    1.1899    1.4659    0.4395 C   0  0  0  0  0  0  0  0  0  0  0  0
    0.9869   -0.7693   -0.6271 C   0  0  0  0  0  0  0  0  0  0  0  0
   -1.0274    2.0222   -1.2571 C   0  0  0  0  0  0  0  0  0  0  0  0
    1.0315    2.6961   -0.0999 C   0  0  0  0  0  0  0  0  0  0  0  0
   -2.0424   -0.2100   -0.9391 C   0  0  0  0  0  0  0  0  0  0  0  0
    1.0995   -2.0446   -0.0823 C   0  0  0  0  0  0  0  0  0  0  0  0
    1.5710   -0.4715   -1.8545 C   0  0  0  0  0  0  0  0  0  0  0  0
   -2.1288    2.5502   -2.1362 C   0  0  0  0  0  0  0  0  0  0  0  0
    2.2350    1.1752    1.4345 C   0  0  0  0  0  0  0  0  0  0  0  0
    1.9290    3.8788    0.1458 C   0  0  0  0  0  0  0  0  0  0  0  0
    1.8031   -3.0321   -0.7719 C   0  0  0  0  0  0  0  0  0  0  0  0
   -3.1345   -0.2984    0.0424 C   0  0  0  0  0  0  0  0  0  0  0  0
    2.2748   -1.4592   -2.5438 C   0  0  0  0  0  0  0  0  0  0  0  0
    2.3909   -2.7394   -2.0025 C   0  0  0  0  0  0  0  0  0  0  0  0
   -4.2084   -1.1065    0.0701 C   0  0  0  0  0  0  0  0  0  0  0  0
   -4.9026   -0.7371    1.2468 C   0  0  0  0  0  0  0  0  0  0  0  0
   -4.1679    0.2732    1.8224 C   0  0  0  0  0  0  0  0  0  0  0  0
    4.4670    0.4588    1.6168 C   0  0  0  0  0  0  0  0  0  0  0  0
   -0.2493    0.2095    1.0448 H   0  0  0  0  0  0  0  0  0  0  0  0
   -0.1104    3.8649   -1.3559 H   0  0  0  0  0  0  0  0  0  0  0  0
    1.4985    0.5158   -2.3015 H   0  0  0  0  0  0  0  0  0  0  0  0
   -1.7151    2.9106   -3.0842 H   0  0  0  0  0  0  0  0  0  0  0  0
   -2.6381    3.3848   -1.6425 H   0  0  0  0  0  0  0  0  0  0  0  0
   -2.8842    1.7968   -2.3759 H   0  0  0  0  0  0  0  0  0  0  0  0
    1.3574    4.7006    0.5903 H   0  0  0  0  0  0  0  0  0  0  0  0
    2.3594    4.2288   -0.7986 H   0  0  0  0  0  0  0  0  0  0  0  0
    2.7591    3.6519    0.8206 H   0  0  0  0  0  0  0  0  0  0  0  0
    1.9165   -4.0412   -0.3839 H   0  0  0  0  0  0  0  0  0  0  0  0
    2.7327   -1.2315   -3.5020 H   0  0  0  0  0  0  0  0  0  0  0  0
    2.9391   -3.5079   -2.5396 H   0  0  0  0  0  0  0  0  0  0  0  0
   -4.4849   -1.8692   -0.6434 H   0  0  0  0  0  0  0  0  0  0  0  0
   -5.8231   -1.1550    1.6279 H   0  0  0  0  0  0  0  0  0  0  0  0
   -4.2868    0.8686    2.7158 H   0  0  0  0  0  0  0  0  0  0  0  0
    4.7693    1.3352    2.1981 H   0  0  0  0  0  0  0  0  0  0  0  0
    5.2995    0.1588    0.9748 H   0  0  0  0  0  0  0  0  0  0  0  0
    4.2146   -0.3761    2.2775 H   0  0  0  0  0  0  0  0  0  0  0  0
  1 19  1  0  0  0  0
  1 28  1  0  0  0  0
  2 15  2  0  0  0  0
  3 22  1  0  0  0  0
  3 27  1  0  0  0  0
  4 19  2  0  0  0  0
  5  8  1  0  0  0  0
  6  8  2  0  0  0  0
  7 13  1  0  0  0  0
  7 14  1  0  0  0  0
  7 30  1  0  0  0  0
  8 16  1  0  0  0  0
  9 10  1  0  0  0  0
  9 11  1  0  0  0  0
  9 12  1  0  0  0  0
  9 29  1  0  0  0  0
 10 13  2  0  0  0  0
 10 15  1  0  0  0  0
 11 14  2  0  0  0  0
 11 19  1  0  0  0  0
 12 16  1  0  0  0  0
 12 17  2  0  0  0  0
 13 18  1  0  0  0  0
 14 20  1  0  0  0  0
 15 22  1  0  0  0  0
 16 21  2  0  0  0  0
 17 23  1  0  0  0  0
 17 31  1  0  0  0  0
 18 32  1  0  0  0  0
 18 33  1  0  0  0  0
 18 34  1  0  0  0  0
 20 35  1  0  0  0  0
 20 36  1  0  0  0  0
 20 37  1  0  0  0  0
 21 24  1  0  0  0  0
 21 38  1  0  0  0  0
 22 25  2  0  0  0  0
 23 24  2  0  0  0  0
 23 39  1  0  0  0  0
 24 40  1  0  0  0  0
 25 26  1  0  0  0  0
 25 41  1  0  0  0  0
 26 27  2  0  0  0  0
 26 42  1  0  0  0  0
 27 43  1  0  0  0  0
 28 44  1  0  0  0  0
 28 45  1  0  0  0  0
 28 46  1  0  0  0  0
M  CHG  2   5  -1   8   1
M  END
> <PUBCHEM_COMPOUND_CID>
125266

> <PUBCHEM_CONFORMER_RMSD>
0.8

> <PUBCHEM_CONFORMER_DIVERSEORDER>
14
12
21
32
33
26
36
27
28
9
37
20
35
11
25
15
18
34
24
8
29
10
22
30
17
6
19
31
1
23
4
7
16
2
3
5
13

> <PUBCHEM_MMFF94_PARTIAL_CHARGES>
36
1 -0.43
10 -0.12
11 -0.12
12 -0.14
13 -0.04
14 -0.04
15 0.64
16 0.13
17 -0.15
18 0.14
19 0.71
2 -0.57
20 0.14
21 -0.15
22 0.05
23 -0.15
24 -0.15
25 -0.15
26 -0.15
27 -0.01
28 0.28
3 -0.28
30 0.4
31 0.15
38 0.15
39 0.15
4 -0.57
40 0.15
41 0.15
42 0.15
43 0.15
5 -0.52
6 -0.52
7 -0.6
8 0.91
9 0.42

> <PUBCHEM_EFFECTIVE_ROTOR_COUNT>
6.4

> <PUBCHEM_PHARMACOPHORE_FEATURES>
11
1 2 acceptor
1 3 acceptor
1 4 acceptor
1 5 acceptor
1 5 anion
1 6 acceptor
1 7 cation
1 7 donor
5 3 22 25 26 27 rings
6 12 16 17 21 23 24 rings
6 7 9 10 11 13 14 rings

> <PUBCHEM_HEAVY_ATOM_COUNT>
28

> <PUBCHEM_ATOM_DEF_STEREO_COUNT>
0

> <PUBCHEM_ATOM_UDEF_STEREO_COUNT>
1

> <PUBCHEM_BOND_DEF_STEREO_COUNT>
0

> <PUBCHEM_BOND_UDEF_STEREO_COUNT>
0

> <PUBCHEM_ISOTOPIC_ATOM_COUNT>
0

> <PUBCHEM_COMPONENT_COUNT>
1

> <PUBCHEM_CACTVS_TAUTO_COUNT>
8

> <PUBCHEM_CONFORMER_ID>
0001E9520000000E

> <PUBCHEM_MMFF94_ENERGY>
95.6372

> <PUBCHEM_FEATURE_SELFOVERLAP>
55.904

> <PUBCHEM_SHAPE_FINGERPRINT>
11578080 2 18266463092149113957
12035758 1 18265345073954938248
12293681 25 18191006933892520357
12422481 6 17844511229104052842
12467345 10 16128388042820868762
12553582 1 17895776036190135051
12633257 1 18262512727168775856
12714826 92 17977684012676783927
12788726 201 17400080773450604381
13140716 1 18119808259930043793
13965767 371 17415034316551787129
14178342 30 18057604467863116215
14787075 74 18191330258809257534
16945 1 18046595014831417596
20691752 17 18261681453739980607
20905425 154 17838020764672924076
22182313 1 18268423547135106757
23419403 2 18057044614380583668
2748010 2 18195795285097972125
35225 105 17120818477754144473
474 4 18199188562854584881
57527452 28 16471412688080012326
6287921 2 18201167666684165167
6669772 16 15577842951282448644

> <PUBCHEM_SHAPE_MULTIPOLES>
531.05
6.44
3.96
2.41
6.22
0.59
0.08
-0.86
-2.96
-2.97
0.67
-0.67
-0.28
1.98

> <PUBCHEM_SHAPE_SELFOVERLAP>
1161.644

> <PUBCHEM_SHAPE_VOLUME>
288.7

> <PUBCHEM_COORDINATE_TYPE>
2
5
10

$$$$
