125241
  -OEChem-03292013323D

 42 44  0     1  0  0  0  0  0999 V2000
    0.2076    1.0287    0.5635 S   0  0  0  0  0  0  0  0  0  0  0  0
    3.5077    1.5992   -1.6520 S   0  0  0  0  0  0  0  0  0  0  0  0
    5.7223   -1.0357    0.0998 F   0  0  0  0  0  0  0  0  0  0  0  0
   -0.0990   -3.5047   -0.4200 O   0  0  0  0  0  0  0  0  0  0  0  0
   -4.4738    1.4112    0.5495 O   0  0  0  0  0  0  0  0  0  0  0  0
   -3.7250   -2.5265   -0.1396 O   0  0  0  0  0  0  0  0  0  0  0  0
    3.6946   -1.0286    1.9246 O   0  0  0  0  0  0  0  0  0  0  0  0
   -2.7414   -2.1493   -2.1694 O   0  0  0  0  0  0  0  0  0  0  0  0
   -6.2584    1.9831   -0.8015 O   0  0  0  0  0  0  0  0  0  0  0  0
   -0.8647   -1.3814    0.2627 N   0  0  0  0  0  0  0  0  0  0  0  0
    2.2008   -1.2688    0.1624 N   0  0  0  0  0  0  0  0  0  0  0  0
   -0.0718   -0.6318    1.2200 C   0  0  1  0  0  0  0  0  0  0  0  0
    1.0437   -1.6684    0.9627 C   0  0  1  0  0  0  0  0  0  0  0  0
   -0.0354   -2.4419    0.1523 C   0  0  0  0  0  0  0  0  0  0  0  0
   -2.0518   -0.9504   -0.2362 C   0  0  0  0  0  0  0  0  0  0  0  0
   -2.4477    0.3382   -0.1057 C   0  0  0  0  0  0  0  0  0  0  0  0
   -1.5724    1.4277    0.5098 C   0  0  0  0  0  0  0  0  0  0  0  0
   -3.7842    0.8744   -0.5595 C   0  0  0  0  0  0  0  0  0  0  0  0
    3.4434   -0.9797    0.7221 C   0  0  0  0  0  0  0  0  0  0  0  0
   -2.8575   -1.9297   -0.9805 C   0  0  0  0  0  0  0  0  0  0  0  0
    4.4936   -0.5955   -0.3008 C   0  0  1  0  0  0  0  0  0  0  0  0
    4.4970    0.9021   -0.4588 C   0  0  0  0  0  0  0  0  0  0  0  0
    5.2164    1.8110    0.2548 C   0  0  0  0  0  0  0  0  0  0  0  0
   -5.7131    1.9403    0.2929 C   0  0  0  0  0  0  0  0  0  0  0  0
    4.9518    3.1391   -0.1882 C   0  0  0  0  0  0  0  0  0  0  0  0
    4.0405    3.1683   -1.2207 C   0  0  0  0  0  0  0  0  0  0  0  0
   -6.3231    2.4690    1.5557 C   0  0  0  0  0  0  0  0  0  0  0  0
   -0.4836   -0.6658    2.2356 H   0  0  0  0  0  0  0  0  0  0  0  0
    1.3397   -2.2182    1.8648 H   0  0  0  0  0  0  0  0  0  0  0  0
   -1.6601    2.3497   -0.0747 H   0  0  0  0  0  0  0  0  0  0  0  0
   -1.9145    1.6426    1.5281 H   0  0  0  0  0  0  0  0  0  0  0  0
    2.1047   -1.1803   -0.8466 H   0  0  0  0  0  0  0  0  0  0  0  0
   -4.4016    0.0971   -1.0216 H   0  0  0  0  0  0  0  0  0  0  0  0
   -3.6204    1.6579   -1.3101 H   0  0  0  0  0  0  0  0  0  0  0  0
    4.2895   -1.0959   -1.2539 H   0  0  0  0  0  0  0  0  0  0  0  0
   -4.2855   -3.1893   -0.5965 H   0  0  0  0  0  0  0  0  0  0  0  0
    5.8996    1.5575    1.0551 H   0  0  0  0  0  0  0  0  0  0  0  0
    5.4065    4.0279    0.2294 H   0  0  0  0  0  0  0  0  0  0  0  0
    3.6617    4.0360   -1.7421 H   0  0  0  0  0  0  0  0  0  0  0  0
   -7.3078    2.8906    1.3346 H   0  0  0  0  0  0  0  0  0  0  0  0
   -6.4452    1.6561    2.2759 H   0  0  0  0  0  0  0  0  0  0  0  0
   -5.6908    3.2584    1.9694 H   0  0  0  0  0  0  0  0  0  0  0  0
  1 12  1  0  0  0  0
  1 17  1  0  0  0  0
  2 22  1  0  0  0  0
  2 26  1  0  0  0  0
  3 21  1  0  0  0  0
  4 14  2  0  0  0  0
  5 18  1  0  0  0  0
  5 24  1  0  0  0  0
  6 20  1  0  0  0  0
  6 36  1  0  0  0  0
  7 19  2  0  0  0  0
  8 20  2  0  0  0  0
  9 24  2  0  0  0  0
 10 12  1  0  0  0  0
 10 14  1  0  0  0  0
 10 15  1  0  0  0  0
 11 13  1  0  0  0  0
 11 19  1  0  0  0  0
 11 32  1  0  0  0  0
 12 13  1  0  0  0  0
 12 28  1  0  0  0  0
 13 14  1  0  0  0  0
 13 29  1  0  0  0  0
 15 16  2  0  0  0  0
 15 20  1  0  0  0  0
 16 17  1  0  0  0  0
 16 18  1  0  0  0  0
 17 30  1  0  0  0  0
 17 31  1  0  0  0  0
 18 33  1  0  0  0  0
 18 34  1  0  0  0  0
 19 21  1  0  0  0  0
 21 22  1  0  0  0  0
 21 35  1  0  0  0  0
 22 23  2  0  0  0  0
 23 25  1  0  0  0  0
 23 37  1  0  0  0  0
 24 27  1  0  0  0  0
 25 26  2  0  0  0  0
 25 38  1  0  0  0  0
 26 39  1  0  0  0  0
 27 40  1  0  0  0  0
 27 41  1  0  0  0  0
 27 42  1  0  0  0  0
M  END
> <PUBCHEM_COMPOUND_CID>
125241

> <PUBCHEM_CONFORMER_RMSD>
1

> <PUBCHEM_CONFORMER_DIVERSEORDER>
1
53
22
57
17
52
28
66
23
71
3
67
15
75
38
58
5
54
39
78
76
47
48
34
31
68
37
27
79
74
25
16
77
60
7
19
45
20
51
12
36
13
30
73
80
40
55
69
59
18
44
81
35
56
24
43
49
14
2
65
61
26
50
42
21
63
8
32
9
62
4
46
33
29
11
64
70
10
72
6
41

> <PUBCHEM_MMFF94_PARTIAL_CHARGES>
32
1 -0.45
10 -0.39
11 -0.65
12 0.44
13 0.28
14 0.58
15 0.12
16 -0.28
17 0.37
18 0.42
19 0.57
2 -0.08
20 0.71
21 0.58
22 -0.14
23 -0.15
24 0.66
25 -0.15
26 -0.11
27 0.06
3 -0.34
32 0.37
36 0.5
37 0.15
38 0.15
39 0.15
4 -0.57
5 -0.43
6 -0.65
7 -0.57
8 -0.57
9 -0.57

> <PUBCHEM_EFFECTIVE_ROTOR_COUNT>
8.6

> <PUBCHEM_PHARMACOPHORE_FEATURES>
10
1 11 donor
1 4 acceptor
1 6 acceptor
1 7 acceptor
1 8 acceptor
1 9 acceptor
3 6 8 20 anion
4 10 12 13 14 rings
5 2 22 23 25 26 rings
6 1 10 12 15 16 17 rings

> <PUBCHEM_HEAVY_ATOM_COUNT>
27

> <PUBCHEM_ATOM_DEF_STEREO_COUNT>
1

> <PUBCHEM_ATOM_UDEF_STEREO_COUNT>
2

> <PUBCHEM_BOND_DEF_STEREO_COUNT>
0

> <PUBCHEM_BOND_UDEF_STEREO_COUNT>
0

> <PUBCHEM_ISOTOPIC_ATOM_COUNT>
0

> <PUBCHEM_COMPONENT_COUNT>
1

> <PUBCHEM_CACTVS_TAUTO_COUNT>
2

> <PUBCHEM_CONFORMER_ID>
0001E93900000001

> <PUBCHEM_MMFF94_ENERGY>
57.5099

> <PUBCHEM_FEATURE_SELFOVERLAP>
51.062

> <PUBCHEM_SHAPE_FINGERPRINT>
10439779 11 18122616413308794776
10673678 19 18411423873802535017
12422481 6 17385727984869188885
12616971 3 18113888339097298722
12788726 201 17845948354809743448
13617811 41 17903624526050763869
13885169 86 18410580578470147833
13911852 28 9367350310095629881
14117953 113 18339642214317778980
14251764 75 18189349020619243100
144659 39 18342185474838429789
14790565 3 18410578400757665729
14840074 17 18187369805088845405
15840311 113 18335146350069296909
17810953 82 18333736810300706212
17959699 21 18337390556243067858
17980427 23 18266716087972638370
1813 80 13470695871095414130
18335252 114 18263075518482726652
19319366 153 18335698287473195011
20511986 3 18339913905127289596
20715895 44 18411700972286497328
21298829 104 18335983155685565852
21315764 119 17703518688241526772
22079108 93 17167869647039728137
23227448 37 18334575733166170455
23559900 14 18202283568334566486
249057 3 18340208488686760718
25147074 1 18337093640748405147
268830 7 18113606907123073130
2838139 119 18335416816786196117
3472631 163 18413390925457556101
34797466 226 15482371128493163881
3680242 22 18187639181321849432
4340502 62 17241341149017916907
474 4 18261676982515384762
5081480 168 16343424024089389011
5104073 3 18113614620958067026
57724786 102 17168435973249316820
5951187 136 18272666627385300204
6036956 94 17253159030110850812
633830 44 18334009501884667114

> <PUBCHEM_SHAPE_MULTIPOLES>
510.89
14.15
3.84
1.37
5.41
0.01
-0.16
-12.85
0.16
0.44
-0.55
0.2
0.05
-2.81

> <PUBCHEM_SHAPE_SELFOVERLAP>
1061.935

> <PUBCHEM_SHAPE_VOLUME>
292.6

> <PUBCHEM_COORDINATE_TYPE>
2
5
10

$$$$
