125235
  -OEChem-03292013323D

 46 47  0     1  0  0  0  0  0999 V2000
    3.1394    1.1619   -1.6682 Cl  0  0  0  0  0  0  0  0  0  0  0  0
    4.4606    3.2305    0.4054 Cl  0  0  0  0  0  0  0  0  0  0  0  0
   -3.8270   -0.2299    0.6412 O   0  0  0  0  0  0  0  0  0  0  0  0
   -1.0041    2.3449   -0.7732 O   0  0  0  0  0  0  0  0  0  0  0  0
    2.4384   -2.9838   -1.1163 O   0  0  0  0  0  0  0  0  0  0  0  0
   -0.9386    1.3397   -2.8576 O   0  0  0  0  0  0  0  0  0  0  0  0
    2.8983   -2.2692    1.0371 O   0  0  0  0  0  0  0  0  0  0  0  0
   -5.8346    0.2918   -0.3573 O   0  0  0  0  0  0  0  0  0  0  0  0
   -1.5229   -1.8879    0.1835 N   0  0  0  0  0  0  0  0  0  0  0  0
   -5.6478    0.1531    1.9302 N   0  0  0  0  0  0  0  0  0  0  0  0
    0.7324   -0.3581   -0.5957 C   0  0  2  0  0  0  0  0  0  0  0  0
   -0.7126    0.0717   -0.8679 C   0  0  0  0  0  0  0  0  0  0  0  0
    0.8329   -1.7719   -0.0140 C   0  0  0  0  0  0  0  0  0  0  0  0
   -1.7575   -0.6805   -0.4544 C   0  0  0  0  0  0  0  0  0  0  0  0
    1.3947    0.6242    0.3269 C   0  0  0  0  0  0  0  0  0  0  0  0
   -0.2713   -2.4533    0.3671 C   0  0  0  0  0  0  0  0  0  0  0  0
   -3.2097   -0.3256   -0.6270 C   0  0  0  0  0  0  0  0  0  0  0  0
   -0.8969    1.3104   -1.6415 C   0  0  0  0  0  0  0  0  0  0  0  0
   -0.2784   -3.8220    0.9928 C   0  0  0  0  0  0  0  0  0  0  0  0
    2.1803   -2.3598    0.0583 C   0  0  0  0  0  0  0  0  0  0  0  0
    2.5018    1.3691   -0.0681 C   0  0  0  0  0  0  0  0  0  0  0  0
    0.8642    0.7722    1.6051 C   0  0  0  0  0  0  0  0  0  0  0  0
    3.0842    2.2701    0.8234 C   0  0  0  0  0  0  0  0  0  0  0  0
    1.4466    1.6731    2.4965 C   0  0  0  0  0  0  0  0  0  0  0  0
    2.5565    2.4222    2.1057 C   0  0  0  0  0  0  0  0  0  0  0  0
   -1.1897    3.6286   -1.3787 C   0  0  0  0  0  0  0  0  0  0  0  0
    3.7222   -3.6110   -1.2012 C   0  0  0  0  0  0  0  0  0  0  0  0
   -5.1616    0.0894    0.6479 C   0  0  0  0  0  0  0  0  0  0  0  0
    1.2015   -0.4191   -1.5829 H   0  0  0  0  0  0  0  0  0  0  0  0
   -2.3295   -2.4242    0.4832 H   0  0  0  0  0  0  0  0  0  0  0  0
   -3.7010   -1.1097   -1.2172 H   0  0  0  0  0  0  0  0  0  0  0  0
   -3.3358    0.6229   -1.1600 H   0  0  0  0  0  0  0  0  0  0  0  0
   -0.8324   -4.5237    0.3602 H   0  0  0  0  0  0  0  0  0  0  0  0
   -0.7628   -3.7857    1.9746 H   0  0  0  0  0  0  0  0  0  0  0  0
    0.7259   -4.2301    1.1379 H   0  0  0  0  0  0  0  0  0  0  0  0
    0.0008    0.2050    1.9407 H   0  0  0  0  0  0  0  0  0  0  0  0
    1.0357    1.7919    3.4948 H   0  0  0  0  0  0  0  0  0  0  0  0
    2.9971    3.1197    2.8137 H   0  0  0  0  0  0  0  0  0  0  0  0
   -1.2626    4.3727   -0.5813 H   0  0  0  0  0  0  0  0  0  0  0  0
   -0.3321    3.8755   -2.0120 H   0  0  0  0  0  0  0  0  0  0  0  0
   -2.1170    3.6432   -1.9593 H   0  0  0  0  0  0  0  0  0  0  0  0
    4.5156   -2.8650   -1.0938 H   0  0  0  0  0  0  0  0  0  0  0  0
    3.8088   -4.0762   -2.1866 H   0  0  0  0  0  0  0  0  0  0  0  0
    3.8155   -4.3879   -0.4364 H   0  0  0  0  0  0  0  0  0  0  0  0
   -6.6193    0.3781    2.1165 H   0  0  0  0  0  0  0  0  0  0  0  0
   -5.0504   -0.0229    2.7310 H   0  0  0  0  0  0  0  0  0  0  0  0
  1 21  1  0  0  0  0
  2 23  1  0  0  0  0
  3 17  1  0  0  0  0
  3 28  1  0  0  0  0
  4 18  1  0  0  0  0
  4 26  1  0  0  0  0
  5 20  1  0  0  0  0
  5 27  1  0  0  0  0
  6 18  2  0  0  0  0
  7 20  2  0  0  0  0
  8 28  2  0  0  0  0
  9 14  1  0  0  0  0
  9 16  1  0  0  0  0
  9 30  1  0  0  0  0
 10 28  1  0  0  0  0
 10 45  1  0  0  0  0
 10 46  1  0  0  0  0
 11 12  1  0  0  0  0
 11 13  1  0  0  0  0
 11 15  1  0  0  0  0
 11 29  1  0  0  0  0
 12 14  2  0  0  0  0
 12 18  1  0  0  0  0
 13 16  2  0  0  0  0
 13 20  1  0  0  0  0
 14 17  1  0  0  0  0
 15 21  2  0  0  0  0
 15 22  1  0  0  0  0
 16 19  1  0  0  0  0
 17 31  1  0  0  0  0
 17 32  1  0  0  0  0
 19 33  1  0  0  0  0
 19 34  1  0  0  0  0
 19 35  1  0  0  0  0
 21 23  1  0  0  0  0
 22 24  2  0  0  0  0
 22 36  1  0  0  0  0
 23 25  2  0  0  0  0
 24 25  1  0  0  0  0
 24 37  1  0  0  0  0
 25 38  1  0  0  0  0
 26 39  1  0  0  0  0
 26 40  1  0  0  0  0
 26 41  1  0  0  0  0
 27 42  1  0  0  0  0
 27 43  1  0  0  0  0
 27 44  1  0  0  0  0
M  END
> <PUBCHEM_COMPOUND_CID>
125235

> <PUBCHEM_CONFORMER_RMSD>
1

> <PUBCHEM_CONFORMER_DIVERSEORDER>
6
56
8
52
29
41
53
50
33
49
38
55
44
12
45
48
25
54
42
15
18
46
51
30
43
35
31
36
27
17
32
34
13
9
22
26
5
14
39
21
16
19
10
1
47
37
7
2
4
3
11
24
28
23
40
20

> <PUBCHEM_MMFF94_PARTIAL_CHARGES>
34
1 -0.18
10 -0.8
11 0.42
12 -0.12
13 -0.12
14 -0.04
15 -0.14
16 -0.04
17 0.42
18 0.71
19 0.14
2 -0.18
20 0.71
21 0.18
22 -0.15
23 0.18
24 -0.15
25 -0.15
26 0.28
27 0.28
28 0.78
3 -0.43
30 0.4
36 0.15
37 0.15
38 0.15
4 -0.43
45 0.37
46 0.37
5 -0.43
6 -0.57
7 -0.57
8 -0.57
9 -0.6

> <PUBCHEM_EFFECTIVE_ROTOR_COUNT>
8.4

> <PUBCHEM_PHARMACOPHORE_FEATURES>
8
1 10 donor
1 6 acceptor
1 7 acceptor
1 8 acceptor
1 9 cation
1 9 donor
6 15 21 22 23 24 25 rings
6 9 11 12 13 14 16 rings

> <PUBCHEM_HEAVY_ATOM_COUNT>
28

> <PUBCHEM_ATOM_DEF_STEREO_COUNT>
0

> <PUBCHEM_ATOM_UDEF_STEREO_COUNT>
1

> <PUBCHEM_BOND_DEF_STEREO_COUNT>
0

> <PUBCHEM_BOND_UDEF_STEREO_COUNT>
0

> <PUBCHEM_ISOTOPIC_ATOM_COUNT>
0

> <PUBCHEM_COMPONENT_COUNT>
1

> <PUBCHEM_CACTVS_TAUTO_COUNT>
6

> <PUBCHEM_CONFORMER_ID>
0001E93300000006

> <PUBCHEM_MMFF94_ENERGY>
74.0891

> <PUBCHEM_FEATURE_SELFOVERLAP>
40.596

> <PUBCHEM_SHAPE_FINGERPRINT>
10165383 225 18339645658533753952
10382601 240 18261384589679047402
11763715 3 15430585135663067324
12160290 23 17257893484540616954
12422481 6 18189037820109651208
12633257 1 18266155353489275202
12788726 201 16542685939769667814
13140716 1 18261105288151681715
13878862 14 18197761242823975669
14142880 1 17836906160002373801
14178342 30 18048595116676973747
14955137 171 17897744268929903381
1601671 61 18114749347054708165
16945 1 17045979184038813890
17980427 23 12245382456001260058
17980427 26 17631154450450007924
1813 80 17416130477720099318
18785283 64 18410569591895805728
20600515 1 16251895410779907478
20691752 17 17894901966747392631
20739085 24 18188506687416590797
21041028 32 17915175711374941776
22182313 1 17968364659504304751
229495 10 18200864098300887813
23352939 185 18119551867852882286
23559900 14 18196097857951332628
23598288 3 17172603126122970216
238 59 17835474385594229014
2748010 2 18043506366151298805
350125 39 18334853862316150876
427121 178 18340211894252694867
469060 322 17682702635135983794
484985 159 13270483436267024336
5265222 85 17618233145474443596
57527295 17 17773888678002040990
59554788 170 18335989666359458615
6442390 28 18055065729568052592
6823239 73 17531543018058495723
70251023 43 18055607565963784255
81228 2 16897611072212588594

> <PUBCHEM_SHAPE_MULTIPOLES>
534.79
8.07
4.64
2.04
11.05
2.97
0.04
-3.27
2.23
-4.77
-0.38
-0.28
-1.23
1.81

> <PUBCHEM_SHAPE_SELFOVERLAP>
1116.762

> <PUBCHEM_SHAPE_VOLUME>
305.4

> <PUBCHEM_COORDINATE_TYPE>
2
5
10

$$$$
