125244
  -OEChem-03292013323D

 29 31  0     0  0  0  0  0  0999 V2000
    3.4392    1.8831   -0.6869 O   0  0  0  0  0  0  0  0  0  0  0  0
    5.0781    0.3994    0.2723 O   0  0  0  0  0  0  0  0  0  0  0  0
   -1.0359   -0.3188    0.0143 O   0  0  0  0  0  0  0  0  0  0  0  0
   -0.5207   -2.5594   -0.2613 O   0  0  0  0  0  0  0  0  0  0  0  0
   -2.0116    2.4480    0.4039 O   0  0  0  0  0  0  0  0  0  0  0  0
   -4.5006   -0.1463   -0.0933 N   0  0  0  0  0  0  0  0  0  0  0  0
   -2.9655   -1.7415   -0.2675 N   0  0  0  0  0  0  0  0  0  0  0  0
   -4.2675    2.6843    0.3303 N   0  0  0  0  0  0  0  0  0  0  0  0
    2.8998    0.6922   -0.3087 C   0  0  0  0  0  0  0  0  0  0  0  0
    3.8357   -0.1550    0.2388 C   0  0  0  0  0  0  0  0  0  0  0  0
    1.2090   -0.9464    0.0079 C   0  0  0  0  0  0  0  0  0  0  0  0
    1.5760    0.3255   -0.4383 C   0  0  0  0  0  0  0  0  0  0  0  0
    3.4994   -1.4158    0.6873 C   0  0  0  0  0  0  0  0  0  0  0  0
    2.1653   -1.8120    0.5675 C   0  0  0  0  0  0  0  0  0  0  0  0
    4.8194    1.6907   -0.3152 C   0  0  0  0  0  0  0  0  0  0  0  0
   -0.1745   -1.3802   -0.1075 C   0  0  0  0  0  0  0  0  0  0  0  0
   -2.3771   -0.5280   -0.0668 C   0  0  0  0  0  0  0  0  0  0  0  0
   -3.2937    0.4792    0.0450 C   0  0  0  0  0  0  0  0  0  0  0  0
   -4.2533   -1.4780   -0.2788 C   0  0  0  0  0  0  0  0  0  0  0  0
   -3.1215    1.8794    0.2571 C   0  0  0  0  0  0  0  0  0  0  0  0
    0.8653    1.0127   -0.8850 H   0  0  0  0  0  0  0  0  0  0  0  0
    4.2398   -2.0800    1.1185 H   0  0  0  0  0  0  0  0  0  0  0  0
    1.8786   -2.8009    0.9175 H   0  0  0  0  0  0  0  0  0  0  0  0
    5.1000    2.4670    0.4059 H   0  0  0  0  0  0  0  0  0  0  0  0
    5.4423    1.8001   -1.2104 H   0  0  0  0  0  0  0  0  0  0  0  0
   -5.4140    0.2862   -0.0652 H   0  0  0  0  0  0  0  0  0  0  0  0
   -5.0490   -2.1965   -0.4149 H   0  0  0  0  0  0  0  0  0  0  0  0
   -5.2099    2.3221    0.2327 H   0  0  0  0  0  0  0  0  0  0  0  0
   -4.1830    3.6832    0.4875 H   0  0  0  0  0  0  0  0  0  0  0  0
  1  9  1  0  0  0  0
  1 15  1  0  0  0  0
  2 10  1  0  0  0  0
  2 15  1  0  0  0  0
  3 16  1  0  0  0  0
  3 17  1  0  0  0  0
  4 16  2  0  0  0  0
  5 20  2  0  0  0  0
  6 18  1  0  0  0  0
  6 19  1  0  0  0  0
  6 26  1  0  0  0  0
  7 17  1  0  0  0  0
  7 19  2  0  0  0  0
  8 20  1  0  0  0  0
  8 28  1  0  0  0  0
  8 29  1  0  0  0  0
  9 10  2  0  0  0  0
  9 12  1  0  0  0  0
 10 13  1  0  0  0  0
 11 12  2  0  0  0  0
 11 14  1  0  0  0  0
 11 16  1  0  0  0  0
 12 21  1  0  0  0  0
 13 14  2  0  0  0  0
 13 22  1  0  0  0  0
 14 23  1  0  0  0  0
 15 24  1  0  0  0  0
 15 25  1  0  0  0  0
 17 18  2  0  0  0  0
 18 20  1  0  0  0  0
 19 27  1  0  0  0  0
M  END
> <PUBCHEM_COMPOUND_CID>
125244

> <PUBCHEM_CONFORMER_RMSD>
0.8

> <PUBCHEM_CONFORMER_DIVERSEORDER>
1
93
64
37
65
25
60
11
49
45
69
6
52
88
89
12
50
85
44
63
35
76
7
96
58
2
39
42
29
14
36
94
92
40
78
15
51
83
4
56
59
71
21
90
16
38
86
46
72
82
5
98
20
53
67
43
8
77
13
9
26
97
3
66
34
81
17
10
57
33
41
48
91
24
22
55
75
27
28
61
79
73
23
95
74
84
47
54
62
87
32
30
18
80
19
68
31
70

> <PUBCHEM_MMFF94_PARTIAL_CHARGES>
27
1 -0.36
10 0.08
11 0.09
12 -0.15
13 -0.15
14 -0.15
15 0.56
16 0.63
17 0.29
18 -0.24
19 0.04
2 -0.36
20 0.71
21 0.15
22 0.15
23 0.15
26 0.27
27 0.15
28 0.37
29 0.37
3 -0.21
4 -0.57
5 -0.57
6 0.03
7 -0.57
8 -0.8
9 0.08

> <PUBCHEM_EFFECTIVE_ROTOR_COUNT>
4.6

> <PUBCHEM_PHARMACOPHORE_FEATURES>
10
1 1 acceptor
1 2 acceptor
1 4 acceptor
1 5 acceptor
1 6 donor
1 8 donor
3 6 7 19 cation
5 1 2 9 10 15 rings
5 6 7 17 18 19 rings
6 9 10 11 12 13 14 rings

> <PUBCHEM_HEAVY_ATOM_COUNT>
20

> <PUBCHEM_ATOM_DEF_STEREO_COUNT>
0

> <PUBCHEM_ATOM_UDEF_STEREO_COUNT>
0

> <PUBCHEM_BOND_DEF_STEREO_COUNT>
0

> <PUBCHEM_BOND_UDEF_STEREO_COUNT>
0

> <PUBCHEM_ISOTOPIC_ATOM_COUNT>
0

> <PUBCHEM_COMPONENT_COUNT>
1

> <PUBCHEM_CACTVS_TAUTO_COUNT>
7

> <PUBCHEM_CONFORMER_ID>
0001E93C00000001

> <PUBCHEM_MMFF94_ENERGY>
44.9162

> <PUBCHEM_FEATURE_SELFOVERLAP>
50.904

> <PUBCHEM_SHAPE_FINGERPRINT>
10498660 4 18341052930248375853
10616163 171 18412265025724714895
10646746 165 18342738503275043464
10670039 82 18335433374085660724
12107183 9 17904194832850627378
12173636 292 18342167890889229735
12390115 104 18129679516764127601
12596602 18 17386002922451688896
12916748 109 18411989091071394638
13167823 11 18409445882069323722
14341114 176 18261117374046688507
14739800 52 18197760302173228696
15196674 1 18410573955091967808
15442244 35 18264485092490106258
17492 89 18410012096340834579
17834072 32 18267587910019272273
20510252 161 18343587343447490691
20715895 44 17832981651264844777
20739085 24 17821728300320265646
21065198 48 18334853900786175194
21267235 1 18409174324214278002
21652331 79 18410293631388149001
21864079 5 18410577257921811951
23227448 37 18338515227784476517
23402539 116 18270955851347179271
23557571 272 18060144240717250749
23559900 14 17986109604593131878
245318 6 16954799880214329260
38570 142 17315667181710271036
4214541 1 18410292480120538420
474 4 17749674103305978652
4921388 177 14979662343289157725
5104073 3 18334856086903229250
633830 44 18340485564952601662
636775 72 17907579474347289192
7097593 13 17754445760116372531
77779 3 18410292497358715706
9709674 26 18410580573769147822
9981440 41 18407759248422845227

> <PUBCHEM_SHAPE_MULTIPOLES>
367.3
10.55
2.66
0.7
1.23
0.78
0.01
3.91
0.16
-1.42
0.13
0.2
0
-1.21

> <PUBCHEM_SHAPE_SELFOVERLAP>
818.982

> <PUBCHEM_SHAPE_VOLUME>
196.1

> <PUBCHEM_COORDINATE_TYPE>
2
5
10

$$$$
