125224
  -OEChem-03292013323D

 32 33  0     1  0  0  0  0  0999 V2000
   -3.3285   -0.7710    2.3945 F   0  0  0  0  0  0  0  0  0  0  0  0
    0.9177   -0.7904   -0.2673 O   0  0  0  0  0  0  0  0  0  0  0  0
    0.0756    2.7753   -0.0914 O   0  0  0  0  0  0  0  0  0  0  0  0
    2.6326    2.6181    1.2682 O   0  0  0  0  0  0  0  0  0  0  0  0
    4.3007    0.5972    0.0552 O   0  0  0  0  0  0  0  0  0  0  0  0
    4.1613   -2.1188   -0.3386 O   0  0  0  0  0  0  0  0  0  0  0  0
    2.1376   -2.9457    0.3071 O   0  0  0  0  0  0  0  0  0  0  0  0
   -1.7720    0.5333   -2.6177 O   0  0  0  0  0  0  0  0  0  0  0  0
   -5.1140   -0.6177    0.3499 O   0  0  0  0  0  0  0  0  0  0  0  0
   -1.1873    0.1510   -0.3870 N   0  0  0  0  0  0  0  0  0  0  0  0
   -3.4347   -0.0404   -1.1404 N   0  0  0  0  0  0  0  0  0  0  0  0
    0.6855    1.5542    0.3231 C   0  0  2  0  0  0  0  0  0  0  0  0
    2.2017    1.7293    0.2355 C   0  0  2  0  0  0  0  0  0  0  0  0
    0.2168    0.4104   -0.5757 C   0  0  1  0  0  0  0  0  0  0  0  0
    2.9327    0.3984    0.4093 C   0  0  1  0  0  0  0  0  0  0  0  0
    2.3198   -0.6739   -0.4858 C   0  0  1  0  0  0  0  0  0  0  0  0
    2.8256   -2.0327   -0.1246 C   0  0  0  0  0  0  0  0  0  0  0  0
   -2.0977    0.2375   -1.4659 C   0  0  0  0  0  0  0  0  0  0  0  0
   -1.6307   -0.1869    0.8840 C   0  0  0  0  0  0  0  0  0  0  0  0
   -2.9075   -0.4445    1.1591 C   0  0  0  0  0  0  0  0  0  0  0  0
   -3.9350   -0.3828    0.1085 C   0  0  0  0  0  0  0  0  0  0  0  0
    0.4229    1.4096    1.3759 H   0  0  0  0  0  0  0  0  0  0  0  0
    2.4886    2.1993   -0.7138 H   0  0  0  0  0  0  0  0  0  0  0  0
    0.3960    0.6610   -1.6286 H   0  0  0  0  0  0  0  0  0  0  0  0
    2.9066    0.0895    1.4622 H   0  0  0  0  0  0  0  0  0  0  0  0
    2.5176   -0.5060   -1.5516 H   0  0  0  0  0  0  0  0  0  0  0  0
    0.2993    2.9220   -1.0263 H   0  0  0  0  0  0  0  0  0  0  0  0
    2.1453    3.4521    1.1549 H   0  0  0  0  0  0  0  0  0  0  0  0
    4.6527    1.2957    0.6332 H   0  0  0  0  0  0  0  0  0  0  0  0
   -0.8889   -0.2632    1.6707 H   0  0  0  0  0  0  0  0  0  0  0  0
   -4.1066    0.0158   -1.9008 H   0  0  0  0  0  0  0  0  0  0  0  0
    4.5135   -3.0042   -0.1054 H   0  0  0  0  0  0  0  0  0  0  0  0
  1 20  1  0  0  0  0
  2 14  1  0  0  0  0
  2 16  1  0  0  0  0
  3 12  1  0  0  0  0
  3 27  1  0  0  0  0
  4 13  1  0  0  0  0
  4 28  1  0  0  0  0
  5 15  1  0  0  0  0
  5 29  1  0  0  0  0
  6 17  1  0  0  0  0
  6 32  1  0  0  0  0
  7 17  2  0  0  0  0
  8 18  2  0  0  0  0
  9 21  2  0  0  0  0
 10 14  1  0  0  0  0
 10 18  1  0  0  0  0
 10 19  1  0  0  0  0
 11 18  1  0  0  0  0
 11 21  1  0  0  0  0
 11 31  1  0  0  0  0
 12 13  1  0  0  0  0
 12 14  1  0  0  0  0
 12 22  1  0  0  0  0
 13 15  1  0  0  0  0
 13 23  1  0  0  0  0
 14 24  1  0  0  0  0
 15 16  1  0  0  0  0
 15 25  1  0  0  0  0
 16 17  1  0  0  0  0
 16 26  1  0  0  0  0
 19 20  2  0  0  0  0
 19 30  1  0  0  0  0
 20 21  1  0  0  0  0
M  END
> <PUBCHEM_COMPOUND_CID>
125224

> <PUBCHEM_CONFORMER_RMSD>
0.6

> <PUBCHEM_CONFORMER_DIVERSEORDER>
1
24
29
23
9
21
22
28
4
20
5
18
27
26
14
12
30
17
25
7
10
13
6
15
16
19
3
2
8
11

> <PUBCHEM_MMFF94_PARTIAL_CHARGES>
27
1 -0.15
10 -0.47
11 -0.49
12 0.28
13 0.28
14 0.58
15 0.28
16 0.34
17 0.66
18 0.69
19 -0.04
2 -0.56
20 0.16
21 0.62
27 0.4
28 0.4
29 0.4
3 -0.68
30 0.15
31 0.37
32 0.5
4 -0.68
5 -0.68
6 -0.65
7 -0.57
8 -0.57
9 -0.57

> <PUBCHEM_EFFECTIVE_ROTOR_COUNT>
3.2

> <PUBCHEM_PHARMACOPHORE_FEATURES>
15
1 11 donor
1 2 acceptor
1 3 acceptor
1 3 donor
1 4 acceptor
1 4 donor
1 5 acceptor
1 5 donor
1 6 acceptor
1 7 acceptor
1 8 acceptor
1 9 acceptor
3 6 7 17 anion
6 10 11 18 19 20 21 rings
6 2 12 13 14 15 16 rings

> <PUBCHEM_HEAVY_ATOM_COUNT>
21

> <PUBCHEM_ATOM_DEF_STEREO_COUNT>
5

> <PUBCHEM_ATOM_UDEF_STEREO_COUNT>
0

> <PUBCHEM_BOND_DEF_STEREO_COUNT>
0

> <PUBCHEM_BOND_UDEF_STEREO_COUNT>
0

> <PUBCHEM_ISOTOPIC_ATOM_COUNT>
0

> <PUBCHEM_COMPONENT_COUNT>
1

> <PUBCHEM_CACTVS_TAUTO_COUNT>
3

> <PUBCHEM_CONFORMER_ID>
0001E92800000001

> <PUBCHEM_MMFF94_ENERGY>
46.9268

> <PUBCHEM_FEATURE_SELFOVERLAP>
76.213

> <PUBCHEM_SHAPE_FINGERPRINT>
11471102 22 18411699897985562568
11582403 64 16240321723399717580
11640471 11 17202210805226627353
12236239 1 17346601902064452693
12553582 1 18200586982985008142
12596602 18 17346314963789296907
13140716 1 18125709335084792848
13296908 3 18334853879258506790
13533116 47 18342182189394423395
13538477 17 16630239320460543693
13583140 156 17987800864388413313
14178342 30 17841132656982495152
14386348 63 18040719177331865491
15375462 189 18060697286607982216
15635459 17 18261109681601980050
16945 1 18342446067752900452
1813 80 17773612537438035054
19049666 15 18115294575703845885
20645477 70 18408316709296817466
21041028 32 18129665184358079504
22112679 90 16988554714870732100
2255824 54 18202002166081584324
23526113 38 18041269989697022464
23557571 272 17458057166436484788
23559900 14 17385718059125764694
31174 14 18412262835159414734
3286 77 18409453570366413967
33824 294 18410574019864864490
474 4 17772460442172693912
6049 1 18186794751600767517
633830 44 17772754007672369916
7615 1 17060325345058677709
77492 1 17346597508291861981
81228 2 17260174498821835794

> <PUBCHEM_SHAPE_MULTIPOLES>
367.98
7.88
2.36
1.48
3.29
0.09
0.25
-2.73
-1.17
-3.3
-0.44
1.71
0.11
1.02

> <PUBCHEM_SHAPE_SELFOVERLAP>
783.02

> <PUBCHEM_SHAPE_VOLUME>
202.3

> <PUBCHEM_COORDINATE_TYPE>
2
5
10

$$$$
