125252
  -OEChem-03292013323D

 49 50  0     1  0  0  0  0  0999 V2000
   -6.3004    3.7390   -0.7134 Br  0  0  0  0  0  0  0  0  0  0  0  0
   -1.0931   -4.2237   -0.3681 O   0  0  0  0  0  0  0  0  0  0  0  0
    0.8771   -2.2902   -0.7021 O   0  0  0  0  0  0  0  0  0  0  0  0
   -5.5954    0.7309   -1.3624 O   0  0  0  0  0  0  0  0  0  0  0  0
   -1.8060   -0.9146    1.1212 N   0  0  0  0  0  0  0  0  0  0  0  0
   -5.2127    0.5361    0.9216 N   0  0  0  0  0  0  0  0  0  0  0  0
    4.7902    1.5575   -0.8002 N   0  0  0  0  0  0  0  0  0  0  0  0
    7.5773    2.5577    1.1296 N   0  0  0  0  0  0  0  0  0  0  0  0
   -2.7588    0.1383    0.7390 C   0  0  0  0  0  0  0  0  0  0  0  0
   -4.1751   -0.4577    0.8469 C   0  0  0  0  0  0  0  0  0  0  0  0
   -1.9145   -2.0476    0.2200 C   0  0  0  0  0  0  0  0  0  0  0  0
   -2.5721    1.3145    1.7073 C   0  0  0  0  0  0  0  0  0  0  0  0
   -2.4465    0.5848   -0.6968 C   0  0  0  0  0  0  0  0  0  0  0  0
   -0.9445   -3.1721    0.5901 C   0  0  2  0  0  0  0  0  0  0  0  0
    0.5172   -2.7297    0.6040 C   0  0  0  0  0  0  0  0  0  0  0  0
   -5.8433    1.0532   -0.2018 C   0  0  0  0  0  0  0  0  0  0  0  0
    1.8284   -1.3085   -0.7804 C   0  0  0  0  0  0  0  0  0  0  0  0
    3.7885   -0.2089    0.1236 C   0  0  0  0  0  0  0  0  0  0  0  0
    3.7404    0.6800   -0.9524 C   0  0  0  0  0  0  0  0  0  0  0  0
    2.8134   -1.2222    0.2101 C   0  0  0  0  0  0  0  0  0  0  0  0
    1.8050   -0.4076   -1.8431 C   0  0  0  0  0  0  0  0  0  0  0  0
    2.7620    0.6057   -1.9502 C   0  0  0  0  0  0  0  0  0  0  0  0
   -6.8799    2.0924    0.1295 C   0  0  0  0  0  0  0  0  0  0  0  0
    4.9027    0.1659    0.9254 C   0  0  0  0  0  0  0  0  0  0  0  0
    5.4982    1.2551    0.3318 C   0  0  0  0  0  0  0  0  0  0  0  0
    6.6420    1.9717    0.7707 C   0  0  0  0  0  0  0  0  0  0  0  0
   -4.2810   -1.0495    1.7650 H   0  0  0  0  0  0  0  0  0  0  0  0
   -4.4163   -1.1110    0.0009 H   0  0  0  0  0  0  0  0  0  0  0  0
   -1.9797   -1.2162    2.0797 H   0  0  0  0  0  0  0  0  0  0  0  0
   -1.7073   -1.7796   -0.8210 H   0  0  0  0  0  0  0  0  0  0  0  0
   -2.9093   -2.5050    0.2285 H   0  0  0  0  0  0  0  0  0  0  0  0
   -1.5333    1.6668    1.7027 H   0  0  0  0  0  0  0  0  0  0  0  0
   -3.1992    2.1710    1.4357 H   0  0  0  0  0  0  0  0  0  0  0  0
   -2.8198    1.0300    2.7367 H   0  0  0  0  0  0  0  0  0  0  0  0
   -2.9422    1.5380   -0.9172 H   0  0  0  0  0  0  0  0  0  0  0  0
   -1.3727    0.7550   -0.8420 H   0  0  0  0  0  0  0  0  0  0  0  0
   -2.7923   -0.1207   -1.4595 H   0  0  0  0  0  0  0  0  0  0  0  0
   -1.2078   -3.5849    1.5707 H   0  0  0  0  0  0  0  0  0  0  0  0
    0.6441   -1.9511    1.3657 H   0  0  0  0  0  0  0  0  0  0  0  0
    1.1524   -3.5875    0.8553 H   0  0  0  0  0  0  0  0  0  0  0  0
   -5.4817    0.8688    1.8429 H   0  0  0  0  0  0  0  0  0  0  0  0
   -0.8052   -3.8815   -1.2318 H   0  0  0  0  0  0  0  0  0  0  0  0
    2.8771   -1.9274    1.0325 H   0  0  0  0  0  0  0  0  0  0  0  0
    1.0319   -0.4872   -2.6039 H   0  0  0  0  0  0  0  0  0  0  0  0
    2.7427    1.3070   -2.7776 H   0  0  0  0  0  0  0  0  0  0  0  0
   -6.9747    2.2860    1.1995 H   0  0  0  0  0  0  0  0  0  0  0  0
   -7.8466    1.8116   -0.2936 H   0  0  0  0  0  0  0  0  0  0  0  0
    5.2284   -0.3149    1.8386 H   0  0  0  0  0  0  0  0  0  0  0  0
    5.0034    2.3144   -1.4355 H   0  0  0  0  0  0  0  0  0  0  0  0
  1 23  1  0  0  0  0
  2 14  1  0  0  0  0
  2 42  1  0  0  0  0
  3 15  1  0  0  0  0
  3 17  1  0  0  0  0
  4 16  2  0  0  0  0
  5  9  1  0  0  0  0
  5 11  1  0  0  0  0
  5 29  1  0  0  0  0
  6 10  1  0  0  0  0
  6 16  1  0  0  0  0
  6 41  1  0  0  0  0
  7 19  1  0  0  0  0
  7 25  1  0  0  0  0
  7 49  1  0  0  0  0
  8 26  3  0  0  0  0
  9 10  1  0  0  0  0
  9 12  1  0  0  0  0
  9 13  1  0  0  0  0
 10 27  1  0  0  0  0
 10 28  1  0  0  0  0
 11 14  1  0  0  0  0
 11 30  1  0  0  0  0
 11 31  1  0  0  0  0
 12 32  1  0  0  0  0
 12 33  1  0  0  0  0
 12 34  1  0  0  0  0
 13 35  1  0  0  0  0
 13 36  1  0  0  0  0
 13 37  1  0  0  0  0
 14 15  1  0  0  0  0
 14 38  1  0  0  0  0
 15 39  1  0  0  0  0
 15 40  1  0  0  0  0
 16 23  1  0  0  0  0
 17 20  2  0  0  0  0
 17 21  1  0  0  0  0
 18 19  2  0  0  0  0
 18 20  1  0  0  0  0
 18 24  1  0  0  0  0
 19 22  1  0  0  0  0
 20 43  1  0  0  0  0
 21 22  2  0  0  0  0
 21 44  1  0  0  0  0
 22 45  1  0  0  0  0
 23 46  1  0  0  0  0
 23 47  1  0  0  0  0
 24 25  2  0  0  0  0
 24 48  1  0  0  0  0
 25 26  1  0  0  0  0
M  END
> <PUBCHEM_COMPOUND_CID>
125252

> <PUBCHEM_CONFORMER_RMSD>
1

> <PUBCHEM_CONFORMER_DIVERSEORDER>
1
200
22
104
94
13
119
4
188
144
60
130
231
19
73
143
38
142
80
163
64
213
133
111
26
39
151
121
103
51
153
184
125
156
54
204
218
20
6
146
202
33
36
68
217
92
8
149
197
82
90
81
47
118
65
134
222
167
201
16
224
171
17
230
67
159
62
112
205
59
21
88
211
12
132
181
136
44
165
216
135
34
162
183
48
102
85
229
108
32
41
63
199
40
87
195
27
124
115
173
96
61
7
182
170
77
93
221
186
198
168
58
110
29
79
37
225
172
207
129
23
49
72
84
117
43
220
157
214
140
25
95
66
148
209
227
175
28
76
223
3
89
128
113
139
131
122
228
116
101
141
86
138
185
150
107
120
78
161
192
158
71
177
42
232
155
56
226
50
137
35
98
190
176
105
83
75
114
70
180
208
109
55
18
191
52
100
193
152
11
203
166
169
123
45
10
31
189
164
126
187
69
215
74
15
14
196
147
160
210
97
127
206
154
233
5
91
219
234
212
99
30
9
53
57
174
178
194
145
2
46
179
24
106

> <PUBCHEM_MMFF94_PARTIAL_CHARGES>
31
1 -0.23
10 0.3
11 0.27
14 0.28
15 0.28
16 0.57
17 0.08
19 -0.15
2 -0.68
20 -0.15
21 -0.15
22 -0.15
23 0.29
24 -0.15
25 -0.13
26 0.54
29 0.36
3 -0.36
4 -0.57
41 0.37
42 0.4
43 0.15
44 0.15
45 0.15
48 0.15
49 0.27
5 -0.9
6 -0.73
7 0.03
8 -0.56
9 0.27

> <PUBCHEM_EFFECTIVE_ROTOR_COUNT>
10

> <PUBCHEM_PHARMACOPHORE_FEATURES>
14
1 1 hydrophobe
1 2 acceptor
1 2 donor
1 3 acceptor
1 4 acceptor
1 5 cation
1 5 donor
1 6 donor
1 7 cation
1 7 donor
1 8 acceptor
3 9 12 13 hydrophobe
5 7 18 19 24 25 rings
6 17 18 19 20 21 22 rings

> <PUBCHEM_HEAVY_ATOM_COUNT>
26

> <PUBCHEM_ATOM_DEF_STEREO_COUNT>
0

> <PUBCHEM_ATOM_UDEF_STEREO_COUNT>
1

> <PUBCHEM_BOND_DEF_STEREO_COUNT>
0

> <PUBCHEM_BOND_UDEF_STEREO_COUNT>
0

> <PUBCHEM_ISOTOPIC_ATOM_COUNT>
0

> <PUBCHEM_COMPONENT_COUNT>
1

> <PUBCHEM_CACTVS_TAUTO_COUNT>
2

> <PUBCHEM_CONFORMER_ID>
0001E94400000001

> <PUBCHEM_MMFF94_ENERGY>
49.2953

> <PUBCHEM_FEATURE_SELFOVERLAP>
71.142

> <PUBCHEM_SHAPE_FINGERPRINT>
10928967 22 9655009983988870141
11135609 127 18120925111142913269
11135609 187 18340765954014755985
117089 54 9583512157455104805
12107183 9 18335692803296155162
12403259 118 17749964357153897627
12422481 6 17096089082987955501
12592606 108 9151165447267146345
13103583 49 16081369712992224810
14123256 34 9367344838386188649
14251740 57 9366760976505736375
14251764 30 9655573011383175365
14420673 8 9151173160690864753
14931854 50 17775571914097858784
15003188 8 18259706700554067870
15238133 3 18188779474075433940
20511986 3 18335975415636741243
20715895 44 18188493458922632789
21033648 29 18259990361764110110
21298829 104 18409167684342797837
21304303 282 18269548502213240367
22950370 63 10015579506691095367
23569914 2 16841876660492786808
2748736 6 18409725145327716097
2838139 119 18411978048794749295
44880168 125 12540689362214941432
465052 167 8358247159842412937
54039377 194 8718834210681492672
56633871 153 11314318260606323225
57307002 19 18408034117866766269
6327066 14 18412823607601476610
7970288 3 9583515408697556869
9981440 41 18337117872733188234
999808 66 8358261457730928033

> <PUBCHEM_SHAPE_MULTIPOLES>
503.48
18.26
3.92
1.47
2.16
1.84
-0.29
-23.43
2.64
1.96
0.08
-0.5
-0.36
1.83

> <PUBCHEM_SHAPE_SELFOVERLAP>
1032.635

> <PUBCHEM_SHAPE_VOLUME>
296

> <PUBCHEM_COORDINATE_TYPE>
2
5
10

$$$$
