125273
  -OEChem-03292013323D

 44 47  0     1  0  0  0  0  0999 V2000
   -2.7806   -0.6029   -0.3700 O   0  0  0  0  0  0  0  0  0  0  0  0
   -1.9739    1.5863   -0.4471 O   0  0  0  0  0  0  0  0  0  0  0  0
   -6.3585    0.6928    1.2572 O   0  0  0  0  0  0  0  0  0  0  0  0
   -5.5754   -1.0180   -0.7895 O   0  0  0  0  0  0  0  0  0  0  0  0
   -4.0094    2.3765    1.3696 O   0  0  0  0  0  0  0  0  0  0  0  0
   -2.0359   -3.2385   -0.5662 O   0  0  0  0  0  0  0  0  0  0  0  0
    2.4011    0.4449    1.0058 O   0  0  0  0  0  0  0  0  0  0  0  0
    6.8015   -0.7080    2.2616 O   0  0  0  0  0  0  0  0  0  0  0  0
    3.2697    0.2004   -1.7198 N   0  0  0  0  0  0  0  0  0  0  0  0
   -5.0238    0.1946    1.2282 C   0  0  1  0  0  0  0  0  0  0  0  0
   -4.9796   -1.1506    0.5026 C   0  0  2  0  0  0  0  0  0  0  0  0
   -4.1198    1.2184    0.5423 C   0  0  2  0  0  0  0  0  0  0  0  0
   -3.5246   -1.6028    0.3374 C   0  0  1  0  0  0  0  0  0  0  0  0
   -2.7188    0.6431    0.3228 C   0  0  1  0  0  0  0  0  0  0  0  0
   -3.4068   -2.9012   -0.4522 C   0  0  0  0  0  0  0  0  0  0  0  0
   -0.6842    1.2462   -0.7501 C   0  0  0  0  0  0  0  0  0  0  0  0
    0.2268    1.0123    0.2735 C   0  0  0  0  0  0  0  0  0  0  0  0
   -0.2934    1.1362   -2.0801 C   0  0  0  0  0  0  0  0  0  0  0  0
    1.5410    0.6647   -0.0433 C   0  0  0  0  0  0  0  0  0  0  0  0
    1.9532    0.5489   -1.3761 C   0  0  0  0  0  0  0  0  0  0  0  0
    1.0225    0.7884   -2.3923 C   0  0  0  0  0  0  0  0  0  0  0  0
    3.7056    0.0994    0.6903 C   0  0  0  0  0  0  0  0  0  0  0  0
    4.0957   -0.0116   -0.7417 C   0  0  0  0  0  0  0  0  0  0  0  0
    4.5948   -0.1288    1.6615 C   0  0  0  0  0  0  0  0  0  0  0  0
    5.4997   -0.3831   -1.0325 C   0  0  0  0  0  0  0  0  0  0  0  0
    5.9933   -0.4987    1.3638 C   0  0  0  0  0  0  0  0  0  0  0  0
    6.3799   -0.6091   -0.0558 C   0  0  0  0  0  0  0  0  0  0  0  0
   -4.7105    0.0605    2.2712 H   0  0  0  0  0  0  0  0  0  0  0  0
   -5.5686   -1.8948    1.0491 H   0  0  0  0  0  0  0  0  0  0  0  0
   -4.5638    1.5493   -0.4043 H   0  0  0  0  0  0  0  0  0  0  0  0
   -3.0507   -1.7426    1.3179 H   0  0  0  0  0  0  0  0  0  0  0  0
   -2.2300    0.5026    1.2958 H   0  0  0  0  0  0  0  0  0  0  0  0
   -3.8030   -2.8018   -1.4677 H   0  0  0  0  0  0  0  0  0  0  0  0
   -3.9280   -3.7207    0.0512 H   0  0  0  0  0  0  0  0  0  0  0  0
   -6.3384    1.5540    1.7085 H   0  0  0  0  0  0  0  0  0  0  0  0
   -4.9864   -0.4790   -1.3438 H   0  0  0  0  0  0  0  0  0  0  0  0
   -3.4096    2.9975    0.9220 H   0  0  0  0  0  0  0  0  0  0  0  0
   -1.5856   -2.4962   -1.0046 H   0  0  0  0  0  0  0  0  0  0  0  0
   -0.0636    1.1131    1.3155 H   0  0  0  0  0  0  0  0  0  0  0  0
   -1.0057    1.3181   -2.8801 H   0  0  0  0  0  0  0  0  0  0  0  0
    1.3167    0.7049   -3.4357 H   0  0  0  0  0  0  0  0  0  0  0  0
    4.3161   -0.0493    2.7071 H   0  0  0  0  0  0  0  0  0  0  0  0
    5.7953   -0.4672   -2.0728 H   0  0  0  0  0  0  0  0  0  0  0  0
    7.4052   -0.8806   -0.2803 H   0  0  0  0  0  0  0  0  0  0  0  0
  1 13  1  0  0  0  0
  1 14  1  0  0  0  0
  2 14  1  0  0  0  0
  2 16  1  0  0  0  0
  3 10  1  0  0  0  0
  3 35  1  0  0  0  0
  4 11  1  0  0  0  0
  4 36  1  0  0  0  0
  5 12  1  0  0  0  0
  5 37  1  0  0  0  0
  6 15  1  0  0  0  0
  6 38  1  0  0  0  0
  7 19  1  0  0  0  0
  7 22  1  0  0  0  0
  8 26  2  0  0  0  0
  9 20  1  0  0  0  0
  9 23  2  0  0  0  0
 10 11  1  0  0  0  0
 10 12  1  0  0  0  0
 10 28  1  0  0  0  0
 11 13  1  0  0  0  0
 11 29  1  0  0  0  0
 12 14  1  0  0  0  0
 12 30  1  0  0  0  0
 13 15  1  0  0  0  0
 13 31  1  0  0  0  0
 14 32  1  0  0  0  0
 15 33  1  0  0  0  0
 15 34  1  0  0  0  0
 16 17  2  0  0  0  0
 16 18  1  0  0  0  0
 17 19  1  0  0  0  0
 17 39  1  0  0  0  0
 18 21  2  0  0  0  0
 18 40  1  0  0  0  0
 19 20  2  0  0  0  0
 20 21  1  0  0  0  0
 21 41  1  0  0  0  0
 22 23  1  0  0  0  0
 22 24  2  0  0  0  0
 23 25  1  0  0  0  0
 24 26  1  0  0  0  0
 24 42  1  0  0  0  0
 25 27  2  0  0  0  0
 25 43  1  0  0  0  0
 26 27  1  0  0  0  0
 27 44  1  0  0  0  0
M  END
> <PUBCHEM_COMPOUND_CID>
125273

> <PUBCHEM_CONFORMER_RMSD>
0.8

> <PUBCHEM_CONFORMER_DIVERSEORDER>
1
53
27
34
25
20
24
38
36
13
35
54
39
48
31
14
21
50
45
51
29
16
30
18
32
46
40
5
4
33
3
7
41
22
23
49
6
10
42
15
26
19
43
28
2
17
37
47
9
52
12
44
8
11

> <PUBCHEM_MMFF94_PARTIAL_CHARGES>
37
1 -0.56
10 0.28
11 0.28
12 0.28
13 0.28
14 0.56
15 0.28
16 0.08
17 -0.15
18 -0.15
19 0.08
2 -0.36
20 0.18
21 -0.15
22 0.09
23 0.42
24 -0.14
25 -0.14
26 0.54
27 -0.14
3 -0.68
35 0.4
36 0.4
37 0.4
38 0.4
39 0.15
4 -0.68
40 0.15
41 0.15
42 0.15
43 0.15
44 0.15
5 -0.68
6 -0.68
7 -0.16
8 -0.57
9 -0.63

> <PUBCHEM_EFFECTIVE_ROTOR_COUNT>
4.2

> <PUBCHEM_PHARMACOPHORE_FEATURES>
17
1 1 acceptor
1 2 acceptor
1 3 acceptor
1 3 donor
1 4 acceptor
1 4 donor
1 5 acceptor
1 5 donor
1 6 acceptor
1 6 donor
1 7 acceptor
1 8 acceptor
1 9 acceptor
6 1 10 11 12 13 14 rings
6 16 17 18 19 20 21 rings
6 22 23 24 25 26 27 rings
6 7 9 19 20 22 23 rings

> <PUBCHEM_HEAVY_ATOM_COUNT>
27

> <PUBCHEM_ATOM_DEF_STEREO_COUNT>
5

> <PUBCHEM_ATOM_UDEF_STEREO_COUNT>
0

> <PUBCHEM_BOND_DEF_STEREO_COUNT>
0

> <PUBCHEM_BOND_UDEF_STEREO_COUNT>
0

> <PUBCHEM_ISOTOPIC_ATOM_COUNT>
0

> <PUBCHEM_COMPONENT_COUNT>
1

> <PUBCHEM_CACTVS_TAUTO_COUNT>
1

> <PUBCHEM_CONFORMER_ID>
0001E95900000001

> <PUBCHEM_MMFF94_ENERGY>
84.0354

> <PUBCHEM_FEATURE_SELFOVERLAP>
86.42

> <PUBCHEM_SHAPE_FINGERPRINT>
10 15 17060050459110237200
10319926 262 18059862769829733501
10447042 23 16153426143462981448
10622 236 17899694849850236783
11045977 3 17775288270093539136
11089746 13 11311766268622374146
11524674 6 17846495920211071535
11828532 37 17985262130959204987
12236239 1 17894639157582135757
12422481 6 18335699378363570406
12553582 1 17240478143320874324
12633257 1 18272093824385907137
13583140 156 18128799898703355356
13862211 1 16660364753882961864
14840074 17 17894349977608279706
15183329 4 12396290448984100212
15188451 53 18272083950757312263
15320294 125 18187366536792974975
15326921 28 18049719616699525393
15348495 7 17917988412679934450
15537594 2 17967532371972844586
16988056 13 9283008972474559203
17349148 13 17385447600908849904
17780758 139 18412258458819835977
17857418 61 17967531276940377752
17913733 40 15985109604405011718
1813 80 17530973466297138206
18222031 100 17022896861627876044
19784866 140 15863785097586771148
200 152 16660362567544193572
20028762 73 17385437692751920178
20554085 129 18129096711604476881
21033648 29 17132124511173114985
21267235 1 16660652817207609616
22061861 79 15068339021084037370
22393880 68 13479134622448659336
23198884 109 13767919105637661743
23402539 116 16805319959994060428
23522609 53 17388569071465919180
23536364 44 14707473781382946422
23559900 14 17701847451794509989
2838139 119 11167939147944840754
3004659 81 14923942345426293216
312425 54 18130791131209044474
314194 84 17022625260764992512
3383291 50 18270965752012466747
339767 52 18259701224576702007
351380 3 17676488354223835346
397830 11 18059567049079615648
4340502 62 17988926639699175094
465052 167 17312830368300284690
5104073 3 18269287922752662281
5364581 5 17773864479945695416
5385378 56 18125741006564023771
559249 180 18040431075779688757
602551 16 18341897415418495078
7808743 9 8718288813916661599
7970288 3 17167863084008252162
9953998 17 18341322358368809808

> <PUBCHEM_SHAPE_MULTIPOLES>
503.71
16.26
2.05
1.86
7.38
0.93
0.02
6.77
-6.3
-2.17
0.77
0.51
-0.11
-2.84

> <PUBCHEM_SHAPE_SELFOVERLAP>
1102.775

> <PUBCHEM_SHAPE_VOLUME>
267.5

> <PUBCHEM_COORDINATE_TYPE>
2
5
10

$$$$
