125360
  -OEChem-03292013323D

 56 56  0     1  0  0  0  0  0999 V2000
   -1.4293    1.6133    0.1514 O   0  0  0  0  0  0  0  0  0  0  0  0
    1.2331    1.2644   -1.8141 O   0  0  0  0  0  0  0  0  0  0  0  0
   -1.1640    3.8455    0.1078 O   0  0  0  0  0  0  0  0  0  0  0  0
   -3.2541   -3.7786    0.2853 O   0  0  0  0  0  0  0  0  0  0  0  0
    4.8974    1.5484    1.1929 O   0  0  0  0  0  0  0  0  0  0  0  0
    6.3956   -0.1001    1.6244 O   0  0  0  0  0  0  0  0  0  0  0  0
    0.5170    0.0713    0.2004 C   0  0  1  0  0  0  0  0  0  0  0  0
    1.3319    1.2228   -0.3927 C   0  0  2  0  0  0  0  0  0  0  0  0
   -0.9601    0.2772   -0.1625 C   0  0  1  0  0  0  0  0  0  0  0  0
    1.0521   -1.2850   -0.2715 C   0  0  0  0  0  0  0  0  0  0  0  0
    0.8324    2.5432    0.1599 C   0  0  0  0  0  0  0  0  0  0  0  0
   -0.6613    2.7237    0.0996 C   0  0  0  0  0  0  0  0  0  0  0  0
   -1.8812   -0.6692    0.5444 C   0  0  0  0  0  0  0  0  0  0  0  0
    2.4905   -1.5805    0.0337 C   0  0  0  0  0  0  0  0  0  0  0  0
   -2.7171   -1.5079   -0.0853 C   0  0  0  0  0  0  0  0  0  0  0  0
    3.4654   -1.8792   -0.8384 C   0  0  0  0  0  0  0  0  0  0  0  0
   -3.6472   -2.4494    0.6278 C   0  0  1  0  0  0  0  0  0  0  0  0
    4.8861   -2.1502   -0.4365 C   0  0  0  0  0  0  0  0  0  0  0  0
   -5.1110   -2.2457    0.2132 C   0  0  0  0  0  0  0  0  0  0  0  0
    5.8985   -1.1773   -1.0566 C   0  0  0  0  0  0  0  0  0  0  0  0
    5.6720    0.2869   -0.6682 C   0  0  0  0  0  0  0  0  0  0  0  0
   -5.6045   -0.8568    0.4994 C   0  0  0  0  0  0  0  0  0  0  0  0
   -6.0446   -0.0137   -0.4462 C   0  0  0  0  0  0  0  0  0  0  0  0
    5.7266    0.5377    0.8231 C   0  0  0  0  0  0  0  0  0  0  0  0
   -6.5310    1.3761   -0.1625 C   0  0  0  0  0  0  0  0  0  0  0  0
   -5.3933    2.3831   -0.2288 C   0  0  0  0  0  0  0  0  0  0  0  0
    0.6240    0.1236    1.2941 H   0  0  0  0  0  0  0  0  0  0  0  0
    2.3935    1.1321   -0.1420 H   0  0  0  0  0  0  0  0  0  0  0  0
   -1.0905    0.1670   -1.2471 H   0  0  0  0  0  0  0  0  0  0  0  0
    0.4677   -2.0819    0.2063 H   0  0  0  0  0  0  0  0  0  0  0  0
    0.8739   -1.4010   -1.3485 H   0  0  0  0  0  0  0  0  0  0  0  0
    1.1224    2.6420    1.2123 H   0  0  0  0  0  0  0  0  0  0  0  0
    1.2837    3.3675   -0.4053 H   0  0  0  0  0  0  0  0  0  0  0  0
   -1.8689   -0.6482    1.6317 H   0  0  0  0  0  0  0  0  0  0  0  0
    2.7475   -1.5415    1.0912 H   0  0  0  0  0  0  0  0  0  0  0  0
    1.7126    0.4965   -2.1673 H   0  0  0  0  0  0  0  0  0  0  0  0
   -2.7309   -1.5287   -1.1727 H   0  0  0  0  0  0  0  0  0  0  0  0
    3.2323   -1.9288   -1.8988 H   0  0  0  0  0  0  0  0  0  0  0  0
   -3.5506   -2.3528    1.7154 H   0  0  0  0  0  0  0  0  0  0  0  0
    4.9893   -2.1565    0.6546 H   0  0  0  0  0  0  0  0  0  0  0  0
    5.1388   -3.1654   -0.7670 H   0  0  0  0  0  0  0  0  0  0  0  0
   -5.2384   -2.4972   -0.8484 H   0  0  0  0  0  0  0  0  0  0  0  0
   -5.7391   -2.9642    0.7551 H   0  0  0  0  0  0  0  0  0  0  0  0
    5.8667   -1.2614   -2.1500 H   0  0  0  0  0  0  0  0  0  0  0  0
    6.9055   -1.4825   -0.7463 H   0  0  0  0  0  0  0  0  0  0  0  0
    6.4420    0.9130   -1.1326 H   0  0  0  0  0  0  0  0  0  0  0  0
    4.7027    0.6230   -1.0524 H   0  0  0  0  0  0  0  0  0  0  0  0
   -5.6063   -0.5403    1.5395 H   0  0  0  0  0  0  0  0  0  0  0  0
   -3.3882   -3.8997   -0.6705 H   0  0  0  0  0  0  0  0  0  0  0  0
   -6.0358   -0.3247   -1.4878 H   0  0  0  0  0  0  0  0  0  0  0  0
   -7.3082    1.6389   -0.8890 H   0  0  0  0  0  0  0  0  0  0  0  0
   -6.9997    1.4219    0.8279 H   0  0  0  0  0  0  0  0  0  0  0  0
   -4.9186    2.3804   -1.2161 H   0  0  0  0  0  0  0  0  0  0  0  0
   -5.7712    3.3927   -0.0384 H   0  0  0  0  0  0  0  0  0  0  0  0
   -4.6234    2.1646    0.5192 H   0  0  0  0  0  0  0  0  0  0  0  0
    4.9143    1.6991    2.1621 H   0  0  0  0  0  0  0  0  0  0  0  0
  1  9  1  0  0  0  0
  1 12  1  0  0  0  0
  2  8  1  0  0  0  0
  2 36  1  0  0  0  0
  3 12  2  0  0  0  0
  4 17  1  0  0  0  0
  4 49  1  0  0  0  0
  5 24  1  0  0  0  0
  5 56  1  0  0  0  0
  6 24  2  0  0  0  0
  7  8  1  0  0  0  0
  7  9  1  0  0  0  0
  7 10  1  0  0  0  0
  7 27  1  0  0  0  0
  8 11  1  0  0  0  0
  8 28  1  0  0  0  0
  9 13  1  0  0  0  0
  9 29  1  0  0  0  0
 10 14  1  0  0  0  0
 10 30  1  0  0  0  0
 10 31  1  0  0  0  0
 11 12  1  0  0  0  0
 11 32  1  0  0  0  0
 11 33  1  0  0  0  0
 13 15  2  3  0  0  0
 13 34  1  0  0  0  0
 14 16  2  3  0  0  0
 14 35  1  0  0  0  0
 15 17  1  0  0  0  0
 15 37  1  0  0  0  0
 16 18  1  0  0  0  0
 16 38  1  0  0  0  0
 17 19  1  0  0  0  0
 17 39  1  0  0  0  0
 18 20  1  0  0  0  0
 18 40  1  0  0  0  0
 18 41  1  0  0  0  0
 19 22  1  0  0  0  0
 19 42  1  0  0  0  0
 19 43  1  0  0  0  0
 20 21  1  0  0  0  0
 20 44  1  0  0  0  0
 20 45  1  0  0  0  0
 21 24  1  0  0  0  0
 21 46  1  0  0  0  0
 21 47  1  0  0  0  0
 22 23  2  3  0  0  0
 22 48  1  0  0  0  0
 23 25  1  0  0  0  0
 23 50  1  0  0  0  0
 25 26  1  0  0  0  0
 25 51  1  0  0  0  0
 25 52  1  0  0  0  0
 26 53  1  0  0  0  0
 26 54  1  0  0  0  0
 26 55  1  0  0  0  0
M  END
> <PUBCHEM_COMPOUND_CID>
125360

> <PUBCHEM_CONFORMER_RMSD>
1

> <PUBCHEM_CONFORMER_DIVERSEORDER>
1
126
102
118
67
130
147
95
39
87
110
62
28
129
64
98
12
45
91
117
80
120
24
27
94
52
53
16
34
17
19
97
88
85
47
132
119
145
141
54
112
22
68
100
148
76
25
109
116
77
137
41
69
93
146
36
90
73
139
66
140
115
37
65
50
133
59
103
23
44
40
142
55
46
15
48
56
61
122
113
82
75
86
29
143
114
78
20
105
42
136
89
38
101
58
30
111
81
35
106
79
43
125
96
83
8
60
84
18
31
107
72
4
135
21
149
92
49
144
2
3
104
11
128
74
131
32
99
123
51
70
14
10
63
108
71
134
124
13
6
57
138
5
9
26
127
121
7
33

> <PUBCHEM_MMFF94_PARTIAL_CHARGES>
32
1 -0.43
10 0.14
11 0.06
12 0.66
13 -0.29
14 -0.29
15 -0.29
16 -0.29
17 0.42
18 0.14
19 0.14
2 -0.68
21 0.06
22 -0.29
23 -0.29
24 0.66
25 0.14
3 -0.57
34 0.15
35 0.15
36 0.4
37 0.15
38 0.15
4 -0.68
48 0.15
49 0.4
5 -0.65
50 0.15
56 0.5
6 -0.57
8 0.28
9 0.42

> <PUBCHEM_EFFECTIVE_ROTOR_COUNT>
12

> <PUBCHEM_PHARMACOPHORE_FEATURES>
11
1 2 acceptor
1 2 donor
1 26 hydrophobe
1 3 acceptor
1 4 acceptor
1 4 donor
1 5 acceptor
1 6 acceptor
3 5 6 24 anion
4 16 18 20 21 hydrophobe
6 1 7 8 9 11 12 rings

> <PUBCHEM_HEAVY_ATOM_COUNT>
26

> <PUBCHEM_ATOM_DEF_STEREO_COUNT>
3

> <PUBCHEM_ATOM_UDEF_STEREO_COUNT>
0

> <PUBCHEM_BOND_DEF_STEREO_COUNT>
0

> <PUBCHEM_BOND_UDEF_STEREO_COUNT>
3

> <PUBCHEM_ISOTOPIC_ATOM_COUNT>
0

> <PUBCHEM_COMPONENT_COUNT>
1

> <PUBCHEM_CACTVS_TAUTO_COUNT>
1

> <PUBCHEM_CONFORMER_ID>
0001E9B000000001

> <PUBCHEM_MMFF94_ENERGY>
29.2301

> <PUBCHEM_FEATURE_SELFOVERLAP>
55.881

> <PUBCHEM_SHAPE_FINGERPRINT>
10864689 126 18412550890543955598
10906281 52 18270136612368846031
11135609 187 17898870194944511548
12516196 113 18412546534987726615
12788726 201 18262520265153229283
14840074 17 17846216691528416238
15021287 119 17313396625615985685
15183329 4 17675925404323434727
16087824 20 18193563273233184997
17492 89 18051134984891437667
17980427 23 17274840038458698921
18608769 82 18342177787384955198
23559900 14 18341609356568013337
3004659 81 18041286547170657558
335352 9 18410014313381651199
5104073 3 18200308811265208402
5283173 99 18261955150494007997
59755656 215 18410291402289540478
6328613 192 18408047299315829629
9995097 60 18412825798071584463

> <PUBCHEM_SHAPE_MULTIPOLES>
499.85
16.84
3.76
1.01
2.01
0.7
-0.01
-3.05
0.93
-3.36
0.16
1.29
0.07
1.61

> <PUBCHEM_SHAPE_SELFOVERLAP>
985.017

> <PUBCHEM_SHAPE_VOLUME>
294.8

> <PUBCHEM_COORDINATE_TYPE>
2
5
10

$$$$
