125392
  -OEChem-03292013323D

 45 48  0     1  0  0  0  0  0999 V2000
   -4.2327    0.7295   -0.8599 O   0  0  0  0  0  0  0  0  0  0  0  0
   -6.1883   -1.3097    0.3841 O   0  0  0  0  0  0  0  0  0  0  0  0
   -5.4297    3.2529   -0.7356 O   0  0  0  0  0  0  0  0  0  0  0  0
    2.5306    0.0299   -0.0815 O   0  0  0  0  0  0  0  0  0  0  0  0
   -2.0790    0.0595   -0.1250 N   0  0  0  0  0  0  0  0  0  0  0  0
   -0.2387    1.3213   -0.0428 N   0  0  0  0  0  0  0  0  0  0  0  0
   -1.0625   -2.1451   -0.2285 N   0  0  0  0  0  0  0  0  0  0  0  0
    1.3737   -2.0039   -0.1973 N   0  0  0  0  0  0  0  0  0  0  0  0
    0.2696   -4.0667   -0.3147 N   0  0  0  0  0  0  0  0  0  0  0  0
   -3.4954   -0.2859   -0.1574 C   0  0  1  0  0  0  0  0  0  0  0  0
   -5.5871   -0.1261    0.9045 C   0  0  1  0  0  0  0  0  0  0  0  0
   -4.1380   -0.4232    1.2154 C   0  0  0  0  0  0  0  0  0  0  0  0
   -5.4982    0.9273   -0.1948 C   0  0  1  0  0  0  0  0  0  0  0  0
   -5.5275    2.3484    0.3505 C   0  0  0  0  0  0  0  0  0  0  0  0
   -1.0200   -0.8060   -0.1592 C   0  0  0  0  0  0  0  0  0  0  0  0
   -1.5553    1.3257   -0.0559 C   0  0  0  0  0  0  0  0  0  0  0  0
    0.1093   -0.0047   -0.1069 C   0  0  0  0  0  0  0  0  0  0  0  0
    1.3410   -0.6513   -0.1278 C   0  0  0  0  0  0  0  0  0  0  0  0
    0.1874   -2.6571   -0.2428 C   0  0  0  0  0  0  0  0  0  0  0  0
    3.7169   -0.7537   -0.1098 C   0  0  0  0  0  0  0  0  0  0  0  0
    4.9418    0.0873    0.0232 C   0  0  0  0  0  0  0  0  0  0  0  0
    5.5640    0.5981   -1.1158 C   0  0  0  0  0  0  0  0  0  0  0  0
    5.4650    0.3621    1.2865 C   0  0  0  0  0  0  0  0  0  0  0  0
    6.7097    1.3841   -0.9914 C   0  0  0  0  0  0  0  0  0  0  0  0
    6.6106    1.1481    1.4110 C   0  0  0  0  0  0  0  0  0  0  0  0
    7.2329    1.6591    0.2719 C   0  0  0  0  0  0  0  0  0  0  0  0
   -3.5884   -1.2117   -0.7376 H   0  0  0  0  0  0  0  0  0  0  0  0
   -6.1671    0.1855    1.7770 H   0  0  0  0  0  0  0  0  0  0  0  0
   -3.7416    0.3279    1.9091 H   0  0  0  0  0  0  0  0  0  0  0  0
   -3.9676   -1.4160    1.6432 H   0  0  0  0  0  0  0  0  0  0  0  0
   -6.2792    0.8020   -0.9535 H   0  0  0  0  0  0  0  0  0  0  0  0
   -4.6807    2.5374    1.0181 H   0  0  0  0  0  0  0  0  0  0  0  0
   -6.4615    2.5428    0.8867 H   0  0  0  0  0  0  0  0  0  0  0  0
   -5.7799   -1.5216   -0.4717 H   0  0  0  0  0  0  0  0  0  0  0  0
   -2.1757    2.2105   -0.0124 H   0  0  0  0  0  0  0  0  0  0  0  0
   -5.4516    4.1511   -0.3637 H   0  0  0  0  0  0  0  0  0  0  0  0
    3.7648   -1.3177   -1.0513 H   0  0  0  0  0  0  0  0  0  0  0  0
    3.7024   -1.4888    0.7067 H   0  0  0  0  0  0  0  0  0  0  0  0
   -0.5802   -4.6123   -0.3514 H   0  0  0  0  0  0  0  0  0  0  0  0
    1.1773   -4.5109   -0.3289 H   0  0  0  0  0  0  0  0  0  0  0  0
    5.1648    0.3930   -2.1056 H   0  0  0  0  0  0  0  0  0  0  0  0
    4.9882   -0.0280    2.1818 H   0  0  0  0  0  0  0  0  0  0  0  0
    7.1940    1.7825   -1.8782 H   0  0  0  0  0  0  0  0  0  0  0  0
    7.0177    1.3630    2.3947 H   0  0  0  0  0  0  0  0  0  0  0  0
    8.1246    2.2713    0.3688 H   0  0  0  0  0  0  0  0  0  0  0  0
  1 10  1  0  0  0  0
  1 13  1  0  0  0  0
  2 11  1  0  0  0  0
  2 34  1  0  0  0  0
  3 14  1  0  0  0  0
  3 36  1  0  0  0  0
  4 18  1  0  0  0  0
  4 20  1  0  0  0  0
  5 10  1  0  0  0  0
  5 15  1  0  0  0  0
  5 16  1  0  0  0  0
  6 16  2  0  0  0  0
  6 17  1  0  0  0  0
  7 15  1  0  0  0  0
  7 19  2  0  0  0  0
  8 18  2  0  0  0  0
  8 19  1  0  0  0  0
  9 19  1  0  0  0  0
  9 39  1  0  0  0  0
  9 40  1  0  0  0  0
 10 12  1  0  0  0  0
 10 27  1  0  0  0  0
 11 12  1  0  0  0  0
 11 13  1  0  0  0  0
 11 28  1  0  0  0  0
 12 29  1  0  0  0  0
 12 30  1  0  0  0  0
 13 14  1  0  0  0  0
 13 31  1  0  0  0  0
 14 32  1  0  0  0  0
 14 33  1  0  0  0  0
 15 17  2  0  0  0  0
 16 35  1  0  0  0  0
 17 18  1  0  0  0  0
 20 21  1  0  0  0  0
 20 37  1  0  0  0  0
 20 38  1  0  0  0  0
 21 22  2  0  0  0  0
 21 23  1  0  0  0  0
 22 24  1  0  0  0  0
 22 41  1  0  0  0  0
 23 25  2  0  0  0  0
 23 42  1  0  0  0  0
 24 26  2  0  0  0  0
 24 43  1  0  0  0  0
 25 26  1  0  0  0  0
 25 44  1  0  0  0  0
 26 45  1  0  0  0  0
M  END
> <PUBCHEM_COMPOUND_CID>
125392

> <PUBCHEM_CONFORMER_RMSD>
0.8

> <PUBCHEM_CONFORMER_DIVERSEORDER>
1
200
171
190
204
130
2
227
16
180
35
59
144
39
129
208
154
115
26
114
24
183
216
13
136
40
174
206
25
170
196
195
56
157
72
45
209
128
169
163
98
64
168
122
153
80
61
76
228
198
201
46
108
92
146
120
215
8
149
229
116
71
117
19
207
202
143
29
4
230
62
37
156
194
58
173
66
167
213
159
176
197
186
150
189
139
42
12
106
118
217
222
133
65
91
102
50
38
99
110
226
137
47
192
199
184
78
83
125
155
75
135
31
152
87
90
145
55
193
17
81
96
214
89
142
191
94
211
175
67
60
34
43
7
5
140
177
212
85
95
21
210
52
166
162
124
3
187
49
205
23
28
164
178
20
112
158
10
51
182
121
27
151
14
103
100
148
54
48
97
141
79
181
107
63
127
126
119
224
11
30
165
188
84
203
123
41
93
6
68
104
138
36
218
220
134
86
44
113
161
172
74
69
18
105
111
101
88
9
219
160
132
15
57
225
32
131
185
147
70
22
109
33
53
73
223
221
77
82
179

> <PUBCHEM_MMFF94_PARTIAL_CHARGES>
35
1 -0.56
10 0.54
11 0.28
13 0.28
14 0.28
15 0.11
16 0.04
17 0.23
18 0.39
19 0.72
2 -0.68
20 0.42
21 -0.14
22 -0.15
23 -0.15
24 -0.15
25 -0.15
26 -0.15
3 -0.68
34 0.4
35 0.15
36 0.4
39 0.4
4 -0.36
40 0.4
41 0.15
42 0.15
43 0.15
44 0.15
45 0.15
5 0.05
6 -0.57
7 -0.57
8 -0.62
9 -0.9

> <PUBCHEM_EFFECTIVE_ROTOR_COUNT>
6

> <PUBCHEM_PHARMACOPHORE_FEATURES>
12
1 1 acceptor
1 2 acceptor
1 2 donor
1 3 acceptor
1 3 donor
1 9 donor
3 5 6 16 cation
4 7 8 9 19 cation
5 1 10 11 12 13 rings
5 5 6 15 16 17 rings
6 21 22 23 24 25 26 rings
6 7 8 15 17 18 19 rings

> <PUBCHEM_HEAVY_ATOM_COUNT>
26

> <PUBCHEM_ATOM_DEF_STEREO_COUNT>
3

> <PUBCHEM_ATOM_UDEF_STEREO_COUNT>
0

> <PUBCHEM_BOND_DEF_STEREO_COUNT>
0

> <PUBCHEM_BOND_UDEF_STEREO_COUNT>
0

> <PUBCHEM_ISOTOPIC_ATOM_COUNT>
0

> <PUBCHEM_COMPONENT_COUNT>
1

> <PUBCHEM_CACTVS_TAUTO_COUNT>
3

> <PUBCHEM_CONFORMER_ID>
0001E9D000000001

> <PUBCHEM_MMFF94_ENERGY>
67.8913

> <PUBCHEM_FEATURE_SELFOVERLAP>
61.034

> <PUBCHEM_SHAPE_FINGERPRINT>
10 15 18260269676261598570
10835480 77 18335979754055389949
10906281 52 18188226311519095105
11315181 36 17748828540589522665
12236239 1 17822008727198218904
12390115 104 18059024882014387024
12596602 18 17385721405100506568
13533116 47 17917436381035000414
13631057 29 18059285591694880455
14347332 77 9799427611340511856
14790565 3 18410016571437423740
17980427 23 17603875502687634503
18222031 100 8502653718921862686
20281389 69 18411981369036486856
21130935 74 18260547792637720322
21236236 1 18270679899809693975
221357 26 16487259868320844928
22224240 67 18341614841151988659
23198884 109 15769783463234560490
23559900 14 17905324023188338403
249999 5 18338234843766940818
293599 30 18341895203584255478
3411729 13 18261954038039780946
3663271 9 17530682108701127032
4073 2 18260555489883518867
5104073 3 18189058590845983315
53794403 172 18196932399866758888
5486654 2 18342178885989410054
550186 72 18336827498563290173
5718773 13 8502069852599561961
5758199 1 18272658947993804603
59682541 35 18338526339133832123
59682541 52 16271932558829449956
6669772 16 18131641058288143694
7226269 152 18131635594688322169

> <PUBCHEM_SHAPE_MULTIPOLES>
486.69
19.09
2.83
1
12.62
1.62
-0.18
-13.66
-2.36
-2.25
0.49
0.83
-0.24
0.76

> <PUBCHEM_SHAPE_SELFOVERLAP>
1061.686

> <PUBCHEM_SHAPE_VOLUME>
263.1

> <PUBCHEM_COORDINATE_TYPE>
2
5
10

$$$$
