125343
  -OEChem-03292013323D

 52 52  0     1  0  0  0  0  0999 V2000
    4.6979    0.1923    1.2317 O   0  0  0  0  0  0  0  0  0  0  0  0
    2.8986    2.3006    0.5459 O   0  0  0  0  0  0  0  0  0  0  0  0
    0.1466    0.3221    1.6972 O   0  0  0  0  0  0  0  0  0  0  0  0
    4.7194   -2.5321   -0.8867 O   0  0  0  0  0  0  0  0  0  0  0  0
    5.8839   -2.4265    1.0778 O   0  0  0  0  0  0  0  0  0  0  0  0
   -4.8717   -1.5169   -1.6345 O   0  0  0  0  0  0  0  0  0  0  0  0
    1.6601    0.6168   -0.4819 N   0  0  0  0  0  0  0  0  0  0  0  0
   -1.4646    1.8187    0.9532 N   0  0  0  0  0  0  0  0  0  0  0  0
   -4.8706   -1.4541    0.6945 N   0  0  0  0  0  0  0  0  0  0  0  0
    4.0114    0.3073   -0.0215 C   0  0  1  0  0  0  0  0  0  0  0  0
    0.3862    1.2896   -0.5150 C   0  0  1  0  0  0  0  0  0  0  0  0
   -0.4939    0.8589   -1.7131 C   0  0  1  0  0  0  0  0  0  0  0  0
    4.0437   -0.9850    0.7415 C   0  0  1  0  0  0  0  0  0  0  0  0
    2.8059    1.1849    0.0475 C   0  0  0  0  0  0  0  0  0  0  0  0
    0.1923    1.1203   -3.0723 C   0  0  0  0  0  0  0  0  0  0  0  0
   -0.3056    1.0659    0.8290 C   0  0  0  0  0  0  0  0  0  0  0  0
   -0.9065   -0.6115   -1.5631 C   0  0  0  0  0  0  0  0  0  0  0  0
    4.9800   -2.0445    0.3501 C   0  0  0  0  0  0  0  0  0  0  0  0
    0.6205    2.5692   -3.2672 C   0  0  0  0  0  0  0  0  0  0  0  0
   -2.2892    1.8150    2.1401 C   0  0  0  0  0  0  0  0  0  0  0  0
   -3.3731    0.7425    2.0920 C   0  0  0  0  0  0  0  0  0  0  0  0
   -4.3436    0.9405    0.9213 C   0  0  0  0  0  0  0  0  0  0  0  0
   -5.4210   -0.1381    0.8669 C   0  0  0  0  0  0  0  0  0  0  0  0
   -4.6432   -2.0308   -0.5458 C   0  0  0  0  0  0  0  0  0  0  0  0
   -4.0633   -3.4051   -0.4877 C   0  0  0  0  0  0  0  0  0  0  0  0
    4.6245    0.4157   -0.9079 H   0  0  0  0  0  0  0  0  0  0  0  0
    0.5782    2.3686   -0.5716 H   0  0  0  0  0  0  0  0  0  0  0  0
   -1.4193    1.4493   -1.7033 H   0  0  0  0  0  0  0  0  0  0  0  0
    3.1557   -1.3055    1.2725 H   0  0  0  0  0  0  0  0  0  0  0  0
    1.7131   -0.3385   -0.8221 H   0  0  0  0  0  0  0  0  0  0  0  0
    1.0654    0.4679   -3.1930 H   0  0  0  0  0  0  0  0  0  0  0  0
   -0.5070    0.8535   -3.8745 H   0  0  0  0  0  0  0  0  0  0  0  0
   -1.5707   -0.8982   -2.3864 H   0  0  0  0  0  0  0  0  0  0  0  0
   -1.4566   -0.7922   -0.6346 H   0  0  0  0  0  0  0  0  0  0  0  0
   -0.0471   -1.2879   -1.5924 H   0  0  0  0  0  0  0  0  0  0  0  0
    1.4539    2.8374   -2.6117 H   0  0  0  0  0  0  0  0  0  0  0  0
    0.9562    2.7222   -4.2981 H   0  0  0  0  0  0  0  0  0  0  0  0
   -0.2109    3.2553   -3.0774 H   0  0  0  0  0  0  0  0  0  0  0  0
   -1.7432    2.4347    0.1957 H   0  0  0  0  0  0  0  0  0  0  0  0
   -1.6509    1.6547    3.0157 H   0  0  0  0  0  0  0  0  0  0  0  0
   -2.7380    2.8100    2.2277 H   0  0  0  0  0  0  0  0  0  0  0  0
   -2.8948   -0.2415    2.0185 H   0  0  0  0  0  0  0  0  0  0  0  0
   -3.9324    0.7595    3.0350 H   0  0  0  0  0  0  0  0  0  0  0  0
   -4.8260    1.9211    1.0104 H   0  0  0  0  0  0  0  0  0  0  0  0
   -3.7909    0.9386   -0.0260 H   0  0  0  0  0  0  0  0  0  0  0  0
   -6.0023   -0.1452    1.7950 H   0  0  0  0  0  0  0  0  0  0  0  0
   -6.1088    0.0720    0.0405 H   0  0  0  0  0  0  0  0  0  0  0  0
    5.3487   -3.2401   -1.1420 H   0  0  0  0  0  0  0  0  0  0  0  0
   -4.6315   -1.9760    1.5325 H   0  0  0  0  0  0  0  0  0  0  0  0
   -4.5517   -4.0382   -1.2341 H   0  0  0  0  0  0  0  0  0  0  0  0
   -2.9923   -3.3508   -0.7011 H   0  0  0  0  0  0  0  0  0  0  0  0
   -4.2056   -3.8634    0.4949 H   0  0  0  0  0  0  0  0  0  0  0  0
  1 10  1  0  0  0  0
  1 13  1  0  0  0  0
  2 14  2  0  0  0  0
  3 16  2  0  0  0  0
  4 18  1  0  0  0  0
  4 48  1  0  0  0  0
  5 18  2  0  0  0  0
  6 24  2  0  0  0  0
  7 11  1  0  0  0  0
  7 14  1  0  0  0  0
  7 30  1  0  0  0  0
  8 16  1  0  0  0  0
  8 20  1  0  0  0  0
  8 39  1  0  0  0  0
  9 23  1  0  0  0  0
  9 24  1  0  0  0  0
  9 49  1  0  0  0  0
 10 13  1  0  0  0  0
 10 14  1  0  0  0  0
 10 26  1  0  0  0  0
 11 12  1  0  0  0  0
 11 16  1  0  0  0  0
 11 27  1  0  0  0  0
 12 15  1  0  0  0  0
 12 17  1  0  0  0  0
 12 28  1  0  0  0  0
 13 18  1  0  0  0  0
 13 29  1  0  0  0  0
 15 19  1  0  0  0  0
 15 31  1  0  0  0  0
 15 32  1  0  0  0  0
 17 33  1  0  0  0  0
 17 34  1  0  0  0  0
 17 35  1  0  0  0  0
 19 36  1  0  0  0  0
 19 37  1  0  0  0  0
 19 38  1  0  0  0  0
 20 21  1  0  0  0  0
 20 40  1  0  0  0  0
 20 41  1  0  0  0  0
 21 22  1  0  0  0  0
 21 42  1  0  0  0  0
 21 43  1  0  0  0  0
 22 23  1  0  0  0  0
 22 44  1  0  0  0  0
 22 45  1  0  0  0  0
 23 46  1  0  0  0  0
 23 47  1  0  0  0  0
 24 25  1  0  0  0  0
 25 50  1  0  0  0  0
 25 51  1  0  0  0  0
 25 52  1  0  0  0  0
M  END
> <PUBCHEM_COMPOUND_CID>
125343

> <PUBCHEM_CONFORMER_RMSD>
1.2

> <PUBCHEM_CONFORMER_DIVERSEORDER>
1
20
27
48
45
31
64
50
2
26
12
39
61
59
18
54
66
9
72
14
60
8
69
13
24
62
37
58
44
4
43
34
67
17
65
35
29
11
6
16
32
28
19
73
3
7
23
25
74
41
33
56
53
68
30
49
22
46
71
10
47
21
55
63
36
40
38
51
15
57
5
52
70
42

> <PUBCHEM_MMFF94_PARTIAL_CHARGES>
25
1 -0.3
10 0.05
11 0.36
13 0.05
14 0.63
16 0.57
18 0.72
2 -0.57
20 0.3
23 0.3
24 0.57
25 0.06
26 0.1
29 0.1
3 -0.57
30 0.37
39 0.37
4 -0.65
48 0.5
49 0.37
5 -0.57
6 -0.57
7 -0.73
8 -0.73
9 -0.73

> <PUBCHEM_EFFECTIVE_ROTOR_COUNT>
14.6

> <PUBCHEM_PHARMACOPHORE_FEATURES>
12
1 1 acceptor
1 17 hydrophobe
1 19 hydrophobe
1 2 acceptor
1 3 acceptor
1 4 acceptor
1 5 acceptor
1 6 acceptor
1 7 donor
1 8 donor
1 9 donor
3 4 5 18 anion

> <PUBCHEM_HEAVY_ATOM_COUNT>
25

> <PUBCHEM_ATOM_DEF_STEREO_COUNT>
3

> <PUBCHEM_ATOM_UDEF_STEREO_COUNT>
1

> <PUBCHEM_BOND_DEF_STEREO_COUNT>
0

> <PUBCHEM_BOND_UDEF_STEREO_COUNT>
0

> <PUBCHEM_ISOTOPIC_ATOM_COUNT>
0

> <PUBCHEM_COMPONENT_COUNT>
1

> <PUBCHEM_CACTVS_TAUTO_COUNT>
8

> <PUBCHEM_CONFORMER_ID>
0001E99F00000001

> <PUBCHEM_MMFF94_ENERGY>
26.0074

> <PUBCHEM_FEATURE_SELFOVERLAP>
60.958

> <PUBCHEM_SHAPE_FINGERPRINT>
10074138 170 15768906070077553495
10692045 39 13397787113666434974
12422481 6 16271933692030870581
12467345 10 18272371949314786795
12839892 36 17561368357272049823
13583140 156 17773864333800710408
13726171 33 10809611590203815775
14251739 40 18261959668704904573
16728300 4 18272926125146394951
17357779 13 16732703848060839845
17959699 21 10737292350556524050
1813 80 17894352189341994046
18222031 100 17386018251548897888
21401589 2 13038605337599046498
22907989 373 15430602723637916886
23559900 14 16986905383178911877
2838139 119 9439411250129287830
57100710 210 18343023285440324041
7970288 3 18124317100019772618

> <PUBCHEM_SHAPE_MULTIPOLES>
464.33
12.58
3.14
2.62
1.87
1.65
1.41
11.89
-3.48
0.61
1.36
-1.25
-1.86
-2.32

> <PUBCHEM_SHAPE_SELFOVERLAP>
911.251

> <PUBCHEM_SHAPE_VOLUME>
277.4

> <PUBCHEM_COORDINATE_TYPE>
2
5
10

$$$$
