125336
  -OEChem-03292013323D

 37 39  0     0  0  0  0  0  0999 V2000
   -6.9788    0.1271   -1.2114 O   0  0  0  0  0  0  0  0  0  0  0  0
   -7.8427   -1.4882    0.9708 O   0  0  0  0  0  0  0  0  0  0  0  0
   -0.7230    0.4447    0.2346 N   0  0  0  0  0  0  0  0  0  0  0  0
    2.2509   -0.3203   -0.6337 N   0  0  0  0  0  0  0  0  0  0  0  0
    3.4528    1.9473    0.4015 N   0  0  0  0  0  0  0  0  0  0  0  0
    5.4575    0.8075    0.6103 N   0  0  0  0  0  0  0  0  0  0  0  0
    5.6433   -1.4912   -0.0469 N   0  0  0  0  0  0  0  0  0  0  0  0
    3.7559   -2.6124   -0.9203 N   0  0  0  0  0  0  0  0  0  0  0  0
    7.4907   -0.3454    0.8229 N   0  0  0  0  0  0  0  0  0  0  0  0
    0.1282    0.8270   -0.8729 C   0  0  0  0  0  0  0  0  0  0  0  0
    1.5614    0.8200   -0.4747 C   0  0  0  0  0  0  0  0  0  0  0  0
   -2.0971    0.3205    0.1356 C   0  0  0  0  0  0  0  0  0  0  0  0
    3.5474   -0.3118   -0.2687 C   0  0  0  0  0  0  0  0  0  0  0  0
    4.1671    0.8249    0.2549 C   0  0  0  0  0  0  0  0  0  0  0  0
    2.1560    1.9406    0.0370 C   0  0  0  0  0  0  0  0  0  0  0  0
   -2.8731   -0.0552    1.2496 C   0  0  0  0  0  0  0  0  0  0  0  0
   -2.7606    0.5646   -1.0827 C   0  0  0  0  0  0  0  0  0  0  0  0
   -4.8950    0.0646   -0.0673 C   0  0  0  0  0  0  0  0  0  0  0  0
    4.3443   -1.4338   -0.3923 C   0  0  0  0  0  0  0  0  0  0  0  0
   -4.2587   -0.1820    1.1491 C   0  0  0  0  0  0  0  0  0  0  0  0
   -4.1460    0.4380   -1.1833 C   0  0  0  0  0  0  0  0  0  0  0  0
    6.1312   -0.3460    0.4428 C   0  0  0  0  0  0  0  0  0  0  0  0
   -6.3395   -0.0686   -0.1725 C   0  0  0  0  0  0  0  0  0  0  0  0
   -7.1723   -0.4720    1.0178 C   0  0  0  0  0  0  0  0  0  0  0  0
   -0.1447    1.8229   -1.2439 H   0  0  0  0  0  0  0  0  0  0  0  0
    0.0014    0.1236   -1.7058 H   0  0  0  0  0  0  0  0  0  0  0  0
   -0.2999    0.2639    1.1388 H   0  0  0  0  0  0  0  0  0  0  0  0
    1.6253    2.8744    0.1784 H   0  0  0  0  0  0  0  0  0  0  0  0
   -2.3927   -0.2526    2.2056 H   0  0  0  0  0  0  0  0  0  0  0  0
   -2.2181    0.8587   -1.9773 H   0  0  0  0  0  0  0  0  0  0  0  0
   -4.8080   -0.4785    2.0377 H   0  0  0  0  0  0  0  0  0  0  0  0
   -4.6222    0.6350   -2.1403 H   0  0  0  0  0  0  0  0  0  0  0  0
    4.3545   -3.4235   -1.0136 H   0  0  0  0  0  0  0  0  0  0  0  0
    2.9738   -2.5139   -1.5560 H   0  0  0  0  0  0  0  0  0  0  0  0
    8.0374   -1.1885    0.7150 H   0  0  0  0  0  0  0  0  0  0  0  0
    7.9016    0.4985    1.1975 H   0  0  0  0  0  0  0  0  0  0  0  0
   -7.1345    0.2206    1.8734 H   0  0  0  0  0  0  0  0  0  0  0  0
  1 23  2  0  0  0  0
  2 24  2  0  0  0  0
  3 10  1  0  0  0  0
  3 12  1  0  0  0  0
  3 27  1  0  0  0  0
  4 11  1  0  0  0  0
  4 13  2  0  0  0  0
  5 14  2  0  0  0  0
  5 15  1  0  0  0  0
  6 14  1  0  0  0  0
  6 22  2  0  0  0  0
  7 19  2  0  0  0  0
  7 22  1  0  0  0  0
  8 19  1  0  0  0  0
  8 33  1  0  0  0  0
  8 34  1  0  0  0  0
  9 22  1  0  0  0  0
  9 35  1  0  0  0  0
  9 36  1  0  0  0  0
 10 11  1  0  0  0  0
 10 25  1  0  0  0  0
 10 26  1  0  0  0  0
 11 15  2  0  0  0  0
 12 16  2  0  0  0  0
 12 17  1  0  0  0  0
 13 14  1  0  0  0  0
 13 19  1  0  0  0  0
 15 28  1  0  0  0  0
 16 20  1  0  0  0  0
 16 29  1  0  0  0  0
 17 21  2  0  0  0  0
 17 30  1  0  0  0  0
 18 20  2  0  0  0  0
 18 21  1  0  0  0  0
 18 23  1  0  0  0  0
 20 31  1  0  0  0  0
 21 32  1  0  0  0  0
 23 24  1  0  0  0  0
 24 37  1  0  0  0  0
M  END
> <PUBCHEM_COMPOUND_CID>
125336

> <PUBCHEM_CONFORMER_RMSD>
0.8

> <PUBCHEM_CONFORMER_DIVERSEORDER>
2
64
20
36
31
57
35
60
56
52
34
1
39
40
15
3
37
67
26
55
4
13
6
27
66
23
5
62
53
48
12
32
24
17
9
33
22
7
25
47
8
38
49
46
50
58
30
42
59
14
68
18
21
54
61
45
19
41
44
63
16
29
11
51
43
65
10
28

> <PUBCHEM_MMFF94_PARTIAL_CHARGES>
35
1 -0.57
10 0.51
11 0.17
12 0.1
13 0.31
14 0.62
15 0.16
16 -0.15
17 -0.15
18 0.09
19 0.41
2 -0.57
20 -0.15
21 -0.15
22 0.72
23 0.48
24 0.51
27 0.4
28 0.15
29 0.15
3 -0.87
30 0.15
31 0.15
32 0.15
33 0.4
34 0.4
35 0.4
36 0.4
37 0.06
4 -0.62
5 -0.62
6 -0.62
7 -0.62
8 -0.9
9 -0.9

> <PUBCHEM_EFFECTIVE_ROTOR_COUNT>
5

> <PUBCHEM_PHARMACOPHORE_FEATURES>
11
1 1 acceptor
1 2 acceptor
1 3 cation
1 3 donor
1 4 acceptor
1 8 donor
1 9 donor
4 6 7 9 22 cation
6 12 16 17 18 20 21 rings
6 4 5 11 13 14 15 rings
6 6 7 13 14 19 22 rings

> <PUBCHEM_HEAVY_ATOM_COUNT>
24

> <PUBCHEM_ATOM_DEF_STEREO_COUNT>
0

> <PUBCHEM_ATOM_UDEF_STEREO_COUNT>
0

> <PUBCHEM_BOND_DEF_STEREO_COUNT>
0

> <PUBCHEM_BOND_UDEF_STEREO_COUNT>
0

> <PUBCHEM_ISOTOPIC_ATOM_COUNT>
0

> <PUBCHEM_COMPONENT_COUNT>
1

> <PUBCHEM_CACTVS_TAUTO_COUNT>
48

> <PUBCHEM_CONFORMER_ID>
0001E99800000002

> <PUBCHEM_MMFF94_ENERGY>
86.9737

> <PUBCHEM_FEATURE_SELFOVERLAP>
55.867

> <PUBCHEM_SHAPE_FINGERPRINT>
106641 1 17346591993901903178
10670039 82 15285349601172640559
10693767 8 12685355324855960040
11315181 36 17458068162011788981
11524674 6 18408324410954531371
11724838 91 17489864955596122684
11796584 16 17385446535440274586
12166972 35 17967818275409367349
12236239 1 17418374688384074685
12516196 113 18409167705537663220
12596602 18 16917068824346468858
12616971 3 17703785942582000973
13073987 5 18201158741377938769
13533116 47 18060138725937096594
13668630 136 18334579027374781907
13685833 64 18407761430244540625
13885169 127 18333449812602499933
13914758 101 18342177718476113761
14170010 4 18413105078689590272
14251764 18 17632577158118634721
14849402 71 17202753934459996288
15183329 4 13767923529411836799
15419008 47 18113610184263073421
15419008 91 17822835581259745717
15510794 2 18259983804319791595
17844677 252 17385727988868951821
19377110 9 16845302622501784139
20397935 70 18060426789710248270
21150785 3 15430038763950488396
21267235 1 18272371933031138134
21623969 137 18410857646451554230
21781051 124 15936991716252311521
220451 1 17846498166573535957
22224240 67 18202274823997039898
2297311 6 17022901246847442997
23559900 14 17095529560155231309
239999 70 18040999544861017968
29717793 49 14490191588058156410
3004659 81 15647053780556016509
34797466 226 17313111881420232420
4073 2 18261114135504171587
5104073 3 18058450911042710184
5758199 1 17704065223362698864
59682541 35 18342733040577621640
59755656 215 17312819373104990083

> <PUBCHEM_SHAPE_MULTIPOLES>
447.3
21.58
1.55
1.12
13.03
0.32
-0.02
7.38
4.04
-2.14
-0.16
1.09
0.07
1.48

> <PUBCHEM_SHAPE_SELFOVERLAP>
980.663

> <PUBCHEM_SHAPE_VOLUME>
239

> <PUBCHEM_COORDINATE_TYPE>
2
5
10

$$$$
