125419
  -OEChem-03292013323D

 31 32  0     1  0  0  0  0  0999 V2000
   -1.1462   -2.2175    1.3779 O   0  0  0  0  0  0  0  0  0  0  0  0
   -3.4867   -1.4483    0.2959 O   0  0  0  0  0  0  0  0  0  0  0  0
   -3.8191    2.3866    0.1126 O   0  0  0  0  0  0  0  0  0  0  0  0
    1.8781   -1.9794   -1.3632 O   0  0  0  0  0  0  0  0  0  0  0  0
    0.9066   -0.2190   -0.1672 N   0  0  0  0  0  0  0  0  0  0  0  0
    4.7616    1.2802    0.5037 N   0  0  0  0  0  0  0  0  0  0  0  0
   -0.4396   -0.6846   -0.3652 C   0  0  1  0  0  0  0  0  0  0  0  0
   -1.1922   -0.8641    0.9595 C   0  0  1  0  0  0  0  0  0  0  0  0
   -2.6277   -0.3881    0.6861 C   0  0  1  0  0  0  0  0  0  0  0  0
   -2.4438    0.5317   -0.4823 C   0  0  0  0  0  0  0  0  0  0  0  0
   -1.2445    0.3677   -1.0560 C   0  0  0  0  0  0  0  0  0  0  0  0
   -3.5209    1.4578   -0.9193 C   0  0  0  0  0  0  0  0  0  0  0  0
    1.9859   -0.9430   -0.7096 C   0  0  0  0  0  0  0  0  0  0  0  0
    1.1375    0.9451    0.5596 C   0  0  0  0  0  0  0  0  0  0  0  0
    3.3516   -0.3893   -0.4577 C   0  0  0  0  0  0  0  0  0  0  0  0
    2.3672    1.4248    0.7750 C   0  0  0  0  0  0  0  0  0  0  0  0
    3.5322    0.7395    0.2501 C   0  0  0  0  0  0  0  0  0  0  0  0
   -0.4485   -1.6066   -0.9575 H   0  0  0  0  0  0  0  0  0  0  0  0
   -0.7699   -0.2670    1.7754 H   0  0  0  0  0  0  0  0  0  0  0  0
   -3.0419    0.1108    1.5681 H   0  0  0  0  0  0  0  0  0  0  0  0
   -0.9136    0.9007   -1.9372 H   0  0  0  0  0  0  0  0  0  0  0  0
   -4.4302    0.8983   -1.1612 H   0  0  0  0  0  0  0  0  0  0  0  0
   -3.2215    2.0216   -1.8091 H   0  0  0  0  0  0  0  0  0  0  0  0
   -1.7258   -2.3023    2.1540 H   0  0  0  0  0  0  0  0  0  0  0  0
    0.2782    1.4810    0.9474 H   0  0  0  0  0  0  0  0  0  0  0  0
   -4.3848   -1.0852    0.2112 H   0  0  0  0  0  0  0  0  0  0  0  0
    4.1889   -0.9414   -0.8729 H   0  0  0  0  0  0  0  0  0  0  0  0
    2.5040    2.3401    1.3419 H   0  0  0  0  0  0  0  0  0  0  0  0
   -4.5317    2.9606   -0.2164 H   0  0  0  0  0  0  0  0  0  0  0  0
    5.5949    0.8261    0.1506 H   0  0  0  0  0  0  0  0  0  0  0  0
    4.8419    2.1336    1.0425 H   0  0  0  0  0  0  0  0  0  0  0  0
  1  8  1  0  0  0  0
  1 24  1  0  0  0  0
  2  9  1  0  0  0  0
  2 26  1  0  0  0  0
  3 12  1  0  0  0  0
  3 29  1  0  0  0  0
  4 13  2  0  0  0  0
  5  7  1  0  0  0  0
  5 13  1  0  0  0  0
  5 14  1  0  0  0  0
  6 17  1  0  0  0  0
  6 30  1  0  0  0  0
  6 31  1  0  0  0  0
  7  8  1  0  0  0  0
  7 11  1  0  0  0  0
  7 18  1  0  0  0  0
  8  9  1  0  0  0  0
  8 19  1  0  0  0  0
  9 10  1  0  0  0  0
  9 20  1  0  0  0  0
 10 11  2  0  0  0  0
 10 12  1  0  0  0  0
 11 21  1  0  0  0  0
 12 22  1  0  0  0  0
 12 23  1  0  0  0  0
 13 15  1  0  0  0  0
 14 16  2  0  0  0  0
 14 25  1  0  0  0  0
 15 17  2  0  0  0  0
 15 27  1  0  0  0  0
 16 17  1  0  0  0  0
 16 28  1  0  0  0  0
M  END
> <PUBCHEM_COMPOUND_CID>
125419

> <PUBCHEM_CONFORMER_RMSD>
0.6

> <PUBCHEM_CONFORMER_DIVERSEORDER>
1
21
18
16
19
23
10
20
8
9
4
17
5
15
2
22
14
12
13
3
11
6
7

> <PUBCHEM_MMFF94_PARTIAL_CHARGES>
26
1 -0.68
10 -0.28
11 -0.29
12 0.42
13 0.62
14 -0.04
15 -0.14
16 -0.15
17 0.1
2 -0.68
21 0.15
24 0.4
25 0.15
26 0.4
27 0.15
28 0.15
29 0.4
3 -0.68
30 0.4
31 0.4
4 -0.57
5 -0.47
6 -0.9
7 0.44
8 0.28
9 0.42

> <PUBCHEM_EFFECTIVE_ROTOR_COUNT>
2.6

> <PUBCHEM_PHARMACOPHORE_FEATURES>
11
1 1 acceptor
1 1 donor
1 2 acceptor
1 2 donor
1 3 acceptor
1 3 donor
1 4 acceptor
1 6 cation
1 6 donor
5 7 8 9 10 11 rings
6 5 13 14 15 16 17 rings

> <PUBCHEM_HEAVY_ATOM_COUNT>
17

> <PUBCHEM_ATOM_DEF_STEREO_COUNT>
2

> <PUBCHEM_ATOM_UDEF_STEREO_COUNT>
1

> <PUBCHEM_BOND_DEF_STEREO_COUNT>
0

> <PUBCHEM_BOND_UDEF_STEREO_COUNT>
0

> <PUBCHEM_ISOTOPIC_ATOM_COUNT>
0

> <PUBCHEM_COMPONENT_COUNT>
1

> <PUBCHEM_CACTVS_TAUTO_COUNT>
3

> <PUBCHEM_CONFORMER_ID>
0001E9EB00000001

> <PUBCHEM_MMFF94_ENERGY>
44.4356

> <PUBCHEM_FEATURE_SELFOVERLAP>
55.836

> <PUBCHEM_SHAPE_FINGERPRINT>
10608611 8 18411980277724656652
11132069 177 17749108855460762213
11471102 20 18131628959412034684
11543360 7 17703210855103469421
12236239 1 15841560690286531266
12500047 106 18259700107969328170
12654215 9 18272931583996229164
13214271 11 18410568513389756501
13464514 151 18268991990399016056
13581323 91 17095520729543805482
15219456 202 18412546500506220814
15279308 16 18412261735558278581
15309172 13 18060138799289059838
15375358 24 18412541011812485392
15775835 57 17603861170128748009
16945 1 17775281655712066898
1813 80 14490743500330963474
18186145 218 18189618245989665469
19049666 15 18337962181424064475
200 152 17489302031787174751
20279233 1 18410294713587999966
20510252 161 18335423491207357801
20645464 45 18333730234346534011
20645477 56 18335988588655060773
20645477 70 17703508783851828494
21639500 275 17632290215970212336
22112679 90 16226337000672260486
23402539 116 18116140246507069359
23402655 69 17846492599958699677
23493267 7 18334572464917766744
23500284 214 18334858286153688041
23557571 272 18335154101846443054
23559900 14 18335424505152247702
25 1 18340765923253242917
276578 36 17386569042148944609
495365 180 18058996290432421138
5104073 3 18408600349258760568
633830 44 18195523693300042781
77492 1 15913333472300701366
81228 2 17823145686540646235
90316 7 16805593772401001516

> <PUBCHEM_SHAPE_MULTIPOLES>
316.41
7.31
1.99
1.13
1.99
0.05
0.02
-3.34
-0.09
-0.91
-0.18
-0.14
0.31
1.39

> <PUBCHEM_SHAPE_SELFOVERLAP>
673.309

> <PUBCHEM_SHAPE_VOLUME>
176.8

> <PUBCHEM_COORDINATE_TYPE>
2
5
10

$$$$
