125429
  -OEChem-03292013323D

 25 26  0     1  0  0  0  0  0999 V2000
   -0.7045   -0.6772    0.7604 O   0  0  0  0  0  0  0  0  0  0  0  0
    0.2023    1.8838   -1.5905 O   0  0  0  0  0  0  0  0  0  0  0  0
   -1.6828    2.1502    0.3797 O   0  0  0  0  0  0  0  0  0  0  0  0
   -2.8615   -2.4480    0.5015 O   0  0  0  0  0  0  0  0  0  0  0  0
    0.9591    1.6889    1.4937 O   0  0  0  0  0  0  0  0  0  0  0  0
    3.4194   -1.6393   -0.4749 O   0  0  0  0  0  0  0  0  0  0  0  0
    1.1587   -1.0627   -0.6200 N   0  0  0  0  0  0  0  0  0  0  0  0
    2.5001    0.1728    0.6558 N   0  0  0  0  0  0  0  0  0  0  0  0
    0.2734   -0.0616   -0.0765 C   0  0  1  0  0  0  0  0  0  0  0  0
   -0.4661    0.7209   -1.1499 C   0  0  1  0  0  0  0  0  0  0  0  0
   -1.7944    1.0232   -0.4853 C   0  0  1  0  0  0  0  0  0  0  0  0
   -2.0174   -0.2168    0.3724 C   0  0  1  0  0  0  0  0  0  0  0  0
    1.2524    0.7335    0.7891 C   0  0  0  0  0  0  0  0  0  0  0  0
   -2.7130   -1.3463   -0.3765 C   0  0  0  0  0  0  0  0  0  0  0  0
    2.4742   -0.9213   -0.1789 C   0  0  0  0  0  0  0  0  0  0  0  0
   -0.6414    0.0852   -2.0265 H   0  0  0  0  0  0  0  0  0  0  0  0
   -2.6061    1.2225   -1.1911 H   0  0  0  0  0  0  0  0  0  0  0  0
   -2.5590    0.0089    1.2979 H   0  0  0  0  0  0  0  0  0  0  0  0
    0.8525   -1.8166   -1.2270 H   0  0  0  0  0  0  0  0  0  0  0  0
   -2.1352   -1.6881   -1.2409 H   0  0  0  0  0  0  0  0  0  0  0  0
   -3.7067   -1.0398   -0.7160 H   0  0  0  0  0  0  0  0  0  0  0  0
    3.3307    0.5095    1.1291 H   0  0  0  0  0  0  0  0  0  0  0  0
    0.3181    2.4798   -0.8320 H   0  0  0  0  0  0  0  0  0  0  0  0
   -1.5924    2.9385   -0.1822 H   0  0  0  0  0  0  0  0  0  0  0  0
   -1.9727   -2.7080    0.7990 H   0  0  0  0  0  0  0  0  0  0  0  0
  1  9  1  0  0  0  0
  1 12  1  0  0  0  0
  2 10  1  0  0  0  0
  2 23  1  0  0  0  0
  3 11  1  0  0  0  0
  3 24  1  0  0  0  0
  4 14  1  0  0  0  0
  4 25  1  0  0  0  0
  5 13  2  0  0  0  0
  6 15  2  0  0  0  0
  7  9  1  0  0  0  0
  7 15  1  0  0  0  0
  7 19  1  0  0  0  0
  8 13  1  0  0  0  0
  8 15  1  0  0  0  0
  8 22  1  0  0  0  0
  9 10  1  0  0  0  0
  9 13  1  0  0  0  0
 10 11  1  0  0  0  0
 10 16  1  0  0  0  0
 11 12  1  0  0  0  0
 11 17  1  0  0  0  0
 12 14  1  0  0  0  0
 12 18  1  0  0  0  0
 14 20  1  0  0  0  0
 14 21  1  0  0  0  0
M  END
> <PUBCHEM_COMPOUND_CID>
125429

> <PUBCHEM_CONFORMER_RMSD>
0.6

> <PUBCHEM_CONFORMER_DIVERSEORDER>
1
2

> <PUBCHEM_MMFF94_PARTIAL_CHARGES>
20
1 -0.56
10 0.28
11 0.28
12 0.28
13 0.57
14 0.28
15 0.69
19 0.37
2 -0.68
22 0.37
23 0.4
24 0.4
25 0.4
3 -0.68
4 -0.68
5 -0.57
6 -0.57
7 -0.73
8 -0.49
9 0.64

> <PUBCHEM_EFFECTIVE_ROTOR_COUNT>
2.2

> <PUBCHEM_PHARMACOPHORE_FEATURES>
13
1 1 acceptor
1 2 acceptor
1 2 donor
1 3 acceptor
1 3 donor
1 4 acceptor
1 4 donor
1 5 acceptor
1 6 acceptor
1 7 donor
1 8 donor
5 1 9 10 11 12 rings
5 7 8 9 13 15 rings

> <PUBCHEM_HEAVY_ATOM_COUNT>
15

> <PUBCHEM_ATOM_DEF_STEREO_COUNT>
4

> <PUBCHEM_ATOM_UDEF_STEREO_COUNT>
0

> <PUBCHEM_BOND_DEF_STEREO_COUNT>
0

> <PUBCHEM_BOND_UDEF_STEREO_COUNT>
0

> <PUBCHEM_ISOTOPIC_ATOM_COUNT>
0

> <PUBCHEM_COMPONENT_COUNT>
1

> <PUBCHEM_CACTVS_TAUTO_COUNT>
5

> <PUBCHEM_CONFORMER_ID>
0001E9F500000001

> <PUBCHEM_MMFF94_ENERGY>
39.2495

> <PUBCHEM_FEATURE_SELFOVERLAP>
66.083

> <PUBCHEM_SHAPE_FINGERPRINT>
12138202 97 18044930178032975319
12423570 1 15195299619905510001
13024252 1 14708364334193265060
14115302 16 18123484777937319350
14128692 85 18262249892376574774
14181834 199 17244696007448217183
14817 1 17127367937571193936
15501101 241 18269555107745275219
16945 1 18265893549320133736
17841504 4 18060695108800996642
21061003 4 17704075058078638498
21501502 16 18412267237453628192
23419403 2 17035233536520513101
23559900 14 18125151629640536746
241688 4 18187361013084736905
2748010 2 18341035398043732365
369184 2 17131254784326475908
5084963 1 18334007302528588865
7364860 26 17902799891929102533
81228 2 18261383447671465849
8809292 202 18269839718101080258

> <PUBCHEM_SHAPE_MULTIPOLES>
263.52
4.13
2.13
1.14
0.87
0.04
0.09
2.7
-0.11
-0.87
-0.02
0.15
-0.49
0.6

> <PUBCHEM_SHAPE_SELFOVERLAP>
563.152

> <PUBCHEM_SHAPE_VOLUME>
146.2

> <PUBCHEM_COORDINATE_TYPE>
2
5
10

$$$$
