125460
  -OEChem-03292013323D

 33 34  0     1  0  0  0  0  0999 V2000
   -1.1987   -1.2145    0.9406 O   0  0  0  0  0  0  0  0  0  0  0  0
   -3.5212    0.9809    1.4365 O   0  0  0  0  0  0  0  0  0  0  0  0
   -2.5682   -3.3147   -0.2728 O   0  0  0  0  0  0  0  0  0  0  0  0
    1.4098    1.7079    2.2162 O   0  0  0  0  0  0  0  0  0  0  0  0
    4.6628   -0.2194   -0.4014 O   0  0  0  0  0  0  0  0  0  0  0  0
    0.7639    0.0477    0.7076 N   0  0  0  0  0  0  0  0  0  0  0  0
   -1.0539    0.9635   -1.2205 N   0  0  0  0  0  0  0  0  0  0  0  0
    3.0220    0.7386    0.9040 N   0  0  0  0  0  0  0  0  0  0  0  0
   -1.2831    1.9867   -1.8935 N   0  3  0  0  0  0  0  0  0  0  0  0
   -1.4912    2.9215   -2.5131 N   0  5  0  0  0  0  0  0  0  0  0  0
   -1.4721    1.0116    0.1858 C   0  0  1  0  0  0  0  0  0  0  0  0
   -2.8529    0.3992    0.3170 C   0  0  1  0  0  0  0  0  0  0  0  0
   -0.6262    0.0932    1.0542 C   0  0  1  0  0  0  0  0  0  0  0  0
   -2.5892   -1.0831    0.5873 C   0  0  1  0  0  0  0  0  0  0  0  0
   -2.8508   -1.9693   -0.6216 C   0  0  0  0  0  0  0  0  0  0  0  0
    1.1717   -0.8485   -0.2711 C   0  0  0  0  0  0  0  0  0  0  0  0
    1.7013    0.8903    1.3407 C   0  0  0  0  0  0  0  0  0  0  0  0
    2.4363   -0.9911   -0.6868 C   0  0  0  0  0  0  0  0  0  0  0  0
    3.4842   -0.1377   -0.0660 C   0  0  0  0  0  0  0  0  0  0  0  0
    2.8556   -1.9627   -1.7428 C   0  0  0  0  0  0  0  0  0  0  0  0
   -1.4111    2.0397    0.5655 H   0  0  0  0  0  0  0  0  0  0  0  0
   -3.4982    0.5575   -0.5534 H   0  0  0  0  0  0  0  0  0  0  0  0
   -0.7273    0.3908    2.1058 H   0  0  0  0  0  0  0  0  0  0  0  0
   -3.1681   -1.4459    1.4448 H   0  0  0  0  0  0  0  0  0  0  0  0
   -2.1953   -1.7075   -1.4577 H   0  0  0  0  0  0  0  0  0  0  0  0
   -3.8910   -1.9021   -0.9546 H   0  0  0  0  0  0  0  0  0  0  0  0
   -3.6442    1.9260    1.2428 H   0  0  0  0  0  0  0  0  0  0  0  0
    0.4000   -1.4580   -0.7298 H   0  0  0  0  0  0  0  0  0  0  0  0
    3.7159    1.3351    1.3461 H   0  0  0  0  0  0  0  0  0  0  0  0
   -3.1724   -3.5659    0.4466 H   0  0  0  0  0  0  0  0  0  0  0  0
    3.3129   -1.4363   -2.5869 H   0  0  0  0  0  0  0  0  0  0  0  0
    2.0079   -2.5380   -2.1298 H   0  0  0  0  0  0  0  0  0  0  0  0
    3.5839   -2.6742   -1.3403 H   0  0  0  0  0  0  0  0  0  0  0  0
  1 13  1  0  0  0  0
  1 14  1  0  0  0  0
  2 12  1  0  0  0  0
  2 27  1  0  0  0  0
  3 15  1  0  0  0  0
  3 30  1  0  0  0  0
  4 17  2  0  0  0  0
  5 19  2  0  0  0  0
  6 13  1  0  0  0  0
  6 16  1  0  0  0  0
  6 17  1  0  0  0  0
  7  9  2  0  0  0  0
  7 11  1  0  0  0  0
  8 17  1  0  0  0  0
  8 19  1  0  0  0  0
  8 29  1  0  0  0  0
  9 10  2  0  0  0  0
 11 12  1  0  0  0  0
 11 13  1  0  0  0  0
 11 21  1  0  0  0  0
 12 14  1  0  0  0  0
 12 22  1  0  0  0  0
 13 23  1  0  0  0  0
 14 15  1  0  0  0  0
 14 24  1  0  0  0  0
 15 25  1  0  0  0  0
 15 26  1  0  0  0  0
 16 18  2  0  0  0  0
 16 28  1  0  0  0  0
 18 19  1  0  0  0  0
 18 20  1  0  0  0  0
 20 31  1  0  0  0  0
 20 32  1  0  0  0  0
 20 33  1  0  0  0  0
M  CHG  2   9   1  10  -1
M  END
> <PUBCHEM_COMPOUND_CID>
125460

> <PUBCHEM_CONFORMER_RMSD>
0.6

> <PUBCHEM_CONFORMER_DIVERSEORDER>
1
23
30
22
26
32
31
3
19
33
14
2
28
24
21
13
4
29
16
27
10
12
11
25
8
6
20
15
17
9
18
5
7

> <PUBCHEM_MMFF94_PARTIAL_CHARGES>
24
1 -0.56
10 -0.37
11 0.25
12 0.28
13 0.58
14 0.28
15 0.28
16 -0.04
17 0.69
18 -0.12
19 0.62
2 -0.68
20 0.14
27 0.4
28 0.15
29 0.37
3 -0.68
30 0.4
4 -0.57
5 -0.57
6 -0.47
7 -0.56
8 -0.49
9 0.69

> <PUBCHEM_EFFECTIVE_ROTOR_COUNT>
4

> <PUBCHEM_PHARMACOPHORE_FEATURES>
10
1 1 acceptor
1 2 acceptor
1 2 donor
1 3 acceptor
1 3 donor
1 4 acceptor
1 5 acceptor
1 8 donor
5 1 11 12 13 14 rings
6 6 8 16 17 18 19 rings

> <PUBCHEM_HEAVY_ATOM_COUNT>
20

> <PUBCHEM_ATOM_DEF_STEREO_COUNT>
4

> <PUBCHEM_ATOM_UDEF_STEREO_COUNT>
0

> <PUBCHEM_BOND_DEF_STEREO_COUNT>
0

> <PUBCHEM_BOND_UDEF_STEREO_COUNT>
0

> <PUBCHEM_ISOTOPIC_ATOM_COUNT>
0

> <PUBCHEM_COMPONENT_COUNT>
1

> <PUBCHEM_CACTVS_TAUTO_COUNT>
3

> <PUBCHEM_CONFORMER_ID>
0001EA1400000001

> <PUBCHEM_MMFF94_ENERGY>
43.6085

> <PUBCHEM_FEATURE_SELFOVERLAP>
50.753

> <PUBCHEM_SHAPE_FINGERPRINT>
11322862 65 18271251525807724919
11640471 11 16009303176494776644
11759241 127 18261122919250122044
12173636 292 18053953839866187125
12403814 3 18114190691857287305
13583140 156 17906407256973719008
14004458 79 17679548316838211263
14181834 199 17103670503197543079
14863182 85 17191789788648185383
16945 1 17841149162673819035
17357779 13 18126264562428949663
1813 80 18042971063477614595
20600515 1 17610034026207531123
20645476 183 16343698820471282829
21524375 3 16956164013166321685
22112679 90 17969519249850849341
221490 88 17916310609518253626
23402539 116 17675925413066096310
23419403 2 17112642492569087893
23557571 272 18333449850133371612
23559900 14 17987792046329957377
23598288 3 16879054266335837801
238 59 17616508689516956165
3286 77 17988077927869247346
465052 167 15553595383227925727
6442390 28 17902513688694974613
81228 2 18260541260434885689
9709674 26 17989495133880830247

> <PUBCHEM_SHAPE_MULTIPOLES>
357.34
6.26
2.58
1.87
3.53
0.99
0.99
1.71
0.03
-1.69
1.06
-0.39
-1.55
1.6

> <PUBCHEM_SHAPE_SELFOVERLAP>
749.699

> <PUBCHEM_SHAPE_VOLUME>
201.3

> <PUBCHEM_COORDINATE_TYPE>
2
5
10

$$$$
