125422
  -OEChem-03292013323D

 23 24  0     0  0  0  0  0  0999 V2000
   -5.0647    0.3488   -1.5882 S   0  0  0  0  0  0  0  0  0  0  0  0
    0.0308   -3.0472    0.0400 O   0  5  0  0  0  0  0  0  0  0  0  0
    1.8864   -1.8915   -0.1599 O   0  0  0  0  0  0  0  0  0  0  0  0
    1.9161    0.6030   -0.0152 N   0  0  0  0  0  0  0  0  0  0  0  0
    0.6478   -1.9572    0.0160 N   0  3  0  0  0  0  0  0  0  0  0  0
    3.8646    0.8170   -1.0700 N   0  0  0  0  0  0  0  0  0  0  0  0
   -3.5928    0.2612    0.7620 N   0  0  0  0  0  0  0  0  0  0  0  0
    0.5476    0.4936    0.1770 C   0  0  0  0  0  0  0  0  0  0  0  0
   -0.0853   -0.7493    0.1946 C   0  0  0  0  0  0  0  0  0  0  0  0
   -0.1983    1.6588    0.3546 C   0  0  0  0  0  0  0  0  0  0  0  0
   -1.4644   -0.8271    0.3898 C   0  0  0  0  0  0  0  0  0  0  0  0
   -1.5772    1.5811    0.5497 C   0  0  0  0  0  0  0  0  0  0  0  0
   -2.2103    0.3382    0.5673 C   0  0  0  0  0  0  0  0  0  0  0  0
    2.8783    0.6025    0.9594 C   0  0  0  0  0  0  0  0  0  0  0  0
    2.5609    0.7341   -1.2173 C   0  0  0  0  0  0  0  0  0  0  0  0
    4.0691    0.7350    0.2846 C   0  0  0  0  0  0  0  0  0  0  0  0
   -4.2087    0.2990   -0.2442 C   0  0  0  0  0  0  0  0  0  0  0  0
    0.2793    2.6357    0.3440 H   0  0  0  0  0  0  0  0  0  0  0  0
   -1.9854   -1.7819    0.4109 H   0  0  0  0  0  0  0  0  0  0  0  0
   -2.1481    2.4957    0.6891 H   0  0  0  0  0  0  0  0  0  0  0  0
    2.6443    0.5112    2.0116 H   0  0  0  0  0  0  0  0  0  0  0  0
    2.0331    0.7637   -2.1616 H   0  0  0  0  0  0  0  0  0  0  0  0
    5.0632    0.7758    0.7054 H   0  0  0  0  0  0  0  0  0  0  0  0
  1 17  2  0  0  0  0
  2  5  1  0  0  0  0
  3  5  2  0  0  0  0
  4  8  1  0  0  0  0
  4 14  1  0  0  0  0
  4 15  1  0  0  0  0
  5  9  1  0  0  0  0
  6 15  2  0  0  0  0
  6 16  1  0  0  0  0
  7 13  1  0  0  0  0
  7 17  2  0  0  0  0
  8  9  2  0  0  0  0
  8 10  1  0  0  0  0
  9 11  1  0  0  0  0
 10 12  2  0  0  0  0
 10 18  1  0  0  0  0
 11 13  2  0  0  0  0
 11 19  1  0  0  0  0
 12 13  1  0  0  0  0
 12 20  1  0  0  0  0
 14 16  2  0  0  0  0
 14 21  1  0  0  0  0
 15 22  1  0  0  0  0
 16 23  1  0  0  0  0
M  CHG  2   2  -1   5   1
M  END
> <PUBCHEM_COMPOUND_CID>
125422

> <PUBCHEM_CONFORMER_RMSD>
0.6

> <PUBCHEM_CONFORMER_DIVERSEORDER>
2
6
8
1
5
7
3
4

> <PUBCHEM_MMFF94_PARTIAL_CHARGES>
23
1 -0.27
10 -0.15
11 -0.15
12 -0.15
13 0.18
14 -0.3
15 0.04
16 0.08
17 0.57
18 0.15
19 0.15
2 -0.52
20 0.15
21 0.15
22 0.15
23 0.15
3 -0.52
4 0.33
5 0.91
6 -0.57
7 -0.48
8 -0.02
9 0.13

> <PUBCHEM_EFFECTIVE_ROTOR_COUNT>
3

> <PUBCHEM_PHARMACOPHORE_FEATURES>
8
1 1 acceptor
1 2 acceptor
1 2 anion
1 3 acceptor
1 7 acceptor
3 4 6 15 cation
5 4 6 14 15 16 rings
6 8 9 10 11 12 13 rings

> <PUBCHEM_HEAVY_ATOM_COUNT>
17

> <PUBCHEM_ATOM_DEF_STEREO_COUNT>
0

> <PUBCHEM_ATOM_UDEF_STEREO_COUNT>
0

> <PUBCHEM_BOND_DEF_STEREO_COUNT>
0

> <PUBCHEM_BOND_UDEF_STEREO_COUNT>
0

> <PUBCHEM_ISOTOPIC_ATOM_COUNT>
0

> <PUBCHEM_COMPONENT_COUNT>
1

> <PUBCHEM_CACTVS_TAUTO_COUNT>
1

> <PUBCHEM_CONFORMER_ID>
0001E9EE00000002

> <PUBCHEM_MMFF94_ENERGY>
70.4344

> <PUBCHEM_FEATURE_SELFOVERLAP>
40.683

> <PUBCHEM_SHAPE_FINGERPRINT>
11132069 177 18410575119070446200
11471102 20 18410008814852970605
11543360 7 15841551902952365753
12119455 92 17967525783492570559
12236239 1 17749106734084670736
12969540 114 18336813303584873285
13052359 8 18264203784769473211
13083527 12 18046886209150632747
13140716 1 18196098969593235097
13380535 76 18408608062687967539
13538477 17 18116155644017163816
13583140 156 16805611416358794145
14251717 144 18340200804584047095
14576447 43 18059276761035702967
14787075 74 17632005476507685985
14911166 2 18412825819726119741
14993402 34 18334864947574130676
15048467 5 13551195489631026780
15309172 13 18338249231273425040
15536298 74 18200318706136459266
15852999 172 18041006128450037531
16945 1 18340216257596816529
18186145 218 18272091633910602617
200 152 18131063831984157545
20645476 183 17750809924386925254
20645477 70 18335420102520586379
21501502 16 18125164831562435041
21637258 2 15123505883020482765
23114952 82 17971465200917062133
231179 274 17603302652555104821
2334 1 17836088149163602825
23402539 116 18271801358746141708
23402655 69 18341887447374563493
23493267 7 17822018639302263120
23559900 14 18114745932413393706
25147074 1 18126849283629330641
257057 1 17253142030476727451
2748010 2 18265630800427116506
2871803 45 18272368650864104405
3060560 45 18412819205154503405
3071541 37 18335986376314347627
33382 64 15051741910332266805
4072396 5 18261937583819142273
4990 188 17418099805760293684
57003041 33 18408882936405504165
57005193 9 18410006641483448307
57096353 35 18272089379427097749
58051976 378 18411702079813254836
603831 33 18131060499221151461
633830 44 18130802165133027905
69090 78 17346598599081706028
7364860 26 18127699214454548878
81539 233 18113898243081120251

> <PUBCHEM_SHAPE_MULTIPOLES>
322.04
8
1.95
1.09
4.94
1.67
-0.34
-2.52
-2.82
-0.55
0.11
0.35
-0.26
-0.09

> <PUBCHEM_SHAPE_SELFOVERLAP>
694.777

> <PUBCHEM_SHAPE_VOLUME>
179.7

> <PUBCHEM_COORDINATE_TYPE>
2
5
10

$$$$
