125407
  -OEChem-03292013323D

 36 37  0     1  0  0  0  0  0999 V2000
   -0.3506   -2.1681    0.1485 O   0  0  0  0  0  0  0  0  0  0  0  0
   -3.3679    1.8265   -0.8114 O   0  0  0  0  0  0  0  0  0  0  0  0
    0.8043    0.6362    1.8631 O   0  0  0  0  0  0  0  0  0  0  0  0
    1.4395    1.4836   -1.3261 O   0  0  0  0  0  0  0  0  0  0  0  0
   -3.4317   -1.6446   -1.0102 O   0  0  0  0  0  0  0  0  0  0  0  0
    2.9378    2.5883   -0.0293 O   0  0  0  0  0  0  0  0  0  0  0  0
   -0.5481   -1.0469    0.9754 N   0  0  0  0  0  0  0  0  0  0  0  0
    4.8184    0.6884   -0.6579 N   0  0  0  0  0  0  0  0  0  0  0  0
   -3.7485    0.6255   -1.4448 N   0  0  0  0  0  0  0  0  0  0  0  0
    1.6664   -1.0955    0.4651 C   0  0  0  0  0  0  0  0  0  0  0  0
    3.0850   -0.6786    0.4529 C   0  0  0  0  0  0  0  0  0  0  0  0
   -1.8996   -0.8189    1.4288 C   0  0  0  0  0  0  0  0  0  0  0  0
    0.6172   -0.3691    1.1987 C   0  0  0  0  0  0  0  0  0  0  0  0
    1.0152   -2.1123   -0.1057 C   0  0  0  0  0  0  0  0  0  0  0  0
    3.4122    0.2902   -0.6983 C   0  0  1  0  0  0  0  0  0  0  0  0
   -2.5561    0.0551    0.4195 C   0  0  0  0  0  0  0  0  0  0  0  0
   -2.6580    1.3798    0.2956 C   0  0  0  0  0  0  0  0  0  0  0  0
    1.5584   -3.1897   -0.9749 C   0  0  0  0  0  0  0  0  0  0  0  0
   -3.2859   -0.4630   -0.7461 C   0  0  0  0  0  0  0  0  0  0  0  0
    2.6037    1.5751   -0.6293 C   0  0  0  0  0  0  0  0  0  0  0  0
   -2.1116    2.4379    1.1865 C   0  0  0  0  0  0  0  0  0  0  0  0
    3.3322   -0.2164    1.4179 H   0  0  0  0  0  0  0  0  0  0  0  0
    3.7286   -1.5643    0.3750 H   0  0  0  0  0  0  0  0  0  0  0  0
   -2.4175   -1.7743    1.5554 H   0  0  0  0  0  0  0  0  0  0  0  0
   -1.8563   -0.3115    2.3976 H   0  0  0  0  0  0  0  0  0  0  0  0
    3.2286   -0.1891   -1.6672 H   0  0  0  0  0  0  0  0  0  0  0  0
    1.0508   -3.1845   -1.9446 H   0  0  0  0  0  0  0  0  0  0  0  0
    1.4017   -4.1674   -0.5087 H   0  0  0  0  0  0  0  0  0  0  0  0
    2.6303   -3.0704   -1.1580 H   0  0  0  0  0  0  0  0  0  0  0  0
    5.0234    1.1674    0.2180 H   0  0  0  0  0  0  0  0  0  0  0  0
    5.0169    1.3496   -1.4077 H   0  0  0  0  0  0  0  0  0  0  0  0
   -4.2899    0.6615   -2.2988 H   0  0  0  0  0  0  0  0  0  0  0  0
   -1.6282    2.0236    2.0753 H   0  0  0  0  0  0  0  0  0  0  0  0
   -2.9153    3.1000    1.5240 H   0  0  0  0  0  0  0  0  0  0  0  0
   -1.3724    3.0397    0.6485 H   0  0  0  0  0  0  0  0  0  0  0  0
    0.9178    2.3128   -1.2766 H   0  0  0  0  0  0  0  0  0  0  0  0
  1  7  1  0  0  0  0
  1 14  1  0  0  0  0
  2  9  1  0  0  0  0
  2 17  1  0  0  0  0
  3 13  2  0  0  0  0
  4 20  1  0  0  0  0
  4 36  1  0  0  0  0
  5 19  2  0  0  0  0
  6 20  2  0  0  0  0
  7 12  1  0  0  0  0
  7 13  1  0  0  0  0
  8 15  1  0  0  0  0
  8 30  1  0  0  0  0
  8 31  1  0  0  0  0
  9 19  1  0  0  0  0
  9 32  1  0  0  0  0
 10 11  1  0  0  0  0
 10 13  1  0  0  0  0
 10 14  2  0  0  0  0
 11 15  1  0  0  0  0
 11 22  1  0  0  0  0
 11 23  1  0  0  0  0
 12 16  1  0  0  0  0
 12 24  1  0  0  0  0
 12 25  1  0  0  0  0
 14 18  1  0  0  0  0
 15 20  1  0  0  0  0
 15 26  1  0  0  0  0
 16 17  2  0  0  0  0
 16 19  1  0  0  0  0
 17 21  1  0  0  0  0
 18 27  1  0  0  0  0
 18 28  1  0  0  0  0
 18 29  1  0  0  0  0
 21 33  1  0  0  0  0
 21 34  1  0  0  0  0
 21 35  1  0  0  0  0
M  END
> <PUBCHEM_COMPOUND_CID>
125407

> <PUBCHEM_CONFORMER_RMSD>
0.8

> <PUBCHEM_CONFORMER_DIVERSEORDER>
1
53
113
4
102
177
29
68
44
35
155
145
176
57
159
63
24
168
170
126
173
156
78
162
30
96
111
160
71
110
106
146
20
120
129
143
178
47
147
171
26
148
33
38
73
149
151
123
131
58
76
25
153
118
154
180
88
92
45
48
86
133
142
135
116
66
42
141
49
164
37
5
81
174
94
89
51
181
93
119
132
109
179
124
82
108
172
9
52
122
65
140
54
17
87
125
136
114
107
175
64
23
150
8
19
167
60
138
31
137
130
6
77
127
61
169
157
97
128
70
115
46
139
16
121
79
85
95
101
2
99
36
158
134
40
75
7
12
74
166
98
32
112
91
163
3
90
62
69
67
18
55
50
22
103
56
13
100
104
59
15
165
14
161
10
11
152
34
72
105
83
43
80
39
27
117
41
21
84
144
28

> <PUBCHEM_MMFF94_PARTIAL_CHARGES>
25
1 -0.11
10 -0.12
11 0.14
12 0.44
13 0.62
14 -0.06
15 0.33
16 -0.12
17 -0.06
18 0.14
19 0.62
2 -0.11
20 0.66
21 0.14
3 -0.57
30 0.36
31 0.36
32 0.37
36 0.5
4 -0.65
5 -0.57
6 -0.57
7 -0.32
8 -0.99
9 -0.39

> <PUBCHEM_EFFECTIVE_ROTOR_COUNT>
5

> <PUBCHEM_PHARMACOPHORE_FEATURES>
10
1 3 acceptor
1 4 acceptor
1 5 acceptor
1 6 acceptor
1 8 cation
1 8 donor
1 9 donor
3 4 6 20 anion
5 1 7 10 13 14 rings
5 2 9 16 17 19 rings

> <PUBCHEM_HEAVY_ATOM_COUNT>
21

> <PUBCHEM_ATOM_DEF_STEREO_COUNT>
0

> <PUBCHEM_ATOM_UDEF_STEREO_COUNT>
1

> <PUBCHEM_BOND_DEF_STEREO_COUNT>
0

> <PUBCHEM_BOND_UDEF_STEREO_COUNT>
0

> <PUBCHEM_ISOTOPIC_ATOM_COUNT>
0

> <PUBCHEM_COMPONENT_COUNT>
1

> <PUBCHEM_CACTVS_TAUTO_COUNT>
2

> <PUBCHEM_CONFORMER_ID>
0001E9DF00000001

> <PUBCHEM_MMFF94_ENERGY>
20.7738

> <PUBCHEM_FEATURE_SELFOVERLAP>
50.805

> <PUBCHEM_SHAPE_FINGERPRINT>
11370993 70 18339639044473723380
13464514 151 18188215277884995410
14250199 8 18265896865425094525
14251751 93 18271809050890098966
16945 1 18340497707062381210
17980427 23 18196630931452256066
18186145 218 18272381901012012984
18219364 16 17604724261187299369
18981168 100 17677637301035880115
192875 21 18263066765170812616
21524375 3 18261397796951583954
22749437 52 18188209909023368956
23114952 82 18195532488897277206
231179 274 17385721370387053956
23402539 116 17059793151993609336
23557571 272 17677631910994900963
238 59 18341038700994869909
2748010 2 17697585942188555851
474 4 18189054209604761889
7832392 63 17979643329285887497

> <PUBCHEM_SHAPE_MULTIPOLES>
382.01
7.06
2.91
1.41
0.35
0.47
-0.17
-2.62
2.62
0.82
0.47
-0.54
-0.12
-0.46

> <PUBCHEM_SHAPE_SELFOVERLAP>
804.716

> <PUBCHEM_SHAPE_VOLUME>
217.4

> <PUBCHEM_COORDINATE_TYPE>
2
5
10

$$$$
