125494
  -OEChem-03292013323D

 42 45  0     1  0  0  0  0  0999 V2000
    1.7543    0.5392    0.1726 O   0  0  0  0  0  0  0  0  0  0  0  0
    0.2560   -0.4820   -1.2959 O   0  0  0  0  0  0  0  0  0  0  0  0
    4.8103   -1.9304   -1.0227 O   0  0  0  0  0  0  0  0  0  0  0  0
    5.0420   -0.4490    1.4486 O   0  0  0  0  0  0  0  0  0  0  0  0
    2.0067   -2.6953   -1.5080 O   0  0  0  0  0  0  0  0  0  0  0  0
    1.9058    2.2572    2.3131 O   0  0  0  0  0  0  0  0  0  0  0  0
   -2.0148    3.5085   -0.4738 O   0  0  0  0  0  0  0  0  0  0  0  0
   -4.1361   -0.6632    0.7538 O   0  0  0  0  0  0  0  0  0  0  0  0
   -5.0536   -2.6893    1.2999 O   0  0  0  0  0  0  0  0  0  0  0  0
    3.6925   -1.5433   -0.2220 C   0  0  1  0  0  0  0  0  0  0  0  0
    4.0374   -0.2211    0.4636 C   0  0  1  0  0  0  0  0  0  0  0  0
    2.4559   -1.4004   -1.1093 C   0  0  2  0  0  0  0  0  0  0  0  0
    2.8004    0.3826    1.1329 C   0  0  1  0  0  0  0  0  0  0  0  0
    1.3151   -0.7058   -0.3656 C   0  0  1  0  0  0  0  0  0  0  0  0
    3.0925    1.7584    1.7233 C   0  0  0  0  0  0  0  0  0  0  0  0
   -0.8615    0.1418   -0.8129 C   0  0  0  0  0  0  0  0  0  0  0  0
   -0.9578    1.5473   -0.8504 C   0  0  0  0  0  0  0  0  0  0  0  0
   -1.9293   -0.5945   -0.2746 C   0  0  0  0  0  0  0  0  0  0  0  0
   -2.1070    2.1541   -0.3522 C   0  0  0  0  0  0  0  0  0  0  0  0
   -3.0559    0.0702    0.2097 C   0  0  0  0  0  0  0  0  0  0  0  0
   -3.1870    1.4615    0.1895 C   0  0  0  0  0  0  0  0  0  0  0  0
   -0.1258    2.6073   -1.2986 C   0  0  0  0  0  0  0  0  0  0  0  0
   -1.8911   -2.0469   -0.2080 C   0  0  0  0  0  0  0  0  0  0  0  0
   -0.8124    3.7725   -1.0479 C   0  0  0  0  0  0  0  0  0  0  0  0
   -2.9172   -2.7278    0.3079 C   0  0  0  0  0  0  0  0  0  0  0  0
   -4.1194   -2.0516    0.8269 C   0  0  0  0  0  0  0  0  0  0  0  0
    3.5479   -2.3426    0.5152 H   0  0  0  0  0  0  0  0  0  0  0  0
    4.4541    0.4746   -0.2751 H   0  0  0  0  0  0  0  0  0  0  0  0
    2.7076   -0.8556   -2.0269 H   0  0  0  0  0  0  0  0  0  0  0  0
    2.4353   -0.2635    1.9430 H   0  0  0  0  0  0  0  0  0  0  0  0
    0.9394   -1.3449    0.4449 H   0  0  0  0  0  0  0  0  0  0  0  0
    3.8674    1.7126    2.4938 H   0  0  0  0  0  0  0  0  0  0  0  0
    3.4045    2.4681    0.9500 H   0  0  0  0  0  0  0  0  0  0  0  0
    5.5807   -1.9993   -0.4330 H   0  0  0  0  0  0  0  0  0  0  0  0
    4.6785   -1.0597    2.1124 H   0  0  0  0  0  0  0  0  0  0  0  0
    1.7719   -3.1931   -0.7063 H   0  0  0  0  0  0  0  0  0  0  0  0
    1.2236    2.2890    1.6206 H   0  0  0  0  0  0  0  0  0  0  0  0
   -4.0654    1.9698    0.5677 H   0  0  0  0  0  0  0  0  0  0  0  0
    0.8530    2.5327   -1.7509 H   0  0  0  0  0  0  0  0  0  0  0  0
   -1.0283   -2.5826   -0.5871 H   0  0  0  0  0  0  0  0  0  0  0  0
   -0.5930    4.8175   -1.2111 H   0  0  0  0  0  0  0  0  0  0  0  0
   -2.8934   -3.8110    0.3562 H   0  0  0  0  0  0  0  0  0  0  0  0
  1 13  1  0  0  0  0
  1 14  1  0  0  0  0
  2 14  1  0  0  0  0
  2 16  1  0  0  0  0
  3 10  1  0  0  0  0
  3 34  1  0  0  0  0
  4 11  1  0  0  0  0
  4 35  1  0  0  0  0
  5 12  1  0  0  0  0
  5 36  1  0  0  0  0
  6 15  1  0  0  0  0
  6 37  1  0  0  0  0
  7 19  1  0  0  0  0
  7 24  1  0  0  0  0
  8 20  1  0  0  0  0
  8 26  1  0  0  0  0
  9 26  2  0  0  0  0
 10 11  1  0  0  0  0
 10 12  1  0  0  0  0
 10 27  1  0  0  0  0
 11 13  1  0  0  0  0
 11 28  1  0  0  0  0
 12 14  1  0  0  0  0
 12 29  1  0  0  0  0
 13 15  1  0  0  0  0
 13 30  1  0  0  0  0
 14 31  1  0  0  0  0
 15 32  1  0  0  0  0
 15 33  1  0  0  0  0
 16 17  1  0  0  0  0
 16 18  2  0  0  0  0
 17 19  2  0  0  0  0
 17 22  1  0  0  0  0
 18 20  1  0  0  0  0
 18 23  1  0  0  0  0
 19 21  1  0  0  0  0
 20 21  2  0  0  0  0
 21 38  1  0  0  0  0
 22 24  2  0  0  0  0
 22 39  1  0  0  0  0
 23 25  2  0  0  0  0
 23 40  1  0  0  0  0
 24 41  1  0  0  0  0
 25 26  1  0  0  0  0
 25 42  1  0  0  0  0
M  END
> <PUBCHEM_COMPOUND_CID>
125494

> <PUBCHEM_CONFORMER_RMSD>
0.8

> <PUBCHEM_CONFORMER_DIVERSEORDER>
1
43
17
34
31
52
27
49
13
4
48
51
39
44
40
24
41
23
46
7
37
21
5
16
14
3
10
36
19
35
47
11
29
2
6
38
25
8
28
45
9
32
18
42
12
20
33
30
22
26
50
15

> <PUBCHEM_MMFF94_PARTIAL_CHARGES>
34
1 -0.56
10 0.28
11 0.28
12 0.28
13 0.28
14 0.56
15 0.28
16 0.08
18 0.03
19 0.14
2 -0.36
20 0.08
21 -0.15
22 -0.15
23 -0.18
24 -0.01
25 -0.14
26 0.71
3 -0.68
34 0.4
35 0.4
36 0.4
37 0.4
38 0.15
39 0.15
4 -0.68
40 0.15
41 0.15
42 0.15
5 -0.68
6 -0.68
7 -0.28
8 -0.23
9 -0.57

> <PUBCHEM_EFFECTIVE_ROTOR_COUNT>
4.2

> <PUBCHEM_PHARMACOPHORE_FEATURES>
16
1 1 acceptor
1 2 acceptor
1 3 acceptor
1 3 donor
1 4 acceptor
1 4 donor
1 5 acceptor
1 5 donor
1 6 acceptor
1 6 donor
1 7 acceptor
1 9 acceptor
5 7 17 19 22 24 rings
6 1 10 11 12 13 14 rings
6 16 17 18 19 20 21 rings
6 8 18 20 23 25 26 rings

> <PUBCHEM_HEAVY_ATOM_COUNT>
26

> <PUBCHEM_ATOM_DEF_STEREO_COUNT>
5

> <PUBCHEM_ATOM_UDEF_STEREO_COUNT>
0

> <PUBCHEM_BOND_DEF_STEREO_COUNT>
0

> <PUBCHEM_BOND_UDEF_STEREO_COUNT>
0

> <PUBCHEM_ISOTOPIC_ATOM_COUNT>
0

> <PUBCHEM_COMPONENT_COUNT>
1

> <PUBCHEM_CACTVS_TAUTO_COUNT>
1

> <PUBCHEM_CONFORMER_ID>
0001EA3600000001

> <PUBCHEM_MMFF94_ENERGY>
79.4413

> <PUBCHEM_FEATURE_SELFOVERLAP>
81.394

> <PUBCHEM_SHAPE_FINGERPRINT>
10165383 225 17616544955836558300
10319926 262 18192982735156318578
10366900 7 18270108011928304180
10369192 42 17773591827596993320
11370993 144 17988931019953763979
12403259 226 18342176644069579894
12553582 1 18265342887664032551
12623949 98 17845108400703157343
12633257 1 18201723916203359331
12788726 201 18041576796290910215
13140716 1 18409177606012260997
13402501 40 18271519780505534492
14081887 123 18335978675422090275
14178342 30 18115866309118913414
14223421 5 18413100667367572720
14790565 3 17399806384986108445
15042514 8 18262248716162203463
15230672 131 17324370610676865398
1813 80 17749388225755603207
19049666 15 18053942853439635790
20600515 1 17531803700533893702
21421861 104 17901120916752436153
21650355 55 18334011683848970077
21792961 116 18058172731445625790
22122407 14 16559032662655278497
23366157 5 17536044594845999189
23557571 272 18334568053469239169
23559900 14 18409451370926355853
3187 122 18334846247265229933
3380486 145 18125983096173684949
484985 159 15585051096138010376
508706 21 18266731390276436780
5104073 3 18341891840872958698
57091435 65 17975134550007417172
6287921 2 18126283279722241392
81228 2 18335137562296813613
84936 182 16825013046345116389
9709674 26 18269832017330168526

> <PUBCHEM_SHAPE_MULTIPOLES>
482.24
8.69
4.03
1.51
3
2.17
0.44
-6.36
3.47
-2.8
-0.72
1.19
0.33
2.63

> <PUBCHEM_SHAPE_SELFOVERLAP>
1063.188

> <PUBCHEM_SHAPE_VOLUME>
257.4

> <PUBCHEM_COORDINATE_TYPE>
2
5
10

$$$$
