12548
  -OEChem-03292013323D

 31 33  0     0  0  0  0  0  0999 V2000
   -0.1002    2.4867   -0.0023 O   0  0  0  0  0  0  0  0  0  0  0  0
   -0.3721   -2.8504   -0.0017 O   0  0  0  0  0  0  0  0  0  0  0  0
   -2.6510    2.7042    0.0000 O   0  0  0  0  0  0  0  0  0  0  0  0
    2.4490    2.4443    0.0006 O   0  0  0  0  0  0  0  0  0  0  0  0
    4.7070    0.9393    0.0008 O   0  0  0  0  0  0  0  0  0  0  0  0
    4.5539   -1.8187    0.0009 O   0  0  0  0  0  0  0  0  0  0  0  0
   -1.5427   -0.8135    0.0001 C   0  0  0  0  0  0  0  0  0  0  0  0
   -1.4710    0.5811   -0.0002 C   0  0  0  0  0  0  0  0  0  0  0  0
    1.0718    0.4505   -0.0002 C   0  0  0  0  0  0  0  0  0  0  0  0
    1.0000   -0.9442   -0.0005 C   0  0  0  0  0  0  0  0  0  0  0  0
   -0.1612    1.2640   -0.0007 C   0  0  0  0  0  0  0  0  0  0  0  0
   -0.3097   -1.6271   -0.0006 C   0  0  0  0  0  0  0  0  0  0  0  0
   -2.7905   -1.4485    0.0008 C   0  0  0  0  0  0  0  0  0  0  0  0
   -2.6471    1.3407    0.0002 C   0  0  0  0  0  0  0  0  0  0  0  0
    2.3194    1.0855    0.0004 C   0  0  0  0  0  0  0  0  0  0  0  0
   -3.9600   -0.6877    0.0014 C   0  0  0  0  0  0  0  0  0  0  0  0
    2.1761   -1.7037   -0.0004 C   0  0  0  0  0  0  0  0  0  0  0  0
   -3.8885    0.7039    0.0010 C   0  0  0  0  0  0  0  0  0  0  0  0
    3.4889    0.3248    0.0005 C   0  0  0  0  0  0  0  0  0  0  0  0
    3.4174   -1.0668    0.0000 C   0  0  0  0  0  0  0  0  0  0  0  0
   -5.2893   -1.3643   -0.0001 C   0  0  0  0  0  0  0  0  0  0  0  0
   -2.8600   -2.5336   -0.0015 H   0  0  0  0  0  0  0  0  0  0  0  0
    2.1403   -2.7903   -0.0004 H   0  0  0  0  0  0  0  0  0  0  0  0
   -4.8052    1.2895   -0.0009 H   0  0  0  0  0  0  0  0  0  0  0  0
   -5.6241   -1.5320   -1.0286 H   0  0  0  0  0  0  0  0  0  0  0  0
   -5.2423   -2.3296    0.5155 H   0  0  0  0  0  0  0  0  0  0  0  0
   -6.0410   -0.7608    0.5200 H   0  0  0  0  0  0  0  0  0  0  0  0
   -3.5674    3.0293    0.0006 H   0  0  0  0  0  0  0  0  0  0  0  0
    1.5827    2.8768    0.0061 H   0  0  0  0  0  0  0  0  0  0  0  0
    4.5649    1.9019    0.0011 H   0  0  0  0  0  0  0  0  0  0  0  0
    5.3187   -1.2172    0.0014 H   0  0  0  0  0  0  0  0  0  0  0  0
  1 11  2  0  0  0  0
  2 12  2  0  0  0  0
  3 14  1  0  0  0  0
  3 28  1  0  0  0  0
  4 15  1  0  0  0  0
  4 29  1  0  0  0  0
  5 19  1  0  0  0  0
  5 30  1  0  0  0  0
  6 20  1  0  0  0  0
  6 31  1  0  0  0  0
  7  8  2  0  0  0  0
  7 12  1  0  0  0  0
  7 13  1  0  0  0  0
  8 11  1  0  0  0  0
  8 14  1  0  0  0  0
  9 10  1  0  0  0  0
  9 11  1  0  0  0  0
  9 15  2  0  0  0  0
 10 12  1  0  0  0  0
 10 17  2  0  0  0  0
 13 16  2  0  0  0  0
 13 22  1  0  0  0  0
 14 18  2  0  0  0  0
 15 19  1  0  0  0  0
 16 18  1  0  0  0  0
 16 21  1  0  0  0  0
 17 20  1  0  0  0  0
 17 23  1  0  0  0  0
 18 24  1  0  0  0  0
 19 20  2  0  0  0  0
 21 25  1  0  0  0  0
 21 26  1  0  0  0  0
 21 27  1  0  0  0  0
M  END
> <PUBCHEM_COMPOUND_CID>
12548

> <PUBCHEM_CONFORMER_RMSD>
0.6

> <PUBCHEM_CONFORMER_DIVERSEORDER>
1

> <PUBCHEM_MMFF94_PARTIAL_CHARGES>
28
1 -0.57
10 0.09
11 0.4
12 0.4
13 -0.15
14 0.08
15 0.08
16 -0.14
17 -0.15
18 -0.15
19 0.08
2 -0.57
20 0.08
21 0.14
22 0.15
23 0.15
24 0.15
28 0.45
29 0.45
3 -0.53
30 0.45
31 0.45
4 -0.53
5 -0.53
6 -0.53
7 0.09
8 0.09
9 0.09

> <PUBCHEM_EFFECTIVE_ROTOR_COUNT>
0

> <PUBCHEM_PHARMACOPHORE_FEATURES>
9
1 1 acceptor
1 2 acceptor
1 3 donor
1 4 donor
1 5 donor
1 6 donor
6 7 8 13 14 16 18 rings
6 7 8 9 10 11 12 rings
6 9 10 15 17 19 20 rings

> <PUBCHEM_HEAVY_ATOM_COUNT>
21

> <PUBCHEM_ATOM_DEF_STEREO_COUNT>
0

> <PUBCHEM_ATOM_UDEF_STEREO_COUNT>
0

> <PUBCHEM_BOND_DEF_STEREO_COUNT>
0

> <PUBCHEM_BOND_UDEF_STEREO_COUNT>
0

> <PUBCHEM_ISOTOPIC_ATOM_COUNT>
0

> <PUBCHEM_COMPONENT_COUNT>
1

> <PUBCHEM_CACTVS_TAUTO_COUNT>
500

> <PUBCHEM_CONFORMER_ID>
0000310400000001

> <PUBCHEM_MMFF94_ENERGY>
64.5762

> <PUBCHEM_FEATURE_SELFOVERLAP>
45.725

> <PUBCHEM_SHAPE_FINGERPRINT>
10608611 8 18410853248220238209
10616163 171 18339927120440693143
10967382 1 18338517559349902470
11471102 20 18410008853581730734
11578080 2 16663450940982591503
11680986 33 18190747629257565771
11806522 49 18409166632080370527
12011746 2 18410294747852760495
12403259 226 18410288090669691405
12403260 363 18410288103580525299
13140716 1 18267582412086437913
13583140 156 14620514459162266147
13862211 1 18411132567598464287
14790565 3 18338245971525856285
15196674 1 18410855438653325319
15442244 35 18410573946818537882
15536298 74 18342175561869287282
16945 1 18194683897795646054
17492 89 18339079281091331635
17804303 29 18411704257356113189
19591789 44 18410573963756106211
200 152 18202278122220498407
20028762 73 18201715193563702911
20510252 161 18343585122659280945
21029758 11 18341609343593576769
21267235 1 18410864251953051702
221490 88 18336272318088610330
2334 1 18410855473160873669
23402539 116 18342449365918525479
23463225 33 18409449176182152004
23559900 14 18341326721902841568
2748010 2 18410573968082410365
2871803 45 18334851719354154447
335352 9 18122343480156047661
350125 39 18410858758921923761
4214541 1 18410855412968170913
474 4 17314236733961657644
5104073 3 18411699850767167104
69090 78 18341610451294413839
7364860 26 18341331197179701176
9709674 26 18411143536512324182
9981440 41 17470165220974550288

> <PUBCHEM_SHAPE_MULTIPOLES>
396.95
8.58
2.72
0.59
0.73
0.51
0
-1.63
0
-0.03
0
0.04
-0.02
0

> <PUBCHEM_SHAPE_SELFOVERLAP>
901.677

> <PUBCHEM_SHAPE_VOLUME>
206

> <PUBCHEM_COORDINATE_TYPE>
2
5
10

$$$$
