125449
  -OEChem-03292013323D

 27 28  0     0  0  0  0  0  0999 V2000
    5.5838   -0.7250   -1.4625 I   0  0  0  0  0  0  0  0  0  0  0  0
   -0.2526    0.5183    1.3874 S   0  0  0  0  0  0  0  0  0  0  0  0
   -0.5732   -0.6039    2.2526 O   0  0  0  0  0  0  0  0  0  0  0  0
   -0.2736    1.8848    1.8839 O   0  0  0  0  0  0  0  0  0  0  0  0
   -1.5652   -2.2780    0.8110 O   0  5  0  0  0  0  0  0  0  0  0  0
   -3.1038   -2.5871   -0.7240 O   0  0  0  0  0  0  0  0  0  0  0  0
   -1.8051    1.6575   -0.5801 N   0  0  0  0  0  0  0  0  0  0  0  0
   -3.0559    0.0319   -1.4314 N   0  0  0  0  0  0  0  0  0  0  0  0
   -2.3082   -1.8239   -0.1054 N   0  3  0  0  0  0  0  0  0  0  0  0
   -1.4852    0.5256    0.0832 C   0  0  0  0  0  0  0  0  0  0  0  0
    1.2888    0.1903    0.6364 C   0  0  0  0  0  0  0  0  0  0  0  0
   -2.2499   -0.4642   -0.4377 C   0  0  0  0  0  0  0  0  0  0  0  0
   -2.7638    1.3122   -1.4915 C   0  0  0  0  0  0  0  0  0  0  0  0
   -1.2656    2.9840   -0.3953 C   0  0  0  0  0  0  0  0  0  0  0  0
    2.0795    1.2438    0.1778 C   0  0  0  0  0  0  0  0  0  0  0  0
    1.7290   -1.1257    0.4937 C   0  0  0  0  0  0  0  0  0  0  0  0
    3.3103    0.9816   -0.4238 C   0  0  0  0  0  0  0  0  0  0  0  0
    2.9600   -1.3880   -0.1078 C   0  0  0  0  0  0  0  0  0  0  0  0
    3.7508   -0.3343   -0.5664 C   0  0  0  0  0  0  0  0  0  0  0  0
   -3.2114    2.0273   -2.1684 H   0  0  0  0  0  0  0  0  0  0  0  0
   -0.1799    2.9550   -0.4577 H   0  0  0  0  0  0  0  0  0  0  0  0
   -1.6318    3.6244   -1.2042 H   0  0  0  0  0  0  0  0  0  0  0  0
   -1.6272    3.3896    0.5516 H   0  0  0  0  0  0  0  0  0  0  0  0
    1.7726    2.2778    0.2930 H   0  0  0  0  0  0  0  0  0  0  0  0
    1.1345   -1.9640    0.8425 H   0  0  0  0  0  0  0  0  0  0  0  0
    3.9128    1.8174   -0.7705 H   0  0  0  0  0  0  0  0  0  0  0  0
    3.2842   -2.4207   -0.2090 H   0  0  0  0  0  0  0  0  0  0  0  0
  1 19  1  0  0  0  0
  2  3  2  0  0  0  0
  2  4  2  0  0  0  0
  2 10  1  0  0  0  0
  2 11  1  0  0  0  0
  5  9  1  0  0  0  0
  6  9  2  0  0  0  0
  7 10  1  0  0  0  0
  7 13  1  0  0  0  0
  7 14  1  0  0  0  0
  8 12  1  0  0  0  0
  8 13  2  0  0  0  0
  9 12  1  0  0  0  0
 10 12  2  0  0  0  0
 11 15  2  0  0  0  0
 11 16  1  0  0  0  0
 13 20  1  0  0  0  0
 14 21  1  0  0  0  0
 14 22  1  0  0  0  0
 14 23  1  0  0  0  0
 15 17  1  0  0  0  0
 15 24  1  0  0  0  0
 16 18  2  0  0  0  0
 16 25  1  0  0  0  0
 17 19  2  0  0  0  0
 17 26  1  0  0  0  0
 18 19  1  0  0  0  0
 18 27  1  0  0  0  0
M  CHG  2   5  -1   9   1
M  END
> <PUBCHEM_COMPOUND_CID>
125449

> <PUBCHEM_CONFORMER_RMSD>
0.6

> <PUBCHEM_CONFORMER_DIVERSEORDER>
1
2

> <PUBCHEM_MMFF94_PARTIAL_CHARGES>
24
1 -0.08
10 -0.21
11 -0.01
12 0.31
13 0.04
14 0.26
15 -0.15
16 -0.15
17 -0.15
18 -0.15
19 0.08
2 1.37
20 0.15
24 0.15
25 0.15
26 0.15
27 0.15
3 -0.65
4 -0.65
5 -0.52
6 -0.52
7 0.05
8 -0.57
9 0.96

> <PUBCHEM_EFFECTIVE_ROTOR_COUNT>
3

> <PUBCHEM_PHARMACOPHORE_FEATURES>
9
1 1 hydrophobe
1 3 acceptor
1 4 acceptor
1 5 acceptor
1 5 anion
1 6 acceptor
3 7 8 13 cation
5 7 8 10 12 13 rings
6 11 15 16 17 18 19 rings

> <PUBCHEM_HEAVY_ATOM_COUNT>
19

> <PUBCHEM_ATOM_DEF_STEREO_COUNT>
0

> <PUBCHEM_ATOM_UDEF_STEREO_COUNT>
0

> <PUBCHEM_BOND_DEF_STEREO_COUNT>
0

> <PUBCHEM_BOND_UDEF_STEREO_COUNT>
0

> <PUBCHEM_ISOTOPIC_ATOM_COUNT>
0

> <PUBCHEM_COMPONENT_COUNT>
1

> <PUBCHEM_CACTVS_TAUTO_COUNT>
1

> <PUBCHEM_CONFORMER_ID>
0001EA0900000001

> <PUBCHEM_MMFF94_ENERGY>
37.549

> <PUBCHEM_FEATURE_SELFOVERLAP>
45.797

> <PUBCHEM_SHAPE_FINGERPRINT>
11127187 94 18413668006751268479
11370993 144 9799426490312012332
11578080 2 14907598087424703251
11640471 11 15503192571139331095
121448 382 18334583443065282162
12202030 40 17630869694181268283
12363563 72 16845562094113039412
12670546 177 18339093639899342436
12788726 201 17487340330901938480
12892183 10 10087644818547871324
13296909 8 10447925070549060019
13299463 15 18338797921993413288
13994607 96 15647634301399890134
14251764 30 18043827587204643099
14863182 85 15896986302818329215
16945 1 18336532824955867201
17780758 139 11167663110823898030
18927931 339 16558200302641389900
19765921 60 16878489164493122441
200 152 17917994962631680332
20361792 2 16487248902303850200
20871999 31 18261666047876763455
21713013 43 18340204184501821902
21731516 1 16630244800522321560
22393880 68 18408603643957735462
22802520 49 18341317985638609769
23402539 116 16950283988721950310
23557571 272 18265599052150502464
23559900 14 18271231756410495008
27216 239 11097861821366194566
2748010 2 18123163952475595169
4028521 119 17676483904622068244
4921388 177 18059308551940457652
531348 171 18118696418248175094

> <PUBCHEM_SHAPE_MULTIPOLES>
368.38
7.84
2.48
1.61
11.13
0.1
-0.39
1.97
5.01
-2.41
0.12
-0.55
-0.17
0.3

> <PUBCHEM_SHAPE_SELFOVERLAP>
757.58

> <PUBCHEM_SHAPE_VOLUME>
216.8

> <PUBCHEM_COORDINATE_TYPE>
2
5
10

$$$$
