125544
  -OEChem-03292013323D

 39 42  0     1  0  0  0  0  0999 V2000
   -3.1440    0.3505   -0.8819 O   0  0  0  0  0  0  0  0  0  0  0  0
   -4.5791   -2.2778   -0.1311 O   0  0  0  0  0  0  0  0  0  0  0  0
   -4.9420    2.4542   -0.4850 O   0  0  0  0  0  0  0  0  0  0  0  0
    5.4560    1.2030   -0.9749 O   0  0  0  0  0  0  0  0  0  0  0  0
   -0.9275    0.1065   -0.0720 N   0  0  0  0  0  0  0  0  0  0  0  0
    2.8737   -1.0091   -0.1182 N   0  0  0  0  0  0  0  0  0  0  0  0
    0.5228    1.7530    0.3595 N   0  0  0  0  0  0  0  0  0  0  0  0
    0.5828   -1.7555   -0.4201 N   0  0  0  0  0  0  0  0  0  0  0  0
    3.4069    1.3322    0.3682 N   0  0  0  0  0  0  0  0  0  0  0  0
   -2.2083   -0.5596   -0.2781 C   0  0  1  0  0  0  0  0  0  0  0  0
   -2.8589   -1.0745    0.9978 C   0  0  0  0  0  0  0  0  0  0  0  0
   -4.3201   -1.0877    0.6107 C   0  0  1  0  0  0  0  0  0  0  0  0
   -4.4481    0.1239   -0.3066 C   0  0  1  0  0  0  0  0  0  0  0  0
    0.3135   -0.4551   -0.1402 C   0  0  0  0  0  0  0  0  0  0  0  0
   -4.8596    1.3848    0.4408 C   0  0  0  0  0  0  0  0  0  0  0  0
    1.1868    0.5811    0.1312 C   0  0  0  0  0  0  0  0  0  0  0  0
    2.6126    0.3462    0.1393 C   0  0  0  0  0  0  0  0  0  0  0  0
   -0.7496    1.4335    0.2312 C   0  0  0  0  0  0  0  0  0  0  0  0
    4.2781   -1.4272   -0.1192 C   0  0  0  0  0  0  0  0  0  0  0  0
    5.0895   -0.4584    0.7415 C   0  0  0  0  0  0  0  0  0  0  0  0
    4.8419    0.9913    0.2990 C   0  0  1  0  0  0  0  0  0  0  0  0
    1.8726   -1.9553   -0.3918 C   0  0  0  0  0  0  0  0  0  0  0  0
   -2.0456   -1.3725   -0.9960 H   0  0  0  0  0  0  0  0  0  0  0  0
   -2.6984   -0.3750    1.8268 H   0  0  0  0  0  0  0  0  0  0  0  0
   -2.4607   -2.0517    1.2878 H   0  0  0  0  0  0  0  0  0  0  0  0
   -5.0043   -1.0672    1.4638 H   0  0  0  0  0  0  0  0  0  0  0  0
   -5.1352   -0.0599   -1.1403 H   0  0  0  0  0  0  0  0  0  0  0  0
   -4.1199    1.6584    1.2000 H   0  0  0  0  0  0  0  0  0  0  0  0
   -5.8364    1.2564    0.9172 H   0  0  0  0  0  0  0  0  0  0  0  0
   -1.5778    2.1188    0.3510 H   0  0  0  0  0  0  0  0  0  0  0  0
    4.6517   -1.4358   -1.1495 H   0  0  0  0  0  0  0  0  0  0  0  0
    4.3820   -2.4409    0.2844 H   0  0  0  0  0  0  0  0  0  0  0  0
    4.7993   -0.5746    1.7935 H   0  0  0  0  0  0  0  0  0  0  0  0
    6.1532   -0.7077    0.6551 H   0  0  0  0  0  0  0  0  0  0  0  0
   -4.4415   -3.0307    0.4689 H   0  0  0  0  0  0  0  0  0  0  0  0
    5.3654    1.6467    1.0040 H   0  0  0  0  0  0  0  0  0  0  0  0
    2.2742   -2.9613   -0.5973 H   0  0  0  0  0  0  0  0  0  0  0  0
   -5.2067    3.2457    0.0140 H   0  0  0  0  0  0  0  0  0  0  0  0
    5.1740    2.0840   -1.2739 H   0  0  0  0  0  0  0  0  0  0  0  0
  1 10  1  0  0  0  0
  1 13  1  0  0  0  0
  2 12  1  0  0  0  0
  2 35  1  0  0  0  0
  3 15  1  0  0  0  0
  3 38  1  0  0  0  0
  4 21  1  0  0  0  0
  4 39  1  0  0  0  0
  5 10  1  0  0  0  0
  5 14  1  0  0  0  0
  5 18  1  0  0  0  0
  6 17  1  0  0  0  0
  6 19  1  0  0  0  0
  6 22  1  0  0  0  0
  7 16  1  0  0  0  0
  7 18  2  0  0  0  0
  8 14  1  0  0  0  0
  8 22  2  0  0  0  0
  9 17  2  0  0  0  0
  9 21  1  0  0  0  0
 10 11  1  0  0  0  0
 10 23  1  0  0  0  0
 11 12  1  0  0  0  0
 11 24  1  0  0  0  0
 11 25  1  0  0  0  0
 12 13  1  0  0  0  0
 12 26  1  0  0  0  0
 13 15  1  0  0  0  0
 13 27  1  0  0  0  0
 14 16  2  0  0  0  0
 15 28  1  0  0  0  0
 15 29  1  0  0  0  0
 16 17  1  0  0  0  0
 18 30  1  0  0  0  0
 19 20  1  0  0  0  0
 19 31  1  0  0  0  0
 19 32  1  0  0  0  0
 20 21  1  0  0  0  0
 20 33  1  0  0  0  0
 20 34  1  0  0  0  0
 21 36  1  0  0  0  0
 22 37  1  0  0  0  0
M  END
> <PUBCHEM_COMPOUND_CID>
125544

> <PUBCHEM_CONFORMER_RMSD>
0.6

> <PUBCHEM_CONFORMER_DIVERSEORDER>
3
2
6
10
17
21
4
7
22
15
16
23
18
5
1
24
11
14
9
19
13
20
8
12

> <PUBCHEM_MMFF94_PARTIAL_CHARGES>
25
1 -0.56
10 0.54
12 0.28
13 0.28
14 -0.03
15 0.28
16 0.14
17 0.59
18 0.04
19 0.37
2 -0.68
21 0.53
22 0.44
3 -0.68
30 0.15
35 0.4
37 0.06
38 0.4
39 0.4
4 -0.68
5 0.05
6 -0.47
7 -0.57
8 -0.58
9 -0.7

> <PUBCHEM_EFFECTIVE_ROTOR_COUNT>
3.6

> <PUBCHEM_PHARMACOPHORE_FEATURES>
14
1 1 acceptor
1 2 acceptor
1 2 donor
1 3 acceptor
1 3 donor
1 4 acceptor
1 4 donor
3 5 7 18 cation
3 6 8 22 cation
3 6 9 17 cation
5 1 10 11 12 13 rings
5 5 7 14 16 18 rings
6 6 8 14 16 17 22 rings
6 6 9 17 19 20 21 rings

> <PUBCHEM_HEAVY_ATOM_COUNT>
22

> <PUBCHEM_ATOM_DEF_STEREO_COUNT>
3

> <PUBCHEM_ATOM_UDEF_STEREO_COUNT>
1

> <PUBCHEM_BOND_DEF_STEREO_COUNT>
0

> <PUBCHEM_BOND_UDEF_STEREO_COUNT>
0

> <PUBCHEM_ISOTOPIC_ATOM_COUNT>
0

> <PUBCHEM_COMPONENT_COUNT>
1

> <PUBCHEM_CACTVS_TAUTO_COUNT>
1

> <PUBCHEM_CONFORMER_ID>
0001EA6800000003

> <PUBCHEM_MMFF94_ENERGY>
45.3986

> <PUBCHEM_FEATURE_SELFOVERLAP>
71.307

> <PUBCHEM_SHAPE_FINGERPRINT>
10366900 7 13614516351105076911
10906281 52 18339098011337428537
11089746 13 16916774163413886729
12236239 1 17203610389165833047
12403259 415 18201434830618777736
13140716 1 18054499486034033608
13675066 3 18272647973856230993
13862211 1 18342171206783355974
14251764 18 18342742910481169129
14787075 74 18335701710367015618
14790565 3 18194406817124997396
15196674 1 18411699885142936650
15375358 24 18410293588480856035
15788980 27 16226045582988528095
1601671 61 18410856559935682396
17844677 252 18410299141668029801
17980427 23 17821736065104023359
19784866 170 18410014321011652045
200 152 17989201538753673913
20645477 70 18201999880811226326
21033648 29 18201426012929606512
21267235 1 18341338859032247966
21279426 13 18339362950779759462
21421861 104 17752479867553343650
21709351 56 18410569617359849549
23402539 116 17313377929201138303
23402655 69 18272930505347365308
23557571 272 17530959159608165820
23559900 14 18196368130909607818
26918003 58 18410008819031926034
296302 2 18411140221066155243
3004659 81 18260548897150663746
335352 9 18340205180854827398
34797466 226 15554443050130501864
34934 24 18339638949952781323
350125 39 18341051925879773027
3545911 37 18341895182520856273
4072396 5 18340474578868986650
4073 2 18113904883047871226
4214541 1 18410009927624137609
4340502 62 17022619789060865418
5104073 3 18410572877118558907
5283173 99 18262233305434956109
542803 24 18187083957666193116
59755656 215 18270403781073400430
633830 44 18259698999836325086
9709674 26 18198626531992678959

> <PUBCHEM_SHAPE_MULTIPOLES>
404.37
12.39
2.12
0.8
0.03
0.02
-0.03
-1.78
-0.17
-1.08
0.12
-0.04
0.01
0.33

> <PUBCHEM_SHAPE_SELFOVERLAP>
883.019

> <PUBCHEM_SHAPE_VOLUME>
216.9

> <PUBCHEM_COORDINATE_TYPE>
2
5
10

$$$$
