125582
  -OEChem-03292013323D

 28 29  0     0  0  0  0  0  0999 V2000
    1.1025    0.0486   -0.5467 O   0  0  0  0  0  0  0  0  0  0  0  0
    2.7794   -2.2594   -0.4843 O   0  0  0  0  0  0  0  0  0  0  0  0
    2.7648    2.3399   -0.1834 O   0  0  0  0  0  0  0  0  0  0  0  0
    0.7863   -0.1785    1.7229 O   0  0  0  0  0  0  0  0  0  0  0  0
    2.4622    0.0372   -0.3018 N   0  0  0  0  0  0  0  0  0  0  0  0
   -2.8322    0.0968   -1.3675 N   0  0  0  0  0  0  0  0  0  0  0  0
   -5.1082    0.0023   -0.6697 N   0  0  0  0  0  0  0  0  0  0  0  0
   -6.0597    0.1763    0.3030 N   0  0  0  0  0  0  0  0  0  0  0  0
    4.5927   -0.7454    0.0435 C   0  0  0  0  0  0  0  0  0  0  0  0
    4.5878    0.7815    0.1435 C   0  0  0  0  0  0  0  0  0  0  0  0
    3.1732   -1.1204   -0.2867 C   0  0  0  0  0  0  0  0  0  0  0  0
    3.1659    1.1875   -0.1358 C   0  0  0  0  0  0  0  0  0  0  0  0
   -1.1067   -0.0508    0.2793 C   0  0  0  0  0  0  0  0  0  0  0  0
    0.3455   -0.0677    0.5891 C   0  0  0  0  0  0  0  0  0  0  0  0
   -2.0242   -0.1633    1.2959 C   0  0  0  0  0  0  0  0  0  0  0  0
   -1.5264    0.0754   -1.0176 C   0  0  0  0  0  0  0  0  0  0  0  0
   -3.3771   -0.1455    0.9754 C   0  0  0  0  0  0  0  0  0  0  0  0
   -3.7258   -0.0146   -0.3591 C   0  0  0  0  0  0  0  0  0  0  0  0
    4.8863   -1.2048    0.9918 H   0  0  0  0  0  0  0  0  0  0  0  0
    5.2613   -1.0889   -0.7511 H   0  0  0  0  0  0  0  0  0  0  0  0
    5.2541    1.2299   -0.5992 H   0  0  0  0  0  0  0  0  0  0  0  0
    4.8787    1.1152    1.1437 H   0  0  0  0  0  0  0  0  0  0  0  0
   -1.7248   -0.2670    2.3343 H   0  0  0  0  0  0  0  0  0  0  0  0
   -0.8539    0.1680   -1.8629 H   0  0  0  0  0  0  0  0  0  0  0  0
   -4.0979   -0.2439    1.7798 H   0  0  0  0  0  0  0  0  0  0  0  0
   -5.3625    0.1329   -1.6414 H   0  0  0  0  0  0  0  0  0  0  0  0
   -6.9315   -0.2446   -0.0152 H   0  0  0  0  0  0  0  0  0  0  0  0
   -6.2486    1.1731    0.4011 H   0  0  0  0  0  0  0  0  0  0  0  0
  1  5  1  0  0  0  0
  1 14  1  0  0  0  0
  2 11  2  0  0  0  0
  3 12  2  0  0  0  0
  4 14  2  0  0  0  0
  5 11  1  0  0  0  0
  5 12  1  0  0  0  0
  6 16  1  0  0  0  0
  6 18  2  0  0  0  0
  7  8  1  0  0  0  0
  7 18  1  0  0  0  0
  7 26  1  0  0  0  0
  8 27  1  0  0  0  0
  8 28  1  0  0  0  0
  9 10  1  0  0  0  0
  9 11  1  0  0  0  0
  9 19  1  0  0  0  0
  9 20  1  0  0  0  0
 10 12  1  0  0  0  0
 10 21  1  0  0  0  0
 10 22  1  0  0  0  0
 13 14  1  0  0  0  0
 13 15  1  0  0  0  0
 13 16  2  0  0  0  0
 15 17  2  0  0  0  0
 15 23  1  0  0  0  0
 16 24  1  0  0  0  0
 17 18  1  0  0  0  0
 17 25  1  0  0  0  0
M  END
> <PUBCHEM_COMPOUND_CID>
125582

> <PUBCHEM_CONFORMER_RMSD>
0.6

> <PUBCHEM_CONFORMER_DIVERSEORDER>
1
51
20
22
36
64
66
43
57
11
53
6
68
27
42
54
2
30
52
49
23
39
28
7
40
19
45
24
47
5
31
46
70
29
26
37
67
3
17
38
61
12
44
4
50
62
59
10
48
25
9
56
21
63
16
55
8
73
14
58
75
69
34
33
71
13
35
60
32
74
72
65
41
18
15

> <PUBCHEM_MMFF94_PARTIAL_CHARGES>
24
1 -0.19
10 0.06
11 0.57
12 0.57
13 0.09
14 0.63
15 -0.15
16 0.16
17 -0.15
18 0.41
2 -0.57
23 0.15
24 0.15
25 0.15
26 0.4
27 0.36
28 0.36
3 -0.57
4 -0.57
5 -0.08
6 -0.62
7 -0.51
8 -0.71
9 0.06

> <PUBCHEM_EFFECTIVE_ROTOR_COUNT>
4.6

> <PUBCHEM_PHARMACOPHORE_FEATURES>
8
1 2 acceptor
1 3 acceptor
1 4 acceptor
1 7 donor
1 8 donor
3 6 7 18 cation
5 5 9 10 11 12 rings
6 6 13 15 16 17 18 rings

> <PUBCHEM_HEAVY_ATOM_COUNT>
18

> <PUBCHEM_ATOM_DEF_STEREO_COUNT>
0

> <PUBCHEM_ATOM_UDEF_STEREO_COUNT>
0

> <PUBCHEM_BOND_DEF_STEREO_COUNT>
0

> <PUBCHEM_BOND_UDEF_STEREO_COUNT>
0

> <PUBCHEM_ISOTOPIC_ATOM_COUNT>
0

> <PUBCHEM_COMPONENT_COUNT>
1

> <PUBCHEM_CACTVS_TAUTO_COUNT>
9

> <PUBCHEM_CONFORMER_ID>
0001EA8E00000001

> <PUBCHEM_MMFF94_ENERGY>
50.6556

> <PUBCHEM_FEATURE_SELFOVERLAP>
42.141

> <PUBCHEM_SHAPE_FINGERPRINT>
11287383 113 18335140925256147755
11471102 20 18410295822190683108
11543360 7 18340762745383502279
12107183 9 17409945625976500299
12236239 1 17632859724069591271
12916748 109 16877943819562901693
13533116 47 17704072845986079319
13760787 19 17917990615687200159
14115302 16 17704070733014643750
14386348 63 17676491639673395654
15848702 151 18410296878409707789
17834072 33 18342455980479293511
1813 80 17772206214995952102
18186145 218 17967537865293706984
200 152 18272931613443737224
20279233 1 17894917321270851986
20645477 56 17894350003651935271
20645477 70 18338517443760871198
23402539 116 17095238154976540595
23532345 1 18411704317733672600
23536379 177 18342458119578585801
23557571 272 17168141200499514815
23559900 14 17095529500204659982
26918003 58 18409168818118582074
300161 21 17561357379198380621
3060560 45 18342182176646554782
4047638 21 18260547844456284936
474 4 18128813239051268072
4990 188 17967814925070553811
5281201 14 18335702697934986020
542803 24 17561084708957419745
69090 78 18259703427768311266
7164475 11 17916031161602550584
7364860 26 16951388945672244114
7495541 125 17703785985425827803
8272917 22 18272375234911871326

> <PUBCHEM_SHAPE_MULTIPOLES>
327.03
11.01
1.3
1.13
6.93
0.08
-0.19
0.38
0.78
-2.15
0.17
0.74
-0.07
0.27

> <PUBCHEM_SHAPE_SELFOVERLAP>
701.115

> <PUBCHEM_SHAPE_VOLUME>
181.3

> <PUBCHEM_COORDINATE_TYPE>
2
5
10

$$$$
