125598
  -OEChem-03292013323D

 37 38  0     1  0  0  0  0  0999 V2000
    1.2574   -0.8416   -1.1904 O   0  0  0  0  0  0  0  0  0  0  0  0
    1.4631    0.9736    0.2461 O   0  0  0  0  0  0  0  0  0  0  0  0
   -0.2961   -2.3543    2.1854 O   0  0  0  0  0  0  0  0  0  0  0  0
   -1.8826    2.0650   -0.8009 O   0  0  0  0  0  0  0  0  0  0  0  0
    3.8671   -1.5346   -0.6468 O   0  0  0  0  0  0  0  0  0  0  0  0
    4.0958    0.7063   -0.2977 O   0  0  0  0  0  0  0  0  0  0  0  0
   -1.2648    4.1524    0.9539 O   0  0  0  0  0  0  0  0  0  0  0  0
   -3.0621   -2.1190   -1.3673 O   0  0  0  0  0  0  0  0  0  0  0  0
   -2.1014   -0.8243    0.3124 N   0  0  0  0  0  0  0  0  0  0  0  0
   -0.0612   -0.3007   -0.9882 C   0  0  1  0  0  0  0  0  0  0  0  0
   -0.7255   -1.1916    0.0845 C   0  0  1  0  0  0  0  0  0  0  0  0
    0.3182    1.1296   -0.6110 C   0  0  1  0  0  0  0  0  0  0  0  0
    1.9399   -0.3460   -0.0354 C   0  0  1  0  0  0  0  0  0  0  0  0
    0.0784   -1.2251    1.4013 C   0  0  2  0  0  0  0  0  0  0  0  0
    1.5922   -1.2616    1.1355 C   0  0  0  0  0  0  0  0  0  0  0  0
   -0.7395    1.9852    0.0532 C   0  0  1  0  0  0  0  0  0  0  0  0
    3.4039   -0.3005   -0.3311 C   0  0  0  0  0  0  0  0  0  0  0  0
   -0.2406    3.4049    0.3065 C   0  0  0  0  0  0  0  0  0  0  0  0
   -3.1553   -1.3224   -0.4371 C   0  0  0  0  0  0  0  0  0  0  0  0
   -4.4868   -0.7954    0.0268 C   0  0  0  0  0  0  0  0  0  0  0  0
   -0.6212   -0.3368   -1.9287 H   0  0  0  0  0  0  0  0  0  0  0  0
   -0.7337   -2.2188   -0.3074 H   0  0  0  0  0  0  0  0  0  0  0  0
    0.6790    1.6323   -1.5197 H   0  0  0  0  0  0  0  0  0  0  0  0
   -0.1547   -0.3369    2.0006 H   0  0  0  0  0  0  0  0  0  0  0  0
    2.1238   -0.9609    2.0468 H   0  0  0  0  0  0  0  0  0  0  0  0
    1.8945   -2.2958    0.9255 H   0  0  0  0  0  0  0  0  0  0  0  0
   -1.0579    1.5652    1.0111 H   0  0  0  0  0  0  0  0  0  0  0  0
   -2.3071   -0.1654    1.0573 H   0  0  0  0  0  0  0  0  0  0  0  0
    0.6515    3.4217    0.9398 H   0  0  0  0  0  0  0  0  0  0  0  0
   -0.0154    3.9166   -0.6346 H   0  0  0  0  0  0  0  0  0  0  0  0
    0.2401   -2.3381    2.9965 H   0  0  0  0  0  0  0  0  0  0  0  0
   -2.5440    2.6183   -0.3511 H   0  0  0  0  0  0  0  0  0  0  0  0
    4.8277   -1.5259   -0.8452 H   0  0  0  0  0  0  0  0  0  0  0  0
   -1.4501    3.7195    1.8047 H   0  0  0  0  0  0  0  0  0  0  0  0
   -5.2595   -1.0529   -0.7027 H   0  0  0  0  0  0  0  0  0  0  0  0
   -4.7395   -1.2420    0.9923 H   0  0  0  0  0  0  0  0  0  0  0  0
   -4.4490    0.2932    0.1270 H   0  0  0  0  0  0  0  0  0  0  0  0
  1 10  1  0  0  0  0
  1 13  1  0  0  0  0
  2 12  1  0  0  0  0
  2 13  1  0  0  0  0
  3 14  1  0  0  0  0
  3 31  1  0  0  0  0
  4 16  1  0  0  0  0
  4 32  1  0  0  0  0
  5 17  1  0  0  0  0
  5 33  1  0  0  0  0
  6 17  2  0  0  0  0
  7 18  1  0  0  0  0
  7 34  1  0  0  0  0
  8 19  2  0  0  0  0
  9 11  1  0  0  0  0
  9 19  1  0  0  0  0
  9 28  1  0  0  0  0
 10 11  1  0  0  0  0
 10 12  1  0  0  0  0
 10 21  1  0  0  0  0
 11 14  1  0  0  0  0
 11 22  1  0  0  0  0
 12 16  1  0  0  0  0
 12 23  1  0  0  0  0
 13 15  1  0  0  0  0
 13 17  1  0  0  0  0
 14 15  1  0  0  0  0
 14 24  1  0  0  0  0
 15 25  1  0  0  0  0
 15 26  1  0  0  0  0
 16 18  1  0  0  0  0
 16 27  1  0  0  0  0
 18 29  1  0  0  0  0
 18 30  1  0  0  0  0
 19 20  1  0  0  0  0
 20 35  1  0  0  0  0
 20 36  1  0  0  0  0
 20 37  1  0  0  0  0
M  END
> <PUBCHEM_COMPOUND_CID>
125598

> <PUBCHEM_CONFORMER_RMSD>
0.8

> <PUBCHEM_CONFORMER_DIVERSEORDER>
2
13
11
16
19
3
8
18
14
15
17
4
9
12
1
10
7
6
5

> <PUBCHEM_MMFF94_PARTIAL_CHARGES>
24
1 -0.56
10 0.28
11 0.3
12 0.28
13 0.62
14 0.28
16 0.28
17 0.66
18 0.28
19 0.57
2 -0.56
20 0.06
28 0.37
3 -0.68
31 0.4
32 0.4
33 0.5
34 0.4
4 -0.68
5 -0.65
6 -0.57
7 -0.68
8 -0.57
9 -0.73

> <PUBCHEM_EFFECTIVE_ROTOR_COUNT>
6.2

> <PUBCHEM_PHARMACOPHORE_FEATURES>
14
1 1 acceptor
1 2 acceptor
1 3 acceptor
1 3 donor
1 4 acceptor
1 4 donor
1 5 acceptor
1 6 acceptor
1 7 acceptor
1 7 donor
1 8 acceptor
1 9 donor
3 5 6 17 anion
8 1 2 10 11 12 13 14 15 rings

> <PUBCHEM_HEAVY_ATOM_COUNT>
20

> <PUBCHEM_ATOM_DEF_STEREO_COUNT>
4

> <PUBCHEM_ATOM_UDEF_STEREO_COUNT>
2

> <PUBCHEM_BOND_DEF_STEREO_COUNT>
0

> <PUBCHEM_BOND_UDEF_STEREO_COUNT>
0

> <PUBCHEM_ISOTOPIC_ATOM_COUNT>
0

> <PUBCHEM_COMPONENT_COUNT>
1

> <PUBCHEM_CACTVS_TAUTO_COUNT>
2

> <PUBCHEM_CONFORMER_ID>
0001EA9E00000002

> <PUBCHEM_MMFF94_ENERGY>
50.0473

> <PUBCHEM_FEATURE_SELFOVERLAP>
71.175

> <PUBCHEM_SHAPE_FINGERPRINT>
104564 63 18335700482180032885
10764073 3 14074907124442097781
108231 29 18262519315822687281
11578080 2 16843855647602881306
12788726 201 18408325484395090368
12954195 1 18125448514278715574
13132413 78 18261108565374635365
13134695 92 18268708488282001573
13464514 151 17976264852371561765
13538477 17 18046334250144686860
14178342 30 16395471211251657761
14617773 55 18116140074296778202
14787075 74 18262796410086074684
14817 1 14619696538332561801
14943834 7 17755849832011442691
15490181 7 17610907785711644252
16945 1 18125437514756687396
20510252 161 18335138678787889232
20600515 1 17968931032583804304
21029758 11 18338516455580503557
21041028 32 18266479748654247753
21501502 16 18118406146777566994
21524375 3 17758693143669841396
22112679 90 18270701830007120057
229495 10 17274807061499365492
23402539 116 18412539942170651462
23419403 2 14291924361034099139
23557571 272 18343310245079189772
23558518 356 18264217919954684972
23559900 14 17896042204172285206
25147074 1 17897449389745318922
2748010 2 18198036209986164636
3250762 1 17769388118700112038
34934 24 18411131425194685831
532947 4 17550674747952488524
6992083 37 18059030457335318715
7364860 26 17837207439242188917
7832392 63 18342172315217000311
81228 2 18262814994404179088

> <PUBCHEM_SHAPE_MULTIPOLES>
359.66
5.63
3.45
1.28
0.33
4.65
-0.39
-2.94
1.55
1.66
-1.13
0.12
-0.67
-0.36

> <PUBCHEM_SHAPE_SELFOVERLAP>
751.167

> <PUBCHEM_SHAPE_VOLUME>
201.8

> <PUBCHEM_COORDINATE_TYPE>
2
5
10

$$$$
