125500
  -OEChem-03292013323D

 24 23  0     1  0  0  0  0  0999 V2000
    2.9131   -0.5682    0.0978 F   0  0  0  0  0  0  0  0  0  0  0  0
    0.6528   -0.4542    1.5628 O   0  0  0  0  0  0  0  0  0  0  0  0
    0.3792   -2.0776   -1.6298 O   0  0  0  0  0  0  0  0  0  0  0  0
    0.5525   -2.8966    0.4799 O   0  0  0  0  0  0  0  0  0  0  0  0
    1.5801    2.4447   -1.0071 O   0  0  0  0  0  0  0  0  0  0  0  0
   -4.3401    0.1008    0.6224 O   0  0  0  0  0  0  0  0  0  0  0  0
    2.4885    2.0111    1.0274 O   0  0  0  0  0  0  0  0  0  0  0  0
   -3.2071    1.5307   -0.7297 O   0  0  0  0  0  0  0  0  0  0  0  0
    0.5644   -0.4752    0.1355 C   0  0  1  0  0  0  0  0  0  0  0  0
   -0.7327    0.2470   -0.2818 C   0  0  0  0  0  0  0  0  0  0  0  0
    1.8612    0.1532   -0.4004 C   0  0  1  0  0  0  0  0  0  0  0  0
   -2.0027   -0.2536    0.4102 C   0  0  0  0  0  0  0  0  0  0  0  0
    0.4890   -1.9422   -0.2834 C   0  0  0  0  0  0  0  0  0  0  0  0
    2.0145    1.6126   -0.0280 C   0  0  0  0  0  0  0  0  0  0  0  0
   -3.2127    0.5675    0.0242 C   0  0  0  0  0  0  0  0  0  0  0  0
   -0.8615    0.2028   -1.3708 H   0  0  0  0  0  0  0  0  0  0  0  0
   -0.6395    1.3109   -0.0289 H   0  0  0  0  0  0  0  0  0  0  0  0
    1.9264    0.0673   -1.4908 H   0  0  0  0  0  0  0  0  0  0  0  0
   -1.8947   -0.1894    1.4982 H   0  0  0  0  0  0  0  0  0  0  0  0
   -2.1975   -1.2941    0.1301 H   0  0  0  0  0  0  0  0  0  0  0  0
    1.5002   -0.8578    1.8180 H   0  0  0  0  0  0  0  0  0  0  0  0
    0.3471   -3.0197   -1.9012 H   0  0  0  0  0  0  0  0  0  0  0  0
    1.6878    3.3880   -0.7605 H   0  0  0  0  0  0  0  0  0  0  0  0
   -5.1297    0.6278    0.3753 H   0  0  0  0  0  0  0  0  0  0  0  0
  1 11  1  0  0  0  0
  2  9  1  0  0  0  0
  2 21  1  0  0  0  0
  3 13  1  0  0  0  0
  3 22  1  0  0  0  0
  4 13  2  0  0  0  0
  5 14  1  0  0  0  0
  5 23  1  0  0  0  0
  6 15  1  0  0  0  0
  6 24  1  0  0  0  0
  7 14  2  0  0  0  0
  8 15  2  0  0  0  0
  9 10  1  0  0  0  0
  9 11  1  0  0  0  0
  9 13  1  0  0  0  0
 10 12  1  0  0  0  0
 10 16  1  0  0  0  0
 10 17  1  0  0  0  0
 11 14  1  0  0  0  0
 11 18  1  0  0  0  0
 12 15  1  0  0  0  0
 12 19  1  0  0  0  0
 12 20  1  0  0  0  0
M  END
> <PUBCHEM_COMPOUND_CID>
125500

> <PUBCHEM_CONFORMER_RMSD>
0.6

> <PUBCHEM_CONFORMER_DIVERSEORDER>
1
100
122
56
124
140
173
27
145
174
137
162
17
101
165
2
151
45
103
90
108
76
170
171
19
50
53
155
60
142
152
7
112
175
8
169
11
136
3
74
180
117
35
143
36
176
159
123
127
20
179
6
66
119
105
25
130
111
83
114
158
99
109
28
126
121
138
43
97
150
131
9
58
147
15
78
102
148
144
61
139
57
113
96
167
146
157
4
38
49
134
160
107
120
172
84
163
34
118
40
149
88
46
132
129
156
125
14
93
178
128
80
133
115
154
94
168
18
30
161
92
77
39
67
73
37
87
85
42
135
63
70
81
153
62
164
141
41
91
24
82
98
54
69
33
116
68
95
106
72
64
23
21
47
89
65
177
104
16
44
59
86
110
166
13
55
12
52
75
5
71
31
10
32
26
51
22
79
29
48

> <PUBCHEM_MMFF94_PARTIAL_CHARGES>
18
1 -0.34
11 0.4
12 0.06
13 0.66
14 0.66
15 0.66
2 -0.68
21 0.4
22 0.5
23 0.5
24 0.5
3 -0.65
4 -0.57
5 -0.65
6 -0.65
7 -0.57
8 -0.57
9 0.34

> <PUBCHEM_EFFECTIVE_ROTOR_COUNT>
6

> <PUBCHEM_PHARMACOPHORE_FEATURES>
11
1 2 acceptor
1 2 donor
1 3 acceptor
1 4 acceptor
1 5 acceptor
1 6 acceptor
1 7 acceptor
1 8 acceptor
3 3 4 13 anion
3 5 7 14 anion
3 6 8 15 anion

> <PUBCHEM_HEAVY_ATOM_COUNT>
15

> <PUBCHEM_ATOM_DEF_STEREO_COUNT>
0

> <PUBCHEM_ATOM_UDEF_STEREO_COUNT>
2

> <PUBCHEM_BOND_DEF_STEREO_COUNT>
0

> <PUBCHEM_BOND_UDEF_STEREO_COUNT>
0

> <PUBCHEM_ISOTOPIC_ATOM_COUNT>
0

> <PUBCHEM_COMPONENT_COUNT>
1

> <PUBCHEM_CACTVS_TAUTO_COUNT>
1

> <PUBCHEM_CONFORMER_ID>
0001EA3C00000001

> <PUBCHEM_MMFF94_ENERGY>
17.3228

> <PUBCHEM_FEATURE_SELFOVERLAP>
56.01

> <PUBCHEM_SHAPE_FINGERPRINT>
1 1 18413106151893155798
10922049 32 18337400434198519094
13380536 305 18411707590567252502
14648413 74 18264209098012822073
15775835 57 18271527614531384429
16945 1 18337386045963222922
18186145 218 18059863895143034456
20511035 2 18268152135699091982
20645477 70 18198339564428004103
20671657 53 17839476491887281063
21028194 46 18411422842656761177
21524375 3 18269272524687984151
2748010 2 18338245984267534397
305870 269 18337098047110440392
3060560 45 18341894052216490102
58051976 378 18412259528630884215
7364860 26 18270400477742207559
81228 2 17476353276235432075

> <PUBCHEM_SHAPE_MULTIPOLES>
260.33
4.99
2.56
1.07
5.65
0.71
-0.02
-2.72
0.52
-1.57
-0.41
-0.21
0.11
0.28

> <PUBCHEM_SHAPE_SELFOVERLAP>
519.443

> <PUBCHEM_SHAPE_VOLUME>
151.8

> <PUBCHEM_COORDINATE_TYPE>
2
5
10

$$$$
