125596
  -OEChem-03292013323D

 58 60  0     1  0  0  0  0  0999 V2000
    1.3717   -4.5259   -0.5840 S   0  0  0  0  0  0  0  0  0  0  0  0
    2.8623    1.0325   -1.4357 O   0  0  0  0  0  0  0  0  0  0  0  0
    5.3738   -0.9877    0.1321 O   0  0  0  0  0  0  0  0  0  0  0  0
   -0.7584   -0.5301    1.5369 O   0  0  0  0  0  0  0  0  0  0  0  0
    4.9858    1.2937    0.1663 N   0  0  0  0  0  0  0  0  0  0  0  0
    1.6323    0.0859    0.2991 N   0  0  0  0  0  0  0  0  0  0  0  0
   -1.8438   -0.0899   -0.4965 N   0  0  0  0  0  0  0  0  0  0  0  0
    7.7811   -0.8675   -0.7190 N   0  0  0  0  0  0  0  0  0  0  0  0
    3.6754    1.2303    0.8000 C   0  0  1  0  0  0  0  0  0  0  0  0
    3.3955    2.6581    1.2547 C   0  0  0  0  0  0  0  0  0  0  0  0
    4.1640    3.5086    0.2463 C   0  0  0  0  0  0  0  0  0  0  0  0
    5.4063    2.6777   -0.0371 C   0  0  0  0  0  0  0  0  0  0  0  0
    2.7006    0.7778   -0.2452 C   0  0  0  0  0  0  0  0  0  0  0  0
    5.7633    0.1668   -0.0508 C   0  0  0  0  0  0  0  0  0  0  0  0
    0.5429   -0.4372   -0.4934 C   0  0  1  0  0  0  0  0  0  0  0  0
    0.8302   -1.8560   -1.0042 C   0  0  0  0  0  0  0  0  0  0  0  0
    7.1609    0.4286   -0.5526 C   0  0  0  0  0  0  0  0  0  0  0  0
   -0.7486   -0.3512    0.3221 C   0  0  0  0  0  0  0  0  0  0  0  0
    1.0369   -2.8810    0.1133 C   0  0  0  0  0  0  0  0  0  0  0  0
   -3.1965    0.0583   -0.1077 C   0  0  0  0  0  0  0  0  0  0  0  0
   -4.1546    0.3190   -1.0738 C   0  0  0  0  0  0  0  0  0  0  0  0
   -3.5323   -0.0596    1.2276 C   0  0  0  0  0  0  0  0  0  0  0  0
   -5.5010    0.4698   -0.7040 C   0  0  0  0  0  0  0  0  0  0  0  0
   -5.8617    0.3520    0.6593 C   0  0  0  0  0  0  0  0  0  0  0  0
   -4.8652    0.0869    1.6128 C   0  0  0  0  0  0  0  0  0  0  0  0
    1.5002   -5.4448    0.9666 C   0  0  0  0  0  0  0  0  0  0  0  0
   -6.4975    0.7345   -1.6577 C   0  0  0  0  0  0  0  0  0  0  0  0
   -7.2083    0.5028    1.0291 C   0  0  0  0  0  0  0  0  0  0  0  0
   -7.8304    0.8815   -1.2726 C   0  0  0  0  0  0  0  0  0  0  0  0
   -8.1850    0.7661    0.0682 C   0  0  0  0  0  0  0  0  0  0  0  0
    3.7025    0.5231    1.6362 H   0  0  0  0  0  0  0  0  0  0  0  0
    2.3316    2.9119    1.2838 H   0  0  0  0  0  0  0  0  0  0  0  0
    3.8147    2.8176    2.2556 H   0  0  0  0  0  0  0  0  0  0  0  0
    3.5729    3.6290   -0.6693 H   0  0  0  0  0  0  0  0  0  0  0  0
    4.4039    4.5056    0.6262 H   0  0  0  0  0  0  0  0  0  0  0  0
    5.7880    2.8237   -1.0512 H   0  0  0  0  0  0  0  0  0  0  0  0
    6.2036    2.8979    0.6810 H   0  0  0  0  0  0  0  0  0  0  0  0
    1.6065   -0.0723    1.3026 H   0  0  0  0  0  0  0  0  0  0  0  0
    0.4435    0.2180   -1.3685 H   0  0  0  0  0  0  0  0  0  0  0  0
   -0.0064   -2.1752   -1.6396 H   0  0  0  0  0  0  0  0  0  0  0  0
    1.7246   -1.8260   -1.6406 H   0  0  0  0  0  0  0  0  0  0  0  0
    7.7134    1.0190    0.1836 H   0  0  0  0  0  0  0  0  0  0  0  0
    7.1289    0.9596   -1.5079 H   0  0  0  0  0  0  0  0  0  0  0  0
    0.1412   -2.9520    0.7374 H   0  0  0  0  0  0  0  0  0  0  0  0
    1.8826   -2.5940    0.7459 H   0  0  0  0  0  0  0  0  0  0  0  0
   -1.6726    0.0076   -1.4949 H   0  0  0  0  0  0  0  0  0  0  0  0
    7.3009   -1.3916   -1.4499 H   0  0  0  0  0  0  0  0  0  0  0  0
    8.7391   -0.7462   -1.0452 H   0  0  0  0  0  0  0  0  0  0  0  0
   -3.8657    0.4075   -2.1195 H   0  0  0  0  0  0  0  0  0  0  0  0
   -2.8371   -0.2590    2.0293 H   0  0  0  0  0  0  0  0  0  0  0  0
   -5.1210   -0.0069    2.6663 H   0  0  0  0  0  0  0  0  0  0  0  0
    2.3144   -5.0483    1.5787 H   0  0  0  0  0  0  0  0  0  0  0  0
    1.7113   -6.4947    0.7467 H   0  0  0  0  0  0  0  0  0  0  0  0
    0.5605   -5.3891    1.5223 H   0  0  0  0  0  0  0  0  0  0  0  0
   -6.2433    0.8288   -2.7114 H   0  0  0  0  0  0  0  0  0  0  0  0
   -7.5084    0.4165    2.0714 H   0  0  0  0  0  0  0  0  0  0  0  0
   -8.5913    1.0863   -2.0201 H   0  0  0  0  0  0  0  0  0  0  0  0
   -9.2228    0.8808    0.3674 H   0  0  0  0  0  0  0  0  0  0  0  0
  1 19  1  0  0  0  0
  1 26  1  0  0  0  0
  2 13  2  0  0  0  0
  3 14  2  0  0  0  0
  4 18  2  0  0  0  0
  5  9  1  0  0  0  0
  5 12  1  0  0  0  0
  5 14  1  0  0  0  0
  6 13  1  0  0  0  0
  6 15  1  0  0  0  0
  6 38  1  0  0  0  0
  7 18  1  0  0  0  0
  7 20  1  0  0  0  0
  7 46  1  0  0  0  0
  8 17  1  0  0  0  0
  8 47  1  0  0  0  0
  8 48  1  0  0  0  0
  9 10  1  0  0  0  0
  9 13  1  0  0  0  0
  9 31  1  0  0  0  0
 10 11  1  0  0  0  0
 10 32  1  0  0  0  0
 10 33  1  0  0  0  0
 11 12  1  0  0  0  0
 11 34  1  0  0  0  0
 11 35  1  0  0  0  0
 12 36  1  0  0  0  0
 12 37  1  0  0  0  0
 14 17  1  0  0  0  0
 15 16  1  0  0  0  0
 15 18  1  0  0  0  0
 15 39  1  0  0  0  0
 16 19  1  0  0  0  0
 16 40  1  0  0  0  0
 16 41  1  0  0  0  0
 17 42  1  0  0  0  0
 17 43  1  0  0  0  0
 19 44  1  0  0  0  0
 19 45  1  0  0  0  0
 20 21  2  0  0  0  0
 20 22  1  0  0  0  0
 21 23  1  0  0  0  0
 21 49  1  0  0  0  0
 22 25  2  0  0  0  0
 22 50  1  0  0  0  0
 23 24  1  0  0  0  0
 23 27  2  0  0  0  0
 24 25  1  0  0  0  0
 24 28  2  0  0  0  0
 25 51  1  0  0  0  0
 26 52  1  0  0  0  0
 26 53  1  0  0  0  0
 26 54  1  0  0  0  0
 27 29  1  0  0  0  0
 27 55  1  0  0  0  0
 28 30  1  0  0  0  0
 28 56  1  0  0  0  0
 29 30  2  0  0  0  0
 29 57  1  0  0  0  0
 30 58  1  0  0  0  0
M  END
> <PUBCHEM_COMPOUND_CID>
125596

> <PUBCHEM_CONFORMER_RMSD>
1

> <PUBCHEM_CONFORMER_DIVERSEORDER>
1
216
58
133
138
222
95
203
6
126
234
98
191
178
123
175
64
200
73
70
218
209
239
110
211
82
160
128
185
34
225
215
210
196
15
122
236
179
3
158
214
59
168
147
136
51
224
7
183
181
9
99
221
105
174
40
157
4
186
206
250
143
148
68
22
108
150
238
86
220
12
11
228
231
120
159
217
219
61
25
258
188
249
208
213
52
97
30
80
139
107
119
243
20
230
142
13
167
23
134
19
235
66
92
46
155
56
48
141
241
170
44
8
144
104
57
146
88
193
202
91
106
53
182
162
166
79
242
49
207
103
198
131
212
223
71
38
90
85
67
149
113
227
197
129
251
29
121
45
245
96
35
24
177
151
94
199
244
247
47
114
26
135
205
184
14
102
232
171
63
173
115
180
132
42
153
83
161
237
27
233
156
124
32
253
259
172
87
16
137
201
36
78
101
254
190
260
54
76
17
145
248
21
72
33
116
257
41
164
31
69
226
240
100
163
117
204
127
165
62
43
28
255
154
111
112
81
229
65
152
74
37
194
55
50
195
246
18
60
84
187
140
93
169
5
192
75
2
125
252
118
89
10
189
256
77
109
39
176
130

> <PUBCHEM_MMFF94_PARTIAL_CHARGES>
36
1 -0.46
12 0.3
13 0.57
14 0.57
15 0.36
17 0.33
18 0.57
19 0.23
2 -0.57
20 0.12
21 -0.15
22 -0.15
25 -0.15
26 0.23
27 -0.15
28 -0.15
29 -0.15
3 -0.57
30 -0.15
38 0.37
4 -0.57
46 0.37
47 0.36
48 0.36
49 0.15
5 -0.66
50 0.15
51 0.15
55 0.15
56 0.15
57 0.15
58 0.15
6 -0.73
7 -0.55
8 -0.99
9 0.36

> <PUBCHEM_EFFECTIVE_ROTOR_COUNT>
12

> <PUBCHEM_PHARMACOPHORE_FEATURES>
11
1 2 acceptor
1 26 hydrophobe
1 3 acceptor
1 4 acceptor
1 6 donor
1 7 donor
1 8 cation
1 8 donor
5 5 9 10 11 12 rings
6 20 21 22 23 24 25 rings
6 23 24 27 28 29 30 rings

> <PUBCHEM_HEAVY_ATOM_COUNT>
30

> <PUBCHEM_ATOM_DEF_STEREO_COUNT>
2

> <PUBCHEM_ATOM_UDEF_STEREO_COUNT>
0

> <PUBCHEM_BOND_DEF_STEREO_COUNT>
0

> <PUBCHEM_BOND_UDEF_STEREO_COUNT>
0

> <PUBCHEM_ISOTOPIC_ATOM_COUNT>
0

> <PUBCHEM_COMPONENT_COUNT>
1

> <PUBCHEM_CACTVS_TAUTO_COUNT>
4

> <PUBCHEM_CONFORMER_ID>
0001EA9C00000001

> <PUBCHEM_MMFF94_ENERGY>
81.6011

> <PUBCHEM_FEATURE_SELFOVERLAP>
55.847

> <PUBCHEM_SHAPE_FINGERPRINT>
10 15 15140676978193035941
10319926 262 16660646306132426833
10763959 59 18187080693576133204
11135926 11 18342739603198342335
11719270 70 18335420153527495859
11991303 11 18263087772014645622
12516196 113 9007064564582524136
12597179 24 18260834808254299851
13685833 64 9295292746486274869
13955234 65 18337951186719665771
14150023 79 18334292041691760731
15183329 4 16415205602260371081
15328829 1 17489017176307536679
15419008 47 18040994033648819133
15461852 350 16950279646763662895
18335252 114 18343860030636744636
1979834 28 18186525406086474133
20567600 254 18333168375504762059
20721686 124 18261668190591658219
21033648 29 18266447892655408192
21049683 118 18126542717322055466
21403212 168 18412259528615170258
23559900 14 17459763523475178607
23845131 108 18336264634319102891
249057 25 16917080965886861664
249057 3 18272370893322030814
255183 451 17700139798910971598
2838139 119 18272652355145437641
3178227 256 18409166589505445498
335352 9 18272375278800313724
3633792 109 18272652355430008184
4093350 32 18261950752795598251
58902169 19 17775279504213787117
59755656 215 18335420127984181854
59755656 520 18273210928199871095
6669772 16 18187646865214163859
6679774 75 18188192248914999130

> <PUBCHEM_SHAPE_MULTIPOLES>
583.7
22.34
4.16
1.33
18.1
7.27
0.06
-13.16
-3.39
-8.03
0.84
1.59
-0.03
0.86

> <PUBCHEM_SHAPE_SELFOVERLAP>
1216.998

> <PUBCHEM_SHAPE_VOLUME>
332.9

> <PUBCHEM_COORDINATE_TYPE>
2
5
10

$$$$
