125567
  -OEChem-03292013323D

 48 48  0     0  0  0  0  0  0999 V2000
   -3.2580    2.0925    0.6495 O   0  0  0  0  0  0  0  0  0  0  0  0
    3.6975    1.8651   -0.1936 O   0  0  0  0  0  0  0  0  0  0  0  0
   -1.5330   -2.8614    1.2600 O   0  0  0  0  0  0  0  0  0  0  0  0
   -2.1148    1.9570   -1.3501 O   0  0  0  0  0  0  0  0  0  0  0  0
    2.5283    1.1208    1.6511 O   0  0  0  0  0  0  0  0  0  0  0  0
   -4.6337    0.7827   -0.8227 O   0  0  0  0  0  0  0  0  0  0  0  0
    4.9130   -0.0276    0.6525 O   0  0  0  0  0  0  0  0  0  0  0  0
   -4.4051   -0.5276    1.0666 O   0  0  0  0  0  0  0  0  0  0  0  0
    4.5635   -0.5201   -1.5777 O   0  0  0  0  0  0  0  0  0  0  0  0
    0.2045    1.4842    0.1494 N   0  0  0  0  0  0  0  0  0  0  0  0
    0.1115    0.1078   -0.1058 C   0  0  0  0  0  0  0  0  0  0  0  0
   -0.9262    2.1918    0.7547 C   0  0  0  0  0  0  0  0  0  0  0  0
    1.3904    2.2335   -0.1833 C   0  0  0  0  0  0  0  0  0  0  0  0
   -0.6740   -0.7021    0.7143 C   0  0  0  0  0  0  0  0  0  0  0  0
    0.8047   -0.4505   -1.1797 C   0  0  0  0  0  0  0  0  0  0  0  0
   -0.7664   -2.0705    0.4602 C   0  0  0  0  0  0  0  0  0  0  0  0
   -2.1375    2.0663   -0.1317 C   0  0  0  0  0  0  0  0  0  0  0  0
    2.5735    1.6677    0.5577 C   0  0  0  0  0  0  0  0  0  0  0  0
    0.7124   -1.8189   -1.4337 C   0  0  0  0  0  0  0  0  0  0  0  0
   -0.0732   -2.6289   -0.6138 C   0  0  0  0  0  0  0  0  0  0  0  0
   -4.5154    1.9804   -0.0375 C   0  0  0  0  0  0  0  0  0  0  0  0
    4.9297    1.3804    0.3653 C   0  0  0  0  0  0  0  0  0  0  0  0
   -1.5824   -4.2516    0.9429 C   0  0  0  0  0  0  0  0  0  0  0  0
   -4.5605   -0.3949   -0.1397 C   0  0  0  0  0  0  0  0  0  0  0  0
    4.7212   -0.8571   -0.4122 C   0  0  0  0  0  0  0  0  0  0  0  0
   -4.6958   -1.5383   -1.0987 C   0  0  0  0  0  0  0  0  0  0  0  0
    4.7257   -2.2806    0.0560 C   0  0  0  0  0  0  0  0  0  0  0  0
   -0.7199    3.2634    0.8588 H   0  0  0  0  0  0  0  0  0  0  0  0
   -1.1278    1.8134    1.7622 H   0  0  0  0  0  0  0  0  0  0  0  0
    1.3078    3.2857    0.1132 H   0  0  0  0  0  0  0  0  0  0  0  0
    1.5656    2.2280   -1.2645 H   0  0  0  0  0  0  0  0  0  0  0  0
   -1.2144   -0.3084    1.5696 H   0  0  0  0  0  0  0  0  0  0  0  0
    1.4150    0.1460   -1.8505 H   0  0  0  0  0  0  0  0  0  0  0  0
    1.2509   -2.2526   -2.2714 H   0  0  0  0  0  0  0  0  0  0  0  0
   -0.1008   -3.6828   -0.8683 H   0  0  0  0  0  0  0  0  0  0  0  0
   -4.6422    2.8435   -0.7001 H   0  0  0  0  0  0  0  0  0  0  0  0
   -5.3207    2.0100    0.7047 H   0  0  0  0  0  0  0  0  0  0  0  0
    5.1415    1.9213    1.2940 H   0  0  0  0  0  0  0  0  0  0  0  0
    5.7402    1.5985   -0.3388 H   0  0  0  0  0  0  0  0  0  0  0  0
   -2.2365   -4.7280    1.6806 H   0  0  0  0  0  0  0  0  0  0  0  0
   -0.5976   -4.7215    1.0377 H   0  0  0  0  0  0  0  0  0  0  0  0
   -2.0321   -4.4236   -0.0410 H   0  0  0  0  0  0  0  0  0  0  0  0
   -4.6364   -2.4817   -0.5480 H   0  0  0  0  0  0  0  0  0  0  0  0
   -3.8803   -1.5095   -1.8259 H   0  0  0  0  0  0  0  0  0  0  0  0
   -5.6644   -1.4887   -1.6021 H   0  0  0  0  0  0  0  0  0  0  0  0
    5.6869   -2.5164    0.5195 H   0  0  0  0  0  0  0  0  0  0  0  0
    4.5802   -2.9443   -0.8012 H   0  0  0  0  0  0  0  0  0  0  0  0
    3.9068   -2.4401    0.7621 H   0  0  0  0  0  0  0  0  0  0  0  0
  1 17  1  0  0  0  0
  1 21  1  0  0  0  0
  2 18  1  0  0  0  0
  2 22  1  0  0  0  0
  3 16  1  0  0  0  0
  3 23  1  0  0  0  0
  4 17  2  0  0  0  0
  5 18  2  0  0  0  0
  6 21  1  0  0  0  0
  6 24  1  0  0  0  0
  7 22  1  0  0  0  0
  7 25  1  0  0  0  0
  8 24  2  0  0  0  0
  9 25  2  0  0  0  0
 10 11  1  0  0  0  0
 10 12  1  0  0  0  0
 10 13  1  0  0  0  0
 11 14  2  0  0  0  0
 11 15  1  0  0  0  0
 12 17  1  0  0  0  0
 12 28  1  0  0  0  0
 12 29  1  0  0  0  0
 13 18  1  0  0  0  0
 13 30  1  0  0  0  0
 13 31  1  0  0  0  0
 14 16  1  0  0  0  0
 14 32  1  0  0  0  0
 15 19  2  0  0  0  0
 15 33  1  0  0  0  0
 16 20  2  0  0  0  0
 19 20  1  0  0  0  0
 19 34  1  0  0  0  0
 20 35  1  0  0  0  0
 21 36  1  0  0  0  0
 21 37  1  0  0  0  0
 22 38  1  0  0  0  0
 22 39  1  0  0  0  0
 23 40  1  0  0  0  0
 23 41  1  0  0  0  0
 23 42  1  0  0  0  0
 24 26  1  0  0  0  0
 25 27  1  0  0  0  0
 26 43  1  0  0  0  0
 26 44  1  0  0  0  0
 26 45  1  0  0  0  0
 27 46  1  0  0  0  0
 27 47  1  0  0  0  0
 27 48  1  0  0  0  0
M  END
> <PUBCHEM_COMPOUND_CID>
125567

> <PUBCHEM_CONFORMER_RMSD>
1.2

> <PUBCHEM_CONFORMER_DIVERSEORDER>
2
82
5
102
49
36
54
89
97
52
66
20
79
56
26
58
38
70
59
94
77
11
62
30
99
71
75
67
86
37
83
10
53
45
39
21
100
16
85
47
32
51
93
15
13
68
74
48
72
25
31
12
61
69
76
65
98
78
81
87
19
91
41
88
84
43
17
23
80
40
96
35
50
60
101
42
64
57
7
4
28
95
90
63
46
44
103
29
92
9
34
18
22
3
73
55
14
1
33
24
27
8
6

> <PUBCHEM_MMFF94_PARTIAL_CHARGES>
31
1 -0.43
10 -0.84
11 0.1
12 0.43
13 0.43
14 -0.15
15 -0.15
16 0.08
17 0.66
18 0.66
19 -0.15
2 -0.43
20 -0.15
21 0.56
22 0.56
23 0.28
24 0.66
25 0.66
26 0.06
27 0.06
3 -0.36
32 0.15
33 0.15
34 0.15
35 0.15
4 -0.57
5 -0.57
6 -0.43
7 -0.43
8 -0.57
9 -0.57

> <PUBCHEM_EFFECTIVE_ROTOR_COUNT>
14

> <PUBCHEM_PHARMACOPHORE_FEATURES>
7
1 10 cation
1 3 acceptor
1 4 acceptor
1 5 acceptor
1 8 acceptor
1 9 acceptor
6 11 14 15 16 19 20 rings

> <PUBCHEM_HEAVY_ATOM_COUNT>
27

> <PUBCHEM_ATOM_DEF_STEREO_COUNT>
0

> <PUBCHEM_ATOM_UDEF_STEREO_COUNT>
0

> <PUBCHEM_BOND_DEF_STEREO_COUNT>
0

> <PUBCHEM_BOND_UDEF_STEREO_COUNT>
0

> <PUBCHEM_ISOTOPIC_ATOM_COUNT>
0

> <PUBCHEM_COMPONENT_COUNT>
1

> <PUBCHEM_CACTVS_TAUTO_COUNT>
1

> <PUBCHEM_CONFORMER_ID>
0001EA7F00000002

> <PUBCHEM_MMFF94_ENERGY>
71.7207

> <PUBCHEM_FEATURE_SELFOVERLAP>
35.524

> <PUBCHEM_SHAPE_FINGERPRINT>
10675989 125 14956011122459085598
10838868 158 18044110161524325899
12035758 1 18412832390777903474
12553582 1 17692530431321963046
13140716 1 17835245919425950377
13402501 40 18413392029158499789
13583140 156 15866360222422273396
14251751 93 18342448223462564389
14787075 74 18342173319590403879
15256400 18 18411699910833378794
17349148 13 18342465832670150732
17980427 23 16008749057284435717
19591789 44 18337951195082168698
20197701 30 18338789039974807684
21279426 13 18339360760272397190
23559900 14 18338800143088013264
3383291 50 18268706109424910458
392239 28 18269280053728841547
59755656 215 18267581308744566653
6138700 20 18196936561615494550

> <PUBCHEM_SHAPE_MULTIPOLES>
497.84
10.46
3.97
1.24
3.26
2.61
0.11
-1.07
0.84
-1.5
-0.85
-0.02
0.37
0.84

> <PUBCHEM_SHAPE_SELFOVERLAP>
1015.241

> <PUBCHEM_SHAPE_VOLUME>
284.9

> <PUBCHEM_COORDINATE_TYPE>
2
5
10

$$$$
