125650
  -OEChem-03292013323D

 45 47  0     1  0  0  0  0  0999 V2000
    3.5813    0.0606    0.7262 S   0  0  0  0  0  0  0  0  0  0  0  0
    0.7246   -1.0407    0.9823 O   0  0  0  0  0  0  0  0  0  0  0  0
   -1.3617   -2.8949   -1.2826 O   0  0  0  0  0  0  0  0  0  0  0  0
    0.5326   -4.0099    0.3154 O   0  0  0  0  0  0  0  0  0  0  0  0
   -1.2753   -0.0617    0.1625 N   0  0  0  0  0  0  0  0  0  0  0  0
   -1.6039    2.0951   -0.2792 N   0  0  0  0  0  0  0  0  0  0  0  0
   -5.1637    1.1791    0.1807 N   0  0  0  0  0  0  0  0  0  0  0  0
   -4.3285    3.3538   -0.3498 N   0  0  0  0  0  0  0  0  0  0  0  0
   -0.2655   -2.0921   -0.8946 C   0  0  2  0  0  0  0  0  0  0  0  0
    0.9481   -2.9027   -0.4842 C   0  0  1  0  0  0  0  0  0  0  0  0
   -0.5551   -1.3142    0.3800 C   0  0  1  0  0  0  0  0  0  0  0  0
    1.7129   -1.9196    0.3966 C   0  0  1  0  0  0  0  0  0  0  0  0
    2.7065   -1.0715   -0.3849 C   0  0  0  0  0  0  0  0  0  0  0  0
   -2.6340    0.1256    0.2217 C   0  0  0  0  0  0  0  0  0  0  0  0
   -0.7054    1.1459   -0.1400 C   0  0  0  0  0  0  0  0  0  0  0  0
   -2.8121    1.4770   -0.0569 C   0  0  0  0  0  0  0  0  0  0  0  0
    4.6341    0.8746   -0.4976 C   0  0  0  0  0  0  0  0  0  0  0  0
    5.6194    1.9121    0.0676 C   0  0  0  0  0  0  0  0  0  0  0  0
   -3.6872   -0.7391    0.4856 C   0  0  0  0  0  0  0  0  0  0  0  0
   -4.1085    1.9925   -0.0725 C   0  0  0  0  0  0  0  0  0  0  0  0
    6.5752    1.3172    1.1038 C   0  0  0  0  0  0  0  0  0  0  0  0
    6.3999    2.6441   -1.0262 C   0  0  0  0  0  0  0  0  0  0  0  0
   -4.9336   -0.1309    0.4461 C   0  0  0  0  0  0  0  0  0  0  0  0
   -0.0126   -1.4201   -1.7228 H   0  0  0  0  0  0  0  0  0  0  0  0
    1.5146   -3.2962   -1.3329 H   0  0  0  0  0  0  0  0  0  0  0  0
   -1.1388   -1.8987    1.1011 H   0  0  0  0  0  0  0  0  0  0  0  0
    2.2178   -2.4419    1.2184 H   0  0  0  0  0  0  0  0  0  0  0  0
    2.1914   -0.4678   -1.1391 H   0  0  0  0  0  0  0  0  0  0  0  0
    3.4366   -1.7151   -0.8857 H   0  0  0  0  0  0  0  0  0  0  0  0
   -1.5482   -3.5187   -0.5604 H   0  0  0  0  0  0  0  0  0  0  0  0
    1.3347   -4.4846    0.5927 H   0  0  0  0  0  0  0  0  0  0  0  0
    0.3618    1.2782   -0.2529 H   0  0  0  0  0  0  0  0  0  0  0  0
    3.9803    1.3668   -1.2265 H   0  0  0  0  0  0  0  0  0  0  0  0
    5.1988    0.1025   -1.0328 H   0  0  0  0  0  0  0  0  0  0  0  0
    5.0266    2.6799    0.5846 H   0  0  0  0  0  0  0  0  0  0  0  0
   -3.5573   -1.7908    0.7011 H   0  0  0  0  0  0  0  0  0  0  0  0
    7.1530    0.4909    0.6759 H   0  0  0  0  0  0  0  0  0  0  0  0
    7.2844    2.0747    1.4557 H   0  0  0  0  0  0  0  0  0  0  0  0
    6.0445    0.9438    1.9845 H   0  0  0  0  0  0  0  0  0  0  0  0
    7.0360    1.9497   -1.5854 H   0  0  0  0  0  0  0  0  0  0  0  0
    7.0396    3.4228   -0.5977 H   0  0  0  0  0  0  0  0  0  0  0  0
    5.7166    3.1237   -1.7347 H   0  0  0  0  0  0  0  0  0  0  0  0
   -5.8292   -0.7151    0.6373 H   0  0  0  0  0  0  0  0  0  0  0  0
   -5.2748    3.7092   -0.3560 H   0  0  0  0  0  0  0  0  0  0  0  0
   -3.5488    3.9689   -0.5394 H   0  0  0  0  0  0  0  0  0  0  0  0
  1 13  1  0  0  0  0
  1 17  1  0  0  0  0
  2 11  1  0  0  0  0
  2 12  1  0  0  0  0
  3  9  1  0  0  0  0
  3 30  1  0  0  0  0
  4 10  1  0  0  0  0
  4 31  1  0  0  0  0
  5 11  1  0  0  0  0
  5 14  1  0  0  0  0
  5 15  1  0  0  0  0
  6 15  2  0  0  0  0
  6 16  1  0  0  0  0
  7 20  2  0  0  0  0
  7 23  1  0  0  0  0
  8 20  1  0  0  0  0
  8 44  1  0  0  0  0
  8 45  1  0  0  0  0
  9 10  1  0  0  0  0
  9 11  1  0  0  0  0
  9 24  1  0  0  0  0
 10 12  1  0  0  0  0
 10 25  1  0  0  0  0
 11 26  1  0  0  0  0
 12 13  1  0  0  0  0
 12 27  1  0  0  0  0
 13 28  1  0  0  0  0
 13 29  1  0  0  0  0
 14 16  2  0  0  0  0
 14 19  1  0  0  0  0
 15 32  1  0  0  0  0
 16 20  1  0  0  0  0
 17 18  1  0  0  0  0
 17 33  1  0  0  0  0
 17 34  1  0  0  0  0
 18 21  1  0  0  0  0
 18 22  1  0  0  0  0
 18 35  1  0  0  0  0
 19 23  2  0  0  0  0
 19 36  1  0  0  0  0
 21 37  1  0  0  0  0
 21 38  1  0  0  0  0
 21 39  1  0  0  0  0
 22 40  1  0  0  0  0
 22 41  1  0  0  0  0
 22 42  1  0  0  0  0
 23 43  1  0  0  0  0
M  END
> <PUBCHEM_COMPOUND_CID>
125650

> <PUBCHEM_CONFORMER_RMSD>
0.8

> <PUBCHEM_CONFORMER_DIVERSEORDER>
3
48
57
34
9
60
30
56
37
39
28
55
10
47
31
33
13
19
59
45
26
21
54
40
62
53
18
50
24
15
41
36
6
7
63
8
23
44
64
42
38
27
51
2
20
49
35
25
43
29
46
14
11
52
17
16
58
61
22
12
4
32
1
5

> <PUBCHEM_MMFF94_PARTIAL_CHARGES>
27
1 -0.46
10 0.28
11 0.54
12 0.28
13 0.23
14 -0.15
15 0.04
16 0.23
17 0.23
19 -0.15
2 -0.56
20 0.41
23 0.16
3 -0.68
30 0.4
31 0.4
32 0.15
36 0.15
4 -0.68
43 0.15
44 0.4
45 0.4
5 0.05
6 -0.57
7 -0.62
8 -0.9
9 0.28

> <PUBCHEM_EFFECTIVE_ROTOR_COUNT>
6

> <PUBCHEM_PHARMACOPHORE_FEATURES>
13
1 2 acceptor
1 3 acceptor
1 3 donor
1 4 acceptor
1 4 donor
1 8 donor
3 18 21 22 hydrophobe
3 5 6 15 cation
3 7 8 20 cation
4 1 13 17 18 hydrophobe
5 2 9 10 11 12 rings
5 5 6 14 15 16 rings
6 7 14 16 19 20 23 rings

> <PUBCHEM_HEAVY_ATOM_COUNT>
23

> <PUBCHEM_ATOM_DEF_STEREO_COUNT>
4

> <PUBCHEM_ATOM_UDEF_STEREO_COUNT>
0

> <PUBCHEM_BOND_DEF_STEREO_COUNT>
0

> <PUBCHEM_BOND_UDEF_STEREO_COUNT>
0

> <PUBCHEM_ISOTOPIC_ATOM_COUNT>
0

> <PUBCHEM_COMPONENT_COUNT>
1

> <PUBCHEM_CACTVS_TAUTO_COUNT>
2

> <PUBCHEM_CONFORMER_ID>
0001EAD200000003

> <PUBCHEM_MMFF94_ENERGY>
53.4341

> <PUBCHEM_FEATURE_SELFOVERLAP>
66.111

> <PUBCHEM_SHAPE_FINGERPRINT>
10493431 412 18410855486272661492
10871710 139 18340481291628875679
12390115 104 18271538566882294040
12596602 18 17023180595836512744
12788726 201 18047741883017286146
12895836 83 18340767152194333536
12895837 130 18046633567160058268
14251764 75 18341622473066605512
14257110 125 18408887347816744092
1454969 45 18340201999086160919
14790565 3 18411422808403147968
14840074 17 17676490596661442972
15196674 1 18408886200664798176
16087824 20 18341046437503224887
17980427 23 17894635872190591685
18785283 64 18264766554925196210
21302155 148 18409446999066593952
21756936 100 18340760550908519070
22620623 9 16916210230018716414
23227448 37 18269837678371124228
23559900 14 17905606601744621955
245318 6 17605577615581781036
2838139 119 18342448275498076348
34797466 226 18059299747410618213
508706 21 17911787279132846536
5104073 3 18115594725441050849
550186 72 18409165545718194525
59682541 52 16558479591401047948
6327066 14 18409445912603600004
67856867 119 18190458255693917298
7288768 16 17895475929445087914
7808743 9 18411415159324129170
9709674 26 17765435340898550023
9981440 41 18333455343491775154

> <PUBCHEM_SHAPE_MULTIPOLES>
439.65
13.38
3.94
0.93
15.86
1.75
0.03
-14.67
-0.86
-0.4
0.9
0.71
0.14
-0.32

> <PUBCHEM_SHAPE_SELFOVERLAP>
914.981

> <PUBCHEM_SHAPE_VOLUME>
254.9

> <PUBCHEM_COORDINATE_TYPE>
2
5
10

$$$$
