125666
  -OEChem-03292013323D

 38 40  0     1  0  0  0  0  0999 V2000
   -3.9719    0.6626   -0.7001 O   0  0  0  0  0  0  0  0  0  0  0  0
   -4.2885   -0.3118    1.4388 O   0  0  0  0  0  0  0  0  0  0  0  0
   -0.1689   -2.4768   -0.1139 O   0  0  0  0  0  0  0  0  0  0  0  0
   -0.4450    2.8622    0.0514 O   0  0  0  0  0  0  0  0  0  0  0  0
    2.3691   -2.4390    0.1822 O   0  0  0  0  0  0  0  0  0  0  0  0
    2.1141    3.0755    0.0979 O   0  0  0  0  0  0  0  0  0  0  0  0
    4.6349   -0.9251    0.3079 O   0  0  0  0  0  0  0  0  0  0  0  0
   -1.5352   -0.5212    0.2842 C   0  0  1  0  0  0  0  0  0  0  0  0
   -1.5459    0.7842   -0.5080 C   0  0  1  0  0  0  0  0  0  0  0  0
   -2.7581   -1.3626   -0.0984 C   0  0  0  0  0  0  0  0  0  0  0  0
   -4.0566   -0.5554    0.0496 C   0  0  2  0  0  0  0  0  0  0  0  0
   -2.8814    1.4995   -0.3159 C   0  0  0  0  0  0  0  0  0  0  0  0
   -0.2317   -1.2613    0.0364 C   0  0  0  0  0  0  0  0  0  0  0  0
   -0.3669    1.6477   -0.0979 C   0  0  0  0  0  0  0  0  0  0  0  0
    1.0055   -0.4432    0.0651 C   0  0  0  0  0  0  0  0  0  0  0  0
    0.9376    0.9556    0.0431 C   0  0  0  0  0  0  0  0  0  0  0  0
   -5.2342   -1.3537   -0.5098 C   0  0  0  0  0  0  0  0  0  0  0  0
    2.2484   -1.0803    0.1483 C   0  0  0  0  0  0  0  0  0  0  0  0
    2.1117    1.7126    0.1232 C   0  0  0  0  0  0  0  0  0  0  0  0
    3.4163   -0.3204    0.2215 C   0  0  0  0  0  0  0  0  0  0  0  0
    3.3480    1.0720    0.2129 C   0  0  0  0  0  0  0  0  0  0  0  0
    5.2989   -1.2212   -0.9186 C   0  0  0  0  0  0  0  0  0  0  0  0
   -1.5710   -0.3132    1.3631 H   0  0  0  0  0  0  0  0  0  0  0  0
   -1.4246    0.5641   -1.5784 H   0  0  0  0  0  0  0  0  0  0  0  0
   -2.6450   -1.6968   -1.1385 H   0  0  0  0  0  0  0  0  0  0  0  0
   -2.7946   -2.2603    0.5317 H   0  0  0  0  0  0  0  0  0  0  0  0
   -3.0192    1.8347    0.7194 H   0  0  0  0  0  0  0  0  0  0  0  0
   -2.9230    2.3957   -0.9448 H   0  0  0  0  0  0  0  0  0  0  0  0
   -6.1643   -0.7803   -0.4198 H   0  0  0  0  0  0  0  0  0  0  0  0
   -5.0970   -1.5742   -1.5738 H   0  0  0  0  0  0  0  0  0  0  0  0
   -5.3761   -2.2915    0.0374 H   0  0  0  0  0  0  0  0  0  0  0  0
   -5.2414   -0.1723    1.5695 H   0  0  0  0  0  0  0  0  0  0  0  0
    4.2667    1.6512    0.2720 H   0  0  0  0  0  0  0  0  0  0  0  0
    3.3056   -2.6720    0.3021 H   0  0  0  0  0  0  0  0  0  0  0  0
    3.0282    3.4012    0.1607 H   0  0  0  0  0  0  0  0  0  0  0  0
    6.2313   -1.7429   -0.6861 H   0  0  0  0  0  0  0  0  0  0  0  0
    5.5393   -0.2974   -1.4543 H   0  0  0  0  0  0  0  0  0  0  0  0
    4.6830   -1.8702   -1.5492 H   0  0  0  0  0  0  0  0  0  0  0  0
  1 11  1  0  0  0  0
  1 12  1  0  0  0  0
  2 11  1  0  0  0  0
  2 32  1  0  0  0  0
  3 13  2  0  0  0  0
  4 14  2  0  0  0  0
  5 18  1  0  0  0  0
  5 34  1  0  0  0  0
  6 19  1  0  0  0  0
  6 35  1  0  0  0  0
  7 20  1  0  0  0  0
  7 22  1  0  0  0  0
  8  9  1  0  0  0  0
  8 10  1  0  0  0  0
  8 13  1  0  0  0  0
  8 23  1  0  0  0  0
  9 12  1  0  0  0  0
  9 14  1  0  0  0  0
  9 24  1  0  0  0  0
 10 11  1  0  0  0  0
 10 25  1  0  0  0  0
 10 26  1  0  0  0  0
 11 17  1  0  0  0  0
 12 27  1  0  0  0  0
 12 28  1  0  0  0  0
 13 15  1  0  0  0  0
 14 16  1  0  0  0  0
 15 16  2  0  0  0  0
 15 18  1  0  0  0  0
 16 19  1  0  0  0  0
 17 29  1  0  0  0  0
 17 30  1  0  0  0  0
 17 31  1  0  0  0  0
 18 20  2  0  0  0  0
 19 21  2  0  0  0  0
 20 21  1  0  0  0  0
 21 33  1  0  0  0  0
 22 36  1  0  0  0  0
 22 37  1  0  0  0  0
 22 38  1  0  0  0  0
M  END
> <PUBCHEM_COMPOUND_CID>
125666

> <PUBCHEM_CONFORMER_RMSD>
0.6

> <PUBCHEM_CONFORMER_DIVERSEORDER>
1
2

> <PUBCHEM_MMFF94_PARTIAL_CHARGES>
24
1 -0.56
11 0.56
12 0.28
13 0.42
14 0.42
15 0.09
16 0.09
18 0.08
19 0.08
2 -0.68
20 0.08
21 -0.15
22 0.28
3 -0.57
32 0.4
33 0.15
34 0.45
35 0.45
4 -0.57
5 -0.53
6 -0.53
7 -0.36
8 0.06
9 0.06

> <PUBCHEM_EFFECTIVE_ROTOR_COUNT>
1.8

> <PUBCHEM_PHARMACOPHORE_FEATURES>
11
1 1 acceptor
1 2 acceptor
1 2 donor
1 3 acceptor
1 4 acceptor
1 5 donor
1 6 donor
1 7 acceptor
6 1 8 9 10 11 12 rings
6 15 16 18 19 20 21 rings
6 8 9 13 14 15 16 rings

> <PUBCHEM_HEAVY_ATOM_COUNT>
22

> <PUBCHEM_ATOM_DEF_STEREO_COUNT>
3

> <PUBCHEM_ATOM_UDEF_STEREO_COUNT>
0

> <PUBCHEM_BOND_DEF_STEREO_COUNT>
0

> <PUBCHEM_BOND_UDEF_STEREO_COUNT>
0

> <PUBCHEM_ISOTOPIC_ATOM_COUNT>
0

> <PUBCHEM_COMPONENT_COUNT>
1

> <PUBCHEM_CACTVS_TAUTO_COUNT>
98

> <PUBCHEM_CONFORMER_ID>
0001EAE200000001

> <PUBCHEM_MMFF94_ENERGY>
73.6002

> <PUBCHEM_FEATURE_SELFOVERLAP>
55.9

> <PUBCHEM_SHAPE_FINGERPRINT>
10366900 7 17894915130726781051
10616163 171 18339641127258354031
10967382 1 18338232781580439848
11471102 20 18410007775523606492
11578080 2 16663447659495637135
11680986 33 18191309483751486601
12011746 2 18408322168253134894
12032990 46 18410011043883111357
12236239 1 17775567567980896459
12403259 226 18409158900865457372
12403259 415 18260259755188104493
12553582 1 18410846647151039790
13140716 1 18193831763905828266
13288520 33 18412264999875815950
138480 1 18410291445392811276
13862211 1 18410006620409993186
14787075 74 18187369826421035778
14790565 3 18410022043743217076
15196674 1 18410290319799708173
15536298 74 18341890831217805960
15848702 151 17846506897873010871
16945 1 18410568479436076272
17804303 29 18408605850795452340
18186145 218 18343867727233287707
19591789 44 18338234972029805959
200 152 18202559583848206859
20028762 73 18130219462704673471
20645477 70 18263353836600569061
20739085 24 18263103105137407033
21029758 27 18260274039879864316
21267235 1 18410862066094181975
221357 26 18409442588182368133
221490 88 18335706103923081818
22182313 1 18190158205004841460
23184049 59 18340772632123930603
2334 1 18410007775518513621
23402539 116 18342731897240900087
23463225 33 18409164424251051901
23559900 14 18410565206344332408
2748010 2 18336817650081097085
2871803 45 18333725823267440951
3004659 81 18114748127985810878
335352 9 18410572851322341925
350125 39 18408889529212049405
5104073 3 18410570686701309081
59755656 215 18336263449297928215
7364860 26 18340203106844948728
8809292 202 18260269667666506098
9709674 26 18264207083261742675
9981440 41 17188678183621103136

> <PUBCHEM_SHAPE_MULTIPOLES>
411.66
9.3
2.67
0.77
1.43
1.04
-0.04
-3.77
0.8
-1.07
0.06
0.24
-0.07
0.33

> <PUBCHEM_SHAPE_SELFOVERLAP>
904.054

> <PUBCHEM_SHAPE_VOLUME>
219.4

> <PUBCHEM_COORDINATE_TYPE>
2
5
10

$$$$
