125696
  -OEChem-03292013323D

 31 31  0     1  0  0  0  0  0999 V2000
   -2.4161    1.3828    0.4819 P   0  0  2  0  0  0  0  0  0  0  0  0
   -3.7581   -1.1377   -0.2248 P   0  0  0  0  0  0  0  0  0  0  0  0
   -0.9438    0.7129    0.5267 O   0  0  0  0  0  0  0  0  0  0  0  0
   -3.2857    0.3908   -0.4526 O   0  0  0  0  0  0  0  0  0  0  0  0
    4.5469    0.6884    0.2887 O   0  0  0  0  0  0  0  0  0  0  0  0
   -2.2331    2.6976   -0.4427 O   0  0  0  0  0  0  0  0  0  0  0  0
   -3.0255    1.6521    1.8273 O   0  0  0  0  0  0  0  0  0  0  0  0
    3.0892    2.7076   -0.7175 O   0  0  0  0  0  0  0  0  0  0  0  0
   -4.7229   -1.4159   -1.4914 O   0  0  0  0  0  0  0  0  0  0  0  0
   -4.7866   -1.0294    1.0173 O   0  0  0  0  0  0  0  0  0  0  0  0
   -2.6378   -2.1193   -0.0462 O   0  0  0  0  0  0  0  0  0  0  0  0
    2.3309   -2.2006    0.0806 N   0  0  0  0  0  0  0  0  0  0  0  0
    1.0670   -0.1966   -0.3551 C   0  0  0  0  0  0  0  0  0  0  0  0
   -0.2655    0.4114   -0.6806 C   0  0  0  0  0  0  0  0  0  0  0  0
    2.2023    0.5790   -0.1881 C   0  0  0  0  0  0  0  0  0  0  0  0
    3.4110   -0.0378    0.1153 C   0  0  0  0  0  0  0  0  0  0  0  0
    3.4220   -1.4179    0.2378 C   0  0  0  0  0  0  0  0  0  0  0  0
    1.1741   -1.5657   -0.2139 C   0  0  0  0  0  0  0  0  0  0  0  0
    4.6933   -2.1311    0.5630 C   0  0  0  0  0  0  0  0  0  0  0  0
    2.1384    2.0296   -0.3256 C   0  0  0  0  0  0  0  0  0  0  0  0
   -0.1723    1.3045   -1.3064 H   0  0  0  0  0  0  0  0  0  0  0  0
   -0.8628   -0.3004   -1.2617 H   0  0  0  0  0  0  0  0  0  0  0  0
    0.3176   -2.2213   -0.3324 H   0  0  0  0  0  0  0  0  0  0  0  0
    5.0831   -1.8078    1.5336 H   0  0  0  0  0  0  0  0  0  0  0  0
    4.5265   -3.2124    0.6222 H   0  0  0  0  0  0  0  0  0  0  0  0
    5.4453   -1.9592   -0.2139 H   0  0  0  0  0  0  0  0  0  0  0  0
    1.1843    2.5226   -0.0789 H   0  0  0  0  0  0  0  0  0  0  0  0
    5.3036    0.1183    0.4944 H   0  0  0  0  0  0  0  0  0  0  0  0
   -1.8459    3.5065   -0.0454 H   0  0  0  0  0  0  0  0  0  0  0  0
   -5.0761   -2.3206   -1.6296 H   0  0  0  0  0  0  0  0  0  0  0  0
   -5.1556   -1.8531    1.4015 H   0  0  0  0  0  0  0  0  0  0  0  0
  1  3  1  0  0  0  0
  1  4  1  0  0  0  0
  1  6  1  0  0  0  0
  1  7  2  0  0  0  0
  2  4  1  0  0  0  0
  2  9  1  0  0  0  0
  2 10  1  0  0  0  0
  2 11  2  0  0  0  0
  3 14  1  0  0  0  0
  5 16  1  0  0  0  0
  5 28  1  0  0  0  0
  6 29  1  0  0  0  0
  8 20  2  0  0  0  0
  9 30  1  0  0  0  0
 10 31  1  0  0  0  0
 12 17  2  0  0  0  0
 12 18  1  0  0  0  0
 13 14  1  0  0  0  0
 13 15  1  0  0  0  0
 13 18  2  0  0  0  0
 14 21  1  0  0  0  0
 14 22  1  0  0  0  0
 15 16  2  0  0  0  0
 15 20  1  0  0  0  0
 16 17  1  0  0  0  0
 17 19  1  0  0  0  0
 18 23  1  0  0  0  0
 19 24  1  0  0  0  0
 19 25  1  0  0  0  0
 19 26  1  0  0  0  0
 20 27  1  0  0  0  0
M  END
> <PUBCHEM_COMPOUND_CID>
125696

> <PUBCHEM_CONFORMER_RMSD>
0.8

> <PUBCHEM_CONFORMER_DIVERSEORDER>
1
24
39
19
5
43
7
35
33
18
23
41
37
27
25
40
9
20
26
13
6
14
29
8
34
4
15
42
36
2
44
46
28
38
22
21
11
16
3
30
10
17
12
45
31
32

> <PUBCHEM_MMFF94_PARTIAL_CHARGES>
26
1 1.51
10 -0.77
11 -0.7
12 -0.62
13 -0.14
14 0.42
15 0.09
16 0.08
17 0.17
18 0.16
19 0.14
2 1.51
20 0.42
23 0.15
27 0.06
28 0.45
29 0.5
3 -0.55
30 0.5
31 0.5
4 -0.54
5 -0.53
6 -0.77
7 -0.7
8 -0.57
9 -0.77

> <PUBCHEM_EFFECTIVE_ROTOR_COUNT>
6

> <PUBCHEM_PHARMACOPHORE_FEATURES>
10
1 10 acceptor
1 11 acceptor
1 12 acceptor
1 5 donor
1 6 acceptor
1 7 acceptor
1 8 acceptor
1 9 acceptor
4 2 9 10 11 anion
6 12 13 15 16 17 18 rings

> <PUBCHEM_HEAVY_ATOM_COUNT>
20

> <PUBCHEM_ATOM_DEF_STEREO_COUNT>
0

> <PUBCHEM_ATOM_UDEF_STEREO_COUNT>
0

> <PUBCHEM_BOND_DEF_STEREO_COUNT>
0

> <PUBCHEM_BOND_UDEF_STEREO_COUNT>
0

> <PUBCHEM_ISOTOPIC_ATOM_COUNT>
0

> <PUBCHEM_COMPONENT_COUNT>
1

> <PUBCHEM_CACTVS_TAUTO_COUNT>
4

> <PUBCHEM_CONFORMER_ID>
0001EB0000000001

> <PUBCHEM_MMFF94_ENERGY>
-6.5675

> <PUBCHEM_FEATURE_SELFOVERLAP>
50.797

> <PUBCHEM_SHAPE_FINGERPRINT>
10616163 171 18342179994207328999
12633257 1 18268719311589278081
12916754 54 18408042905432501205
13009979 54 18129954360385231904
14178342 30 18057330474313019283
14341114 176 18412268332701969690
15196674 1 18410571764716903014
15375462 189 18201443640055325635
15442244 35 18337953394295412694
17492 89 18410013212863286091
19050596 39 18343588429989723041
200 152 18342449361934632071
20645477 70 18114177579100586474
21267235 1 18411144606333766198
21501502 16 18412552006691399377
21524375 3 18126574642056779772
221490 88 18334581252172999050
22959321 4 18408604777011248302
23503953 91 18129388111612032201
23557571 272 17060350586502374616
23559900 14 18410845551638668504
23598288 3 17846492596085485429
23622692 118 18341323431556959919
312423 11 18339375114058439957
3286 77 18260265235608162900
350125 39 18338516469124918332
5104073 3 18340484474288793562
5283173 99 18188754064933172045
58051976 100 18263084331945690789
58051976 378 18339923813484570038
602551 16 15769200777859169423
9709674 26 18410579465699162591

> <PUBCHEM_SHAPE_MULTIPOLES>
361.48
9.82
2.83
0.98
2.98
0.72
-0.15
-3.75
-0.81
-0.6
0.15
0.99
0.12
-1.27

> <PUBCHEM_SHAPE_SELFOVERLAP>
718.543

> <PUBCHEM_SHAPE_VOLUME>
216.7

> <PUBCHEM_COORDINATE_TYPE>
2
5
10

$$$$
