125618
  -OEChem-03292013323D

 32 33  0     1  0  0  0  0  0999 V2000
   -1.7977    2.5337   -0.1383 F   0  0  0  0  0  0  0  0  0  0  0  0
   -3.3050    1.4680   -1.2979 F   0  0  0  0  0  0  0  0  0  0  0  0
   -3.4763    1.5780    0.8724 F   0  0  0  0  0  0  0  0  0  0  0  0
    2.0130    0.2635    1.0108 O   0  0  0  0  0  0  0  0  0  0  0  0
    4.6021   -0.8143   -0.2169 O   0  0  0  0  0  0  0  0  0  0  0  0
    1.9640    3.0505    0.7210 O   0  0  0  0  0  0  0  0  0  0  0  0
    0.1897   -3.3184    0.3062 O   0  0  0  0  0  0  0  0  0  0  0  0
    0.2318   -1.0171    0.1969 N   0  0  0  0  0  0  0  0  0  0  0  0
   -1.8047   -2.2589    0.0998 N   0  0  0  0  0  0  0  0  0  0  0  0
   -3.8563   -1.2167   -0.1107 N   0  0  0  0  0  0  0  0  0  0  0  0
    3.5561   -0.0166   -0.7673 C   0  0  1  0  0  0  0  0  0  0  0  0
    1.6591   -0.9339    0.3042 C   0  0  1  0  0  0  0  0  0  0  0  0
    2.3499   -0.8825   -1.0488 C   0  0  0  0  0  0  0  0  0  0  0  0
    3.0424    0.9596    0.2817 C   0  0  1  0  0  0  0  0  0  0  0  0
    2.4212    2.2104   -0.3264 C   0  0  0  0  0  0  0  0  0  0  0  0
   -0.4736    0.1582    0.0836 C   0  0  0  0  0  0  0  0  0  0  0  0
   -0.4268   -2.2561    0.2064 C   0  0  0  0  0  0  0  0  0  0  0  0
   -1.8049    0.1901   -0.0218 C   0  0  0  0  0  0  0  0  0  0  0  0
   -2.4842   -1.1451   -0.0082 C   0  0  0  0  0  0  0  0  0  0  0  0
   -2.5998    1.4475   -0.1466 C   0  0  0  0  0  0  0  0  0  0  0  0
    3.9529    0.4778   -1.6588 H   0  0  0  0  0  0  0  0  0  0  0  0
    2.0405   -1.7786    0.8900 H   0  0  0  0  0  0  0  0  0  0  0  0
    1.7143   -0.3966   -1.7991 H   0  0  0  0  0  0  0  0  0  0  0  0
    2.5936   -1.8854   -1.4134 H   0  0  0  0  0  0  0  0  0  0  0  0
    3.8156    1.2364    1.0070 H   0  0  0  0  0  0  0  0  0  0  0  0
    1.5886    1.9941   -0.9994 H   0  0  0  0  0  0  0  0  0  0  0  0
    3.1775    2.7625   -0.8946 H   0  0  0  0  0  0  0  0  0  0  0  0
    0.0679    1.0885    0.0887 H   0  0  0  0  0  0  0  0  0  0  0  0
    4.8613   -1.4617   -0.8946 H   0  0  0  0  0  0  0  0  0  0  0  0
    1.5876    3.8456    0.3066 H   0  0  0  0  0  0  0  0  0  0  0  0
   -4.4387   -0.3907   -0.1961 H   0  0  0  0  0  0  0  0  0  0  0  0
   -4.3299   -2.1138   -0.1022 H   0  0  0  0  0  0  0  0  0  0  0  0
  1 20  1  0  0  0  0
  2 20  1  0  0  0  0
  3 20  1  0  0  0  0
  4 12  1  0  0  0  0
  4 14  1  0  0  0  0
  5 11  1  0  0  0  0
  5 29  1  0  0  0  0
  6 15  1  0  0  0  0
  6 30  1  0  0  0  0
  7 17  2  0  0  0  0
  8 12  1  0  0  0  0
  8 16  1  0  0  0  0
  8 17  1  0  0  0  0
  9 17  1  0  0  0  0
  9 19  2  0  0  0  0
 10 19  1  0  0  0  0
 10 31  1  0  0  0  0
 10 32  1  0  0  0  0
 11 13  1  0  0  0  0
 11 14  1  0  0  0  0
 11 21  1  0  0  0  0
 12 13  1  0  0  0  0
 12 22  1  0  0  0  0
 13 23  1  0  0  0  0
 13 24  1  0  0  0  0
 14 15  1  0  0  0  0
 14 25  1  0  0  0  0
 15 26  1  0  0  0  0
 15 27  1  0  0  0  0
 16 18  2  0  0  0  0
 16 28  1  0  0  0  0
 18 19  1  0  0  0  0
 18 20  1  0  0  0  0
M  END
> <PUBCHEM_COMPOUND_CID>
125618

> <PUBCHEM_CONFORMER_RMSD>
0.6

> <PUBCHEM_CONFORMER_DIVERSEORDER>
1
8
14
13
9
12
10
5
4
2
11
7
6
3

> <PUBCHEM_MMFF94_PARTIAL_CHARGES>
24
1 -0.34
10 -0.85
11 0.28
12 0.58
14 0.28
15 0.28
16 -0.04
17 0.84
18 -0.12
19 0.49
2 -0.34
20 1.16
28 0.15
29 0.4
3 -0.34
30 0.4
31 0.4
32 0.4
4 -0.56
5 -0.68
6 -0.68
7 -0.57
8 -0.47
9 -0.66

> <PUBCHEM_EFFECTIVE_ROTOR_COUNT>
4

> <PUBCHEM_PHARMACOPHORE_FEATURES>
10
1 10 donor
1 4 acceptor
1 5 acceptor
1 5 donor
1 6 acceptor
1 6 donor
1 7 acceptor
1 9 donor
5 4 11 12 13 14 rings
6 8 9 16 17 18 19 rings

> <PUBCHEM_HEAVY_ATOM_COUNT>
20

> <PUBCHEM_ATOM_DEF_STEREO_COUNT>
3

> <PUBCHEM_ATOM_UDEF_STEREO_COUNT>
0

> <PUBCHEM_BOND_DEF_STEREO_COUNT>
0

> <PUBCHEM_BOND_UDEF_STEREO_COUNT>
0

> <PUBCHEM_ISOTOPIC_ATOM_COUNT>
0

> <PUBCHEM_COMPONENT_COUNT>
1

> <PUBCHEM_CACTVS_TAUTO_COUNT>
3

> <PUBCHEM_CONFORMER_ID>
0001EAB200000001

> <PUBCHEM_MMFF94_ENERGY>
47.6204

> <PUBCHEM_FEATURE_SELFOVERLAP>
50.801

> <PUBCHEM_SHAPE_FINGERPRINT>
10498660 4 18334852797211805853
10608611 8 18340486789334252448
10967382 1 18194402186669613170
12173636 292 18337669818837017119
12403259 226 18410574006832178414
12403260 363 18339352054537588502
13140716 1 18410576192997140025
15442244 35 18408884045023667274
15775835 57 18114184090476605612
16945 1 18266172825637371385
17802600 8 18410008875019410068
18186145 218 18342178834333667008
18219364 16 18335145232924080017
19591789 44 18338520845501258371
20233049 118 18262237716772109380
20510252 161 18340207509022565803
21501502 16 18339367486539439556
21524375 3 18261112945845923835
23114952 82 17986135086949993340
2334 1 18337669840385888121
23402539 116 18270959051635735326
23557571 272 17832715942927831422
23558518 356 18263085581380156346
23559900 14 18342174531330460746
25 1 18266745683795657342
2748010 2 18337105773809457157
3084891 72 18268148648344058946
350125 39 18337962275955387105
7364860 26 18050285868975751615
74978 22 18410009953240837152
7832392 63 18340769234747043488
81228 2 18046346610934211299
9709674 26 18269840985390752342
9925002 15 15105775584013110678

> <PUBCHEM_SHAPE_MULTIPOLES>
351.35
6.66
3.13
0.85
0.97
0.24
-0.09
1.41
-0.81
-0.65
0.32
0.12
0.16
0.46

> <PUBCHEM_SHAPE_SELFOVERLAP>
747.467

> <PUBCHEM_SHAPE_VOLUME>
196.7

> <PUBCHEM_COORDINATE_TYPE>
2
5
10

$$$$
