125612
  -OEChem-03292013323D

 37 37  0     1  0  0  0  0  0999 V2000
   -1.5698   -5.8009    0.2011 Br  0  0  0  0  0  0  0  0  0  0  0  0
   -5.1503    3.3205    0.2542 Cl  0  0  0  0  0  0  0  0  0  0  0  0
   -5.9200    0.6181   -0.5436 Cl  0  0  0  0  0  0  0  0  0  0  0  0
   -0.2437    2.1766    1.6524 O   0  0  0  0  0  0  0  0  0  0  0  0
   -1.2686   -1.7518    0.2279 O   0  0  0  0  0  0  0  0  0  0  0  0
   -3.2338    1.7419   -1.5983 O   0  0  0  0  0  0  0  0  0  0  0  0
   -0.9890   -3.3387   -1.4184 O   0  0  0  0  0  0  0  0  0  0  0  0
    6.1628   -0.3689    0.1069 O   0  5  0  0  0  0  0  0  0  0  0  0
    5.8505    1.2016   -1.3949 O   0  0  0  0  0  0  0  0  0  0  0  0
   -2.4110    0.9148    0.4051 N   0  0  0  0  0  0  0  0  0  0  0  0
    5.4238    0.4606   -0.4766 N   0  3  0  0  0  0  0  0  0  0  0  0
   -1.0616    0.6668   -0.0658 C   0  0  1  0  0  0  0  0  0  0  0  0
   -0.0627    0.8712    1.0936 C   0  0  1  0  0  0  0  0  0  0  0  0
   -0.9960   -0.7216   -0.7133 C   0  0  0  0  0  0  0  0  0  0  0  0
    1.3875    0.7638    0.6796 C   0  0  0  0  0  0  0  0  0  0  0  0
    2.2281   -0.1502    1.3149 C   0  0  0  0  0  0  0  0  0  0  0  0
    1.8843    1.5775   -0.3386 C   0  0  0  0  0  0  0  0  0  0  0  0
   -3.3924    1.4387   -0.4167 C   0  0  0  0  0  0  0  0  0  0  0  0
    3.5657   -0.2504    0.9322 C   0  0  0  0  0  0  0  0  0  0  0  0
    3.2218    1.4774   -0.7214 C   0  0  0  0  0  0  0  0  0  0  0  0
    4.0625    0.5635   -0.0860 C   0  0  0  0  0  0  0  0  0  0  0  0
   -4.7134    1.6047    0.2972 C   0  0  0  0  0  0  0  0  0  0  0  0
   -1.2332   -3.0350   -0.2595 C   0  0  0  0  0  0  0  0  0  0  0  0
   -1.5416   -3.9801    0.8680 C   0  0  0  0  0  0  0  0  0  0  0  0
   -0.8669    1.4113   -0.8474 H   0  0  0  0  0  0  0  0  0  0  0  0
   -0.2776    0.1577    1.8990 H   0  0  0  0  0  0  0  0  0  0  0  0
   -0.0033   -0.8849   -1.1491 H   0  0  0  0  0  0  0  0  0  0  0  0
   -1.7331   -0.7834   -1.5241 H   0  0  0  0  0  0  0  0  0  0  0  0
   -2.6486    0.6212    1.3480 H   0  0  0  0  0  0  0  0  0  0  0  0
    1.8543   -0.7915    2.1086 H   0  0  0  0  0  0  0  0  0  0  0  0
    1.2498    2.3041   -0.8382 H   0  0  0  0  0  0  0  0  0  0  0  0
   -1.1764    2.2545    1.9159 H   0  0  0  0  0  0  0  0  0  0  0  0
    4.1911   -0.9740    1.4488 H   0  0  0  0  0  0  0  0  0  0  0  0
    3.5748    2.1290   -1.5167 H   0  0  0  0  0  0  0  0  0  0  0  0
   -4.6724    1.2852    1.3415 H   0  0  0  0  0  0  0  0  0  0  0  0
   -2.5320   -3.7776    1.2804 H   0  0  0  0  0  0  0  0  0  0  0  0
   -0.7658   -3.9303    1.6344 H   0  0  0  0  0  0  0  0  0  0  0  0
  1 24  1  0  0  0  0
  2 22  1  0  0  0  0
  3 22  1  0  0  0  0
  4 13  1  0  0  0  0
  4 32  1  0  0  0  0
  5 14  1  0  0  0  0
  5 23  1  0  0  0  0
  6 18  2  0  0  0  0
  7 23  2  0  0  0  0
  8 11  1  0  0  0  0
  9 11  2  0  0  0  0
 10 12  1  0  0  0  0
 10 18  1  0  0  0  0
 10 29  1  0  0  0  0
 11 21  1  0  0  0  0
 12 13  1  0  0  0  0
 12 14  1  0  0  0  0
 12 25  1  0  0  0  0
 13 15  1  0  0  0  0
 13 26  1  0  0  0  0
 14 27  1  0  0  0  0
 14 28  1  0  0  0  0
 15 16  2  0  0  0  0
 15 17  1  0  0  0  0
 16 19  1  0  0  0  0
 16 30  1  0  0  0  0
 17 20  2  0  0  0  0
 17 31  1  0  0  0  0
 18 22  1  0  0  0  0
 19 21  2  0  0  0  0
 19 33  1  0  0  0  0
 20 21  1  0  0  0  0
 20 34  1  0  0  0  0
 22 35  1  0  0  0  0
 23 24  1  0  0  0  0
 24 36  1  0  0  0  0
 24 37  1  0  0  0  0
M  CHG  2   8  -1  11   1
M  END
> <PUBCHEM_COMPOUND_CID>
125612

> <PUBCHEM_CONFORMER_RMSD>
1

> <PUBCHEM_CONFORMER_DIVERSEORDER>
1
31
19
7
12
30
27
29
33
16
26
14
18
36
34
5
25
13
6
10
2
21
4
8
37
9
15
23
20
17
28
3
22
35
24
11
32

> <PUBCHEM_MMFF94_PARTIAL_CHARGES>
30
1 -0.23
10 -0.73
11 0.91
12 0.3
13 0.42
14 0.28
15 -0.14
16 -0.15
17 -0.15
18 0.57
19 -0.15
2 -0.29
20 -0.15
21 0.13
22 0.64
23 0.66
24 0.29
29 0.37
3 -0.29
30 0.15
31 0.15
32 0.4
33 0.15
34 0.15
4 -0.68
5 -0.43
6 -0.57
7 -0.57
8 -0.52
9 -0.52

> <PUBCHEM_EFFECTIVE_ROTOR_COUNT>
10

> <PUBCHEM_PHARMACOPHORE_FEATURES>
10
1 1 hydrophobe
1 10 donor
1 4 acceptor
1 4 donor
1 6 acceptor
1 7 acceptor
1 8 acceptor
1 8 anion
1 9 acceptor
6 15 16 17 19 20 21 rings

> <PUBCHEM_HEAVY_ATOM_COUNT>
24

> <PUBCHEM_ATOM_DEF_STEREO_COUNT>
2

> <PUBCHEM_ATOM_UDEF_STEREO_COUNT>
0

> <PUBCHEM_BOND_DEF_STEREO_COUNT>
0

> <PUBCHEM_BOND_UDEF_STEREO_COUNT>
0

> <PUBCHEM_ISOTOPIC_ATOM_COUNT>
0

> <PUBCHEM_COMPONENT_COUNT>
1

> <PUBCHEM_CACTVS_TAUTO_COUNT>
2

> <PUBCHEM_CONFORMER_ID>
0001EAAC00000001

> <PUBCHEM_MMFF94_ENERGY>
50.8033

> <PUBCHEM_FEATURE_SELFOVERLAP>
50.832

> <PUBCHEM_SHAPE_FINGERPRINT>
107951 10 18412830170153724118
11991303 11 18114175385042802887
12236239 1 18336265652510883240
12293681 160 17917428662087479905
12549972 3 17773866687442399290
12788726 201 18118394271071941163
13540713 4 17914893382111573072
14115302 16 18413388756852856408
14251757 5 18339645671281349963
14790565 3 18338519629561972017
14866123 147 18339078297802296891
15927050 60 18412261701473788815
16752209 62 18269258214189718099
19427546 20 18191876836637262612
20645476 183 18409726265997279429
20681677 155 18411696599967657160
21033650 10 17416152528087854616
21120745 212 17830470731620098989
22849339 104 18339659926504756678
22956985 138 17903625295072255035
23366157 5 17689722961255443497
23402539 116 18059570252540383124
23558518 356 17971756833306966816
23559900 14 13973381570386136400
23598288 3 18042984248552323323
26918003 58 12247671682165217501
340366 18 18259991495778278220
3759504 43 18409729560506240271
4058900 60 18194129516666237257
59025328 239 16406440514617792103
59554788 281 18199483090078834388
59755656 520 18411133628328279639
81228 2 17833803330226557443

> <PUBCHEM_SHAPE_MULTIPOLES>
458.41
11.69
5.55
1.22
6.81
12.88
0
-10.3
2.63
-7.37
-0.22
0.3
-0.17
-0.54

> <PUBCHEM_SHAPE_SELFOVERLAP>
905.527

> <PUBCHEM_SHAPE_VOLUME>
278.6

> <PUBCHEM_COORDINATE_TYPE>
2
5
10

$$$$
