125640
  -OEChem-03292013323D

 43 45  0     1  0  0  0  0  0999 V2000
   -1.4739   -0.4562    0.9928 O   0  0  0  0  0  0  0  0  0  0  0  0
   -3.5199   -0.7379   -1.9245 O   0  0  0  0  0  0  0  0  0  0  0  0
    3.1102   -1.4036    0.8798 O   0  0  0  0  0  0  0  0  0  0  0  0
    4.8894   -2.7176    1.4603 O   0  0  0  0  0  0  0  0  0  0  0  0
   -3.9492    0.0753    0.1995 N   0  0  0  0  0  0  0  0  0  0  0  0
   -0.6573    1.3220   -0.3141 N   0  0  0  0  0  0  0  0  0  0  0  0
   -5.3922   -2.4779   -1.9610 N   0  0  0  0  0  0  0  0  0  0  0  0
   -2.9880    1.1695    0.1562 C   0  0  1  0  0  0  0  0  0  0  0  0
   -3.3703    2.0673    1.3273 C   0  0  0  0  0  0  0  0  0  0  0  0
   -3.9898    1.0974    2.3305 C   0  0  0  0  0  0  0  0  0  0  0  0
   -4.7114    0.0925    1.4454 C   0  0  0  0  0  0  0  0  0  0  0  0
   -1.6264    0.5690    0.3365 C   0  0  0  0  0  0  0  0  0  0  0  0
   -4.1854   -0.7518   -0.8876 C   0  0  0  0  0  0  0  0  0  0  0  0
   -5.3337   -1.7166   -0.7323 C   0  0  0  0  0  0  0  0  0  0  0  0
    0.7343    1.0715   -0.3696 C   0  0  0  0  0  0  0  0  0  0  0  0
    1.2507   -0.0348    0.2758 C   0  0  0  0  0  0  0  0  0  0  0  0
    1.5526    1.9396   -1.0709 C   0  0  0  0  0  0  0  0  0  0  0  0
    3.4894    0.5846   -0.4878 C   0  0  0  0  0  0  0  0  0  0  0  0
    2.6262   -0.2635    0.2075 C   0  0  0  0  0  0  0  0  0  0  0  0
    2.9297    1.6970   -1.1305 C   0  0  0  0  0  0  0  0  0  0  0  0
    4.9237    0.2670   -0.5072 C   0  0  0  0  0  0  0  0  0  0  0  0
    5.3557   -0.8238    0.1412 C   0  0  0  0  0  0  0  0  0  0  0  0
    5.8779    1.1594   -1.2459 C   0  0  0  0  0  0  0  0  0  0  0  0
    4.4577   -1.7285    0.8786 C   0  0  0  0  0  0  0  0  0  0  0  0
   -3.0647    1.6859   -0.8070 H   0  0  0  0  0  0  0  0  0  0  0  0
   -4.1305    2.7905    1.0076 H   0  0  0  0  0  0  0  0  0  0  0  0
   -2.5280    2.6207    1.7532 H   0  0  0  0  0  0  0  0  0  0  0  0
   -3.2006    0.5975    2.9045 H   0  0  0  0  0  0  0  0  0  0  0  0
   -4.6613    1.5901    3.0392 H   0  0  0  0  0  0  0  0  0  0  0  0
   -5.7291    0.4255    1.2147 H   0  0  0  0  0  0  0  0  0  0  0  0
   -4.7538   -0.9056    1.8898 H   0  0  0  0  0  0  0  0  0  0  0  0
   -0.9618    2.1577   -0.8088 H   0  0  0  0  0  0  0  0  0  0  0  0
   -6.2651   -1.1622   -0.5879 H   0  0  0  0  0  0  0  0  0  0  0  0
   -5.1597   -2.3812    0.1182 H   0  0  0  0  0  0  0  0  0  0  0  0
    0.6693   -0.7503    0.8380 H   0  0  0  0  0  0  0  0  0  0  0  0
    1.1455    2.8099   -1.5789 H   0  0  0  0  0  0  0  0  0  0  0  0
   -6.1661   -3.1396   -1.9140 H   0  0  0  0  0  0  0  0  0  0  0  0
   -4.5482   -3.0410   -2.0617 H   0  0  0  0  0  0  0  0  0  0  0  0
    3.5463    2.3965   -1.6889 H   0  0  0  0  0  0  0  0  0  0  0  0
    6.4087   -1.0888    0.1479 H   0  0  0  0  0  0  0  0  0  0  0  0
    6.9110    0.8011   -1.1745 H   0  0  0  0  0  0  0  0  0  0  0  0
    5.6247    1.2033   -2.3105 H   0  0  0  0  0  0  0  0  0  0  0  0
    5.8595    2.1742   -0.8342 H   0  0  0  0  0  0  0  0  0  0  0  0
  1 12  2  0  0  0  0
  2 13  2  0  0  0  0
  3 19  1  0  0  0  0
  3 24  1  0  0  0  0
  4 24  2  0  0  0  0
  5  8  1  0  0  0  0
  5 11  1  0  0  0  0
  5 13  1  0  0  0  0
  6 12  1  0  0  0  0
  6 15  1  0  0  0  0
  6 32  1  0  0  0  0
  7 14  1  0  0  0  0
  7 37  1  0  0  0  0
  7 38  1  0  0  0  0
  8  9  1  0  0  0  0
  8 12  1  0  0  0  0
  8 25  1  0  0  0  0
  9 10  1  0  0  0  0
  9 26  1  0  0  0  0
  9 27  1  0  0  0  0
 10 11  1  0  0  0  0
 10 28  1  0  0  0  0
 10 29  1  0  0  0  0
 11 30  1  0  0  0  0
 11 31  1  0  0  0  0
 13 14  1  0  0  0  0
 14 33  1  0  0  0  0
 14 34  1  0  0  0  0
 15 16  2  0  0  0  0
 15 17  1  0  0  0  0
 16 19  1  0  0  0  0
 16 35  1  0  0  0  0
 17 20  2  0  0  0  0
 17 36  1  0  0  0  0
 18 19  2  0  0  0  0
 18 20  1  0  0  0  0
 18 21  1  0  0  0  0
 20 39  1  0  0  0  0
 21 22  2  0  0  0  0
 21 23  1  0  0  0  0
 22 24  1  0  0  0  0
 22 40  1  0  0  0  0
 23 41  1  0  0  0  0
 23 42  1  0  0  0  0
 23 43  1  0  0  0  0
M  END
> <PUBCHEM_COMPOUND_CID>
125640

> <PUBCHEM_CONFORMER_RMSD>
0.8

> <PUBCHEM_CONFORMER_DIVERSEORDER>
1
15
21
13
24
9
19
10
18
14
22
20
4
17
5
16
11
6
3
23
8
12
2
7

> <PUBCHEM_MMFF94_PARTIAL_CHARGES>
29
1 -0.57
11 0.3
12 0.57
13 0.57
14 0.33
15 0.12
16 -0.15
17 -0.15
18 0.03
19 0.08
2 -0.57
20 -0.15
21 -0.17
22 -0.14
23 0.14
24 0.71
3 -0.23
32 0.37
35 0.15
36 0.15
37 0.36
38 0.36
39 0.15
4 -0.57
40 0.15
5 -0.66
6 -0.55
7 -0.99
8 0.36

> <PUBCHEM_EFFECTIVE_ROTOR_COUNT>
6

> <PUBCHEM_PHARMACOPHORE_FEATURES>
9
1 1 acceptor
1 2 acceptor
1 4 acceptor
1 6 donor
1 7 cation
1 7 donor
5 5 8 9 10 11 rings
6 15 16 17 18 19 20 rings
6 3 18 19 21 22 24 rings

> <PUBCHEM_HEAVY_ATOM_COUNT>
24

> <PUBCHEM_ATOM_DEF_STEREO_COUNT>
1

> <PUBCHEM_ATOM_UDEF_STEREO_COUNT>
0

> <PUBCHEM_BOND_DEF_STEREO_COUNT>
0

> <PUBCHEM_BOND_UDEF_STEREO_COUNT>
0

> <PUBCHEM_ISOTOPIC_ATOM_COUNT>
0

> <PUBCHEM_COMPONENT_COUNT>
1

> <PUBCHEM_CACTVS_TAUTO_COUNT>
2

> <PUBCHEM_CONFORMER_ID>
0001EAC800000001

> <PUBCHEM_MMFF94_ENERGY>
73.7251

> <PUBCHEM_FEATURE_SELFOVERLAP>
45.698

> <PUBCHEM_SHAPE_FINGERPRINT>
10319926 262 16702306719550202934
10447042 23 17967248689968077134
10622 236 18266436802844550175
10912923 1 18342179955568220240
11135926 11 17895204320334952766
11545043 162 16415484839358108036
12107183 9 17685782319992704952
12236239 1 18341618117752943509
12523318 42 17346589777625282603
12596602 18 17918273152048145888
12616971 3 18337399252992835633
12839892 36 17917712387843051935
13167823 11 18343585144102306236
13544653 18 17967819297489789964
13675066 3 15052011256147480400
14178342 30 17489316252476671709
14576447 43 18336261327541502684
15188451 53 17846204571267778519
15250474 111 18412258436981814250
15348495 7 14189568659078097030
15537594 2 18410022026066917004
15788980 27 18261112945771836932
15806764 133 15357989983549741509
17349148 13 18411141337451632107
17857418 61 18411134740508530967
18222031 100 18261100860203039752
19377110 9 18201157745035275144
200 152 18334858329156024045
20028762 73 18339634556539692110
20554085 129 16844447099692586369
20645477 70 17531251647492835816
21033648 29 16660359320343351933
21065201 7 17131848529174629061
21267235 1 17969516926874870354
21315759 148 16845857897195562678
21315763 178 18409453570292651856
21424621 283 16198203638661843425
21728266 224 18131346419299063807
220451 1 18341622498793561304
22061861 79 17022621957449845018
22224240 67 18335697309012130232
22393880 68 16298383587041026145
23402539 116 18408326575037500805
23522609 53 18124908770113689984
23557571 272 16415209948740751617
23559900 14 17822858717773580836
23569914 152 16595012947766055999
23596394 208 16588019091687108096
314194 84 18260832579339560250
3882209 13 15942837608591965378
4015057 19 17894917355673041944
4098825 35 17968083211020201255
439807 62 18192424389608649647
46194498 28 15647636560425996172
5104073 3 17561361802882931481
5281201 14 15936702514017680356
573450 72 18131354094273960961
602551 16 17203607116274056054

> <PUBCHEM_SHAPE_MULTIPOLES>
455.49
14.83
2.26
1.7
1.59
0.8
-0.11
5.91
1.02
-0.05
0.06
-1.83
0.29
-4.5

> <PUBCHEM_SHAPE_SELFOVERLAP>
980.93

> <PUBCHEM_SHAPE_VOLUME>
251

> <PUBCHEM_COORDINATE_TYPE>
2
5
10

$$$$
