125724
  -OEChem-03292013323D

 44 47  0     1  0  0  0  0  0999 V2000
   -5.1285    1.2988    0.4197 O   0  0  0  0  0  0  0  0  0  0  0  0
   -4.5136   -0.8307   -1.4098 O   0  0  0  0  0  0  0  0  0  0  0  0
   -3.0636    1.5763   -1.4610 O   0  0  0  0  0  0  0  0  0  0  0  0
   -2.7920   -2.8988   -0.0428 O   0  0  0  0  0  0  0  0  0  0  0  0
   -0.2865    2.5250   -0.0575 O   0  0  0  0  0  0  0  0  0  0  0  0
    2.2179    2.4025   -0.0620 O   0  0  0  0  0  0  0  0  0  0  0  0
    2.1475   -2.9373    0.1082 O   0  0  0  0  0  0  0  0  0  0  0  0
    4.7802    2.4560   -0.0307 O   0  0  0  0  0  0  0  0  0  0  0  0
   -4.1283   -0.8863   -0.0394 C   0  0  2  0  0  0  0  0  0  0  0  0
   -3.9434    0.5185    0.5578 C   0  0  1  0  0  0  0  0  0  0  0  0
   -2.7904    1.2869   -0.0927 C   0  0  1  0  0  0  0  0  0  0  0  0
   -1.5184    0.4866   -0.0346 C   0  0  0  0  0  0  0  0  0  0  0  0
   -1.5295   -0.9155   -0.0009 C   0  0  0  0  0  0  0  0  0  0  0  0
   -2.8151   -1.6702   -0.0096 C   0  0  0  0  0  0  0  0  0  0  0  0
   -5.2224   -1.6660    0.6954 C   0  0  0  0  0  0  0  0  0  0  0  0
   -0.2855    1.1586   -0.0474 C   0  0  0  0  0  0  0  0  0  0  0  0
   -0.3234   -1.6297    0.0367 C   0  0  0  0  0  0  0  0  0  0  0  0
    0.9186    0.4454   -0.0107 C   0  0  0  0  0  0  0  0  0  0  0  0
    0.8993   -0.9475    0.0331 C   0  0  0  0  0  0  0  0  0  0  0  0
    2.2014    1.1786   -0.0207 C   0  0  0  0  0  0  0  0  0  0  0  0
    2.1628   -1.7131    0.0718 C   0  0  0  0  0  0  0  0  0  0  0  0
    3.4645    0.4141    0.0197 C   0  0  0  0  0  0  0  0  0  0  0  0
    3.4458   -0.9812    0.0644 C   0  0  0  0  0  0  0  0  0  0  0  0
   -4.9845    2.5571    1.0532 C   0  0  0  0  0  0  0  0  0  0  0  0
    4.6870    1.0963    0.0125 C   0  0  0  0  0  0  0  0  0  0  0  0
    4.6498   -1.6948    0.1021 C   0  0  0  0  0  0  0  0  0  0  0  0
    5.8844    0.3815    0.0503 C   0  0  0  0  0  0  0  0  0  0  0  0
    5.8659   -1.0111    0.0951 C   0  0  0  0  0  0  0  0  0  0  0  0
   -3.7282    0.3956    1.6302 H   0  0  0  0  0  0  0  0  0  0  0  0
   -2.6420    2.2332    0.4340 H   0  0  0  0  0  0  0  0  0  0  0  0
   -5.3697   -2.6620    0.2614 H   0  0  0  0  0  0  0  0  0  0  0  0
   -4.9771   -1.7952    1.7549 H   0  0  0  0  0  0  0  0  0  0  0  0
   -6.1885   -1.1544    0.6200 H   0  0  0  0  0  0  0  0  0  0  0  0
   -0.3358   -2.7165    0.0670 H   0  0  0  0  0  0  0  0  0  0  0  0
   -4.6886   -1.7364   -1.7179 H   0  0  0  0  0  0  0  0  0  0  0  0
   -3.9328    2.0090   -1.5041 H   0  0  0  0  0  0  0  0  0  0  0  0
   -4.4943    3.2812    0.3962 H   0  0  0  0  0  0  0  0  0  0  0  0
   -4.4706    2.4868    2.0178 H   0  0  0  0  0  0  0  0  0  0  0  0
   -5.9903    2.9438    1.2456 H   0  0  0  0  0  0  0  0  0  0  0  0
   -1.0273    2.8451   -0.5984 H   0  0  0  0  0  0  0  0  0  0  0  0
    4.6623   -2.7808    0.1373 H   0  0  0  0  0  0  0  0  0  0  0  0
    6.8377    0.9037    0.0450 H   0  0  0  0  0  0  0  0  0  0  0  0
    6.7995   -1.5654    0.1244 H   0  0  0  0  0  0  0  0  0  0  0  0
    3.9004    2.8606   -0.0526 H   0  0  0  0  0  0  0  0  0  0  0  0
  1 10  1  0  0  0  0
  1 24  1  0  0  0  0
  2  9  1  0  0  0  0
  2 35  1  0  0  0  0
  3 11  1  0  0  0  0
  3 36  1  0  0  0  0
  4 14  2  0  0  0  0
  5 16  1  0  0  0  0
  5 40  1  0  0  0  0
  6 20  2  0  0  0  0
  7 21  2  0  0  0  0
  8 25  1  0  0  0  0
  8 44  1  0  0  0  0
  9 10  1  0  0  0  0
  9 14  1  0  0  0  0
  9 15  1  0  0  0  0
 10 11  1  0  0  0  0
 10 29  1  0  0  0  0
 11 12  1  0  0  0  0
 11 30  1  0  0  0  0
 12 13  1  0  0  0  0
 12 16  2  0  0  0  0
 13 14  1  0  0  0  0
 13 17  2  0  0  0  0
 15 31  1  0  0  0  0
 15 32  1  0  0  0  0
 15 33  1  0  0  0  0
 16 18  1  0  0  0  0
 17 19  1  0  0  0  0
 17 34  1  0  0  0  0
 18 19  2  0  0  0  0
 18 20  1  0  0  0  0
 19 21  1  0  0  0  0
 20 22  1  0  0  0  0
 21 23  1  0  0  0  0
 22 23  2  0  0  0  0
 22 25  1  0  0  0  0
 23 26  1  0  0  0  0
 24 37  1  0  0  0  0
 24 38  1  0  0  0  0
 24 39  1  0  0  0  0
 25 27  2  0  0  0  0
 26 28  2  0  0  0  0
 26 41  1  0  0  0  0
 27 28  1  0  0  0  0
 27 42  1  0  0  0  0
 28 43  1  0  0  0  0
M  END
> <PUBCHEM_COMPOUND_CID>
125724

> <PUBCHEM_CONFORMER_RMSD>
0.6

> <PUBCHEM_CONFORMER_DIVERSEORDER>
3
4
6
2
5
1

> <PUBCHEM_MMFF94_PARTIAL_CHARGES>
35
1 -0.56
10 0.28
11 0.42
12 -0.14
13 0.09
14 0.42
16 0.08
17 -0.15
18 0.09
19 0.09
2 -0.68
20 0.4
21 0.4
22 0.09
23 0.09
24 0.28
25 0.08
26 -0.15
27 -0.15
28 -0.15
3 -0.68
34 0.15
35 0.4
36 0.4
4 -0.57
40 0.45
41 0.15
42 0.15
43 0.15
44 0.45
5 -0.53
6 -0.57
7 -0.57
8 -0.53
9 0.34

> <PUBCHEM_EFFECTIVE_ROTOR_COUNT>
1.6

> <PUBCHEM_PHARMACOPHORE_FEATURES>
14
1 1 acceptor
1 2 acceptor
1 2 donor
1 3 acceptor
1 3 donor
1 4 acceptor
1 5 donor
1 6 acceptor
1 7 acceptor
1 8 donor
6 12 13 16 17 18 19 rings
6 18 19 20 21 22 23 rings
6 22 23 25 26 27 28 rings
6 9 10 11 12 13 14 rings

> <PUBCHEM_HEAVY_ATOM_COUNT>
28

> <PUBCHEM_ATOM_DEF_STEREO_COUNT>
0

> <PUBCHEM_ATOM_UDEF_STEREO_COUNT>
3

> <PUBCHEM_BOND_DEF_STEREO_COUNT>
0

> <PUBCHEM_BOND_UDEF_STEREO_COUNT>
0

> <PUBCHEM_ISOTOPIC_ATOM_COUNT>
0

> <PUBCHEM_COMPONENT_COUNT>
1

> <PUBCHEM_CACTVS_TAUTO_COUNT>
24

> <PUBCHEM_CONFORMER_ID>
0001EB1C00000003

> <PUBCHEM_MMFF94_ENERGY>
99.4961

> <PUBCHEM_FEATURE_SELFOVERLAP>
71.127

> <PUBCHEM_SHAPE_FINGERPRINT>
10616163 171 18339926021018930983
10906281 52 18262818310372074266
11135609 12 17678190484502949579
11578080 2 16914523639965202514
12107183 9 18123190095535409562
12236239 1 17989204824271942384
12788726 201 17273701957376128969
13073987 5 18411702109877837600
13140716 1 18410576188517147016
13224815 77 18335416867882405886
13402501 40 18408323306350889858
13862211 1 18410006637716274506
14341114 176 18409453617320936250
14790565 3 18339367460753941344
15196674 1 18410575093532588410
15788980 27 18334297565050552762
1601671 61 18412544284735638674
17349148 13 18131633391475210706
17844677 252 18411990181977016824
1813 80 17167863079960983548
18681886 176 18412821417938204770
19591789 44 18338796835604291294
200 152 18202281420096219611
20028762 73 18272365382843015502
21033648 29 17967800622650610661
21130935 74 18341890771669123626
21236236 1 18412825785577007631
21267235 1 18410018757586612570
21279426 13 18339081488962133966
21421861 104 17970061150280654546
23402539 116 18271803510282001429
23522609 53 18044404706307849860
23559900 14 18411410748018605032
3004659 81 18333450937709455228
335352 9 18411139087368849774
338550 245 18334581278164128356
34797466 226 17059784432941083276
34934 24 18410572847038248595
350125 39 18411140264232080129
3633792 109 18336535037903359077
3680242 22 18261670360171907818
4073 2 18186809110040571458
4214541 1 18410575088979151769
5104073 3 18409726262087324376
59755656 215 18408039606718406510
9709674 26 18335423533798600754

> <PUBCHEM_SHAPE_MULTIPOLES>
529.27
13.1
2.93
0.78
3.45
0.08
-0.11
0.92
1.19
-0.75
0.18
-0.77
0.11
-0.45

> <PUBCHEM_SHAPE_SELFOVERLAP>
1197.072

> <PUBCHEM_SHAPE_VOLUME>
273.9

> <PUBCHEM_COORDINATE_TYPE>
2
5
10

$$$$
