125700
  -OEChem-03292013323D

 42 43  0     1  0  0  0  0  0999 V2000
    4.7121    0.6156   -1.7947 Cl  0  0  0  0  0  0  0  0  0  0  0  0
    2.1958   -2.2629    0.3398 S   0  0  0  0  0  0  0  0  0  0  0  0
    2.8089   -3.4526   -0.2241 O   0  0  0  0  0  0  0  0  0  0  0  0
    2.4672   -1.8997    1.7185 O   0  0  0  0  0  0  0  0  0  0  0  0
    2.6616    2.2759    0.3643 O   0  0  0  0  0  0  0  0  0  0  0  0
   -0.9604    1.8018   -0.4664 O   0  0  0  0  0  0  0  0  0  0  0  0
   -2.3586   -1.9939   -0.4430 O   0  0  0  0  0  0  0  0  0  0  0  0
   -0.3965    1.7707    1.7786 O   0  0  0  0  0  0  0  0  0  0  0  0
   -4.4114   -1.9312    0.6152 O   0  0  0  0  0  0  0  0  0  0  0  0
    1.6472    0.1824   -0.0310 N   0  0  0  0  0  0  0  0  0  0  0  0
    2.4326   -0.8489   -0.6881 C   0  0  1  0  0  0  0  0  0  0  0  0
    3.6522    0.0662   -0.4720 C   0  0  2  0  0  0  0  0  0  0  0  0
    0.4304   -2.4581    0.1869 C   0  0  0  0  0  0  0  0  0  0  0  0
    2.6220    1.1188    0.0164 C   0  0  0  0  0  0  0  0  0  0  0  0
    0.3337    0.0693    0.2990 C   0  0  0  0  0  0  0  0  0  0  0  0
   -0.2872   -1.1312    0.3637 C   0  0  0  0  0  0  0  0  0  0  0  0
   -1.7584   -1.3223    0.6444 C   0  0  0  0  0  0  0  0  0  0  0  0
   -0.3745    1.3093    0.6520 C   0  0  0  0  0  0  0  0  0  0  0  0
   -1.6933    3.0175   -0.2836 C   0  0  0  0  0  0  0  0  0  0  0  0
   -0.7349    4.0904    0.2312 C   0  0  0  0  0  0  0  0  0  0  0  0
   -2.2681    3.4168   -1.6409 C   0  0  0  0  0  0  0  0  0  0  0  0
   -2.8159    2.7622    0.7212 C   0  0  0  0  0  0  0  0  0  0  0  0
   -3.7035   -2.2412   -0.3335 C   0  0  0  0  0  0  0  0  0  0  0  0
   -4.2009   -2.9549   -1.5539 C   0  0  0  0  0  0  0  0  0  0  0  0
    2.1430   -1.0101   -1.7324 H   0  0  0  0  0  0  0  0  0  0  0  0
    4.3128   -0.2587    0.3409 H   0  0  0  0  0  0  0  0  0  0  0  0
    0.1344   -3.1781    0.9567 H   0  0  0  0  0  0  0  0  0  0  0  0
    0.2236   -2.8797   -0.8016 H   0  0  0  0  0  0  0  0  0  0  0  0
   -2.2738   -0.3707    0.8052 H   0  0  0  0  0  0  0  0  0  0  0  0
   -1.8738   -1.9190    1.5581 H   0  0  0  0  0  0  0  0  0  0  0  0
    0.2003    4.0877   -0.3408 H   0  0  0  0  0  0  0  0  0  0  0  0
   -1.1855    5.0852    0.1330 H   0  0  0  0  0  0  0  0  0  0  0  0
   -0.4673    3.9896    1.2860 H   0  0  0  0  0  0  0  0  0  0  0  0
   -2.9169    2.6263   -2.0356 H   0  0  0  0  0  0  0  0  0  0  0  0
   -1.4671    3.5553   -2.3761 H   0  0  0  0  0  0  0  0  0  0  0  0
   -2.8481    4.3434   -1.5816 H   0  0  0  0  0  0  0  0  0  0  0  0
   -2.4854    2.6600    1.7575 H   0  0  0  0  0  0  0  0  0  0  0  0
   -3.5296    3.5948    0.7157 H   0  0  0  0  0  0  0  0  0  0  0  0
   -3.3669    1.8492    0.4680 H   0  0  0  0  0  0  0  0  0  0  0  0
   -3.6826   -3.9112   -1.6599 H   0  0  0  0  0  0  0  0  0  0  0  0
   -4.0428   -2.3310   -2.4370 H   0  0  0  0  0  0  0  0  0  0  0  0
   -5.2723   -3.1484   -1.4501 H   0  0  0  0  0  0  0  0  0  0  0  0
  1 12  1  0  0  0  0
  2  3  2  0  0  0  0
  2  4  2  0  0  0  0
  2 11  1  0  0  0  0
  2 13  1  0  0  0  0
  5 14  2  0  0  0  0
  6 18  1  0  0  0  0
  6 19  1  0  0  0  0
  7 17  1  0  0  0  0
  7 23  1  0  0  0  0
  8 18  2  0  0  0  0
  9 23  2  0  0  0  0
 10 11  1  0  0  0  0
 10 14  1  0  0  0  0
 10 15  1  0  0  0  0
 11 12  1  0  0  0  0
 11 25  1  0  0  0  0
 12 14  1  0  0  0  0
 12 26  1  0  0  0  0
 13 16  1  0  0  0  0
 13 27  1  0  0  0  0
 13 28  1  0  0  0  0
 15 16  2  0  0  0  0
 15 18  1  0  0  0  0
 16 17  1  0  0  0  0
 17 29  1  0  0  0  0
 17 30  1  0  0  0  0
 19 20  1  0  0  0  0
 19 21  1  0  0  0  0
 19 22  1  0  0  0  0
 20 31  1  0  0  0  0
 20 32  1  0  0  0  0
 20 33  1  0  0  0  0
 21 34  1  0  0  0  0
 21 35  1  0  0  0  0
 21 36  1  0  0  0  0
 22 37  1  0  0  0  0
 22 38  1  0  0  0  0
 22 39  1  0  0  0  0
 23 24  1  0  0  0  0
 24 40  1  0  0  0  0
 24 41  1  0  0  0  0
 24 42  1  0  0  0  0
M  END
> <PUBCHEM_COMPOUND_CID>
125700

> <PUBCHEM_CONFORMER_RMSD>
0.8

> <PUBCHEM_CONFORMER_DIVERSEORDER>
1
28
38
33
23
12
14
37
17
6
25
36
31
16
35
4
24
30
13
34
32
7
26
39
29
22
5
27
20
15
3
18
19
10
2
9
11
21
8

> <PUBCHEM_MMFF94_PARTIAL_CHARGES>
21
1 -0.29
10 -0.39
11 0.32
12 0.34
13 0.24
14 0.58
15 0.12
16 -0.28
17 0.42
18 0.71
19 0.28
2 1.1
23 0.66
24 0.06
3 -0.65
4 -0.65
5 -0.57
6 -0.43
7 -0.43
8 -0.57
9 -0.57

> <PUBCHEM_EFFECTIVE_ROTOR_COUNT>
6.4

> <PUBCHEM_PHARMACOPHORE_FEATURES>
8
1 3 acceptor
1 4 acceptor
1 5 acceptor
1 8 acceptor
1 9 acceptor
4 10 11 12 14 rings
4 19 20 21 22 hydrophobe
6 2 10 11 13 15 16 rings

> <PUBCHEM_HEAVY_ATOM_COUNT>
24

> <PUBCHEM_ATOM_DEF_STEREO_COUNT>
2

> <PUBCHEM_ATOM_UDEF_STEREO_COUNT>
0

> <PUBCHEM_BOND_DEF_STEREO_COUNT>
0

> <PUBCHEM_BOND_UDEF_STEREO_COUNT>
0

> <PUBCHEM_ISOTOPIC_ATOM_COUNT>
0

> <PUBCHEM_COMPONENT_COUNT>
1

> <PUBCHEM_CACTVS_TAUTO_COUNT>
1

> <PUBCHEM_CONFORMER_ID>
0001EB0400000001

> <PUBCHEM_MMFF94_ENERGY>
63.8283

> <PUBCHEM_FEATURE_SELFOVERLAP>
40.86

> <PUBCHEM_SHAPE_FINGERPRINT>
104564 63 18411706482418405675
10756046 5 18265057933774283446
10871710 139 18264229017617434581
1100329 8 17976821978402122866
11578080 2 17703209763770378611
12054548 360 18411410739876595549
12553582 1 18339357595288324819
12788726 201 18334292063160861450
13140716 1 18338229349875054224
13911987 19 17899991722220705518
14178342 30 18265598915228221442
14537116 161 17691634115018936357
14790565 3 17976832204804118093
15210252 30 17970059144404300701
15439362 3 17473827707112750669
16752209 62 18409732885117051434
16945 1 18195241118331331392
17357779 13 18269263737702030421
20600515 1 17839207412227890672
20775438 99 17765101286689505533
21501502 16 18262802861158523706
21641784 216 18115040687164986733
2255824 54 17835514195831250347
23419403 2 17250555137799658170
23558518 356 18188491255304009202
23559900 14 17982735165602185638
23566358 2 18269001903473724918
238 59 17176848048586709629
25147074 1 18187650142247251930
266924 87 18408041818737184446
2748010 2 17762634180154623922
283562 15 18338806709955430136
3060560 45 17981313809566063567
350125 39 18337400340078464810
352729 6 17981040817344531931
6443956 14 18123468551598529517
70251023 43 18270696341055188334
7164475 11 18410289168891151070
81228 2 18334582373096303057

> <PUBCHEM_SHAPE_MULTIPOLES>
453.56
7.1
5.26
1.33
0.55
2
-0.22
-3.45
-2.84
-4.66
-0.62
0.04
0.17
-1.06

> <PUBCHEM_SHAPE_SELFOVERLAP>
926.581

> <PUBCHEM_SHAPE_VOLUME>
266

> <PUBCHEM_COORDINATE_TYPE>
2
5
10

$$$$
