125704
  -OEChem-03292013323D

 54 56  0     1  0  0  0  0  0999 V2000
    5.5485    0.3720    2.4502 O   0  0  0  0  0  0  0  0  0  0  0  0
    3.2408   -3.0306   -0.4662 O   0  0  0  0  0  0  0  0  0  0  0  0
    3.3253    0.3347    2.9043 O   0  0  0  0  0  0  0  0  0  0  0  0
    3.6164    3.5210   -1.9000 O   0  0  0  0  0  0  0  0  0  0  0  0
    5.1900    2.0191   -2.5448 O   0  0  0  0  0  0  0  0  0  0  0  0
    2.7680   -1.0734    0.6849 N   0  0  0  0  0  0  0  0  0  0  0  0
   -4.8024    0.6435    0.9836 N   0  0  0  0  0  0  0  0  0  0  0  0
   -3.8253    2.7399    1.0909 N   0  0  0  0  0  0  0  0  0  0  0  0
   -1.9127    3.3073   -0.2579 N   0  0  0  0  0  0  0  0  0  0  0  0
   -0.9908    1.7200   -1.7285 N   0  0  0  0  0  0  0  0  0  0  0  0
   -2.8482    4.8708    1.2126 N   0  0  0  0  0  0  0  0  0  0  0  0
   -3.1946   -3.4841   -0.2289 C   0  0  0  0  0  0  0  0  0  0  0  0
    4.1293   -0.6183    0.8121 C   0  0  1  0  0  0  0  0  0  0  0  0
   -4.0213   -2.4657   -1.0389 C   0  0  0  0  0  0  0  0  0  0  0  0
    4.5819    0.2359   -0.3783 C   0  0  0  0  0  0  0  0  0  0  0  0
   -1.7394   -3.1665   -0.1577 C   0  0  0  0  0  0  0  0  0  0  0  0
   -3.9361   -1.0616   -0.4918 C   0  0  0  0  0  0  0  0  0  0  0  0
    3.8137    1.5466   -0.5907 C   0  0  0  0  0  0  0  0  0  0  0  0
    0.9835   -2.5749   -0.0242 C   0  0  0  0  0  0  0  0  0  0  0  0
   -0.8693   -3.6637   -1.1281 C   0  0  0  0  0  0  0  0  0  0  0  0
   -1.2481   -2.3736    0.8793 C   0  0  0  0  0  0  0  0  0  0  0  0
    2.4336   -2.2598    0.0465 C   0  0  0  0  0  0  0  0  0  0  0  0
    0.4922   -3.3679   -1.0612 C   0  0  0  0  0  0  0  0  0  0  0  0
    0.1134   -2.0778    0.9461 C   0  0  0  0  0  0  0  0  0  0  0  0
   -2.9604   -0.1779   -0.9181 C   0  0  0  0  0  0  0  0  0  0  0  0
   -2.9178    1.1178   -0.3829 C   0  0  0  0  0  0  0  0  0  0  0  0
    4.2556    0.0814    2.1498 C   0  0  0  0  0  0  0  0  0  0  0  0
   -4.8276   -0.6038    0.4550 C   0  0  0  0  0  0  0  0  0  0  0  0
   -3.8608    1.5056    0.5763 C   0  0  0  0  0  0  0  0  0  0  0  0
    4.2898    2.3463   -1.7842 C   0  0  0  0  0  0  0  0  0  0  0  0
   -1.9673    2.0629   -0.7610 C   0  0  0  0  0  0  0  0  0  0  0  0
   -2.8599    3.5748    0.6519 C   0  0  0  0  0  0  0  0  0  0  0  0
    4.7677   -1.5097    0.8650 H   0  0  0  0  0  0  0  0  0  0  0  0
   -3.6007   -3.5586    0.7890 H   0  0  0  0  0  0  0  0  0  0  0  0
   -3.3333   -4.4807   -0.6681 H   0  0  0  0  0  0  0  0  0  0  0  0
   -5.0708   -2.7860   -1.0573 H   0  0  0  0  0  0  0  0  0  0  0  0
   -3.6907   -2.4642   -2.0859 H   0  0  0  0  0  0  0  0  0  0  0  0
    5.6473    0.4746   -0.2621 H   0  0  0  0  0  0  0  0  0  0  0  0
    4.5065   -0.3644   -1.2948 H   0  0  0  0  0  0  0  0  0  0  0  0
    2.0407   -0.4463    1.0128 H   0  0  0  0  0  0  0  0  0  0  0  0
    3.9201    2.1811    0.2961 H   0  0  0  0  0  0  0  0  0  0  0  0
    2.7504    1.3305   -0.7431 H   0  0  0  0  0  0  0  0  0  0  0  0
   -1.2405   -4.2799   -1.9427 H   0  0  0  0  0  0  0  0  0  0  0  0
   -1.9108   -1.9913    1.6514 H   0  0  0  0  0  0  0  0  0  0  0  0
    1.1532   -3.7602   -1.8295 H   0  0  0  0  0  0  0  0  0  0  0  0
    0.4588   -1.4842    1.7873 H   0  0  0  0  0  0  0  0  0  0  0  0
   -2.2549   -0.5073   -1.6755 H   0  0  0  0  0  0  0  0  0  0  0  0
   -5.6195   -1.2392    0.8397 H   0  0  0  0  0  0  0  0  0  0  0  0
    5.6309    0.8105    3.3238 H   0  0  0  0  0  0  0  0  0  0  0  0
   -0.3442    2.4585   -1.9810 H   0  0  0  0  0  0  0  0  0  0  0  0
   -0.6179    0.7789   -1.7239 H   0  0  0  0  0  0  0  0  0  0  0  0
    3.9342    4.0506   -2.6620 H   0  0  0  0  0  0  0  0  0  0  0  0
   -2.1450    5.5338    0.9171 H   0  0  0  0  0  0  0  0  0  0  0  0
   -3.5428    5.1198    1.9032 H   0  0  0  0  0  0  0  0  0  0  0  0
  1 27  1  0  0  0  0
  1 49  1  0  0  0  0
  2 22  2  0  0  0  0
  3 27  2  0  0  0  0
  4 30  1  0  0  0  0
  4 52  1  0  0  0  0
  5 30  2  0  0  0  0
  6 13  1  0  0  0  0
  6 22  1  0  0  0  0
  6 40  1  0  0  0  0
  7 28  2  0  0  0  0
  7 29  1  0  0  0  0
  8 29  2  0  0  0  0
  8 32  1  0  0  0  0
  9 31  1  0  0  0  0
  9 32  2  0  0  0  0
 10 31  1  0  0  0  0
 10 50  1  0  0  0  0
 10 51  1  0  0  0  0
 11 32  1  0  0  0  0
 11 53  1  0  0  0  0
 11 54  1  0  0  0  0
 12 14  1  0  0  0  0
 12 16  1  0  0  0  0
 12 34  1  0  0  0  0
 12 35  1  0  0  0  0
 13 15  1  0  0  0  0
 13 27  1  0  0  0  0
 13 33  1  0  0  0  0
 14 17  1  0  0  0  0
 14 36  1  0  0  0  0
 14 37  1  0  0  0  0
 15 18  1  0  0  0  0
 15 38  1  0  0  0  0
 15 39  1  0  0  0  0
 16 20  2  0  0  0  0
 16 21  1  0  0  0  0
 17 25  2  0  0  0  0
 17 28  1  0  0  0  0
 18 30  1  0  0  0  0
 18 41  1  0  0  0  0
 18 42  1  0  0  0  0
 19 22  1  0  0  0  0
 19 23  2  0  0  0  0
 19 24  1  0  0  0  0
 20 23  1  0  0  0  0
 20 43  1  0  0  0  0
 21 24  2  0  0  0  0
 21 44  1  0  0  0  0
 23 45  1  0  0  0  0
 24 46  1  0  0  0  0
 25 26  1  0  0  0  0
 25 47  1  0  0  0  0
 26 29  1  0  0  0  0
 26 31  2  0  0  0  0
 28 48  1  0  0  0  0
M  END
> <PUBCHEM_COMPOUND_CID>
125704

> <PUBCHEM_CONFORMER_RMSD>
1

> <PUBCHEM_CONFORMER_DIVERSEORDER>
1
16
15
141
66
143
75
138
102
93
44
10
13
82
121
137
107
50
115
125
54
40
19
106
113
28
133
65
80
135
35
31
33
117
112
67
116
90
87
122
30
4
36
88
98
128
96
134
24
120
43
8
144
71
139
70
84
48
11
103
77
32
79
72
39
149
12
86
142
147
94
45
37
9
118
132
114
60
26
78
17
46
29
146
140
56
53
52
85
21
74
111
5
47
3
61
18
136
6
25
68
145
22
14
130
73
95
69
99
23
7
150
89
20
97
59
124
104
58
101
127
91
38
62
34
148
151
49
131
42
129
83
76
92
55
27
119
126
51
64
110
63
81
100
109
2
41
108
123
57
105

> <PUBCHEM_MMFF94_PARTIAL_CHARGES>
43
1 -0.65
10 -0.9
11 -0.9
12 0.14
13 0.36
14 0.14
16 -0.14
17 -0.14
18 0.06
19 0.09
2 -0.57
20 -0.15
21 -0.15
22 0.54
23 -0.15
24 -0.15
25 -0.15
27 0.66
28 0.16
29 0.62
3 -0.57
30 0.66
31 0.41
32 0.72
4 -0.65
40 0.37
43 0.15
44 0.15
45 0.15
46 0.15
47 0.15
48 0.15
49 0.5
5 -0.57
50 0.4
51 0.4
52 0.5
53 0.4
54 0.4
6 -0.73
7 -0.62
8 -0.62
9 -0.62

> <PUBCHEM_EFFECTIVE_ROTOR_COUNT>
10

> <PUBCHEM_PHARMACOPHORE_FEATURES>
16
1 1 acceptor
1 10 cation
1 10 donor
1 11 donor
1 2 acceptor
1 3 acceptor
1 4 acceptor
1 5 acceptor
1 6 donor
1 7 acceptor
3 1 3 27 anion
3 4 5 30 anion
4 8 9 11 32 cation
6 16 19 20 21 23 24 rings
6 7 17 25 26 28 29 rings
6 8 9 26 29 31 32 rings

> <PUBCHEM_HEAVY_ATOM_COUNT>
32

> <PUBCHEM_ATOM_DEF_STEREO_COUNT>
1

> <PUBCHEM_ATOM_UDEF_STEREO_COUNT>
0

> <PUBCHEM_BOND_DEF_STEREO_COUNT>
0

> <PUBCHEM_BOND_UDEF_STEREO_COUNT>
0

> <PUBCHEM_ISOTOPIC_ATOM_COUNT>
0

> <PUBCHEM_COMPONENT_COUNT>
1

> <PUBCHEM_CACTVS_TAUTO_COUNT>
24

> <PUBCHEM_CONFORMER_ID>
0001EB0800000001

> <PUBCHEM_MMFF94_ENERGY>
92.7668

> <PUBCHEM_FEATURE_SELFOVERLAP>
81.352

> <PUBCHEM_SHAPE_FINGERPRINT>
10670039 82 18338240474478881718
11059048 146 18340783562979645156
11513181 2 18272100382922782158
11595378 159 18042384894493512227
12788726 201 18192997234369161044
12925494 130 17692533313077253481
12978246 48 18336261258532180640
13617811 41 18411689981708462105
13642711 20 16917056785342239186
14347329 18 18339933696684456738
14363568 33 17327471718407244235
14400156 266 17845661477940417943
14840074 17 18114753727952790925
15001296 14 18116998999073561228
15021287 119 17750216059770702026
15297060 5 18200334202531229780
15351339 4 17254280540502392916
15968369 153 18127410274571210563
20764821 26 18124298669765881704
21623110 236 18261393390446935871
38570 142 17750251334511118750
45266715 3 16468947832487543823
5895379 119 18410009945046528430
6036956 94 18261401100087897077
6287921 2 18267870479969894711
6371009 1 18336811057474966310
6608658 132 18125718130640277975
6700243 42 17553790721019185334

> <PUBCHEM_SHAPE_MULTIPOLES>
599.31
11.6
6.02
1.96
9
2.22
0.4
5.34
1.12
-3.97
-1.01
3.28
1.12
-3.17

> <PUBCHEM_SHAPE_SELFOVERLAP>
1287.81

> <PUBCHEM_SHAPE_VOLUME>
325.2

> <PUBCHEM_COORDINATE_TYPE>
2
5
10

$$$$
