125773
  -OEChem-03292013323D

 41 41  0     1  0  0  0  0  0999 V2000
   -0.6089   -2.0832    1.5232 O   0  0  0  0  0  0  0  0  0  0  0  0
    1.1114   -0.0050   -1.4014 O   0  0  0  0  0  0  0  0  0  0  0  0
   -0.3660    4.1380   -1.1646 O   0  0  0  0  0  0  0  0  0  0  0  0
    2.6494    0.2407    1.8314 O   0  0  0  0  0  0  0  0  0  0  0  0
    4.2912    1.7048    1.2760 O   0  0  0  0  0  0  0  0  0  0  0  0
   -0.5905   -2.0804   -0.7958 N   0  0  0  0  0  0  0  0  0  0  0  0
   -3.4011   -2.7383    0.9759 N   0  0  0  0  0  0  0  0  0  0  0  0
    2.8310   -1.1660   -0.3621 N   0  0  0  0  0  0  0  0  0  0  0  0
   -2.6795   -1.6302    0.3491 C   0  0  1  0  0  0  0  0  0  0  0  0
   -2.9948   -0.3191    1.0839 C   0  0  0  0  0  0  0  0  0  0  0  0
    0.8166   -2.3664   -0.9421 C   0  0  1  0  0  0  0  0  0  0  0  0
   -1.1935   -1.9612    0.4478 C   0  0  0  0  0  0  0  0  0  0  0  0
   -2.2908    0.8741    0.4816 C   0  0  0  0  0  0  0  0  0  0  0  0
    1.0945   -3.1356   -2.2242 C   0  0  0  0  0  0  0  0  0  0  0  0
    1.5696   -1.0427   -0.9276 C   0  0  0  0  0  0  0  0  0  0  0  0
   -1.0338    1.2253    0.9456 C   0  0  0  0  0  0  0  0  0  0  0  0
   -2.9165    1.5943   -0.5228 C   0  0  0  0  0  0  0  0  0  0  0  0
   -0.3843    2.3276    0.3899 C   0  0  0  0  0  0  0  0  0  0  0  0
   -2.2669    2.6965   -1.0785 C   0  0  0  0  0  0  0  0  0  0  0  0
   -1.0009    3.0632   -0.6222 C   0  0  0  0  0  0  0  0  0  0  0  0
    3.7558   -0.0604   -0.2706 C   0  0  0  0  0  0  0  0  0  0  0  0
    3.6080    0.7241    1.0076 C   0  0  0  0  0  0  0  0  0  0  0  0
   -2.9923   -1.5528   -0.6985 H   0  0  0  0  0  0  0  0  0  0  0  0
   -2.7209   -0.3935    2.1458 H   0  0  0  0  0  0  0  0  0  0  0  0
   -4.0782   -0.1360    1.0763 H   0  0  0  0  0  0  0  0  0  0  0  0
    1.1328   -2.9728   -0.0850 H   0  0  0  0  0  0  0  0  0  0  0  0
   -1.1293   -1.8888   -1.6354 H   0  0  0  0  0  0  0  0  0  0  0  0
    0.5386   -4.0790   -2.2415 H   0  0  0  0  0  0  0  0  0  0  0  0
    2.1613   -3.3631   -2.3219 H   0  0  0  0  0  0  0  0  0  0  0  0
    0.7976   -2.5576   -3.1069 H   0  0  0  0  0  0  0  0  0  0  0  0
   -3.2579   -3.5892    0.4327 H   0  0  0  0  0  0  0  0  0  0  0  0
   -4.4028   -2.5515    0.9505 H   0  0  0  0  0  0  0  0  0  0  0  0
   -0.5454    0.6682    1.7394 H   0  0  0  0  0  0  0  0  0  0  0  0
   -3.9012    1.3147   -0.8860 H   0  0  0  0  0  0  0  0  0  0  0  0
    3.1286   -2.0633    0.0094 H   0  0  0  0  0  0  0  0  0  0  0  0
    0.6016    2.6084    0.7501 H   0  0  0  0  0  0  0  0  0  0  0  0
   -2.7576    3.2608   -1.8670 H   0  0  0  0  0  0  0  0  0  0  0  0
    3.5950    0.6161   -1.1152 H   0  0  0  0  0  0  0  0  0  0  0  0
    4.7655   -0.4787   -0.3087 H   0  0  0  0  0  0  0  0  0  0  0  0
   -0.9359    4.5276   -1.8498 H   0  0  0  0  0  0  0  0  0  0  0  0
    2.5703    0.7696    2.6537 H   0  0  0  0  0  0  0  0  0  0  0  0
  1 12  2  0  0  0  0
  2 15  2  0  0  0  0
  3 20  1  0  0  0  0
  3 40  1  0  0  0  0
  4 22  1  0  0  0  0
  4 41  1  0  0  0  0
  5 22  2  0  0  0  0
  6 11  1  0  0  0  0
  6 12  1  0  0  0  0
  6 27  1  0  0  0  0
  7  9  1  0  0  0  0
  7 31  1  0  0  0  0
  7 32  1  0  0  0  0
  8 15  1  0  0  0  0
  8 21  1  0  0  0  0
  8 35  1  0  0  0  0
  9 10  1  0  0  0  0
  9 12  1  0  0  0  0
  9 23  1  0  0  0  0
 10 13  1  0  0  0  0
 10 24  1  0  0  0  0
 10 25  1  0  0  0  0
 11 14  1  0  0  0  0
 11 15  1  0  0  0  0
 11 26  1  0  0  0  0
 13 16  2  0  0  0  0
 13 17  1  0  0  0  0
 14 28  1  0  0  0  0
 14 29  1  0  0  0  0
 14 30  1  0  0  0  0
 16 18  1  0  0  0  0
 16 33  1  0  0  0  0
 17 19  2  0  0  0  0
 17 34  1  0  0  0  0
 18 20  2  0  0  0  0
 18 36  1  0  0  0  0
 19 20  1  0  0  0  0
 19 37  1  0  0  0  0
 21 22  1  0  0  0  0
 21 38  1  0  0  0  0
 21 39  1  0  0  0  0
M  END
> <PUBCHEM_COMPOUND_CID>
125773

> <PUBCHEM_CONFORMER_RMSD>
0.8

> <PUBCHEM_CONFORMER_DIVERSEORDER>
1
58
81
177
213
111
225
176
31
200
13
8
243
67
77
26
235
137
124
87
184
50
65
229
32
186
203
133
173
201
101
6
219
191
238
117
179
195
109
140
53
180
160
105
23
99
72
181
122
214
95
39
155
163
123
189
244
82
167
138
44
103
215
89
55
183
88
19
193
156
218
45
48
108
68
100
116
112
196
78
12
71
231
28
60
245
57
174
169
185
38
237
166
33
241
240
165
226
37
131
21
197
228
216
175
93
154
222
52
199
158
162
234
79
25
10
20
118
224
205
153
149
64
223
212
120
147
75
242
127
198
84
202
168
17
164
41
63
92
232
143
110
134
76
190
136
34
171
102
192
54
27
207
204
40
132
70
178
161
220
69
209
144
49
210
182
90
159
74
135
30
151
121
3
230
83
5
172
119
104
208
211
236
239
148
129
157
98
43
113
16
47
170
227
9
96
145
4
152
91
128
11
106
107
97
86
142
150
56
194
29
18
22
7
14
35
221
115
73
24
80
62
94
59
146
126
139
51
188
15
114
187
85
206
217
42
141
61
2
36
130
233
125
46
66

> <PUBCHEM_MMFF94_PARTIAL_CHARGES>
31
1 -0.57
10 0.14
11 0.36
12 0.57
13 -0.14
15 0.57
16 -0.15
17 -0.15
18 -0.15
19 -0.15
2 -0.57
20 0.08
21 0.36
22 0.66
27 0.37
3 -0.53
31 0.36
32 0.36
33 0.15
34 0.15
35 0.37
36 0.15
37 0.15
4 -0.65
40 0.45
41 0.5
5 -0.57
6 -0.73
7 -0.99
8 -0.73
9 0.33

> <PUBCHEM_EFFECTIVE_ROTOR_COUNT>
9

> <PUBCHEM_PHARMACOPHORE_FEATURES>
11
1 1 acceptor
1 2 acceptor
1 3 donor
1 4 acceptor
1 5 acceptor
1 6 donor
1 7 cation
1 7 donor
1 8 donor
3 4 5 22 anion
6 13 16 17 18 19 20 rings

> <PUBCHEM_HEAVY_ATOM_COUNT>
22

> <PUBCHEM_ATOM_DEF_STEREO_COUNT>
2

> <PUBCHEM_ATOM_UDEF_STEREO_COUNT>
0

> <PUBCHEM_BOND_DEF_STEREO_COUNT>
0

> <PUBCHEM_BOND_UDEF_STEREO_COUNT>
0

> <PUBCHEM_ISOTOPIC_ATOM_COUNT>
0

> <PUBCHEM_COMPONENT_COUNT>
1

> <PUBCHEM_CACTVS_TAUTO_COUNT>
8

> <PUBCHEM_CONFORMER_ID>
0001EB4D00000001

> <PUBCHEM_MMFF94_ENERGY>
39.9659

> <PUBCHEM_FEATURE_SELFOVERLAP>
55.881

> <PUBCHEM_SHAPE_FINGERPRINT>
10366900 7 18127694825003078764
10871710 139 17762896972013183828
11370993 70 17830166909533194068
12035758 1 18334022696688605417
12403259 226 18200326437194201974
12553582 1 18191611802605521701
12633257 1 18196935470387567448
13294875 104 17395576095454457762
13544592 271 18413108377066172527
14840074 17 17328567931505976984
16120349 306 16827277550434809992
17357779 13 18127955594090037807
17492 54 17981568763414614525
23557571 272 18336560330211221739
23559900 14 18338804395015517580
238 59 17839441316009778652
2748010 2 18268449965811272903
3187 122 18335140950899208219
35225 105 17900780999707426776
3524813 1 18131637802601958834
484985 159 16447800513086486658
5262128 65 16837124222600608893
5282940 2 17111284672670328716
81228 2 18193024589195503403
84936 182 17038941746558650573
90316 7 18333735736262911505
9925002 15 16981240991367504175

> <PUBCHEM_SHAPE_MULTIPOLES>
408.46
5.88
4.48
1.65
4
0.61
-0.13
1.64
1.48
-1.75
-1.3
0.63
-0.36
2.77

> <PUBCHEM_SHAPE_SELFOVERLAP>
836.181

> <PUBCHEM_SHAPE_VOLUME>
234.4

> <PUBCHEM_COORDINATE_TYPE>
2
5
10

$$$$
