125701
  -OEChem-03292013323D

 30 29  0     1  0  0  0  0  0999 V2000
   -4.4163   -2.3117    0.2261 F   0  0  0  0  0  0  0  0  0  0  0  0
    0.7019    1.3279    1.5777 O   0  0  0  0  0  0  0  0  0  0  0  0
    1.2161   -0.7217   -1.3916 O   0  0  0  0  0  0  0  0  0  0  0  0
    3.5227    0.7553   -0.4938 O   0  0  0  0  0  0  0  0  0  0  0  0
    4.9962   -1.4433    0.2382 O   0  0  0  0  0  0  0  0  0  0  0  0
   -1.2566    3.3313   -0.3740 O   0  0  0  0  0  0  0  0  0  0  0  0
   -3.2408   -0.3944   -1.1899 O   0  0  0  0  0  0  0  0  0  0  0  0
   -1.5967   -0.1048    0.4336 N   0  0  0  0  0  0  0  0  0  0  0  0
    0.6227    0.9899    0.1856 C   0  0  1  0  0  0  0  0  0  0  0  0
    1.3958   -0.3280   -0.0241 C   0  0  2  0  0  0  0  0  0  0  0  0
   -0.8579    0.9491   -0.2152 C   0  0  2  0  0  0  0  0  0  0  0  0
    2.9010   -0.2681    0.2853 C   0  0  1  0  0  0  0  0  0  0  0  0
    3.6067   -1.5835   -0.0421 C   0  0  0  0  0  0  0  0  0  0  0  0
   -1.5633    2.2496    0.1211 C   0  0  0  0  0  0  0  0  0  0  0  0
   -2.7298   -0.6882   -0.1126 C   0  0  0  0  0  0  0  0  0  0  0  0
   -3.3018   -1.7595    0.7758 C   0  0  0  0  0  0  0  0  0  0  0  0
    1.1010    1.8018   -0.3765 H   0  0  0  0  0  0  0  0  0  0  0  0
    0.9565   -1.1148    0.6006 H   0  0  0  0  0  0  0  0  0  0  0  0
   -0.9521    0.8098   -1.2988 H   0  0  0  0  0  0  0  0  0  0  0  0
    3.0678   -0.0139    1.3379 H   0  0  0  0  0  0  0  0  0  0  0  0
    3.5185   -1.8316   -1.1045 H   0  0  0  0  0  0  0  0  0  0  0  0
    3.2057   -2.4058    0.5583 H   0  0  0  0  0  0  0  0  0  0  0  0
   -1.3040   -0.3853    1.3656 H   0  0  0  0  0  0  0  0  0  0  0  0
   -2.3706    2.1980    0.8728 H   0  0  0  0  0  0  0  0  0  0  0  0
    1.6176    1.5950    1.7643 H   0  0  0  0  0  0  0  0  0  0  0  0
    1.6366   -0.0441   -1.9486 H   0  0  0  0  0  0  0  0  0  0  0  0
    4.4684    0.7617   -0.2667 H   0  0  0  0  0  0  0  0  0  0  0  0
    5.4167   -2.2937    0.0248 H   0  0  0  0  0  0  0  0  0  0  0  0
   -3.5777   -1.3327    1.7442 H   0  0  0  0  0  0  0  0  0  0  0  0
   -2.5653   -2.5549    0.9211 H   0  0  0  0  0  0  0  0  0  0  0  0
  1 16  1  0  0  0  0
  2  9  1  0  0  0  0
  2 25  1  0  0  0  0
  3 10  1  0  0  0  0
  3 26  1  0  0  0  0
  4 12  1  0  0  0  0
  4 27  1  0  0  0  0
  5 13  1  0  0  0  0
  5 28  1  0  0  0  0
  6 14  2  0  0  0  0
  7 15  2  0  0  0  0
  8 11  1  0  0  0  0
  8 15  1  0  0  0  0
  8 23  1  0  0  0  0
  9 10  1  0  0  0  0
  9 11  1  0  0  0  0
  9 17  1  0  0  0  0
 10 12  1  0  0  0  0
 10 18  1  0  0  0  0
 11 14  1  0  0  0  0
 11 19  1  0  0  0  0
 12 13  1  0  0  0  0
 12 20  1  0  0  0  0
 13 21  1  0  0  0  0
 13 22  1  0  0  0  0
 14 24  1  0  0  0  0
 15 16  1  0  0  0  0
 16 29  1  0  0  0  0
 16 30  1  0  0  0  0
M  END
> <PUBCHEM_COMPOUND_CID>
125701

> <PUBCHEM_CONFORMER_RMSD>
0.8

> <PUBCHEM_CONFORMER_DIVERSEORDER>
1
62
12
68
15
23
74
32
36
69
40
54
63
20
55
25
57
29
31
45
52
26
61
22
64
17
37
21
72
9
51
34
42
28
18
65
35
2
77
71
30
59
46
73
67
27
16
10
13
66
48
24
8
4
19
43
14
11
38
44
7
5
58
6
53
33
70
3
39
47
76
60
50
56
75
49
41

> <PUBCHEM_MMFF94_PARTIAL_CHARGES>
22
1 -0.34
10 0.28
11 0.36
12 0.28
13 0.28
14 0.45
15 0.57
16 0.4
2 -0.68
23 0.37
24 0.06
25 0.4
26 0.4
27 0.4
28 0.4
3 -0.68
4 -0.68
5 -0.68
6 -0.57
7 -0.57
8 -0.73
9 0.28

> <PUBCHEM_EFFECTIVE_ROTOR_COUNT>
8

> <PUBCHEM_PHARMACOPHORE_FEATURES>
11
1 2 acceptor
1 2 donor
1 3 acceptor
1 3 donor
1 4 acceptor
1 4 donor
1 5 acceptor
1 5 donor
1 6 acceptor
1 7 acceptor
1 8 donor

> <PUBCHEM_HEAVY_ATOM_COUNT>
16

> <PUBCHEM_ATOM_DEF_STEREO_COUNT>
4

> <PUBCHEM_ATOM_UDEF_STEREO_COUNT>
0

> <PUBCHEM_BOND_DEF_STEREO_COUNT>
0

> <PUBCHEM_BOND_UDEF_STEREO_COUNT>
0

> <PUBCHEM_ISOTOPIC_ATOM_COUNT>
0

> <PUBCHEM_COMPONENT_COUNT>
1

> <PUBCHEM_CACTVS_TAUTO_COUNT>
4

> <PUBCHEM_CONFORMER_ID>
0001EB0500000001

> <PUBCHEM_MMFF94_ENERGY>
29.0761

> <PUBCHEM_FEATURE_SELFOVERLAP>
55.844

> <PUBCHEM_SHAPE_FINGERPRINT>
12500047 106 17976253543854403660
12532896 13 17835522622615127085
13705890 14 17967814976784202166
13955234 65 17619357941046482147
14965852 173 18265051332462147320
15375462 189 17988645254394537986
17539 30 18337380553211936517
18186145 218 11097851852847379074
20281407 28 18341613741217912939
20281475 54 18411986883457899339
20645477 70 17686326978239503115
20671657 53 18338241578032008865
20711985 344 18265600023203481793
20871998 22 18338514274132775753
20871999 31 18113893888543094117
21061003 4 17203603774699809360
21296965 67 18337954597018020513
21426921 1 18337111146871638204
21501502 16 18411144610507394704
23402539 116 18334855000234376014
23402655 69 12468625149716461339
23526113 38 17896883359914874113
23557571 272 18200314295379386068
23559900 14 18336536149798591928
3086196 2 18410009897189952050
5104073 3 18271518681785250330
58051976 100 18337674088234891356
7364860 26 17833554874784760769
81228 2 18340213973170327409
9709674 26 18197779890801601446

> <PUBCHEM_SHAPE_MULTIPOLES>
281.8
7.62
2.62
0.96
3.77
1.4
0.01
-6.35
0
-2.23
0.15
-0.13
0.02
0.35

> <PUBCHEM_SHAPE_SELFOVERLAP>
544.304

> <PUBCHEM_SHAPE_VOLUME>
169.2

> <PUBCHEM_COORDINATE_TYPE>
2
5
10

$$$$
