125871
  -OEChem-03292013323D

 46 48  0     1  0  0  0  0  0999 V2000
   -0.9147    0.6667    1.5008 S   0  0  0  0  0  0  0  0  0  0  0  0
    0.4585   -2.0288    1.4062 S   0  0  0  0  0  0  0  0  0  0  0  0
   -4.2910    2.5808   -1.1377 O   0  0  0  0  0  0  0  0  0  0  0  0
   -4.7573   -0.9060   -0.2229 O   0  0  0  0  0  0  0  0  0  0  0  0
   -2.3448   -2.2584   -2.0450 O   0  0  0  0  0  0  0  0  0  0  0  0
    5.1378    0.7765    1.2073 O   0  0  0  0  0  0  0  0  0  0  0  0
   -1.6229   -3.5682   -0.3147 O   0  0  0  0  0  0  0  0  0  0  0  0
   -2.5205   -0.1658   -0.4044 N   0  0  0  0  0  0  0  0  0  0  0  0
    4.2087   -1.5514    0.3348 N   0  0  0  0  0  0  0  0  0  0  0  0
    4.6194    1.8793   -0.7721 N   0  0  0  0  0  0  0  0  0  0  0  0
   -3.6312    1.1960    0.7060 C   0  0  2  0  0  0  0  0  0  0  0  0
   -2.1671    1.1086    0.2409 C   0  0  1  0  0  0  0  0  0  0  0  0
   -3.8441   -0.1264   -0.0696 C   0  0  0  0  0  0  0  0  0  0  0  0
   -4.5131    2.3368    0.2507 C   0  0  1  0  0  0  0  0  0  0  0  0
    1.8025   -1.6702    0.2450 C   0  0  1  0  0  0  0  0  0  0  0  0
   -1.6636   -1.1994   -0.1194 C   0  0  0  0  0  0  0  0  0  0  0  0
    2.2596   -0.2233    0.3104 C   0  0  0  0  0  0  0  0  0  0  0  0
    3.6608   -0.3244   -0.2586 C   0  0  1  0  0  0  0  0  0  0  0  0
   -0.7370   -0.9401    0.8190 C   0  0  0  0  0  0  0  0  0  0  0  0
    3.0717   -2.4748    0.5173 C   0  0  0  0  0  0  0  0  0  0  0  0
   -4.2155    3.6088    1.0348 C   0  0  0  0  0  0  0  0  0  0  0  0
    4.5373    0.8180    0.1302 C   0  0  0  0  0  0  0  0  0  0  0  0
   -1.8620   -2.4785   -0.8039 C   0  0  0  0  0  0  0  0  0  0  0  0
    5.4385    3.0574   -0.5174 C   0  0  0  0  0  0  0  0  0  0  0  0
    3.8901    1.8868   -2.0377 C   0  0  0  0  0  0  0  0  0  0  0  0
   -3.7686    1.0253    1.7847 H   0  0  0  0  0  0  0  0  0  0  0  0
   -1.8372    1.8596   -0.4841 H   0  0  0  0  0  0  0  0  0  0  0  0
   -5.5711    2.0832    0.3838 H   0  0  0  0  0  0  0  0  0  0  0  0
    1.4562   -1.8942   -0.7726 H   0  0  0  0  0  0  0  0  0  0  0  0
    2.2869    0.1631    1.3379 H   0  0  0  0  0  0  0  0  0  0  0  0
    1.6304    0.4402   -0.2904 H   0  0  0  0  0  0  0  0  0  0  0  0
    3.6448   -0.4827   -1.3410 H   0  0  0  0  0  0  0  0  0  0  0  0
    3.1104   -2.8913    1.5302 H   0  0  0  0  0  0  0  0  0  0  0  0
    3.1580   -3.3100   -0.1864 H   0  0  0  0  0  0  0  0  0  0  0  0
    4.5836   -1.3399    1.2609 H   0  0  0  0  0  0  0  0  0  0  0  0
   -3.1761    3.9240    0.8902 H   0  0  0  0  0  0  0  0  0  0  0  0
   -4.8479    4.4312    0.6843 H   0  0  0  0  0  0  0  0  0  0  0  0
   -4.3846    3.4643    2.1063 H   0  0  0  0  0  0  0  0  0  0  0  0
   -4.6345    1.8168   -1.6312 H   0  0  0  0  0  0  0  0  0  0  0  0
    5.9799    2.9619    0.4272 H   0  0  0  0  0  0  0  0  0  0  0  0
    4.7892    3.9363   -0.4687 H   0  0  0  0  0  0  0  0  0  0  0  0
    6.1581    3.1710   -1.3333 H   0  0  0  0  0  0  0  0  0  0  0  0
    4.4332    1.2637   -2.7540 H   0  0  0  0  0  0  0  0  0  0  0  0
    3.8239    2.9073   -2.4275 H   0  0  0  0  0  0  0  0  0  0  0  0
    2.8745    1.5071   -1.9134 H   0  0  0  0  0  0  0  0  0  0  0  0
   -2.4915   -3.0942   -2.5371 H   0  0  0  0  0  0  0  0  0  0  0  0
  1 12  1  0  0  0  0
  1 19  1  0  0  0  0
  2 15  1  0  0  0  0
  2 19  1  0  0  0  0
  3 14  1  0  0  0  0
  3 39  1  0  0  0  0
  4 13  2  0  0  0  0
  5 23  1  0  0  0  0
  5 46  1  0  0  0  0
  6 22  2  0  0  0  0
  7 23  2  0  0  0  0
  8 12  1  0  0  0  0
  8 13  1  0  0  0  0
  8 16  1  0  0  0  0
  9 18  1  0  0  0  0
  9 20  1  0  0  0  0
  9 35  1  0  0  0  0
 10 22  1  0  0  0  0
 10 24  1  0  0  0  0
 10 25  1  0  0  0  0
 11 12  1  0  0  0  0
 11 13  1  0  0  0  0
 11 14  1  0  0  0  0
 11 26  1  0  0  0  0
 12 27  1  0  0  0  0
 14 21  1  0  0  0  0
 14 28  1  0  0  0  0
 15 17  1  0  0  0  0
 15 20  1  0  0  0  0
 15 29  1  0  0  0  0
 16 19  2  0  0  0  0
 16 23  1  0  0  0  0
 17 18  1  0  0  0  0
 17 30  1  0  0  0  0
 17 31  1  0  0  0  0
 18 22  1  0  0  0  0
 18 32  1  0  0  0  0
 20 33  1  0  0  0  0
 20 34  1  0  0  0  0
 21 36  1  0  0  0  0
 21 37  1  0  0  0  0
 21 38  1  0  0  0  0
 24 40  1  0  0  0  0
 24 41  1  0  0  0  0
 24 42  1  0  0  0  0
 25 43  1  0  0  0  0
 25 44  1  0  0  0  0
 25 45  1  0  0  0  0
M  END
> <PUBCHEM_COMPOUND_CID>
125871

> <PUBCHEM_CONFORMER_RMSD>
0.8

> <PUBCHEM_CONFORMER_DIVERSEORDER>
4
44
81
40
47
93
31
76
13
52
68
59
73
45
85
23
65
79
19
66
87
78
82
3
74
94
61
70
64
69
75
26
33
62
27
98
88
77
25
20
32
46
97
67
55
57
95
7
86
80
34
91
6
11
14
16
43
84
24
63
22
72
38
83
42
12
90
21
50
54
56
28
41
53
49
18
37
15
29
96
58
5
1
17
30
39
48
51
60
71
2
89
36
10
8
92
9
35

> <PUBCHEM_MMFF94_PARTIAL_CHARGES>
26
1 -0.32
10 -0.66
11 0.05
12 0.44
13 0.58
14 0.28
15 0.23
16 0.12
18 0.33
19 0.2
2 -0.33
20 0.27
22 0.57
23 0.71
24 0.3
25 0.3
3 -0.68
35 0.36
39 0.4
4 -0.57
46 0.5
5 -0.65
6 -0.57
7 -0.57
8 -0.39
9 -0.9

> <PUBCHEM_EFFECTIVE_ROTOR_COUNT>
7.4

> <PUBCHEM_PHARMACOPHORE_FEATURES>
11
1 3 acceptor
1 3 donor
1 4 acceptor
1 5 acceptor
1 6 acceptor
1 7 acceptor
1 9 cation
1 9 donor
3 5 7 23 anion
5 9 15 17 18 20 rings
7 1 8 11 12 13 16 19 rings

> <PUBCHEM_HEAVY_ATOM_COUNT>
25

> <PUBCHEM_ATOM_DEF_STEREO_COUNT>
5

> <PUBCHEM_ATOM_UDEF_STEREO_COUNT>
0

> <PUBCHEM_BOND_DEF_STEREO_COUNT>
0

> <PUBCHEM_BOND_UDEF_STEREO_COUNT>
0

> <PUBCHEM_ISOTOPIC_ATOM_COUNT>
0

> <PUBCHEM_COMPONENT_COUNT>
1

> <PUBCHEM_CACTVS_TAUTO_COUNT>
1

> <PUBCHEM_CONFORMER_ID>
0001EBAF00000004

> <PUBCHEM_MMFF94_ENERGY>
82.581

> <PUBCHEM_FEATURE_SELFOVERLAP>
55.876

> <PUBCHEM_SHAPE_FINGERPRINT>
10673678 19 18123754158672084145
10906281 52 18271812256043256313
10928967 22 11167404806964108076
10937287 8 18410856529617489451
12107183 9 18121776128304668954
12173636 292 18342167878067845631
12633257 1 17241035609429019536
12788726 201 18267853047062267043
13103583 49 8501836790414434446
13383661 66 13396909921745637021
13617811 41 18266444568619492693
14251764 75 18269284469362176953
14790565 3 18269560438237988009
14848178 96 18335419050116585304
15163728 17 17986128326592724437
15342168 16 17967542302095157094
15484559 13 15874156546048664028
17959699 21 18411136918246763544
20511986 3 18337095835498026336
20715895 44 17907294352066968865
21033648 29 15864066542424682599
22393880 68 18272094958874711564
22907989 373 18269817793110264015
22950370 63 9727092966300612792
23227448 37 18410012169111704623
235170 7 16844464880667287452
23559900 14 17773879688509565310
245318 6 18116454586109643581
25265897 201 17984174597076716516
268830 7 17967521394563514786
2838139 119 17825658964127219389
312425 83 18131084731315775486
3472631 163 18412546474768273653
350125 39 18342457046048096505
394222 165 18191301568533481955
474 4 18113899386054059026
484985 159 10590669111933079024
5048184 11 18336553788997310876
5104073 3 18188491263745952595
56616090 13 18114464453162489961
6034566 193 18199767889713972441
6328613 192 17824269414001457700
633830 44 18259983769396031738
7288768 16 17676775369766452042
7970288 3 10014772448383263756
9981440 41 18117557551724283434

> <PUBCHEM_SHAPE_MULTIPOLES>
477.9
11.96
4.07
1.39
6.58
0.76
-0.31
10.63
-1.22
-1.02
-0.53
0.1
0.06
-2.4

> <PUBCHEM_SHAPE_SELFOVERLAP>
981.18

> <PUBCHEM_SHAPE_VOLUME>
280

> <PUBCHEM_COORDINATE_TYPE>
2
5
10

$$$$
