12583082
  -OEChem-03292013303D

 36 37  0     0  0  0  0  0  0999 V2000
    0.0047   -1.3620   -0.6669 O   0  0  0  0  0  0  0  0  0  0  0  0
    3.0821   -2.5044   -0.5092 O   0  0  0  0  0  0  0  0  0  0  0  0
   -3.0785   -2.5041   -0.5172 O   0  0  0  0  0  0  0  0  0  0  0  0
    5.1637    1.5220   -1.2867 O   0  0  0  0  0  0  0  0  0  0  0  0
   -5.1712    1.5189   -1.2823 O   0  0  0  0  0  0  0  0  0  0  0  0
    2.3275   -0.6209    0.6422 N   0  0  0  0  0  0  0  0  0  0  0  0
   -2.3101   -0.6340    0.6510 N   0  0  0  0  0  0  0  0  0  0  0  0
    4.1116   -0.4901   -0.8869 N   0  0  0  0  0  0  0  0  0  0  0  0
   -4.1127   -0.4912   -0.8897 N   0  0  0  0  0  0  0  0  0  0  0  0
    1.2849   -1.3356    1.3697 C   0  0  0  0  0  0  0  0  0  0  0  0
   -1.2835   -1.3358    1.3641 C   0  0  0  0  0  0  0  0  0  0  0  0
    0.0025   -1.3057    0.5634 C   0  0  0  0  0  0  0  0  0  0  0  0
    2.4622    0.7321    0.8765 C   0  0  0  0  0  0  0  0  0  0  0  0
   -2.4656    0.7305    0.8761 C   0  0  0  0  0  0  0  0  0  0  0  0
    3.3768    1.5034    0.2758 C   0  0  0  0  0  0  0  0  0  0  0  0
   -3.3823    1.5011    0.2778 C   0  0  0  0  0  0  0  0  0  0  0  0
    3.1570   -1.2991   -0.2609 C   0  0  0  0  0  0  0  0  0  0  0  0
   -3.1559   -1.2996   -0.2661 C   0  0  0  0  0  0  0  0  0  0  0  0
    4.3029    0.8707   -0.7008 C   0  0  0  0  0  0  0  0  0  0  0  0
   -4.3076    0.8685   -0.6996 C   0  0  0  0  0  0  0  0  0  0  0  0
    3.5200    2.9692    0.5321 C   0  0  0  0  0  0  0  0  0  0  0  0
   -3.5286    2.9661    0.5375 C   0  0  0  0  0  0  0  0  0  0  0  0
    1.5701   -2.3831    1.5129 H   0  0  0  0  0  0  0  0  0  0  0  0
    1.1400   -0.8776    2.3535 H   0  0  0  0  0  0  0  0  0  0  0  0
   -1.5627   -2.3850    1.5077 H   0  0  0  0  0  0  0  0  0  0  0  0
   -1.1367   -0.8829    2.3502 H   0  0  0  0  0  0  0  0  0  0  0  0
    1.7669    1.1609    1.5916 H   0  0  0  0  0  0  0  0  0  0  0  0
   -1.7728    1.1636    1.5916 H   0  0  0  0  0  0  0  0  0  0  0  0
    4.7303   -0.9501   -1.5490 H   0  0  0  0  0  0  0  0  0  0  0  0
   -4.7307   -0.9510   -1.5526 H   0  0  0  0  0  0  0  0  0  0  0  0
    4.5191    3.1941    0.9193 H   0  0  0  0  0  0  0  0  0  0  0  0
    2.7904    3.3291    1.2652 H   0  0  0  0  0  0  0  0  0  0  0  0
    3.3694    3.5358   -0.3926 H   0  0  0  0  0  0  0  0  0  0  0  0
   -3.3800    3.5349   -0.3861 H   0  0  0  0  0  0  0  0  0  0  0  0
   -2.7991    3.3261    1.2707 H   0  0  0  0  0  0  0  0  0  0  0  0
   -4.5279    3.1878    0.9262 H   0  0  0  0  0  0  0  0  0  0  0  0
  1 12  2  0  0  0  0
  2 17  2  0  0  0  0
  3 18  2  0  0  0  0
  4 19  2  0  0  0  0
  5 20  2  0  0  0  0
  6 10  1  0  0  0  0
  6 13  1  0  0  0  0
  6 17  1  0  0  0  0
  7 11  1  0  0  0  0
  7 14  1  0  0  0  0
  7 18  1  0  0  0  0
  8 17  1  0  0  0  0
  8 19  1  0  0  0  0
  8 29  1  0  0  0  0
  9 18  1  0  0  0  0
  9 20  1  0  0  0  0
  9 30  1  0  0  0  0
 10 12  1  0  0  0  0
 10 23  1  0  0  0  0
 10 24  1  0  0  0  0
 11 12  1  0  0  0  0
 11 25  1  0  0  0  0
 11 26  1  0  0  0  0
 13 15  2  0  0  0  0
 13 27  1  0  0  0  0
 14 16  2  0  0  0  0
 14 28  1  0  0  0  0
 15 19  1  0  0  0  0
 15 21  1  0  0  0  0
 16 20  1  0  0  0  0
 16 22  1  0  0  0  0
 21 31  1  0  0  0  0
 21 32  1  0  0  0  0
 21 33  1  0  0  0  0
 22 34  1  0  0  0  0
 22 35  1  0  0  0  0
 22 36  1  0  0  0  0
M  END
> <PUBCHEM_COMPOUND_CID>
12583082

> <PUBCHEM_CONFORMER_RMSD>
0.6

> <PUBCHEM_CONFORMER_DIVERSEORDER>
1
201
243
100
116
48
261
227
130
218
265
117
138
105
92
255
135
38
12
186
76
254
155
267
248
110
270
101
11
179
39
149
152
125
184
104
173
216
151
5
115
185
252
174
6
269
141
169
233
242
61
239
225
81
103
237
95
111
51
79
137
240
217
85
196
260
136
264
134
229
253
212
102
250
263
62
188
88
82
211
90
118
230
112
4
259
164
194
143
83
191
224
99
236
167
199
59
192
93
244
197
256
219
214
234
121
247
75
162
221
206
45
232
176
193
209
140
42
60
205
156
183
251
131
165
210
148
187
195
154
147
58
172
106
178
208
49
78
80
123
114
96
52
94
235
67
262
84
220
223
189
55
97
241
228
215
146
198
29
46
181
226
170
128
180
207
57
47
266
177
44
77
2
33
139
133
258
182
246
72
120
56
36
31
122
150
203
91
27
160
268
202
190
50
98
54
145
9
35
87
200
166
245
107
65
119
30
109
25
32
69
41
144
113
53
157
129
70
10
73
3
142
257
64
26
74
158
126
168
63
15
161
24
22
249
127
222
18
37
17
86
213
71
23
16
238
89
28
14
124
8
204
153
231
66
19
159
163
43
13
7
40
34
171
132
108
21
68
175
20

> <PUBCHEM_MMFF94_PARTIAL_CHARGES>
26
1 -0.57
10 0.36
11 0.36
12 0.45
13 -0.04
14 -0.04
15 -0.12
16 -0.12
17 0.69
18 0.69
19 0.62
2 -0.57
20 0.62
21 0.14
22 0.14
27 0.15
28 0.15
29 0.37
3 -0.57
30 0.37
4 -0.57
5 -0.57
6 -0.47
7 -0.47
8 -0.49
9 -0.49

> <PUBCHEM_EFFECTIVE_ROTOR_COUNT>
4

> <PUBCHEM_PHARMACOPHORE_FEATURES>
9
1 1 acceptor
1 2 acceptor
1 3 acceptor
1 4 acceptor
1 5 acceptor
1 8 donor
1 9 donor
6 6 8 13 15 17 19 rings
6 7 9 14 16 18 20 rings

> <PUBCHEM_HEAVY_ATOM_COUNT>
22

> <PUBCHEM_ATOM_DEF_STEREO_COUNT>
0

> <PUBCHEM_ATOM_UDEF_STEREO_COUNT>
0

> <PUBCHEM_BOND_DEF_STEREO_COUNT>
0

> <PUBCHEM_BOND_UDEF_STEREO_COUNT>
0

> <PUBCHEM_ISOTOPIC_ATOM_COUNT>
0

> <PUBCHEM_COMPONENT_COUNT>
1

> <PUBCHEM_CACTVS_TAUTO_COUNT>
15

> <PUBCHEM_CONFORMER_ID>
00C000AA00000001

> <PUBCHEM_MMFF94_ENERGY>
44.7038

> <PUBCHEM_FEATURE_SELFOVERLAP>
45.674

> <PUBCHEM_SHAPE_FINGERPRINT>
10498660 4 18409162233807396001
11543360 7 18272650181485667635
12363563 72 14476956770430947274
12596602 18 14346091814156131316
12670546 177 18202847659983845287
12788726 201 17825946198159591867
12892183 10 8070022281301879611
1420 369 11095877181461270477
14251764 38 18411699906602442672
14790565 3 18127129676834134017
14848178 96 18259704493067880708
16994733 274 16227147251823829791
17959699 21 18334572413188150741
193927 3 11743840308742867173
21864079 5 18261393299988865697
221357 26 18272655683328016505
22289505 5 18410292480758900644
22393880 68 18272938262644098326
22907989 373 17775001323708405375
23227448 37 18408598180611518237
23402655 69 18412549799399722240
235170 7 17417542405094653116
23557571 272 18042978751163340571
23559900 14 18271517585825342786
3472631 163 18335416829829054981
4028521 119 18335417959162749785
4280585 95 17340707205865658678
46194498 28 17915476088819162188
474 4 17822013124664468317
5281201 14 18343310253468923718
5895379 119 18200026219148503960
633830 44 18187646855932677731
7808743 9 17531538710222115564
9981440 41 18189042256394552818

> <PUBCHEM_SHAPE_MULTIPOLES>
403.48
11.07
3.02
1.2
0.04
1.05
-0.05
5.62
4.26
0
-0.15
0
-0.04
-0.01

> <PUBCHEM_SHAPE_SELFOVERLAP>
850.691

> <PUBCHEM_SHAPE_VOLUME>
223.1

> <PUBCHEM_COORDINATE_TYPE>
2
5
10

$$$$
