125848
  -OEChem-03292013323D

 40 44  0     1  0  0  0  0  0999 V2000
    0.3031   -0.8394   -1.9302 O   0  0  0  0  0  0  0  0  0  0  0  0
   -0.8769   -3.4627    0.6732 O   0  0  0  0  0  0  0  0  0  0  0  0
   -4.8277   -0.9769    0.2395 O   0  0  0  0  0  0  0  0  0  0  0  0
   -4.8744    1.5189   -0.2016 O   0  0  0  0  0  0  0  0  0  0  0  0
    4.9380    1.3398    0.5264 O   0  0  0  0  0  0  0  0  0  0  0  0
    4.8246   -1.1620    0.0448 O   0  0  0  0  0  0  0  0  0  0  0  0
   -0.6236   -1.0673    0.3359 C   0  0  1  0  0  0  0  0  0  0  0  0
    0.6797   -1.0259   -0.5531 C   0  0  2  0  0  0  0  0  0  0  0  0
   -1.4146    0.2313    0.1209 C   0  0  0  0  0  0  0  0  0  0  0  0
   -1.5134   -2.3130    0.1162 C   0  0  2  0  0  0  0  0  0  0  0  0
    1.4775    0.2132   -0.1538 C   0  0  0  0  0  0  0  0  0  0  0  0
   -0.6953    1.4439   -0.0496 C   0  0  0  0  0  0  0  0  0  0  0  0
    0.7824    1.4313    0.0441 C   0  0  0  0  0  0  0  0  0  0  0  0
   -2.8537   -2.1802    0.8222 C   0  0  0  0  0  0  0  0  0  0  0  0
   -2.8212    0.2554    0.0918 C   0  0  0  0  0  0  0  0  0  0  0  0
    1.5121   -2.2830   -0.5286 C   0  0  0  0  0  0  0  0  0  0  0  0
    2.8714    0.1697    0.0258 C   0  0  0  0  0  0  0  0  0  0  0  0
   -3.6055   -0.9721    0.3482 C   0  0  0  0  0  0  0  0  0  0  0  0
   -1.4181    2.6237   -0.3088 C   0  0  0  0  0  0  0  0  0  0  0  0
   -3.5139    1.4442   -0.1575 C   0  0  0  0  0  0  0  0  0  0  0  0
    1.5258    2.5784    0.3796 C   0  0  0  0  0  0  0  0  0  0  0  0
    2.8287   -2.3366   -0.3124 C   0  0  0  0  0  0  0  0  0  0  0  0
    3.6063   -1.1079   -0.0748 C   0  0  0  0  0  0  0  0  0  0  0  0
    3.5866    1.3260    0.3494 C   0  0  0  0  0  0  0  0  0  0  0  0
   -2.8105    2.6228   -0.3663 C   0  0  0  0  0  0  0  0  0  0  0  0
    2.9126    2.5284    0.5186 C   0  0  0  0  0  0  0  0  0  0  0  0
   -0.3083   -1.0763    1.3915 H   0  0  0  0  0  0  0  0  0  0  0  0
   -1.6755   -2.4892   -0.9536 H   0  0  0  0  0  0  0  0  0  0  0  0
   -2.7316   -2.1202    1.9103 H   0  0  0  0  0  0  0  0  0  0  0  0
   -3.4603   -3.0718    0.6215 H   0  0  0  0  0  0  0  0  0  0  0  0
    1.0246   -3.2208   -0.7801 H   0  0  0  0  0  0  0  0  0  0  0  0
   -0.1696   -1.6330   -2.2325 H   0  0  0  0  0  0  0  0  0  0  0  0
   -0.9098    3.5690   -0.4825 H   0  0  0  0  0  0  0  0  0  0  0  0
    1.0384    3.5327    0.5631 H   0  0  0  0  0  0  0  0  0  0  0  0
    3.3650   -3.2780   -0.3498 H   0  0  0  0  0  0  0  0  0  0  0  0
   -1.4336   -4.2342    0.4717 H   0  0  0  0  0  0  0  0  0  0  0  0
   -3.3284    3.5570   -0.5678 H   0  0  0  0  0  0  0  0  0  0  0  0
    3.4470    3.4382    0.7801 H   0  0  0  0  0  0  0  0  0  0  0  0
   -5.1466    2.4342   -0.3855 H   0  0  0  0  0  0  0  0  0  0  0  0
    5.2299    2.2408    0.7469 H   0  0  0  0  0  0  0  0  0  0  0  0
  1  8  1  0  0  0  0
  1 32  1  0  0  0  0
  2 10  1  0  0  0  0
  2 36  1  0  0  0  0
  3 18  2  0  0  0  0
  4 20  1  0  0  0  0
  4 39  1  0  0  0  0
  5 24  1  0  0  0  0
  5 40  1  0  0  0  0
  6 23  2  0  0  0  0
  7  8  1  0  0  0  0
  7  9  1  0  0  0  0
  7 10  1  0  0  0  0
  7 27  1  0  0  0  0
  8 11  1  0  0  0  0
  8 16  1  0  0  0  0
  9 12  2  0  0  0  0
  9 15  1  0  0  0  0
 10 14  1  0  0  0  0
 10 28  1  0  0  0  0
 11 13  2  0  0  0  0
 11 17  1  0  0  0  0
 12 13  1  0  0  0  0
 12 19  1  0  0  0  0
 13 21  1  0  0  0  0
 14 18  1  0  0  0  0
 14 29  1  0  0  0  0
 14 30  1  0  0  0  0
 15 18  1  0  0  0  0
 15 20  2  0  0  0  0
 16 22  2  0  0  0  0
 16 31  1  0  0  0  0
 17 23  1  0  0  0  0
 17 24  2  0  0  0  0
 19 25  2  0  0  0  0
 19 33  1  0  0  0  0
 20 25  1  0  0  0  0
 21 26  2  0  0  0  0
 21 34  1  0  0  0  0
 22 23  1  0  0  0  0
 22 35  1  0  0  0  0
 24 26  1  0  0  0  0
 25 37  1  0  0  0  0
 26 38  1  0  0  0  0
M  END
> <PUBCHEM_COMPOUND_CID>
125848

> <PUBCHEM_CONFORMER_RMSD>
0.6

> <PUBCHEM_CONFORMER_DIVERSEORDER>
1

> <PUBCHEM_MMFF94_PARTIAL_CHARGES>
34
1 -0.68
10 0.28
11 -0.14
14 0.06
15 0.09
16 -0.29
17 0.09
18 0.42
19 -0.15
2 -0.68
20 0.08
21 -0.15
22 -0.14
23 0.47
24 0.08
25 -0.15
26 -0.15
3 -0.57
31 0.15
32 0.4
33 0.15
34 0.15
35 0.15
36 0.4
37 0.15
38 0.15
39 0.45
4 -0.53
40 0.45
5 -0.53
6 -0.57
7 0.14
8 0.56
9 -0.14

> <PUBCHEM_EFFECTIVE_ROTOR_COUNT>
0.4

> <PUBCHEM_PHARMACOPHORE_FEATURES>
13
1 1 acceptor
1 1 donor
1 2 acceptor
1 2 donor
1 3 acceptor
1 4 donor
1 5 donor
1 6 acceptor
6 11 13 17 21 24 26 rings
6 7 8 9 11 12 13 rings
6 7 9 10 14 15 18 rings
6 8 11 16 17 22 23 rings
6 9 12 15 19 20 25 rings

> <PUBCHEM_HEAVY_ATOM_COUNT>
26

> <PUBCHEM_ATOM_DEF_STEREO_COUNT>
3

> <PUBCHEM_ATOM_UDEF_STEREO_COUNT>
0

> <PUBCHEM_BOND_DEF_STEREO_COUNT>
0

> <PUBCHEM_BOND_UDEF_STEREO_COUNT>
0

> <PUBCHEM_ISOTOPIC_ATOM_COUNT>
0

> <PUBCHEM_COMPONENT_COUNT>
1

> <PUBCHEM_CACTVS_TAUTO_COUNT>
110

> <PUBCHEM_CONFORMER_ID>
0001EB9800000001

> <PUBCHEM_MMFF94_ENERGY>
89.4927

> <PUBCHEM_FEATURE_SELFOVERLAP>
66.1

> <PUBCHEM_SHAPE_FINGERPRINT>
10319926 262 18338218415885441994
10411042 1 17547855152929502711
10608611 8 18411138030321532936
10616163 171 18265898132234809480
10675989 125 16317233249031678164
10863032 1 18410575050319216792
10967382 1 18339081608841403296
1100329 8 16680065510723049107
11370993 70 18410006615729514315
11578080 2 17024288748500209780
11680986 33 18411984650127873588
12011746 2 18340491049999806758
12035758 1 18338800013579300256
12403259 226 18410572859970395813
12403260 363 18411693279641367559
12553582 1 17831315147886813195
12633257 1 18266742389550421536
13140716 1 17979638158039651273
13224815 77 18060143149637308429
13402501 40 18410856551076300281
138480 1 17473541348325421787
14223421 5 18410576231635618344
14790565 3 17619076031603971217
15196674 1 18411699885058339281
16945 1 18410578430484865564
17492 89 18410575084737776499
1813 80 17022900185631662404
19591789 44 18337390431108800051
19930381 70 18265894644574100947
20510252 161 18412546505086213385
20905425 154 18340494455502670918
21267235 1 18410865351527995986
21279426 13 18338517426295600468
21421861 104 18114172030567388762
221490 88 18411423877886174274
23227448 37 18342172297367419791
2334 1 17691128553184249772
23402539 116 18412257333686357263
23559900 14 18411697669356536912
238 59 17468439687629494781
27425 322 17167584907825257093
2748010 2 18336558161516364431
335352 9 18338517426216511660
3380486 145 18194134125450742499
350125 39 18410017619409560693
3680242 22 17975414620434305331
5104073 3 18410856546765516089
59755656 215 18409729577422352613
8809292 202 18408889503383859505
9709674 26 18411984649996082838

> <PUBCHEM_SHAPE_MULTIPOLES>
499.85
8.14
3.63
0.83
0.26
0.3
0.18
-0.97
-0.87
-0.26
-0.27
0.02
0.16
1.2

> <PUBCHEM_SHAPE_SELFOVERLAP>
1151.541

> <PUBCHEM_SHAPE_VOLUME>
250.8

> <PUBCHEM_COORDINATE_TYPE>
2
5
10

$$$$
