125927
  -OEChem-03292013323D

 49 49  0     1  0  0  0  0  0999 V2000
    0.3329    1.6345    2.1723 O   0  0  0  0  0  0  0  0  0  0  0  0
   -1.9868   -0.1632    0.0301 O   0  0  0  0  0  0  0  0  0  0  0  0
    1.2245    1.3977   -0.6024 O   0  0  0  0  0  0  0  0  0  0  0  0
    1.3876   -0.8950    1.1977 O   0  0  0  0  0  0  0  0  0  0  0  0
   -0.4760    4.2874   -0.1542 O   0  0  0  0  0  0  0  0  0  0  0  0
    0.5983    1.1824   -2.8156 O   0  0  0  0  0  0  0  0  0  0  0  0
   -4.3430   -2.7655   -0.6151 O   0  0  0  0  0  0  0  0  0  0  0  0
    3.3251   -3.4906   -0.3019 O   0  0  0  0  0  0  0  0  0  0  0  0
   -4.6443   -0.5620    0.0032 O   0  0  0  0  0  0  0  0  0  0  0  0
    3.9597   -1.5681    0.8070 O   0  0  0  0  0  0  0  0  0  0  0  0
   -0.5637   -0.0686    0.0242 C   0  0  1  0  0  0  0  0  0  0  0  0
   -0.1459    1.3895   -0.2054 C   0  0  1  0  0  0  0  0  0  0  0  0
   -0.0076   -0.6316    1.3369 C   0  0  2  0  0  0  0  0  0  0  0  0
   -0.3427    2.2365    1.0629 C   0  0  2  0  0  0  0  0  0  0  0  0
   -0.1846    0.3437    2.4978 C   0  0  0  0  0  0  0  0  0  0  0  0
    0.1970    3.6553    0.9194 C   0  0  0  0  0  0  0  0  0  0  0  0
   -2.4187   -1.4746   -0.2983 C   0  0  0  0  0  0  0  0  0  0  0  0
    1.6168   -2.0980    0.4804 C   0  0  0  0  0  0  0  0  0  0  0  0
    1.4509    1.2863   -1.9442 C   0  0  0  0  0  0  0  0  0  0  0  0
   -3.9241   -1.5110   -0.2757 C   0  0  0  0  0  0  0  0  0  0  0  0
   -0.0216    5.6221   -0.3480 C   0  0  0  0  0  0  0  0  0  0  0  0
    3.1018   -2.3210    0.3666 C   0  0  0  0  0  0  0  0  0  0  0  0
    2.9254    1.3098   -2.2112 C   0  0  0  0  0  0  0  0  0  0  0  0
   -5.7614   -2.9559   -0.6378 C   0  0  0  0  0  0  0  0  0  0  0  0
    4.7004   -3.8403   -0.4886 C   0  0  0  0  0  0  0  0  0  0  0  0
   -0.1962   -0.6383   -0.8347 H   0  0  0  0  0  0  0  0  0  0  0  0
   -0.7762    1.8302   -0.9895 H   0  0  0  0  0  0  0  0  0  0  0  0
   -0.5065   -1.5579    1.6398 H   0  0  0  0  0  0  0  0  0  0  0  0
   -1.4156    2.2936    1.2919 H   0  0  0  0  0  0  0  0  0  0  0  0
    0.3678   -0.0075    3.3757 H   0  0  0  0  0  0  0  0  0  0  0  0
   -1.2396    0.4410    2.7786 H   0  0  0  0  0  0  0  0  0  0  0  0
    0.0247    4.2100    1.8502 H   0  0  0  0  0  0  0  0  0  0  0  0
    1.2797    3.6463    0.7434 H   0  0  0  0  0  0  0  0  0  0  0  0
   -2.0873   -1.7301   -1.3107 H   0  0  0  0  0  0  0  0  0  0  0  0
   -2.0563   -2.2097    0.4244 H   0  0  0  0  0  0  0  0  0  0  0  0
    1.1842   -2.9424    1.0278 H   0  0  0  0  0  0  0  0  0  0  0  0
    1.2166   -2.0490   -0.5346 H   0  0  0  0  0  0  0  0  0  0  0  0
   -0.5768    6.0560   -1.1839 H   0  0  0  0  0  0  0  0  0  0  0  0
    1.0447    5.6307   -0.5939 H   0  0  0  0  0  0  0  0  0  0  0  0
   -0.2081    6.2238    0.5467 H   0  0  0  0  0  0  0  0  0  0  0  0
    3.3498    2.2547   -1.8627 H   0  0  0  0  0  0  0  0  0  0  0  0
    3.1008    1.2244   -3.2874 H   0  0  0  0  0  0  0  0  0  0  0  0
    3.4051    0.4642   -1.7117 H   0  0  0  0  0  0  0  0  0  0  0  0
   -5.9607   -3.9927   -0.9215 H   0  0  0  0  0  0  0  0  0  0  0  0
   -6.2204   -2.2945   -1.3789 H   0  0  0  0  0  0  0  0  0  0  0  0
   -6.1835   -2.7762    0.3555 H   0  0  0  0  0  0  0  0  0  0  0  0
    5.2087   -3.0740   -1.0815 H   0  0  0  0  0  0  0  0  0  0  0  0
    5.1928   -3.9703    0.4799 H   0  0  0  0  0  0  0  0  0  0  0  0
    4.7395   -4.7879   -1.0323 H   0  0  0  0  0  0  0  0  0  0  0  0
  1 14  1  0  0  0  0
  1 15  1  0  0  0  0
  2 11  1  0  0  0  0
  2 17  1  0  0  0  0
  3 12  1  0  0  0  0
  3 19  1  0  0  0  0
  4 13  1  0  0  0  0
  4 18  1  0  0  0  0
  5 16  1  0  0  0  0
  5 21  1  0  0  0  0
  6 19  2  0  0  0  0
  7 20  1  0  0  0  0
  7 24  1  0  0  0  0
  8 22  1  0  0  0  0
  8 25  1  0  0  0  0
  9 20  2  0  0  0  0
 10 22  2  0  0  0  0
 11 12  1  0  0  0  0
 11 13  1  0  0  0  0
 11 26  1  0  0  0  0
 12 14  1  0  0  0  0
 12 27  1  0  0  0  0
 13 15  1  0  0  0  0
 13 28  1  0  0  0  0
 14 16  1  0  0  0  0
 14 29  1  0  0  0  0
 15 30  1  0  0  0  0
 15 31  1  0  0  0  0
 16 32  1  0  0  0  0
 16 33  1  0  0  0  0
 17 20  1  0  0  0  0
 17 34  1  0  0  0  0
 17 35  1  0  0  0  0
 18 22  1  0  0  0  0
 18 36  1  0  0  0  0
 18 37  1  0  0  0  0
 19 23  1  0  0  0  0
 21 38  1  0  0  0  0
 21 39  1  0  0  0  0
 21 40  1  0  0  0  0
 23 41  1  0  0  0  0
 23 42  1  0  0  0  0
 23 43  1  0  0  0  0
 24 44  1  0  0  0  0
 24 45  1  0  0  0  0
 24 46  1  0  0  0  0
 25 47  1  0  0  0  0
 25 48  1  0  0  0  0
 25 49  1  0  0  0  0
M  END
> <PUBCHEM_COMPOUND_CID>
125927

> <PUBCHEM_CONFORMER_RMSD>
1

> <PUBCHEM_CONFORMER_DIVERSEORDER>
1
139
164
22
90
94
31
46
14
44
136
155
35
53
49
150
131
120
38
158
6
167
66
107
101
54
160
92
65
185
58
96
154
37
178
62
184
122
36
30
170
26
5
162
51
105
87
28
118
88
116
114
153
9
25
102
18
121
59
68
57
84
64
110
33
50
147
3
95
159
73
74
113
124
126
80
55
135
32
63
138
23
13
71
42
175
161
130
109
56
41
128
61
103
34
112
39
171
156
52
99
183
10
76
48
182
27
169
144
75
157
82
152
140
141
85
148
7
119
8
125
163
111
24
83
98
127
93
181
43
143
17
97
78
151
67
176
15
19
168
70
165
108
40
173
21
132
89
86
20
79
81
134
100
106
142
180
91
129
12
60
117
29
45
174
72
179
133
146
77
177
104
4
11
69
137
2
145
166
123
115
47
172
16
149

> <PUBCHEM_MMFF94_PARTIAL_CHARGES>
25
1 -0.56
10 -0.57
11 0.28
12 0.28
13 0.28
14 0.28
15 0.28
16 0.28
17 0.34
18 0.34
19 0.66
2 -0.56
20 0.66
21 0.28
22 0.66
23 0.06
24 0.28
25 0.28
3 -0.43
4 -0.56
5 -0.56
6 -0.57
7 -0.43
8 -0.43
9 -0.57

> <PUBCHEM_EFFECTIVE_ROTOR_COUNT>
13.2

> <PUBCHEM_PHARMACOPHORE_FEATURES>
8
1 1 acceptor
1 10 acceptor
1 2 acceptor
1 4 acceptor
1 5 acceptor
1 6 acceptor
1 9 acceptor
6 1 11 12 13 14 15 rings

> <PUBCHEM_HEAVY_ATOM_COUNT>
25

> <PUBCHEM_ATOM_DEF_STEREO_COUNT>
0

> <PUBCHEM_ATOM_UDEF_STEREO_COUNT>
4

> <PUBCHEM_BOND_DEF_STEREO_COUNT>
0

> <PUBCHEM_BOND_UDEF_STEREO_COUNT>
0

> <PUBCHEM_ISOTOPIC_ATOM_COUNT>
0

> <PUBCHEM_COMPONENT_COUNT>
1

> <PUBCHEM_CACTVS_TAUTO_COUNT>
1

> <PUBCHEM_CONFORMER_ID>
0001EBE700000001

> <PUBCHEM_MMFF94_ENERGY>
57.2919

> <PUBCHEM_FEATURE_SELFOVERLAP>
40.619

> <PUBCHEM_SHAPE_FINGERPRINT>
12597179 24 17045714196935572772
13955234 65 18120935272740403171
14142880 1 17610908885392012240
14863182 85 18266732670345833826
15664445 248 18270129048926344932
17980427 26 17908694386750881933
1813 80 18187074023217466307
20388580 30 18333729126203475399
20600515 1 17703232806528319089
23419403 2 17755820321797469328
4409770 3 17907010674024599929
46194498 28 17822001069161573039
5845 1 11934607311202047215
59554788 248 17183945395817241617
6669772 16 17620759813470631172
9925002 15 18265911154438819329

> <PUBCHEM_SHAPE_MULTIPOLES>
455.8
7.52
6.34
1.98
8.86
6.18
0.25
-13.98
2.77
-3.17
0.6
-1.09
1.07
-1.45

> <PUBCHEM_SHAPE_SELFOVERLAP>
904.733

> <PUBCHEM_SHAPE_VOLUME>
268.7

> <PUBCHEM_COORDINATE_TYPE>
2
5
10

$$$$
