125912
  -OEChem-03292013323D

 49 53  0     1  0  0  0  0  0999 V2000
    4.4439    0.2152    0.9431 O   0  0  0  0  0  0  0  0  0  0  0  0
    4.9416   -1.3958   -1.7864 O   0  0  0  0  0  0  0  0  0  0  0  0
    5.8075    1.1477   -2.2477 O   0  0  0  0  0  0  0  0  0  0  0  0
    6.3240    2.0164    2.0373 O   0  0  0  0  0  0  0  0  0  0  0  0
    2.2169   -0.3158    0.3161 N   0  0  0  0  0  0  0  0  0  0  0  0
   -2.3644   -0.4481    0.8472 N   0  0  0  0  0  0  0  0  0  0  0  0
    0.3827    0.8545    0.8017 N   0  0  0  0  0  0  0  0  0  0  0  0
    1.2301   -2.5053   -0.0485 N   0  0  0  0  0  0  0  0  0  0  0  0
   -1.1901   -2.4492    0.2609 N   0  0  0  0  0  0  0  0  0  0  0  0
    3.6317   -0.6064    0.0773 C   0  0  1  0  0  0  0  0  0  0  0  0
    4.0773   -0.3431   -1.3621 C   0  0  1  0  0  0  0  0  0  0  0  0
    4.8273    0.9707   -1.2476 C   0  0  1  0  0  0  0  0  0  0  0  0
    5.4369    0.8744    0.1403 C   0  0  1  0  0  0  0  0  0  0  0  0
   -3.6663   -1.0924    0.8636 C   0  0  0  0  0  0  0  0  0  0  0  0
   -4.6638   -0.2245    1.6558 C   0  0  0  0  0  0  0  0  0  0  0  0
   -4.2165   -1.2045   -0.5721 C   0  0  0  0  0  0  0  0  0  0  0  0
    5.7757    2.2241    0.7474 C   0  0  0  0  0  0  0  0  0  0  0  0
   -5.2765    0.6064    0.5700 C   0  0  0  0  0  0  0  0  0  0  0  0
   -5.0242    0.0520   -0.6896 C   0  0  0  0  0  0  0  0  0  0  0  0
    1.1765   -1.1980    0.2480 C   0  0  0  0  0  0  0  0  0  0  0  0
    0.0484   -0.4529    0.5519 C   0  0  0  0  0  0  0  0  0  0  0  0
    1.6900    0.9030    0.6523 C   0  0  0  0  0  0  0  0  0  0  0  0
   -1.1902   -1.1141    0.5569 C   0  0  0  0  0  0  0  0  0  0  0  0
   -6.0409    1.7531    0.7055 C   0  0  0  0  0  0  0  0  0  0  0  0
   -5.5312    0.6326   -1.8400 C   0  0  0  0  0  0  0  0  0  0  0  0
   -6.5463    2.3523   -0.4502 C   0  0  0  0  0  0  0  0  0  0  0  0
   -6.2934    1.7959   -1.7139 C   0  0  0  0  0  0  0  0  0  0  0  0
   -0.0066   -3.0478   -0.0170 C   0  0  0  0  0  0  0  0  0  0  0  0
    3.7937   -1.6485    0.3766 H   0  0  0  0  0  0  0  0  0  0  0  0
    3.2563   -0.2964   -2.0837 H   0  0  0  0  0  0  0  0  0  0  0  0
    4.1166    1.8051   -1.2919 H   0  0  0  0  0  0  0  0  0  0  0  0
    6.3356    0.2446    0.1447 H   0  0  0  0  0  0  0  0  0  0  0  0
   -3.5770   -2.0765    1.3390 H   0  0  0  0  0  0  0  0  0  0  0  0
   -4.1825    0.3889    2.4238 H   0  0  0  0  0  0  0  0  0  0  0  0
   -5.4414   -0.8469    2.1124 H   0  0  0  0  0  0  0  0  0  0  0  0
   -4.8831   -2.0691   -0.6634 H   0  0  0  0  0  0  0  0  0  0  0  0
   -3.4350   -1.2590   -1.3359 H   0  0  0  0  0  0  0  0  0  0  0  0
    4.8848    2.8503    0.8611 H   0  0  0  0  0  0  0  0  0  0  0  0
    6.5103    2.7607    0.1402 H   0  0  0  0  0  0  0  0  0  0  0  0
   -2.3105    0.5521    1.0062 H   0  0  0  0  0  0  0  0  0  0  0  0
    2.2970    1.7901    0.7709 H   0  0  0  0  0  0  0  0  0  0  0  0
    5.6703   -1.4744   -1.1483 H   0  0  0  0  0  0  0  0  0  0  0  0
    5.3595    1.0871   -3.1086 H   0  0  0  0  0  0  0  0  0  0  0  0
   -6.2464    2.1787    1.6818 H   0  0  0  0  0  0  0  0  0  0  0  0
   -5.3456    0.1987   -2.8167 H   0  0  0  0  0  0  0  0  0  0  0  0
    5.6622    1.5362    2.5638 H   0  0  0  0  0  0  0  0  0  0  0  0
   -7.1464    3.2549   -0.3715 H   0  0  0  0  0  0  0  0  0  0  0  0
   -6.7000    2.2731   -2.6015 H   0  0  0  0  0  0  0  0  0  0  0  0
   -0.0611   -4.1069   -0.2453 H   0  0  0  0  0  0  0  0  0  0  0  0
  1 10  1  0  0  0  0
  1 13  1  0  0  0  0
  2 11  1  0  0  0  0
  2 42  1  0  0  0  0
  3 12  1  0  0  0  0
  3 43  1  0  0  0  0
  4 17  1  0  0  0  0
  4 46  1  0  0  0  0
  5 10  1  0  0  0  0
  5 20  1  0  0  0  0
  5 22  1  0  0  0  0
  6 14  1  0  0  0  0
  6 23  1  0  0  0  0
  6 40  1  0  0  0  0
  7 21  1  0  0  0  0
  7 22  2  0  0  0  0
  8 20  2  0  0  0  0
  8 28  1  0  0  0  0
  9 23  1  0  0  0  0
  9 28  2  0  0  0  0
 10 11  1  0  0  0  0
 10 29  1  0  0  0  0
 11 12  1  0  0  0  0
 11 30  1  0  0  0  0
 12 13  1  0  0  0  0
 12 31  1  0  0  0  0
 13 17  1  0  0  0  0
 13 32  1  0  0  0  0
 14 15  1  0  0  0  0
 14 16  1  0  0  0  0
 14 33  1  0  0  0  0
 15 18  1  0  0  0  0
 15 34  1  0  0  0  0
 15 35  1  0  0  0  0
 16 19  1  0  0  0  0
 16 36  1  0  0  0  0
 16 37  1  0  0  0  0
 17 38  1  0  0  0  0
 17 39  1  0  0  0  0
 18 19  1  0  0  0  0
 18 24  2  0  0  0  0
 19 25  2  0  0  0  0
 20 21  1  0  0  0  0
 21 23  2  0  0  0  0
 22 41  1  0  0  0  0
 24 26  1  0  0  0  0
 24 44  1  0  0  0  0
 25 27  1  0  0  0  0
 25 45  1  0  0  0  0
 26 27  2  0  0  0  0
 26 47  1  0  0  0  0
 27 48  1  0  0  0  0
 28 49  1  0  0  0  0
M  END
> <PUBCHEM_COMPOUND_CID>
125912

> <PUBCHEM_CONFORMER_RMSD>
0.8

> <PUBCHEM_CONFORMER_DIVERSEORDER>
1
252
20
183
55
75
262
260
269
306
193
219
323
330
231
54
241
123
153
220
37
251
177
11
244
100
134
88
184
91
206
208
162
314
33
222
284
42
199
272
69
235
192
7
240
25
160
332
275
327
234
2
310
85
324
250
23
270
146
15
266
78
322
291
182
138
59
135
320
280
178
6
242
145
321
163
3
293
34
227
32
326
68
215
268
294
154
101
232
22
157
301
300
288
74
127
8
277
9
152
104
261
27
185
255
253
120
73
238
81
172
36
191
278
256
167
62
105
315
110
179
329
39
209
52
189
5
165
224
309
115
307
258
137
84
216
86
90
149
139
168
118
151
21
158
243
204
319
66
181
312
331
194
119
94
225
202
195
64
318
279
218
286
76
89
298
40
217
103
92
197
18
98
43
313
317
17
107
292
228
333
38
82
19
205
150
221
63
188
276
237
249
161
207
122
61
174
93
83
30
148
305
116
130
70
14
173
28
233
180
108
4
171
112
175
140
136
196
45
311
274
248
41
99
80
200
156
246
271
95
35
114
264
13
26
58
77
263
31
141
316
239
325
273
187
121
159
132
190
230
111
203
79
212
155
223
186
102
290
299
267
48
96
133
285
128
170
164
169
296
117
12
87
287
49
67
211
109
214
142
97
229
71
24
44
113
51
245
281
297
65
283
60
56
289
144
282
176
257
131
265
210
308
201
213
47
125
129
147
53
143
16
247
254
126
198
236
295
29
328
303
166
46
124
50
106
226
57
302
72
10
259
304

> <PUBCHEM_MMFF94_PARTIAL_CHARGES>
38
1 -0.56
10 0.54
11 0.28
12 0.28
13 0.28
14 0.37
15 0.14
16 0.14
17 0.28
18 -0.14
19 -0.14
2 -0.68
20 0.11
21 0.23
22 0.04
23 0.41
24 -0.15
25 -0.15
26 -0.15
27 -0.15
28 0.47
3 -0.68
4 -0.68
40 0.4
41 0.15
42 0.4
43 0.4
44 0.15
45 0.15
46 0.4
47 0.15
48 0.15
49 0.15
5 0.05
6 -0.87
7 -0.57
8 -0.57
9 -0.62

> <PUBCHEM_EFFECTIVE_ROTOR_COUNT>
5.6

> <PUBCHEM_PHARMACOPHORE_FEATURES>
17
1 1 acceptor
1 2 acceptor
1 2 donor
1 3 acceptor
1 3 donor
1 4 acceptor
1 4 donor
1 6 cation
1 6 donor
3 5 7 22 cation
3 5 8 20 cation
3 8 9 28 cation
5 1 10 11 12 13 rings
5 14 15 16 18 19 rings
5 5 7 20 21 22 rings
6 18 19 24 25 26 27 rings
6 8 9 20 21 23 28 rings

> <PUBCHEM_HEAVY_ATOM_COUNT>
28

> <PUBCHEM_ATOM_DEF_STEREO_COUNT>
3

> <PUBCHEM_ATOM_UDEF_STEREO_COUNT>
1

> <PUBCHEM_BOND_DEF_STEREO_COUNT>
0

> <PUBCHEM_BOND_UDEF_STEREO_COUNT>
0

> <PUBCHEM_ISOTOPIC_ATOM_COUNT>
0

> <PUBCHEM_COMPONENT_COUNT>
1

> <PUBCHEM_CACTVS_TAUTO_COUNT>
3

> <PUBCHEM_CONFORMER_ID>
0001EBD800000001

> <PUBCHEM_MMFF94_ENERGY>
75.3975

> <PUBCHEM_FEATURE_SELFOVERLAP>
86.975

> <PUBCHEM_SHAPE_FINGERPRINT>
10 15 16588034498273102629
105312 117 18335420192630711511
10554248 39 18189321403799954551
10692045 39 15574987339175512176
11475781 23 18272930535960944420
11796584 16 13326585003587891591
12403259 118 17749392623739109347
12422481 6 17095520686488644767
13782708 43 12103841246468588109
14123256 34 10159696923675499833
14211702 104 11167956744104443756
14251764 30 8935004788727668097
15183329 4 16988565671564192293
15238133 3 17458345260511400184
15510800 12 11239702133598012685
1601671 61 18186520999059462445
17349148 13 11959741489993968586
18222031 100 13038907724655691498
18608769 82 18337675326019487707
18927931 339 11959731582248202209
19377110 9 13118300165426686687
20028762 73 8070021151525605809
20281389 69 17967532355235820481
20567600 247 13254796819641799701
20715895 44 18410008862599011176
21033648 29 18187367636056137267
21150785 3 16272204223431098953
21279426 13 18343311348664725550
21682296 61 8718828704300972553
21859007 373 18188480286410839140
220451 1 14261363461273379787
22122407 14 16588888878362810772
22393880 68 17988911298171068999
23081809 10 16298387997730020914
23559900 14 17488740215499281512
23569914 152 16978998601995404925
25122255 55 11527941262470424261
2748736 6 18335413586569914685
2838139 119 18187638115932400877
312425 54 14056721257378783929
3663271 9 15430040993033610656
392239 28 14345798262200415191
4058900 60 18188782643133999339
4169191 19 18058451078958645232
439807 62 13183016324879365261
465052 167 9583517625037240680
50009960 94 11598348395098429364
5104073 3 14996288058333456160
53917941 68 18270674384981943575
59682541 52 17203613636018626198
636775 8 9006513757610100920
7918774 8 9583523126505270291
8863177 126 11239414035348578125

> <PUBCHEM_SHAPE_MULTIPOLES>
527.84
18.93
2.57
1.65
1.59
0.69
-0.45
-15.13
-3.38
0.2
-0.01
-0.74
-0.63
1.89

> <PUBCHEM_SHAPE_SELFOVERLAP>
1167.246

> <PUBCHEM_SHAPE_VOLUME>
281.4

> <PUBCHEM_COORDINATE_TYPE>
2
5
10

$$$$
